0:0
     RDKit          3D

 74 77  0  0  0  0  0  0  0  0999 V2000
   69.1660   35.2170   50.6370 C   0  0  0  0  0  0  0  0  0  0  0  0
   67.8840   35.0690   51.2370 O   0  0  0  0  0  0  0  0  0  0  0  0
   67.1690   33.8620   51.2910 C   0  0  0  0  0  0  0  0  0  0  0  0
   66.0970   33.7630   52.1840 C   0  0  0  0  0  0  0  0  0  0  0  0
   65.3580   32.5810   52.2800 C   0  0  0  0  0  0  0  0  0  0  0  0
   65.6930   31.4730   51.4870 C   0  0  0  0  0  0  0  0  0  0  0  0
   64.8920   30.2030   51.5760 C   0  0  0  0  0  0  0  0  0  0  0  0
   63.5210   30.4070   50.9890 C   0  0  0  0  0  0  0  0  0  0  0  0
   62.6830   29.4680   51.0660 O   0  0  0  0  0  0  0  0  0  0  0  0
   63.1150   31.6400   50.3850 N   0  0  0  0  0  0  0  0  0  0  0  0
   63.6050   32.1800   49.1170 C   0  0  2  0  0  0  0  0  0  0  0  0
   63.2950   33.6830   49.0600 C   0  0  0  0  0  0  0  0  0  0  0  0
   61.8160   33.9460   48.9960 C   0  0  0  0  0  0  0  0  0  0  0  0
   60.9790   34.2140   50.0750 C   0  0  0  0  0  0  0  0  0  0  0  0
   59.7330   34.5100   49.6430 N   0  0  0  0  0  0  0  0  0  0  0  0
   59.7790   34.4410   48.3020 C   0  0  0  0  0  0  0  0  0  0  0  0
   58.7370   34.6890   47.4090 C   0  0  0  0  0  0  0  0  0  0  0  0
   59.0110   34.5740   46.0340 C   0  0  0  0  0  0  0  0  0  0  0  0
   60.3060   34.2230   45.5880 C   0  0  0  0  0  0  0  0  0  0  0  0
   61.3400   33.9960   46.5110 C   0  0  0  0  0  0  0  0  0  0  0  0
   61.0350   34.1030   47.8680 C   0  0  0  0  0  0  0  0  0  0  0  0
   62.9600   31.4550   47.9630 C   0  0  0  0  0  0  0  0  0  0  0  0
   63.3590   31.6740   46.7870 O   0  0  0  0  0  0  0  0  0  0  0  0
   61.9090   30.5090   48.2140 N   0  0  0  0  0  0  0  0  0  0  0  0
   61.1360   29.8860   47.1380 C   0  0  2  0  0  0  0  0  0  0  0  0
   60.1630   30.9220   46.5360 C   0  0  0  0  0  0  0  0  0  0  0  0
   58.7760   30.9350   47.2060 C   0  0  0  0  0  0  0  0  0  0  0  0
   58.8380   31.3220   48.6930 C   0  0  0  0  0  0  0  0  0  0  0  0
   59.1670   30.1550   49.5120 N   0  0  0  0  0  0  0  0  0  0  0  0
   60.0180   30.1850   50.6770 C   0  0  0  0  0  0  0  0  0  0  0  0
   60.2640   28.9670   51.3860 N   0  0  0  0  0  0  0  0  0  0  0  0
   60.5870   31.2830   51.0780 N   0  0  0  0  0  0  0  0  0  0  0  0
   60.4110   28.6790   47.6830 C   0  0  0  0  0  0  0  0  0  0  0  0
   60.7180   28.2290   48.8180 O   0  0  0  0  0  0  0  0  0  0  0  0
   59.3830   27.9950   46.8850 C   0  0  0  0  0  0  0  0  0  0  0  0
   58.1700   27.6500   47.3700 N   0  0  0  0  0  0  0  0  0  0  0  0
   57.3910   27.0690   46.4230 C   0  0  0  0  0  0  0  0  0  0  0  0
   57.9740   26.9460   45.1660 C   0  0  0  0  0  0  0  0  0  0  0  0
   59.5200   27.6020   45.2540 S   0  0  0  0  0  0  0  0  0  0  0  0
   66.7640   31.5700   50.5860 C   0  0  0  0  0  0  0  0  0  0  0  0
   67.4960   32.7550   50.4840 C   0  0  0  0  0  0  0  0  0  0  0  0
   69.9306   35.3053   51.4228 H   0  0  0  0  0  0  0  0  0  0  0  0
   69.3821   34.3378   50.0122 H   0  0  0  0  0  0  0  0  0  0  0  0
   69.1761   36.1223   50.0122 H   0  0  0  0  0  0  0  0  0  0  0  0
   65.8333   34.6235   52.8165 H   0  0  0  0  0  0  0  0  0  0  0  0
   64.5112   32.5190   52.9793 H   0  0  0  0  0  0  0  0  0  0  0  0
   65.4100   29.4077   51.0200 H   0  0  0  0  0  0  0  0  0  0  0  0
   64.7894   29.9184   52.6336 H   0  0  0  0  0  0  0  0  0  0  0  0
   64.6930   32.0349   49.0444 H   0  0  0  0  0  0  0  0  0  0  0  0
   63.7038   34.1653   49.9602 H   0  0  0  0  0  0  0  0  0  0  0  0
   63.7549   34.0927   48.1486 H   0  0  0  0  0  0  0  0  0  0  0  0
   61.2879   34.1885   51.1304 H   0  0  0  0  0  0  0  0  0  0  0  0
   58.9110   34.7560   50.2350 H   0  0  0  0  0  0  0  0  0  0  0  0
   57.7345   34.9653   47.7677 H   0  0  0  0  0  0  0  0  0  0  0  0
   58.2121   34.7585   45.3006 H   0  0  0  0  0  0  0  0  0  0  0  0
   60.5051   34.1270   44.5104 H   0  0  0  0  0  0  0  0  0  0  0  0
   62.3563   33.7423   46.1751 H   0  0  0  0  0  0  0  0  0  0  0  0
   61.7430   30.1920   49.1960 H   0  0  0  0  0  0  0  0  0  0  0  0
   61.8019   29.5462   46.3311 H   0  0  0  0  0  0  0  0  0  0  0  0
   60.6098   31.9213   46.6443 H   0  0  0  0  0  0  0  0  0  0  0  0
   60.0078   30.6420   45.4836 H   0  0  0  0  0  0  0  0  0  0  0  0
   58.1380   31.6605   46.6800 H   0  0  0  0  0  0  0  0  0  0  0  0
   58.3684   29.9151   47.1452 H   0  0  0  0  0  0  0  0  0  0  0  0
   59.6096   32.0931   48.8347 H   0  0  0  0  0  0  0  0  0  0  0  0
   57.8554   31.7082   49.0018 H   0  0  0  0  0  0  0  0  0  0  0  0
   58.7970   29.2310   49.2010 H   0  0  0  0  0  0  0  0  0  0  0  0
   59.8720   28.0630   51.0380 H   0  0  0  0  0  0  0  0  0  0  0  0
   60.8320   28.9570   52.2610 H   0  0  0  0  0  0  0  0  0  0  0  0
   61.6260   31.3870   51.0400 H   0  0  0  0  0  0  0  0  0  0  0  0
   60.0490   32.0980   51.4400 H   0  0  0  0  0  0  0  0  0  0  0  0
   56.3696   26.7196   46.6345 H   0  0  0  0  0  0  0  0  0  0  0  0
   57.5078   26.5000   44.2750 H   0  0  0  0  0  0  0  0  0  0  0  0
   67.0287   30.7078   49.9563 H   0  0  0  0  0  0  0  0  0  0  0  0
   68.3308   32.8240   49.7710 H   0  0  0  0  0  0  0  0  0  0  0  0
  1  2  1  0
  2  3  1  0
  3  4  2  0
  4  5  1  0
  5  6  2  0
  6  7  1  0
  7  8  1  0
  8  9  2  0
  8 10  1  0
 10 11  1  0
 11 12  1  0
 12 13  1  0
 13 14  2  0
 14 15  1  0
 15 16  1  0
 16 17  2  0
 17 18  1  0
 18 19  2  0
 19 20  1  0
 20 21  2  0
 11 22  1  0
 22 23  2  0
 22 24  1  0
 24 25  1  0
 25 26  1  0
 26 27  1  0
 27 28  1  0
 28 29  1  0
 29 30  1  0
 30 31  1  0
 30 32  2  0
 25 33  1  0
 33 34  2  0
 33 35  1  0
 35 36  2  0
 36 37  1  0
 37 38  2  0
 38 39  1  0
  6 40  1  0
 40 41  2  0
 41  3  1  0
 21 13  1  0
 39 35  1  0
 21 16  1  0
  1 42  1  0
  1 43  1  0
  1 44  1  0
  4 45  1  0
  5 46  1  0
  7 47  1  0
  7 48  1  0
 11 49  1  1
 12 50  1  0
 12 51  1  0
 14 52  1  0
 15 53  1  0
 17 54  1  0
 18 55  1  0
 19 56  1  0
 20 57  1  0
 24 58  1  0
 25 59  1  6
 26 60  1  0
 26 61  1  0
 27 62  1  0
 27 63  1  0
 28 64  1  0
 28 65  1  0
 29 66  1  0
 31 67  1  0
 31 68  1  0
 32 69  1  0
 32 70  1  0
 37 71  1  0
 38 72  1  0
 40 73  1  0
 41 74  1  0
M  CHG  2  10  -1  32   1
M  END
>  <UniqueID>  (1) 
1

>  <SMILES>  (1) 
COc1ccc(CC(=O)[N-][C@H](Cc2c[nH]c3ccccc23)C(=O)N[C@H](CCCNC(N)=[NH2+])C(=O)c2nccs2)cc1

>  <Energy>  (1) 
118.18897062801562

>  <Genealogy>  (1) 
COc1ccc(CC(=O)[N-]C(Cc2c[nH]c3ccccc23)C(=O)NC(CCCNC(N)=[NH2+])C(=O)c2nccs2)cc1 (protonated)
COc1ccc(CC(=O)[N-][C@H](Cc2c[nH]c3ccccc23)C(=O)N[C@H](CCCNC(N)=[NH2+])C(=O)c2nccs2)cc1 (chirality)
COc1ccc(CC(=O)[N-][C@H](Cc2c[nH]c3ccccc23)C(=O)N[C@H](CCCNC(N)=[NH2+])C(=O)c2nccs2)cc1 (3D coordinates assigned)
COc1ccc(CC(=O)[N-][C@H](Cc2c[nH]c3ccccc23)C(=O)N[C@H](CCCNC(N)=[NH2+])C(=O)c2nccs2)cc1 (optimized conformer: 118.18897062801562 kcal/mol)

>  <smiles>  (1) 
COc1ccc(CC(=O)NC(Cc2c[nH]c3ccccc23)C(=O)NC(CCCNC(=N)N)C(=O)c2nccs2)cc1

>  <score_type>  (1) 
oracle

>  <origin>  (1) 
adg

>  <m_score__min__energy>  (1) 
-9.3599999999999994

>  <m_primary>  (1) 
energy

$$$$
1:0
     RDKit          3D

 49 51  0  0  0  0  0  0  0  0999 V2000
   55.5360   29.7160   43.3830 C   0  0  0  0  0  0  0  0  0  0  0  0
   56.7400   30.0730   44.2060 C   0  0  0  0  0  0  0  0  0  0  0  0
   57.0450   31.4150   44.4800 C   0  0  0  0  0  0  0  0  0  0  0  0
   58.1540   31.7400   45.2680 C   0  0  0  0  0  0  0  0  0  0  0  0
   58.9670   30.7240   45.8100 C   0  0  0  0  0  0  0  0  0  0  0  0
   60.1520   31.0480   46.6400 C   0  0  0  0  0  0  0  0  0  0  0  0
   60.7890   30.1090   47.1890 O   0  0  0  0  0  0  0  0  0  0  0  0
   60.5840   32.4110   46.8160 N   0  0  0  0  0  0  0  0  0  0  0  0
   61.7620   32.7820   47.5510 C   0  0  0  0  0  0  0  0  0  0  0  0
   62.9370   33.1560   46.8760 C   0  0  0  0  0  0  0  0  0  0  0  0
   64.1040   33.4390   47.5910 C   0  0  0  0  0  0  0  0  0  0  0  0
   64.1140   33.3370   48.9830 C   0  0  0  0  0  0  0  0  0  0  0  0
   62.9570   32.9500   49.6640 C   0  0  0  0  0  0  0  0  0  0  0  0
   61.7780   32.6730   48.9570 C   0  0  0  0  0  0  0  0  0  0  0  0
   60.5940   32.2980   49.6750 N   0  0  0  0  0  0  0  0  0  0  0  0
   59.6620   33.3330   50.1310 C   0  0  0  0  0  0  0  0  0  0  0  0
   58.6790   32.7590   51.1570 C   0  0  0  0  0  0  0  0  0  0  0  0
   58.0130   31.5470   50.6400 N   0  0  0  0  0  0  0  0  0  0  0  0
   57.0520   30.8140   51.9020 S   0  0  0  0  0  0  0  0  0  0  0  0
   57.3700   31.5830   53.4780 C   0  0  0  0  0  0  0  0  0  0  0  0
   57.3630   29.3450   52.0000 O   0  0  0  0  0  0  0  0  0  0  0  0
   55.5950   30.9900   51.5780 O   0  0  0  0  0  0  0  0  0  0  0  0
   58.9230   30.5440   50.0250 C   0  0  0  0  0  0  0  0  0  0  0  0
   60.4100   30.9140   50.1130 C   0  0  0  0  0  0  0  0  0  0  0  0
   58.6550   29.3810   45.5310 C   0  0  0  0  0  0  0  0  0  0  0  0
   57.5460   29.0580   44.7430 C   0  0  0  0  0  0  0  0  0  0  0  0
   54.6970   29.4672   44.0494 H   0  0  0  0  0  0  0  0  0  0  0  0
   55.2592   30.5707   42.7483 H   0  0  0  0  0  0  0  0  0  0  0  0
   55.7698   28.8485   42.7483 H   0  0  0  0  0  0  0  0  0  0  0  0
   56.4090   32.2151   44.0732 H   0  0  0  0  0  0  0  0  0  0  0  0
   58.3933   32.7952   45.4660 H   0  0  0  0  0  0  0  0  0  0  0  0
   60.0550   33.1790   46.3460 H   0  0  0  0  0  0  0  0  0  0  0  0
   62.9379   33.2263   45.7783 H   0  0  0  0  0  0  0  0  0  0  0  0
   65.0159   33.7426   47.0560 H   0  0  0  0  0  0  0  0  0  0  0  0
   65.0331   33.5614   49.5441 H   0  0  0  0  0  0  0  0  0  0  0  0
   62.9710   32.8621   50.7604 H   0  0  0  0  0  0  0  0  0  0  0  0
   60.2305   34.1528   50.5943 H   0  0  0  0  0  0  0  0  0  0  0  0
   59.0943   33.7055   49.2656 H   0  0  0  0  0  0  0  0  0  0  0  0
   59.2280   32.5025   52.0751 H   0  0  0  0  0  0  0  0  0  0  0  0
   57.9095   33.5174   51.3636 H   0  0  0  0  0  0  0  0  0  0  0  0
   57.0850   30.8937   54.2865 H   0  0  0  0  0  0  0  0  0  0  0  0
   58.4406   31.8217   53.5601 H   0  0  0  0  0  0  0  0  0  0  0  0
   56.7807   32.5082   53.5601 H   0  0  0  0  0  0  0  0  0  0  0  0
   58.7749   29.5822   50.5378 H   0  0  0  0  0  0  0  0  0  0  0  0
   58.6692   30.4972   48.9557 H   0  0  0  0  0  0  0  0  0  0  0  0
   60.7531   30.8096   51.1529 H   0  0  0  0  0  0  0  0  0  0  0  0
   60.9941   30.2434   49.4656 H   0  0  0  0  0  0  0  0  0  0  0  0
   59.2887   28.5783   45.9361 H   0  0  0  0  0  0  0  0  0  0  0  0
   57.3045   28.0036   44.5433 H   0  0  0  0  0  0  0  0  0  0  0  0
  1  2  1  0
  2  3  2  0
  3  4  1  0
  4  5  2  0
  5  6  1  0
  6  7  2  0
  6  8  1  0
  8  9  1  0
  9 10  2  0
 10 11  1  0
 11 12  2  0
 12 13  1  0
 13 14  2  0
 14 15  1  0
 15 16  1  0
 16 17  1  0
 17 18  1  0
 18 19  1  0
 19 20  1  0
 19 21  2  0
 19 22  2  0
 18 23  1  0
 23 24  1  0
  5 25  1  0
 25 26  2  0
 26  2  1  0
 14  9  1  0
 24 15  1  0
  1 27  1  0
  1 28  1  0
  1 29  1  0
  3 30  1  0
  4 31  1  0
  8 32  1  0
 10 33  1  0
 11 34  1  0
 12 35  1  0
 13 36  1  0
 16 37  1  0
 16 38  1  0
 17 39  1  0
 17 40  1  0
 20 41  1  0
 20 42  1  0
 20 43  1  0
 23 44  1  0
 23 45  1  0
 24 46  1  0
 24 47  1  0
 25 48  1  0
 26 49  1  0
M  END
>  <UniqueID>  (2) 
2

>  <SMILES>  (2) 
Cc1ccc(C(=O)Nc2ccccc2N2CCN(S(C)(=O)=O)CC2)cc1

>  <Energy>  (2) 
61.20980190476025

>  <Genealogy>  (2) 
Cc1ccc(C(=O)Nc2ccccc2N2CCN(S(C)(=O)=O)CC2)cc1 (3D coordinates assigned)
Cc1ccc(C(=O)Nc2ccccc2N2CCN(S(C)(=O)=O)CC2)cc1 (nonaromatic ring conformer: 61.20980190476025 kcal/mol)

>  <smiles>  (2) 
Cc1ccc(C(=O)Nc2ccccc2N2CCN(S(C)(=O)=O)CC2)cc1

>  <score_type>  (2) 
oracle

>  <origin>  (2) 
adg

>  <m_score__min__energy>  (2) 
-7.8300000000000001

>  <m_primary>  (2) 
energy

$$$$
2:0
     RDKit          3D

 57 61  0  0  0  0  0  0  0  0999 V2000
   64.1390   33.5720   46.9530 F   0  0  0  0  0  0  0  0  0  0  0  0
   63.4100   32.6820   47.6700 C   0  0  0  0  0  0  0  0  0  0  0  0
   63.8130   32.3300   48.9620 C   0  0  0  0  0  0  0  0  0  0  0  0
   63.0490   31.4290   49.7090 C   0  0  0  0  0  0  0  0  0  0  0  0
   61.8870   30.8750   49.1650 C   0  0  0  0  0  0  0  0  0  0  0  0
   61.4880   31.2080   47.8600 C   0  0  0  0  0  0  0  0  0  0  0  0
   60.2560   30.6190   47.2990 C   0  0  0  0  0  0  0  0  0  0  0  0
   60.2240   29.4370   46.6540 N   0  0  0  0  0  0  0  0  0  0  0  0
   58.9820   29.1990   46.2570 N   0  0  0  0  0  0  0  0  0  0  0  0
   58.5680   28.0400   45.5060 C   0  0  0  0  0  0  0  0  0  0  0  0
   58.3330   28.1290   44.1220 C   0  0  0  0  0  0  0  0  0  0  0  0
   57.9390   27.0030   43.3950 C   0  0  0  0  0  0  0  0  0  0  0  0
   57.7710   25.7660   44.0390 C   0  0  0  0  0  0  0  0  0  0  0  0
   57.4010   24.6080   43.3400 O   0  0  0  0  0  0  0  0  0  0  0  0
   56.9120   23.4280   43.9210 C   0  0  0  0  0  0  0  0  0  0  0  0
   57.5450   22.1850   43.7340 C   0  0  0  0  0  0  0  0  0  0  0  0
   57.0120   21.0280   44.3140 C   0  0  0  0  0  0  0  0  0  0  0  0
   55.8380   21.1010   45.0720 C   0  0  0  0  0  0  0  0  0  0  0  0
   55.1680   19.6500   45.7920 Cl  0  0  0  0  0  0  0  0  0  0  0  0
   55.1940   22.3310   45.2440 C   0  0  0  0  0  0  0  0  0  0  0  0
   55.7270   23.4870   44.6660 C   0  0  0  0  0  0  0  0  0  0  0  0
   58.0300   25.6680   45.4100 C   0  0  0  0  0  0  0  0  0  0  0  0
   58.4190   26.7950   46.1400 C   0  0  0  0  0  0  0  0  0  0  0  0
   58.1960   30.2290   46.6340 C   0  0  0  0  0  0  0  0  0  0  0  0
   58.9760   31.1630   47.2940 C   0  0  0  0  0  0  0  0  0  0  0  0
   58.5200   32.5300   47.7530 C   0  0  0  0  0  0  0  0  0  0  0  0
   58.7870   33.6140   46.7800 N   0  0  0  0  0  0  0  0  0  0  0  0
   59.8920   34.5040   47.1750 C   0  0  0  0  0  0  0  0  0  0  0  0
   59.9990   35.6780   46.1800 C   0  0  0  0  0  0  0  0  0  0  0  0
   59.0810   35.5570   45.1090 O   0  0  0  0  0  0  0  0  0  0  0  0
   59.2650   34.3150   44.4540 C   0  0  0  0  0  0  0  0  0  0  0  0
   58.9700   33.1320   45.3980 C   0  0  0  0  0  0  0  0  0  0  0  0
   62.2490   32.1290   47.1210 C   0  0  0  0  0  0  0  0  0  0  0  0
   64.7299   32.7616   49.3898 H   0  0  0  0  0  0  0  0  0  0  0  0
   63.3630   31.1554   50.7271 H   0  0  0  0  0  0  0  0  0  0  0  0
   61.2825   30.1755   49.7611 H   0  0  0  0  0  0  0  0  0  0  0  0
   61.0380   28.7970   46.5130 H   0  0  0  0  0  0  0  0  0  0  0  0
   58.4605   29.0931   43.6079 H   0  0  0  0  0  0  0  0  0  0  0  0
   57.7594   27.0855   42.3129 H   0  0  0  0  0  0  0  0  0  0  0  0
   58.4621   22.1225   43.1298 H   0  0  0  0  0  0  0  0  0  0  0  0
   57.5164   20.0606   44.1738 H   0  0  0  0  0  0  0  0  0  0  0  0
   54.2677   22.3886   45.8344 H   0  0  0  0  0  0  0  0  0  0  0  0
   55.2121   24.4501   44.7972 H   0  0  0  0  0  0  0  0  0  0  0  0
   57.9269   24.6974   45.9173 H   0  0  0  0  0  0  0  0  0  0  0  0
   58.6100   26.7064   47.2197 H   0  0  0  0  0  0  0  0  0  0  0  0
   57.1151   30.3126   46.4478 H   0  0  0  0  0  0  0  0  0  0  0  0
   57.4361   32.4893   47.9361 H   0  0  0  0  0  0  0  0  0  0  0  0
   59.0951   32.7686   48.6598 H   0  0  0  0  0  0  0  0  0  0  0  0
   59.7011   34.8972   48.1845 H   0  0  0  0  0  0  0  0  0  0  0  0
   60.8345   33.9368   47.1700 H   0  0  0  0  0  0  0  0  0  0  0  0
   59.7957   36.6166   46.7164 H   0  0  0  0  0  0  0  0  0  0  0  0
   61.0143   35.6704   45.7568 H   0  0  0  0  0  0  0  0  0  0  0  0
   58.5858   34.2617   43.5904 H   0  0  0  0  0  0  0  0  0  0  0  0
   60.3141   34.2464   44.1303 H   0  0  0  0  0  0  0  0  0  0  0  0
   58.0528   32.6231   45.0666 H   0  0  0  0  0  0  0  0  0  0  0  0
   59.8188   32.4329   45.3720 H   0  0  0  0  0  0  0  0  0  0  0  0
   61.9307   32.4159   46.1079 H   0  0  0  0  0  0  0  0  0  0  0  0
  1  2  1  0
  2  3  2  0
  3  4  1  0
  4  5  2  0
  5  6  1  0
  6  7  1  0
  7  8  2  0
  8  9  1  0
  9 10  1  0
 10 11  2  0
 11 12  1  0
 12 13  2  0
 13 14  1  0
 14 15  1  0
 15 16  2  0
 16 17  1  0
 17 18  2  0
 18 19  1  0
 18 20  1  0
 20 21  2  0
 13 22  1  0
 22 23  2  0
  9 24  1  0
 24 25  2  0
 25 26  1  0
 26 27  1  0
 27 28  1  0
 28 29  1  0
 29 30  1  0
 30 31  1  0
 31 32  1  0
  6 33  2  0
 33  2  1  0
 25  7  1  0
 32 27  1  0
 23 10  1  0
 21 15  1  0
  3 34  1  0
  4 35  1  0
  5 36  1  0
  8 37  1  0
 11 38  1  0
 12 39  1  0
 16 40  1  0
 17 41  1  0
 20 42  1  0
 21 43  1  0
 22 44  1  0
 23 45  1  0
 24 46  1  0
 26 47  1  0
 26 48  1  0
 28 49  1  0
 28 50  1  0
 29 51  1  0
 29 52  1  0
 31 53  1  0
 31 54  1  0
 32 55  1  0
 32 56  1  0
 33 57  1  0
M  CHG  1   8   1
M  END
>  <UniqueID>  (3) 
3

>  <SMILES>  (3) 
Fc1cccc(-c2[nH+]n(-c3ccc(Oc4ccc(Cl)cc4)cc3)cc2CN2CCOCC2)c1

>  <Energy>  (3) 
118.70047486801218

>  <Genealogy>  (3) 
Fc1cccc(-c2[nH+]n(-c3ccc(Oc4ccc(Cl)cc4)cc3)cc2CN2CCOCC2)c1 (protonated)
Fc1cccc(-c2[nH+]n(-c3ccc(Oc4ccc(Cl)cc4)cc3)cc2CN2CCOCC2)c1 (3D coordinates assigned)
Fc1cccc(-c2[nH+]n(-c3ccc(Oc4ccc(Cl)cc4)cc3)cc2CN2CCOCC2)c1 (nonaromatic ring conformer: 118.70047486801218 kcal/mol)

>  <smiles>  (3) 
Fc1cccc(-c2nn(-c3ccc(Oc4ccc(Cl)cc4)cc3)cc2CN2CCOCC2)c1

>  <score_type>  (3) 
oracle

>  <origin>  (3) 
adg

>  <m_score__min__energy>  (3) 
-6.7599999999999998

>  <m_primary>  (3) 
energy

$$$$
3:0
     RDKit          3D

 29 31  0  0  0  0  0  0  0  0999 V2000
   54.6650   26.2040   45.9780 O   0  0  0  0  0  0  0  0  0  0  0  0
   55.9120   26.3940   45.9860 C   0  0  0  0  0  0  0  0  0  0  0  0
   56.7730   25.3590   46.3790 C   0  0  0  0  0  0  0  0  0  0  0  0
   56.1110   23.7610   46.8820 S   0  0  0  0  0  0  0  0  0  0  0  0
   56.3410   23.0370   45.2560 C   0  0  0  0  0  0  0  0  0  0  0  0
   57.2490   21.9850   45.0770 C   0  0  0  0  0  0  0  0  0  0  0  0
   57.4270   21.4200   43.8100 C   0  0  0  0  0  0  0  0  0  0  0  0
   56.7020   21.9100   42.7180 C   0  0  0  0  0  0  0  0  0  0  0  0
   55.8030   22.9660   42.8930 C   0  0  0  0  0  0  0  0  0  0  0  0
   55.6250   23.5320   44.1580 C   0  0  0  0  0  0  0  0  0  0  0  0
   58.1560   25.5730   46.3630 C   0  0  0  0  0  0  0  0  0  0  0  0
   59.0180   24.5430   46.7280 O   0  0  0  0  0  0  0  0  0  0  0  0
   58.6650   26.8240   45.9800 C   0  0  0  0  0  0  0  0  0  0  0  0
   60.0490   27.0740   45.9630 C   0  0  0  0  0  0  0  0  0  0  0  0
   60.5330   28.3270   45.5790 C   0  0  0  0  0  0  0  0  0  0  0  0
   59.6460   29.3380   45.2090 C   0  0  0  0  0  0  0  0  0  0  0  0
   58.2690   29.1050   45.2180 C   0  0  0  0  0  0  0  0  0  0  0  0
   57.7610   27.8490   45.6030 C   0  0  0  0  0  0  0  0  0  0  0  0
   56.4120   27.6080   45.6130 N   0  0  0  0  0  0  0  0  0  0  0  0
   55.5300   28.6010   45.2410 O   0  0  0  0  0  0  0  0  0  0  0  0
   57.8227   21.6029   45.9342 H   0  0  0  0  0  0  0  0  0  0  0  0
   58.1366   20.5909   43.6720 H   0  0  0  0  0  0  0  0  0  0  0  0
   56.8395   21.4642   41.7218 H   0  0  0  0  0  0  0  0  0  0  0  0
   55.2349   23.3519   42.0337 H   0  0  0  0  0  0  0  0  0  0  0  0
   54.9219   24.3673   44.2921 H   0  0  0  0  0  0  0  0  0  0  0  0
   60.7529   26.2800   46.2531 H   0  0  0  0  0  0  0  0  0  0  0  0
   61.6164   28.5168   45.5684 H   0  0  0  0  0  0  0  0  0  0  0  0
   60.0328   30.3230   44.9088 H   0  0  0  0  0  0  0  0  0  0  0  0
   57.5769   29.9073   44.9226 H   0  0  0  0  0  0  0  0  0  0  0  0
  1  2  2  0
  2  3  1  0
  3  4  1  0
  4  5  1  0
  5  6  2  0
  6  7  1  0
  7  8  2  0
  8  9  1  0
  9 10  2  0
  3 11  2  0
 11 12  1  0
 11 13  1  0
 13 14  2  0
 14 15  1  0
 15 16  2  0
 16 17  1  0
 17 18  2  0
 18 19  1  0
 19 20  1  0
 19  2  1  0
 10  5  1  0
 18 13  1  0
  6 21  1  0
  7 22  1  0
  8 23  1  0
  9 24  1  0
 10 25  1  0
 14 26  1  0
 15 27  1  0
 16 28  1  0
 17 29  1  0
M  CHG  2  12  -1  20  -1
M  END
>  <UniqueID>  (4) 
4

>  <SMILES>  (4) 
O=c1c(Sc2ccccc2)c([O-])c2ccccc2n1[O-]

>  <Energy>  (4) 
34.87259420006265

>  <Genealogy>  (4) 
O=c1c(Sc2ccccc2)c([O-])c2ccccc2n1[O-] (protonated)
O=c1c(Sc2ccccc2)c([O-])c2ccccc2n1[O-] (3D coordinates assigned)
O=c1c(Sc2ccccc2)c([O-])c2ccccc2n1[O-] (optimized conformer: 34.87259420006265 kcal/mol)

>  <smiles>  (4) 
O=c1c(Sc2ccccc2)c(O)c2ccccc2n1O

>  <score_type>  (4) 
oracle

>  <origin>  (4) 
adg

>  <m_score__min__energy>  (4) 
-11.949999999999999

>  <m_primary>  (4) 
energy

$$$$
4:0
     RDKit          3D

 44 46  0  0  0  0  0  0  0  0999 V2000
   64.1460   33.1290   48.4910 C   0  0  0  0  0  0  0  0  0  0  0  0
   63.4280   33.4620   47.1880 C   0  0  0  0  0  0  0  0  0  0  0  0
   62.1200   32.7390   47.1100 C   0  0  0  0  0  0  0  0  0  0  0  0
   61.8890   31.5420   47.6920 N   0  0  0  0  0  0  0  0  0  0  0  0
   60.6280   31.2870   47.2820 C   0  0  0  0  0  0  0  0  0  0  0  0
   59.8680   30.0420   47.6320 C   0  0  0  0  0  0  0  0  0  0  0  0
   58.5660   29.9860   46.9460 N   0  0  0  0  0  0  0  0  0  0  0  0
   58.4010   28.7500   46.1550 C   0  0  2  0  0  0  0  0  0  0  0  0
   59.3230   28.7500   44.9420 C   0  0  0  0  0  0  0  0  0  0  0  0
   58.4780   28.2170   43.8000 C   0  0  0  0  0  0  0  0  0  0  0  0
   57.0740   28.5040   44.1160 N   0  0  0  0  0  0  0  0  0  0  0  0
   56.5370   29.6750   43.3840 C   0  0  0  0  0  0  0  0  0  0  0  0
   57.0580   30.9960   43.8900 C   0  0  0  0  0  0  0  0  0  0  0  0
   57.8710   31.8670   43.1890 C   0  0  0  0  0  0  0  0  0  0  0  0
   58.1210   32.9170   44.0470 C   0  0  0  0  0  0  0  0  0  0  0  0
   57.4460   32.6160   45.2130 C   0  0  0  0  0  0  0  0  0  0  0  0
   57.3990   33.4650   46.4380 C   0  0  0  0  0  0  0  0  0  0  0  0
   56.8160   31.4710   45.0890 O   0  0  0  0  0  0  0  0  0  0  0  0
   56.9810   28.6370   45.5810 C   0  0  0  0  0  0  0  0  0  0  0  0
   60.1600   32.2420   46.5130 O   0  0  0  0  0  0  0  0  0  0  0  0
   61.0680   33.1560   46.3870 N   0  0  0  0  0  0  0  0  0  0  0  0
   63.5146   33.4218   49.3428 H   0  0  0  0  0  0  0  0  0  0  0  0
   64.3429   32.0477   48.5352 H   0  0  0  0  0  0  0  0  0  0  0  0
   65.0986   33.6772   48.5352 H   0  0  0  0  0  0  0  0  0  0  0  0
   63.2457   34.5458   47.1420 H   0  0  0  0  0  0  0  0  0  0  0  0
   64.0591   33.1472   46.3439 H   0  0  0  0  0  0  0  0  0  0  0  0
   60.4641   29.1659   47.3368 H   0  0  0  0  0  0  0  0  0  0  0  0
   59.6836   30.0470   48.7164 H   0  0  0  0  0  0  0  0  0  0  0  0
   58.4900   30.8200   46.3150 H   0  0  0  0  0  0  0  0  0  0  0  0
   58.6264   27.9218   46.8430 H   0  0  0  0  0  0  0  0  0  0  0  0
   59.6702   29.7702   44.7214 H   0  0  0  0  0  0  0  0  0  0  0  0
   60.2218   28.1381   45.1088 H   0  0  0  0  0  0  0  0  0  0  0  0
   58.7604   28.7145   42.8604 H   0  0  0  0  0  0  0  0  0  0  0  0
   58.6331   27.1350   43.6767 H   0  0  0  0  0  0  0  0  0  0  0  0
   56.8107   29.5769   42.3231 H   0  0  0  0  0  0  0  0  0  0  0  0
   55.4478   29.6786   43.5374 H   0  0  0  0  0  0  0  0  0  0  0  0
   58.2416   31.7473   42.1602 H   0  0  0  0  0  0  0  0  0  0  0  0
   58.7316   33.8093   43.8445 H   0  0  0  0  0  0  0  0  0  0  0  0
   57.4345   32.8231   47.3306 H   0  0  0  0  0  0  0  0  0  0  0  0
   58.2607   34.1487   46.4435 H   0  0  0  0  0  0  0  0  0  0  0  0
   56.4671   34.0494   46.4435 H   0  0  0  0  0  0  0  0  0  0  0  0
   56.4058   29.5395   45.8352 H   0  0  0  0  0  0  0  0  0  0  0  0
   56.4731   27.7587   46.0061 H   0  0  0  0  0  0  0  0  0  0  0  0
   60.9820   34.0280   45.8200 H   0  0  0  0  0  0  0  0  0  0  0  0
  1  2  1  0
  2  3  1  0
  3  4  1  0
  4  5  2  0
  5  6  1  0
  6  7  1  0
  7  8  1  0
  8  9  1  0
  9 10  1  0
 10 11  1  0
 11 12  1  0
 12 13  1  0
 13 14  2  0
 14 15  1  0
 15 16  2  0
 16 17  1  0
 16 18  1  0
 11 19  1  0
  5 20  1  0
 20 21  1  0
 21  3  2  0
 19  8  1  0
 18 13  1  0
  1 22  1  0
  1 23  1  0
  1 24  1  0
  2 25  1  0
  2 26  1  0
  6 27  1  0
  6 28  1  0
  7 29  1  0
  8 30  1  1
  9 31  1  0
  9 32  1  0
 10 33  1  0
 10 34  1  0
 12 35  1  0
 12 36  1  0
 14 37  1  0
 15 38  1  0
 17 39  1  0
 17 40  1  0
 17 41  1  0
 19 42  1  0
 19 43  1  0
 21 44  1  0
M  CHG  1  21   1
M  END
>  <UniqueID>  (5) 
5

>  <SMILES>  (5) 
CCc1nc(CN[C@@H]2CCN(Cc3ccc(C)o3)C2)o[nH+]1

>  <Energy>  (5) 
102.75264333707625

>  <Genealogy>  (5) 
CCc1nc(CNC2CCN(Cc3ccc(C)o3)C2)o[nH+]1 (protonated)
CCc1nc(CN[C@@H]2CCN(Cc3ccc(C)o3)C2)o[nH+]1 (chirality)
CCc1nc(CN[C@@H]2CCN(Cc3ccc(C)o3)C2)o[nH+]1 (3D coordinates assigned)
CCc1nc(CN[C@@H]2CCN(Cc3ccc(C)o3)C2)o[nH+]1 (nonaromatic ring conformer: 102.75264333707625 kcal/mol)

>  <smiles>  (5) 
CCc1noc(CNC2CCN(Cc3ccc(C)o3)C2)n1

>  <score_type>  (5) 
oracle

>  <origin>  (5) 
adg

>  <m_score__min__energy>  (5) 
-5.8499999999999996

>  <m_primary>  (5) 
energy

$$$$
5:0
     RDKit          3D

 54 57  0  0  0  0  0  0  0  0999 V2000
   52.9250   30.1760   51.0460 C   0  0  0  0  0  0  0  0  0  0  0  0
   53.2600   31.0300   52.2600 C   0  0  0  0  0  0  0  0  0  0  0  0
   54.1590   30.1050   53.5000 S   0  0  0  0  0  0  0  0  0  0  0  0
   53.3540   29.9810   54.7630 O   0  0  0  0  0  0  0  0  0  0  0  0
   54.4060   28.7230   52.9660 O   0  0  0  0  0  0  0  0  0  0  0  0
   55.7000   30.8410   53.8250 N   0  0  0  0  0  0  0  0  0  0  0  0
   56.7070   31.2150   52.8730 C   0  0  0  0  0  0  0  0  0  0  0  0
   57.0360   30.4180   51.7630 C   0  0  0  0  0  0  0  0  0  0  0  0
   58.0380   30.8210   50.8760 C   0  0  0  0  0  0  0  0  0  0  0  0
   58.7320   32.0260   51.0770 C   0  0  0  0  0  0  0  0  0  0  0  0
   59.7720   32.4510   50.1030 C   0  0  0  0  0  0  0  0  0  0  0  0
   59.3730   32.8750   48.8770 N   0  0  0  0  0  0  0  0  0  0  0  0
   60.2220   33.2810   47.9310 N   0  0  0  0  0  0  0  0  0  0  0  0
   59.6500   33.6630   46.6690 C   0  0  0  0  0  0  0  0  0  0  0  0
   59.7460   34.8640   46.2960 O   0  0  0  0  0  0  0  0  0  0  0  0
   58.8850   32.6940   45.8460 C   0  0  0  0  0  0  0  0  0  0  0  0
   58.7410   31.3600   46.2700 C   0  0  0  0  0  0  0  0  0  0  0  0
   58.0120   30.4470   45.5030 C   0  0  0  0  0  0  0  0  0  0  0  0
   57.4160   30.8510   44.3000 C   0  0  0  0  0  0  0  0  0  0  0  0
   56.5060   29.7010   43.3260 S   0  0  0  0  0  0  0  0  0  0  0  0
   57.3830   28.2160   43.2030 N   0  0  0  0  0  0  0  0  0  0  0  0
   55.1680   29.4360   43.9600 O   0  0  0  0  0  0  0  0  0  0  0  0
   56.2830   30.2680   41.9520 O   0  0  0  0  0  0  0  0  0  0  0  0
   57.5690   32.1710   43.8630 C   0  0  0  0  0  0  0  0  0  0  0  0
   58.2990   33.0870   44.6290 C   0  0  0  0  0  0  0  0  0  0  0  0
   61.5740   33.3280   48.1800 C   0  0  0  0  0  0  0  0  0  0  0  0
   62.4930   33.8410   47.2380 C   0  0  0  0  0  0  0  0  0  0  0  0
   63.8610   33.8560   47.5140 C   0  0  0  0  0  0  0  0  0  0  0  0
   64.3370   33.3740   48.7320 C   0  0  0  0  0  0  0  0  0  0  0  0
   63.4460   32.8830   49.6860 C   0  0  0  0  0  0  0  0  0  0  0  0
   62.0610   32.8650   49.4270 C   0  0  0  0  0  0  0  0  0  0  0  0
   61.1460   32.4020   50.3880 C   0  0  0  0  0  0  0  0  0  0  0  0
   61.5580   31.9330   51.4840 O   0  0  0  0  0  0  0  0  0  0  0  0
   58.3790   32.8340   52.1740 C   0  0  0  0  0  0  0  0  0  0  0  0
   57.3870   32.4220   53.0670 C   0  0  0  0  0  0  0  0  0  0  0  0
   52.5421   29.1999   51.3787 H   0  0  0  0  0  0  0  0  0  0  0  0
   52.1592   30.6833   50.4408 H   0  0  0  0  0  0  0  0  0  0  0  0
   53.8315   30.0274   50.4408 H   0  0  0  0  0  0  0  0  0  0  0  0
   53.8758   31.8821   51.9362 H   0  0  0  0  0  0  0  0  0  0  0  0
   52.3149   31.3708   52.7080 H   0  0  0  0  0  0  0  0  0  0  0  0
   56.5019   29.4718   51.5915 H   0  0  0  0  0  0  0  0  0  0  0  0
   58.2860   30.1880   50.0112 H   0  0  0  0  0  0  0  0  0  0  0  0
   59.2056   31.0334   47.2120 H   0  0  0  0  0  0  0  0  0  0  0  0
   57.9054   29.4069   45.8447 H   0  0  0  0  0  0  0  0  0  0  0  0
   56.7820   27.5500   42.6690 H   0  0  0  0  0  0  0  0  0  0  0  0
   58.2230   28.4060   42.6100 H   0  0  0  0  0  0  0  0  0  0  0  0
   57.1139   32.4902   42.9138 H   0  0  0  0  0  0  0  0  0  0  0  0
   58.4155   34.1225   44.2766 H   0  0  0  0  0  0  0  0  0  0  0  0
   62.1269   34.2325   46.2774 H   0  0  0  0  0  0  0  0  0  0  0  0
   64.5663   34.2498   46.7673 H   0  0  0  0  0  0  0  0  0  0  0  0
   65.4169   33.3808   48.9412 H   0  0  0  0  0  0  0  0  0  0  0  0
   63.8270   32.5073   50.6471 H   0  0  0  0  0  0  0  0  0  0  0  0
   58.8879   33.7968   52.3293 H   0  0  0  0  0  0  0  0  0  0  0  0
   57.1378   33.0537   53.9324 H   0  0  0  0  0  0  0  0  0  0  0  0
  1  2  1  0
  2  3  1  0
  3  4  2  0
  3  5  2  0
  3  6  1  0
  6  7  1  0
  7  8  2  0
  8  9  1  0
  9 10  2  0
 10 11  1  0
 11 12  2  0
 12 13  1  0
 13 14  1  0
 14 15  2  0
 14 16  1  0
 16 17  2  0
 17 18  1  0
 18 19  2  0
 19 20  1  0
 20 21  1  0
 20 22  2  0
 20 23  2  0
 19 24  1  0
 24 25  2  0
 13 26  1  0
 26 27  2  0
 27 28  1  0
 28 29  2  0
 29 30  1  0
 30 31  2  0
 31 32  1  0
 32 33  2  0
 10 34  1  0
 34 35  2  0
 35  7  1  0
 32 11  1  0
 25 16  1  0
 31 26  1  0
  1 36  1  0
  1 37  1  0
  1 38  1  0
  2 39  1  0
  2 40  1  0
  8 41  1  0
  9 42  1  0
 17 43  1  0
 18 44  1  0
 21 45  1  0
 21 46  1  0
 24 47  1  0
 25 48  1  0
 27 49  1  0
 28 50  1  0
 29 51  1  0
 30 52  1  0
 34 53  1  0
 35 54  1  0
M  CHG  1   6  -1
M  END
>  <UniqueID>  (6) 
6

>  <SMILES>  (6) 
CCS(=O)(=O)[N-]c1ccc(-c2nn(C(=O)c3ccc(S(N)(=O)=O)cc3)c3ccccc3c2=O)cc1

>  <Energy>  (6) 
75.64769155505732

>  <Genealogy>  (6) 
CCS(=O)(=O)[N-]c1ccc(-c2nn(C(=O)c3ccc(S(N)(=O)=O)cc3)c3ccccc3c2=O)cc1 (protonated)
CCS(=O)(=O)[N-]c1ccc(-c2nn(C(=O)c3ccc(S(N)(=O)=O)cc3)c3ccccc3c2=O)cc1 (3D coordinates assigned)
CCS(=O)(=O)[N-]c1ccc(-c2nn(C(=O)c3ccc(S(N)(=O)=O)cc3)c3ccccc3c2=O)cc1 (optimized conformer: 75.64769155505732 kcal/mol)

>  <smiles>  (6) 
CCS(=O)(=O)Nc1ccc(-c2nn(C(=O)c3ccc(S(N)(=O)=O)cc3)c3ccccc3c2=O)cc1

>  <score_type>  (6) 
oracle

>  <origin>  (6) 
adg

>  <m_score__min__energy>  (6) 
-11.08

>  <m_primary>  (6) 
energy

$$$$
6:0
     RDKit          3D

 25 26  0  0  0  0  0  0  0  0999 V2000
   55.1830   26.7120   46.0030 N   0  0  0  0  0  0  0  0  0  0  0  0
   55.9520   25.5350   46.2400 C   0  0  0  0  0  0  0  0  0  0  0  0
   55.3640   24.4430   46.4600 O   0  0  0  0  0  0  0  0  0  0  0  0
   57.4210   25.6180   46.2620 C   0  0  0  0  0  0  0  0  0  0  0  0
   58.2150   24.5500   46.4710 N   0  0  0  0  0  0  0  0  0  0  0  0
   59.4800   24.9230   46.3200 N   0  0  0  0  0  0  0  0  0  0  0  0
   59.5130   26.2320   46.0070 C   0  0  0  0  0  0  0  0  0  0  0  0
   58.2250   26.7090   45.9760 C   0  0  0  0  0  0  0  0  0  0  0  0
   57.8380   28.0590   45.6940 N   0  0  0  0  0  0  0  0  0  0  0  0
   58.7180   28.9960   45.0530 C   0  0  0  0  0  0  0  0  0  0  0  0
   59.7680   28.5790   44.4910 O   0  0  0  0  0  0  0  0  0  0  0  0
   58.3940   30.4430   45.0160 C   0  0  0  0  0  0  0  0  0  0  0  0
   58.0560   31.0620   43.7970 C   0  0  0  0  0  0  0  0  0  0  0  0
   57.7560   32.4270   43.7550 C   0  0  0  0  0  0  0  0  0  0  0  0
   57.7960   33.1900   44.9230 C   0  0  0  0  0  0  0  0  0  0  0  0
   57.5070   34.5140   44.8780 F   0  0  0  0  0  0  0  0  0  0  0  0
   58.1410   32.5910   46.1370 C   0  0  0  0  0  0  0  0  0  0  0  0
   58.4410   31.2260   46.1860 C   0  0  0  0  0  0  0  0  0  0  0  0
   54.5350   27.0850   46.7330 H   0  0  0  0  0  0  0  0  0  0  0  0
   60.4203   26.8215   45.8090 H   0  0  0  0  0  0  0  0  0  0  0  0
   56.8190   28.2870   45.7420 H   0  0  0  0  0  0  0  0  0  0  0  0
   58.0278   30.4677   42.8718 H   0  0  0  0  0  0  0  0  0  0  0  0
   57.4878   32.9007   42.7991 H   0  0  0  0  0  0  0  0  0  0  0  0
   58.1767   33.1942   47.0562 H   0  0  0  0  0  0  0  0  0  0  0  0
   58.7154   30.7608   47.1443 H   0  0  0  0  0  0  0  0  0  0  0  0
  1  2  1  0
  2  3  2  0
  2  4  1  0
  4  5  2  0
  5  6  1  0
  6  7  1  0
  7  8  2  0
  8  9  1  0
  9 10  1  0
 10 11  2  0
 10 12  1  0
 12 13  2  0
 13 14  1  0
 14 15  2  0
 15 16  1  0
 15 17  1  0
 17 18  2  0
  8  4  1  0
 18 12  1  0
  1 19  1  0
  7 20  1  0
  9 21  1  0
 13 22  1  0
 14 23  1  0
 17 24  1  0
 18 25  1  0
M  CHG  2   1  -1   6  -1
M  END
>  <UniqueID>  (7) 
7

>  <SMILES>  (7) 
[NH-]C(=O)c1n[n-]cc1NC(=O)c1ccc(F)cc1

>  <Energy>  (7) 
62.84184729554581

>  <Genealogy>  (7) 
[NH-]C(=O)c1n[n-]cc1NC(=O)c1ccc(F)cc1 (protonated)
[NH-]C(=O)c1n[n-]cc1NC(=O)c1ccc(F)cc1 (3D coordinates assigned)
[NH-]C(=O)c1n[n-]cc1NC(=O)c1ccc(F)cc1 (optimized conformer: 62.84184729554581 kcal/mol)

>  <smiles>  (7) 
NC(=O)c1n[nH]cc1NC(=O)c1ccc(F)cc1

>  <score_type>  (7) 
oracle

>  <origin>  (7) 
adg

>  <m_score__min__energy>  (7) 
-10.84

>  <m_primary>  (7) 
energy

$$$$
7:0
     RDKit          3D

 44 46  0  0  0  0  0  0  0  0999 V2000
   63.7060   33.4780   46.7750 C   0  0  0  0  0  0  0  0  0  0  0  0
   63.1360   34.0670   47.9400 O   0  0  0  0  0  0  0  0  0  0  0  0
   61.8280   33.8320   48.3890 C   0  0  0  0  0  0  0  0  0  0  0  0
   61.4570   33.9780   49.7370 C   0  0  0  0  0  0  0  0  0  0  0  0
   60.1410   33.7390   50.1450 C   0  0  0  0  0  0  0  0  0  0  0  0
   59.8260   33.9090   51.5030 O   0  0  0  0  0  0  0  0  0  0  0  0
   58.5640   33.5940   52.0830 C   0  0  0  0  0  0  0  0  0  0  0  0
   59.1830   33.3420   49.1930 C   0  0  0  0  0  0  0  0  0  0  0  0
   59.5410   33.1800   47.8430 C   0  0  0  0  0  0  0  0  0  0  0  0
   58.5350   32.7670   46.8330 C   0  0  0  0  0  0  0  0  0  0  0  0
   57.3350   33.1320   46.9660 O   0  0  0  0  0  0  0  0  0  0  0  0
   58.9210   31.9980   45.6820 N   0  0  0  0  0  0  0  0  0  0  0  0
   58.0010   31.2240   44.8920 C   0  0  0  0  0  0  0  0  0  0  0  0
   57.6330   31.6260   43.5960 C   0  0  0  0  0  0  0  0  0  0  0  0
   56.7030   30.8820   42.8660 C   0  0  0  0  0  0  0  0  0  0  0  0
   56.1310   29.7350   43.4190 C   0  0  0  0  0  0  0  0  0  0  0  0
   56.4890   29.3160   44.7060 C   0  0  0  0  0  0  0  0  0  0  0  0
   55.8560   28.1460   45.2480 N   0  0  0  0  0  0  0  0  0  0  0  0
   56.5000   27.0720   45.9450 C   0  0  0  0  0  0  0  0  0  0  0  0
   55.8400   26.0780   46.3490 O   0  0  0  0  0  0  0  0  0  0  0  0
   57.9340   27.1530   46.2440 C   0  0  0  0  0  0  0  0  0  0  0  0
   58.9630   27.0280   45.3310 C   0  0  0  0  0  0  0  0  0  0  0  0
   60.1240   27.1710   46.0600 C   0  0  0  0  0  0  0  0  0  0  0  0
   59.7340   27.3730   47.3680 C   0  0  0  0  0  0  0  0  0  0  0  0
   58.4220   27.3570   47.4460 O   0  0  0  0  0  0  0  0  0  0  0  0
   57.4070   30.0800   45.4490 C   0  0  0  0  0  0  0  0  0  0  0  0
   60.8660   33.4370   47.4530 C   0  0  0  0  0  0  0  0  0  0  0  0
   64.4426   32.7169   47.0719 H   0  0  0  0  0  0  0  0  0  0  0  0
   62.9124   33.0066   46.1767 H   0  0  0  0  0  0  0  0  0  0  0  0
   64.2032   34.2557   46.1767 H   0  0  0  0  0  0  0  0  0  0  0  0
   62.2098   34.2835   50.4786 H   0  0  0  0  0  0  0  0  0  0  0  0
   58.6489   33.6152   53.1795 H   0  0  0  0  0  0  0  0  0  0  0  0
   57.8167   34.3332   51.7587 H   0  0  0  0  0  0  0  0  0  0  0  0
   58.2517   32.5903   51.7587 H   0  0  0  0  0  0  0  0  0  0  0  0
   58.1454   33.1569   49.5080 H   0  0  0  0  0  0  0  0  0  0  0  0
   59.9010   32.0990   45.3300 H   0  0  0  0  0  0  0  0  0  0  0  0
   58.0791   32.5297   43.1552 H   0  0  0  0  0  0  0  0  0  0  0  0
   56.4204   31.2011   41.8519 H   0  0  0  0  0  0  0  0  0  0  0  0
   55.3951   29.1573   42.8405 H   0  0  0  0  0  0  0  0  0  0  0  0
   58.8744   26.8513   44.2489 H   0  0  0  0  0  0  0  0  0  0  0  0
   61.1541   27.1319   45.6762 H   0  0  0  0  0  0  0  0  0  0  0  0
   60.4173   27.5244   48.2166 H   0  0  0  0  0  0  0  0  0  0  0  0
   57.6619   29.7786   46.4757 H   0  0  0  0  0  0  0  0  0  0  0  0
   61.1512   33.3261   46.3964 H   0  0  0  0  0  0  0  0  0  0  0  0
  1  2  1  0
  2  3  1  0
  3  4  2  0
  4  5  1  0
  5  6  1  0
  6  7  1  0
  5  8  2  0
  8  9  1  0
  9 10  1  0
 10 11  2  0
 10 12  1  0
 12 13  1  0
 13 14  2  0
 14 15  1  0
 15 16  2  0
 16 17  1  0
 17 18  1  0
 18 19  1  0
 19 20  2  0
 19 21  1  0
 21 22  2  0
 22 23  1  0
 23 24  2  0
 24 25  1  0
 17 26  2  0
  9 27  2  0
 27  3  1  0
 26 13  1  0
 25 21  1  0
  1 28  1  0
  1 29  1  0
  1 30  1  0
  4 31  1  0
  7 32  1  0
  7 33  1  0
  7 34  1  0
  8 35  1  0
 12 36  1  0
 14 37  1  0
 15 38  1  0
 16 39  1  0
 22 40  1  0
 23 41  1  0
 24 42  1  0
 26 43  1  0
 27 44  1  0
M  CHG  1  18  -1
M  END
>  <UniqueID>  (8) 
8

>  <SMILES>  (8) 
COc1cc(OC)cc(C(=O)Nc2cccc([N-]C(=O)c3ccco3)c2)c1

>  <Energy>  (8) 
79.00336179722257

>  <Genealogy>  (8) 
COc1cc(OC)cc(C(=O)Nc2cccc([N-]C(=O)c3ccco3)c2)c1 (protonated)
COc1cc(OC)cc(C(=O)Nc2cccc([N-]C(=O)c3ccco3)c2)c1 (3D coordinates assigned)
COc1cc(OC)cc(C(=O)Nc2cccc([N-]C(=O)c3ccco3)c2)c1 (optimized conformer: 79.00336179722257 kcal/mol)

>  <smiles>  (8) 
COc1cc(OC)cc(C(=O)Nc2cccc(NC(=O)c3ccco3)c2)c1

>  <score_type>  (8) 
oracle

>  <origin>  (8) 
adg

>  <m_score__min__energy>  (8) 
-9.4700000000000006

>  <m_primary>  (8) 
energy

$$$$
8:0
     RDKit          3D

 19 19  0  0  0  0  0  0  0  0999 V2000
   58.1320   32.4288   43.0409 H   0  0  0  0  0  0  0  0  0  0  0  0
   57.4320   31.5890   42.9200 C   0  0  0  0  0  0  0  0  0  0  0  0
   57.1018   31.2886   41.9147 H   0  0  0  0  0  0  0  0  0  0  0  0
   56.9850   30.9370   43.9890 C   0  0  0  0  0  0  0  0  0  0  0  0
   57.3224   31.2467   44.9891 H   0  0  0  0  0  0  0  0  0  0  0  0
   56.0510   29.8130   43.8620 C   0  0  0  0  0  0  0  0  0  0  0  0
   55.5208   29.6373   42.9144 H   0  0  0  0  0  0  0  0  0  0  0  0
   55.8550   29.0270   44.8770 N   0  0  0  0  0  0  0  0  0  0  0  0
   56.7400   27.9920   45.3440 C   0  0  0  0  0  0  0  0  0  0  0  0
   58.1440   28.0870   45.2340 C   0  0  0  0  0  0  0  0  0  0  0  0
   58.5992   28.9825   44.7859 H   0  0  0  0  0  0  0  0  0  0  0  0
   58.9590   27.0460   45.6930 C   0  0  0  0  0  0  0  0  0  0  0  0
   60.0528   27.1282   45.6101 H   0  0  0  0  0  0  0  0  0  0  0  0
   58.3870   25.9030   46.2560 C   0  0  0  0  0  0  0  0  0  0  0  0
   59.0300   25.0883   46.6204 H   0  0  0  0  0  0  0  0  0  0  0  0
   56.9990   25.7950   46.3560 C   0  0  0  0  0  0  0  0  0  0  0  0
   56.5495   24.8924   46.7956 H   0  0  0  0  0  0  0  0  0  0  0  0
   56.1780   26.8310   45.8990 C   0  0  0  0  0  0  0  0  0  0  0  0
   54.7970   26.7050   46.0030 O   0  0  0  0  0  0  0  0  0  0  0  0
  1  2  1  0
  2  3  1  0
  2  4  2  0
  4  5  1  0
  4  6  1  0
  6  7  1  0
  6  8  2  0
  8  9  1  0
  9 10  2  0
 10 11  1  0
 10 12  1  0
 12 13  1  0
 12 14  2  0
 14 15  1  0
 14 16  1  0
 16 17  1  0
 16 18  2  0
 18 19  1  0
 18  9  1  0
M  CHG  1  19  -1
M  END
>  <UniqueID>  (9) 
9

>  <SMILES>  (9) 
C=C/C=N/c1ccccc1[O-]

>  <Energy>  (9) 
17.425789377026675

>  <Genealogy>  (9) 
C=CC=Nc1ccccc1[O-] (protonated)
C=C/C=N/c1ccccc1[O-] (cis-trans isomerization)
C=C/C=N/c1ccccc1[O-] (3D coordinates assigned)
C=C/C=N/c1ccccc1[O-] (optimized conformer: 17.425789377026675 kcal/mol)

>  <smiles>  (9) 
C=CC=Nc1ccccc1O

>  <score_type>  (9) 
oracle

>  <origin>  (9) 
adg

>  <m_score__min__energy>  (9) 
-8.8399999999999999

>  <m_primary>  (9) 
energy

$$$$
9:0
     RDKit          3D

 41 44  0  0  0  0  0  0  0  0999 V2000
   60.2220   32.8400   50.8340 C   0  0  0  0  0  0  0  0  0  0  0  0
   59.8750   31.7990   49.8080 C   0  0  0  0  0  0  0  0  0  0  0  0
   60.5730   31.5390   48.6400 C   0  0  0  0  0  0  0  0  0  0  0  0
   61.7420   32.2430   48.0910 C   0  0  0  0  0  0  0  0  0  0  0  0
   62.8270   31.5980   47.6190 N   0  0  0  0  0  0  0  0  0  0  0  0
   63.6260   32.5310   47.1300 N   0  0  0  0  0  0  0  0  0  0  0  0
   63.0250   33.7230   47.2800 C   0  0  0  0  0  0  0  0  0  0  0  0
   61.8360   33.5820   47.9040 N   0  0  0  0  0  0  0  0  0  0  0  0
   60.7730   34.5890   47.9970 C   0  0  0  0  0  0  0  0  0  0  0  0
   59.6630   34.2980   47.0200 C   0  0  0  0  0  0  0  0  0  0  0  0
   59.8600   34.4970   45.6420 C   0  0  0  0  0  0  0  0  0  0  0  0
   58.8470   34.1820   44.7320 C   0  0  0  0  0  0  0  0  0  0  0  0
   57.6330   33.6610   45.1900 C   0  0  0  0  0  0  0  0  0  0  0  0
   57.4290   33.4600   46.5580 C   0  0  0  0  0  0  0  0  0  0  0  0
   58.4410   33.7740   47.4700 C   0  0  0  0  0  0  0  0  0  0  0  0
   60.0020   30.3940   48.1250 C   0  0  0  0  0  0  0  0  0  0  0  0
   58.9900   30.0050   48.9250 N   0  0  0  0  0  0  0  0  0  0  0  0
   58.9110   30.8560   49.9390 N   0  0  0  0  0  0  0  0  0  0  0  0
   57.9310   30.7340   50.9900 C   0  0  0  0  0  0  0  0  0  0  0  0
   57.1830   31.8520   51.3990 C   0  0  0  0  0  0  0  0  0  0  0  0
   56.2540   31.7180   52.4330 C   0  0  0  0  0  0  0  0  0  0  0  0
   56.0800   30.4820   53.0550 C   0  0  0  0  0  0  0  0  0  0  0  0
   56.8420   29.3910   52.6320 C   0  0  0  0  0  0  0  0  0  0  0  0
   57.7390   29.5410   51.6220 N   0  0  0  0  0  0  0  0  0  0  0  0
   60.0827   32.4221   51.8420 H   0  0  0  0  0  0  0  0  0  0  0  0
   61.2707   33.1460   50.7057 H   0  0  0  0  0  0  0  0  0  0  0  0
   59.5666   33.7141   50.7057 H   0  0  0  0  0  0  0  0  0  0  0  0
   64.5450   32.3490   46.6690 H   0  0  0  0  0  0  0  0  0  0  0  0
   63.4439   34.6820   46.9411 H   0  0  0  0  0  0  0  0  0  0  0  0
   60.3632   34.5856   49.0178 H   0  0  0  0  0  0  0  0  0  0  0  0
   61.2017   35.5729   47.7558 H   0  0  0  0  0  0  0  0  0  0  0  0
   60.8158   34.9025   45.2785 H   0  0  0  0  0  0  0  0  0  0  0  0
   59.0048   34.3440   43.6555 H   0  0  0  0  0  0  0  0  0  0  0  0
   56.8377   33.4091   44.4730 H   0  0  0  0  0  0  0  0  0  0  0  0
   56.4717   33.0545   46.9173 H   0  0  0  0  0  0  0  0  0  0  0  0
   58.2789   33.6096   48.5455 H   0  0  0  0  0  0  0  0  0  0  0  0
   60.3221   29.8799   47.2067 H   0  0  0  0  0  0  0  0  0  0  0  0
   57.3285   32.8255   50.9079 H   0  0  0  0  0  0  0  0  0  0  0  0
   55.6605   32.5859   52.7563 H   0  0  0  0  0  0  0  0  0  0  0  0
   55.3503   30.3677   53.8701 H   0  0  0  0  0  0  0  0  0  0  0  0
   56.7164   28.4111   53.1158 H   0  0  0  0  0  0  0  0  0  0  0  0
  1  2  1  0
  2  3  2  0
  3  4  1  0
  4  5  2  0
  5  6  1  0
  6  7  2  0
  7  8  1  0
  8  9  1  0
  9 10  1  0
 10 11  2  0
 11 12  1  0
 12 13  2  0
 13 14  1  0
 14 15  2  0
  3 16  1  0
 16 17  2  0
 17 18  1  0
 18 19  1  0
 19 20  2  0
 20 21  1  0
 21 22  2  0
 22 23  1  0
 23 24  2  0
 18  2  1  0
 24 19  1  0
  8  4  1  0
 15 10  1  0
  1 25  1  0
  1 26  1  0
  1 27  1  0
  6 28  1  0
  7 29  1  0
  9 30  1  0
  9 31  1  0
 11 32  1  0
 12 33  1  0
 13 34  1  0
 14 35  1  0
 15 36  1  0
 16 37  1  0
 20 38  1  0
 21 39  1  0
 22 40  1  0
 23 41  1  0
M  CHG  1   6   1
M  END
>  <UniqueID>  (10) 
10

>  <SMILES>  (10) 
Cc1c(-c2n[nH+]cn2Cc2ccccc2)cnn1-c1ccccn1

>  <Energy>  (10) 
118.75324629885851

>  <Genealogy>  (10) 
Cc1c(-c2n[nH+]cn2Cc2ccccc2)cnn1-c1ccccn1 (protonated)
Cc1c(-c2n[nH+]cn2Cc2ccccc2)cnn1-c1ccccn1 (3D coordinates assigned)
Cc1c(-c2n[nH+]cn2Cc2ccccc2)cnn1-c1ccccn1 (optimized conformer: 118.75324629885851 kcal/mol)

>  <smiles>  (10) 
Cc1c(-c2nncn2Cc2ccccc2)cnn1-c1ccccn1

>  <score_type>  (10) 
oracle

>  <origin>  (10) 
adg

>  <m_score__min__energy>  (10) 
-6.6100000000000003

>  <m_primary>  (10) 
energy

$$$$
10:0
     RDKit          3D

 49 51  0  0  0  0  0  0  0  0999 V2000
   53.9110   24.8450   45.6210 C   0  0  0  0  0  0  0  0  0  0  0  0
   54.6770   26.0350   45.9790 N   0  0  0  0  0  0  0  0  0  0  0  0
   56.3110   25.5890   46.3600 S   0  0  0  0  0  0  0  0  0  0  0  0
   56.3410   24.8410   47.6650 O   0  0  0  0  0  0  0  0  0  0  0  0
   56.8410   24.6860   45.2820 O   0  0  0  0  0  0  0  0  0  0  0  0
   57.3290   27.0240   46.4610 C   0  0  0  0  0  0  0  0  0  0  0  0
   58.3450   27.1070   47.4170 C   0  0  0  0  0  0  0  0  0  0  0  0
   59.1190   28.2620   47.5180 C   0  0  0  0  0  0  0  0  0  0  0  0
   58.8930   29.3550   46.6650 C   0  0  0  0  0  0  0  0  0  0  0  0
   59.6370   30.5690   46.8790 N   0  0  0  0  0  0  0  0  0  0  0  0
   61.0970   30.5580   46.7030 C   0  0  0  0  0  0  0  0  0  0  0  0
   61.7570   31.5410   47.6320 C   0  0  0  0  0  0  0  0  0  0  0  0
   61.7450   31.3140   49.0180 C   0  0  0  0  0  0  0  0  0  0  0  0
   62.3740   32.2140   49.8850 C   0  0  0  0  0  0  0  0  0  0  0  0
   63.0170   33.3440   49.3740 C   0  0  0  0  0  0  0  0  0  0  0  0
   63.0340   33.5770   47.9960 C   0  0  0  0  0  0  0  0  0  0  0  0
   62.4070   32.6800   47.1260 C   0  0  0  0  0  0  0  0  0  0  0  0
   59.0020   31.6570   47.6370 C   0  0  0  0  0  0  0  0  0  0  0  0
   59.0770   32.9460   46.8630 C   0  0  0  0  0  0  0  0  0  0  0  0
   58.7840   32.9690   45.4900 C   0  0  0  0  0  0  0  0  0  0  0  0
   58.8990   34.1590   44.7650 C   0  0  0  0  0  0  0  0  0  0  0  0
   59.3140   35.3320   45.4030 C   0  0  0  0  0  0  0  0  0  0  0  0
   59.6170   35.3140   46.7670 C   0  0  0  0  0  0  0  0  0  0  0  0
   59.5010   34.1260   47.4960 C   0  0  0  0  0  0  0  0  0  0  0  0
   57.8750   29.2740   45.6810 C   0  0  0  0  0  0  0  0  0  0  0  0
   57.6280   30.3530   44.7590 N   0  0  0  0  0  0  0  0  0  0  0  0
   56.5430   30.9710   44.7880 O   0  0  0  0  0  0  0  0  0  0  0  0
   58.5270   30.6490   43.7630 O   0  0  0  0  0  0  0  0  0  0  0  0
   57.0950   28.1040   45.6020 C   0  0  0  0  0  0  0  0  0  0  0  0
   53.5809   24.3322   46.5365 H   0  0  0  0  0  0  0  0  0  0  0  0
   53.0322   25.1392   45.0284 H   0  0  0  0  0  0  0  0  0  0  0  0
   54.5426   24.1669   45.0284 H   0  0  0  0  0  0  0  0  0  0  0  0
   58.5344   26.2589   48.0914 H   0  0  0  0  0  0  0  0  0  0  0  0
   59.9158   28.3182   48.2743 H   0  0  0  0  0  0  0  0  0  0  0  0
   61.4780   29.5485   46.9169 H   0  0  0  0  0  0  0  0  0  0  0  0
   61.3283   30.8441   45.6664 H   0  0  0  0  0  0  0  0  0  0  0  0
   61.2392   30.4253   49.4233 H   0  0  0  0  0  0  0  0  0  0  0  0
   62.3622   32.0317   50.9697 H   0  0  0  0  0  0  0  0  0  0  0  0
   63.5105   34.0512   50.0569 H   0  0  0  0  0  0  0  0  0  0  0  0
   63.5413   34.4671   47.5955 H   0  0  0  0  0  0  0  0  0  0  0  0
   62.4224   32.8662   46.0420 H   0  0  0  0  0  0  0  0  0  0  0  0
   57.9471   31.4043   47.8198 H   0  0  0  0  0  0  0  0  0  0  0  0
   59.5306   31.7827   48.5935 H   0  0  0  0  0  0  0  0  0  0  0  0
   58.4628   32.0473   44.9828 H   0  0  0  0  0  0  0  0  0  0  0  0
   58.6626   34.1725   43.6908 H   0  0  0  0  0  0  0  0  0  0  0  0
   59.4019   36.2679   44.8318 H   0  0  0  0  0  0  0  0  0  0  0  0
   59.9473   36.2357   47.2683 H   0  0  0  0  0  0  0  0  0  0  0  0
   59.7427   34.1158   48.5691 H   0  0  0  0  0  0  0  0  0  0  0  0
   56.2905   28.0380   44.8547 H   0  0  0  0  0  0  0  0  0  0  0  0
  1  2  1  0
  2  3  1  0
  3  4  2  0
  3  5  2  0
  3  6  1  0
  6  7  2  0
  7  8  1  0
  8  9  2  0
  9 10  1  0
 10 11  1  0
 11 12  1  0
 12 13  2  0
 13 14  1  0
 14 15  2  0
 15 16  1  0
 16 17  2  0
 10 18  1  0
 18 19  1  0
 19 20  2  0
 20 21  1  0
 21 22  2  0
 22 23  1  0
 23 24  2  0
  9 25  1  0
 25 26  1  0
 26 27  2  0
 26 28  1  0
 25 29  2  0
 29  6  1  0
 17 12  1  0
 24 19  1  0
  1 30  1  0
  1 31  1  0
  1 32  1  0
  7 33  1  0
  8 34  1  0
 11 35  1  0
 11 36  1  0
 13 37  1  0
 14 38  1  0
 15 39  1  0
 16 40  1  0
 17 41  1  0
 18 42  1  0
 18 43  1  0
 20 44  1  0
 21 45  1  0
 22 46  1  0
 23 47  1  0
 24 48  1  0
 29 49  1  0
M  CHG  3   2  -1  26   1  28  -1
M  END
>  <UniqueID>  (11) 
11

>  <SMILES>  (11) 
C[N-]S(=O)(=O)c1ccc(N(Cc2ccccc2)Cc2ccccc2)c([N+](=O)[O-])c1

>  <Energy>  (11) 
54.50742765528356

>  <Genealogy>  (11) 
C[N-]S(=O)(=O)c1ccc(N(Cc2ccccc2)Cc2ccccc2)c([N+](=O)[O-])c1 (protonated)
C[N-]S(=O)(=O)c1ccc(N(Cc2ccccc2)Cc2ccccc2)c([N+](=O)[O-])c1 (3D coordinates assigned)
C[N-]S(=O)(=O)c1ccc(N(Cc2ccccc2)Cc2ccccc2)c([N+](=O)[O-])c1 (optimized conformer: 54.50742765528356 kcal/mol)

>  <smiles>  (11) 
CNS(=O)(=O)c1ccc(N(Cc2ccccc2)Cc2ccccc2)c([N+](=O)[O-])c1

>  <score_type>  (11) 
oracle

>  <origin>  (11) 
adg

>  <m_score__min__energy>  (11) 
-11.109999999999999

>  <m_primary>  (11) 
energy

$$$$
11:0
     RDKit          3D

 61 65  0  0  0  0  0  0  0  0999 V2000
   55.4590   29.2590   45.2450 O   0  0  0  0  0  0  0  0  0  0  0  0
   56.1510   29.6570   44.0870 C   0  0  2  0  0  0  0  0  0  0  0  0
   57.3200   28.6850   43.8250 C   0  0  0  0  0  0  0  0  0  0  0  0
   58.6160   29.0240   44.5950 C   0  0  0  0  0  0  0  0  0  0  0  0
   58.3780   30.0020   45.7490 C   0  0  0  0  0  0  0  0  0  0  0  0
   57.7290   31.2140   45.2330 N   0  0  0  0  0  0  0  0  0  0  0  0
   58.3400   32.4960   45.4550 C   0  0  0  0  0  0  0  0  0  0  0  0
   57.8500   33.5800   44.7940 N   0  0  0  0  0  0  0  0  0  0  0  0
   58.4210   34.8050   44.9170 C   0  0  0  0  0  0  0  0  0  0  0  0
   59.5100   34.9740   45.7050 N   0  0  0  0  0  0  0  0  0  0  0  0
   60.0380   33.9350   46.3990 C   0  0  0  0  0  0  0  0  0  0  0  0
   61.1420   34.1450   47.2230 C   0  0  0  0  0  0  0  0  0  0  0  0
   61.6810   33.0930   47.9760 C   0  0  0  0  0  0  0  0  0  0  0  0
   62.7660   33.3770   48.8710 N   0  0  0  0  0  0  0  0  0  0  0  0
   62.4910   34.1550   50.0890 C   0  0  0  0  0  0  0  0  0  0  0  0
   63.6300   34.0780   51.1320 C   0  0  0  0  0  0  0  0  0  0  0  0
   64.4140   32.9150   50.9900 O   0  0  0  0  0  0  0  0  0  0  0  0
   65.0470   32.9450   49.7380 C   0  0  0  0  0  0  0  0  0  0  0  0
   64.0290   32.6670   48.6360 C   0  0  0  0  0  0  0  0  0  0  0  0
   61.1040   31.8020   47.8990 C   0  0  0  0  0  0  0  0  0  0  0  0
   61.6530   30.6820   48.6280 N   0  0  0  0  0  0  0  0  0  0  0  0
   60.6040   30.0450   49.4390 C   0  0  0  0  0  0  0  0  0  0  0  0
   59.9300   31.0570   50.3300 C   0  0  0  0  0  0  0  0  0  0  0  0
   60.6690   31.7540   51.3020 C   0  0  0  0  0  0  0  0  0  0  0  0
   60.0400   32.7050   52.1130 C   0  0  0  0  0  0  0  0  0  0  0  0
   58.6810   32.9830   51.9440 C   0  0  0  0  0  0  0  0  0  0  0  0
   58.0770   33.9060   52.7330 F   0  0  0  0  0  0  0  0  0  0  0  0
   57.9490   32.3100   50.9640 C   0  0  0  0  0  0  0  0  0  0  0  0
   58.5670   31.3480   50.1600 C   0  0  0  0  0  0  0  0  0  0  0  0
   59.9880   31.5990   47.0660 C   0  0  0  0  0  0  0  0  0  0  0  0
   59.4580   32.6540   46.3040 C   0  0  0  0  0  0  0  0  0  0  0  0
   56.6470   31.1070   44.2400 C   0  0  0  0  0  0  0  0  0  0  0  0
   55.8900   29.7180   46.0110 H   0  0  0  0  0  0  0  0  0  0  0  0
   55.4743   29.6242   43.2204 H   0  0  0  0  0  0  0  0  0  0  0  0
   56.9997   27.6744   44.1185 H   0  0  0  0  0  0  0  0  0  0  0  0
   57.5606   28.7643   42.7546 H   0  0  0  0  0  0  0  0  0  0  0  0
   59.0366   28.0932   45.0034 H   0  0  0  0  0  0  0  0  0  0  0  0
   59.3068   29.5060   43.8876 H   0  0  0  0  0  0  0  0  0  0  0  0
   57.7297   29.5305   46.5023 H   0  0  0  0  0  0  0  0  0  0  0  0
   59.3404   30.2678   46.2107 H   0  0  0  0  0  0  0  0  0  0  0  0
   57.9981   35.6637   44.3750 H   0  0  0  0  0  0  0  0  0  0  0  0
   61.5946   35.1458   47.2830 H   0  0  0  0  0  0  0  0  0  0  0  0
   62.3470   35.2081   49.8059 H   0  0  0  0  0  0  0  0  0  0  0  0
   61.5919   33.7253   50.5549 H   0  0  0  0  0  0  0  0  0  0  0  0
   64.2790   34.9579   51.0113 H   0  0  0  0  0  0  0  0  0  0  0  0
   63.1682   34.0501   52.1300 H   0  0  0  0  0  0  0  0  0  0  0  0
   65.4950   33.9370   49.5792 H   0  0  0  0  0  0  0  0  0  0  0  0
   65.8316   32.1745   49.7097 H   0  0  0  0  0  0  0  0  0  0  0  0
   64.4480   32.9943   47.6730 H   0  0  0  0  0  0  0  0  0  0  0  0
   63.8188   31.5873   48.6283 H   0  0  0  0  0  0  0  0  0  0  0  0
   62.0680   29.9760   47.9760 H   0  0  0  0  0  0  0  0  0  0  0  0
   62.4220   31.0240   49.2500 H   0  0  0  0  0  0  0  0  0  0  0  0
   59.8541   29.5960   48.7711 H   0  0  0  0  0  0  0  0  0  0  0  0
   61.0660   29.2712   50.0697 H   0  0  0  0  0  0  0  0  0  0  0  0
   61.7432   31.5514   51.4251 H   0  0  0  0  0  0  0  0  0  0  0  0
   60.6166   33.2350   52.8854 H   0  0  0  0  0  0  0  0  0  0  0  0
   56.8820   32.5377   50.8241 H   0  0  0  0  0  0  0  0  0  0  0  0
   57.9842   30.8178   49.3924 H   0  0  0  0  0  0  0  0  0  0  0  0
   59.5251   30.6027   47.0108 H   0  0  0  0  0  0  0  0  0  0  0  0
   55.8057   31.7389   44.5609 H   0  0  0  0  0  0  0  0  0  0  0  0
   57.0418   31.4372   43.2679 H   0  0  0  0  0  0  0  0  0  0  0  0
  1  2  1  0
  2  3  1  0
  3  4  1  0
  4  5  1  0
  5  6  1  0
  6  7  1  0
  7  8  2  0
  8  9  1  0
  9 10  2  0
 10 11  1  0
 11 12  2  0
 12 13  1  0
 13 14  1  0
 14 15  1  0
 15 16  1  0
 16 17  1  0
 17 18  1  0
 18 19  1  0
 13 20  2  0
 20 21  1  0
 21 22  1  0
 22 23  1  0
 23 24  2  0
 24 25  1  0
 25 26  2  0
 26 27  1  0
 26 28  1  0
 28 29  2  0
 20 30  1  0
 30 31  2  0
  6 32  1  0
 32  2  1  0
 31  7  1  0
 31 11  1  0
 19 14  1  0
 29 23  1  0
  1 33  1  0
  2 34  1  6
  3 35  1  0
  3 36  1  0
  4 37  1  0
  4 38  1  0
  5 39  1  0
  5 40  1  0
  9 41  1  0
 12 42  1  0
 15 43  1  0
 15 44  1  0
 16 45  1  0
 16 46  1  0
 18 47  1  0
 18 48  1  0
 19 49  1  0
 19 50  1  0
 21 51  1  0
 21 52  1  0
 22 53  1  0
 22 54  1  0
 24 55  1  0
 25 56  1  0
 28 57  1  0
 29 58  1  0
 30 59  1  0
 32 60  1  0
 32 61  1  0
M  CHG  1  21   1
M  END
>  <UniqueID>  (12) 
12

>  <SMILES>  (12) 
O[C@@H]1CCCN(c2ncnc3cc(N4CCOCC4)c([NH2+]Cc4ccc(F)cc4)cc23)C1

>  <Energy>  (12) 
87.11869980100964

>  <Genealogy>  (12) 
OC1CCCN(c2ncnc3cc(N4CCOCC4)c([NH2+]Cc4ccc(F)cc4)cc23)C1 (protonated)
O[C@@H]1CCCN(c2ncnc3cc(N4CCOCC4)c([NH2+]Cc4ccc(F)cc4)cc23)C1 (chirality)
O[C@@H]1CCCN(c2ncnc3cc(N4CCOCC4)c([NH2+]Cc4ccc(F)cc4)cc23)C1 (3D coordinates assigned)
O[C@@H]1CCCN(c2ncnc3cc(N4CCOCC4)c([NH2+]Cc4ccc(F)cc4)cc23)C1 (nonaromatic ring conformer: 87.11869980100964 kcal/mol)

>  <smiles>  (12) 
OC1CCCN(c2ncnc3cc(N4CCOCC4)c(NCc4ccc(F)cc4)cc23)C1

>  <score_type>  (12) 
oracle

>  <origin>  (12) 
adg

>  <m_score__min__energy>  (12) 
-7.9900000000000002

>  <m_primary>  (12) 
energy

$$$$
12:0
     RDKit          3D

 36 37  0  0  0  0  0  0  0  0999 V2000
   57.7075   32.7411   43.0768 H   0  0  0  0  0  0  0  0  0  0  0  0
   57.3570   32.4570   44.0800 C   0  0  0  0  0  0  0  0  0  0  0  0
   57.6030   33.4150   45.1800 C   0  0  0  0  0  0  0  0  0  0  0  0
   56.9640   33.3430   46.2630 O   0  0  0  0  0  0  0  0  0  0  0  0
   58.5530   34.5500   44.9680 C   0  0  0  0  0  0  0  0  0  0  0  0
   58.8803   34.9411   45.9426 H   0  0  0  0  0  0  0  0  0  0  0  0
   59.4275   34.1955   44.4027 H   0  0  0  0  0  0  0  0  0  0  0  0
   58.0500   35.3484   44.4027 H   0  0  0  0  0  0  0  0  0  0  0  0
   56.7420   31.2700   44.2030 C   0  0  0  0  0  0  0  0  0  0  0  0
   55.7595   31.1539   43.7221 H   0  0  0  0  0  0  0  0  0  0  0  0
   57.2850   30.1090   44.9350 C   0  0  0  0  0  0  0  0  0  0  0  0
   58.6110   30.1510   45.3900 C   0  0  0  0  0  0  0  0  0  0  0  0
   59.2278   31.0381   45.1836 H   0  0  0  0  0  0  0  0  0  0  0  0
   59.1620   29.0750   46.1060 C   0  0  0  0  0  0  0  0  0  0  0  0
   60.5360   29.1470   46.5340 N   0  0  0  0  0  0  0  0  0  0  0  0
   61.2590   28.6420   45.9720 H   0  0  0  0  0  0  0  0  0  0  0  0
   60.9900   29.8230   47.7500 C   0  0  0  0  0  0  0  0  0  0  0  0
   60.1529   29.8889   48.4605 H   0  0  0  0  0  0  0  0  0  0  0  0
   61.8175   29.2455   48.1878 H   0  0  0  0  0  0  0  0  0  0  0  0
   61.4820   31.2120   47.4350 C   0  0  0  0  0  0  0  0  0  0  0  0
   62.8580   31.5000   47.4810 C   0  0  0  0  0  0  0  0  0  0  0  0
   63.5743   30.7098   47.7503 H   0  0  0  0  0  0  0  0  0  0  0  0
   63.3190   32.7860   47.1860 C   0  0  0  0  0  0  0  0  0  0  0  0
   64.3957   33.0070   47.2292 H   0  0  0  0  0  0  0  0  0  0  0  0
   62.4130   33.7920   46.8360 C   0  0  0  0  0  0  0  0  0  0  0  0
   62.7765   34.8048   46.6080 H   0  0  0  0  0  0  0  0  0  0  0  0
   61.0450   33.5100   46.7760 C   0  0  0  0  0  0  0  0  0  0  0  0
   60.3332   34.3009   46.4969 H   0  0  0  0  0  0  0  0  0  0  0  0
   60.5800   32.2250   47.0700 C   0  0  0  0  0  0  0  0  0  0  0  0
   59.5034   32.0062   47.0153 H   0  0  0  0  0  0  0  0  0  0  0  0
   58.3520   27.9600   46.3900 C   0  0  0  0  0  0  0  0  0  0  0  0
   58.7689   27.1095   46.9492 H   0  0  0  0  0  0  0  0  0  0  0  0
   57.0220   27.9270   45.9660 C   0  0  0  0  0  0  0  0  0  0  0  0
   56.3963   27.0524   46.1975 H   0  0  0  0  0  0  0  0  0  0  0  0
   56.4810   28.9970   45.2500 C   0  0  0  0  0  0  0  0  0  0  0  0
   55.1450   28.9560   44.8690 O   0  0  0  0  0  0  0  0  0  0  0  0
  1  2  1  0
  2  3  1  0
  3  4  2  0
  3  5  1  0
  5  6  1  0
  5  7  1  0
  5  8  1  0
  2  9  2  0
  9 10  1  0
  9 11  1  0
 11 12  2  0
 12 13  1  0
 12 14  1  0
 14 15  1  0
 15 16  1  0
 15 17  1  0
 17 18  1  0
 17 19  1  0
 17 20  1  0
 20 21  2  0
 21 22  1  0
 21 23  1  0
 23 24  1  0
 23 25  2  0
 25 26  1  0
 25 27  1  0
 27 28  1  0
 27 29  2  0
 29 30  1  0
 14 31  2  0
 31 32  1  0
 31 33  1  0
 33 34  1  0
 33 35  2  0
 35 36  1  0
 35 11  1  0
 29 20  1  0
M  CHG  1  36  -1
M  END
>  <UniqueID>  (13) 
13

>  <SMILES>  (13) 
CC(=O)/C=C\c1cc(NCc2ccccc2)ccc1[O-]

>  <Energy>  (13) 
42.57849612704615

>  <Genealogy>  (13) 
CC(=O)C=Cc1cc(NCc2ccccc2)ccc1[O-] (protonated)
CC(=O)/C=C\c1cc(NCc2ccccc2)ccc1[O-] (cis-trans isomerization)
CC(=O)/C=C\c1cc(NCc2ccccc2)ccc1[O-] (3D coordinates assigned)
CC(=O)/C=C\c1cc(NCc2ccccc2)ccc1[O-] (optimized conformer: 42.57849612704615 kcal/mol)

>  <smiles>  (13) 
CC(=O)C=Cc1cc(NCc2ccccc2)ccc1O

>  <score_type>  (13) 
oracle

>  <origin>  (13) 
adg

>  <m_score__min__energy>  (13) 
-10.48

>  <m_primary>  (13) 
energy

$$$$
13:0
     RDKit          3D

 38 40  0  0  0  0  0  0  0  0999 V2000
   54.5390   26.3370   45.9840 O   0  0  0  0  0  0  0  0  0  0  0  0
   55.7890   26.2110   46.0720 C   0  0  0  0  0  0  0  0  0  0  0  0
   56.3360   24.9420   46.2250 O   0  0  0  0  0  0  0  0  0  0  0  0
   56.6520   27.4020   46.0140 C   0  0  0  0  0  0  0  0  0  0  0  0
   57.8270   27.4780   46.7770 C   0  0  0  0  0  0  0  0  0  0  0  0
   58.6190   28.6240   46.6940 C   0  0  0  0  0  0  0  0  0  0  0  0
   59.6760   28.7000   47.3790 O   0  0  0  0  0  0  0  0  0  0  0  0
   58.2250   29.6760   45.8510 C   0  0  0  0  0  0  0  0  0  0  0  0
   58.9770   30.8580   45.7220 C   0  0  0  0  0  0  0  0  0  0  0  0
   58.5370   31.8900   44.8680 C   0  0  0  0  0  0  0  0  0  0  0  0
   59.2370   33.0970   44.7070 O   0  0  0  0  0  0  0  0  0  0  0  0
   58.8170   34.3820   45.1760 C   0  0  2  0  0  0  0  0  0  0  0  0
   59.8530   34.9910   46.1440 C   0  0  0  0  0  0  0  0  0  0  0  0
   60.7150   33.9450   46.8100 C   0  0  0  0  0  0  0  0  0  0  0  0
   62.0800   33.8420   46.4900 C   0  0  0  0  0  0  0  0  0  0  0  0
   62.8710   32.8560   47.0870 C   0  0  0  0  0  0  0  0  0  0  0  0
   62.3080   31.9660   48.0040 C   0  0  0  0  0  0  0  0  0  0  0  0
   60.9510   32.0610   48.3270 C   0  0  0  0  0  0  0  0  0  0  0  0
   60.1570   33.0460   47.7330 C   0  0  0  0  0  0  0  0  0  0  0  0
   57.4780   34.2550   45.8430 C   0  0  0  0  0  0  0  0  0  0  0  0
   56.4240   34.5870   45.2370 O   0  0  0  0  0  0  0  0  0  0  0  0
   57.3910   33.7200   47.1230 O   0  0  0  0  0  0  0  0  0  0  0  0
   57.3540   31.7190   44.1400 C   0  0  0  0  0  0  0  0  0  0  0  0
   56.6030   30.5480   44.2620 C   0  0  0  0  0  0  0  0  0  0  0  0
   57.0300   29.5250   45.1140 C   0  0  0  0  0  0  0  0  0  0  0  0
   56.3060   28.4150   45.2230 O   0  0  0  0  0  0  0  0  0  0  0  0
   58.1203   26.6447   47.4324 H   0  0  0  0  0  0  0  0  0  0  0  0
   59.9117   30.9775   46.2895 H   0  0  0  0  0  0  0  0  0  0  0  0
   58.7326   35.0621   44.3156 H   0  0  0  0  0  0  0  0  0  0  0  0
   60.5033   35.6747   45.5786 H   0  0  0  0  0  0  0  0  0  0  0  0
   59.2988   35.5172   46.9352 H   0  0  0  0  0  0  0  0  0  0  0  0
   62.5274   34.5400   45.7670 H   0  0  0  0  0  0  0  0  0  0  0  0
   63.9389   32.7811   46.8339 H   0  0  0  0  0  0  0  0  0  0  0  0
   62.9320   31.1904   48.4721 H   0  0  0  0  0  0  0  0  0  0  0  0
   60.5078   31.3598   49.0494 H   0  0  0  0  0  0  0  0  0  0  0  0
   59.0898   33.1173   47.9899 H   0  0  0  0  0  0  0  0  0  0  0  0
   57.0118   32.5163   43.4638 H   0  0  0  0  0  0  0  0  0  0  0  0
   55.6731   30.4302   43.6863 H   0  0  0  0  0  0  0  0  0  0  0  0
  1  2  2  0
  2  3  1  0
  2  4  1  0
  4  5  2  0
  5  6  1  0
  6  7  2  0
  6  8  1  0
  8  9  2  0
  9 10  1  0
 10 11  1  0
 11 12  1  0
 12 13  1  0
 13 14  1  0
 14 15  2  0
 15 16  1  0
 16 17  2  0
 17 18  1  0
 18 19  2  0
 12 20  1  0
 20 21  2  0
 20 22  1  0
 10 23  2  0
 23 24  1  0
 24 25  2  0
 25 26  1  0
 26  4  1  0
 25  8  1  0
 19 14  1  0
  5 27  1  0
  9 28  1  0
 12 29  1  6
 13 30  1  0
 13 31  1  0
 15 32  1  0
 16 33  1  0
 17 34  1  0
 18 35  1  0
 19 36  1  0
 23 37  1  0
 24 38  1  0
M  CHG  2   3  -1  22  -1
M  END
>  <UniqueID>  (14) 
14

>  <SMILES>  (14) 
O=C([O-])c1cc(=O)c2cc(O[C@H](Cc3ccccc3)C(=O)[O-])ccc2o1

>  <Energy>  (14) 
43.46406639938845

>  <Genealogy>  (14) 
O=C([O-])c1cc(=O)c2cc(OC(Cc3ccccc3)C(=O)[O-])ccc2o1 (protonated)
O=C([O-])c1cc(=O)c2cc(O[C@H](Cc3ccccc3)C(=O)[O-])ccc2o1 (chirality)
O=C([O-])c1cc(=O)c2cc(O[C@H](Cc3ccccc3)C(=O)[O-])ccc2o1 (3D coordinates assigned)
O=C([O-])c1cc(=O)c2cc(O[C@H](Cc3ccccc3)C(=O)[O-])ccc2o1 (optimized conformer: 43.46406639938845 kcal/mol)

>  <smiles>  (14) 
O=C(O)c1cc(=O)c2cc(OC(Cc3ccccc3)C(=O)O)ccc2o1

>  <score_type>  (14) 
oracle

>  <origin>  (14) 
adg

>  <m_score__min__energy>  (14) 
-11.92

>  <m_primary>  (14) 
energy

$$$$
14:0
     RDKit          3D

 36 38  0  0  0  0  0  0  0  0999 V2000
   58.8732   30.8392   43.0182 H   0  0  0  0  0  0  0  0  0  0  0  0
   58.1960   30.9230   43.8810 C   0  0  0  0  0  0  0  0  0  0  0  0
   57.8920   32.1650   44.3090 C   0  0  0  0  0  0  0  0  0  0  0  0
   57.5933   32.8956   43.5429 H   0  0  0  0  0  0  0  0  0  0  0  0
   57.9210   32.6310   45.6850 N   0  0  1  0  0  0  0  0  0  0  0  0
   57.4800   31.8750   46.2590 H   0  0  0  0  0  0  0  0  0  0  0  0
   59.2750   32.8000   46.2130 C   0  0  0  0  0  0  0  0  0  0  0  0
   60.0670   33.9360   45.9100 C   0  0  0  0  0  0  0  0  0  0  0  0
   59.6432   34.7445   45.2962 H   0  0  0  0  0  0  0  0  0  0  0  0
   61.3780   34.0430   46.3800 C   0  0  0  0  0  0  0  0  0  0  0  0
   61.9805   34.9274   46.1255 H   0  0  0  0  0  0  0  0  0  0  0  0
   61.9260   33.0340   47.1700 C   0  0  0  0  0  0  0  0  0  0  0  0
   63.5770   33.1690   47.7450 Cl  0  0  0  0  0  0  0  0  0  0  0  0
   61.1570   31.9190   47.5050 C   0  0  0  0  0  0  0  0  0  0  0  0
   61.5869   31.1301   48.1397 H   0  0  0  0  0  0  0  0  0  0  0  0
   59.8440   31.7970   47.0400 C   0  0  0  0  0  0  0  0  0  0  0  0
   58.9400   30.3610   47.5150 Cl  0  0  0  0  0  0  0  0  0  0  0  0
   57.0190   33.7850   45.8500 C   0  0  0  0  0  0  0  0  0  0  0  0
   56.8661   33.9806   46.9216 H   0  0  0  0  0  0  0  0  0  0  0  0
   57.4665   34.6709   45.3758 H   0  0  0  0  0  0  0  0  0  0  0  0
   56.0512   33.5647   45.3758 H   0  0  0  0  0  0  0  0  0  0  0  0
   57.6980   29.6700   44.4710 C   0  0  0  0  0  0  0  0  0  0  0  0
   58.5650   28.6640   44.7610 N   0  0  0  0  0  0  0  0  0  0  0  0
   58.1370   27.4960   45.3080 C   0  0  0  0  0  0  0  0  0  0  0  0
   59.0460   26.4820   45.6250 C   0  0  0  0  0  0  0  0  0  0  0  0
   60.1182   26.6184   45.4208 H   0  0  0  0  0  0  0  0  0  0  0  0
   58.5870   25.2930   46.2030 C   0  0  0  0  0  0  0  0  0  0  0  0
   59.3001   24.4939   46.4537 H   0  0  0  0  0  0  0  0  0  0  0  0
   57.2220   25.1180   46.4630 C   0  0  0  0  0  0  0  0  0  0  0  0
   56.8663   24.1818   46.9180 H   0  0  0  0  0  0  0  0  0  0  0  0
   56.3090   26.1300   46.1460 C   0  0  0  0  0  0  0  0  0  0  0  0
   55.2371   25.9898   46.3493 H   0  0  0  0  0  0  0  0  0  0  0  0
   56.7640   27.3200   45.5700 C   0  0  0  0  0  0  0  0  0  0  0  0
   55.8940   28.3160   45.2580 N   0  0  0  0  0  0  0  0  0  0  0  0
   56.3250   29.4820   44.7090 C   0  0  0  0  0  0  0  0  0  0  0  0
   55.4920   30.3860   44.4340 O   0  0  0  0  0  0  0  0  0  0  0  0
  1  2  1  0
  2  3  2  0
  3  4  1  0
  3  5  1  0
  5  6  1  1
  5  7  1  0
  7  8  2  0
  8  9  1  0
  8 10  1  0
 10 11  1  0
 10 12  2  0
 12 13  1  0
 12 14  1  0
 14 15  1  0
 14 16  2  0
 16 17  1  0
  5 18  1  0
 18 19  1  0
 18 20  1  0
 18 21  1  0
  2 22  1  0
 22 23  2  0
 23 24  1  0
 24 25  2  0
 25 26  1  0
 25 27  1  0
 27 28  1  0
 27 29  2  0
 29 30  1  0
 29 31  1  0
 31 32  1  0
 31 33  2  0
 33 34  1  0
 34 35  1  0
 35 36  2  0
 16  7  1  0
 35 22  1  0
 33 24  1  0
M  CHG  2   5   1  34  -1
M  END
>  <UniqueID>  (15) 
15

>  <SMILES>  (15) 
C[N@@H+](/C=C\c1nc2ccccc2[n-]c1=O)c1ccc(Cl)cc1Cl

>  <Energy>  (15) 
59.7047180747876

>  <Genealogy>  (15) 
C[NH+](C=Cc1nc2ccccc2[n-]c1=O)c1ccc(Cl)cc1Cl (protonated)
C[N@@H+](C=Cc1nc2ccccc2[n-]c1=O)c1ccc(Cl)cc1Cl (chirality)
C[N@@H+](/C=C\c1nc2ccccc2[n-]c1=O)c1ccc(Cl)cc1Cl (cis-trans isomerization)
C[N@@H+](/C=C\c1nc2ccccc2[n-]c1=O)c1ccc(Cl)cc1Cl (3D coordinates assigned)
C[N@@H+](/C=C\c1nc2ccccc2[n-]c1=O)c1ccc(Cl)cc1Cl (optimized conformer: 59.7047180747876 kcal/mol)

>  <smiles>  (15) 
CN(C=Cc1nc2ccccc2[nH]c1=O)c1ccc(Cl)cc1Cl

>  <score_type>  (15) 
oracle

>  <origin>  (15) 
adg

>  <m_score__min__energy>  (15) 
-8.9600000000000009

>  <m_primary>  (15) 
energy

$$$$
15:0
     RDKit          3D

 29 30  0  0  0  0  0  0  0  0999 V2000
   54.7710   26.3020   45.9940 N   0  0  0  0  0  0  0  0  0  0  0  0
   56.3040   25.5260   46.1800 S   0  0  0  0  0  0  0  0  0  0  0  0
   56.2960   24.6990   47.4340 O   0  0  0  0  0  0  0  0  0  0  0  0
   56.5550   24.6210   45.0070 O   0  0  0  0  0  0  0  0  0  0  0  0
   57.5720   26.7440   46.2770 C   0  0  0  0  0  0  0  0  0  0  0  0
   57.6020   27.8040   45.3610 C   0  0  0  0  0  0  0  0  0  0  0  0
   58.6000   28.7780   45.4450 C   0  0  0  0  0  0  0  0  0  0  0  0
   59.5880   28.7010   46.4370 C   0  0  0  0  0  0  0  0  0  0  0  0
   60.5880   29.7310   46.5170 N   0  0  0  0  0  0  0  0  0  0  0  0
   60.7530   30.6020   47.6520 C   0  0  0  0  0  0  0  0  0  0  0  0
   60.0620   30.4170   48.6920 O   0  0  0  0  0  0  0  0  0  0  0  0
   61.7300   31.7170   47.6330 C   0  0  0  0  0  0  0  0  0  0  0  0
   62.8580   31.6720   48.4710 C   0  0  0  0  0  0  0  0  0  0  0  0
   63.7800   32.7200   48.4500 C   0  0  0  0  0  0  0  0  0  0  0  0
   63.5950   33.7760   47.6160 N   0  0  0  0  0  0  0  0  0  0  0  0
   62.5230   33.8450   46.7840 C   0  0  0  0  0  0  0  0  0  0  0  0
   61.5740   32.8200   46.7730 C   0  0  0  0  0  0  0  0  0  0  0  0
   59.5370   27.6540   47.3750 C   0  0  0  0  0  0  0  0  0  0  0  0
   58.5370   26.6800   47.2910 C   0  0  0  0  0  0  0  0  0  0  0  0
   54.7420   27.0890   46.6800 H   0  0  0  0  0  0  0  0  0  0  0  0
   56.8372   27.8694   44.5731 H   0  0  0  0  0  0  0  0  0  0  0  0
   58.6108   29.6117   44.7275 H   0  0  0  0  0  0  0  0  0  0  0  0
   61.2560   29.8020   45.7180 H   0  0  0  0  0  0  0  0  0  0  0  0
   63.0136   30.8137   49.1411 H   0  0  0  0  0  0  0  0  0  0  0  0
   64.6589   32.6905   49.1108 H   0  0  0  0  0  0  0  0  0  0  0  0
   62.4020   34.7111   46.1167 H   0  0  0  0  0  0  0  0  0  0  0  0
   60.7091   32.8747   46.0955 H   0  0  0  0  0  0  0  0  0  0  0  0
   60.2869   27.6011   48.1780 H   0  0  0  0  0  0  0  0  0  0  0  0
   58.5078   25.8603   48.0239 H   0  0  0  0  0  0  0  0  0  0  0  0
  1  2  1  0
  2  3  2  0
  2  4  2  0
  2  5  1  0
  5  6  2  0
  6  7  1  0
  7  8  2  0
  8  9  1  0
  9 10  1  0
 10 11  2  0
 10 12  1  0
 12 13  2  0
 13 14  1  0
 14 15  2  0
 15 16  1  0
 16 17  2  0
  8 18  1  0
 18 19  2  0
 19  5  1  0
 17 12  1  0
  1 20  1  0
  6 21  1  0
  7 22  1  0
  9 23  1  0
 13 24  1  0
 14 25  1  0
 16 26  1  0
 17 27  1  0
 18 28  1  0
 19 29  1  0
M  CHG  1   1  -1
M  END
>  <UniqueID>  (16) 
16

>  <SMILES>  (16) 
[NH-]S(=O)(=O)c1ccc(NC(=O)c2ccncc2)cc1

>  <Energy>  (16) 
37.27477578459254

>  <Genealogy>  (16) 
[NH-]S(=O)(=O)c1ccc(NC(=O)c2ccncc2)cc1 (protonated)
[NH-]S(=O)(=O)c1ccc(NC(=O)c2ccncc2)cc1 (3D coordinates assigned)
[NH-]S(=O)(=O)c1ccc(NC(=O)c2ccncc2)cc1 (optimized conformer: 37.27477578459254 kcal/mol)

>  <smiles>  (16) 
NS(=O)(=O)c1ccc(NC(=O)c2ccncc2)cc1

>  <score_type>  (16) 
oracle

>  <origin>  (16) 
adg

>  <m_score__min__energy>  (16) 
-9.3399999999999999

>  <m_primary>  (16) 
energy

$$$$
16:0
     RDKit          3D

 43 45  0  0  0  0  0  0  0  0999 V2000
   57.6470   25.9600   46.6710 C   0  0  0  0  0  0  0  0  0  0  0  0
   57.9050   27.2730   47.1470 O   0  0  0  0  0  0  0  0  0  0  0  0
   58.9920   28.0840   46.7830 C   0  0  0  0  0  0  0  0  0  0  0  0
   59.3080   28.3920   45.4730 C   0  0  0  0  0  0  0  0  0  0  0  0
   58.6160   27.9330   44.2220 C   0  0  0  0  0  0  0  0  0  0  0  0
   57.1700   28.1410   44.3020 N   0  0  0  0  0  0  0  0  0  0  0  0
   56.5040   29.3700   44.6300 C   0  0  0  0  0  0  0  0  0  0  0  0
   55.2660   29.3490   44.8560 O   0  0  0  0  0  0  0  0  0  0  0  0
   57.2100   30.6650   44.6380 C   0  0  0  0  0  0  0  0  0  0  0  0
   57.3100   31.4060   43.4560 C   0  0  0  0  0  0  0  0  0  0  0  0
   58.0520   32.5870   43.4300 C   0  0  0  0  0  0  0  0  0  0  0  0
   58.7040   33.0500   44.5790 C   0  0  0  0  0  0  0  0  0  0  0  0
   58.5490   32.3430   45.7970 C   0  0  0  0  0  0  0  0  0  0  0  0
   57.8030   31.1500   45.8100 C   0  0  0  0  0  0  0  0  0  0  0  0
   59.1090   32.8740   47.0950 C   0  0  0  0  0  0  0  0  0  0  0  0
   58.7960   34.2940   47.3240 N   0  0  0  0  0  0  0  0  0  0  0  0
   59.6770   35.2600   46.6430 C   0  0  0  0  0  0  0  0  0  0  0  0
   59.3600   35.4240   45.1470 C   0  0  0  0  0  0  0  0  0  0  0  0
   59.5160   34.1890   44.4440 O   0  0  0  0  0  0  0  0  0  0  0  0
   60.4310   29.1930   45.5480 C   0  0  0  0  0  0  0  0  0  0  0  0
   60.7630   29.3430   46.8430 N   0  0  0  0  0  0  0  0  0  0  0  0
   59.9000   28.6780   47.5990 N   0  0  0  0  0  0  0  0  0  0  0  0
   59.9650   28.6740   49.0580 C   0  0  0  0  0  0  0  0  0  0  0  0
   57.5134   25.2800   47.5252 H   0  0  0  0  0  0  0  0  0  0  0  0
   56.7326   25.9647   46.0596 H   0  0  0  0  0  0  0  0  0  0  0  0
   58.4952   25.6184   46.0596 H   0  0  0  0  0  0  0  0  0  0  0  0
   59.0118   28.4995   43.3662 H   0  0  0  0  0  0  0  0  0  0  0  0
   58.8035   26.8561   44.0992 H   0  0  0  0  0  0  0  0  0  0  0  0
   56.8024   31.0567   42.5448 H   0  0  0  0  0  0  0  0  0  0  0  0
   58.1257   33.1616   42.4949 H   0  0  0  0  0  0  0  0  0  0  0  0
   57.6844   30.5925   46.7508 H   0  0  0  0  0  0  0  0  0  0  0  0
   58.6888   32.2853   47.9238 H   0  0  0  0  0  0  0  0  0  0  0  0
   60.2040   32.7857   47.0389 H   0  0  0  0  0  0  0  0  0  0  0  0
   58.8390   34.4810   48.3530 H   0  0  0  0  0  0  0  0  0  0  0  0
   59.5662   36.2388   47.1326 H   0  0  0  0  0  0  0  0  0  0  0  0
   60.7039   34.8727   46.7176 H   0  0  0  0  0  0  0  0  0  0  0  0
   58.3218   35.7703   45.0367 H   0  0  0  0  0  0  0  0  0  0  0  0
   60.0621   36.1563   44.7218 H   0  0  0  0  0  0  0  0  0  0  0  0
   60.9640   29.6340   44.6928 H   0  0  0  0  0  0  0  0  0  0  0  0
   61.5730   29.8980   47.2020 H   0  0  0  0  0  0  0  0  0  0  0  0
   58.9472   28.7366   49.4705 H   0  0  0  0  0  0  0  0  0  0  0  0
   60.4432   27.7447   49.4012 H   0  0  0  0  0  0  0  0  0  0  0  0
   60.5535   29.5376   49.4012 H   0  0  0  0  0  0  0  0  0  0  0  0
  1  2  1  0
  2  3  1  0
  3  4  2  0
  4  5  1  0
  5  6  1  0
  6  7  1  0
  7  8  2  0
  7  9  1  0
  9 10  2  0
 10 11  1  0
 11 12  2  0
 12 13  1  0
 13 14  2  0
 13 15  1  0
 15 16  1  0
 16 17  1  0
 17 18  1  0
 18 19  1  0
  4 20  1  0
 20 21  2  0
 21 22  1  0
 22 23  1  0
 22  3  1  0
 14  9  1  0
 19 12  1  0
  1 24  1  0
  1 25  1  0
  1 26  1  0
  5 27  1  0
  5 28  1  0
 10 29  1  0
 11 30  1  0
 14 31  1  0
 15 32  1  0
 15 33  1  0
 16 34  1  0
 17 35  1  0
 17 36  1  0
 18 37  1  0
 18 38  1  0
 20 39  1  0
 21 40  1  0
 23 41  1  0
 23 42  1  0
 23 43  1  0
M  CHG  2   6  -1  21   1
M  END
>  <UniqueID>  (17) 
17

>  <SMILES>  (17) 
COc1c(C[N-]C(=O)c2ccc3c(c2)CNCCO3)c[nH+]n1C

>  <Energy>  (17) 
89.01377350983167

>  <Genealogy>  (17) 
COc1c(C[N-]C(=O)c2ccc3c(c2)CNCCO3)c[nH+]n1C (protonated)
COc1c(C[N-]C(=O)c2ccc3c(c2)CNCCO3)c[nH+]n1C (3D coordinates assigned)
COc1c(C[N-]C(=O)c2ccc3c(c2)CNCCO3)c[nH+]n1C (nonaromatic ring conformer: 89.01377350983167 kcal/mol)

>  <smiles>  (17) 
COc1c(CNC(=O)c2ccc3c(c2)CNCCO3)cnn1C

>  <score_type>  (17) 
oracle

>  <origin>  (17) 
adg

>  <m_score__min__energy>  (17) 
-5.2400000000000002

>  <m_primary>  (17) 
energy

$$$$
17:0
     RDKit          3D

 45 47  0  0  0  0  0  0  0  0999 V2000
   59.8053   34.6409   49.9303 H   0  0  0  0  0  0  0  0  0  0  0  0
   60.3200   34.2790   49.0280 C   0  0  0  0  0  0  0  0  0  0  0  0
   59.6070   34.0070   47.9030 N   0  0  0  0  0  0  0  0  0  0  0  0
   60.1940   33.5560   46.7610 C   0  0  0  0  0  0  0  0  0  0  0  0
   59.4400   33.3470   45.7200 N   0  0  0  0  0  0  0  0  0  0  0  0
   57.7930   32.7870   45.7280 S   0  0  0  0  0  0  0  0  0  0  0  0
   57.0680   33.3810   44.5530 O   0  0  0  0  0  0  0  0  0  0  0  0
   57.1270   33.2390   46.9970 O   0  0  0  0  0  0  0  0  0  0  0  0
   57.7490   31.0320   45.5950 C   0  0  0  0  0  0  0  0  0  0  0  0
   58.3450   30.2410   46.5860 C   0  0  0  0  0  0  0  0  0  0  0  0
   58.8926   30.7178   47.4123 H   0  0  0  0  0  0  0  0  0  0  0  0
   58.2460   28.8490   46.5280 C   0  0  0  0  0  0  0  0  0  0  0  0
   58.7202   28.2330   47.3062 H   0  0  0  0  0  0  0  0  0  0  0  0
   57.5420   28.2320   45.4780 C   0  0  0  0  0  0  0  0  0  0  0  0
   57.3900   26.8080   45.4120 N   0  0  0  0  0  0  0  0  0  0  0  0
   56.2170   26.0900   45.8090 C   0  0  0  0  0  0  0  0  0  0  0  0
   55.1440   26.7220   45.9860 O   0  0  0  0  0  0  0  0  0  0  0  0
   56.3000   24.6890   46.1060 N   0  0  0  0  0  0  0  0  0  0  0  0
   56.8980   23.6530   45.3100 C   0  0  0  0  0  0  0  0  0  0  0  0
   58.1660   23.1230   45.6190 C   0  0  0  0  0  0  0  0  0  0  0  0
   58.7281   23.5158   46.4791 H   0  0  0  0  0  0  0  0  0  0  0  0
   58.7140   22.1010   44.8390 C   0  0  0  0  0  0  0  0  0  0  0  0
   59.7088   21.6988   45.0813 H   0  0  0  0  0  0  0  0  0  0  0  0
   58.0020   21.5900   43.7540 C   0  0  0  0  0  0  0  0  0  0  0  0
   58.4415   20.7940   43.1349 H   0  0  0  0  0  0  0  0  0  0  0  0
   56.7320   22.0870   43.4520 C   0  0  0  0  0  0  0  0  0  0  0  0
   56.1716   21.6751   42.5998 H   0  0  0  0  0  0  0  0  0  0  0  0
   56.1670   23.1100   44.2310 C   0  0  0  0  0  0  0  0  0  0  0  0
   54.7940   23.6310   43.9030 C   0  0  0  0  0  0  0  0  0  0  0  0
   54.2481   23.8382   44.8352 H   0  0  0  0  0  0  0  0  0  0  0  0
   54.8837   24.5576   43.3170 H   0  0  0  0  0  0  0  0  0  0  0  0
   54.2465   22.8781   43.3170 H   0  0  0  0  0  0  0  0  0  0  0  0
   56.9990   29.0240   44.4590 C   0  0  0  0  0  0  0  0  0  0  0  0
   56.4954   28.5469   43.6053 H   0  0  0  0  0  0  0  0  0  0  0  0
   57.0930   30.4170   44.5200 C   0  0  0  0  0  0  0  0  0  0  0  0
   56.6511   31.0322   43.7224 H   0  0  0  0  0  0  0  0  0  0  0  0
   61.5900   33.3500   46.7430 C   0  0  0  0  0  0  0  0  0  0  0  0
   62.0833   32.9836   45.8306 H   0  0  0  0  0  0  0  0  0  0  0  0
   62.3450   33.6150   47.8950 C   0  0  0  0  0  0  0  0  0  0  0  0
   63.8350   33.4470   47.8760 C   0  0  0  0  0  0  0  0  0  0  0  0
   64.2124   33.4044   48.9084 H   0  0  0  0  0  0  0  0  0  0  0  0
   64.0922   32.5142   47.3528 H   0  0  0  0  0  0  0  0  0  0  0  0
   64.2934   34.2991   47.3528 H   0  0  0  0  0  0  0  0  0  0  0  0
   61.7030   34.1000   49.0400 C   0  0  0  0  0  0  0  0  0  0  0  0
   62.2848   34.3382   49.9426 H   0  0  0  0  0  0  0  0  0  0  0  0
  1  2  1  0
  2  3  1  0
  3  4  1  0
  4  5  2  0
  5  6  1  0
  6  7  2  0
  6  8  2  0
  6  9  1  0
  9 10  2  0
 10 11  1  0
 10 12  1  0
 12 13  1  0
 12 14  2  0
 14 15  1  0
 15 16  1  0
 16 17  2  0
 16 18  1  0
 18 19  1  0
 19 20  2  0
 20 21  1  0
 20 22  1  0
 22 23  1  0
 22 24  2  0
 24 25  1  0
 24 26  1  0
 26 27  1  0
 26 28  2  0
 28 29  1  0
 29 30  1  0
 29 31  1  0
 29 32  1  0
 14 33  1  0
 33 34  1  0
 33 35  2  0
 35 36  1  0
  4 37  1  0
 37 38  1  0
 37 39  2  0
 39 40  1  0
 40 41  1  0
 40 42  1  0
 40 43  1  0
 39 44  1  0
 44 45  1  0
 44  2  2  0
 35  9  1  0
 28 19  1  0
M  CHG  3   3  -1  15  -1  18  -1
M  END
>  <UniqueID>  (18) 
18

>  <SMILES>  (18) 
Cc1cc[n-]/c(=N/S(=O)(=O)c2ccc([N-]C(=O)[N-]c3ccccc3C)cc2)c1

>  <Energy>  (18) 
58.02244702989084

>  <Genealogy>  (18) 
Cc1cc[n-]c(=NS(=O)(=O)c2ccc([N-]C(=O)[N-]c3ccccc3C)cc2)c1 (protonated)
Cc1cc[n-]/c(=N/S(=O)(=O)c2ccc([N-]C(=O)[N-]c3ccccc3C)cc2)c1 (cis-trans isomerization)
Cc1cc[n-]/c(=N/S(=O)(=O)c2ccc([N-]C(=O)[N-]c3ccccc3C)cc2)c1 (3D coordinates assigned)
Cc1cc[n-]/c(=N/S(=O)(=O)c2ccc([N-]C(=O)[N-]c3ccccc3C)cc2)c1 (optimized conformer: 58.02244702989084 kcal/mol)

>  <smiles>  (18) 
Cc1cc[nH]c(=NS(=O)(=O)c2ccc(NC(=O)Nc3ccccc3C)cc2)c1

>  <score_type>  (18) 
oracle

>  <origin>  (18) 
adg

>  <m_score__min__energy>  (18) 
-12.65

>  <m_primary>  (18) 
energy

$$$$
18:0
     RDKit          3D

 62 66  0  0  1  0  0  0  0  0999 V2000
   64.5700   29.1950   51.8890 C   0  0  0  0  0  0  0  0  0  0  0  0
   63.6890   30.1900   51.2500 C   0  0  0  0  0  0  0  0  0  0  0  0
   62.3530   30.0650   51.4800 N   0  0  0  0  0  0  0  0  0  0  0  0
   61.4720   30.9290   50.9350 C   0  0  0  0  0  0  0  0  0  0  0  0
   60.0580   30.7540   51.2090 C   0  0  0  0  0  0  0  0  0  0  0  0
   59.1110   31.5330   50.5780 C   0  0  0  0  0  0  0  0  0  0  0  0
   57.7710   31.4440   50.7700 C   0  0  0  0  0  0  0  0  0  0  0  0
   57.2760   30.4970   51.6760 C   0  0  0  0  0  0  0  0  0  0  0  0
   56.0510   30.2320   52.0200 N   0  0  0  0  0  0  0  0  0  0  0  0
   55.6150   29.4170   52.7990 C   0  0  0  0  0  0  0  0  0  0  0  0
   57.2670   28.6220   53.3860 S   0  0  0  0  0  0  0  0  0  0  0  0
   58.2510   29.7200   52.3010 C   0  0  0  0  0  0  0  0  0  0  0  0
   59.5880   29.8170   52.1020 C   0  0  0  0  0  0  0  0  0  0  0  0
   61.9790   31.9290   50.1500 C   0  0  0  0  0  0  0  0  0  0  0  0
   63.3290   32.0740   49.9040 C   0  0  0  0  0  0  0  0  0  0  0  0
   63.7090   33.0090   49.1570 N   0  0  0  0  0  0  0  0  0  0  0  0
   63.1750   33.5060   47.9420 C   0  0  1  0  0  0  0  0  0  0  0  0
   63.7990   33.0280   46.6660 C   0  0  0  0  0  0  0  0  0  0  0  0
   61.7140   33.7050   47.8860 C   0  0  0  0  0  0  0  0  0  0  0  0
   60.9860   34.4610   48.7750 C   0  0  0  0  0  0  0  0  0  0  0  0
   59.5970   34.5990   48.6690 C   0  0  0  0  0  0  0  0  0  0  0  0
   58.8910   33.9800   47.6630 C   0  0  0  0  0  0  0  0  0  0  0  0
   59.6100   33.2210   46.7640 C   0  0  0  0  0  0  0  0  0  0  0  0
   58.8570   32.5670   45.6970 C   0  0  0  0  0  0  0  0  0  0  0  0
   58.6400   33.2910   44.5360 C   0  0  0  0  0  0  0  0  0  0  0  0
   57.9340   32.6950   43.5180 C   0  0  0  0  0  0  0  0  0  0  0  0
   57.4390   31.4010   43.6260 C   0  0  0  0  0  0  0  0  0  0  0  0
   56.6820   30.8110   42.4950 C   0  0  0  0  0  0  0  0  0  0  0  0
   57.6470   30.6750   44.7680 C   0  0  0  0  0  0  0  0  0  0  0  0
   57.0640   29.0420   44.9880 S   0  0  0  0  0  0  0  0  0  0  0  0
   57.8040   27.9160   43.8530 C   0  0  0  0  0  0  0  0  0  0  0  0
   55.5600   28.9890   44.9210 O   0  0  0  0  0  0  0  0  0  0  0  0
   57.4180   28.5910   46.3930 O   0  0  0  0  0  0  0  0  0  0  0  0
   58.3650   31.3000   45.7820 C   0  0  0  0  0  0  0  0  0  0  0  0
   60.9650   33.0900   46.8730 C   0  0  0  0  0  0  0  0  0  0  0  0
   64.1630   31.1860   50.4700 N   0  0  0  0  0  0  0  0  0  0  0  0
   64.4911   29.2841   52.9825 H   0  0  0  0  0  0  0  0  0  0  0  0
   64.2656   28.1840   51.5806 H   0  0  0  0  0  0  0  0  0  0  0  0
   65.6105   29.3748   51.5806 H   0  0  0  0  0  0  0  0  0  0  0  0
   59.4708   32.2865   49.8620 H   0  0  0  0  0  0  0  0  0  0  0  0
   57.0834   32.1055   50.2225 H   0  0  0  0  0  0  0  0  0  0  0  0
   54.5772   29.1946   53.0881 H   0  0  0  0  0  0  0  0  0  0  0  0
   60.2844   29.1599   52.6434 H   0  0  0  0  0  0  0  0  0  0  0  0
   61.2807   32.6475   49.6960 H   0  0  0  0  0  0  0  0  0  0  0  0
   63.5546   34.5366   48.0037 H   0  0  0  0  0  0  0  0  0  0  0  0
   64.6526   32.3741   46.8978 H   0  0  0  0  0  0  0  0  0  0  0  0
   63.0550   32.4665   46.0818 H   0  0  0  0  0  0  0  0  0  0  0  0
   64.1474   33.8925   46.0818 H   0  0  0  0  0  0  0  0  0  0  0  0
   61.5115   34.9730   49.5946 H   0  0  0  0  0  0  0  0  0  0  0  0
   59.0590   35.2147   49.4048 H   0  0  0  0  0  0  0  0  0  0  0  0
   57.7993   34.0862   47.5796 H   0  0  0  0  0  0  0  0  0  0  0  0
   59.0229   34.3169   44.4313 H   0  0  0  0  0  0  0  0  0  0  0  0
   57.7557   33.2590   42.5906 H   0  0  0  0  0  0  0  0  0  0  0  0
   55.8712   30.1791   42.8865 H   0  0  0  0  0  0  0  0  0  0  0  0
   56.2546   31.6166   41.8799 H   0  0  0  0  0  0  0  0  0  0  0  0
   57.3588   30.1998   41.8799 H   0  0  0  0  0  0  0  0  0  0  0  0
   58.3250   27.1233   44.4100 H   0  0  0  0  0  0  0  0  0  0  0  0
   57.0240   27.4676   43.2202 H   0  0  0  0  0  0  0  0  0  0  0  0
   58.5251   28.4541   43.2202 H   0  0  0  0  0  0  0  0  0  0  0  0
   58.5465   30.7366   46.7091 H   0  0  0  0  0  0  0  0  0  0  0  0
   61.4934   32.4731   46.1313 H   0  0  0  0  0  0  0  0  0  0  0  0
   65.1900   31.2640   50.3080 H   0  0  0  0  0  0  0  0  0  0  0  0
  1  2  1  0
  2  3  2  0
  3  4  1  0
  4  5  1  0
  5  6  2  0
  6  7  1  0
  7  8  2  0
  8  9  1  0
  9 10  2  0
 10 11  1  0
 11 12  1  0
 12 13  2  0
  4 14  2  0
 14 15  1  0
 15 16  2  0
 16 17  1  0
 17 18  1  0
 17 19  1  0
 19 20  2  0
 20 21  1  0
 21 22  2  0
 22 23  1  0
 23 24  1  0
 24 25  2  0
 25 26  1  0
 26 27  2  0
 27 28  1  0
 27 29  1  0
 29 30  1  0
 30 31  1  0
 30 32  2  0
 30 33  2  0
 29 34  2  0
 23 35  2  0
 15 36  1  0
 36  2  1  0
 13  5  1  0
 35 19  1  0
 12  8  1  0
 34 24  1  0
  1 37  1  0
  1 38  1  0
  1 39  1  0
  6 40  1  0
  7 41  1  0
 10 42  1  0
 13 43  1  0
 14 44  1  0
 17 45  1  1
 18 46  1  0
 18 47  1  0
 18 48  1  0
 20 49  1  0
 21 50  1  0
 22 51  1  0
 25 52  1  0
 26 53  1  0
 28 54  1  0
 28 55  1  0
 28 56  1  0
 31 57  1  0
 31 58  1  0
 31 59  1  0
 34 60  1  0
 35 61  1  0
 36 62  1  0
M  END
>  <smiles>  (19) 
Cc1nc(-c2ccc3ncsc3c2)cc(=NC(C)c2cccc(-c3ccc(C)c(S(C)(=O)=O)c3)c2)[nH]1

>  <score_type>  (19) 
oracle

>  <origin>  (19) 
adg

>  <m_score__min__energy>  (19) 
-11.58

>  <m_primary>  (19) 
energy

$$$$
19:0
     RDKit          3D

 35 37  0  0  0  0  0  0  0  0999 V2000
   51.9230   23.2790   45.7930 O   0  0  0  0  0  0  0  0  0  0  0  0
   53.1090   23.6060   45.5320 C   0  0  0  0  0  0  0  0  0  0  0  0
   53.5660   24.8360   45.8800 N   0  0  0  0  0  0  0  0  0  0  0  0
   54.8450   25.2100   45.6200 C   0  0  0  0  0  0  0  0  0  0  0  0
   55.2730   26.4880   45.9710 O   0  0  0  0  0  0  0  0  0  0  0  0
   55.7290   24.3080   45.0040 C   0  0  0  0  0  0  0  0  0  0  0  0
   57.1260   24.7240   44.7280 C   0  0  0  0  0  0  0  0  0  0  0  0
   57.5410   25.9600   44.7280 N   0  0  0  0  0  0  0  0  0  0  0  0
   58.2530   26.6370   45.7770 C   0  0  0  0  0  0  0  0  0  0  0  0
   59.3590   25.9960   46.3510 C   0  0  0  0  0  0  0  0  0  0  0  0
   60.0450   26.5860   47.4150 C   0  0  0  0  0  0  0  0  0  0  0  0
   59.6380   27.8270   47.9070 C   0  0  0  0  0  0  0  0  0  0  0  0
   58.5630   28.4950   47.3160 C   0  0  0  0  0  0  0  0  0  0  0  0
   57.8880   27.9290   46.2270 C   0  0  0  0  0  0  0  0  0  0  0  0
   56.8640   28.6720   45.6250 O   0  0  0  0  0  0  0  0  0  0  0  0
   57.0600   29.7280   44.7200 C   0  0  0  0  0  0  0  0  0  0  0  0
   56.4890   29.6270   43.4460 C   0  0  0  0  0  0  0  0  0  0  0  0
   56.6600   30.6510   42.5090 C   0  0  0  0  0  0  0  0  0  0  0  0
   57.3920   31.7930   42.8470 C   0  0  0  0  0  0  0  0  0  0  0  0
   57.9470   31.9140   44.1230 C   0  0  0  0  0  0  0  0  0  0  0  0
   57.7790   30.8900   45.0610 C   0  0  0  0  0  0  0  0  0  0  0  0
   55.2140   23.0590   44.6030 C   0  0  0  0  0  0  0  0  0  0  0  0
   55.9200   22.2460   43.9520 O   0  0  0  0  0  0  0  0  0  0  0  0
   53.9260   22.7350   44.8890 N   0  0  0  0  0  0  0  0  0  0  0  0
   55.8740   27.0230   45.3560 H   0  0  0  0  0  0  0  0  0  0  0  0
   57.8616   23.9362   44.5085 H   0  0  0  0  0  0  0  0  0  0  0  0
   59.6891   25.0218   45.9611 H   0  0  0  0  0  0  0  0  0  0  0  0
   60.9069   26.0721   47.8656 H   0  0  0  0  0  0  0  0  0  0  0  0
   60.1640   28.2793   48.7606 H   0  0  0  0  0  0  0  0  0  0  0  0
   58.2444   29.4720   47.7084 H   0  0  0  0  0  0  0  0  0  0  0  0
   55.9016   28.7358   43.1799 H   0  0  0  0  0  0  0  0  0  0  0  0
   56.2184   30.5578   41.5058 H   0  0  0  0  0  0  0  0  0  0  0  0
   57.5309   32.5961   42.1082 H   0  0  0  0  0  0  0  0  0  0  0  0
   58.5170   32.8159   44.3907 H   0  0  0  0  0  0  0  0  0  0  0  0
   58.2097   30.9926   46.0679 H   0  0  0  0  0  0  0  0  0  0  0  0
  1  2  2  0
  2  3  1  0
  3  4  1  0
  4  5  1  0
  4  6  2  0
  6  7  1  0
  7  8  2  3
  8  9  1  0
  9 10  2  0
 10 11  1  0
 11 12  2  0
 12 13  1  0
 13 14  2  0
 14 15  1  0
 15 16  1  0
 16 17  2  0
 17 18  1  0
 18 19  2  0
 19 20  1  0
 20 21  2  0
  6 22  1  0
 22 23  2  0
 22 24  1  0
 24  2  1  0
 14  9  1  0
 21 16  1  0
  5 25  1  0
  7 26  1  0
 10 27  1  0
 11 28  1  0
 12 29  1  0
 13 30  1  0
 17 31  1  0
 18 32  1  0
 19 33  1  0
 20 34  1  0
 21 35  1  0
M  CHG  2   3  -1  24  -1
M  END
>  <UniqueID>  (20) 
19

>  <SMILES>  (20) 
O=c1[n-]c(O)c(C=Nc2ccccc2Oc2ccccc2)c(=O)[n-]1

>  <Energy>  (20) 
59.43280965978126

>  <Genealogy>  (20) 
O=c1[n-]c(O)c(C=Nc2ccccc2Oc2ccccc2)c(=O)[n-]1 (protonated)
O=c1[n-]c(O)c(C=Nc2ccccc2Oc2ccccc2)c(=O)[n-]1 (3D coordinates assigned)
O=c1[n-]c(O)c(C=Nc2ccccc2Oc2ccccc2)c(=O)[n-]1 (optimized conformer: 59.43280965978126 kcal/mol)

>  <smiles>  (20) 
O=c1[nH]c(O)c(C=Nc2ccccc2Oc2ccccc2)c(=O)[nH]1

>  <score_type>  (20) 
oracle

>  <origin>  (20) 
adg

>  <m_score__min__energy>  (20) 
-12.66

>  <m_primary>  (20) 
energy

$$$$
20:0
     RDKit          3D

 38 39  0  0  0  0  0  0  0  0999 V2000
   59.6500   35.4410   46.2740 C   0  0  0  0  0  0  0  0  0  0  0  0
   59.3790   34.1640   46.9630 N   0  0  0  0  0  0  0  0  0  0  0  0
   58.3610   33.3420   46.5280 C   0  0  0  0  0  0  0  0  0  0  0  0
   57.4520   33.6900   45.3630 C   0  0  0  0  0  0  0  0  0  0  0  0
   58.1170   33.4100   44.0940 N   0  0  0  0  0  0  0  0  0  0  0  0
   57.8450   32.2550   43.2910 C   0  0  0  0  0  0  0  0  0  0  0  0
   57.8140   32.3590   42.0350 O   0  0  0  0  0  0  0  0  0  0  0  0
   57.6000   30.9430   43.9330 C   0  0  0  0  0  0  0  0  0  0  0  0
   58.6700   30.1690   44.4160 C   0  0  0  0  0  0  0  0  0  0  0  0
   58.4360   28.9330   45.0250 C   0  0  0  0  0  0  0  0  0  0  0  0
   57.1280   28.4510   45.1640 C   0  0  0  0  0  0  0  0  0  0  0  0
   56.8400   26.8880   45.9220 S   0  0  0  0  0  0  0  0  0  0  0  0
   55.1420   26.5690   45.9830 N   0  0  0  0  0  0  0  0  0  0  0  0
   57.3970   26.8990   47.3160 O   0  0  0  0  0  0  0  0  0  0  0  0
   57.5050   25.8010   45.1260 O   0  0  0  0  0  0  0  0  0  0  0  0
   56.0570   29.2120   44.6790 C   0  0  0  0  0  0  0  0  0  0  0  0
   56.2890   30.4490   44.0710 C   0  0  0  0  0  0  0  0  0  0  0  0
   58.1400   32.1230   47.1710 C   0  0  0  0  0  0  0  0  0  0  0  0
   58.9320   31.7610   48.2490 C   0  0  0  0  0  0  0  0  0  0  0  0
   58.7010   30.6680   48.8350 O   0  0  0  0  0  0  0  0  0  0  0  0
   59.9420   32.5830   48.6670 N   0  0  0  0  0  0  0  0  0  0  0  0
   60.7600   32.2080   49.8350 C   0  0  0  0  0  0  0  0  0  0  0  0
   60.1470   33.7890   48.0430 C   0  0  0  0  0  0  0  0  0  0  0  0
   61.0500   34.5610   48.4730 O   0  0  0  0  0  0  0  0  0  0  0  0
   59.8178   36.2317   47.0200 H   0  0  0  0  0  0  0  0  0  0  0  0
   60.5457   35.3350   45.6443 H   0  0  0  0  0  0  0  0  0  0  0  0
   58.7885   35.7079   45.6443 H   0  0  0  0  0  0  0  0  0  0  0  0
   56.5323   33.0902   45.4298 H   0  0  0  0  0  0  0  0  0  0  0  0
   57.2099   34.7620   45.4087 H   0  0  0  0  0  0  0  0  0  0  0  0
   59.7006   30.5397   44.3136 H   0  0  0  0  0  0  0  0  0  0  0  0
   59.2821   28.3364   45.3966 H   0  0  0  0  0  0  0  0  0  0  0  0
   54.7680   27.0640   46.8240 H   0  0  0  0  0  0  0  0  0  0  0  0
   55.0285   28.8345   44.7770 H   0  0  0  0  0  0  0  0  0  0  0  0
   55.4406   31.0411   43.6974 H   0  0  0  0  0  0  0  0  0  0  0  0
   57.3404   31.4524   46.8234 H   0  0  0  0  0  0  0  0  0  0  0  0
   60.2166   32.4571   50.7584 H   0  0  0  0  0  0  0  0  0  0  0  0
   60.9625   31.1271   49.8090 H   0  0  0  0  0  0  0  0  0  0  0  0
   61.7111   32.7600   49.8090 H   0  0  0  0  0  0  0  0  0  0  0  0
  1  2  1  0
  2  3  1  0
  3  4  1  0
  4  5  1  0
  5  6  1  0
  6  7  2  0
  6  8  1  0
  8  9  2  0
  9 10  1  0
 10 11  2  0
 11 12  1  0
 12 13  1  0
 12 14  2  0
 12 15  2  0
 11 16  1  0
 16 17  2  0
  3 18  2  0
 18 19  1  0
 19 20  2  0
 19 21  1  0
 21 22  1  0
 21 23  1  0
 23 24  2  0
 23  2  1  0
 17  8  1  0
  1 25  1  0
  1 26  1  0
  1 27  1  0
  4 28  1  0
  4 29  1  0
  9 30  1  0
 10 31  1  0
 13 32  1  0
 16 33  1  0
 17 34  1  0
 18 35  1  0
 22 36  1  0
 22 37  1  0
 22 38  1  0
M  CHG  2   5  -1  13  -1
M  END
>  <UniqueID>  (21) 
20

>  <SMILES>  (21) 
Cn1c(C[N-]C(=O)c2ccc(S([NH-])(=O)=O)cc2)cc(=O)n(C)c1=O

>  <Energy>  (21) 
47.01201966571956

>  <Genealogy>  (21) 
Cn1c(C[N-]C(=O)c2ccc(S([NH-])(=O)=O)cc2)cc(=O)n(C)c1=O (protonated)
Cn1c(C[N-]C(=O)c2ccc(S([NH-])(=O)=O)cc2)cc(=O)n(C)c1=O (3D coordinates assigned)
Cn1c(C[N-]C(=O)c2ccc(S([NH-])(=O)=O)cc2)cc(=O)n(C)c1=O (optimized conformer: 47.01201966571956 kcal/mol)

>  <smiles>  (21) 
Cn1c(CNC(=O)c2ccc(S(N)(=O)=O)cc2)cc(=O)n(C)c1=O

>  <score_type>  (21) 
oracle

>  <origin>  (21) 
adg

>  <m_score__min__energy>  (21) 
-11.199999999999999

>  <m_primary>  (21) 
energy

$$$$
21:0
     RDKit          3D

 55 57  0  0  1  0  0  0  0  0999 V2000
   56.7160   30.9650   43.0230 C   0  0  0  0  0  0  0  0  0  0  0  0
   56.8260   29.7250   44.3020 S   0  0  0  0  0  0  0  0  0  0  0  0
   57.4990   30.3260   45.4960 O   0  0  0  0  0  0  0  0  0  0  0  0
   55.4700   29.2090   44.6660 O   0  0  0  0  0  0  0  0  0  0  0  0
   57.8210   28.4220   43.7600 N   0  0  0  0  0  0  0  0  0  0  0  0
   58.0520   27.2480   44.5220 C   0  0  0  0  0  0  0  0  0  0  0  0
   57.5870   26.0070   44.1900 C   0  0  0  0  0  0  0  0  0  0  0  0
   57.8660   24.9020   44.9990 C   0  0  0  0  0  0  0  0  0  0  0  0
   58.6220   25.0490   46.1550 C   0  0  0  0  0  0  0  0  0  0  0  0
   59.0960   26.2980   46.5000 C   0  0  0  0  0  0  0  0  0  0  0  0
   59.9100   26.5780   47.6960 C   0  0  0  0  0  0  0  0  0  0  0  0
   60.5380   27.8610   47.7170 N   0  0  0  0  0  0  0  0  0  0  0  0
   60.0000   29.0270   48.3210 C   0  0  0  0  0  0  0  0  0  0  0  0
   58.8820   28.9710   48.8940 O   0  0  0  0  0  0  0  0  0  0  0  0
   60.6730   30.3190   48.3240 C   0  0  0  0  0  0  0  0  0  0  0  0
   61.8320   30.4550   47.5940 C   0  0  0  0  0  0  0  0  0  0  0  0
   62.5040   31.6740   47.5700 C   0  0  0  0  0  0  0  0  0  0  0  0
   63.5900   31.7820   46.8800 N   0  0  0  0  0  0  0  0  0  0  0  0
   62.0220   32.7210   48.2560 N   0  0  0  0  0  0  0  0  0  0  0  0
   60.8950   32.5640   48.9560 C   0  0  0  0  0  0  0  0  0  0  0  0
   60.4330   33.5610   49.6110 N   0  0  0  0  0  0  0  0  0  0  0  0
   59.6620   34.6510   49.1020 C   0  0  0  0  0  0  0  0  0  0  0  0
   60.1330   34.9660   47.6990 C   0  0  0  0  0  0  0  0  0  0  0  0
   59.2520   34.4450   46.6400 C   0  0  0  0  0  0  0  0  0  0  0  0
   58.0440   33.8770   47.0560 C   0  0  0  0  0  0  0  0  0  0  0  0
   57.1340   33.3540   46.1670 C   0  0  0  0  0  0  0  0  0  0  0  0
   57.4220   33.3920   44.8080 C   0  0  0  0  0  0  0  0  0  0  0  0
   58.6200   33.9580   44.3950 C   0  0  0  0  0  0  0  0  0  0  0  0
   59.5360   34.4830   45.2970 C   0  0  0  0  0  0  0  0  0  0  0  0
   60.2340   31.3920   48.9910 N   0  0  0  0  0  0  0  0  0  0  0  0
   58.8050   27.3900   45.6750 C   0  0  0  0  0  0  0  0  0  0  0  0
   56.6277   31.9600   43.4836 H   0  0  0  0  0  0  0  0  0  0  0  0
   57.6209   30.9290   42.3986 H   0  0  0  0  0  0  0  0  0  0  0  0
   55.8316   30.7702   42.3986 H   0  0  0  0  0  0  0  0  0  0  0  0
   58.2870   28.4790   42.8290 H   0  0  0  0  0  0  0  0  0  0  0  0
   56.9873   25.8762   43.2772 H   0  0  0  0  0  0  0  0  0  0  0  0
   57.4843   23.9092   44.7184 H   0  0  0  0  0  0  0  0  0  0  0  0
   58.8408   24.1776   46.7896 H   0  0  0  0  0  0  0  0  0  0  0  0
   59.2562   26.5045   48.5776 H   0  0  0  0  0  0  0  0  0  0  0  0
   60.7248   25.8391   47.6908 H   0  0  0  0  0  0  0  0  0  0  0  0
   61.4740   27.9750   47.2540 H   0  0  0  0  0  0  0  0  0  0  0  0
   62.2281   29.5987   47.0284 H   0  0  0  0  0  0  0  0  0  0  0  0
   64.5140   32.0160   47.2880 H   0  0  0  0  0  0  0  0  0  0  0  0
   62.5320   33.6180   48.2280 H   0  0  0  0  0  0  0  0  0  0  0  0
   58.5977   34.3737   49.0815 H   0  0  0  0  0  0  0  0  0  0  0  0
   59.7895   35.5331   49.7467 H   0  0  0  0  0  0  0  0  0  0  0  0
   60.1936   36.0591   47.5918 H   0  0  0  0  0  0  0  0  0  0  0  0
   61.1082   34.4731   47.5726 H   0  0  0  0  0  0  0  0  0  0  0  0
   57.8135   33.8474   48.1312 H   0  0  0  0  0  0  0  0  0  0  0  0
   56.1927   32.9124   46.5262 H   0  0  0  0  0  0  0  0  0  0  0  0
   56.7137   32.9812   44.0734 H   0  0  0  0  0  0  0  0  0  0  0  0
   58.8510   33.9918   43.3201 H   0  0  0  0  0  0  0  0  0  0  0  0
   60.4782   34.9242   44.9399 H   0  0  0  0  0  0  0  0  0  0  0  0
   59.3730   31.3420   49.5510 H   0  0  0  0  0  0  0  0  0  0  0  0
   59.1838   28.3856   45.9492 H   0  0  0  0  0  0  0  0  0  0  0  0
  1  2  1  0
  2  3  2  0
  2  4  2  0
  2  5  1  0
  5  6  1  0
  6  7  2  0
  7  8  1  0
  8  9  2  0
  9 10  1  0
 10 11  1  0
 11 12  1  0
 12 13  1  0
 13 14  2  0
 13 15  1  0
 15 16  2  0
 16 17  1  0
 17 18  2  3
 17 19  1  0
 19 20  1  0
 20 21  2  0
 21 22  1  0
 22 23  1  0
 23 24  1  0
 24 25  2  0
 25 26  1  0
 26 27  2  0
 27 28  1  0
 28 29  2  0
 20 30  1  0
 10 31  2  0
 31  6  1  0
 30 15  1  0
 29 24  1  0
  1 32  1  0
  1 33  1  0
  1 34  1  0
  5 35  1  0
  7 36  1  0
  8 37  1  0
  9 38  1  0
 11 39  1  0
 11 40  1  0
 12 41  1  0
 16 42  1  0
 18 43  1  0
 19 44  1  0
 22 45  1  0
 22 46  1  0
 23 47  1  0
 23 48  1  0
 25 49  1  0
 26 50  1  0
 27 51  1  0
 28 52  1  0
 29 53  1  0
 30 54  1  0
 31 55  1  0
M  END
>  <smiles>  (22) 
CS(=O)(=O)Nc1cccc(CNC(=O)c2cc(=N)[nH]c(=NCCc3ccccc3)[nH]2)c1

>  <score_type>  (22) 
oracle

>  <origin>  (22) 
adg

>  <m_score__min__energy>  (22) 
-9.3800000000000008

>  <m_primary>  (22) 
energy

$$$$
22:0
     RDKit          3D

 36 38  0  0  1  0  0  0  0  0999 V2000
   60.6650   26.9780   46.8560 C   0  0  0  0  0  0  0  0  0  0  0  0
   59.8870   28.2320   47.0430 N   0  0  0  0  0  0  0  0  0  0  0  0
   60.5920   29.2530   47.7760 C   0  0  0  0  0  0  0  0  0  0  0  0
   58.6270   28.2750   46.4530 C   0  0  0  0  0  0  0  0  0  0  0  0
   57.8170   27.1800   46.6600 N   0  0  0  0  0  0  0  0  0  0  0  0
   56.6130   27.0870   46.1020 C   0  0  0  0  0  0  0  0  0  0  0  0
   55.9090   26.0330   46.3380 N   0  0  0  0  0  0  0  0  0  0  0  0
   56.0840   24.8700   45.5290 C   0  0  0  0  0  0  0  0  0  0  0  0
   57.4060   24.5170   45.2430 C   0  0  0  0  0  0  0  0  0  0  0  0
   57.6340   23.4020   44.4660 C   0  0  0  0  0  0  0  0  0  0  0  0
   56.5650   22.6650   43.9920 C   0  0  0  0  0  0  0  0  0  0  0  0
   56.8980   21.2660   43.0160 Cl  0  0  0  0  0  0  0  0  0  0  0  0
   55.2610   23.0140   44.2750 C   0  0  0  0  0  0  0  0  0  0  0  0
   55.0220   24.1290   45.0530 C   0  0  0  0  0  0  0  0  0  0  0  0
   56.0770   28.0220   45.3000 N   0  0  0  0  0  0  0  0  0  0  0  0
   56.8360   29.1170   45.0690 C   0  0  0  0  0  0  0  0  0  0  0  0
   56.2930   30.0860   44.2640 C   0  0  0  0  0  0  0  0  0  0  0  0
   57.0040   31.2360   43.9980 C   0  0  0  0  0  0  0  0  0  0  0  0
   58.2540   31.3370   44.5770 C   0  0  0  0  0  0  0  0  0  0  0  0
   58.7990   30.3660   45.3840 C   0  0  0  0  0  0  0  0  0  0  0  0
   58.1020   29.2360   45.6450 C   0  0  0  0  0  0  0  0  0  0  0  0
   60.9255   26.5581   47.8388 H   0  0  0  0  0  0  0  0  0  0  0  0
   60.0592   26.2508   46.2955 H   0  0  0  0  0  0  0  0  0  0  0  0
   61.5856   27.1978   46.2955 H   0  0  0  0  0  0  0  0  0  0  0  0
   60.4716   29.0787   48.8554 H   0  0  0  0  0  0  0  0  0  0  0  0
   61.6603   29.2195   47.5160 H   0  0  0  0  0  0  0  0  0  0  0  0
   60.1822   30.2401   47.5160 H   0  0  0  0  0  0  0  0  0  0  0  0
   58.2445   25.1152   45.6291 H   0  0  0  0  0  0  0  0  0  0  0  0
   58.6634   23.0994   44.2237 H   0  0  0  0  0  0  0  0  0  0  0  0
   54.4250   22.4136   43.8870 H   0  0  0  0  0  0  0  0  0  0  0  0
   53.9900   24.4252   45.2922 H   0  0  0  0  0  0  0  0  0  0  0  0
   55.1430   27.9230   44.8810 H   0  0  0  0  0  0  0  0  0  0  0  0
   55.2915   29.9452   43.8315 H   0  0  0  0  0  0  0  0  0  0  0  0
   56.5971   32.0325   43.3576 H   0  0  0  0  0  0  0  0  0  0  0  0
   58.8458   32.2435   44.3819 H   0  0  0  0  0  0  0  0  0  0  0  0
   59.8003   30.5078   45.8168 H   0  0  0  0  0  0  0  0  0  0  0  0
  1  2  1  0
  2  3  1  0
  2  4  1  0
  4  5  2  0
  5  6  1  0
  6  7  2  0
  7  8  1  0
  8  9  2  0
  9 10  1  0
 10 11  2  0
 11 12  1  0
 11 13  1  0
 13 14  2  0
  6 15  1  0
 15 16  1  0
 16 17  2  0
 17 18  1  0
 18 19  2  0
 19 20  1  0
 20 21  2  0
 21  4  1  0
 14  8  1  0
 21 16  1  0
  1 22  1  0
  1 23  1  0
  1 24  1  0
  3 25  1  0
  3 26  1  0
  3 27  1  0
  9 28  1  0
 10 29  1  0
 13 30  1  0
 14 31  1  0
 15 32  1  0
 17 33  1  0
 18 34  1  0
 19 35  1  0
 20 36  1  0
M  END
>  <smiles>  (23) 
CN(C)c1nc(=Nc2ccc(Cl)cc2)[nH]c2ccccc12

>  <score_type>  (23) 
oracle

>  <origin>  (23) 
adg

>  <m_score__min__energy>  (23) 
-7.3200000000000003

>  <m_primary>  (23) 
energy

$$$$
23:0
     RDKit          3D

 29 30  0  0  0  0  0  0  0  0999 V2000
   57.4230   28.5160   43.4650 N   0  0  0  0  0  0  0  0  0  0  0  0
   56.7290   29.9970   44.0240 S   0  0  0  0  0  0  0  0  0  0  0  0
   56.3020   30.8270   42.8460 O   0  0  0  0  0  0  0  0  0  0  0  0
   55.5210   29.7020   44.8690 O   0  0  0  0  0  0  0  0  0  0  0  0
   57.9200   30.8780   44.9750 C   0  0  0  0  0  0  0  0  0  0  0  0
   57.9370   32.2790   44.9630 C   0  0  0  0  0  0  0  0  0  0  0  0
   58.8920   32.9780   45.7080 C   0  0  0  0  0  0  0  0  0  0  0  0
   59.8400   32.2830   46.4740 C   0  0  0  0  0  0  0  0  0  0  0  0
   60.8270   33.0030   47.2340 N   0  0  0  0  0  0  0  0  0  0  0  0
   62.2370   32.5910   47.1440 C   0  0  0  0  0  0  0  0  0  0  0  0
   63.1830   33.7020   47.6170 C   0  0  0  0  0  0  0  0  0  0  0  0
   62.7960   34.1590   49.0240 C   0  0  0  0  0  0  0  0  0  0  0  0
   61.4090   34.6030   49.0430 N   0  0  0  0  0  0  0  0  0  0  0  0
   60.4250   33.9760   48.2190 C   0  0  0  0  0  0  0  0  0  0  0  0
   59.2180   34.3250   48.3250 O   0  0  0  0  0  0  0  0  0  0  0  0
   59.8270   30.8790   46.4770 C   0  0  0  0  0  0  0  0  0  0  0  0
   58.8720   30.1820   45.7310 C   0  0  0  0  0  0  0  0  0  0  0  0
   56.6550   27.9700   43.0140 H   0  0  0  0  0  0  0  0  0  0  0  0
   58.1020   28.7630   42.7100 H   0  0  0  0  0  0  0  0  0  0  0  0
   57.1966   32.8310   44.3655 H   0  0  0  0  0  0  0  0  0  0  0  0
   58.9000   34.0779   45.6934 H   0  0  0  0  0  0  0  0  0  0  0  0
   62.3894   31.7012   47.7725 H   0  0  0  0  0  0  0  0  0  0  0  0
   62.4642   32.3722   46.0902 H   0  0  0  0  0  0  0  0  0  0  0  0
   64.2146   33.3204   47.6294 H   0  0  0  0  0  0  0  0  0  0  0  0
   63.1077   34.5561   46.9279 H   0  0  0  0  0  0  0  0  0  0  0  0
   62.9191   33.3206   49.7254 H   0  0  0  0  0  0  0  0  0  0  0  0
   63.4455   34.9953   49.3220 H   0  0  0  0  0  0  0  0  0  0  0  0
   60.5710   30.3254   47.0686 H   0  0  0  0  0  0  0  0  0  0  0  0
   58.8681   29.0820   45.7377 H   0  0  0  0  0  0  0  0  0  0  0  0
  1  2  1  0
  2  3  2  0
  2  4  2  0
  2  5  1  0
  5  6  2  0
  6  7  1  0
  7  8  2  0
  8  9  1  0
  9 10  1  0
 10 11  1  0
 11 12  1  0
 12 13  1  0
 13 14  1  0
 14 15  2  0
  8 16  1  0
 16 17  2  0
 17  5  1  0
 14  9  1  0
  1 18  1  0
  1 19  1  0
  6 20  1  0
  7 21  1  0
 10 22  1  0
 10 23  1  0
 11 24  1  0
 11 25  1  0
 12 26  1  0
 12 27  1  0
 16 28  1  0
 17 29  1  0
M  CHG  1  13  -1
M  END
>  <UniqueID>  (24) 
21

>  <SMILES>  (24) 
NS(=O)(=O)c1ccc(N2CCC[N-]C2=O)cc1

>  <Energy>  (24) 
30.92455275414843

>  <Genealogy>  (24) 
NS(=O)(=O)c1ccc(N2CCC[N-]C2=O)cc1 (protonated)
NS(=O)(=O)c1ccc(N2CCC[N-]C2=O)cc1 (3D coordinates assigned)
NS(=O)(=O)c1ccc(N2CCC[N-]C2=O)cc1 (nonaromatic ring conformer: 30.92455275414843 kcal/mol)

>  <smiles>  (24) 
NS(=O)(=O)c1ccc(N2CCCNC2=O)cc1

>  <score_type>  (24) 
oracle

>  <origin>  (24) 
adg

>  <m_score__min__energy>  (24) 
-8.0600000000000005

>  <m_primary>  (24) 
energy

$$$$
24:0
     RDKit          3D

 47 50  0  0  0  0  0  0  0  0999 V2000
   60.9140   34.2180   48.2130 C   0  0  0  0  0  0  0  0  0  0  0  0
   59.7090   34.5950   47.7880 C   0  0  0  0  0  0  0  0  0  0  0  0
   58.9580   33.8420   46.7600 C   0  0  0  0  0  0  0  0  0  0  0  0
   58.4970   34.5550   45.6440 C   0  0  0  0  0  0  0  0  0  0  0  0
   57.7340   33.9240   44.6630 C   0  0  0  0  0  0  0  0  0  0  0  0
   57.4260   32.5710   44.7790 C   0  0  0  0  0  0  0  0  0  0  0  0
   57.8910   31.8250   45.8740 C   0  0  0  0  0  0  0  0  0  0  0  0
   57.6390   30.4120   45.9290 N   0  0  0  0  0  0  0  0  0  0  0  0
   58.6880   29.4280   45.9180 C   0  0  0  0  0  0  0  0  0  0  0  0
   59.8920   29.7970   45.8440 O   0  0  0  0  0  0  0  0  0  0  0  0
   58.3850   27.9790   45.9890 C   0  0  0  0  0  0  0  0  0  0  0  0
   58.6200   27.2720   47.1820 C   0  0  0  0  0  0  0  0  0  0  0  0
   58.3420   25.9050   47.2660 C   0  0  0  0  0  0  0  0  0  0  0  0
   57.8480   25.2100   46.1480 C   0  0  0  0  0  0  0  0  0  0  0  0
   57.5160   23.8130   46.2000 N   0  0  0  0  0  0  0  0  0  0  0  0
   56.7950   23.2210   47.1080 C   0  0  0  0  0  0  0  0  0  0  0  0
   57.3100   22.2440   47.8970 N   0  0  0  0  0  0  0  0  0  0  0  0
   56.2720   21.9430   48.6940 C   0  0  0  0  0  0  0  0  0  0  0  0
   56.2270   20.9960   49.7100 C   0  0  0  0  0  0  0  0  0  0  0  0
   55.0220   20.8560   50.4230 C   0  0  0  0  0  0  0  0  0  0  0  0
   53.8930   21.6650   50.1100 C   0  0  0  0  0  0  0  0  0  0  0  0
   52.6640   21.5200   50.8440 N   0  0  0  0  0  0  0  0  0  0  0  0
   51.9150   22.5010   51.0320 O   0  0  0  0  0  0  0  0  0  0  0  0
   52.2920   20.2940   51.3470 O   0  0  0  0  0  0  0  0  0  0  0  0
   53.9900   22.6160   49.0670 C   0  0  0  0  0  0  0  0  0  0  0  0
   55.2000   22.7200   48.3850 C   0  0  0  0  0  0  0  0  0  0  0  0
   55.5030   23.5520   47.3780 N   0  0  0  0  0  0  0  0  0  0  0  0
   57.5970   25.9150   44.9650 C   0  0  0  0  0  0  0  0  0  0  0  0
   57.8750   27.2820   44.8780 C   0  0  0  0  0  0  0  0  0  0  0  0
   58.6840   32.4520   46.8630 C   0  0  0  0  0  0  0  0  0  0  0  0
   59.2290   31.6740   47.9410 N   0  0  0  0  0  0  0  0  0  0  0  0
   61.4364   34.8088   48.9798 H   0  0  0  0  0  0  0  0  0  0  0  0
   61.3865   33.3159   47.7971 H   0  0  0  0  0  0  0  0  0  0  0  0
   59.2555   35.5003   48.2177 H   0  0  0  0  0  0  0  0  0  0  0  0
   58.7400   35.6230   45.5418 H   0  0  0  0  0  0  0  0  0  0  0  0
   57.3743   34.4962   43.7951 H   0  0  0  0  0  0  0  0  0  0  0  0
   56.8135   32.0827   44.0067 H   0  0  0  0  0  0  0  0  0  0  0  0
   56.6440   30.1030   45.9960 H   0  0  0  0  0  0  0  0  0  0  0  0
   59.0265   27.8001   48.0572 H   0  0  0  0  0  0  0  0  0  0  0  0
   58.5106   25.3697   48.2121 H   0  0  0  0  0  0  0  0  0  0  0  0
   57.1040   20.3765   49.9489 H   0  0  0  0  0  0  0  0  0  0  0  0
   54.9515   20.1132   51.2313 H   0  0  0  0  0  0  0  0  0  0  0  0
   53.1345   23.2548   48.8023 H   0  0  0  0  0  0  0  0  0  0  0  0
   57.1770   25.3881   44.0955 H   0  0  0  0  0  0  0  0  0  0  0  0
   57.6938   27.8170   43.9341 H   0  0  0  0  0  0  0  0  0  0  0  0
   59.7560   30.7920   47.7650 H   0  0  0  0  0  0  0  0  0  0  0  0
   59.0740   31.9400   48.9390 H   0  0  0  0  0  0  0  0  0  0  0  0
  1  2  2  0
  2  3  1  0
  3  4  2  0
  4  5  1  0
  5  6  2  0
  6  7  1  0
  7  8  1  0
  8  9  1  0
  9 10  2  0
  9 11  1  0
 11 12  2  0
 12 13  1  0
 13 14  2  0
 14 15  1  0
 15 16  2  3
 16 17  1  0
 17 18  1  0
 18 19  2  0
 19 20  1  0
 20 21  2  0
 21 22  1  0
 22 23  2  0
 22 24  1  0
 21 25  1  0
 25 26  2  0
 26 27  1  0
 14 28  1  0
 28 29  2  0
  7 30  2  0
 30 31  1  0
 30  3  1  0
 29 11  1  0
 27 16  1  0
 26 18  1  0
  1 32  1  0
  1 33  1  0
  2 34  1  0
  4 35  1  0
  5 36  1  0
  6 37  1  0
  8 38  1  0
 12 39  1  0
 13 40  1  0
 19 41  1  0
 20 42  1  0
 25 43  1  0
 28 44  1  0
 29 45  1  0
 31 46  1  0
 31 47  1  0
M  CHG  4  17  -1  22   1  24  -1  27  -1
M  END
>  <UniqueID>  (25) 
22

>  <SMILES>  (25) 
C=Cc1cccc(NC(=O)c2ccc(N=c3[n-]c4ccc([N+](=O)[O-])cc4[n-]3)cc2)c1N

>  <Energy>  (25) 
107.89013147262787

>  <Genealogy>  (25) 
C=Cc1cccc(NC(=O)c2ccc(N=c3[n-]c4ccc([N+](=O)[O-])cc4[n-]3)cc2)c1N (protonated)
C=Cc1cccc(NC(=O)c2ccc(N=c3[n-]c4ccc([N+](=O)[O-])cc4[n-]3)cc2)c1N (3D coordinates assigned)
C=Cc1cccc(NC(=O)c2ccc(N=c3[n-]c4ccc([N+](=O)[O-])cc4[n-]3)cc2)c1N (optimized conformer: 107.89013147262787 kcal/mol)

>  <smiles>  (25) 
C=Cc1cccc(NC(=O)c2ccc(N=c3[nH]c4ccc([N+](=O)[O-])cc4[nH]3)cc2)c1N

>  <score_type>  (25) 
oracle

>  <origin>  (25) 
adg

>  <m_score__min__energy>  (25) 
-10.01

>  <m_primary>  (25) 
energy

$$$$
25:0
     RDKit          3D

 55 57  0  0  0  0  0  0  0  0999 V2000
   59.9580   35.3310   47.1210 C   0  0  0  0  0  0  0  0  0  0  0  0
   59.2200   34.3030   46.3150 C   0  0  0  0  0  0  0  0  0  0  0  0
   58.4850   33.2970   46.9620 C   0  0  0  0  0  0  0  0  0  0  0  0
   57.7720   32.3540   46.2140 C   0  0  0  0  0  0  0  0  0  0  0  0
   57.7540   32.4250   44.8110 C   0  0  0  0  0  0  0  0  0  0  0  0
   57.0210   31.4110   44.0250 C   0  0  0  0  0  0  0  0  0  0  0  0
   57.4580   31.0740   42.8910 O   0  0  0  0  0  0  0  0  0  0  0  0
   55.8250   30.7890   44.5140 N   0  0  0  0  0  0  0  0  0  0  0  0
   55.5700   29.3500   44.4950 C   0  0  0  0  0  0  0  0  0  0  0  0
   56.8800   28.5570   44.6210 C   0  0  0  0  0  0  0  0  0  0  0  0
   56.9010   27.6920   45.8590 C   0  0  0  0  0  0  0  0  0  0  0  0
   56.0120   26.8110   46.0030 O   0  0  0  0  0  0  0  0  0  0  0  0
   57.9690   27.7450   46.8170 N   0  0  0  0  0  0  0  0  0  0  0  0
   58.9460   28.7810   46.9860 C   0  0  0  0  0  0  0  0  0  0  0  0
   59.7790   29.1010   45.9090 C   0  0  0  0  0  0  0  0  0  0  0  0
   60.7710   30.0760   46.0460 C   0  0  0  0  0  0  0  0  0  0  0  0
   60.9550   30.7260   47.2720 C   0  0  0  0  0  0  0  0  0  0  0  0
   62.2140   31.9490   47.4220 S   0  0  0  0  0  0  0  0  0  0  0  0
   63.5310   31.3230   47.0560 O   0  0  0  0  0  0  0  0  0  0  0  0
   61.9420   33.0970   46.4890 O   0  0  0  0  0  0  0  0  0  0  0  0
   62.2620   32.5230   49.0700 N   0  0  0  0  0  0  0  0  0  0  0  0
   61.0290   33.2650   49.3800 C   0  0  0  0  0  0  0  0  0  0  0  0
   60.9560   33.5800   50.8870 C   0  0  0  0  0  0  0  0  0  0  0  0
   62.3450   33.6310   51.5420 C   0  0  0  0  0  0  0  0  0  0  0  0
   63.3870   34.1960   50.5740 C   0  0  0  0  0  0  0  0  0  0  0  0
   63.4590   33.3670   49.2730 C   0  0  0  0  0  0  0  0  0  0  0  0
   60.1440   30.3860   48.3660 C   0  0  0  0  0  0  0  0  0  0  0  0
   59.1520   29.4100   48.2260 C   0  0  0  0  0  0  0  0  0  0  0  0
   58.4940   33.4290   44.1660 C   0  0  0  0  0  0  0  0  0  0  0  0
   59.2130   34.3680   44.9130 C   0  0  0  0  0  0  0  0  0  0  0  0
   59.8134   35.1296   48.1927 H   0  0  0  0  0  0  0  0  0  0  0  0
   61.0304   35.2847   46.8806 H   0  0  0  0  0  0  0  0  0  0  0  0
   59.5712   36.3323   46.8806 H   0  0  0  0  0  0  0  0  0  0  0  0
   58.4697   33.2501   48.0609 H   0  0  0  0  0  0  0  0  0  0  0  0
   57.2219   31.5518   46.7277 H   0  0  0  0  0  0  0  0  0  0  0  0
   54.9101   29.0905   45.3359 H   0  0  0  0  0  0  0  0  0  0  0  0
   55.0942   29.0910   43.5376 H   0  0  0  0  0  0  0  0  0  0  0  0
   56.9920   27.9133   43.7361 H   0  0  0  0  0  0  0  0  0  0  0  0
   57.7076   29.2778   44.6961 H   0  0  0  0  0  0  0  0  0  0  0  0
   59.6525   28.5818   44.9475 H   0  0  0  0  0  0  0  0  0  0  0  0
   61.4091   30.3334   45.1878 H   0  0  0  0  0  0  0  0  0  0  0  0
   61.0203   34.2070   48.8120 H   0  0  0  0  0  0  0  0  0  0  0  0
   60.1618   32.6480   49.1020 H   0  0  0  0  0  0  0  0  0  0  0  0
   60.4662   34.5558   51.0207 H   0  0  0  0  0  0  0  0  0  0  0  0
   60.3859   32.7735   51.3713 H   0  0  0  0  0  0  0  0  0  0  0  0
   62.2985   34.2719   52.4348 H   0  0  0  0  0  0  0  0  0  0  0  0
   62.6406   32.6079   51.8173 H   0  0  0  0  0  0  0  0  0  0  0  0
   63.1169   35.2324   50.3230 H   0  0  0  0  0  0  0  0  0  0  0  0
   64.3710   34.1556   51.0640 H   0  0  0  0  0  0  0  0  0  0  0  0
   63.5529   34.0561   48.4208 H   0  0  0  0  0  0  0  0  0  0  0  0
   64.3289   32.6983   49.3515 H   0  0  0  0  0  0  0  0  0  0  0  0
   60.2887   30.8875   49.3342 H   0  0  0  0  0  0  0  0  0  0  0  0
   58.5302   29.1334   49.0902 H   0  0  0  0  0  0  0  0  0  0  0  0
   58.5084   33.4774   43.0672 H   0  0  0  0  0  0  0  0  0  0  0  0
   59.7757   35.1613   44.3991 H   0  0  0  0  0  0  0  0  0  0  0  0
  1  2  1  0
  2  3  2  0
  3  4  1  0
  4  5  2  0
  5  6  1  0
  6  7  2  0
  6  8  1  0
  8  9  1  0
  9 10  1  0
 10 11  1  0
 11 12  2  0
 11 13  1  0
 13 14  1  0
 14 15  2  0
 15 16  1  0
 16 17  2  0
 17 18  1  0
 18 19  2  0
 18 20  2  0
 18 21  1  0
 21 22  1  0
 22 23  1  0
 23 24  1  0
 24 25  1  0
 25 26  1  0
 17 27  1  0
 27 28  2  0
  5 29  1  0
 29 30  2  0
 30  2  1  0
 28 14  1  0
 26 21  1  0
  1 31  1  0
  1 32  1  0
  1 33  1  0
  3 34  1  0
  4 35  1  0
  9 36  1  0
  9 37  1  0
 10 38  1  0
 10 39  1  0
 15 40  1  0
 16 41  1  0
 22 42  1  0
 22 43  1  0
 23 44  1  0
 23 45  1  0
 24 46  1  0
 24 47  1  0
 25 48  1  0
 25 49  1  0
 26 50  1  0
 26 51  1  0
 27 52  1  0
 28 53  1  0
 29 54  1  0
 30 55  1  0
M  CHG  2   8  -1  13  -1
M  END
>  <UniqueID>  (26) 
23

>  <SMILES>  (26) 
Cc1ccc(C(=O)[N-]CCC(=O)[N-]c2ccc(S(=O)(=O)N3CCCCC3)cc2)cc1

>  <Energy>  (26) 
65.72020636979097

>  <Genealogy>  (26) 
Cc1ccc(C(=O)[N-]CCC(=O)[N-]c2ccc(S(=O)(=O)N3CCCCC3)cc2)cc1 (protonated)
Cc1ccc(C(=O)[N-]CCC(=O)[N-]c2ccc(S(=O)(=O)N3CCCCC3)cc2)cc1 (3D coordinates assigned)
Cc1ccc(C(=O)[N-]CCC(=O)[N-]c2ccc(S(=O)(=O)N3CCCCC3)cc2)cc1 (nonaromatic ring conformer: 65.72020636979097 kcal/mol)

>  <smiles>  (26) 
Cc1ccc(C(=O)NCCC(=O)Nc2ccc(S(=O)(=O)N3CCCCC3)cc2)cc1

>  <score_type>  (26) 
oracle

>  <origin>  (26) 
adg

>  <m_score__min__energy>  (26) 
-13.84

>  <m_primary>  (26) 
energy

$$$$
26:0
     RDKit          3D

 41 43  0  0  0  0  0  0  0  0999 V2000
   55.3100   30.0810   44.4780 O   0  0  0  0  0  0  0  0  0  0  0  0
   56.6130   30.1150   43.7290 S   0  0  0  0  0  0  0  0  0  0  0  0
   56.4080   29.5250   42.3630 O   0  0  0  0  0  0  0  0  0  0  0  0
   57.1290   31.7620   43.5640 N   0  0  0  0  0  0  0  0  0  0  0  0
   57.7340   32.5450   44.6010 C   0  0  0  0  0  0  0  0  0  0  0  0
   57.4440   32.3420   45.9610 C   0  0  0  0  0  0  0  0  0  0  0  0
   58.0630   33.1250   46.9390 C   0  0  0  0  0  0  0  0  0  0  0  0
   58.9770   34.1280   46.5800 C   0  0  0  0  0  0  0  0  0  0  0  0
   59.6020   34.9090   47.6150 N   0  0  0  0  0  0  0  0  0  0  0  0
   60.3700   34.2330   49.0190 S   0  0  0  0  0  0  0  0  0  0  0  0
   59.5420   34.5640   50.2290 O   0  0  0  0  0  0  0  0  0  0  0  0
   61.7290   34.8560   49.1710 O   0  0  0  0  0  0  0  0  0  0  0  0
   60.5010   32.4740   48.8830 C   0  0  0  0  0  0  0  0  0  0  0  0
   59.6350   31.6570   49.6290 C   0  0  0  0  0  0  0  0  0  0  0  0
   59.7150   30.2660   49.5340 C   0  0  0  0  0  0  0  0  0  0  0  0
   60.6650   29.6760   48.7000 C   0  0  0  0  0  0  0  0  0  0  0  0
   61.5430   30.4750   47.9650 C   0  0  0  0  0  0  0  0  0  0  0  0
   61.4720   31.8710   48.0530 C   0  0  0  0  0  0  0  0  0  0  0  0
   62.6280   32.8210   47.1260 Cl  0  0  0  0  0  0  0  0  0  0  0  0
   59.2660   34.3270   45.2170 C   0  0  0  0  0  0  0  0  0  0  0  0
   58.6470   33.5430   44.2410 C   0  0  0  0  0  0  0  0  0  0  0  0
   57.8400   29.1770   44.5750 C   0  0  0  0  0  0  0  0  0  0  0  0
   57.4740   28.0340   45.2990 C   0  0  0  0  0  0  0  0  0  0  0  0
   58.4480   27.2850   45.9670 C   0  0  0  0  0  0  0  0  0  0  0  0
   59.7880   27.6770   45.9190 C   0  0  0  0  0  0  0  0  0  0  0  0
   60.1570   28.8180   45.2010 C   0  0  0  0  0  0  0  0  0  0  0  0
   59.1860   29.5690   44.5320 C   0  0  0  0  0  0  0  0  0  0  0  0
   56.7262   31.5629   46.2571 H   0  0  0  0  0  0  0  0  0  0  0  0
   57.8317   32.9537   48.0007 H   0  0  0  0  0  0  0  0  0  0  0  0
   59.6310   35.9490   47.5170 H   0  0  0  0  0  0  0  0  0  0  0  0
   58.8881   32.1166   50.2931 H   0  0  0  0  0  0  0  0  0  0  0  0
   59.0283   29.6350   50.1173 H   0  0  0  0  0  0  0  0  0  0  0  0
   60.7224   28.5803   48.6214 H   0  0  0  0  0  0  0  0  0  0  0  0
   62.2946   30.0055   47.3133 H   0  0  0  0  0  0  0  0  0  0  0  0
   59.9840   35.1050   44.9186 H   0  0  0  0  0  0  0  0  0  0  0  0
   58.8792   33.7114   43.1791 H   0  0  0  0  0  0  0  0  0  0  0  0
   56.4190   27.7256   45.3419 H   0  0  0  0  0  0  0  0  0  0  0  0
   58.1586   26.3860   46.5310 H   0  0  0  0  0  0  0  0  0  0  0  0
   60.5527   27.0877   46.4463 H   0  0  0  0  0  0  0  0  0  0  0  0
   61.2125   29.1254   45.1623 H   0  0  0  0  0  0  0  0  0  0  0  0
   59.4781   30.4689   43.9709 H   0  0  0  0  0  0  0  0  0  0  0  0
  1  2  2  0
  2  3  2  0
  2  4  1  0
  4  5  1  0
  5  6  2  0
  6  7  1  0
  7  8  2  0
  8  9  1  0
  9 10  1  0
 10 11  2  0
 10 12  2  0
 10 13  1  0
 13 14  2  0
 14 15  1  0
 15 16  2  0
 16 17  1  0
 17 18  2  0
 18 19  1  0
  8 20  1  0
 20 21  2  0
  2 22  1  0
 22 23  2  0
 23 24  1  0
 24 25  2  0
 25 26  1  0
 26 27  2  0
 21  5  1  0
 27 22  1  0
 18 13  1  0
  6 28  1  0
  7 29  1  0
  9 30  1  0
 14 31  1  0
 15 32  1  0
 16 33  1  0
 17 34  1  0
 20 35  1  0
 21 36  1  0
 23 37  1  0
 24 38  1  0
 25 39  1  0
 26 40  1  0
 27 41  1  0
M  CHG  1   4  -1
M  END
>  <UniqueID>  (27) 
24

>  <SMILES>  (27) 
O=S(=O)([N-]c1ccc(NS(=O)(=O)c2ccccc2Cl)cc1)c1ccccc1

>  <Energy>  (27) 
51.462889675462506

>  <Genealogy>  (27) 
O=S(=O)([N-]c1ccc(NS(=O)(=O)c2ccccc2Cl)cc1)c1ccccc1 (protonated)
O=S(=O)([N-]c1ccc(NS(=O)(=O)c2ccccc2Cl)cc1)c1ccccc1 (3D coordinates assigned)
O=S(=O)([N-]c1ccc(NS(=O)(=O)c2ccccc2Cl)cc1)c1ccccc1 (optimized conformer: 51.462889675462506 kcal/mol)

>  <smiles>  (27) 
O=S(=O)(Nc1ccc(NS(=O)(=O)c2ccccc2Cl)cc1)c1ccccc1

>  <score_type>  (27) 
oracle

>  <origin>  (27) 
adg

>  <m_score__min__energy>  (27) 
-11.32

>  <m_primary>  (27) 
energy

$$$$
27:0
     RDKit          3D

 37 38  0  0  0  0  0  0  0  0999 V2000
   62.1640   33.2880   47.1890 C   0  0  0  0  0  0  0  0  0  0  0  0
   62.4700   31.8470   47.4590 C   0  0  0  0  0  0  0  0  0  0  0  0
   63.5890   31.3860   47.1120 O   0  0  0  0  0  0  0  0  0  0  0  0
   61.5160   30.9630   48.0630 N   0  0  0  0  0  0  0  0  0  0  0  0
   60.4550   30.2610   47.3980 C   0  0  0  0  0  0  0  0  0  0  0  0
   60.2860   30.3260   46.0050 C   0  0  0  0  0  0  0  0  0  0  0  0
   59.2330   29.6430   45.3910 C   0  0  0  0  0  0  0  0  0  0  0  0
   58.3270   28.9050   46.1630 C   0  0  0  0  0  0  0  0  0  0  0  0
   57.0240   28.0020   45.3950 S   0  0  0  0  0  0  0  0  0  0  0  0
   57.5180   27.4250   44.0990 O   0  0  0  0  0  0  0  0  0  0  0  0
   56.5780   26.8720   46.2830 O   0  0  0  0  0  0  0  0  0  0  0  0
   55.6980   29.0750   45.0750 N   0  0  0  0  0  0  0  0  0  0  0  0
   55.8670   29.7150   43.7710 C   0  0  0  0  0  0  0  0  0  0  0  0
   56.7130   30.9490   43.9100 C   0  0  0  0  0  0  0  0  0  0  0  0
   57.5450   31.2270   43.0070 O   0  0  0  0  0  0  0  0  0  0  0  0
   56.6540   31.7750   45.0830 N   0  0  0  0  0  0  0  0  0  0  0  0
   57.4800   32.7200   45.4340 C   0  0  0  0  0  0  0  0  0  0  0  0
   58.1170   33.5640   44.5000 C   0  0  0  0  0  0  0  0  0  0  0  0
   58.9990   34.5470   44.9520 C   0  0  0  0  0  0  0  0  0  0  0  0
   59.2460   34.6900   46.3160 C   0  0  0  0  0  0  0  0  0  0  0  0
   58.6160   33.8290   47.2150 C   0  0  0  0  0  0  0  0  0  0  0  0
   57.7630   32.8730   46.7570 N   0  0  0  0  0  0  0  0  0  0  0  0
   58.4790   28.8610   47.5540 C   0  0  0  0  0  0  0  0  0  0  0  0
   59.5300   29.5480   48.1690 C   0  0  0  0  0  0  0  0  0  0  0  0
   62.0502   33.8237   48.1430 H   0  0  0  0  0  0  0  0  0  0  0  0
   62.9871   33.7359   46.6128 H   0  0  0  0  0  0  0  0  0  0  0  0
   61.2299   33.3628   46.6128 H   0  0  0  0  0  0  0  0  0  0  0  0
   60.9853   30.9169   45.3952 H   0  0  0  0  0  0  0  0  0  0  0  0
   59.1153   29.6851   44.2981 H   0  0  0  0  0  0  0  0  0  0  0  0
   56.3579   29.0126   43.0813 H   0  0  0  0  0  0  0  0  0  0  0  0
   54.8796   29.9967   43.3763 H   0  0  0  0  0  0  0  0  0  0  0  0
   57.9201   33.4483   43.4240 H   0  0  0  0  0  0  0  0  0  0  0  0
   59.4997   35.2095   44.2306 H   0  0  0  0  0  0  0  0  0  0  0  0
   59.9291   35.4719   46.6793 H   0  0  0  0  0  0  0  0  0  0  0  0
   58.8089   33.9230   48.2939 H   0  0  0  0  0  0  0  0  0  0  0  0
   57.7693   28.2841   48.1651 H   0  0  0  0  0  0  0  0  0  0  0  0
   59.6303   29.5280   49.2642 H   0  0  0  0  0  0  0  0  0  0  0  0
  1  2  1  0
  2  3  2  0
  2  4  1  0
  4  5  1  0
  5  6  2  0
  6  7  1  0
  7  8  2  0
  8  9  1  0
  9 10  2  0
  9 11  2  0
  9 12  1  0
 12 13  1  0
 13 14  1  0
 14 15  2  0
 14 16  1  0
 16 17  2  3
 17 18  1  0
 18 19  2  0
 19 20  1  0
 20 21  2  0
 21 22  1  0
  8 23  1  0
 23 24  2  0
 24  5  1  0
 22 17  1  0
  1 25  1  0
  1 26  1  0
  1 27  1  0
  6 28  1  0
  7 29  1  0
 13 30  1  0
 13 31  1  0
 18 32  1  0
 19 33  1  0
 20 34  1  0
 21 35  1  0
 23 36  1  0
 24 37  1  0
M  CHG  3   4  -1  12  -1  22  -1
M  END
>  <UniqueID>  (28) 
25

>  <SMILES>  (28) 
CC(=O)[N-]c1ccc(S(=O)(=O)[N-]CC(=O)N=c2cccc[n-]2)cc1

>  <Energy>  (28) 
45.95250145250611

>  <Genealogy>  (28) 
CC(=O)[N-]c1ccc(S(=O)(=O)[N-]CC(=O)N=c2cccc[n-]2)cc1 (protonated)
CC(=O)[N-]c1ccc(S(=O)(=O)[N-]CC(=O)N=c2cccc[n-]2)cc1 (3D coordinates assigned)
CC(=O)[N-]c1ccc(S(=O)(=O)[N-]CC(=O)N=c2cccc[n-]2)cc1 (optimized conformer: 45.95250145250611 kcal/mol)

>  <smiles>  (28) 
CC(=O)Nc1ccc(S(=O)(=O)NCC(=O)N=c2cccc[nH]2)cc1

>  <score_type>  (28) 
oracle

>  <origin>  (28) 
adg

>  <m_score__min__energy>  (28) 
-11.85

>  <m_primary>  (28) 
energy

$$$$
28:0
     RDKit          3D

 46 48  0  0  0  0  0  0  0  0999 V2000
   55.1340   29.7120   43.7510 C   0  0  0  0  0  0  0  0  0  0  0  0
   55.7260   29.2130   44.9470 O   0  0  0  0  0  0  0  0  0  0  0  0
   57.0980   29.2780   45.2420 C   0  0  0  0  0  0  0  0  0  0  0  0
   57.8820   28.1200   45.4080 C   0  0  0  0  0  0  0  0  0  0  0  0
   59.2450   28.2270   45.6950 C   0  0  0  0  0  0  0  0  0  0  0  0
   59.8390   29.4850   45.8180 C   0  0  0  0  0  0  0  0  0  0  0  0
   59.0690   30.6400   45.6590 C   0  0  0  0  0  0  0  0  0  0  0  0
   57.7020   30.5410   45.3780 C   0  0  0  0  0  0  0  0  0  0  0  0
   56.9250   31.7320   45.2510 N   0  0  0  0  0  0  0  0  0  0  0  0
   57.6930   33.2670   45.0340 S   0  0  0  0  0  0  0  0  0  0  0  0
   58.3870   33.3010   43.7020 O   0  0  0  0  0  0  0  0  0  0  0  0
   56.6510   34.3500   45.0610 O   0  0  0  0  0  0  0  0  0  0  0  0
   58.8530   33.5340   46.3300 C   0  0  0  0  0  0  0  0  0  0  0  0
   58.4740   33.3550   47.6650 C   0  0  0  0  0  0  0  0  0  0  0  0
   59.4210   33.4600   48.6870 C   0  0  0  0  0  0  0  0  0  0  0  0
   60.7710   33.7450   48.3920 C   0  0  0  0  0  0  0  0  0  0  0  0
   61.8210   33.8130   49.4540 C   0  0  0  0  0  0  0  0  0  0  0  0
   62.1470   34.9480   49.9040 O   0  0  0  0  0  0  0  0  0  0  0  0
   62.5100   32.6240   49.9330 N   0  0  0  0  0  0  0  0  0  0  0  0
   63.8340   32.9310   50.5370 C   0  0  0  0  0  0  0  0  0  0  0  0
   64.9890   32.8420   49.5180 C   0  0  0  0  0  0  0  0  0  0  0  0
   64.5240   33.0930   48.2110 O   0  0  0  0  0  0  0  0  0  0  0  0
   63.6760   32.0400   47.7860 C   0  0  0  0  0  0  0  0  0  0  0  0
   62.6360   31.6210   48.8530 C   0  0  0  0  0  0  0  0  0  0  0  0
   61.1340   33.9370   47.0440 C   0  0  0  0  0  0  0  0  0  0  0  0
   60.1850   33.8310   46.0250 C   0  0  0  0  0  0  0  0  0  0  0  0
   54.3160   30.4015   44.0068 H   0  0  0  0  0  0  0  0  0  0  0  0
   55.8933   30.2466   43.1614 H   0  0  0  0  0  0  0  0  0  0  0  0
   54.7356   28.8731   43.1614 H   0  0  0  0  0  0  0  0  0  0  0  0
   57.4191   27.1268   45.3113 H   0  0  0  0  0  0  0  0  0  0  0  0
   59.8516   27.3186   45.8244 H   0  0  0  0  0  0  0  0  0  0  0  0
   60.9133   29.5665   46.0401 H   0  0  0  0  0  0  0  0  0  0  0  0
   59.5389   31.6299   45.7550 H   0  0  0  0  0  0  0  0  0  0  0  0
   57.4256   33.1306   47.9111 H   0  0  0  0  0  0  0  0  0  0  0  0
   59.1107   33.3189   49.7329 H   0  0  0  0  0  0  0  0  0  0  0  0
   61.9380   32.2060   50.7020 H   0  0  0  0  0  0  0  0  0  0  0  0
   63.8052   33.9510   50.9479 H   0  0  0  0  0  0  0  0  0  0  0  0
   64.0235   32.1819   51.3199 H   0  0  0  0  0  0  0  0  0  0  0  0
   65.7565   33.5863   49.7769 H   0  0  0  0  0  0  0  0  0  0  0  0
   65.4125   31.8274   49.5528 H   0  0  0  0  0  0  0  0  0  0  0  0
   63.1380   32.3677   46.8842 H   0  0  0  0  0  0  0  0  0  0  0  0
   64.3149   31.1655   47.5936 H   0  0  0  0  0  0  0  0  0  0  0  0
   61.6573   31.5000   48.3657 H   0  0  0  0  0  0  0  0  0  0  0  0
   62.9767   30.6780   49.3053 H   0  0  0  0  0  0  0  0  0  0  0  0
   62.1781   34.1734   46.7912 H   0  0  0  0  0  0  0  0  0  0  0  0
   60.4866   33.9818   44.9779 H   0  0  0  0  0  0  0  0  0  0  0  0
  1  2  1  0
  2  3  1  0
  3  4  2  0
  4  5  1  0
  5  6  2  0
  6  7  1  0
  7  8  2  0
  8  9  1  0
  9 10  1  0
 10 11  2  0
 10 12  2  0
 10 13  1  0
 13 14  2  0
 14 15  1  0
 15 16  2  0
 16 17  1  0
 17 18  2  0
 17 19  1  0
 19 20  1  0
 20 21  1  0
 21 22  1  0
 22 23  1  0
 23 24  1  0
 16 25  1  0
 25 26  2  0
  8  3  1  0
 26 13  1  0
 24 19  1  0
  1 27  1  0
  1 28  1  0
  1 29  1  0
  4 30  1  0
  5 31  1  0
  6 32  1  0
  7 33  1  0
 14 34  1  0
 15 35  1  0
 19 36  1  0
 20 37  1  0
 20 38  1  0
 21 39  1  0
 21 40  1  0
 23 41  1  0
 23 42  1  0
 24 43  1  0
 24 44  1  0
 25 45  1  0
 26 46  1  0
M  CHG  2   9  -1  19   1
M  END
>  <UniqueID>  (29) 
26

>  <SMILES>  (29) 
COc1ccccc1[N-]S(=O)(=O)c1ccc(C(=O)[NH+]2CCOCC2)cc1

>  <Energy>  (29) 
70.84144878986301

>  <Genealogy>  (29) 
COc1ccccc1[N-]S(=O)(=O)c1ccc(C(=O)[NH+]2CCOCC2)cc1 (protonated)
COc1ccccc1[N-]S(=O)(=O)c1ccc(C(=O)[NH+]2CCOCC2)cc1 (3D coordinates assigned)
COc1ccccc1[N-]S(=O)(=O)c1ccc(C(=O)[NH+]2CCOCC2)cc1 (nonaromatic ring conformer: 70.84144878986301 kcal/mol)

>  <smiles>  (29) 
COc1ccccc1NS(=O)(=O)c1ccc(C(=O)N2CCOCC2)cc1

>  <score_type>  (29) 
oracle

>  <origin>  (29) 
adg

>  <m_score__min__energy>  (29) 
-9.25

>  <m_primary>  (29) 
energy

$$$$
29:0
     RDKit          3D

 37 39  0  0  0  0  0  0  0  0999 V2000
   54.6140   24.1650   45.3060 O   0  0  0  0  0  0  0  0  0  0  0  0
   55.1830   25.2240   45.6840 C   0  0  0  0  0  0  0  0  0  0  0  0
   54.3950   26.3280   45.9910 O   0  0  0  0  0  0  0  0  0  0  0  0
   56.6650   25.2840   45.7950 C   0  0  0  0  0  0  0  0  0  0  0  0
   57.4240   24.1280   45.5540 C   0  0  0  0  0  0  0  0  0  0  0  0
   58.8100   24.1620   45.6570 C   0  0  0  0  0  0  0  0  0  0  0  0
   59.4440   25.3530   45.9960 C   0  0  0  0  0  0  0  0  0  0  0  0
   58.7190   26.4880   46.2270 N   0  0  0  0  0  0  0  0  0  0  0  0
   59.4250   27.6990   46.5640 C   0  0  0  0  0  0  0  0  0  0  0  0
   59.9940   28.4930   45.5560 C   0  0  0  0  0  0  0  0  0  0  0  0
   60.6690   29.6730   45.8800 C   0  0  0  0  0  0  0  0  0  0  0  0
   60.7910   30.0780   47.2210 C   0  0  0  0  0  0  0  0  0  0  0  0
   61.4580   31.3120   47.5530 N   0  0  0  0  0  0  0  0  0  0  0  0
   60.6170   32.4280   47.1970 C   0  0  0  0  0  0  0  0  0  0  0  0
   61.1830   33.6130   46.6940 C   0  0  0  0  0  0  0  0  0  0  0  0
   60.3700   34.7050   46.3780 C   0  0  0  0  0  0  0  0  0  0  0  0
   58.9870   34.6270   46.5670 C   0  0  0  0  0  0  0  0  0  0  0  0
   58.4150   33.4570   47.0740 C   0  0  0  0  0  0  0  0  0  0  0  0
   59.2250   32.3620   47.3910 C   0  0  0  0  0  0  0  0  0  0  0  0
   60.2080   29.2890   48.2280 C   0  0  0  0  0  0  0  0  0  0  0  0
   59.5340   28.1100   47.9030 C   0  0  0  0  0  0  0  0  0  0  0  0
   57.3470   26.4740   46.1420 C   0  0  0  0  0  0  0  0  0  0  0  0
   56.6920   27.5250   46.3890 O   0  0  0  0  0  0  0  0  0  0  0  0
   56.9190   23.1894   45.2820 H   0  0  0  0  0  0  0  0  0  0  0  0
   59.4014   23.2532   45.4717 H   0  0  0  0  0  0  0  0  0  0  0  0
   60.5405   25.3813   46.0790 H   0  0  0  0  0  0  0  0  0  0  0  0
   59.9080   28.1843   44.5037 H   0  0  0  0  0  0  0  0  0  0  0  0
   61.1076   30.2888   45.0810 H   0  0  0  0  0  0  0  0  0  0  0  0
   61.6770   31.3380   48.5760 H   0  0  0  0  0  0  0  0  0  0  0  0
   62.3720   31.3740   47.0470 H   0  0  0  0  0  0  0  0  0  0  0  0
   62.2712   33.6808   46.5485 H   0  0  0  0  0  0  0  0  0  0  0  0
   60.8189   35.6270   45.9801 H   0  0  0  0  0  0  0  0  0  0  0  0
   58.3486   35.4871   46.3165 H   0  0  0  0  0  0  0  0  0  0  0  0
   57.3269   33.3974   47.2238 H   0  0  0  0  0  0  0  0  0  0  0  0
   58.7716   31.4444   47.7941 H   0  0  0  0  0  0  0  0  0  0  0  0
   60.2833   29.6027   49.2796 H   0  0  0  0  0  0  0  0  0  0  0  0
   59.0856   27.4992   48.7004 H   0  0  0  0  0  0  0  0  0  0  0  0
  1  2  2  0
  2  3  1  0
  2  4  1  0
  4  5  2  0
  5  6  1  0
  6  7  2  0
  7  8  1  0
  8  9  1  0
  9 10  2  0
 10 11  1  0
 11 12  2  0
 12 13  1  0
 13 14  1  0
 14 15  2  0
 15 16  1  0
 16 17  2  0
 17 18  1  0
 18 19  2  0
 12 20  1  0
 20 21  2  0
  8 22  1  0
 22 23  2  0
 22  4  1  0
 21  9  1  0
 19 14  1  0
  5 24  1  0
  6 25  1  0
  7 26  1  0
 10 27  1  0
 11 28  1  0
 13 29  1  0
 13 30  1  0
 15 31  1  0
 16 32  1  0
 17 33  1  0
 18 34  1  0
 19 35  1  0
 20 36  1  0
 21 37  1  0
M  CHG  2   3  -1  13   1
M  END
>  <UniqueID>  (30) 
27

>  <SMILES>  (30) 
O=C([O-])c1cccn(-c2ccc([NH2+]c3ccccc3)cc2)c1=O

>  <Energy>  (30) 
53.23920825933631

>  <Genealogy>  (30) 
O=C([O-])c1cccn(-c2ccc([NH2+]c3ccccc3)cc2)c1=O (protonated)
O=C([O-])c1cccn(-c2ccc([NH2+]c3ccccc3)cc2)c1=O (3D coordinates assigned)
O=C([O-])c1cccn(-c2ccc([NH2+]c3ccccc3)cc2)c1=O (optimized conformer: 53.23920825933631 kcal/mol)

>  <smiles>  (30) 
O=C(O)c1cccn(-c2ccc(Nc3ccccc3)cc2)c1=O

>  <score_type>  (30) 
oracle

>  <origin>  (30) 
adg

>  <m_score__min__energy>  (30) 
-8.1300000000000008

>  <m_primary>  (30) 
energy

$$$$
30:0
     RDKit          3D

 44 47  0  0  0  0  0  0  0  0999 V2000
   56.2310   31.2960   52.3530 C   0  0  0  0  0  0  0  0  0  0  0  0
   56.8610   30.4970   51.3560 O   0  0  0  0  0  0  0  0  0  0  0  0
   58.2480   30.4000   51.1800 C   0  0  0  0  0  0  0  0  0  0  0  0
   58.9310   29.3700   51.8370 C   0  0  0  0  0  0  0  0  0  0  0  0
   60.3150   29.2320   51.6950 C   0  0  0  0  0  0  0  0  0  0  0  0
   61.0280   30.1210   50.8890 C   0  0  0  0  0  0  0  0  0  0  0  0
   60.3580   31.1500   50.2110 C   0  0  0  0  0  0  0  0  0  0  0  0
   61.1160   32.0790   49.3500 C   0  0  0  0  0  0  0  0  0  0  0  0
   61.3260   33.3900   49.8060 C   0  0  0  0  0  0  0  0  0  0  0  0
   62.0450   34.3040   49.0340 C   0  0  0  0  0  0  0  0  0  0  0  0
   62.5700   33.9170   47.8020 C   0  0  0  0  0  0  0  0  0  0  0  0
   62.3820   32.6130   47.3380 C   0  0  0  0  0  0  0  0  0  0  0  0
   61.6570   31.6750   48.0990 C   0  0  0  0  0  0  0  0  0  0  0  0
   61.5250   30.3160   47.6140 N   0  0  0  0  0  0  0  0  0  0  0  0
   60.2390   30.1160   46.9890 C   0  0  0  0  0  0  0  0  0  0  0  0
   59.5840   31.1820   46.3490 C   0  0  0  0  0  0  0  0  0  0  0  0
   58.3320   30.9980   45.7580 C   0  0  0  0  0  0  0  0  0  0  0  0
   57.7160   29.7350   45.7820 C   0  0  0  0  0  0  0  0  0  0  0  0
   56.4520   29.5130   45.1980 C   0  0  0  0  0  0  0  0  0  0  0  0
   55.8260   30.4510   44.6350 O   0  0  0  0  0  0  0  0  0  0  0  0
   55.8950   28.2740   45.2390 N   0  0  0  0  0  0  0  0  0  0  0  0
   56.5180   27.2220   45.8310 C   0  0  0  0  0  0  0  0  0  0  0  0
   57.7700   27.3890   46.4220 C   0  0  0  0  0  0  0  0  0  0  0  0
   58.3790   28.6510   46.4030 C   0  0  0  0  0  0  0  0  0  0  0  0
   59.6360   28.8460   46.9950 C   0  0  0  0  0  0  0  0  0  0  0  0
   58.9710   31.2980   50.3700 C   0  0  0  0  0  0  0  0  0  0  0  0
   56.5183   30.9317   53.3504 H   0  0  0  0  0  0  0  0  0  0  0  0
   56.5494   32.3427   52.2392 H   0  0  0  0  0  0  0  0  0  0  0  0
   55.1389   31.2305   52.2392 H   0  0  0  0  0  0  0  0  0  0  0  0
   58.3744   28.6634   52.4702 H   0  0  0  0  0  0  0  0  0  0  0  0
   60.8428   28.4217   52.2192 H   0  0  0  0  0  0  0  0  0  0  0  0
   62.1179   30.0144   50.7853 H   0  0  0  0  0  0  0  0  0  0  0  0
   60.9203   33.6997   50.7804 H   0  0  0  0  0  0  0  0  0  0  0  0
   62.1975   35.3307   49.3982 H   0  0  0  0  0  0  0  0  0  0  0  0
   63.1335   34.6400   47.1940 H   0  0  0  0  0  0  0  0  0  0  0  0
   62.8049   32.3151   46.3672 H   0  0  0  0  0  0  0  0  0  0  0  0
   61.6160   29.6310   48.4010 H   0  0  0  0  0  0  0  0  0  0  0  0
   62.3070   30.1040   46.9540 H   0  0  0  0  0  0  0  0  0  0  0  0
   60.0625   32.1718   46.3131 H   0  0  0  0  0  0  0  0  0  0  0  0
   57.8260   31.8451   45.2718 H   0  0  0  0  0  0  0  0  0  0  0  0
   56.0331   26.2347   45.8443 H   0  0  0  0  0  0  0  0  0  0  0  0
   58.2757   26.5367   46.8994 H   0  0  0  0  0  0  0  0  0  0  0  0
   60.1539   27.9984   47.4676 H   0  0  0  0  0  0  0  0  0  0  0  0
   58.4461   32.1190   49.8597 H   0  0  0  0  0  0  0  0  0  0  0  0
  1  2  1  0
  2  3  1  0
  3  4  2  0
  4  5  1  0
  5  6  2  0
  6  7  1  0
  7  8  1  0
  8  9  2  0
  9 10  1  0
 10 11  2  0
 11 12  1  0
 12 13  2  0
 13 14  1  0
 14 15  1  0
 15 16  2  0
 16 17  1  0
 17 18  2  0
 18 19  1  0
 19 20  2  0
 19 21  1  0
 21 22  1  0
 22 23  2  0
 23 24  1  0
 24 25  2  0
  7 26  2  0
 26  3  1  0
 13  8  1  0
 25 15  1  0
 24 18  1  0
  1 27  1  0
  1 28  1  0
  1 29  1  0
  4 30  1  0
  5 31  1  0
  6 32  1  0
  9 33  1  0
 10 34  1  0
 11 35  1  0
 12 36  1  0
 14 37  1  0
 14 38  1  0
 16 39  1  0
 17 40  1  0
 22 41  1  0
 23 42  1  0
 25 43  1  0
 26 44  1  0
M  CHG  2  14   1  21  -1
M  END
>  <UniqueID>  (31) 
28

>  <SMILES>  (31) 
COc1cccc(-c2ccccc2[NH2+]c2ccc3c(=O)[n-]ccc3c2)c1

>  <Energy>  (31) 
62.11308497710699

>  <Genealogy>  (31) 
COc1cccc(-c2ccccc2[NH2+]c2ccc3c(=O)[n-]ccc3c2)c1 (protonated)
COc1cccc(-c2ccccc2[NH2+]c2ccc3c(=O)[n-]ccc3c2)c1 (3D coordinates assigned)
COc1cccc(-c2ccccc2[NH2+]c2ccc3c(=O)[n-]ccc3c2)c1 (optimized conformer: 62.11308497710699 kcal/mol)

>  <smiles>  (31) 
COc1cccc(-c2ccccc2Nc2ccc3c(=O)[nH]ccc3c2)c1

>  <score_type>  (31) 
oracle

>  <origin>  (31) 
adg

>  <m_score__min__energy>  (31) 
-8.0999999999999996

>  <m_primary>  (31) 
energy

$$$$
31:0
     RDKit          3D

 58 62  0  0  0  0  0  0  0  0999 V2000
   59.4710   29.7040   44.8200 C   0  0  0  0  0  0  0  0  0  0  0  0
   58.5740   30.3190   45.9360 C   0  0  2  0  0  0  0  0  0  0  0  0
   57.7760   29.1890   46.6730 C   0  0  0  0  0  0  0  0  0  0  0  0
   57.1550   28.0940   45.8010 C   0  0  0  0  0  0  0  0  0  0  0  0
   56.0800   28.6060   44.9630 N   0  0  0  0  0  0  0  0  0  0  0  0
   56.2520   29.6580   44.0110 C   0  0  0  0  0  0  0  0  0  0  0  0
   55.8630   29.4740   42.8270 O   0  0  0  0  0  0  0  0  0  0  0  0
   56.6630   31.0160   44.4080 C   0  0  0  0  0  0  0  0  0  0  0  0
   57.6320   31.3470   45.2900 C   0  0  0  0  0  0  0  0  0  0  0  0
   57.7760   32.8210   45.6380 C   0  0  0  0  0  0  0  0  0  0  0  0
   59.2340   33.3030   45.7600 C   0  0  0  0  0  0  0  0  0  0  0  0
   60.2220   32.2760   46.3770 C   0  0  2  0  0  0  0  0  0  0  0  0
   59.5090   31.0440   46.9920 C   0  0  1  0  0  0  0  0  0  0  0  0
   58.7930   31.4000   48.3340 C   0  0  0  0  0  0  0  0  0  0  0  0
   59.2080   32.7330   48.9820 C   0  0  0  0  0  0  0  0  0  0  0  0
   60.7020   33.0990   48.8270 C   0  0  1  0  0  0  0  0  0  0  0  0
   60.9090   34.5560   49.2890 C   0  0  0  0  0  0  0  0  0  0  0  0
   61.5850   32.1820   49.6330 C   0  0  0  0  0  0  0  0  0  0  0  0
   61.4720   31.9720   51.0520 N   0  0  0  0  0  0  0  0  0  0  0  0
   62.0950   32.8460   51.8990 C   0  0  0  0  0  0  0  0  0  0  0  0
   62.0090   32.6810   53.2830 C   0  0  0  0  0  0  0  0  0  0  0  0
   61.2630   31.6240   53.8010 C   0  0  0  0  0  0  0  0  0  0  0  0
   60.5950   30.7620   52.9350 C   0  0  0  0  0  0  0  0  0  0  0  0
   60.6950   30.9560   51.5530 C   0  0  0  0  0  0  0  0  0  0  0  0
   60.0490   30.1970   50.7800 O   0  0  0  0  0  0  0  0  0  0  0  0
   62.5540   31.6430   48.9210 C   0  0  0  0  0  0  0  0  0  0  0  0
   62.5250   32.0750   47.5050 C   0  0  0  0  0  0  0  0  0  0  0  0
   61.2350   32.9230   47.3680 C   0  0  1  0  0  0  0  0  0  0  0  0
   60.2946   29.1393   45.2812 H   0  0  0  0  0  0  0  0  0  0  0  0
   58.8679   29.0285   44.1955 H   0  0  0  0  0  0  0  0  0  0  0  0
   59.8837   30.5100   44.1955 H   0  0  0  0  0  0  0  0  0  0  0  0
   58.4658   28.7009   47.3772 H   0  0  0  0  0  0  0  0  0  0  0  0
   56.9217   29.7009   47.1400 H   0  0  0  0  0  0  0  0  0  0  0  0
   57.9370   27.6690   45.1546 H   0  0  0  0  0  0  0  0  0  0  0  0
   56.7301   27.3295   46.4681 H   0  0  0  0  0  0  0  0  0  0  0  0
   55.2380   27.9970   44.8530 H   0  0  0  0  0  0  0  0  0  0  0  0
   56.1232   31.8500   43.9358 H   0  0  0  0  0  0  0  0  0  0  0  0
   57.2827   33.4107   44.8513 H   0  0  0  0  0  0  0  0  0  0  0  0
   57.3146   32.9581   46.6271 H   0  0  0  0  0  0  0  0  0  0  0  0
   59.5935   33.5574   44.7520 H   0  0  0  0  0  0  0  0  0  0  0  0
   59.2149   34.1596   46.4498 H   0  0  0  0  0  0  0  0  0  0  0  0
   60.8157   31.9002   45.5307 H   0  0  0  0  0  0  0  0  0  0  0  0
   60.2785   30.3044   47.2582 H   0  0  0  0  0  0  0  0  0  0  0  0
   57.7113   31.4422   48.1385 H   0  0  0  0  0  0  0  0  0  0  0  0
   59.0887   30.6165   49.0472 H   0  0  0  0  0  0  0  0  0  0  0  0
   58.6110   33.5353   48.5238 H   0  0  0  0  0  0  0  0  0  0  0  0
   59.0306   32.6178   50.0615 H   0  0  0  0  0  0  0  0  0  0  0  0
   60.9145   34.5948   50.3883 H   0  0  0  0  0  0  0  0  0  0  0  0
   61.8693   34.9298   48.9041 H   0  0  0  0  0  0  0  0  0  0  0  0
   60.0908   35.1825   48.9041 H   0  0  0  0  0  0  0  0  0  0  0  0
   62.6700   33.6879   51.4859 H   0  0  0  0  0  0  0  0  0  0  0  0
   62.5255   33.3791   53.9583 H   0  0  0  0  0  0  0  0  0  0  0  0
   61.2021   31.4713   54.8886 H   0  0  0  0  0  0  0  0  0  0  0  0
   59.9922   29.9334   53.3351 H   0  0  0  0  0  0  0  0  0  0  0  0
   63.3015   30.9491   49.3329 H   0  0  0  0  0  0  0  0  0  0  0  0
   63.4122   32.6805   47.2677 H   0  0  0  0  0  0  0  0  0  0  0  0
   62.5316   31.2200   46.8130 H   0  0  0  0  0  0  0  0  0  0  0  0
   61.4196   33.9105   46.9200 H   0  0  0  0  0  0  0  0  0  0  0  0
  2  1  1  6
  2  3  1  0
  3  4  1  0
  4  5  1  0
  5  6  1  0
  6  7  2  0
  6  8  1  0
  8  9  2  0
  9 10  1  0
 10 11  1  0
 11 12  1  0
 12 13  1  0
 13 14  1  0
 14 15  1  0
 15 16  1  0
 16 17  1  1
 16 18  1  0
 18 19  1  0
 19 20  1  0
 20 21  2  0
 21 22  1  0
 22 23  2  0
 23 24  1  0
 24 25  2  0
 18 26  2  0
 26 27  1  0
 27 28  1  0
  9  2  1  0
 28 12  1  0
 13  2  1  0
 28 16  1  0
 24 19  1  0
  1 29  1  0
  1 30  1  0
  1 31  1  0
  3 32  1  0
  3 33  1  0
  4 34  1  0
  4 35  1  0
  5 36  1  0
  8 37  1  0
 10 38  1  0
 10 39  1  0
 11 40  1  0
 11 41  1  0
 12 42  1  6
 13 43  1  1
 14 44  1  0
 14 45  1  0
 15 46  1  0
 15 47  1  0
 17 48  1  0
 17 49  1  0
 17 50  1  0
 20 51  1  0
 21 52  1  0
 22 53  1  0
 23 54  1  0
 26 55  1  0
 27 56  1  0
 27 57  1  0
 28 58  1  6
M  END
>  <UniqueID>  (32) 
29

>  <SMILES>  (32) 
CC12CCC3[C@@H](CCC4=CC(=O)NCC[C@@]43C)C1CC=C2n1ccccc1=O

>  <Energy>  (32) 
107.69382664321775

>  <Genealogy>  (32) 
CC12CCC3[C@@H](CCC4=CC(=O)NCC[C@@]43C)C1CC=C2n1ccccc1=O (chirality)
CC12CCC3[C@@H](CCC4=CC(=O)NCC[C@@]43C)C1CC=C2n1ccccc1=O (3D coordinates assigned)
CC12CCC3[C@@H](CCC4=CC(=O)NCC[C@@]43C)C1CC=C2n1ccccc1=O (nonaromatic ring conformer: 107.69382664321775 kcal/mol)

>  <smiles>  (32) 
CC12CCNC(=O)C=C1CCC1C2CCC2(C)C(n3ccccc3=O)=CCC12

>  <score_type>  (32) 
oracle

>  <origin>  (32) 
adg

>  <m_score__min__energy>  (32) 
-7.3799999999999999

>  <m_primary>  (32) 
energy

$$$$
32:0
     RDKit          3D

 43 45  0  0  0  0  0  0  0  0999 V2000
   61.2180   31.9370   47.3810 O   0  0  0  0  0  0  0  0  0  0  0  0
   60.5750   31.6520   48.4280 C   0  0  0  0  0  0  0  0  0  0  0  0
   59.8020   32.6710   49.0850 N   0  0  0  0  0  0  0  0  0  0  0  0
   59.5130   33.9570   48.4540 C   0  0  0  0  0  0  0  0  0  0  0  0
   58.9530   33.7420   47.0750 C   0  0  0  0  0  0  0  0  0  0  0  0
   57.7840   32.9840   46.9010 C   0  0  0  0  0  0  0  0  0  0  0  0
   57.2740   32.7580   45.6190 C   0  0  0  0  0  0  0  0  0  0  0  0
   57.9310   33.2820   44.5010 C   0  0  0  0  0  0  0  0  0  0  0  0
   57.4370   33.0610   43.2580 F   0  0  0  0  0  0  0  0  0  0  0  0
   59.0990   34.0330   44.6660 C   0  0  0  0  0  0  0  0  0  0  0  0
   59.6120   34.2620   45.9460 C   0  0  0  0  0  0  0  0  0  0  0  0
   60.6400   30.2740   48.9700 C   0  0  0  0  0  0  0  0  0  0  0  0
   60.7600   30.0440   50.3520 C   0  0  0  0  0  0  0  0  0  0  0  0
   60.8100   28.7390   50.8490 C   0  0  0  0  0  0  0  0  0  0  0  0
   60.7380   27.6510   49.9780 C   0  0  0  0  0  0  0  0  0  0  0  0
   60.6100   27.8610   48.5950 C   0  0  0  0  0  0  0  0  0  0  0  0
   60.5350   26.7740   47.6610 N   0  0  0  0  0  0  0  0  0  0  0  0
   59.1000   26.2700   46.8290 S   0  0  0  0  0  0  0  0  0  0  0  0
   59.4350   25.1100   45.9340 O   0  0  0  0  0  0  0  0  0  0  0  0
   58.0750   25.8300   47.8360 O   0  0  0  0  0  0  0  0  0  0  0  0
   58.4430   27.6090   45.8930 C   0  0  0  0  0  0  0  0  0  0  0  0
   59.3000   28.5360   45.2820 C   0  0  0  0  0  0  0  0  0  0  0  0
   58.7700   29.6030   44.5500 C   0  0  0  0  0  0  0  0  0  0  0  0
   57.3860   29.7480   44.4230 C   0  0  0  0  0  0  0  0  0  0  0  0
   56.5270   28.8230   45.0270 C   0  0  0  0  0  0  0  0  0  0  0  0
   55.1510   28.9660   44.8980 O   0  0  0  0  0  0  0  0  0  0  0  0
   57.0540   27.7540   45.7590 C   0  0  0  0  0  0  0  0  0  0  0  0
   60.5550   29.1710   48.1010 C   0  0  0  0  0  0  0  0  0  0  0  0
   59.4600   32.5160   50.0600 H   0  0  0  0  0  0  0  0  0  0  0  0
   58.7789   34.5045   49.0635 H   0  0  0  0  0  0  0  0  0  0  0  0
   60.4440   34.5379   48.3779 H   0  0  0  0  0  0  0  0  0  0  0  0
   57.2670   32.5660   47.7774 H   0  0  0  0  0  0  0  0  0  0  0  0
   56.3550   32.1674   45.4895 H   0  0  0  0  0  0  0  0  0  0  0  0
   59.6154   34.4446   43.7863 H   0  0  0  0  0  0  0  0  0  0  0  0
   60.5331   34.8502   46.0708 H   0  0  0  0  0  0  0  0  0  0  0  0
   60.8148   30.8960   51.0456 H   0  0  0  0  0  0  0  0  0  0  0  0
   60.9065   28.5685   51.9314 H   0  0  0  0  0  0  0  0  0  0  0  0
   60.7816   26.6263   50.3755 H   0  0  0  0  0  0  0  0  0  0  0  0
   60.3900   28.4236   45.3787 H   0  0  0  0  0  0  0  0  0  0  0  0
   59.4440   30.3298   44.0731 H   0  0  0  0  0  0  0  0  0  0  0  0
   56.9717   30.5894   43.8482 H   0  0  0  0  0  0  0  0  0  0  0  0
   56.3780   27.0255   46.2306 H   0  0  0  0  0  0  0  0  0  0  0  0
   60.4439   29.3392   47.0196 H   0  0  0  0  0  0  0  0  0  0  0  0
  1  2  2  0
  2  3  1  0
  3  4  1  0
  4  5  1  0
  5  6  2  0
  6  7  1  0
  7  8  2  0
  8  9  1  0
  8 10  1  0
 10 11  2  0
  2 12  1  0
 12 13  2  0
 13 14  1  0
 14 15  2  0
 15 16  1  0
 16 17  1  0
 17 18  1  0
 18 19  2  0
 18 20  2  0
 18 21  1  0
 21 22  2  0
 22 23  1  0
 23 24  2  0
 24 25  1  0
 25 26  1  0
 25 27  2  0
 16 28  2  0
 11  5  1  0
 28 12  1  0
 27 21  1  0
  3 29  1  0
  4 30  1  0
  4 31  1  0
  6 32  1  0
  7 33  1  0
 10 34  1  0
 11 35  1  0
 13 36  1  0
 14 37  1  0
 15 38  1  0
 22 39  1  0
 23 40  1  0
 24 41  1  0
 27 42  1  0
 28 43  1  0
M  CHG  2  17  -1  26  -1
M  END
>  <UniqueID>  (33) 
30

>  <SMILES>  (33) 
O=C(NCc1ccc(F)cc1)c1cccc([N-]S(=O)(=O)c2cccc([O-])c2)c1

>  <Energy>  (33) 
48.84356962699673

>  <Genealogy>  (33) 
O=C(NCc1ccc(F)cc1)c1cccc([N-]S(=O)(=O)c2cccc([O-])c2)c1 (protonated)
O=C(NCc1ccc(F)cc1)c1cccc([N-]S(=O)(=O)c2cccc([O-])c2)c1 (3D coordinates assigned)
O=C(NCc1ccc(F)cc1)c1cccc([N-]S(=O)(=O)c2cccc([O-])c2)c1 (optimized conformer: 48.84356962699673 kcal/mol)

>  <smiles>  (33) 
O=C(NCc1ccc(F)cc1)c1cccc(NS(=O)(=O)c2cccc(O)c2)c1

>  <score_type>  (33) 
oracle

>  <origin>  (33) 
adg

>  <m_score__min__energy>  (33) 
-13.09

>  <m_primary>  (33) 
energy

$$$$
33:0
     RDKit          3D

 44 48  0  0  0  0  0  0  0  0999 V2000
   60.2070   27.5430   48.5090 O   0  0  0  0  0  0  0  0  0  0  0  0
   59.9580   28.5770   47.8290 C   0  0  0  0  0  0  0  0  0  0  0  0
   60.5890   29.7330   48.1250 N   0  0  0  0  0  0  0  0  0  0  0  0
   60.3070   30.8860   47.4490 C   0  0  0  0  0  0  0  0  0  0  0  0
   61.0370   32.0280   47.6970 N   0  0  0  0  0  0  0  0  0  0  0  0
   62.1650   32.0100   48.5940 C   0  0  0  0  0  0  0  0  0  0  0  0
   63.4400   32.3690   48.1320 C   0  0  0  0  0  0  0  0  0  0  0  0
   64.5340   32.3520   49.0040 C   0  0  0  0  0  0  0  0  0  0  0  0
   64.3580   31.9790   50.3410 C   0  0  0  0  0  0  0  0  0  0  0  0
   65.7300   31.9580   51.4330 Cl  0  0  0  0  0  0  0  0  0  0  0  0
   63.0860   31.6240   50.8070 C   0  0  0  0  0  0  0  0  0  0  0  0
   61.9930   31.6400   49.9370 C   0  0  0  0  0  0  0  0  0  0  0  0
   60.7400   33.1980   47.0580 C   0  0  0  0  0  0  0  0  0  0  0  0
   61.4570   34.2220   47.2480 O   0  0  0  0  0  0  0  0  0  0  0  0
   59.6300   33.2730   46.2130 C   0  0  0  0  0  0  0  0  0  0  0  0
   59.2540   34.4980   45.6230 C   0  0  0  0  0  0  0  0  0  0  0  0
   58.0820   34.5910   44.8800 C   0  0  0  0  0  0  0  0  0  0  0  0
   57.2550   33.4830   44.7480 C   0  0  0  0  0  0  0  0  0  0  0  0
   57.6220   32.2590   45.3120 C   0  0  0  0  0  0  0  0  0  0  0  0
   58.8600   32.1060   45.9930 C   0  0  0  0  0  0  0  0  0  0  0  0
   59.2920   30.8940   46.5120 N   0  0  0  0  0  0  0  0  0  0  0  0
   58.7870   29.6740   46.1020 C   0  0  0  0  0  0  0  0  0  0  0  0
   58.1200   29.5790   45.0320 O   0  0  0  0  0  0  0  0  0  0  0  0
   59.0750   28.5290   46.7940 N   0  0  0  0  0  0  0  0  0  0  0  0
   58.4660   27.2760   46.4160 C   0  0  0  0  0  0  0  0  0  0  0  0
   59.2650   26.1650   46.0930 C   0  0  0  0  0  0  0  0  0  0  0  0
   58.6720   24.9550   45.7230 C   0  0  0  0  0  0  0  0  0  0  0  0
   57.2800   24.8440   45.6710 C   0  0  0  0  0  0  0  0  0  0  0  0
   56.4770   25.9440   45.9890 C   0  0  0  0  0  0  0  0  0  0  0  0
   55.1270   25.8350   45.9390 F   0  0  0  0  0  0  0  0  0  0  0  0
   57.0680   27.1560   46.3600 C   0  0  0  0  0  0  0  0  0  0  0  0
   61.2890   29.7130   48.9010 H   0  0  0  0  0  0  0  0  0  0  0  0
   63.5800   32.6645   47.0817 H   0  0  0  0  0  0  0  0  0  0  0  0
   65.5329   32.6320   48.6383 H   0  0  0  0  0  0  0  0  0  0  0  0
   62.9474   31.3324   51.8586 H   0  0  0  0  0  0  0  0  0  0  0  0
   60.9946   31.3618   50.3056 H   0  0  0  0  0  0  0  0  0  0  0  0
   59.8917   35.3851   45.7514 H   0  0  0  0  0  0  0  0  0  0  0  0
   57.8102   35.5413   44.3973 H   0  0  0  0  0  0  0  0  0  0  0  0
   56.3069   33.5698   44.1969 H   0  0  0  0  0  0  0  0  0  0  0  0
   56.9414   31.3990   45.2277 H   0  0  0  0  0  0  0  0  0  0  0  0
   60.3611   26.2487   46.1317 H   0  0  0  0  0  0  0  0  0  0  0  0
   59.3018   24.0887   45.4723 H   0  0  0  0  0  0  0  0  0  0  0  0
   56.8154   23.8905   45.3797 H   0  0  0  0  0  0  0  0  0  0  0  0
   56.4344   28.0199   46.6093 H   0  0  0  0  0  0  0  0  0  0  0  0
  1  2  2  0
  2  3  1  0
  3  4  2  0
  4  5  1  0
  5  6  1  0
  6  7  2  0
  7  8  1  0
  8  9  2  0
  9 10  1  0
  9 11  1  0
 11 12  2  0
  5 13  1  0
 13 14  2  0
 13 15  1  0
 15 16  2  0
 16 17  1  0
 17 18  2  0
 18 19  1  0
 19 20  2  0
 20 21  1  0
 21 22  1  0
 22 23  2  0
 22 24  1  0
 24 25  1  0
 25 26  2  0
 26 27  1  0
 27 28  2  0
 28 29  1  0
 29 30  1  0
 29 31  2  0
 24  2  1  0
 31 25  1  0
 21  4  1  0
 12  6  1  0
 20 15  1  0
  3 32  1  0
  7 33  1  0
  8 34  1  0
 11 35  1  0
 12 36  1  0
 16 37  1  0
 17 38  1  0
 18 39  1  0
 19 40  1  0
 26 41  1  0
 27 42  1  0
 28 43  1  0
 31 44  1  0
M  CHG  1   3   1
M  END
>  <UniqueID>  (34) 
31

>  <SMILES>  (34) 
O=c1[nH+]c2n(-c3ccc(Cl)cc3)c(=O)c3ccccc3n2c(=O)n1-c1cccc(F)c1

>  <Energy>  (34) 
96.1083880929192

>  <Genealogy>  (34) 
O=c1[nH+]c2n(-c3ccc(Cl)cc3)c(=O)c3ccccc3n2c(=O)n1-c1cccc(F)c1 (protonated)
O=c1[nH+]c2n(-c3ccc(Cl)cc3)c(=O)c3ccccc3n2c(=O)n1-c1cccc(F)c1 (3D coordinates assigned)
O=c1[nH+]c2n(-c3ccc(Cl)cc3)c(=O)c3ccccc3n2c(=O)n1-c1cccc(F)c1 (optimized conformer: 96.1083880929192 kcal/mol)

>  <smiles>  (34) 
O=c1nc2n(-c3ccc(Cl)cc3)c(=O)c3ccccc3n2c(=O)n1-c1cccc(F)c1

>  <score_type>  (34) 
oracle

>  <origin>  (34) 
adg

>  <m_score__min__energy>  (34) 
-7.3600000000000003

>  <m_primary>  (34) 
energy

$$$$
34:0
     RDKit          3D

 35 36  0  0  0  0  0  0  0  0999 V2000
   56.3790   24.3850   44.5000 C   0  0  0  0  0  0  0  0  0  0  0  0
   55.3610   24.9870   45.8300 S   0  0  0  0  0  0  0  0  0  0  0  0
   55.8380   24.3760   47.1170 O   0  0  0  0  0  0  0  0  0  0  0  0
   53.9260   24.5960   45.6110 O   0  0  0  0  0  0  0  0  0  0  0  0
   55.4950   26.7120   45.9490 N   0  0  0  0  0  0  0  0  0  0  0  0
   56.7180   27.4620   45.9300 C   0  0  0  0  0  0  0  0  0  0  0  0
   56.8440   28.5100   45.0110 C   0  0  0  0  0  0  0  0  0  0  0  0
   58.0110   29.2760   44.9630 C   0  0  0  0  0  0  0  0  0  0  0  0
   59.0780   29.0020   45.8360 C   0  0  0  0  0  0  0  0  0  0  0  0
   60.2630   29.8250   45.8250 N   0  0  0  0  0  0  0  0  0  0  0  0
   60.2220   30.8410   46.8910 C   0  0  0  0  0  0  0  0  0  0  0  0
   59.6690   32.1610   46.3930 C   0  0  0  0  0  0  0  0  0  0  0  0
   58.3350   32.2110   45.9530 C   0  0  0  0  0  0  0  0  0  0  0  0
   57.7720   33.4150   45.5240 C   0  0  0  0  0  0  0  0  0  0  0  0
   58.5330   34.5840   45.5320 C   0  0  0  0  0  0  0  0  0  0  0  0
   59.8580   34.5530   45.9710 C   0  0  0  0  0  0  0  0  0  0  0  0
   60.4340   33.3520   46.4040 C   0  0  0  0  0  0  0  0  0  0  0  0
   62.1070   33.3910   46.9540 Cl  0  0  0  0  0  0  0  0  0  0  0  0
   58.9550   27.9460   46.7540 C   0  0  0  0  0  0  0  0  0  0  0  0
   57.7860   27.1800   46.8000 C   0  0  0  0  0  0  0  0  0  0  0  0
   57.2558   23.8665   44.9152 H   0  0  0  0  0  0  0  0  0  0  0  0
   55.7980   23.6851   43.8814 H   0  0  0  0  0  0  0  0  0  0  0  0
   56.7124   25.2313   43.8814 H   0  0  0  0  0  0  0  0  0  0  0  0
   56.0170   28.7323   44.3206 H   0  0  0  0  0  0  0  0  0  0  0  0
   58.0955   30.0986   44.2376 H   0  0  0  0  0  0  0  0  0  0  0  0
   61.1030   29.2180   45.9740 H   0  0  0  0  0  0  0  0  0  0  0  0
   60.3810   30.2870   44.8930 H   0  0  0  0  0  0  0  0  0  0  0  0
   59.5836   30.4736   47.7080 H   0  0  0  0  0  0  0  0  0  0  0  0
   61.2516   31.0122   47.2383 H   0  0  0  0  0  0  0  0  0  0  0  0
   57.7287   31.2932   45.9465 H   0  0  0  0  0  0  0  0  0  0  0  0
   56.7277   33.4414   45.1795 H   0  0  0  0  0  0  0  0  0  0  0  0
   58.0888   35.5312   45.1921 H   0  0  0  0  0  0  0  0  0  0  0  0
   60.4535   35.4779   45.9768 H   0  0  0  0  0  0  0  0  0  0  0  0
   59.7837   27.7201   47.4412 H   0  0  0  0  0  0  0  0  0  0  0  0
   57.7015   26.3529   47.5202 H   0  0  0  0  0  0  0  0  0  0  0  0
  1  2  1  0
  2  3  2  0
  2  4  2  0
  2  5  1  0
  5  6  1  0
  6  7  2  0
  7  8  1  0
  8  9  2  0
  9 10  1  0
 10 11  1  0
 11 12  1  0
 12 13  2  0
 13 14  1  0
 14 15  2  0
 15 16  1  0
 16 17  2  0
 17 18  1  0
  9 19  1  0
 19 20  2  0
 20  6  1  0
 17 12  1  0
  1 21  1  0
  1 22  1  0
  1 23  1  0
  7 24  1  0
  8 25  1  0
 10 26  1  0
 10 27  1  0
 11 28  1  0
 11 29  1  0
 13 30  1  0
 14 31  1  0
 15 32  1  0
 16 33  1  0
 19 34  1  0
 20 35  1  0
M  CHG  2   5  -1  10   1
M  END
>  <UniqueID>  (35) 
32

>  <SMILES>  (35) 
CS(=O)(=O)[N-]c1ccc([NH2+]Cc2ccccc2Cl)cc1

>  <Energy>  (35) 
35.30137415987623

>  <Genealogy>  (35) 
CS(=O)(=O)[N-]c1ccc([NH2+]Cc2ccccc2Cl)cc1 (protonated)
CS(=O)(=O)[N-]c1ccc([NH2+]Cc2ccccc2Cl)cc1 (3D coordinates assigned)
CS(=O)(=O)[N-]c1ccc([NH2+]Cc2ccccc2Cl)cc1 (optimized conformer: 35.30137415987623 kcal/mol)

>  <smiles>  (35) 
CS(=O)(=O)Nc1ccc(NCc2ccccc2Cl)cc1

>  <score_type>  (35) 
oracle

>  <origin>  (35) 
adg

>  <m_score__min__energy>  (35) 
-7.9100000000000001

>  <m_primary>  (35) 
energy

$$$$
35:0
     RDKit          3D

 49 52  0  0  0  0  0  0  0  0999 V2000
   56.8760   28.9730   43.2970 O   0  0  0  0  0  0  0  0  0  0  0  0
   57.0490   29.7360   44.2840 C   0  0  0  0  0  0  0  0  0  0  0  0
   56.9860   31.2210   44.0820 C   0  0  0  0  0  0  0  0  0  0  0  0
   57.1470   31.9010   45.3290 O   0  0  0  0  0  0  0  0  0  0  0  0
   58.0020   32.9900   45.5840 C   0  0  0  0  0  0  0  0  0  0  0  0
   58.3730   33.9060   44.5780 C   0  0  0  0  0  0  0  0  0  0  0  0
   59.2240   34.9730   44.8670 C   0  0  0  0  0  0  0  0  0  0  0  0
   59.7250   35.1490   46.1540 C   0  0  0  0  0  0  0  0  0  0  0  0
   59.3800   34.2510   47.1720 C   0  0  0  0  0  0  0  0  0  0  0  0
   59.8770   34.4300   48.4710 C   0  0  0  0  0  0  0  0  0  0  0  0
   59.5260   33.5370   49.4860 C   0  0  0  0  0  0  0  0  0  0  0  0
   58.6760   32.4630   49.2140 C   0  0  0  0  0  0  0  0  0  0  0  0
   58.1710   32.2740   47.9270 C   0  0  0  0  0  0  0  0  0  0  0  0
   58.5160   33.1600   46.8880 C   0  0  0  0  0  0  0  0  0  0  0  0
   57.2550   29.1890   45.5960 N   0  0  0  0  0  0  0  0  0  0  0  0
   57.7290   27.8520   45.8470 C   0  0  0  0  0  0  0  0  0  0  0  0
   57.0510   26.7320   45.3250 C   0  0  0  0  0  0  0  0  0  0  0  0
   57.5440   25.4410   45.5360 C   0  0  0  0  0  0  0  0  0  0  0  0
   58.7240   25.2500   46.2560 C   0  0  0  0  0  0  0  0  0  0  0  0
   59.4220   26.3520   46.7590 C   0  0  0  0  0  0  0  0  0  0  0  0
   58.9360   27.6530   46.5530 C   0  0  0  0  0  0  0  0  0  0  0  0
   59.6730   28.7760   47.0610 N   0  0  0  0  0  0  0  0  0  0  0  0
   59.5750   29.1090   48.4820 C   0  0  0  0  0  0  0  0  0  0  0  0
   60.8150   29.9020   48.9090 C   0  0  0  0  0  0  0  0  0  0  0  0
   61.0100   31.0130   48.0570 O   0  0  0  0  0  0  0  0  0  0  0  0
   61.3270   30.5640   46.7510 C   0  0  0  0  0  0  0  0  0  0  0  0
   60.1530   29.7950   46.1290 C   0  0  0  0  0  0  0  0  0  0  0  0
   57.7890   31.5278   43.3956 H   0  0  0  0  0  0  0  0  0  0  0  0
   56.0054   31.4820   43.6574 H   0  0  0  0  0  0  0  0  0  0  0  0
   57.9877   33.7779   43.5557 H   0  0  0  0  0  0  0  0  0  0  0  0
   59.5013   35.6807   44.0719 H   0  0  0  0  0  0  0  0  0  0  0  0
   60.3932   35.9952   46.3718 H   0  0  0  0  0  0  0  0  0  0  0  0
   60.5449   35.2758   48.6912 H   0  0  0  0  0  0  0  0  0  0  0  0
   59.9204   33.6802   50.5028 H   0  0  0  0  0  0  0  0  0  0  0  0
   58.4034   31.7631   50.0176 H   0  0  0  0  0  0  0  0  0  0  0  0
   57.4990   31.4274   47.7226 H   0  0  0  0  0  0  0  0  0  0  0  0
   56.9820   29.7770   46.4110 H   0  0  0  0  0  0  0  0  0  0  0  0
   56.1262   26.8749   44.7468 H   0  0  0  0  0  0  0  0  0  0  0  0
   57.0004   24.5735   45.1335 H   0  0  0  0  0  0  0  0  0  0  0  0
   59.1049   24.2325   46.4278 H   0  0  0  0  0  0  0  0  0  0  0  0
   60.3564   26.1990   47.3188 H   0  0  0  0  0  0  0  0  0  0  0  0
   58.6743   29.7163   48.6548 H   0  0  0  0  0  0  0  0  0  0  0  0
   59.5120   28.1825   49.0716 H   0  0  0  0  0  0  0  0  0  0  0  0
   60.6799   30.2569   49.9414 H   0  0  0  0  0  0  0  0  0  0  0  0
   61.6958   29.2462   48.8456 H   0  0  0  0  0  0  0  0  0  0  0  0
   61.5613   31.4336   46.1195 H   0  0  0  0  0  0  0  0  0  0  0  0
   62.1920   29.8875   46.8153 H   0  0  0  0  0  0  0  0  0  0  0  0
   59.3362   30.4966   45.9041 H   0  0  0  0  0  0  0  0  0  0  0  0
   60.4911   29.3069   45.2030 H   0  0  0  0  0  0  0  0  0  0  0  0
  1  2  2  0
  2  3  1  0
  3  4  1  0
  4  5  1  0
  5  6  2  0
  6  7  1  0
  7  8  2  0
  8  9  1  0
  9 10  2  0
 10 11  1  0
 11 12  2  0
 12 13  1  0
 13 14  2  0
  2 15  1  0
 15 16  1  0
 16 17  2  0
 17 18  1  0
 18 19  2  0
 19 20  1  0
 20 21  2  0
 21 22  1  0
 22 23  1  0
 23 24  1  0
 24 25  1  0
 25 26  1  0
 26 27  1  0
 14  5  1  0
 21 16  1  0
 27 22  1  0
 14  9  1  0
  3 28  1  0
  3 29  1  0
  6 30  1  0
  7 31  1  0
  8 32  1  0
 10 33  1  0
 11 34  1  0
 12 35  1  0
 13 36  1  0
 15 37  1  0
 17 38  1  0
 18 39  1  0
 19 40  1  0
 20 41  1  0
 23 42  1  0
 23 43  1  0
 24 44  1  0
 24 45  1  0
 26 46  1  0
 26 47  1  0
 27 48  1  0
 27 49  1  0
M  END
>  <UniqueID>  (36) 
33

>  <SMILES>  (36) 
O=C(COc1cccc2ccccc12)Nc1ccccc1N1CCOCC1

>  <Energy>  (36) 
65.75313617609058

>  <Genealogy>  (36) 
O=C(COc1cccc2ccccc12)Nc1ccccc1N1CCOCC1 (3D coordinates assigned)
O=C(COc1cccc2ccccc12)Nc1ccccc1N1CCOCC1 (nonaromatic ring conformer: 65.75313617609058 kcal/mol)

>  <smiles>  (36) 
O=C(COc1cccc2ccccc12)Nc1ccccc1N1CCOCC1

>  <score_type>  (36) 
oracle

>  <origin>  (36) 
adg

>  <m_score__min__energy>  (36) 
-7.7199999999999998

>  <m_primary>  (36) 
energy

$$$$
36:0
     RDKit          3D

 39 41  0  0  0  0  0  0  0  0999 V2000
   56.5910   30.1050   43.4710 C   0  0  0  0  0  0  0  0  0  0  0  0
   56.6500   30.2480   44.8870 O   0  0  0  0  0  0  0  0  0  0  0  0
   57.8030   30.6060   45.6020 C   0  0  0  0  0  0  0  0  0  0  0  0
   58.7920   29.6660   45.9470 C   0  0  0  0  0  0  0  0  0  0  0  0
   59.9250   30.0600   46.6590 C   0  0  0  0  0  0  0  0  0  0  0  0
   60.0970   31.3980   47.0440 C   0  0  0  0  0  0  0  0  0  0  0  0
   61.3040   31.8140   47.8040 C   0  0  0  0  0  0  0  0  0  0  0  0
   61.5010   31.3810   49.1260 C   0  0  0  0  0  0  0  0  0  0  0  0
   62.6370   31.7710   49.8400 C   0  0  0  0  0  0  0  0  0  0  0  0
   63.6030   32.6040   49.2510 C   0  0  0  0  0  0  0  0  0  0  0  0
   64.8020   33.0100   50.0260 C   0  0  0  0  0  0  0  0  0  0  0  0
   64.7540   33.4300   51.3080 N   0  0  0  0  0  0  0  0  0  0  0  0
   65.9880   33.6860   51.6340 O   0  0  0  0  0  0  0  0  0  0  0  0
   66.7750   33.4440   50.6150 C   0  0  0  0  0  0  0  0  0  0  0  0
   68.2570   33.6040   50.6320 C   0  0  0  0  0  0  0  0  0  0  0  0
   66.0680   33.0050   49.5600 N   0  0  0  0  0  0  0  0  0  0  0  0
   63.4050   33.0390   47.9280 C   0  0  0  0  0  0  0  0  0  0  0  0
   62.2690   32.6470   47.2140 C   0  0  0  0  0  0  0  0  0  0  0  0
   59.1110   32.3390   46.6980 C   0  0  0  0  0  0  0  0  0  0  0  0
   57.9640   31.9490   45.9790 C   0  0  0  0  0  0  0  0  0  0  0  0
   56.9630   32.8650   45.6190 O   0  0  0  0  0  0  0  0  0  0  0  0
   57.2040   34.2100   45.2190 C   0  0  0  0  0  0  0  0  0  0  0  0
   56.1826   29.1152   43.2191 H   0  0  0  0  0  0  0  0  0  0  0  0
   55.9422   30.8873   43.0502 H   0  0  0  0  0  0  0  0  0  0  0  0
   57.6027   30.2021   43.0502 H   0  0  0  0  0  0  0  0  0  0  0  0
   58.6707   28.6130   45.6531 H   0  0  0  0  0  0  0  0  0  0  0  0
   60.6905   29.3148   46.9210 H   0  0  0  0  0  0  0  0  0  0  0  0
   60.7543   30.7292   49.6031 H   0  0  0  0  0  0  0  0  0  0  0  0
   62.7764   31.4222   50.8739 H   0  0  0  0  0  0  0  0  0  0  0  0
   68.6098   33.6421   51.6732 H   0  0  0  0  0  0  0  0  0  0  0  0
   68.7238   32.7510   50.1177 H   0  0  0  0  0  0  0  0  0  0  0  0
   68.5310   34.5369   50.1177 H   0  0  0  0  0  0  0  0  0  0  0  0
   66.4350   32.7290   48.6230 H   0  0  0  0  0  0  0  0  0  0  0  0
   64.1502   33.6929   47.4514 H   0  0  0  0  0  0  0  0  0  0  0  0
   62.1293   32.9943   46.1797 H   0  0  0  0  0  0  0  0  0  0  0  0
   59.2367   33.3915   46.9921 H   0  0  0  0  0  0  0  0  0  0  0  0
   57.3175   34.8432   46.1113 H   0  0  0  0  0  0  0  0  0  0  0  0
   58.1244   34.2546   44.6183 H   0  0  0  0  0  0  0  0  0  0  0  0
   56.3563   34.5714   44.6183 H   0  0  0  0  0  0  0  0  0  0  0  0
  1  2  1  0
  2  3  1  0
  3  4  2  0
  4  5  1  0
  5  6  2  0
  6  7  1  0
  7  8  2  0
  8  9  1  0
  9 10  2  0
 10 11  1  0
 11 12  2  0
 12 13  1  0
 13 14  1  0
 14 15  1  0
 14 16  2  0
 10 17  1  0
 17 18  2  0
  6 19  1  0
 19 20  2  0
 20 21  1  0
 21 22  1  0
 20  3  1  0
 18  7  1  0
 16 11  1  0
  1 23  1  0
  1 24  1  0
  1 25  1  0
  4 26  1  0
  5 27  1  0
  8 28  1  0
  9 29  1  0
 15 30  1  0
 15 31  1  0
 15 32  1  0
 16 33  1  0
 17 34  1  0
 18 35  1  0
 19 36  1  0
 22 37  1  0
 22 38  1  0
 22 39  1  0
M  CHG  1  16   1
M  END
>  <UniqueID>  (37) 
34

>  <SMILES>  (37) 
COc1ccc(-c2ccc(-c3noc(C)[nH+]3)cc2)cc1OC

>  <Energy>  (37) 
80.2895230723352

>  <Genealogy>  (37) 
COc1ccc(-c2ccc(-c3noc(C)[nH+]3)cc2)cc1OC (protonated)
COc1ccc(-c2ccc(-c3noc(C)[nH+]3)cc2)cc1OC (3D coordinates assigned)
COc1ccc(-c2ccc(-c3noc(C)[nH+]3)cc2)cc1OC (optimized conformer: 80.2895230723352 kcal/mol)

>  <smiles>  (37) 
COc1ccc(-c2ccc(-c3noc(C)n3)cc2)cc1OC

>  <score_type>  (37) 
oracle

>  <origin>  (37) 
adg

>  <m_score__min__energy>  (37) 
-5.5899999999999999

>  <m_primary>  (37) 
energy

$$$$
37:0
     RDKit          3D

 49 51  0  0  0  0  0  0  0  0999 V2000
   55.1460   29.2670   44.8710 N   0  0  0  0  0  0  0  0  0  0  0  0
   56.8720   29.3140   44.9500 S   0  0  0  0  0  0  0  0  0  0  0  0
   57.3030   28.9940   46.3540 O   0  0  0  0  0  0  0  0  0  0  0  0
   57.4380   28.2920   44.0050 O   0  0  0  0  0  0  0  0  0  0  0  0
   57.4670   30.9110   44.5050 C   0  0  0  0  0  0  0  0  0  0  0  0
   57.6680   31.2220   43.1570 C   0  0  0  0  0  0  0  0  0  0  0  0
   58.1340   32.4870   42.7900 C   0  0  0  0  0  0  0  0  0  0  0  0
   58.3930   33.4490   43.7670 C   0  0  0  0  0  0  0  0  0  0  0  0
   58.1840   33.1590   45.1260 C   0  0  0  0  0  0  0  0  0  0  0  0
   58.4530   34.1780   46.1060 N   0  0  0  0  0  0  0  0  0  0  0  0
   59.7020   34.0710   47.3070 S   0  0  0  0  0  0  0  0  0  0  0  0
   60.9730   34.6480   46.7460 O   0  0  0  0  0  0  0  0  0  0  0  0
   59.2990   34.8690   48.5150 O   0  0  0  0  0  0  0  0  0  0  0  0
   59.9350   32.3940   47.7860 C   0  0  0  0  0  0  0  0  0  0  0  0
   60.8850   31.6060   47.1260 C   0  0  0  0  0  0  0  0  0  0  0  0
   61.0880   30.2780   47.5110 C   0  0  0  0  0  0  0  0  0  0  0  0
   60.3310   29.7180   48.5540 C   0  0  0  0  0  0  0  0  0  0  0  0
   60.5490   28.3670   48.9910 N   0  0  0  0  0  0  0  0  0  0  0  0
   61.0560   27.9940   50.2840 C   0  0  0  0  0  0  0  0  0  0  0  0
   61.9800   29.0520   51.1470 S   0  0  0  0  0  0  0  0  0  0  0  0
   60.7890   26.6630   50.7630 N   0  0  0  0  0  0  0  0  0  0  0  0
   61.5470   25.9490   51.7620 C   0  0  0  0  0  0  0  0  0  0  0  0
   62.5240   26.5010   52.3370 O   0  0  0  0  0  0  0  0  0  0  0  0
   61.2020   24.5540   52.1260 C   0  0  0  0  0  0  0  0  0  0  0  0
   62.1880   23.6470   52.5590 C   0  0  0  0  0  0  0  0  0  0  0  0
   61.8410   22.3380   52.9050 C   0  0  0  0  0  0  0  0  0  0  0  0
   60.5100   21.9200   52.8290 C   0  0  0  0  0  0  0  0  0  0  0  0
   60.0810   20.2740   53.2570 Cl  0  0  0  0  0  0  0  0  0  0  0  0
   59.5210   22.8150   52.4140 C   0  0  0  0  0  0  0  0  0  0  0  0
   59.8610   24.1270   52.0700 C   0  0  0  0  0  0  0  0  0  0  0  0
   59.3960   30.5180   49.2280 C   0  0  0  0  0  0  0  0  0  0  0  0
   59.1900   31.8450   48.8390 C   0  0  0  0  0  0  0  0  0  0  0  0
   57.7240   31.8780   45.4870 C   0  0  0  0  0  0  0  0  0  0  0  0
   54.7930   29.3500   45.8490 H   0  0  0  0  0  0  0  0  0  0  0  0
   57.4587   30.4688   42.3832 H   0  0  0  0  0  0  0  0  0  0  0  0
   58.2971   32.7251   41.7285 H   0  0  0  0  0  0  0  0  0  0  0  0
   58.7635   34.4416   43.4712 H   0  0  0  0  0  0  0  0  0  0  0  0
   57.8640   35.0410   46.1160 H   0  0  0  0  0  0  0  0  0  0  0  0
   61.4740   32.0336   46.3012 H   0  0  0  0  0  0  0  0  0  0  0  0
   61.8441   29.6681   46.9950 H   0  0  0  0  0  0  0  0  0  0  0  0
   60.3830   27.6000   48.3010 H   0  0  0  0  0  0  0  0  0  0  0  0
   59.9740   26.1800   50.3250 H   0  0  0  0  0  0  0  0  0  0  0  0
   63.2373   23.9704   52.6254 H   0  0  0  0  0  0  0  0  0  0  0  0
   62.6183   21.6346   53.2382 H   0  0  0  0  0  0  0  0  0  0  0  0
   58.4726   22.4870   52.3577 H   0  0  0  0  0  0  0  0  0  0  0  0
   59.0763   24.8300   51.7537 H   0  0  0  0  0  0  0  0  0  0  0  0
   58.8217   30.0987   50.0673 H   0  0  0  0  0  0  0  0  0  0  0  0
   58.4415   32.4597   49.3604 H   0  0  0  0  0  0  0  0  0  0  0  0
   57.5651   31.6341   46.5478 H   0  0  0  0  0  0  0  0  0  0  0  0
  1  2  1  0
  2  3  2  0
  2  4  2  0
  2  5  1  0
  5  6  2  0
  6  7  1  0
  7  8  2  0
  8  9  1  0
  9 10  1  0
 10 11  1  0
 11 12  2  0
 11 13  2  0
 11 14  1  0
 14 15  2  0
 15 16  1  0
 16 17  2  0
 17 18  1  0
 18 19  1  0
 19 20  2  0
 19 21  1  0
 21 22  1  0
 22 23  2  0
 22 24  1  0
 24 25  2  0
 25 26  1  0
 26 27  2  0
 27 28  1  0
 27 29  1  0
 29 30  2  0
 17 31  1  0
 31 32  2  0
  9 33  2  0
 33  5  1  0
 32 14  1  0
 30 24  1  0
  1 34  1  0
  6 35  1  0
  7 36  1  0
  8 37  1  0
 10 38  1  0
 15 39  1  0
 16 40  1  0
 18 41  1  0
 21 42  1  0
 25 43  1  0
 26 44  1  0
 29 45  1  0
 30 46  1  0
 31 47  1  0
 32 48  1  0
 33 49  1  0
M  CHG  1   1  -1
M  END
>  <UniqueID>  (38) 
35

>  <SMILES>  (38) 
[NH-]S(=O)(=O)c1cccc(NS(=O)(=O)c2ccc(NC(=S)NC(=O)c3ccc(Cl)cc3)cc2)c1

>  <Energy>  (38) 
65.3273769793593

>  <Genealogy>  (38) 
[NH-]S(=O)(=O)c1cccc(NS(=O)(=O)c2ccc(NC(=S)NC(=O)c3ccc(Cl)cc3)cc2)c1 (protonated)
[NH-]S(=O)(=O)c1cccc(NS(=O)(=O)c2ccc(NC(=S)NC(=O)c3ccc(Cl)cc3)cc2)c1 (3D coordinates assigned)
[NH-]S(=O)(=O)c1cccc(NS(=O)(=O)c2ccc(NC(=S)NC(=O)c3ccc(Cl)cc3)cc2)c1 (optimized conformer: 65.3273769793593 kcal/mol)

>  <smiles>  (38) 
NS(=O)(=O)c1cccc(NS(=O)(=O)c2ccc(NC(=S)NC(=O)c3ccc(Cl)cc3)cc2)c1

>  <score_type>  (38) 
oracle

>  <origin>  (38) 
adg

>  <m_score__min__energy>  (38) 
-12.949999999999999

>  <m_primary>  (38) 
energy

$$$$
38:0
     RDKit          3D

 42 44  0  0  1  0  0  0  0  0999 V2000
   57.3210   32.3180   41.5450 C   0  0  0  0  0  0  0  0  0  0  0  0
   58.3480   32.0240   42.6040 C   0  0  0  0  0  0  0  0  0  0  0  0
   57.8090   31.3410   43.7470 N   0  0  0  0  0  0  0  0  0  0  0  0
   56.7870   30.3340   43.6410 C   0  0  0  0  0  0  0  0  0  0  0  0
   56.3190   30.0070   42.5360 O   0  0  0  0  0  0  0  0  0  0  0  0
   56.3540   29.7450   44.8700 N   0  0  0  0  0  0  0  0  0  0  0  0
   57.0780   28.8820   45.5040 C   0  0  0  0  0  0  0  0  0  0  0  0
   56.7300   27.5940   45.4480 N   0  0  0  0  0  0  0  0  0  0  0  0
   57.4000   26.5890   46.0380 C   0  0  0  0  0  0  0  0  0  0  0  0
   58.5060   26.9390   46.7330 N   0  0  0  0  0  0  0  0  0  0  0  0
   58.9250   28.1920   46.8420 C   0  0  0  0  0  0  0  0  0  0  0  0
   60.2860   29.0070   47.6470 S   0  0  0  0  0  0  0  0  0  0  0  0
   59.7210   30.7450   47.0290 C   0  0  0  0  0  0  0  0  0  0  0  0
   60.6400   31.7070   47.5120 N   0  0  0  0  0  0  0  0  0  0  0  0
   62.0620   31.4530   47.5490 C   0  0  0  0  0  0  0  0  0  0  0  0
   60.0550   32.9740   47.9820 C   0  0  0  0  0  0  0  0  0  0  0  0
   59.2510   33.5360   46.8780 C   0  0  0  0  0  0  0  0  0  0  0  0
   59.7700   34.2290   45.8110 C   0  0  0  0  0  0  0  0  0  0  0  0
   58.9470   34.7200   44.8100 C   0  0  0  0  0  0  0  0  0  0  0  0
   57.5650   34.5080   44.8850 C   0  0  0  0  0  0  0  0  0  0  0  0
   57.0410   33.8130   45.9530 C   0  0  0  0  0  0  0  0  0  0  0  0
   57.8730   33.3270   46.9490 C   0  0  0  0  0  0  0  0  0  0  0  0
   58.7720   30.4180   46.4350 N   0  0  0  0  0  0  0  0  0  0  0  0
   58.2090   29.2740   46.2130 C   0  0  0  0  0  0  0  0  0  0  0  0
   56.3687   32.5906   42.0234 H   0  0  0  0  0  0  0  0  0  0  0  0
   57.6688   33.1527   40.9186 H   0  0  0  0  0  0  0  0  0  0  0  0
   57.1744   31.4257   40.9186 H   0  0  0  0  0  0  0  0  0  0  0  0
   59.1352   31.3958   42.1616 H   0  0  0  0  0  0  0  0  0  0  0  0
   58.7368   32.9906   42.9567 H   0  0  0  0  0  0  0  0  0  0  0  0
   58.1730   31.5840   44.7080 H   0  0  0  0  0  0  0  0  0  0  0  0
   55.8680   27.3060   44.9130 H   0  0  0  0  0  0  0  0  0  0  0  0
   57.0681   25.5432   45.9600 H   0  0  0  0  0  0  0  0  0  0  0  0
   62.3967   31.3932   48.5951 H   0  0  0  0  0  0  0  0  0  0  0  0
   62.2780   30.5021   47.0400 H   0  0  0  0  0  0  0  0  0  0  0  0
   62.5938   32.2704   47.0400 H   0  0  0  0  0  0  0  0  0  0  0  0
   59.4131   32.7886   48.8558 H   0  0  0  0  0  0  0  0  0  0  0  0
   60.8475   33.6773   48.2774 H   0  0  0  0  0  0  0  0  0  0  0  0
   60.8555   34.3966   45.7505 H   0  0  0  0  0  0  0  0  0  0  0  0
   59.3768   35.2729   43.9617 H   0  0  0  0  0  0  0  0  0  0  0  0
   56.9021   34.8938   44.0965 H   0  0  0  0  0  0  0  0  0  0  0  0
   55.9560   33.6429   46.0155 H   0  0  0  0  0  0  0  0  0  0  0  0
   57.4457   32.7744   47.7987 H   0  0  0  0  0  0  0  0  0  0  0  0
  1  2  1  0
  2  3  1  0
  3  4  1  0
  4  5  2  0
  4  6  1  0
  6  7  2  0
  7  8  1  0
  8  9  1  0
  9 10  2  0
 10 11  1  0
 11 12  1  0
 12 13  1  0
 13 14  1  0
 14 15  1  0
 14 16  1  0
 16 17  1  0
 17 18  2  0
 18 19  1  0
 19 20  2  0
 20 21  1  0
 21 22  2  0
 13 23  2  0
 23 24  1  0
 24  7  1  0
 24 11  2  0
 22 17  1  0
  1 25  1  0
  1 26  1  0
  1 27  1  0
  2 28  1  0
  2 29  1  0
  3 30  1  0
  8 31  1  0
  9 32  1  0
 15 33  1  0
 15 34  1  0
 15 35  1  0
 16 36  1  0
 16 37  1  0
 18 38  1  0
 19 39  1  0
 20 40  1  0
 21 41  1  0
 22 42  1  0
M  END
>  <smiles>  (39) 
CCNC(=O)N=c1[nH]cnc2sc(N(C)Cc3ccccc3)nc12

>  <score_type>  (39) 
oracle

>  <origin>  (39) 
adg

>  <m_score__min__energy>  (39) 
-8.0800000000000001

>  <m_primary>  (39) 
energy

$$$$
39:0
     RDKit          3D

 40 43  0  0  0  0  0  0  0  0999 V2000
   59.9330   34.2570   49.5050 N   0  0  0  0  0  0  0  0  0  0  0  0
   61.2020   34.0840   49.6590 C   0  0  0  0  0  0  0  0  0  0  0  0
   61.7700   34.1930   50.8770 N   0  0  0  0  0  0  0  0  0  0  0  0
   63.0860   34.0110   51.0880 C   0  0  0  0  0  0  0  0  0  0  0  0
   63.8830   33.7010   50.0240 N   0  0  0  0  0  0  0  0  0  0  0  0
   63.3670   33.5800   48.7900 C   0  0  0  0  0  0  0  0  0  0  0  0
   63.9160   33.2800   47.5770 N   0  0  0  0  0  0  0  0  0  0  0  0
   62.9500   33.2790   46.6350 C   0  0  0  0  0  0  0  0  0  0  0  0
   61.7430   33.5910   47.2700 C   0  0  0  0  0  0  0  0  0  0  0  0
   60.4990   33.6950   46.5200 C   0  0  0  0  0  0  0  0  0  0  0  0
   60.0310   34.9190   46.0970 C   0  0  0  0  0  0  0  0  0  0  0  0
   58.8440   34.9560   45.4040 C   0  0  0  0  0  0  0  0  0  0  0  0
   58.1320   33.7780   45.1370 C   0  0  0  0  0  0  0  0  0  0  0  0
   58.5870   32.5440   45.5520 C   0  0  0  0  0  0  0  0  0  0  0  0
   57.8440   31.3750   45.2750 N   0  0  0  0  0  0  0  0  0  0  0  0
   56.6140   31.3730   44.4840 C   0  0  0  0  0  0  0  0  0  0  0  0
   56.9250   30.5730   43.2460 C   0  0  0  0  0  0  0  0  0  0  0  0
   57.4200   29.2500   43.5600 N   0  0  0  0  0  0  0  0  0  0  0  0
   58.4800   29.2070   44.5140 C   0  0  0  0  0  0  0  0  0  0  0  0
   58.2500   30.0430   45.7510 C   0  0  0  0  0  0  0  0  0  0  0  0
   59.7770   32.5250   46.2450 C   0  0  0  0  0  0  0  0  0  0  0  0
   62.0160   33.7720   48.5960 C   0  0  0  0  0  0  0  0  0  0  0  0
   59.6260   35.2490   49.3810 H   0  0  0  0  0  0  0  0  0  0  0  0
   61.1810   34.4270   51.6880 H   0  0  0  0  0  0  0  0  0  0  0  0
   63.5113   34.1100   52.0976 H   0  0  0  0  0  0  0  0  0  0  0  0
   64.9280   33.0780   47.3880 H   0  0  0  0  0  0  0  0  0  0  0  0
   63.0865   33.0709   45.5635 H   0  0  0  0  0  0  0  0  0  0  0  0
   60.5914   35.8418   46.3077 H   0  0  0  0  0  0  0  0  0  0  0  0
   58.4483   35.9212   45.0549 H   0  0  0  0  0  0  0  0  0  0  0  0
   57.1847   33.8397   44.5814 H   0  0  0  0  0  0  0  0  0  0  0  0
   55.7958   30.9024   45.0489 H   0  0  0  0  0  0  0  0  0  0  0  0
   56.2900   32.3945   44.2358 H   0  0  0  0  0  0  0  0  0  0  0  0
   56.0072   30.4750   42.6477 H   0  0  0  0  0  0  0  0  0  0  0  0
   57.7110   31.1043   42.6893 H   0  0  0  0  0  0  0  0  0  0  0  0
   57.8330   28.8870   42.6520 H   0  0  0  0  0  0  0  0  0  0  0  0
   58.6167   28.1615   44.8275 H   0  0  0  0  0  0  0  0  0  0  0  0
   59.3649   29.6281   44.0145 H   0  0  0  0  0  0  0  0  0  0  0  0
   57.4549   29.5998   46.3686 H   0  0  0  0  0  0  0  0  0  0  0  0
   59.1559   30.0978   46.3726 H   0  0  0  0  0  0  0  0  0  0  0  0
   60.1740   31.5604   46.5942 H   0  0  0  0  0  0  0  0  0  0  0  0
  1  2  2  3
  2  3  1  0
  3  4  1  0
  4  5  2  0
  5  6  1  0
  6  7  1  0
  7  8  1  0
  8  9  2  0
  9 10  1  0
 10 11  2  0
 11 12  1  0
 12 13  2  0
 13 14  1  0
 14 15  1  0
 15 16  1  0
 16 17  1  0
 17 18  1  0
 18 19  1  0
 19 20  1  0
 14 21  2  0
  9 22  1  0
 22  2  1  0
 22  6  2  0
 21 10  1  0
 20 15  1  0
  1 23  1  0
  3 24  1  0
  4 25  1  0
  7 26  1  0
  8 27  1  0
 11 28  1  0
 12 29  1  0
 13 30  1  0
 16 31  1  0
 16 32  1  0
 17 33  1  0
 17 34  1  0
 18 35  1  0
 19 36  1  0
 19 37  1  0
 20 38  1  0
 20 39  1  0
 21 40  1  0
M  END
>  <smiles>  (40) 
N=c1[nH]cnc2[nH]cc(-c3cccc(N4CCNCC4)c3)c12

>  <score_type>  (40) 
oracle

>  <origin>  (40) 
adg

>  <m_score__min__energy>  (40) 
-7.4800000000000004

>  <m_primary>  (40) 
energy

$$$$
40:0
     RDKit          3D

 47 49  0  0  0  0  0  0  0  0999 V2000
   55.6180   29.7940   43.3660 C   0  0  0  0  0  0  0  0  0  0  0  0
   55.7570   29.7550   44.7830 O   0  0  0  0  0  0  0  0  0  0  0  0
   56.8310   29.1540   45.4590 C   0  0  0  0  0  0  0  0  0  0  0  0
   58.0320   29.8420   45.7190 C   0  0  0  0  0  0  0  0  0  0  0  0
   59.0780   29.2140   46.4130 C   0  0  0  0  0  0  0  0  0  0  0  0
   60.3540   29.9590   46.7100 C   0  0  0  0  0  0  0  0  0  0  0  0
   60.3170   30.5530   48.0630 N   0  0  0  0  0  0  0  0  0  0  0  0
   61.6580   30.4660   48.6970 C   0  0  0  0  0  0  0  0  0  0  0  0
   61.8470   31.5110   49.8040 C   0  0  0  0  0  0  0  0  0  0  0  0
   61.7270   32.9410   49.2430 C   0  0  0  0  0  0  0  0  0  0  0  0
   60.8220   33.0140   47.9960 C   0  0  2  0  0  0  0  0  0  0  0  0
   60.1950   34.3350   47.9220 N   0  0  0  0  0  0  0  0  0  0  0  0
   59.5580   34.8900   46.7630 C   0  0  0  0  0  0  0  0  0  0  0  0
   59.6490   36.1290   46.5590 O   0  0  0  0  0  0  0  0  0  0  0  0
   58.7970   34.0600   45.8060 C   0  0  0  0  0  0  0  0  0  0  0  0
   57.5750   33.4750   46.1780 C   0  0  0  0  0  0  0  0  0  0  0  0
   56.8530   32.7040   45.2630 C   0  0  0  0  0  0  0  0  0  0  0  0
   57.3380   32.5230   43.9650 C   0  0  0  0  0  0  0  0  0  0  0  0
   58.5410   33.1200   43.5790 C   0  0  0  0  0  0  0  0  0  0  0  0
   59.2660   33.8920   44.4930 C   0  0  0  0  0  0  0  0  0  0  0  0
   59.7400   31.9240   48.0580 C   0  0  0  0  0  0  0  0  0  0  0  0
   58.9270   27.8850   46.8340 C   0  0  0  0  0  0  0  0  0  0  0  0
   57.7400   27.1950   46.5710 C   0  0  0  0  0  0  0  0  0  0  0  0
   56.6970   27.8260   45.8880 C   0  0  0  0  0  0  0  0  0  0  0  0
   55.5200   27.1290   45.6390 O   0  0  0  0  0  0  0  0  0  0  0  0
   54.5888   30.0828   43.1063 H   0  0  0  0  0  0  0  0  0  0  0  0
   56.3215   30.5294   42.9487 H   0  0  0  0  0  0  0  0  0  0  0  0
   55.8363   28.7999   42.9487 H   0  0  0  0  0  0  0  0  0  0  0  0
   58.1513   30.8801   45.3754 H   0  0  0  0  0  0  0  0  0  0  0  0
   61.2015   29.2607   46.6466 H   0  0  0  0  0  0  0  0  0  0  0  0
   60.4667   30.7689   45.9743 H   0  0  0  0  0  0  0  0  0  0  0  0
   61.7790   29.4632   49.1326 H   0  0  0  0  0  0  0  0  0  0  0  0
   62.4114   30.6594   47.9192 H   0  0  0  0  0  0  0  0  0  0  0  0
   61.0764   31.3615   50.5746 H   0  0  0  0  0  0  0  0  0  0  0  0
   62.8521   31.3873   50.2334 H   0  0  0  0  0  0  0  0  0  0  0  0
   61.3051   33.5915   50.0233 H   0  0  0  0  0  0  0  0  0  0  0  0
   62.7339   33.2676   48.9439 H   0  0  0  0  0  0  0  0  0  0  0  0
   61.4357   32.8500   47.0980 H   0  0  0  0  0  0  0  0  0  0  0  0
   57.1843   33.6247   47.1953 H   0  0  0  0  0  0  0  0  0  0  0  0
   55.9026   32.2395   45.5646 H   0  0  0  0  0  0  0  0  0  0  0  0
   56.7728   31.9105   43.2471 H   0  0  0  0  0  0  0  0  0  0  0  0
   58.9185   32.9827   42.5550 H   0  0  0  0  0  0  0  0  0  0  0  0
   60.2070   34.3693   44.1820 H   0  0  0  0  0  0  0  0  0  0  0  0
   59.1508   32.0628   48.9764 H   0  0  0  0  0  0  0  0  0  0  0  0
   59.1135   32.0213   47.1591 H   0  0  0  0  0  0  0  0  0  0  0  0
   59.7448   27.3840   47.3727 H   0  0  0  0  0  0  0  0  0  0  0  0
   57.6267   26.1523   46.9027 H   0  0  0  0  0  0  0  0  0  0  0  0
  1  2  1  0
  2  3  1  0
  3  4  2  0
  4  5  1  0
  5  6  1  0
  6  7  1  0
  7  8  1  0
  8  9  1  0
  9 10  1  0
 10 11  1  0
 11 12  1  0
 12 13  1  0
 13 14  2  0
 13 15  1  0
 15 16  2  0
 16 17  1  0
 17 18  2  0
 18 19  1  0
 19 20  2  0
 11 21  1  0
  5 22  2  0
 22 23  1  0
 23 24  2  0
 24 25  1  0
 24  3  1  0
 21  7  1  0
 20 15  1  0
  1 26  1  0
  1 27  1  0
  1 28  1  0
  4 29  1  0
  6 30  1  0
  6 31  1  0
  8 32  1  0
  8 33  1  0
  9 34  1  0
  9 35  1  0
 10 36  1  0
 10 37  1  0
 11 38  1  6
 16 39  1  0
 17 40  1  0
 18 41  1  0
 19 42  1  0
 20 43  1  0
 21 44  1  0
 21 45  1  0
 22 46  1  0
 23 47  1  0
M  CHG  2  12  -1  25  -1
M  END
>  <UniqueID>  (41) 
36

>  <SMILES>  (41) 
COc1cc(CN2CCC[C@H]([N-]C(=O)c3ccccc3)C2)ccc1[O-]

>  <Energy>  (41) 
59.296661309922015

>  <Genealogy>  (41) 
COc1cc(CN2CCCC([N-]C(=O)c3ccccc3)C2)ccc1[O-] (protonated)
COc1cc(CN2CCC[C@H]([N-]C(=O)c3ccccc3)C2)ccc1[O-] (chirality)
COc1cc(CN2CCC[C@H]([N-]C(=O)c3ccccc3)C2)ccc1[O-] (3D coordinates assigned)
COc1cc(CN2CCC[C@H]([N-]C(=O)c3ccccc3)C2)ccc1[O-] (nonaromatic ring conformer: 59.296661309922015 kcal/mol)

>  <smiles>  (41) 
COc1cc(CN2CCCC(NC(=O)c3ccccc3)C2)ccc1O

>  <score_type>  (41) 
oracle

>  <origin>  (41) 
adg

>  <m_score__min__energy>  (41) 
-12.85

>  <m_primary>  (41) 
energy

$$$$
41:0
     RDKit          3D

 53 57  0  0  1  0  0  0  0  0999 V2000
   67.2870   26.3310   52.5170 C   0  0  0  0  0  0  0  0  0  0  0  0
   67.2970   27.1450   51.2970 N   0  0  0  0  0  0  0  0  0  0  0  0
   67.9240   26.6450   50.0890 C   0  0  0  0  0  0  0  0  0  0  0  0
   66.6930   28.4330   51.2790 C   0  0  0  0  0  0  0  0  0  0  0  0
   65.3720   28.6070   51.6530 C   0  0  0  0  0  0  0  0  0  0  0  0
   64.7920   29.8680   51.6310 C   0  0  0  0  0  0  0  0  0  0  0  0
   65.5080   30.9790   51.2410 C   0  0  0  0  0  0  0  0  0  0  0  0
   64.8910   32.3400   51.2150 C   0  0  0  0  0  0  0  0  0  0  0  0
   65.2450   32.9350   49.9420 N   0  0  0  0  0  0  0  0  0  0  0  0
   64.3540   33.0900   49.0650 C   0  0  0  0  0  0  0  0  0  0  0  0
   64.4160   33.1710   47.7400 N   0  0  0  0  0  0  0  0  0  0  0  0
   63.3590   33.3320   47.0610 N   0  0  0  0  0  0  0  0  0  0  0  0
   62.1720   33.4230   47.6070 C   0  0  0  0  0  0  0  0  0  0  0  0
   60.8170   33.6030   47.1220 C   0  0  0  0  0  0  0  0  0  0  0  0
   60.1900   34.8040   47.3170 C   0  0  0  0  0  0  0  0  0  0  0  0
   58.8940   34.9670   46.8510 C   0  0  0  0  0  0  0  0  0  0  0  0
   58.2730   33.9220   46.2080 C   0  0  0  0  0  0  0  0  0  0  0  0
   57.0580   33.7650   45.6540 N   0  0  0  0  0  0  0  0  0  0  0  0
   56.9440   32.5090   45.1370 C   0  0  0  0  0  0  0  0  0  0  0  0
   58.1330   31.8190   45.3620 C   0  0  0  0  0  0  0  0  0  0  0  0
   58.4080   30.4510   44.9630 C   0  0  0  0  0  0  0  0  0  0  0  0
   59.5380   29.7530   45.3310 C   0  0  0  0  0  0  0  0  0  0  0  0
   59.6590   28.4540   44.8710 C   0  0  0  0  0  0  0  0  0  0  0  0
   58.7470   27.8570   44.0980 N   0  0  0  0  0  0  0  0  0  0  0  0
   57.6360   28.5110   43.7230 C   0  0  0  0  0  0  0  0  0  0  0  0
   57.4800   29.8100   44.1640 C   0  0  0  0  0  0  0  0  0  0  0  0
   58.9350   32.7210   46.0270 C   0  0  0  0  0  0  0  0  0  0  0  0
   60.2270   32.5430   46.4850 C   0  0  0  0  0  0  0  0  0  0  0  0
   62.5610   33.2600   49.4220 S   0  0  0  0  0  0  0  0  0  0  0  0
   66.8300   30.8140   50.8650 C   0  0  0  0  0  0  0  0  0  0  0  0
   67.4080   29.5470   50.8870 C   0  0  0  0  0  0  0  0  0  0  0  0
   67.2951   26.9901   53.3976 H   0  0  0  0  0  0  0  0  0  0  0  0
   66.3811   25.7072   52.5342 H   0  0  0  0  0  0  0  0  0  0  0  0
   68.1773   25.6852   52.5342 H   0  0  0  0  0  0  0  0  0  0  0  0
   68.7581   25.9799   50.3571 H   0  0  0  0  0  0  0  0  0  0  0  0
   67.1848   26.0857   49.4967 H   0  0  0  0  0  0  0  0  0  0  0  0
   68.3048   27.4901   49.4967 H   0  0  0  0  0  0  0  0  0  0  0  0
   64.7764   27.7384   51.9705 H   0  0  0  0  0  0  0  0  0  0  0  0
   63.7399   29.9827   51.9309 H   0  0  0  0  0  0  0  0  0  0  0  0
   63.7975   32.2620   51.3057 H   0  0  0  0  0  0  0  0  0  0  0  0
   65.2534   32.9541   52.0525 H   0  0  0  0  0  0  0  0  0  0  0  0
   65.3910   33.0980   47.2640 H   0  0  0  0  0  0  0  0  0  0  0  0
   60.7055   35.6263   47.8348 H   0  0  0  0  0  0  0  0  0  0  0  0
   58.3681   35.9225   46.9943 H   0  0  0  0  0  0  0  0  0  0  0  0
   56.3460   34.5100   45.6430 H   0  0  0  0  0  0  0  0  0  0  0  0
   56.0575   32.1059   44.6254 H   0  0  0  0  0  0  0  0  0  0  0  0
   60.3122   30.2102   45.9647 H   0  0  0  0  0  0  0  0  0  0  0  0
   60.5539   27.8818   45.1569 H   0  0  0  0  0  0  0  0  0  0  0  0
   56.8779   28.0296   43.0878 H   0  0  0  0  0  0  0  0  0  0  0  0
   56.5754   30.3602   43.8657 H   0  0  0  0  0  0  0  0  0  0  0  0
   60.7590   31.5906   46.3440 H   0  0  0  0  0  0  0  0  0  0  0  0
   67.4243   31.6839   50.5487 H   0  0  0  0  0  0  0  0  0  0  0  0
   68.4593   29.4312   50.5848 H   0  0  0  0  0  0  0  0  0  0  0  0
  1  2  1  0
  2  3  1  0
  2  4  1  0
  4  5  2  0
  5  6  1  0
  6  7  2  0
  7  8  1  0
  8  9  1  0
  9 10  2  0
 10 11  1  0
 11 12  1  0
 12 13  2  0
 13 14  1  0
 14 15  2  0
 15 16  1  0
 16 17  2  0
 17 18  1  0
 18 19  1  0
 19 20  2  0
 20 21  1  0
 21 22  2  0
 22 23  1  0
 23 24  2  0
 24 25  1  0
 25 26  2  0
 20 27  1  0
 27 28  2  0
 13 29  1  0
  7 30  1  0
 30 31  2  0
 31  4  1  0
 29 10  1  0
 28 14  1  0
 27 17  1  0
 26 21  1  0
  1 32  1  0
  1 33  1  0
  1 34  1  0
  3 35  1  0
  3 36  1  0
  3 37  1  0
  5 38  1  0
  6 39  1  0
  8 40  1  0
  8 41  1  0
 11 42  1  0
 15 43  1  0
 16 44  1  0
 18 45  1  0
 19 46  1  0
 22 47  1  0
 23 48  1  0
 25 49  1  0
 26 50  1  0
 28 51  1  0
 30 52  1  0
 31 53  1  0
M  END
>  <smiles>  (42) 
CN(C)c1ccc(CN=c2[nH]nc(-c3ccc4[nH]cc(-c5ccncc5)c4c3)s2)cc1

>  <score_type>  (42) 
oracle

>  <origin>  (42) 
adg

>  <m_score__min__energy>  (42) 
-8.7699999999999996

>  <m_primary>  (42) 
energy

$$$$
42:0
     RDKit          3D

 56 59  0  0  0  0  0  0  0  0999 V2000
   59.0260   27.6180   46.9570 C   0  0  0  0  0  0  0  0  0  0  0  0
   58.9260   29.1150   47.2690 C   0  0  1  0  0  0  0  0  0  0  0  0
   57.6820   29.6860   46.7410 N   0  0  0  0  0  0  0  0  0  0  0  0
   57.3540   29.8630   45.3570 C   0  0  0  0  0  0  0  0  0  0  0  0
   56.4770   29.1420   44.8080 O   0  0  0  0  0  0  0  0  0  0  0  0
   58.0190   30.8530   44.6260 O   0  0  0  0  0  0  0  0  0  0  0  0
   57.5070   32.1710   44.4480 C   0  0  0  0  0  0  0  0  0  0  0  0
   58.2090   33.1360   45.3640 C   0  0  0  0  0  0  0  0  0  0  0  0
   58.1730   32.9370   46.7530 C   0  0  0  0  0  0  0  0  0  0  0  0
   58.7990   33.8460   47.6120 C   0  0  0  0  0  0  0  0  0  0  0  0
   59.4610   34.9610   47.0890 C   0  0  0  0  0  0  0  0  0  0  0  0
   59.4970   35.1690   45.7080 C   0  0  0  0  0  0  0  0  0  0  0  0
   58.8730   34.2620   44.8460 C   0  0  0  0  0  0  0  0  0  0  0  0
   59.0880   29.3810   48.7460 C   0  0  0  0  0  0  0  0  0  0  0  0
   59.4440   28.4580   49.5290 O   0  0  0  0  0  0  0  0  0  0  0  0
   58.8460   30.6970   49.2600 N   0  0  0  0  0  0  0  0  0  0  0  0
   59.0740   31.0240   50.6660 C   0  0  0  0  0  0  0  0  0  0  0  0
   58.0910   30.2920   51.5530 C   0  0  0  0  0  0  0  0  0  0  0  0
   56.7640   30.7590   51.5920 C   0  0  0  0  0  0  0  0  0  0  0  0
   55.7890   30.1240   52.3760 C   0  0  0  0  0  0  0  0  0  0  0  0
   54.4020   30.6460   52.3830 C   0  0  0  0  0  0  0  0  0  0  0  0
   53.7380   31.2700   51.3220 C   0  0  0  0  0  0  0  0  0  0  0  0
   52.4930   31.5660   51.8240 C   0  0  0  0  0  0  0  0  0  0  0  0
   51.3830   32.1880   51.2580 C   0  0  0  0  0  0  0  0  0  0  0  0
   51.4000   32.6000   50.0700 O   0  0  0  0  0  0  0  0  0  0  0  0
   50.2650   32.3410   52.0290 N   0  0  0  0  0  0  0  0  0  0  0  0
   50.2150   31.9030   53.3270 C   0  0  0  0  0  0  0  0  0  0  0  0
   51.3310   31.2750   53.9110 C   0  0  0  0  0  0  0  0  0  0  0  0
   52.4630   31.1250   53.1150 C   0  0  0  0  0  0  0  0  0  0  0  0
   53.6070   30.5770   53.4400 O   0  0  0  0  0  0  0  0  0  0  0  0
   56.1550   29.0060   53.1370 C   0  0  0  0  0  0  0  0  0  0  0  0
   57.4680   28.5410   53.1260 C   0  0  0  0  0  0  0  0  0  0  0  0
   58.4570   29.1730   52.3530 C   0  0  0  0  0  0  0  0  0  0  0  0
   59.8320   28.6180   52.4380 C   0  0  0  0  0  0  0  0  0  0  0  0
   60.8570   29.3480   52.4660 O   0  0  0  0  0  0  0  0  0  0  0  0
   59.0640   27.0491   47.8977 H   0  0  0  0  0  0  0  0  0  0  0  0
   58.1467   27.3053   46.3747 H   0  0  0  0  0  0  0  0  0  0  0  0
   59.9390   27.4250   46.3747 H   0  0  0  0  0  0  0  0  0  0  0  0
   59.7578   29.6218   46.7579 H   0  0  0  0  0  0  0  0  0  0  0  0
   57.6637   32.4826   43.4048 H   0  0  0  0  0  0  0  0  0  0  0  0
   56.4331   32.1711   44.6860 H   0  0  0  0  0  0  0  0  0  0  0  0
   57.6503   32.0625   47.1676 H   0  0  0  0  0  0  0  0  0  0  0  0
   58.7705   33.6837   48.6996 H   0  0  0  0  0  0  0  0  0  0  0  0
   59.9538   35.6749   47.7654 H   0  0  0  0  0  0  0  0  0  0  0  0
   60.0169   36.0475   45.2982 H   0  0  0  0  0  0  0  0  0  0  0  0
   58.9016   34.4299   43.7593 H   0  0  0  0  0  0  0  0  0  0  0  0
   58.5090   31.4390   48.6030 H   0  0  0  0  0  0  0  0  0  0  0  0
   60.0975   30.7312   50.9432 H   0  0  0  0  0  0  0  0  0  0  0  0
   58.9354   32.1065   50.8036 H   0  0  0  0  0  0  0  0  0  0  0  0
   56.4854   31.6402   50.9954 H   0  0  0  0  0  0  0  0  0  0  0  0
   54.1248   31.4772   50.3133 H   0  0  0  0  0  0  0  0  0  0  0  0
   49.2966   32.0433   53.9160 H   0  0  0  0  0  0  0  0  0  0  0  0
   51.3096   30.9182   54.9513 H   0  0  0  0  0  0  0  0  0  0  0  0
   55.3992   28.4911   53.7483 H   0  0  0  0  0  0  0  0  0  0  0  0
   57.7355   27.6636   53.7331 H   0  0  0  0  0  0  0  0  0  0  0  0
   59.9596   27.5262   52.4781 H   0  0  0  0  0  0  0  0  0  0  0  0
  1  2  1  0
  2  3  1  0
  3  4  1  0
  4  5  2  0
  4  6  1  0
  6  7  1  0
  7  8  1  0
  8  9  2  0
  9 10  1  0
 10 11  2  0
 11 12  1  0
 12 13  2  0
  2 14  1  0
 14 15  2  0
 14 16  1  0
 16 17  1  0
 17 18  1  0
 18 19  2  0
 19 20  1  0
 20 21  1  0
 21 22  2  0
 22 23  1  0
 23 24  1  0
 24 25  2  0
 24 26  1  0
 26 27  1  0
 27 28  2  0
 28 29  1  0
 29 30  1  0
 20 31  2  0
 31 32  1  0
 32 33  2  0
 33 34  1  0
 34 35  2  0
 13  8  1  0
 33 18  1  0
 30 21  1  0
 29 23  2  0
  1 36  1  0
  1 37  1  0
  1 38  1  0
  2 39  1  6
  7 40  1  0
  7 41  1  0
  9 42  1  0
 10 43  1  0
 11 44  1  0
 12 45  1  0
 13 46  1  0
 16 47  1  0
 17 48  1  0
 17 49  1  0
 19 50  1  0
 22 51  1  0
 27 52  1  0
 28 53  1  0
 31 54  1  0
 32 55  1  0
 34 56  1  0
M  CHG  2   3  -1  26  -1
M  END
>  <UniqueID>  (43) 
37

>  <SMILES>  (43) 
C[C@@H]([N-]C(=O)OCc1ccccc1)C(=O)NCc1cc(-c2cc3c(=O)[n-]ccc3o2)ccc1C=O

>  <Energy>  (43) 
95.0882221322676

>  <Genealogy>  (43) 
CC([N-]C(=O)OCc1ccccc1)C(=O)NCc1cc(-c2cc3c(=O)[n-]ccc3o2)ccc1C=O (protonated)
C[C@@H]([N-]C(=O)OCc1ccccc1)C(=O)NCc1cc(-c2cc3c(=O)[n-]ccc3o2)ccc1C=O (chirality)
C[C@@H]([N-]C(=O)OCc1ccccc1)C(=O)NCc1cc(-c2cc3c(=O)[n-]ccc3o2)ccc1C=O (3D coordinates assigned)
C[C@@H]([N-]C(=O)OCc1ccccc1)C(=O)NCc1cc(-c2cc3c(=O)[n-]ccc3o2)ccc1C=O (optimized conformer: 95.0882221322676 kcal/mol)

>  <smiles>  (43) 
CC(NC(=O)OCc1ccccc1)C(=O)NCc1cc(-c2cc3c(=O)[nH]ccc3o2)ccc1C=O

>  <score_type>  (43) 
oracle

>  <origin>  (43) 
adg

>  <m_score__min__energy>  (43) 
-12.23

>  <m_primary>  (43) 
energy

$$$$
43:0
     RDKit          3D

 67 71  0  0  1  0  0  0  0  0999 V2000
   51.7020   24.0220   44.8290 C   0  0  0  0  0  0  0  0  0  0  0  0
   52.5580   22.9610   45.0630 O   0  0  0  0  0  0  0  0  0  0  0  0
   52.4350   21.9500   45.9930 C   0  0  0  0  0  0  0  0  0  0  0  0
   51.1970   21.4920   46.3900 C   0  0  0  0  0  0  0  0  0  0  0  0
   51.0280   20.4800   47.3190 C   0  0  0  0  0  0  0  0  0  0  0  0
   52.1690   19.9280   47.8500 C   0  0  0  0  0  0  0  0  0  0  0  0
   53.4210   20.3980   47.4430 C   0  0  0  0  0  0  0  0  0  0  0  0
   53.5940   21.3930   46.5310 C   0  0  0  0  0  0  0  0  0  0  0  0
   54.8320   21.8990   46.0840 N   0  0  0  0  0  0  0  0  0  0  0  0
   55.3030   23.2200   46.2650 C   0  0  0  0  0  0  0  0  0  0  0  0
   54.6670   24.1010   46.8510 O   0  0  0  0  0  0  0  0  0  0  0  0
   56.5910   23.5860   45.7440 N   0  0  0  0  0  0  0  0  0  0  0  0
   57.1390   24.8860   45.8870 C   0  0  0  0  0  0  0  0  0  0  0  0
   57.4820   25.4500   47.0950 C   0  0  0  0  0  0  0  0  0  0  0  0
   58.0140   26.7470   47.1480 C   0  0  0  0  0  0  0  0  0  0  0  0
   58.1920   27.4570   45.9860 C   0  0  0  0  0  0  0  0  0  0  0  0
   58.7480   28.8370   45.9920 C   0  0  0  0  0  0  0  0  0  0  0  0
   60.0430   28.9760   46.6030 C   0  0  0  0  0  0  0  0  0  0  0  0
   60.3740   30.7990   46.4210 S   0  0  0  0  0  0  0  0  0  0  0  0
   58.7930   31.1420   45.5780 C   0  0  0  0  0  0  0  0  0  0  0  0
   58.2850   32.3320   45.1030 C   0  0  0  0  0  0  0  0  0  0  0  0
   58.9820   33.4040   45.2450 N   0  0  0  0  0  0  0  0  0  0  0  0
   58.5810   34.4450   46.1790 C   0  0  0  0  0  0  0  0  0  0  0  0
   58.8870   34.0140   47.6140 C   0  0  0  0  0  0  0  0  0  0  0  0
   60.2730   34.4490   48.0180 C   0  0  0  0  0  0  0  0  0  0  0  0
   61.3150   33.5460   47.6810 N   0  0  0  0  0  0  0  0  0  0  0  0
   61.9160   33.6640   46.4130 C   0  0  0  0  0  0  0  0  0  0  0  0
   63.3750   34.0420   46.4350 C   0  0  0  0  0  0  0  0  0  0  0  0
   63.9510   33.8340   47.6840 O   0  0  0  0  0  0  0  0  0  0  0  0
   63.4650   32.7040   48.3120 C   0  0  0  0  0  0  0  0  0  0  0  0
   62.0530   32.9700   48.7390 C   0  0  0  0  0  0  0  0  0  0  0  0
   57.0820   32.3240   44.5090 N   0  0  0  0  0  0  0  0  0  0  0  0
   56.4630   31.1340   44.4290 C   0  0  0  0  0  0  0  0  0  0  0  0
   56.9330   29.9860   44.8790 N   0  0  0  0  0  0  0  0  0  0  0  0
   58.1780   29.9150   45.5060 C   0  0  0  0  0  0  0  0  0  0  0  0
   57.8420   26.8800   44.7570 C   0  0  0  0  0  0  0  0  0  0  0  0
   57.3180   25.6030   44.7010 C   0  0  0  0  0  0  0  0  0  0  0  0
   51.3649   24.4398   45.7891 H   0  0  0  0  0  0  0  0  0  0  0  0
   52.2292   24.7989   44.2559 H   0  0  0  0  0  0  0  0  0  0  0  0
   50.8312   23.6710   44.2559 H   0  0  0  0  0  0  0  0  0  0  0  0
   50.3012   21.9524   45.9477 H   0  0  0  0  0  0  0  0  0  0  0  0
   50.0276   20.1339   47.6182 H   0  0  0  0  0  0  0  0  0  0  0  0
   52.0974   19.1195   48.5924 H   0  0  0  0  0  0  0  0  0  0  0  0
   54.3169   19.9375   47.8849 H   0  0  0  0  0  0  0  0  0  0  0  0
   55.4940   21.2540   45.5570 H   0  0  0  0  0  0  0  0  0  0  0  0
   57.1910   22.8880   45.2260 H   0  0  0  0  0  0  0  0  0  0  0  0
   57.3380   24.8800   48.0247 H   0  0  0  0  0  0  0  0  0  0  0  0
   58.2873   27.1931   48.1156 H   0  0  0  0  0  0  0  0  0  0  0  0
   60.6764   28.2021   47.0611 H   0  0  0  0  0  0  0  0  0  0  0  0
   59.1327   35.3691   45.9518 H   0  0  0  0  0  0  0  0  0  0  0  0
   57.4994   34.6190   46.0796 H   0  0  0  0  0  0  0  0  0  0  0  0
   58.1527   34.4722   48.2928 H   0  0  0  0  0  0  0  0  0  0  0  0
   58.8297   32.9171   47.6732 H   0  0  0  0  0  0  0  0  0  0  0  0
   60.4842   35.4102   47.5265 H   0  0  0  0  0  0  0  0  0  0  0  0
   60.2651   34.5077   49.1164 H   0  0  0  0  0  0  0  0  0  0  0  0
   61.8214   32.6963   45.8986 H   0  0  0  0  0  0  0  0  0  0  0  0
   61.3927   34.4835   45.8986 H   0  0  0  0  0  0  0  0  0  0  0  0
   63.9104   33.4330   45.6917 H   0  0  0  0  0  0  0  0  0  0  0  0
   63.4505   35.1143   46.2017 H   0  0  0  0  0  0  0  0  0  0  0  0
   63.4884   31.8529   47.6155 H   0  0  0  0  0  0  0  0  0  0  0  0
   64.0853   32.4620   49.1876 H   0  0  0  0  0  0  0  0  0  0  0  0
   61.5802   32.0222   49.0358 H   0  0  0  0  0  0  0  0  0  0  0  0
   62.0644   33.6707   49.5868 H   0  0  0  0  0  0  0  0  0  0  0  0
   56.7050   33.2160   44.1540 H   0  0  0  0  0  0  0  0  0  0  0  0
   55.4755   31.1151   43.9448 H   0  0  0  0  0  0  0  0  0  0  0  0
   57.9862   27.4502   43.8275 H   0  0  0  0  0  0  0  0  0  0  0  0
   57.0448   25.1557   43.7339 H   0  0  0  0  0  0  0  0  0  0  0  0
  1  2  1  0
  2  3  1  0
  3  4  2  0
  4  5  1  0
  5  6  2  0
  6  7  1  0
  7  8  2  0
  8  9  1  0
  9 10  1  0
 10 11  2  0
 10 12  1  0
 12 13  1  0
 13 14  2  0
 14 15  1  0
 15 16  2  0
 16 17  1  0
 17 18  2  0
 18 19  1  0
 19 20  1  0
 20 21  1  0
 21 22  2  0
 22 23  1  0
 23 24  1  0
 24 25  1  0
 25 26  1  0
 26 27  1  0
 27 28  1  0
 28 29  1  0
 29 30  1  0
 30 31  1  0
 21 32  1  0
 32 33  1  0
 33 34  2  0
 34 35  1  0
 16 36  1  0
 36 37  2  0
  8  3  1  0
 37 13  1  0
 35 17  1  0
 35 20  2  0
 31 26  1  0
  1 38  1  0
  1 39  1  0
  1 40  1  0
  4 41  1  0
  5 42  1  0
  6 43  1  0
  7 44  1  0
  9 45  1  0
 12 46  1  0
 14 47  1  0
 15 48  1  0
 18 49  1  0
 23 50  1  0
 23 51  1  0
 24 52  1  0
 24 53  1  0
 25 54  1  0
 25 55  1  0
 27 56  1  0
 27 57  1  0
 28 58  1  0
 28 59  1  0
 30 60  1  0
 30 61  1  0
 31 62  1  0
 31 63  1  0
 32 64  1  0
 33 65  1  0
 36 66  1  0
 37 67  1  0
M  END
>  <smiles>  (44) 
COc1ccccc1NC(=O)Nc1ccc(-c2csc3c(=NCCCN4CCOCC4)[nH]cnc23)cc1

>  <score_type>  (44) 
oracle

>  <origin>  (44) 
adg

>  <m_score__min__energy>  (44) 
-8.3000000000000007

>  <m_primary>  (44) 
energy

$$$$
44:0
     RDKit          3D

 83 86  0  0  0  0  0  0  0  0999 V2000
   66.3420   34.9700   51.9720 C   0  0  0  0  0  0  0  0  0  0  0  0
   67.7980   33.8990   51.7670 S   0  0  0  0  0  0  0  0  0  0  0  0
   67.2450   33.1240   50.2020 C   0  0  0  0  0  0  0  0  0  0  0  0
   66.5310   31.7870   50.4480 C   0  0  0  0  0  0  0  0  0  0  0  0
   64.9870   31.8920   50.3980 C   0  0  2  0  0  0  0  0  0  0  0  0
   64.5660   33.0720   49.6380 N   0  0  0  0  0  0  0  0  0  0  0  0
   63.2000   33.3930   49.3460 C   0  0  0  0  0  0  0  0  0  0  0  0
   62.7110   34.4990   49.7020 O   0  0  0  0  0  0  0  0  0  0  0  0
   62.3530   32.4150   48.5990 C   0  0  0  0  0  0  0  0  0  0  0  0
   60.9070   32.8150   48.6980 C   0  0  0  0  0  0  0  0  0  0  0  0
   60.5420   33.8930   48.1520 O   0  0  0  0  0  0  0  0  0  0  0  0
   59.9650   32.0550   49.4910 N   0  0  0  0  0  0  0  0  0  0  0  0
   58.7220   31.5470   48.8810 C   0  0  0  0  0  0  0  0  0  0  0  0
   57.8700   32.7070   48.3530 C   0  0  0  0  0  0  0  0  0  0  0  0
   57.9680   32.8180   46.8550 C   0  0  0  0  0  0  0  0  0  0  0  0
   57.9390   34.0780   46.2350 C   0  0  0  0  0  0  0  0  0  0  0  0
   58.0220   34.1770   44.8410 C   0  0  0  0  0  0  0  0  0  0  0  0
   58.1380   33.0260   44.0590 C   0  0  0  0  0  0  0  0  0  0  0  0
   58.1790   31.7690   44.6690 C   0  0  0  0  0  0  0  0  0  0  0  0
   58.0970   31.6630   46.0610 C   0  0  0  0  0  0  0  0  0  0  0  0
   60.2180   31.8160   50.9310 C   0  0  1  0  0  0  0  0  0  0  0  0
   60.4950   33.1570   51.6610 C   0  0  0  0  0  0  0  0  0  0  0  0
   59.3760   34.2130   51.5040 C   0  0  0  0  0  0  0  0  0  0  0  0
   58.1390   34.2380   52.8590 S   0  0  0  0  0  0  0  0  0  0  0  0
   57.5690   32.5560   52.5860 C   0  0  0  0  0  0  0  0  0  0  0  0
   56.1920   32.3390   52.2440 N   0  0  0  0  0  0  0  0  0  0  0  0
   55.6290   31.0510   51.9280 C   0  0  0  0  0  0  0  0  0  0  0  0
   56.3860   30.0830   51.6410 O   0  0  0  0  0  0  0  0  0  0  0  0
   54.1600   30.8490   51.9090 C   0  0  0  0  0  0  0  0  0  0  0  0
   53.6220   29.5900   52.2260 C   0  0  0  0  0  0  0  0  0  0  0  0
   52.2360   29.3860   52.2050 C   0  0  0  0  0  0  0  0  0  0  0  0
   51.3770   30.4390   51.8800 C   0  0  0  0  0  0  0  0  0  0  0  0
   51.8970   31.6990   51.5780 C   0  0  0  0  0  0  0  0  0  0  0  0
   51.0380   32.7470   51.2670 O   0  0  0  0  0  0  0  0  0  0  0  0
   53.2830   31.9080   51.5960 C   0  0  0  0  0  0  0  0  0  0  0  0
   58.4010   31.5580   52.6810 N   0  0  0  0  0  0  0  0  0  0  0  0
   59.0770   30.9430   51.5390 C   0  0  0  0  0  0  0  0  0  0  0  0
   64.3290   31.9200   51.8100 C   0  0  1  0  0  0  0  0  0  0  0  0
   63.7640   33.1920   52.0190 O   0  0  0  0  0  0  0  0  0  0  0  0
   63.2870   30.8290   52.0450 C   0  0  0  0  0  0  0  0  0  0  0  0
   62.9400   29.9130   51.0250 C   0  0  0  0  0  0  0  0  0  0  0  0
   61.9690   28.9320   51.2440 C   0  0  0  0  0  0  0  0  0  0  0  0
   61.3200   28.8560   52.4800 C   0  0  0  0  0  0  0  0  0  0  0  0
   60.3610   27.8760   52.7020 O   0  0  0  0  0  0  0  0  0  0  0  0
   61.6320   29.7720   53.4910 C   0  0  0  0  0  0  0  0  0  0  0  0
   62.5940   30.7620   53.2700 C   0  0  0  0  0  0  0  0  0  0  0  0
   66.1427   35.1166   53.0438 H   0  0  0  0  0  0  0  0  0  0  0  0
   66.5336   35.9440   51.4981 H   0  0  0  0  0  0  0  0  0  0  0  0
   65.4693   34.4970   51.4981 H   0  0  0  0  0  0  0  0  0  0  0  0
   66.5521   33.8088   49.6911 H   0  0  0  0  0  0  0  0  0  0  0  0
   68.1343   32.9279   49.5851 H   0  0  0  0  0  0  0  0  0  0  0  0
   66.8563   31.0719   49.6780 H   0  0  0  0  0  0  0  0  0  0  0  0
   66.7999   31.4590   51.4629 H   0  0  0  0  0  0  0  0  0  0  0  0
   64.6397   30.9797   49.8909 H   0  0  0  0  0  0  0  0  0  0  0  0
   62.6567   32.4013   47.5418 H   0  0  0  0  0  0  0  0  0  0  0  0
   62.4838   31.4135   49.0348 H   0  0  0  0  0  0  0  0  0  0  0  0
   58.9759   30.8757   48.0474 H   0  0  0  0  0  0  0  0  0  0  0  0
   58.1475   31.0026   49.6449 H   0  0  0  0  0  0  0  0  0  0  0  0
   56.8197   32.5365   48.6320 H   0  0  0  0  0  0  0  0  0  0  0  0
   58.2427   33.6422   48.7962 H   0  0  0  0  0  0  0  0  0  0  0  0
   57.8509   34.9886   46.8458 H   0  0  0  0  0  0  0  0  0  0  0  0
   57.9957   35.1657   44.3597 H   0  0  0  0  0  0  0  0  0  0  0  0
   58.1971   33.1084   42.9637 H   0  0  0  0  0  0  0  0  0  0  0  0
   58.2758   30.8624   44.0536 H   0  0  0  0  0  0  0  0  0  0  0  0
   58.1335   30.6723   46.5377 H   0  0  0  0  0  0  0  0  0  0  0  0
   61.1352   31.2255   51.0727 H   0  0  0  0  0  0  0  0  0  0  0  0
   60.6205   32.9455   52.7332 H   0  0  0  0  0  0  0  0  0  0  0  0
   61.3973   33.5849   51.1998 H   0  0  0  0  0  0  0  0  0  0  0  0
   59.8477   35.2055   51.4541 H   0  0  0  0  0  0  0  0  0  0  0  0
   58.8259   33.9449   50.5900 H   0  0  0  0  0  0  0  0  0  0  0  0
   55.5740   33.1820   52.2100 H   0  0  0  0  0  0  0  0  0  0  0  0
   54.2929   28.7599   52.4921 H   0  0  0  0  0  0  0  0  0  0  0  0
   51.8233   28.3950   52.4448 H   0  0  0  0  0  0  0  0  0  0  0  0
   50.2894   30.2750   51.8621 H   0  0  0  0  0  0  0  0  0  0  0  0
   53.6889   32.9039   51.3646 H   0  0  0  0  0  0  0  0  0  0  0  0
   59.5107   29.9870   51.8677 H   0  0  0  0  0  0  0  0  0  0  0  0
   58.3195   30.8163   50.7515 H   0  0  0  0  0  0  0  0  0  0  0  0
   65.1270   31.7134   52.5384 H   0  0  0  0  0  0  0  0  0  0  0  0
   64.0500   33.7620   51.2610 H   0  0  0  0  0  0  0  0  0  0  0  0
   63.4405   29.9734   50.0473 H   0  0  0  0  0  0  0  0  0  0  0  0
   61.7156   28.2202   50.4445 H   0  0  0  0  0  0  0  0  0  0  0  0
   61.1189   29.7128   54.4622 H   0  0  0  0  0  0  0  0  0  0  0  0
   62.8120   31.4957   54.0600 H   0  0  0  0  0  0  0  0  0  0  0  0
  1  2  1  0
  2  3  1  0
  3  4  1  0
  4  5  1  0
  5  6  1  0
  6  7  1  0
  7  8  2  0
  7  9  1  0
  9 10  1  0
 10 11  2  0
 10 12  1  0
 12 13  1  0
 13 14  1  0
 14 15  1  0
 15 16  2  0
 16 17  1  0
 17 18  2  0
 18 19  1  0
 19 20  2  0
 12 21  1  0
 21 22  1  0
 22 23  1  0
 23 24  1  0
 24 25  1  0
 25 26  1  0
 26 27  1  0
 27 28  2  0
 27 29  1  0
 29 30  2  0
 30 31  1  0
 31 32  2  0
 32 33  1  0
 33 34  1  0
 33 35  2  0
 25 36  2  0
 36 37  1  0
  5 38  1  0
 38 39  1  0
 38 40  1  0
 40 41  2  0
 41 42  1  0
 42 43  2  0
 43 44  1  0
 43 45  1  0
 45 46  2  0
 20 15  1  0
 37 21  1  0
 46 40  1  0
 35 29  1  0
  1 47  1  0
  1 48  1  0
  1 49  1  0
  3 50  1  0
  3 51  1  0
  4 52  1  0
  4 53  1  0
  5 54  1  6
  9 55  1  0
  9 56  1  0
 13 57  1  0
 13 58  1  0
 14 59  1  0
 14 60  1  0
 16 61  1  0
 17 62  1  0
 18 63  1  0
 19 64  1  0
 20 65  1  0
 21 66  1  6
 22 67  1  0
 22 68  1  0
 23 69  1  0
 23 70  1  0
 26 71  1  0
 30 72  1  0
 31 73  1  0
 32 74  1  0
 35 75  1  0
 37 76  1  0
 37 77  1  0
 38 78  1  1
 39 79  1  0
 41 80  1  0
 42 81  1  0
 45 82  1  0
 46 83  1  0
M  CHG  3   6  -1  34  -1  44  -1
M  END
>  <UniqueID>  (45) 
38

>  <SMILES>  (45) 
CSCC[C@H]([N-]C(=O)CC(=O)N(CCc1ccccc1)[C@H]1CCSC(NC(=O)c2cccc([O-])c2)=NC1)C(O)c1ccc([O-])cc1

>  <Energy>  (45) 
90.91541221716417

>  <Genealogy>  (45) 
CSCCC([N-]C(=O)CC(=O)N(CCc1ccccc1)C1CCSC(NC(=O)c2cccc([O-])c2)=NC1)C(O)c1ccc([O-])cc1 (protonated)
CSCC[C@H]([N-]C(=O)CC(=O)N(CCc1ccccc1)[C@H]1CCSC(NC(=O)c2cccc([O-])c2)=NC1)C(O)c1ccc([O-])cc1 (chirality)
CSCC[C@H]([N-]C(=O)CC(=O)N(CCc1ccccc1)[C@H]1CCSC(NC(=O)c2cccc([O-])c2)=NC1)C(O)c1ccc([O-])cc1 (3D coordinates assigned)
CSCC[C@H]([N-]C(=O)CC(=O)N(CCc1ccccc1)[C@H]1CCSC(NC(=O)c2cccc([O-])c2)=NC1)C(O)c1ccc([O-])cc1 (nonaromatic ring conformer: 90.91541221716417 kcal/mol)

>  <smiles>  (45) 
CSCCC(NC(=O)CC(=O)N(CCc1ccccc1)C1CCSC(NC(=O)c2cccc(O)c2)=NC1)C(O)c1ccc(O)cc1

>  <score_type>  (45) 
oracle

>  <origin>  (45) 
adg

>  <m_score__min__energy>  (45) 
-15.6

>  <m_primary>  (45) 
energy

$$$$
45:0
     RDKit          3D

 31 33  0  0  0  0  0  0  0  0999 V2000
   58.5570   34.5200   45.5240 C   0  0  0  0  0  0  0  0  0  0  0  0
   57.6570   33.6970   44.8260 C   0  0  0  0  0  0  0  0  0  0  0  0
   57.7630   32.3010   44.9130 C   0  0  0  0  0  0  0  0  0  0  0  0
   58.7800   31.7500   45.7020 C   0  0  0  0  0  0  0  0  0  0  0  0
   59.6490   32.5570   46.3940 C   0  0  0  0  0  0  0  0  0  0  0  0
   59.5630   33.9490   46.3170 C   0  0  0  0  0  0  0  0  0  0  0  0
   60.6310   31.7750   47.1790 C   0  0  0  0  0  0  0  0  0  0  0  0
   60.1390   30.3230   47.0390 C   0  0  0  0  0  0  0  0  0  0  0  0
   59.0730   30.3020   45.9210 C   0  0  2  0  0  0  0  0  0  0  0  0
   59.6350   29.6620   44.7130 N   0  0  0  0  0  0  0  0  0  0  0  0
   58.8310   28.5250   44.2470 C   0  0  0  0  0  0  0  0  0  0  0  0
   57.3790   28.8890   44.2340 C   0  0  0  0  0  0  0  0  0  0  0  0
   56.7190   29.6190   43.2680 C   0  0  0  0  0  0  0  0  0  0  0  0
   55.4190   29.7290   43.7170 C   0  0  0  0  0  0  0  0  0  0  0  0
   55.2920   29.1190   44.8740 O   0  0  0  0  0  0  0  0  0  0  0  0
   56.4520   28.6060   45.2160 C   0  0  0  0  0  0  0  0  0  0  0  0
   58.4723   35.6141   45.4483 H   0  0  0  0  0  0  0  0  0  0  0  0
   56.8664   34.1491   44.2091 H   0  0  0  0  0  0  0  0  0  0  0  0
   57.0600   31.6511   44.3713 H   0  0  0  0  0  0  0  0  0  0  0  0
   60.2710   34.5855   46.8680 H   0  0  0  0  0  0  0  0  0  0  0  0
   61.6435   31.8876   46.7640 H   0  0  0  0  0  0  0  0  0  0  0  0
   60.6965   32.1031   48.2269 H   0  0  0  0  0  0  0  0  0  0  0  0
   60.9790   29.6657   46.7699 H   0  0  0  0  0  0  0  0  0  0  0  0
   59.7138   29.9639   47.9878 H   0  0  0  0  0  0  0  0  0  0  0  0
   58.1663   29.7313   46.1702 H   0  0  0  0  0  0  0  0  0  0  0  0
   59.7240   30.3570   43.9320 H   0  0  0  0  0  0  0  0  0  0  0  0
   59.1458   28.2503   43.2294 H   0  0  0  0  0  0  0  0  0  0  0  0
   58.9818   27.6754   44.9292 H   0  0  0  0  0  0  0  0  0  0  0  0
   57.1397   30.0270   42.3371 H   0  0  0  0  0  0  0  0  0  0  0  0
   54.6091   30.2500   43.1854 H   0  0  0  0  0  0  0  0  0  0  0  0
   56.6523   28.0409   46.1382 H   0  0  0  0  0  0  0  0  0  0  0  0
  1  2  2  0
  2  3  1  0
  3  4  2  0
  4  5  1  0
  5  6  2  0
  5  7  1  0
  7  8  1  0
  8  9  1  0
  9 10  1  0
 10 11  1  0
 11 12  1  0
 12 13  1  0
 13 14  2  0
 14 15  1  0
 15 16  1  0
  6  1  1  0
 16 12  2  0
  9  4  1  0
  1 17  1  0
  2 18  1  0
  3 19  1  0
  6 20  1  0
  7 21  1  0
  7 22  1  0
  8 23  1  0
  8 24  1  0
  9 25  1  1
 10 26  1  0
 11 27  1  0
 11 28  1  0
 13 29  1  0
 14 30  1  0
 16 31  1  0
M  END
>  <UniqueID>  (46) 
39

>  <SMILES>  (46) 
c1ccc2c(c1)CC[C@@H]2NCc1ccoc1

>  <Energy>  (46) 
67.66875366394692

>  <Genealogy>  (46) 
c1ccc2c(c1)CC[C@@H]2NCc1ccoc1 (chirality)
c1ccc2c(c1)CC[C@@H]2NCc1ccoc1 (3D coordinates assigned)
c1ccc2c(c1)CC[C@@H]2NCc1ccoc1 (nonaromatic ring conformer: 67.66875366394692 kcal/mol)

>  <smiles>  (46) 
c1ccc2c(c1)CCC2NCc1ccoc1

>  <score_type>  (46) 
oracle

>  <origin>  (46) 
adg

>  <m_score__min__energy>  (46) 
-6.4800000000000004

>  <m_primary>  (46) 
energy

$$$$
46:0
     RDKit          3D

 50 53  0  0  0  0  0  0  0  0999 V2000
   56.1950   21.2910   45.0090 C   0  0  0  0  0  0  0  0  0  0  0  0
   56.7380   22.1230   46.1310 C   0  0  0  0  0  0  0  0  0  0  0  0
   57.0450   21.5470   47.2100 O   0  0  0  0  0  0  0  0  0  0  0  0
   56.9270   23.5940   46.0010 C   0  0  0  0  0  0  0  0  0  0  0  0
   58.2060   24.1540   45.8220 C   0  0  0  0  0  0  0  0  0  0  0  0
   58.3620   25.5330   45.6650 C   0  0  0  0  0  0  0  0  0  0  0  0
   57.2470   26.3790   45.6710 C   0  0  0  0  0  0  0  0  0  0  0  0
   57.4380   27.8210   45.4280 C   0  0  0  0  0  0  0  0  0  0  0  0
   57.0890   28.4000   44.2510 N   0  0  0  0  0  0  0  0  0  0  0  0
   57.3400   29.7020   44.4670 C   0  0  0  0  0  0  0  0  0  0  0  0
   57.1520   30.7570   43.5750 C   0  0  0  0  0  0  0  0  0  0  0  0
   57.4610   32.0540   44.0210 C   0  0  0  0  0  0  0  0  0  0  0  0
   57.9390   32.2640   45.3330 C   0  0  0  0  0  0  0  0  0  0  0  0
   58.1130   31.1790   46.2120 C   0  0  0  0  0  0  0  0  0  0  0  0
   57.8050   29.9000   45.7360 C   0  0  0  0  0  0  0  0  0  0  0  0
   57.8730   28.7120   46.3650 N   0  0  0  0  0  0  0  0  0  0  0  0
   58.2230   28.4530   47.7690 C   0  0  0  0  0  0  0  0  0  0  0  0
   59.5440   29.0760   48.1060 C   0  0  0  0  0  0  0  0  0  0  0  0
   60.6050   28.4320   47.8900 O   0  0  0  0  0  0  0  0  0  0  0  0
   59.5900   30.3900   48.6850 N   0  0  0  0  0  0  0  0  0  0  0  0
   60.6820   31.3190   48.5460 C   0  0  0  0  0  0  0  0  0  0  0  0
   61.3760   31.3740   47.3290 C   0  0  0  0  0  0  0  0  0  0  0  0
   62.4880   32.2060   47.1790 C   0  0  0  0  0  0  0  0  0  0  0  0
   62.9240   33.0010   48.2470 C   0  0  0  0  0  0  0  0  0  0  0  0
   64.1470   33.8560   48.0950 C   0  0  0  0  0  0  0  0  0  0  0  0
   62.2510   32.9330   49.4750 C   0  0  0  0  0  0  0  0  0  0  0  0
   61.1380   32.1010   49.6260 C   0  0  0  0  0  0  0  0  0  0  0  0
   55.9720   25.8380   45.9040 C   0  0  0  0  0  0  0  0  0  0  0  0
   54.8580   26.6640   46.0050 O   0  0  0  0  0  0  0  0  0  0  0  0
   55.8150   24.4560   46.0570 C   0  0  0  0  0  0  0  0  0  0  0  0
   55.6378   20.4372   45.4220 H   0  0  0  0  0  0  0  0  0  0  0  0
   55.5222   21.9034   44.3907 H   0  0  0  0  0  0  0  0  0  0  0  0
   57.0265   20.9217   44.3907 H   0  0  0  0  0  0  0  0  0  0  0  0
   59.0902   23.4999   45.8056 H   0  0  0  0  0  0  0  0  0  0  0  0
   59.3686   25.9573   45.5357 H   0  0  0  0  0  0  0  0  0  0  0  0
   56.7747   30.5805   42.5569 H   0  0  0  0  0  0  0  0  0  0  0  0
   57.3296   32.9106   43.3436 H   0  0  0  0  0  0  0  0  0  0  0  0
   58.1772   33.2835   45.6705 H   0  0  0  0  0  0  0  0  0  0  0  0
   58.4787   31.3313   47.2382 H   0  0  0  0  0  0  0  0  0  0  0  0
   57.4455   28.8792   48.4201 H   0  0  0  0  0  0  0  0  0  0  0  0
   58.2936   27.3661   47.9226 H   0  0  0  0  0  0  0  0  0  0  0  0
   58.7460   30.7110   49.2120 H   0  0  0  0  0  0  0  0  0  0  0  0
   61.0412   30.7554   46.4833 H   0  0  0  0  0  0  0  0  0  0  0  0
   63.0234   32.2371   46.2186 H   0  0  0  0  0  0  0  0  0  0  0  0
   64.5321   34.1252   49.0896 H   0  0  0  0  0  0  0  0  0  0  0  0
   64.9175   33.2988   47.5420 H   0  0  0  0  0  0  0  0  0  0  0  0
   63.8883   34.7710   47.5420 H   0  0  0  0  0  0  0  0  0  0  0  0
   62.6009   33.5379   50.3245 H   0  0  0  0  0  0  0  0  0  0  0  0
   60.6153   32.0564   50.5929 H   0  0  0  0  0  0  0  0  0  0  0  0
   54.8111   24.0381   46.2230 H   0  0  0  0  0  0  0  0  0  0  0  0
  1  2  1  0
  2  3  2  0
  2  4  1  0
  4  5  2  0
  5  6  1  0
  6  7  2  0
  7  8  1  0
  8  9  2  0
  9 10  1  0
 10 11  2  0
 11 12  1  0
 12 13  2  0
 13 14  1  0
 14 15  2  0
 15 16  1  0
 16 17  1  0
 17 18  1  0
 18 19  2  0
 18 20  1  0
 20 21  1  0
 21 22  2  0
 22 23  1  0
 23 24  2  0
 24 25  1  0
 24 26  1  0
 26 27  2  0
  7 28  1  0
 28 29  1  0
 28 30  2  0
 30  4  1  0
 16  8  1  0
 27 21  1  0
 15 10  1  0
  1 31  1  0
  1 32  1  0
  1 33  1  0
  5 34  1  0
  6 35  1  0
 11 36  1  0
 12 37  1  0
 13 38  1  0
 14 39  1  0
 17 40  1  0
 17 41  1  0
 20 42  1  0
 22 43  1  0
 23 44  1  0
 25 45  1  0
 25 46  1  0
 25 47  1  0
 26 48  1  0
 27 49  1  0
 30 50  1  0
M  CHG  1  29  -1
M  END
>  <UniqueID>  (47) 
40

>  <SMILES>  (47) 
CC(=O)c1ccc(-c2nc3ccccc3n2CC(=O)Nc2ccc(C)cc2)c([O-])c1

>  <Energy>  (47) 
96.00961513846639

>  <Genealogy>  (47) 
CC(=O)c1ccc(-c2nc3ccccc3n2CC(=O)Nc2ccc(C)cc2)c([O-])c1 (protonated)
CC(=O)c1ccc(-c2nc3ccccc3n2CC(=O)Nc2ccc(C)cc2)c([O-])c1 (3D coordinates assigned)
CC(=O)c1ccc(-c2nc3ccccc3n2CC(=O)Nc2ccc(C)cc2)c([O-])c1 (optimized conformer: 96.00961513846639 kcal/mol)

>  <smiles>  (47) 
CC(=O)c1ccc(-c2nc3ccccc3n2CC(=O)Nc2ccc(C)cc2)c(O)c1

>  <score_type>  (47) 
oracle

>  <origin>  (47) 
adg

>  <m_score__min__energy>  (47) 
-12.67

>  <m_primary>  (47) 
energy

$$$$
47:0
     RDKit          3D

 51 53  0  0  0  0  0  0  0  0999 V2000
   55.4040   25.1550   45.6150 C   0  0  0  0  0  0  0  0  0  0  0  0
   55.4930   26.5170   46.0220 O   0  0  0  0  0  0  0  0  0  0  0  0
   56.6760   27.2740   46.0130 C   0  0  0  0  0  0  0  0  0  0  0  0
   57.8630   26.8090   46.6050 C   0  0  0  0  0  0  0  0  0  0  0  0
   59.0220   27.5880   46.5740 C   0  0  0  0  0  0  0  0  0  0  0  0
   59.0190   28.8470   45.9530 C   0  0  0  0  0  0  0  0  0  0  0  0
   60.2490   29.6740   45.9220 C   0  0  0  0  0  0  0  0  0  0  0  0
   61.2260   29.3230   45.2080 O   0  0  0  0  0  0  0  0  0  0  0  0
   60.3030   30.9020   46.6630 N   0  0  0  0  0  0  0  0  0  0  0  0
   59.5420   32.0920   46.4110 C   0  0  0  0  0  0  0  0  0  0  0  0
   58.6490   32.1730   45.3250 C   0  0  0  0  0  0  0  0  0  0  0  0
   57.9640   33.3610   45.0610 C   0  0  0  0  0  0  0  0  0  0  0  0
   58.1700   34.4820   45.8650 C   0  0  0  0  0  0  0  0  0  0  0  0
   59.0690   34.4220   46.9310 C   0  0  0  0  0  0  0  0  0  0  0  0
   59.7640   33.2340   47.2100 C   0  0  0  0  0  0  0  0  0  0  0  0
   60.6750   33.1890   48.3250 N   0  0  0  0  0  0  0  0  0  0  0  0
   61.7530   34.1770   48.4370 C   0  0  0  0  0  0  0  0  0  0  0  0
   62.9140   33.6210   49.2790 C   0  0  0  0  0  0  0  0  0  0  0  0
   63.1550   32.1840   49.0100 N   0  0  0  0  0  0  0  0  0  0  0  0
   63.6460   31.9680   47.6350 C   0  0  0  0  0  0  0  0  0  0  0  0
   61.9700   31.3270   49.3080 C   0  0  0  0  0  0  0  0  0  0  0  0
   60.6260   32.0810   49.2810 C   0  0  0  0  0  0  0  0  0  0  0  0
   57.8300   29.3120   45.3620 C   0  0  0  0  0  0  0  0  0  0  0  0
   56.6580   28.5300   45.3890 C   0  0  0  0  0  0  0  0  0  0  0  0
   55.4570   28.9660   44.8070 O   0  0  0  0  0  0  0  0  0  0  0  0
   55.3710   29.7760   43.6380 C   0  0  0  0  0  0  0  0  0  0  0  0
   55.3618   24.5087   46.5041 H   0  0  0  0  0  0  0  0  0  0  0  0
   54.4945   25.0108   45.0133 H   0  0  0  0  0  0  0  0  0  0  0  0
   56.2870   24.8937   45.0133 H   0  0  0  0  0  0  0  0  0  0  0  0
   57.8793   25.8248   47.0961 H   0  0  0  0  0  0  0  0  0  0  0  0
   59.9447   27.2119   47.0400 H   0  0  0  0  0  0  0  0  0  0  0  0
   58.4901   31.2955   44.6810 H   0  0  0  0  0  0  0  0  0  0  0  0
   57.2604   33.4128   44.2171 H   0  0  0  0  0  0  0  0  0  0  0  0
   57.6235   35.4141   45.6588 H   0  0  0  0  0  0  0  0  0  0  0  0
   59.2343   35.3114   47.5569 H   0  0  0  0  0  0  0  0  0  0  0  0
   62.1225   34.4240   47.4308 H   0  0  0  0  0  0  0  0  0  0  0  0
   61.3579   35.0775   48.9299 H   0  0  0  0  0  0  0  0  0  0  0  0
   63.8277   34.1852   49.0408 H   0  0  0  0  0  0  0  0  0  0  0  0
   62.6462   33.7282   50.3405 H   0  0  0  0  0  0  0  0  0  0  0  0
   63.9310   31.8840   49.6490 H   0  0  0  0  0  0  0  0  0  0  0  0
   64.6524   31.5253   47.6703 H   0  0  0  0  0  0  0  0  0  0  0  0
   62.9641   31.2868   47.1049 H   0  0  0  0  0  0  0  0  0  0  0  0
   63.6874   32.9310   47.1049 H   0  0  0  0  0  0  0  0  0  0  0  0
   61.9293   30.5214   48.5601 H   0  0  0  0  0  0  0  0  0  0  0  0
   62.1013   30.9489   50.3326 H   0  0  0  0  0  0  0  0  0  0  0  0
   59.8269   31.3848   48.9866 H   0  0  0  0  0  0  0  0  0  0  0  0
   60.4272   32.4869   50.2839 H   0  0  0  0  0  0  0  0  0  0  0  0
   57.8150   30.2973   44.8732 H   0  0  0  0  0  0  0  0  0  0  0  0
   55.2590   30.8306   43.9301 H   0  0  0  0  0  0  0  0  0  0  0  0
   56.2869   29.6562   43.0407 H   0  0  0  0  0  0  0  0  0  0  0  0
   54.5007   29.4666   43.0407 H   0  0  0  0  0  0  0  0  0  0  0  0
  1  2  1  0
  2  3  1  0
  3  4  2  0
  4  5  1  0
  5  6  2  0
  6  7  1  0
  7  8  2  0
  7  9  1  0
  9 10  1  0
 10 11  2  0
 11 12  1  0
 12 13  2  0
 13 14  1  0
 14 15  2  0
 15 16  1  0
 16 17  1  0
 17 18  1  0
 18 19  1  0
 19 20  1  0
 19 21  1  0
 21 22  1  0
  6 23  1  0
 23 24  2  0
 24 25  1  0
 25 26  1  0
 24  3  1  0
 15 10  1  0
 22 16  1  0
  1 27  1  0
  1 28  1  0
  1 29  1  0
  4 30  1  0
  5 31  1  0
 11 32  1  0
 12 33  1  0
 13 34  1  0
 14 35  1  0
 17 36  1  0
 17 37  1  0
 18 38  1  0
 18 39  1  0
 19 40  1  0
 20 41  1  0
 20 42  1  0
 20 43  1  0
 21 44  1  0
 21 45  1  0
 22 46  1  0
 22 47  1  0
 23 48  1  0
 26 49  1  0
 26 50  1  0
 26 51  1  0
M  CHG  2   9  -1  19   1
M  END
>  <UniqueID>  (48) 
41

>  <SMILES>  (48) 
COc1ccc(C(=O)[N-]c2ccccc2N2CC[NH+](C)CC2)cc1OC

>  <Energy>  (48) 
67.81295179216008

>  <Genealogy>  (48) 
COc1ccc(C(=O)[N-]c2ccccc2N2CC[NH+](C)CC2)cc1OC (protonated)
COc1ccc(C(=O)[N-]c2ccccc2N2CC[NH+](C)CC2)cc1OC (3D coordinates assigned)
COc1ccc(C(=O)[N-]c2ccccc2N2CC[NH+](C)CC2)cc1OC (nonaromatic ring conformer: 67.81295179216008 kcal/mol)

>  <smiles>  (48) 
COc1ccc(C(=O)Nc2ccccc2N2CCN(C)CC2)cc1OC

>  <score_type>  (48) 
oracle

>  <origin>  (48) 
adg

>  <m_score__min__energy>  (48) 
-7.8700000000000001

>  <m_primary>  (48) 
energy

$$$$
48:0
     RDKit          3D

 39 42  0  0  0  0  0  0  0  0999 V2000
   56.1860   34.5900   45.6480 H   0  0  0  0  0  0  0  0  0  0  0  0
   56.9980   34.2440   45.0920 N   0  0  0  0  0  0  0  0  0  0  0  0
   58.0560   33.7380   45.6420 C   0  0  0  0  0  0  0  0  0  0  0  0
   59.0620   34.5030   46.1250 N   0  0  0  0  0  0  0  0  0  0  0  0
   59.9910   33.6620   46.5460 N   0  0  0  0  0  0  0  0  0  0  0  0
   61.1790   33.9810   47.1150 C   0  0  0  0  0  0  0  0  0  0  0  0
   61.4729   35.0306   47.2636 H   0  0  0  0  0  0  0  0  0  0  0  0
   62.0210   32.9330   47.5080 C   0  0  0  0  0  0  0  0  0  0  0  0
   62.9984   33.1426   47.9670 H   0  0  0  0  0  0  0  0  0  0  0  0
   61.5940   31.6050   47.3050 C   0  0  0  0  0  0  0  0  0  0  0  0
   62.2408   30.7701   47.6127 H   0  0  0  0  0  0  0  0  0  0  0  0
   60.3830   31.3480   46.7290 N   0  0  0  0  0  0  0  0  0  0  0  0
   60.0610   30.3640   46.6080 H   0  0  0  0  0  0  0  0  0  0  0  0
   59.6070   32.3930   46.3440 C   0  0  0  0  0  0  0  0  0  0  0  0
   58.3550   32.3760   45.7630 C   0  0  0  0  0  0  0  0  0  0  0  0
   57.5680   31.2040   45.3380 C   0  0  0  0  0  0  0  0  0  0  0  0
   57.7160   30.0210   45.9920 N   0  0  0  0  0  0  0  0  0  0  0  0
   57.0210   28.9100   45.6160 C   0  0  0  0  0  0  0  0  0  0  0  0
   57.2070   27.7640   46.2050 N   0  0  0  0  0  0  0  0  0  0  0  0
   57.0020   26.4660   45.6240 C   0  0  0  0  0  0  0  0  0  0  0  0
   57.7570   26.0970   44.5050 C   0  0  0  0  0  0  0  0  0  0  0  0
   58.5043   26.7929   44.0961 H   0  0  0  0  0  0  0  0  0  0  0  0
   57.5670   24.8480   43.9030 C   0  0  0  0  0  0  0  0  0  0  0  0
   58.1744   24.5605   43.0321 H   0  0  0  0  0  0  0  0  0  0  0  0
   56.6050   23.9630   44.4070 C   0  0  0  0  0  0  0  0  0  0  0  0
   56.3560   22.3940   43.6480 S   0  0  0  0  0  0  0  0  0  0  0  0
   57.6830   21.7750   43.3050 O   0  0  0  0  0  0  0  0  0  0  0  0
   55.5490   22.5680   42.3930 O   0  0  0  0  0  0  0  0  0  0  0  0
   55.5160   21.3410   44.7320 N   0  0  0  0  0  0  0  0  0  0  0  0
   54.5120   21.6290   44.7180 H   0  0  0  0  0  0  0  0  0  0  0  0
   55.8180   24.3450   45.5000 C   0  0  0  0  0  0  0  0  0  0  0  0
   55.0482   23.6613   45.8873 H   0  0  0  0  0  0  0  0  0  0  0  0
   56.0080   25.5940   46.1010 C   0  0  0  0  0  0  0  0  0  0  0  0
   55.3770   25.8949   46.9503 H   0  0  0  0  0  0  0  0  0  0  0  0
   56.1610   28.9810   44.5670 N   0  0  0  0  0  0  0  0  0  0  0  0
   55.9680   30.1450   43.8950 C   0  0  0  0  0  0  0  0  0  0  0  0
   55.2563   30.1851   43.0573 H   0  0  0  0  0  0  0  0  0  0  0  0
   56.6720   31.2890   44.2670 C   0  0  0  0  0  0  0  0  0  0  0  0
   56.5263   32.2380   43.7302 H   0  0  0  0  0  0  0  0  0  0  0  0
  1  2  1  0
  2  3  2  0
  3  4  1  0
  4  5  1  0
  5  6  1  0
  6  7  1  0
  6  8  2  0
  8  9  1  0
  8 10  1  0
 10 11  1  0
 10 12  2  0
 12 13  1  0
 12 14  1  0
 14 15  2  0
 15 16  1  0
 16 17  2  0
 17 18  1  0
 18 19  2  3
 19 20  1  0
 20 21  2  0
 21 22  1  0
 21 23  1  0
 23 24  1  0
 23 25  2  0
 25 26  1  0
 26 27  2  0
 26 28  2  0
 26 29  1  0
 29 30  1  0
 25 31  1  0
 31 32  1  0
 31 33  2  0
 33 34  1  0
 18 35  1  0
 35 36  1  0
 36 37  1  0
 36 38  2  0
 38 39  1  0
 15  3  1  0
 38 16  1  0
 14  5  1  0
 33 20  1  0
M  CHG  4   4  -1  12   1  29  -1  35  -1
M  END
>  <UniqueID>  (49) 
42

>  <SMILES>  (49) 
[H]/N=c1/[n-]n2ccc[nH+]c2c1-c1cc[n-]c(=Nc2ccc(S([NH-])(=O)=O)cc2)n1

>  <Energy>  (49) 
93.49681638080637

>  <Genealogy>  (49) 
N=c1[n-]n2ccc[nH+]c2c1-c1cc[n-]c(=Nc2ccc(S([NH-])(=O)=O)cc2)n1 (protonated)
[H]/N=c1/[n-]n2ccc[nH+]c2c1-c1cc[n-]c(=Nc2ccc(S([NH-])(=O)=O)cc2)n1 (cis-trans isomerization)
[H]/N=c1/[n-]n2ccc[nH+]c2c1-c1cc[n-]c(=Nc2ccc(S([NH-])(=O)=O)cc2)n1 (3D coordinates assigned)
[H]/N=c1/[n-]n2ccc[nH+]c2c1-c1cc[n-]c(=Nc2ccc(S([NH-])(=O)=O)cc2)n1 (optimized conformer: 93.49681638080637 kcal/mol)

>  <smiles>  (49) 
N=c1[nH]n2cccnc2c1-c1cc[nH]c(=Nc2ccc(S(N)(=O)=O)cc2)n1

>  <score_type>  (49) 
oracle

>  <origin>  (49) 
adg

>  <m_score__min__energy>  (49) 
-11.32

>  <m_primary>  (49) 
energy

$$$$
49:0
     RDKit          3D

 56 60  0  0  0  0  0  0  0  0999 V2000
   59.8756   30.8491   45.3659 H   0  0  0  0  0  0  0  0  0  0  0  0
   58.9650   30.3120   45.0620 C   0  0  0  0  0  0  0  0  0  0  0  0
   59.0490   29.0560   44.5500 N   0  0  0  0  0  0  0  0  0  0  0  0
   57.9400   28.3590   44.1840 C   0  0  0  0  0  0  0  0  0  0  0  0
   58.0830   26.9690   43.6040 C   0  0  0  0  0  0  0  0  0  0  0  0
   57.1931   26.7567   42.9932 H   0  0  0  0  0  0  0  0  0  0  0  0
   59.0133   26.9653   43.0170 H   0  0  0  0  0  0  0  0  0  0  0  0
   58.2160   25.8970   44.6210 N   0  0  0  0  0  0  0  0  0  0  0  0
   56.9380   25.2930   45.0130 C   0  0  0  0  0  0  0  0  0  0  0  0
   56.1670   25.5334   44.2661 H   0  0  0  0  0  0  0  0  0  0  0  0
   57.0358   24.1991   45.0748 H   0  0  0  0  0  0  0  0  0  0  0  0
   56.5420   25.8650   46.3660 C   0  0  0  0  0  0  0  0  0  0  0  0
   55.7418   26.6103   46.2468 H   0  0  0  0  0  0  0  0  0  0  0  0
   56.1606   25.0828   47.0388 H   0  0  0  0  0  0  0  0  0  0  0  0
   57.7920   26.5180   46.9240 C   0  0  0  0  0  0  0  0  0  0  0  0
   57.6143   27.5875   47.1102 H   0  0  0  0  0  0  0  0  0  0  0  0
   58.0902   26.0661   47.8815 H   0  0  0  0  0  0  0  0  0  0  0  0
   58.8690   26.3370   45.8610 C   0  0  0  0  0  0  0  0  0  0  0  0
   59.3888   27.2913   45.6904 H   0  0  0  0  0  0  0  0  0  0  0  0
   59.6070   25.5902   46.1891 H   0  0  0  0  0  0  0  0  0  0  0  0
   56.6820   28.9540   44.3500 C   0  0  0  0  0  0  0  0  0  0  0  0
   55.7694   28.4075   44.0700 H   0  0  0  0  0  0  0  0  0  0  0  0
   56.5980   30.2100   44.8590 N   0  0  0  0  0  0  0  0  0  0  0  0
   57.7050   30.9190   45.2000 C   0  0  0  0  0  0  0  0  0  0  0  0
   57.5400   32.2380   45.7530 N   0  0  0  0  0  0  0  0  0  0  0  0
   58.4540   33.1530   45.8900 C   0  0  0  0  0  0  0  0  0  0  0  0
   59.5270   32.9030   46.6880 N   0  0  0  0  0  0  0  0  0  0  0  0
   60.5060   33.8290   46.8830 C   0  0  0  0  0  0  0  0  0  0  0  0
   61.6470   33.5100   47.7760 C   0  0  0  0  0  0  0  0  0  0  0  0
   62.8180   32.9530   47.2510 C   0  0  0  0  0  0  0  0  0  0  0  0
   62.8983   32.7670   46.1698 H   0  0  0  0  0  0  0  0  0  0  0  0
   63.8550   32.6410   48.0680 N   0  0  0  0  0  0  0  0  0  0  0  0
   63.8340   32.8620   49.4120 C   0  0  0  0  0  0  0  0  0  0  0  0
   64.9960   32.4810   50.1870 N   0  0  0  0  0  0  0  0  0  0  0  0
   66.2980   33.1280   50.1310 C   0  0  0  0  0  0  0  0  0  0  0  0
   66.5614   33.3701   49.0908 H   0  0  0  0  0  0  0  0  0  0  0  0
   66.3061   34.0726   50.6947 H   0  0  0  0  0  0  0  0  0  0  0  0
   67.2850   32.1210   50.7080 C   0  0  0  0  0  0  0  0  0  0  0  0
   67.8038   31.5838   49.9003 H   0  0  0  0  0  0  0  0  0  0  0  0
   68.0613   32.6095   51.3153 H   0  0  0  0  0  0  0  0  0  0  0  0
   66.4410   31.1580   51.5330 C   0  0  1  0  0  0  0  0  0  0  0  0
   66.8472   30.1358   51.5279 H   0  0  0  0  0  0  0  0  0  0  0  0
   66.3960   31.5890   52.8470 F   0  0  0  0  0  0  0  0  0  0  0  0
   65.0490   31.2250   50.9190 C   0  0  0  0  0  0  0  0  0  0  0  0
   64.8908   30.3772   50.2361 H   0  0  0  0  0  0  0  0  0  0  0  0
   64.2651   31.1730   51.6889 H   0  0  0  0  0  0  0  0  0  0  0  0
   62.6700   33.4290   49.9870 C   0  0  0  0  0  0  0  0  0  0  0  0
   62.5180   33.6510   51.4020 C   0  0  0  0  0  0  0  0  0  0  0  0
   62.4010   33.8180   52.5400 N   0  0  0  0  0  0  0  0  0  0  0  0
   61.5890   33.7530   49.1580 C   0  0  0  0  0  0  0  0  0  0  0  0
   60.6847   34.2027   49.5939 H   0  0  0  0  0  0  0  0  0  0  0  0
   60.3940   35.0800   46.2560 C   0  0  0  0  0  0  0  0  0  0  0  0
   61.1684   35.8488   46.3950 H   0  0  0  0  0  0  0  0  0  0  0  0
   59.2820   35.3280   45.4540 C   0  0  0  0  0  0  0  0  0  0  0  0
   59.1716   36.3012   44.9533 H   0  0  0  0  0  0  0  0  0  0  0  0
   58.3350   34.3700   45.2900 N   0  0  0  0  0  0  0  0  0  0  0  0
  1  2  1  0
  2  3  2  0
  3  4  1  0
  4  5  1  0
  5  6  1  0
  5  7  1  0
  5  8  1  0
  8  9  1  0
  9 10  1  0
  9 11  1  0
  9 12  1  0
 12 13  1  0
 12 14  1  0
 12 15  1  0
 15 16  1  0
 15 17  1  0
 15 18  1  0
 18 19  1  0
 18 20  1  0
  4 21  2  0
 21 22  1  0
 21 23  1  0
 23 24  2  0
 24 25  1  0
 25 26  2  0
 26 27  1  0
 27 28  2  0
 28 29  1  0
 29 30  2  0
 30 31  1  0
 30 32  1  0
 32 33  2  0
 33 34  1  0
 34 35  1  0
 35 36  1  0
 35 37  1  0
 35 38  1  0
 38 39  1  0
 38 40  1  0
 38 41  1  0
 41 42  1  1
 41 43  1  0
 41 44  1  0
 44 45  1  0
 44 46  1  0
 33 47  1  0
 47 48  1  0
 48 49  3  0
 47 50  2  0
 50 51  1  0
 28 52  1  0
 52 53  1  0
 52 54  2  0
 54 55  1  0
 54 56  1  0
 24  2  1  0
 56 26  1  0
 18  8  1  0
 50 29  1  0
 44 34  1  0
M  CHG  1  56  -1
M  END
>  <UniqueID>  (50) 
43

>  <SMILES>  (50) 
N#Cc1cc(-c2cc[n-]/c(=N\c3cnc(CN4CCCC4)cn3)n2)cnc1N1CC[C@@H](F)C1

>  <Energy>  (50) 
83.09779058795654

>  <Genealogy>  (50) 
N#Cc1cc(-c2cc[n-]c(=Nc3cnc(CN4CCCC4)cn3)n2)cnc1N1CCC(F)C1 (protonated)
N#Cc1cc(-c2cc[n-]c(=Nc3cnc(CN4CCCC4)cn3)n2)cnc1N1CC[C@@H](F)C1 (chirality)
N#Cc1cc(-c2cc[n-]/c(=N\c3cnc(CN4CCCC4)cn3)n2)cnc1N1CC[C@@H](F)C1 (cis-trans isomerization)
N#Cc1cc(-c2cc[n-]/c(=N\c3cnc(CN4CCCC4)cn3)n2)cnc1N1CC[C@@H](F)C1 (3D coordinates assigned)
N#Cc1cc(-c2cc[n-]/c(=N\c3cnc(CN4CCCC4)cn3)n2)cnc1N1CC[C@@H](F)C1 (nonaromatic ring conformer: 83.09779058795654 kcal/mol)

>  <smiles>  (50) 
N#Cc1cc(-c2cc[nH]c(=Nc3cnc(CN4CCCC4)cn3)n2)cnc1N1CCC(F)C1

>  <score_type>  (50) 
oracle

>  <origin>  (50) 
adg

>  <m_score__min__energy>  (50) 
-10.050000000000001

>  <m_primary>  (50) 
energy

$$$$
50:0
     RDKit          3D

 30 31  0  0  0  0  0  0  0  0999 V2000
   56.9200   24.6300   45.4680 C   0  0  0  0  0  0  0  0  0  0  0  0
   56.5900   26.0500   45.4870 N   0  0  0  0  0  0  0  0  0  0  0  0
   55.3650   26.4480   45.9800 O   0  0  0  0  0  0  0  0  0  0  0  0
   57.4100   26.9160   45.0390 C   0  0  0  0  0  0  0  0  0  0  0  0
   58.2500   27.8070   44.5830 C   0  0  0  0  0  0  0  0  0  0  0  0
   58.0050   29.2560   44.7830 C   0  0  0  0  0  0  0  0  0  0  0  0
   57.0010   29.8380   43.9980 C   0  0  0  0  0  0  0  0  0  0  0  0
   56.7830   31.2050   44.0480 C   0  0  0  0  0  0  0  0  0  0  0  0
   57.5880   32.0080   44.8530 C   0  0  0  0  0  0  0  0  0  0  0  0
   57.4100   33.4000   44.8540 C   0  0  0  0  0  0  0  0  0  0  0  0
   58.2340   34.2120   45.6330 C   0  0  0  0  0  0  0  0  0  0  0  0
   59.2420   33.6430   46.4080 C   0  0  0  0  0  0  0  0  0  0  0  0
   59.4270   32.2580   46.4220 C   0  0  0  0  0  0  0  0  0  0  0  0
   58.5880   31.4060   45.6600 C   0  0  0  0  0  0  0  0  0  0  0  0
   58.7270   30.0280   45.6750 N   0  0  0  0  0  0  0  0  0  0  0  0
   59.6120   29.3840   46.6670 C   0  0  0  0  0  0  0  0  0  0  0  0
   57.0060   24.2597   46.5002 H   0  0  0  0  0  0  0  0  0  0  0  0
   56.1266   24.0762   44.9447 H   0  0  0  0  0  0  0  0  0  0  0  0
   57.8763   24.4828   44.9447 H   0  0  0  0  0  0  0  0  0  0  0  0
   55.1290   26.3410   46.9600 H   0  0  0  0  0  0  0  0  0  0  0  0
   59.1506   27.4781   44.0438 H   0  0  0  0  0  0  0  0  0  0  0  0
   56.3843   29.2078   43.3403 H   0  0  0  0  0  0  0  0  0  0  0  0
   55.9753   31.6560   43.4528 H   0  0  0  0  0  0  0  0  0  0  0  0
   56.6182   33.8520   44.2386 H   0  0  0  0  0  0  0  0  0  0  0  0
   58.0878   35.3022   45.6354 H   0  0  0  0  0  0  0  0  0  0  0  0
   59.8964   34.2880   47.0127 H   0  0  0  0  0  0  0  0  0  0  0  0
   60.2331   31.8235   47.0314 H   0  0  0  0  0  0  0  0  0  0  0  0
   59.2685   29.6339   47.6817 H   0  0  0  0  0  0  0  0  0  0  0  0
   59.5848   28.2930   46.5290 H   0  0  0  0  0  0  0  0  0  0  0  0
   60.6417   29.7455   46.5290 H   0  0  0  0  0  0  0  0  0  0  0  0
  1  2  1  0
  2  3  1  0
  2  4  2  0
  4  5  2  0
  5  6  1  0
  6  7  2  0
  7  8  1  0
  8  9  2  0
  9 10  1  0
 10 11  2  0
 11 12  1  0
 12 13  2  0
 13 14  1  0
 14 15  2  0
 15 16  1  0
 15  6  1  0
 14  9  1  0
  1 17  1  0
  1 18  1  0
  1 19  1  0
  3 20  1  0
  5 21  1  0
  7 22  1  0
  8 23  1  0
 10 24  1  0
 11 25  1  0
 12 26  1  0
 13 27  1  0
 16 28  1  0
 16 29  1  0
 16 30  1  0
M  CHG  2   2   1  15   1
M  END
>  <UniqueID>  (51) 
44

>  <SMILES>  (51) 
C[N+](O)=C=Cc1ccc2ccccc2[n+]1C

>  <Energy>  (51) 
40.80440934238544

>  <Genealogy>  (51) 
C[N+](O)=C=Cc1ccc2ccccc2[n+]1C (protonated)
C[N+](O)=C=Cc1ccc2ccccc2[n+]1C (3D coordinates assigned)
C[N+](O)=C=Cc1ccc2ccccc2[n+]1C (optimized conformer: 40.80440934238544 kcal/mol)

>  <smiles>  (51) 
C[N+]([O-])=C=Cc1ccc2ccccc2[n+]1C

>  <score_type>  (51) 
oracle

>  <origin>  (51) 
adg

>  <m_score__min__energy>  (51) 
-3.8300000000000001

>  <m_primary>  (51) 
energy

$$$$
51:0
     RDKit          3D

 33 34  0  0  0  0  0  0  0  0999 V2000
   63.2340   32.7850   47.4650 C   0  0  0  0  0  0  0  0  0  0  0  0
   62.1290   33.7850   47.5140 C   0  0  0  0  0  0  0  0  0  0  0  0
   61.7200   34.2110   48.6260 O   0  0  0  0  0  0  0  0  0  0  0  0
   61.5080   34.2120   46.3000 N   0  0  0  0  0  0  0  0  0  0  0  0
   59.8200   34.5860   46.2060 S   0  0  0  0  0  0  0  0  0  0  0  0
   59.3890   35.2190   47.4980 O   0  0  0  0  0  0  0  0  0  0  0  0
   59.5910   35.5560   45.0820 O   0  0  0  0  0  0  0  0  0  0  0  0
   58.8980   33.1190   45.8970 C   0  0  0  0  0  0  0  0  0  0  0  0
   58.8670   32.0870   46.8430 C   0  0  0  0  0  0  0  0  0  0  0  0
   58.1320   30.9240   46.5930 C   0  0  0  0  0  0  0  0  0  0  0  0
   57.4320   30.7750   45.3810 C   0  0  0  0  0  0  0  0  0  0  0  0
   56.6370   29.6100   45.0970 N   0  0  0  0  0  0  0  0  0  0  0  0
   56.8890   28.3850   45.4560 C   0  0  0  0  0  0  0  0  0  0  0  0
   58.1750   28.0210   45.7080 N   0  0  0  0  0  0  0  0  0  0  0  0
   58.4870   26.7610   46.1130 C   0  0  0  0  0  0  0  0  0  0  0  0
   59.9140   26.3890   46.3590 C   0  0  0  0  0  0  0  0  0  0  0  0
   57.4700   25.8150   46.2750 C   0  0  0  0  0  0  0  0  0  0  0  0
   56.1540   26.2050   46.0250 C   0  0  0  0  0  0  0  0  0  0  0  0
   55.2120   25.3830   46.1670 O   0  0  0  0  0  0  0  0  0  0  0  0
   55.8890   27.4760   45.6270 N   0  0  0  0  0  0  0  0  0  0  0  0
   57.4370   31.8260   44.4560 C   0  0  0  0  0  0  0  0  0  0  0  0
   58.1710   32.9880   44.7060 C   0  0  0  0  0  0  0  0  0  0  0  0
   63.5310   32.5162   48.4895 H   0  0  0  0  0  0  0  0  0  0  0  0
   62.8904   31.8846   46.9347 H   0  0  0  0  0  0  0  0  0  0  0  0
   64.0957   33.2165   46.9347 H   0  0  0  0  0  0  0  0  0  0  0  0
   59.4230   32.1916   47.7864 H   0  0  0  0  0  0  0  0  0  0  0  0
   58.1008   30.1228   47.3461 H   0  0  0  0  0  0  0  0  0  0  0  0
   60.0988   26.3408   47.4423 H   0  0  0  0  0  0  0  0  0  0  0  0
   60.1200   25.4071   45.9079 H   0  0  0  0  0  0  0  0  0  0  0  0
   60.5731   27.1453   45.9079 H   0  0  0  0  0  0  0  0  0  0  0  0
   57.7021   24.7876   46.5921 H   0  0  0  0  0  0  0  0  0  0  0  0
   56.8583   31.7360   43.5249 H   0  0  0  0  0  0  0  0  0  0  0  0
   58.1784   33.8021   43.9663 H   0  0  0  0  0  0  0  0  0  0  0  0
  1  2  1  0
  2  3  2  0
  2  4  1  0
  4  5  1  0
  5  6  2  0
  5  7  2  0
  5  8  1  0
  8  9  2  0
  9 10  1  0
 10 11  2  0
 11 12  1  0
 12 13  2  3
 13 14  1  0
 14 15  1  0
 15 16  1  0
 15 17  2  0
 17 18  1  0
 18 19  2  0
 18 20  1  0
 11 21  1  0
 21 22  2  0
 22  8  1  0
 20 13  1  0
  1 23  1  0
  1 24  1  0
  1 25  1  0
  9 26  1  0
 10 27  1  0
 16 28  1  0
 16 29  1  0
 16 30  1  0
 17 31  1  0
 21 32  1  0
 22 33  1  0
M  CHG  3   4  -1  14  -1  20  -1
M  END
>  <UniqueID>  (52) 
45

>  <SMILES>  (52) 
CC(=O)[N-]S(=O)(=O)c1ccc(N=c2[n-]c(C)cc(=O)[n-]2)cc1

>  <Energy>  (52) 
39.66888785148533

>  <Genealogy>  (52) 
CC(=O)[N-]S(=O)(=O)c1ccc(N=c2[n-]c(C)cc(=O)[n-]2)cc1 (protonated)
CC(=O)[N-]S(=O)(=O)c1ccc(N=c2[n-]c(C)cc(=O)[n-]2)cc1 (3D coordinates assigned)
CC(=O)[N-]S(=O)(=O)c1ccc(N=c2[n-]c(C)cc(=O)[n-]2)cc1 (optimized conformer: 39.66888785148533 kcal/mol)

>  <smiles>  (52) 
CC(=O)NS(=O)(=O)c1ccc(N=c2[nH]c(C)cc(=O)[nH]2)cc1

>  <score_type>  (52) 
oracle

>  <origin>  (52) 
adg

>  <m_score__min__energy>  (52) 
-11.44

>  <m_primary>  (52) 
energy

$$$$
52:0
     RDKit          3D

 34 35  0  0  0  0  0  0  0  0999 V2000
   56.7100   34.6000   44.8800 C   0  0  0  0  0  0  0  0  0  0  0  0
   57.9990   33.9260   44.6890 N   0  0  0  0  0  0  0  0  0  0  0  0
   59.2360   34.6860   44.9190 C   0  0  0  0  0  0  0  0  0  0  0  0
   59.8560   34.3610   46.2590 C   0  0  0  0  0  0  0  0  0  0  0  0
   59.1020   34.5470   47.4310 C   0  0  0  0  0  0  0  0  0  0  0  0
   59.6420   34.2160   48.6790 C   0  0  0  0  0  0  0  0  0  0  0  0
   60.9310   33.6870   48.7680 C   0  0  0  0  0  0  0  0  0  0  0  0
   61.6820   33.4830   47.6080 C   0  0  0  0  0  0  0  0  0  0  0  0
   61.1490   33.8100   46.3580 C   0  0  0  0  0  0  0  0  0  0  0  0
   58.0280   32.5440   44.2640 C   0  0  0  0  0  0  0  0  0  0  0  0
   58.1080   32.1950   42.6560 S   0  0  0  0  0  0  0  0  0  0  0  0
   57.8830   31.4790   45.2240 N   0  0  0  0  0  0  0  0  0  0  0  0
   58.3040   30.1240   44.9890 C   0  0  0  0  0  0  0  0  0  0  0  0
   59.5540   29.6770   45.4510 C   0  0  0  0  0  0  0  0  0  0  0  0
   59.9470   28.3500   45.2550 C   0  0  0  0  0  0  0  0  0  0  0  0
   59.0920   27.4550   44.6100 C   0  0  0  0  0  0  0  0  0  0  0  0
   57.8390   27.8830   44.1650 C   0  0  0  0  0  0  0  0  0  0  0  0
   57.4370   29.2110   44.3570 C   0  0  0  0  0  0  0  0  0  0  0  0
   55.8580   29.7140   43.7690 Cl  0  0  0  0  0  0  0  0  0  0  0  0
   56.5075   34.7059   45.9560 H   0  0  0  0  0  0  0  0  0  0  0  0
   56.7442   35.5956   44.4136 H   0  0  0  0  0  0  0  0  0  0  0  0
   55.9118   34.0038   44.4136 H   0  0  0  0  0  0  0  0  0  0  0  0
   59.9567   34.4412   44.1249 H   0  0  0  0  0  0  0  0  0  0  0  0
   58.9850   35.7569   44.9101 H   0  0  0  0  0  0  0  0  0  0  0  0
   58.0824   34.9548   47.3667 H   0  0  0  0  0  0  0  0  0  0  0  0
   59.0493   34.3730   49.5922 H   0  0  0  0  0  0  0  0  0  0  0  0
   61.3546   33.4312   49.7504 H   0  0  0  0  0  0  0  0  0  0  0  0
   62.6964   33.0635   47.6785 H   0  0  0  0  0  0  0  0  0  0  0  0
   61.7415   33.6364   45.4476 H   0  0  0  0  0  0  0  0  0  0  0  0
   57.4930   31.6890   46.1690 H   0  0  0  0  0  0  0  0  0  0  0  0
   60.2269   30.3756   45.9698 H   0  0  0  0  0  0  0  0  0  0  0  0
   60.9314   28.0106   45.6096 H   0  0  0  0  0  0  0  0  0  0  0  0
   59.4049   26.4124   44.4521 H   0  0  0  0  0  0  0  0  0  0  0  0
   57.1651   27.1741   43.6616 H   0  0  0  0  0  0  0  0  0  0  0  0
  1  2  1  0
  2  3  1  0
  3  4  1  0
  4  5  2  0
  5  6  1  0
  6  7  2  0
  7  8  1  0
  8  9  2  0
  2 10  1  0
 10 11  2  0
 10 12  1  0
 12 13  1  0
 13 14  2  0
 14 15  1  0
 15 16  2  0
 16 17  1  0
 17 18  2  0
 18 19  1  0
  9  4  1  0
 18 13  1  0
  1 20  1  0
  1 21  1  0
  1 22  1  0
  3 23  1  0
  3 24  1  0
  5 25  1  0
  6 26  1  0
  7 27  1  0
  8 28  1  0
  9 29  1  0
 12 30  1  0
 14 31  1  0
 15 32  1  0
 16 33  1  0
 17 34  1  0
M  END
>  <UniqueID>  (53) 
46

>  <SMILES>  (53) 
CN(Cc1ccccc1)C(=S)Nc1ccccc1Cl

>  <Energy>  (53) 
42.47195285262831

>  <Genealogy>  (53) 
CN(Cc1ccccc1)C(=S)Nc1ccccc1Cl (3D coordinates assigned)
CN(Cc1ccccc1)C(=S)Nc1ccccc1Cl (optimized conformer: 42.47195285262831 kcal/mol)

>  <smiles>  (53) 
CN(Cc1ccccc1)C(=S)Nc1ccccc1Cl

>  <score_type>  (53) 
oracle

>  <origin>  (53) 
adg

>  <m_score__min__energy>  (53) 
-6.9400000000000004

>  <m_primary>  (53) 
energy

$$$$
53:0
     RDKit          3D

 46 49  0  0  0  0  0  0  0  0999 V2000
   64.7260   32.7640   49.8370 C   0  0  0  0  0  0  0  0  0  0  0  0
   63.7070   33.0200   48.7650 C   0  0  0  0  0  0  0  0  0  0  0  0
   64.1130   33.4540   47.4950 C   0  0  0  0  0  0  0  0  0  0  0  0
   63.1620   33.7320   46.5110 C   0  0  0  0  0  0  0  0  0  0  0  0
   61.8000   33.5880   46.7890 C   0  0  0  0  0  0  0  0  0  0  0  0
   61.3770   33.1590   48.0580 C   0  0  0  0  0  0  0  0  0  0  0  0
   59.9070   33.0190   48.3660 C   0  0  0  0  0  0  0  0  0  0  0  0
   59.2720   31.9130   47.5420 C   0  0  0  0  0  0  0  0  0  0  0  0
   59.5630   30.5340   47.7790 C   0  0  0  0  0  0  0  0  0  0  0  0
   60.5190   30.0930   48.8490 C   0  0  0  0  0  0  0  0  0  0  0  0
   58.9460   29.5680   47.0370 N   0  0  0  0  0  0  0  0  0  0  0  0
   58.0710   29.9260   46.0700 C   0  0  0  0  0  0  0  0  0  0  0  0
   57.3350   29.1130   45.2350 C   0  0  0  0  0  0  0  0  0  0  0  0
   57.3470   27.6350   45.1680 C   0  0  0  0  0  0  0  0  0  0  0  0
   57.7730   26.9710   44.0050 C   0  0  0  0  0  0  0  0  0  0  0  0
   57.7750   25.5730   43.9490 C   0  0  0  0  0  0  0  0  0  0  0  0
   57.3480   24.8270   45.0500 C   0  0  0  0  0  0  0  0  0  0  0  0
   56.9160   25.4770   46.2080 C   0  0  0  0  0  0  0  0  0  0  0  0
   56.9110   26.8740   46.2680 C   0  0  0  0  0  0  0  0  0  0  0  0
   56.5960   30.0280   44.4760 C   0  0  0  0  0  0  0  0  0  0  0  0
   55.6250   29.7140   43.3830 C   0  0  0  0  0  0  0  0  0  0  0  0
   56.8770   31.2960   44.8670 N   0  0  0  0  0  0  0  0  0  0  0  0
   57.7760   31.2050   45.8330 N   0  0  0  0  0  0  0  0  0  0  0  0
   58.3360   32.2250   46.5270 C   0  0  0  0  0  0  0  0  0  0  0  0
   58.0210   33.4170   46.2650 O   0  0  0  0  0  0  0  0  0  0  0  0
   62.3390   32.8940   49.0480 C   0  0  0  0  0  0  0  0  0  0  0  0
   64.2566   32.8819   50.8248 H   0  0  0  0  0  0  0  0  0  0  0  0
   65.1153   31.7402   49.7359 H   0  0  0  0  0  0  0  0  0  0  0  0
   65.5529   33.4823   49.7359 H   0  0  0  0  0  0  0  0  0  0  0  0
   65.1835   33.5758   47.2732 H   0  0  0  0  0  0  0  0  0  0  0  0
   63.4859   34.0653   45.5140 H   0  0  0  0  0  0  0  0  0  0  0  0
   61.0557   33.8116   46.0105 H   0  0  0  0  0  0  0  0  0  0  0  0
   59.7857   32.7846   49.4339 H   0  0  0  0  0  0  0  0  0  0  0  0
   59.4087   33.9672   48.1158 H   0  0  0  0  0  0  0  0  0  0  0  0
   60.0812   30.2949   49.8377 H   0  0  0  0  0  0  0  0  0  0  0  0
   60.7119   29.0149   48.7467 H   0  0  0  0  0  0  0  0  0  0  0  0
   61.4644   30.6460   48.7467 H   0  0  0  0  0  0  0  0  0  0  0  0
   58.1068   27.5537   43.1338 H   0  0  0  0  0  0  0  0  0  0  0  0
   58.1134   25.0605   43.0364 H   0  0  0  0  0  0  0  0  0  0  0  0
   57.3520   23.7279   45.0049 H   0  0  0  0  0  0  0  0  0  0  0  0
   56.5791   24.8890   47.0745 H   0  0  0  0  0  0  0  0  0  0  0  0
   56.5642   27.3809   47.1806 H   0  0  0  0  0  0  0  0  0  0  0  0
   54.6656   29.4038   43.8228 H   0  0  0  0  0  0  0  0  0  0  0  0
   55.4712   30.6082   42.7611 H   0  0  0  0  0  0  0  0  0  0  0  0
   56.0239   28.8991   42.7611 H   0  0  0  0  0  0  0  0  0  0  0  0
   62.0163   32.5852   50.0532 H   0  0  0  0  0  0  0  0  0  0  0  0
  1  2  1  0
  2  3  2  0
  3  4  1  0
  4  5  2  0
  5  6  1  0
  6  7  1  0
  7  8  1  0
  8  9  2  0
  9 10  1  0
  9 11  1  0
 11 12  2  0
 12 13  1  0
 13 14  1  0
 14 15  2  0
 15 16  1  0
 16 17  2  0
 17 18  1  0
 18 19  2  0
 13 20  2  0
 20 21  1  0
 20 22  1  0
 22 23  1  0
 23 24  1  0
 24 25  2  0
  6 26  2  0
 26  2  1  0
 24  8  1  0
 23 12  1  0
 19 14  1  0
  1 27  1  0
  1 28  1  0
  1 29  1  0
  3 30  1  0
  4 31  1  0
  5 32  1  0
  7 33  1  0
  7 34  1  0
 10 35  1  0
 10 36  1  0
 10 37  1  0
 15 38  1  0
 16 39  1  0
 17 40  1  0
 18 41  1  0
 19 42  1  0
 21 43  1  0
 21 44  1  0
 21 45  1  0
 26 46  1  0
M  CHG  1  22  -1
M  END
>  <UniqueID>  (54) 
47

>  <SMILES>  (54) 
Cc1cccc(Cc2c(C)nc3c(-c4ccccc4)c(C)[n-]n3c2=O)c1

>  <Energy>  (54) 
91.08631302852947

>  <Genealogy>  (54) 
Cc1cccc(Cc2c(C)nc3c(-c4ccccc4)c(C)[n-]n3c2=O)c1 (protonated)
Cc1cccc(Cc2c(C)nc3c(-c4ccccc4)c(C)[n-]n3c2=O)c1 (3D coordinates assigned)
Cc1cccc(Cc2c(C)nc3c(-c4ccccc4)c(C)[n-]n3c2=O)c1 (optimized conformer: 91.08631302852947 kcal/mol)

>  <smiles>  (54) 
Cc1cccc(Cc2c(C)nc3c(-c4ccccc4)c(C)[nH]n3c2=O)c1

>  <score_type>  (54) 
oracle

>  <origin>  (54) 
adg

>  <m_score__min__energy>  (54) 
-9.7799999999999994

>  <m_primary>  (54) 
energy

$$$$
54:0
     RDKit          3D

 75 78  0  0  0  0  0  0  0  0999 V2000
   54.6050   24.4230   45.4000 C   0  0  0  0  0  0  0  0  0  0  0  0
   54.8410   25.7400   45.8870 O   0  0  0  0  0  0  0  0  0  0  0  0
   56.1090   26.2600   46.1870 C   0  0  0  0  0  0  0  0  0  0  0  0
   56.9200   25.5570   47.0860 C   0  0  0  0  0  0  0  0  0  0  0  0
   58.1910   26.0330   47.4180 C   0  0  0  0  0  0  0  0  0  0  0  0
   58.6690   27.2280   46.8580 C   0  0  0  0  0  0  0  0  0  0  0  0
   60.0570   27.7130   47.1790 C   0  0  0  0  0  0  0  0  0  0  0  0
   60.0040   29.0860   47.7080 N   0  0  0  0  0  0  0  0  0  0  0  0
   59.4270   29.2930   48.9310 C   0  0  0  0  0  0  0  0  0  0  0  0
   59.3960   30.5710   49.5130 C   0  0  0  0  0  0  0  0  0  0  0  0
   58.7960   30.8080   50.8560 C   0  0  0  0  0  0  0  0  0  0  0  0
   57.8190   30.0920   51.2150 O   0  0  0  0  0  0  0  0  0  0  0  0
   59.2900   31.8530   51.7400 N   0  0  2  0  0  0  0  0  0  0  0  0
   60.6830   31.5700   52.1810 C   0  0  0  0  0  0  0  0  0  0  0  0
   61.6960   32.2060   51.2540 C   0  0  0  0  0  0  0  0  0  0  0  0
   62.7040   31.4210   50.6670 C   0  0  0  0  0  0  0  0  0  0  0  0
   63.6670   32.0110   49.8430 C   0  0  0  0  0  0  0  0  0  0  0  0
   63.6350   33.3870   49.6020 C   0  0  0  0  0  0  0  0  0  0  0  0
   62.6380   34.1750   50.1850 C   0  0  0  0  0  0  0  0  0  0  0  0
   61.6740   33.5900   51.0110 C   0  0  0  0  0  0  0  0  0  0  0  0
   58.3300   32.0770   52.8650 C   0  0  0  0  0  0  0  0  0  0  0  0
   57.0060   32.6860   52.3700 C   0  0  0  0  0  0  0  0  0  0  0  0
   58.9040   32.9230   54.0190 C   0  0  0  0  0  0  0  0  0  0  0  0
   59.9810   31.6340   48.8150 C   0  0  0  0  0  0  0  0  0  0  0  0
   60.5650   31.4270   47.5610 C   0  0  0  0  0  0  0  0  0  0  0  0
   61.2290   32.5850   46.8500 C   0  0  0  0  0  0  0  0  0  0  0  0
   60.4340   33.8600   46.9910 C   0  0  0  0  0  0  0  0  0  0  0  0
   60.2630   34.3730   48.1300 O   0  0  0  0  0  0  0  0  0  0  0  0
   59.9190   34.5490   45.8460 N   0  0  0  0  0  0  0  0  0  0  0  0
   58.5120   34.5790   45.4670 C   0  0  0  0  0  0  0  0  0  0  0  0
   58.1210   33.2460   44.8990 C   0  0  0  0  0  0  0  0  0  0  0  0
   57.8090   32.1760   45.7540 C   0  0  0  0  0  0  0  0  0  0  0  0
   57.4720   30.9260   45.2250 C   0  0  0  0  0  0  0  0  0  0  0  0
   57.4550   30.7330   43.8400 C   0  0  0  0  0  0  0  0  0  0  0  0
   57.7810   31.7880   42.9830 C   0  0  0  0  0  0  0  0  0  0  0  0
   58.1190   33.0400   43.5090 C   0  0  0  0  0  0  0  0  0  0  0  0
   60.5820   30.1270   47.0230 C   0  0  0  0  0  0  0  0  0  0  0  0
   61.1400   29.9230   45.9100 O   0  0  0  0  0  0  0  0  0  0  0  0
   57.8620   27.9320   45.9510 C   0  0  0  0  0  0  0  0  0  0  0  0
   56.5890   27.4560   45.6190 C   0  0  0  0  0  0  0  0  0  0  0  0
   54.4817   23.7347   46.2491 H   0  0  0  0  0  0  0  0  0  0  0  0
   53.6914   24.4168   44.7873 H   0  0  0  0  0  0  0  0  0  0  0  0
   55.4596   24.1000   44.7873 H   0  0  0  0  0  0  0  0  0  0  0  0
   56.5535   24.6220   47.5348 H   0  0  0  0  0  0  0  0  0  0  0  0
   58.8202   25.4684   48.1218 H   0  0  0  0  0  0  0  0  0  0  0  0
   60.5088   27.0503   47.9318 H   0  0  0  0  0  0  0  0  0  0  0  0
   60.6625   27.7043   46.2607 H   0  0  0  0  0  0  0  0  0  0  0  0
   58.9795   28.4437   49.4680 H   0  0  0  0  0  0  0  0  0  0  0  0
   59.3410   32.7390   51.1860 H   0  0  0  0  0  0  0  0  0  0  0  0
   60.8255   31.9705   53.1956 H   0  0  0  0  0  0  0  0  0  0  0  0
   60.8362   30.4808   52.1660 H   0  0  0  0  0  0  0  0  0  0  0  0
   62.7350   30.3380   50.8569 H   0  0  0  0  0  0  0  0  0  0  0  0
   64.4511   31.3911   49.3837 H   0  0  0  0  0  0  0  0  0  0  0  0
   64.3938   33.8500   48.9540 H   0  0  0  0  0  0  0  0  0  0  0  0
   62.6122   35.2578   49.9932 H   0  0  0  0  0  0  0  0  0  0  0  0
   60.8954   34.2151   51.4725 H   0  0  0  0  0  0  0  0  0  0  0  0
   58.1360   31.0749   53.2751 H   0  0  0  0  0  0  0  0  0  0  0  0
   56.3876   32.9705   53.2341 H   0  0  0  0  0  0  0  0  0  0  0  0
   57.2174   33.5774   51.7611 H   0  0  0  0  0  0  0  0  0  0  0  0
   56.4668   31.9454   51.7611 H   0  0  0  0  0  0  0  0  0  0  0  0
   58.6047   32.4818   54.9812 H   0  0  0  0  0  0  0  0  0  0  0  0
   60.0017   32.9411   53.9496 H   0  0  0  0  0  0  0  0  0  0  0  0
   58.5152   33.9497   53.9496 H   0  0  0  0  0  0  0  0  0  0  0  0
   59.9814   32.6414   49.2567 H   0  0  0  0  0  0  0  0  0  0  0  0
   62.2296   32.7400   47.2798 H   0  0  0  0  0  0  0  0  0  0  0  0
   61.2920   32.3381   45.7799 H   0  0  0  0  0  0  0  0  0  0  0  0
   57.8975   34.7949   46.3535 H   0  0  0  0  0  0  0  0  0  0  0  0
   58.3513   35.3621   44.7114 H   0  0  0  0  0  0  0  0  0  0  0  0
   57.8298   32.3219   46.8441 H   0  0  0  0  0  0  0  0  0  0  0  0
   57.2201   30.0939   45.8989 H   0  0  0  0  0  0  0  0  0  0  0  0
   57.1850   29.7507   43.4250 H   0  0  0  0  0  0  0  0  0  0  0  0
   57.7719   31.6340   41.8939 H   0  0  0  0  0  0  0  0  0  0  0  0
   58.3840   33.8656   42.8321 H   0  0  0  0  0  0  0  0  0  0  0  0
   58.2326   28.8636   45.4984 H   0  0  0  0  0  0  0  0  0  0  0  0
   55.9609   28.0178   44.9120 H   0  0  0  0  0  0  0  0  0  0  0  0
  1  2  1  0
  2  3  1  0
  3  4  2  0
  4  5  1  0
  5  6  2  0
  6  7  1  0
  7  8  1  0
  8  9  1  0
  9 10  2  0
 10 11  1  0
 11 12  2  0
 11 13  1  0
 13 14  1  0
 14 15  1  0
 15 16  2  0
 16 17  1  0
 17 18  2  0
 18 19  1  0
 19 20  2  0
 13 21  1  0
 21 22  1  0
 21 23  1  0
 10 24  1  0
 24 25  2  0
 25 26  1  0
 26 27  1  0
 27 28  2  0
 27 29  1  0
 29 30  1  0
 30 31  1  0
 31 32  2  0
 32 33  1  0
 33 34  2  0
 34 35  1  0
 35 36  2  0
 25 37  1  0
 37 38  2  0
  6 39  1  0
 39 40  2  0
 40  3  1  0
 37  8  1  0
 20 15  1  0
 36 31  1  0
  1 41  1  0
  1 42  1  0
  1 43  1  0
  4 44  1  0
  5 45  1  0
  7 46  1  0
  7 47  1  0
  9 48  1  0
 13 49  1  6
 14 50  1  0
 14 51  1  0
 16 52  1  0
 17 53  1  0
 18 54  1  0
 19 55  1  0
 20 56  1  0
 21 57  1  0
 22 58  1  0
 22 59  1  0
 22 60  1  0
 23 61  1  0
 23 62  1  0
 23 63  1  0
 24 64  1  0
 26 65  1  0
 26 66  1  0
 30 67  1  0
 30 68  1  0
 32 69  1  0
 33 70  1  0
 34 71  1  0
 35 72  1  0
 36 73  1  0
 39 74  1  0
 40 75  1  0
M  CHG  2  13   1  29  -1
M  END
>  <UniqueID>  (55) 
48

>  <SMILES>  (55) 
COc1ccc(Cn2cc(C(=O)[N@H+](Cc3ccccc3)C(C)C)cc(CC(=O)[N-]Cc3ccccc3)c2=O)cc1

>  <Energy>  (55) 
84.1094747598503

>  <Genealogy>  (55) 
COc1ccc(Cn2cc(C(=O)[NH+](Cc3ccccc3)C(C)C)cc(CC(=O)[N-]Cc3ccccc3)c2=O)cc1 (protonated)
COc1ccc(Cn2cc(C(=O)[N@H+](Cc3ccccc3)C(C)C)cc(CC(=O)[N-]Cc3ccccc3)c2=O)cc1 (chirality)
COc1ccc(Cn2cc(C(=O)[N@H+](Cc3ccccc3)C(C)C)cc(CC(=O)[N-]Cc3ccccc3)c2=O)cc1 (3D coordinates assigned)
COc1ccc(Cn2cc(C(=O)[N@H+](Cc3ccccc3)C(C)C)cc(CC(=O)[N-]Cc3ccccc3)c2=O)cc1 (optimized conformer: 84.1094747598503 kcal/mol)

>  <smiles>  (55) 
COc1ccc(Cn2cc(C(=O)N(Cc3ccccc3)C(C)C)cc(CC(=O)NCc3ccccc3)c2=O)cc1

>  <score_type>  (55) 
oracle

>  <origin>  (55) 
adg

>  <m_score__min__energy>  (55) 
-10.6

>  <m_primary>  (55) 
energy

$$$$
55:0
     RDKit          3D

 39 41  0  0  0  0  0  0  0  0999 V2000
   58.2080   27.2450   43.5950 N   0  0  0  0  0  0  0  0  0  0  0  0
   58.5540   28.0150   44.5790 C   0  0  0  0  0  0  0  0  0  0  0  0
   59.7230   28.7720   44.4890 C   0  0  0  0  0  0  0  0  0  0  0  0
   60.0860   29.6100   45.5460 C   0  0  0  0  0  0  0  0  0  0  0  0
   59.2930   29.7160   46.6570 N   0  0  0  0  0  0  0  0  0  0  0  0
   59.7130   30.5640   47.7840 C   0  0  0  0  0  0  0  0  0  0  0  0
   60.6490   31.6760   47.3470 C   0  0  0  0  0  0  0  0  0  0  0  0
   62.0300   31.4900   47.5530 C   0  0  0  0  0  0  0  0  0  0  0  0
   62.9520   32.4610   47.1640 C   0  0  0  0  0  0  0  0  0  0  0  0
   62.5130   33.6350   46.5590 C   0  0  0  0  0  0  0  0  0  0  0  0
   61.1520   33.8410   46.3410 C   0  0  0  0  0  0  0  0  0  0  0  0
   60.2030   32.8790   46.7310 C   0  0  0  0  0  0  0  0  0  0  0  0
   58.4960   33.2230   46.3700 S   0  0  0  0  0  0  0  0  0  0  0  0
   58.3040   34.7080   46.2390 O   0  0  0  0  0  0  0  0  0  0  0  0
   57.6210   32.7430   47.4930 O   0  0  0  0  0  0  0  0  0  0  0  0
   58.0050   32.4720   44.8530 C   0  0  0  0  0  0  0  0  0  0  0  0
   57.1390   31.3670   44.8510 C   0  0  0  0  0  0  0  0  0  0  0  0
   56.7640   30.7730   43.6420 C   0  0  0  0  0  0  0  0  0  0  0  0
   57.2560   31.2720   42.4330 C   0  0  0  0  0  0  0  0  0  0  0  0
   58.1300   32.3630   42.4310 C   0  0  0  0  0  0  0  0  0  0  0  0
   58.5070   32.9590   43.6390 C   0  0  0  0  0  0  0  0  0  0  0  0
   58.1630   28.9530   46.7710 C   0  0  0  0  0  0  0  0  0  0  0  0
   57.7700   28.1010   45.7360 C   0  0  0  0  0  0  0  0  0  0  0  0
   57.2110   27.1110   43.3130 H   0  0  0  0  0  0  0  0  0  0  0  0
   60.3549   28.7091   43.5908 H   0  0  0  0  0  0  0  0  0  0  0  0
   61.0183   30.1906   45.4851 H   0  0  0  0  0  0  0  0  0  0  0  0
   58.8192   31.0128   48.2420 H   0  0  0  0  0  0  0  0  0  0  0  0
   60.2543   29.9292   48.5009 H   0  0  0  0  0  0  0  0  0  0  0  0
   62.3867   30.5643   48.0282 H   0  0  0  0  0  0  0  0  0  0  0  0
   64.0265   32.2991   47.3353 H   0  0  0  0  0  0  0  0  0  0  0  0
   63.2408   34.4008   46.2527 H   0  0  0  0  0  0  0  0  0  0  0  0
   60.8151   34.7695   45.8569 H   0  0  0  0  0  0  0  0  0  0  0  0
   56.7551   30.9681   45.8015 H   0  0  0  0  0  0  0  0  0  0  0  0
   56.0804   29.9112   43.6426 H   0  0  0  0  0  0  0  0  0  0  0  0
   56.9555   30.8063   41.4828 H   0  0  0  0  0  0  0  0  0  0  0  0
   58.5212   32.7527   41.4796 H   0  0  0  0  0  0  0  0  0  0  0  0
   59.2001   33.8132   43.6358 H   0  0  0  0  0  0  0  0  0  0  0  0
   57.5575   29.0111   47.6875 H   0  0  0  0  0  0  0  0  0  0  0  0
   56.8519   27.5024   45.8292 H   0  0  0  0  0  0  0  0  0  0  0  0
  1  2  2  3
  2  3  1  0
  3  4  2  0
  4  5  1  0
  5  6  1  0
  6  7  1  0
  7  8  2  0
  8  9  1  0
  9 10  2  0
 10 11  1  0
 11 12  2  0
 12 13  1  0
 13 14  2  0
 13 15  2  0
 13 16  1  0
 16 17  2  0
 17 18  1  0
 18 19  2  0
 19 20  1  0
 20 21  2  0
  5 22  1  0
 22 23  2  0
 23  2  1  0
 12  7  1  0
 21 16  1  0
  1 24  1  0
  3 25  1  0
  4 26  1  0
  6 27  1  0
  6 28  1  0
  8 29  1  0
  9 30  1  0
 10 31  1  0
 11 32  1  0
 17 33  1  0
 18 34  1  0
 19 35  1  0
 20 36  1  0
 21 37  1  0
 22 38  1  0
 23 39  1  0
M  END
>  <UniqueID>  (56) 
49

>  <SMILES>  (56) 
N=c1ccn(Cc2ccccc2S(=O)(=O)c2ccccc2)cc1

>  <Energy>  (56) 
44.56888720011395

>  <Genealogy>  (56) 
N=c1ccn(Cc2ccccc2S(=O)(=O)c2ccccc2)cc1 (3D coordinates assigned)
N=c1ccn(Cc2ccccc2S(=O)(=O)c2ccccc2)cc1 (optimized conformer: 44.56888720011395 kcal/mol)

>  <smiles>  (56) 
N=c1ccn(Cc2ccccc2S(=O)(=O)c2ccccc2)cc1

>  <score_type>  (56) 
oracle

>  <origin>  (56) 
adg

>  <m_score__min__energy>  (56) 
-8.2799999999999994

>  <m_primary>  (56) 
energy

$$$$
56:0
     RDKit          3D

 29 30  0  0  0  0  0  0  0  0999 V2000
   58.5080   33.2500   46.5670 C   0  0  0  0  0  0  0  0  0  0  0  0
   57.4640   33.1810   45.4560 C   0  0  0  0  0  0  0  0  0  0  0  0
   58.1300   33.0940   44.0760 C   0  0  0  0  0  0  0  0  0  0  0  0
   57.7110   31.8540   43.3230 C   0  0  0  0  0  0  0  0  0  0  0  0
   57.5940   31.9080   42.0670 O   0  0  0  0  0  0  0  0  0  0  0  0
   57.3660   30.5940   44.0350 C   0  0  0  0  0  0  0  0  0  0  0  0
   56.0550   30.0930   43.9880 C   0  0  0  0  0  0  0  0  0  0  0  0
   55.7250   28.9380   44.6230 N   0  0  0  0  0  0  0  0  0  0  0  0
   56.6440   28.2160   45.3280 C   0  0  0  0  0  0  0  0  0  0  0  0
   56.2770   27.0210   45.9780 C   0  0  0  0  0  0  0  0  0  0  0  0
   54.9690   26.5500   45.9160 O   0  0  0  0  0  0  0  0  0  0  0  0
   57.2280   26.2920   46.6970 C   0  0  0  0  0  0  0  0  0  0  0  0
   58.5470   26.7410   46.7750 C   0  0  0  0  0  0  0  0  0  0  0  0
   58.9260   27.9240   46.1370 C   0  0  0  0  0  0  0  0  0  0  0  0
   57.9820   28.6720   45.4080 C   0  0  0  0  0  0  0  0  0  0  0  0
   58.3380   29.8690   44.7550 C   0  0  0  0  0  0  0  0  0  0  0  0
   59.5220   30.2990   44.8290 O   0  0  0  0  0  0  0  0  0  0  0  0
   58.0055   33.2168   47.5449 H   0  0  0  0  0  0  0  0  0  0  0  0
   59.1947   32.3953   46.4784 H   0  0  0  0  0  0  0  0  0  0  0  0
   59.0763   34.1877   46.4784 H   0  0  0  0  0  0  0  0  0  0  0  0
   56.8357   32.2911   45.6083 H   0  0  0  0  0  0  0  0  0  0  0  0
   56.8543   34.0958   45.4924 H   0  0  0  0  0  0  0  0  0  0  0  0
   57.8461   33.9794   43.4882 H   0  0  0  0  0  0  0  0  0  0  0  0
   59.2187   33.0486   44.2264 H   0  0  0  0  0  0  0  0  0  0  0  0
   55.2840   30.6436   43.4290 H   0  0  0  0  0  0  0  0  0  0  0  0
   54.7360   28.6090   44.5520 H   0  0  0  0  0  0  0  0  0  0  0  0
   56.9357   25.3604   47.2036 H   0  0  0  0  0  0  0  0  0  0  0  0
   59.2908   26.1610   47.3410 H   0  0  0  0  0  0  0  0  0  0  0  0
   59.9670   28.2730   46.2044 H   0  0  0  0  0  0  0  0  0  0  0  0
  1  2  1  0
  2  3  1  0
  3  4  1  0
  4  5  2  0
  4  6  1  0
  6  7  2  0
  7  8  1  0
  8  9  1  0
  9 10  2  0
 10 11  1  0
 10 12  1  0
 12 13  2  0
 13 14  1  0
 14 15  2  0
 15 16  1  0
 16 17  2  0
 16  6  1  0
 15  9  1  0
  1 18  1  0
  1 19  1  0
  1 20  1  0
  2 21  1  0
  2 22  1  0
  3 23  1  0
  3 24  1  0
  7 25  1  0
  8 26  1  0
 12 27  1  0
 13 28  1  0
 14 29  1  0
M  CHG  1  11  -1
M  END
>  <UniqueID>  (57) 
50

>  <SMILES>  (57) 
CCCC(=O)c1c[nH]c2c([O-])cccc2c1=O

>  <Energy>  (57) 
34.29295486386361

>  <Genealogy>  (57) 
CCCC(=O)c1c[nH]c2c([O-])cccc2c1=O (protonated)
CCCC(=O)c1c[nH]c2c([O-])cccc2c1=O (3D coordinates assigned)
CCCC(=O)c1c[nH]c2c([O-])cccc2c1=O (optimized conformer: 34.29295486386361 kcal/mol)

>  <smiles>  (57) 
CCCC(=O)c1c[nH]c2c(O)cccc2c1=O

>  <score_type>  (57) 
oracle

>  <origin>  (57) 
adg

>  <m_score__min__energy>  (57) 
-11

>  <m_primary>  (57) 
energy

$$$$
57:0
     RDKit          3D

 63 66  0  0  0  0  0  0  0  0999 V2000
   58.7375   31.7132   53.9255 H   0  0  0  0  0  0  0  0  0  0  0  0
   58.7990   31.9260   52.8480 C   0  0  0  0  0  0  0  0  0  0  0  0
   58.4700   30.9340   51.9210 C   0  0  0  0  0  0  0  0  0  0  0  0
   58.1697   29.9346   52.2690 H   0  0  0  0  0  0  0  0  0  0  0  0
   58.5220   31.2100   50.5520 C   0  0  0  0  0  0  0  0  0  0  0  0
   58.2691   30.4244   49.8247 H   0  0  0  0  0  0  0  0  0  0  0  0
   58.8960   32.4870   50.1010 C   0  0  0  0  0  0  0  0  0  0  0  0
   58.9640   32.7640   48.6530 C   0  0  0  0  0  0  0  0  0  0  0  0
   57.9750   32.4090   47.7580 C   0  0  0  0  0  0  0  0  0  0  0  0
   57.0695   31.8240   47.9767 H   0  0  0  0  0  0  0  0  0  0  0  0
   58.3440   32.9310   46.5360 C   0  0  0  0  0  0  0  0  0  0  0  0
   57.5570   32.8090   45.2930 C   0  0  0  0  0  0  0  0  0  0  0  0
   57.3920   33.8220   44.5590 O   0  0  0  0  0  0  0  0  0  0  0  0
   57.0000   31.5810   44.9270 O   0  0  0  0  0  0  0  0  0  0  0  0
   57.2620   30.9550   43.6760 C   0  0  0  0  0  0  0  0  0  0  0  0
   58.2895   30.5624   43.6707 H   0  0  0  0  0  0  0  0  0  0  0  0
   57.1460   31.6910   42.8668 H   0  0  0  0  0  0  0  0  0  0  0  0
   56.2820   29.8120   43.4650 C   0  0  0  0  0  0  0  0  0  0  0  0
   55.9520   29.4271   44.4412 H   0  0  0  0  0  0  0  0  0  0  0  0
   55.4107   30.1756   42.9006 H   0  0  0  0  0  0  0  0  0  0  0  0
   56.7743   29.0064   42.9006 H   0  0  0  0  0  0  0  0  0  0  0  0
   59.5480   33.6000   46.7320 C   0  0  0  0  0  0  0  0  0  0  0  0
   60.2780   34.3780   45.6660 C   0  0  0  0  0  0  0  0  0  0  0  0
   60.9571   35.1017   46.1405 H   0  0  0  0  0  0  0  0  0  0  0  0
   60.8597   33.6853   45.0400 H   0  0  0  0  0  0  0  0  0  0  0  0
   59.5497   34.9144   45.0400 H   0  0  0  0  0  0  0  0  0  0  0  0
   59.9320   33.4850   48.0320 N   0  0  0  0  0  0  0  0  0  0  0  0
   61.0620   34.1640   48.6910 C   0  0  0  0  0  0  0  0  0  0  0  0
   60.9772   35.2474   48.5207 H   0  0  0  0  0  0  0  0  0  0  0  0
   61.0250   33.9340   49.7661 H   0  0  0  0  0  0  0  0  0  0  0  0
   62.4060   33.6760   48.1390 C   0  0  0  0  0  0  0  0  0  0  0  0
   62.5141   34.0254   47.1016 H   0  0  0  0  0  0  0  0  0  0  0  0
   63.2070   34.0810   48.7749 H   0  0  0  0  0  0  0  0  0  0  0  0
   62.5000   32.1830   48.1610 C   0  0  0  0  0  0  0  0  0  0  0  0
   62.9770   31.6040   49.1730 O   0  0  0  0  0  0  0  0  0  0  0  0
   62.0140   31.4400   47.0320 N   0  0  0  0  0  0  0  0  0  0  0  0
   61.1310   30.4850   47.0340 C   0  0  0  0  0  0  0  0  0  0  0  0
   60.5390   29.6610   48.3980 S   0  0  0  0  0  0  0  0  0  0  0  0
   59.5330   28.6900   47.4630 C   0  0  0  0  0  0  0  0  0  0  0  0
   58.6980   27.6550   47.8730 C   0  0  0  0  0  0  0  0  0  0  0  0
   58.6018   27.4007   48.9389 H   0  0  0  0  0  0  0  0  0  0  0  0
   57.9790   26.9400   46.8970 C   0  0  0  0  0  0  0  0  0  0  0  0
   57.1530   25.8900   47.3310 O   0  0  0  0  0  0  0  0  0  0  0  0
   56.9500   24.6430   46.6610 C   0  0  0  0  0  0  0  0  0  0  0  0
   57.8025   24.4543   45.9920 H   0  0  0  0  0  0  0  0  0  0  0  0
   56.8656   23.8532   47.4220 H   0  0  0  0  0  0  0  0  0  0  0  0
   55.6600   24.6510   45.8330 C   0  0  0  0  0  0  0  0  0  0  0  0
   55.9041   24.4077   44.7884 H   0  0  0  0  0  0  0  0  0  0  0  0
   54.9722   23.9052   46.2580 H   0  0  0  0  0  0  0  0  0  0  0  0
   55.0050   25.9560   45.8760 N   0  0  0  0  0  0  0  0  0  0  0  0
   55.1250   26.3510   46.8400 H   0  0  0  0  0  0  0  0  0  0  0  0
   55.5210   26.6000   45.2330 H   0  0  0  0  0  0  0  0  0  0  0  0
   58.1130   27.3000   45.5290 C   0  0  0  0  0  0  0  0  0  0  0  0
   57.5426   26.7536   44.7635 H   0  0  0  0  0  0  0  0  0  0  0  0
   58.9670   28.3470   45.1450 C   0  0  0  0  0  0  0  0  0  0  0  0
   59.0737   28.6210   44.0850 H   0  0  0  0  0  0  0  0  0  0  0  0
   59.6780   29.0340   46.1300 C   0  0  0  0  0  0  0  0  0  0  0  0
   60.5630   30.0360   45.8900 N   0  0  0  0  0  0  0  0  0  0  0  0
   60.7890   30.4050   44.9380 H   0  0  0  0  0  0  0  0  0  0  0  0
   59.2660   33.4700   51.0380 C   0  0  0  0  0  0  0  0  0  0  0  0
   59.6020   34.4590   50.6929 H   0  0  0  0  0  0  0  0  0  0  0  0
   59.2070   33.1910   52.4070 C   0  0  0  0  0  0  0  0  0  0  0  0
   59.4813   33.9658   53.1381 H   0  0  0  0  0  0  0  0  0  0  0  0
  1  2  1  0
  2  3  2  0
  3  4  1  0
  3  5  1  0
  5  6  1  0
  5  7  2  0
  7  8  1  0
  8  9  2  0
  9 10  1  0
  9 11  1  0
 11 12  1  0
 12 13  2  0
 12 14  1  0
 14 15  1  0
 15 16  1  0
 15 17  1  0
 15 18  1  0
 18 19  1  0
 18 20  1  0
 18 21  1  0
 11 22  2  0
 22 23  1  0
 23 24  1  0
 23 25  1  0
 23 26  1  0
 22 27  1  0
 27 28  1  0
 28 29  1  0
 28 30  1  0
 28 31  1  0
 31 32  1  0
 31 33  1  0
 31 34  1  0
 34 35  2  0
 34 36  1  0
 36 37  2  0
 37 38  1  0
 38 39  1  0
 39 40  2  0
 40 41  1  0
 40 42  1  0
 42 43  1  0
 43 44  1  0
 44 45  1  0
 44 46  1  0
 44 47  1  0
 47 48  1  0
 47 49  1  0
 47 50  1  0
 50 51  1  0
 50 52  1  0
 42 53  2  0
 53 54  1  0
 53 55  1  0
 55 56  1  0
 55 57  2  0
 57 58  1  0
 58 59  1  0
  7 60  1  0
 60 61  1  0
 60 62  2  0
 62 63  1  0
 62  2  1  0
 27  8  1  0
 58 37  1  0
 57 39  1  0
M  END
>  <UniqueID>  (58) 
51

>  <SMILES>  (58) 
CCOC(=O)c1cc(-c2ccccc2)n(CCC(=O)/N=c2/[nH]c3ccc(OCCN)cc3s2)c1C

>  <Energy>  (58) 
124.62892558261687

>  <Genealogy>  (58) 
CCOC(=O)c1cc(-c2ccccc2)n(CCC(=O)/N=c2/[nH]c3ccc(OCCN)cc3s2)c1C (cis-trans isomerization)
CCOC(=O)c1cc(-c2ccccc2)n(CCC(=O)/N=c2/[nH]c3ccc(OCCN)cc3s2)c1C (3D coordinates assigned)
CCOC(=O)c1cc(-c2ccccc2)n(CCC(=O)/N=c2/[nH]c3ccc(OCCN)cc3s2)c1C (optimized conformer: 124.62892558261687 kcal/mol)

>  <smiles>  (58) 
CCOC(=O)c1cc(-c2ccccc2)n(CCC(=O)N=c2[nH]c3ccc(OCCN)cc3s2)c1C

>  <score_type>  (58) 
oracle

>  <origin>  (58) 
adg

>  <m_score__min__energy>  (58) 
-9.5999999999999996

>  <m_primary>  (58) 
energy

$$$$
58:0
     RDKit          3D

 39 41  0  0  0  0  0  0  0  0999 V2000
   55.1700   26.6110   45.9810 N   0  0  0  0  0  0  0  0  0  0  0  0
   56.4230   26.2290   46.5450 C   0  0  0  0  0  0  0  0  0  0  0  0
   56.6210   25.0190   46.8340 O   0  0  0  0  0  0  0  0  0  0  0  0
   57.4620   27.2580   46.7820 C   0  0  0  0  0  0  0  0  0  0  0  0
   58.3410   27.0540   47.8000 N   0  0  0  0  0  0  0  0  0  0  0  0
   59.3250   27.9370   48.1080 C   0  0  0  0  0  0  0  0  0  0  0  0
   59.4880   29.1070   47.3540 C   0  0  0  0  0  0  0  0  0  0  0  0
   60.5500   30.0900   47.6890 C   0  0  0  0  0  0  0  0  0  0  0  0
   61.0200   30.3100   48.9980 C   0  0  0  0  0  0  0  0  0  0  0  0
   62.0030   31.2860   49.0830 C   0  0  0  0  0  0  0  0  0  0  0  0
   62.2900   31.8760   47.5380 S   0  0  0  0  0  0  0  0  0  0  0  0
   61.1720   30.9060   46.7440 C   0  0  0  0  0  0  0  0  0  0  0  0
   58.6110   29.3320   46.2840 C   0  0  0  0  0  0  0  0  0  0  0  0
   57.5620   28.4380   46.0130 C   0  0  0  0  0  0  0  0  0  0  0  0
   56.6160   28.7140   44.9660 N   0  0  0  0  0  0  0  0  0  0  0  0
   56.5020   29.9290   44.2120 C   0  0  0  0  0  0  0  0  0  0  0  0
   56.5850   29.8760   42.9580 O   0  0  0  0  0  0  0  0  0  0  0  0
   56.2970   31.2040   44.8390 N   0  0  0  0  0  0  0  0  0  0  0  0
   57.3090   32.1810   45.1150 C   0  0  0  0  0  0  0  0  0  0  0  0
   57.8630   32.8990   44.0520 C   0  0  0  0  0  0  0  0  0  0  0  0
   58.8680   33.8390   44.2850 C   0  0  0  0  0  0  0  0  0  0  0  0
   59.3160   34.0790   45.5860 C   0  0  0  0  0  0  0  0  0  0  0  0
   58.7600   33.3820   46.6730 C   0  0  0  0  0  0  0  0  0  0  0  0
   59.2360   33.6620   48.0510 C   0  0  0  0  0  0  0  0  0  0  0  0
   58.9310   32.7910   49.1430 N   0  0  0  0  0  0  0  0  0  0  0  0
   59.9390   34.6860   48.2700 O   0  0  0  0  0  0  0  0  0  0  0  0
   57.7390   32.4430   46.4280 C   0  0  0  0  0  0  0  0  0  0  0  0
   55.1250   27.1150   45.0660 H   0  0  0  0  0  0  0  0  0  0  0  0
   59.9980   27.7331   48.9539 H   0  0  0  0  0  0  0  0  0  0  0  0
   60.6429   29.7592   49.8723 H   0  0  0  0  0  0  0  0  0  0  0  0
   62.5068   31.6158   50.0035 H   0  0  0  0  0  0  0  0  0  0  0  0
   60.9656   30.9130   45.6636 H   0  0  0  0  0  0  0  0  0  0  0  0
   58.7459   30.2197   45.6486 H   0  0  0  0  0  0  0  0  0  0  0  0
   57.5054   32.7226   43.0268 H   0  0  0  0  0  0  0  0  0  0  0  0
   59.3082   34.3921   43.4422 H   0  0  0  0  0  0  0  0  0  0  0  0
   60.1103   34.8194   45.7615 H   0  0  0  0  0  0  0  0  0  0  0  0
   58.4800   31.8630   48.9990 H   0  0  0  0  0  0  0  0  0  0  0  0
   59.2370   33.0420   50.1090 H   0  0  0  0  0  0  0  0  0  0  0  0
   57.2742   31.9103   47.2707 H   0  0  0  0  0  0  0  0  0  0  0  0
  1  2  1  0
  2  3  2  0
  2  4  1  0
  4  5  2  0
  5  6  1  0
  6  7  2  0
  7  8  1  0
  8  9  1  0
  9 10  2  0
 10 11  1  0
 11 12  1  0
  7 13  1  0
 13 14  2  0
 14 15  1  0
 15 16  1  0
 16 17  2  0
 16 18  1  0
 18 19  1  0
 19 20  2  0
 20 21  1  0
 21 22  2  0
 22 23  1  0
 23 24  1  0
 24 25  1  0
 24 26  2  0
 23 27  2  0
 14  4  1  0
 27 19  1  0
 12  8  2  0
  1 28  1  0
  6 29  1  0
  9 30  1  0
 10 31  1  0
 12 32  1  0
 13 33  1  0
 20 34  1  0
 21 35  1  0
 22 36  1  0
 25 37  1  0
 25 38  1  0
 27 39  1  0
M  CHG  3   1  -1  15  -1  18  -1
M  END
>  <UniqueID>  (59) 
52

>  <SMILES>  (59) 
[NH-]C(=O)c1ncc(-c2ccsc2)cc1[N-]C(=O)[N-]c1cccc(C(N)=O)c1

>  <Energy>  (59) 
79.28507324997297

>  <Genealogy>  (59) 
[NH-]C(=O)c1ncc(-c2ccsc2)cc1[N-]C(=O)[N-]c1cccc(C(N)=O)c1 (protonated)
[NH-]C(=O)c1ncc(-c2ccsc2)cc1[N-]C(=O)[N-]c1cccc(C(N)=O)c1 (3D coordinates assigned)
[NH-]C(=O)c1ncc(-c2ccsc2)cc1[N-]C(=O)[N-]c1cccc(C(N)=O)c1 (optimized conformer: 79.28507324997297 kcal/mol)

>  <smiles>  (59) 
NC(=O)c1cccc(NC(=O)Nc2cc(-c3ccsc3)cnc2C(N)=O)c1

>  <score_type>  (59) 
oracle

>  <origin>  (59) 
adg

>  <m_score__min__energy>  (59) 
-14.06

>  <m_primary>  (59) 
energy

$$$$
59:0
     RDKit          3D

 37 39  0  0  0  0  0  0  0  0999 V2000
   58.3768   34.8332   43.5954 H   0  0  0  0  0  0  0  0  0  0  0  0
   58.4610   34.1700   44.4690 C   0  0  0  0  0  0  0  0  0  0  0  0
   57.8970   32.8920   44.4300 C   0  0  0  0  0  0  0  0  0  0  0  0
   57.3667   32.5550   43.5271 H   0  0  0  0  0  0  0  0  0  0  0  0
   58.0040   32.0360   45.5380 C   0  0  0  0  0  0  0  0  0  0  0  0
   57.4160   30.6840   45.4890 C   0  0  0  0  0  0  0  0  0  0  0  0
   56.3870   30.3250   44.6920 N   0  0  0  0  0  0  0  0  0  0  0  0
   56.1520   29.0450   44.9340 N   0  0  0  0  0  0  0  0  0  0  0  0
   57.0460   28.6770   45.8720 C   0  0  0  0  0  0  0  0  0  0  0  0
   57.1480   27.4820   46.3750 N   0  0  0  0  0  0  0  0  0  0  0  0
   56.4200   26.3160   45.9580 C   0  0  0  0  0  0  0  0  0  0  0  0
   55.1610   26.3530   45.9730 O   0  0  0  0  0  0  0  0  0  0  0  0
   57.0890   25.0800   45.4990 C   0  0  0  0  0  0  0  0  0  0  0  0
   56.3610   24.1620   44.7250 C   0  0  0  0  0  0  0  0  0  0  0  0
   55.3142   24.3800   44.4667 H   0  0  0  0  0  0  0  0  0  0  0  0
   56.9490   22.9740   44.2780 C   0  0  0  0  0  0  0  0  0  0  0  0
   56.1670   22.0880   43.5200 O   0  0  0  0  0  0  0  0  0  0  0  0
   56.6390   20.8570   42.9830 C   0  0  0  0  0  0  0  0  0  0  0  0
   56.9006   20.1746   43.8052 H   0  0  0  0  0  0  0  0  0  0  0  0
   55.8519   20.4010   42.3644 H   0  0  0  0  0  0  0  0  0  0  0  0
   57.5292   21.0441   42.3644 H   0  0  0  0  0  0  0  0  0  0  0  0
   58.2920   22.7080   44.6000 C   0  0  0  0  0  0  0  0  0  0  0  0
   58.7620   21.7732   44.2605 H   0  0  0  0  0  0  0  0  0  0  0  0
   59.0310   23.6260   45.3490 C   0  0  0  0  0  0  0  0  0  0  0  0
   60.0836   23.4143   45.5884 H   0  0  0  0  0  0  0  0  0  0  0  0
   58.4420   24.8130   45.7970 C   0  0  0  0  0  0  0  0  0  0  0  0
   59.5450   26.0630   46.7480 Br  0  0  0  0  0  0  0  0  0  0  0  0
   57.8280   29.6690   46.2160 O   0  0  0  0  0  0  0  0  0  0  0  0
   58.6810   32.4810   46.6880 C   0  0  0  0  0  0  0  0  0  0  0  0
   58.7795   31.8132   47.5565 H   0  0  0  0  0  0  0  0  0  0  0  0
   59.2320   33.7720   46.7350 C   0  0  0  0  0  0  0  0  0  0  0  0
   59.9870   34.2270   47.9490 C   0  0  0  0  0  0  0  0  0  0  0  0
   59.4528   33.9050   48.8551 H   0  0  0  0  0  0  0  0  0  0  0  0
   60.9945   33.7855   47.9410 H   0  0  0  0  0  0  0  0  0  0  0  0
   60.0673   35.3240   47.9410 H   0  0  0  0  0  0  0  0  0  0  0  0
   59.1310   34.6080   45.6130 C   0  0  0  0  0  0  0  0  0  0  0  0
   59.5810   35.6115   45.6346 H   0  0  0  0  0  0  0  0  0  0  0  0
  1  2  1  0
  2  3  2  0
  3  4  1  0
  3  5  1  0
  5  6  1  0
  6  7  2  0
  7  8  1  0
  8  9  1  0
  9 10  2  0
 10 11  1  0
 11 12  2  0
 11 13  1  0
 13 14  2  0
 14 15  1  0
 14 16  1  0
 16 17  1  0
 17 18  1  0
 18 19  1  0
 18 20  1  0
 18 21  1  0
 16 22  2  0
 22 23  1  0
 22 24  1  0
 24 25  1  0
 24 26  2  0
 26 27  1  0
  9 28  1  0
  5 29  2  0
 29 30  1  0
 29 31  1  0
 31 32  1  0
 32 33  1  0
 32 34  1  0
 32 35  1  0
 31 36  2  0
 36 37  1  0
 36  2  1  0
 28  6  1  0
 26 13  1  0
M  CHG  1   8  -1
M  END
>  <UniqueID>  (60) 
53

>  <SMILES>  (60) 
COc1ccc(Br)c(C(=O)/N=c2\[n-]nc(-c3cccc(C)c3)o2)c1

>  <Energy>  (60) 
83.59393633386338

>  <Genealogy>  (60) 
COc1ccc(Br)c(C(=O)N=c2[n-]nc(-c3cccc(C)c3)o2)c1 (protonated)
COc1ccc(Br)c(C(=O)/N=c2\[n-]nc(-c3cccc(C)c3)o2)c1 (cis-trans isomerization)
COc1ccc(Br)c(C(=O)/N=c2\[n-]nc(-c3cccc(C)c3)o2)c1 (3D coordinates assigned)
COc1ccc(Br)c(C(=O)/N=c2\[n-]nc(-c3cccc(C)c3)o2)c1 (optimized conformer: 83.59393633386338 kcal/mol)

>  <smiles>  (60) 
COc1ccc(Br)c(C(=O)N=c2[nH]nc(-c3cccc(C)c3)o2)c1

>  <score_type>  (60) 
oracle

>  <origin>  (60) 
adg

>  <m_score__min__energy>  (60) 
-10.539999999999999

>  <m_primary>  (60) 
energy

$$$$
60:0
     RDKit          3D

 40 43  0  0  0  0  0  0  0  0999 V2000
   63.2710   32.7940   46.8970 S   0  0  0  0  0  0  0  0  0  0  0  0
   62.7090   33.3470   48.3530 C   0  0  0  0  0  0  0  0  0  0  0  0
   63.5790   33.4360   49.4670 C   0  0  0  0  0  0  0  0  0  0  0  0
   64.9510   33.1130   49.4210 C   0  0  0  0  0  0  0  0  0  0  0  0
   65.7380   33.2290   50.5710 C   0  0  0  0  0  0  0  0  0  0  0  0
   67.4460   32.8300   50.5200 Cl  0  0  0  0  0  0  0  0  0  0  0  0
   65.1540   33.6660   51.7600 C   0  0  0  0  0  0  0  0  0  0  0  0
   63.8320   33.9750   51.7960 N   0  0  0  0  0  0  0  0  0  0  0  0
   63.0410   33.8730   50.6950 C   0  0  0  0  0  0  0  0  0  0  0  0
   61.7290   34.1910   50.7870 N   0  0  0  0  0  0  0  0  0  0  0  0
   60.9080   34.1040   49.7130 C   0  0  0  0  0  0  0  0  0  0  0  0
   61.3840   33.6940   48.5000 N   0  0  0  0  0  0  0  0  0  0  0  0
   60.4540   33.6430   47.4030 C   0  0  0  0  0  0  0  0  0  0  0  0
   60.5260   34.5900   46.3720 C   0  0  0  0  0  0  0  0  0  0  0  0
   59.6330   34.5350   45.2990 C   0  0  0  0  0  0  0  0  0  0  0  0
   58.6570   33.5200   45.2390 C   0  0  0  0  0  0  0  0  0  0  0  0
   57.7390   33.4130   44.1820 O   0  0  0  0  0  0  0  0  0  0  0  0
   57.7580   32.4050   43.1700 C   0  0  0  0  0  0  0  0  0  0  0  0
   57.5030   31.0450   43.7650 C   0  0  0  0  0  0  0  0  0  0  0  0
   58.5820   30.2180   44.1180 C   0  0  0  0  0  0  0  0  0  0  0  0
   58.3510   28.9590   44.6800 C   0  0  0  0  0  0  0  0  0  0  0  0
   57.0420   28.5190   44.8990 C   0  0  0  0  0  0  0  0  0  0  0  0
   55.9630   29.3400   44.5610 C   0  0  0  0  0  0  0  0  0  0  0  0
   56.1900   30.6010   44.0000 C   0  0  0  0  0  0  0  0  0  0  0  0
   58.5930   32.5740   46.2680 C   0  0  0  0  0  0  0  0  0  0  0  0
   59.4860   32.6300   47.3420 C   0  0  0  0  0  0  0  0  0  0  0  0
   65.4028   32.7692   48.4788 H   0  0  0  0  0  0  0  0  0  0  0  0
   65.7651   33.7605   52.6698 H   0  0  0  0  0  0  0  0  0  0  0  0
   59.8451   34.3667   49.8190 H   0  0  0  0  0  0  0  0  0  0  0  0
   61.2898   35.3808   46.4080 H   0  0  0  0  0  0  0  0  0  0  0  0
   59.6918   35.2867   44.4980 H   0  0  0  0  0  0  0  0  0  0  0  0
   56.9777   32.6255   42.4266 H   0  0  0  0  0  0  0  0  0  0  0  0
   58.7499   32.4015   42.6944 H   0  0  0  0  0  0  0  0  0  0  0  0
   59.6133   30.5625   43.9515 H   0  0  0  0  0  0  0  0  0  0  0  0
   59.1999   28.3138   44.9502 H   0  0  0  0  0  0  0  0  0  0  0  0
   56.8616   27.5264   45.3374 H   0  0  0  0  0  0  0  0  0  0  0  0
   54.9336   28.9941   44.7364 H   0  0  0  0  0  0  0  0  0  0  0  0
   55.3383   31.2475   43.7418 H   0  0  0  0  0  0  0  0  0  0  0  0
   57.8333   31.7793   46.2315 H   0  0  0  0  0  0  0  0  0  0  0  0
   59.4293   31.8771   48.1419 H   0  0  0  0  0  0  0  0  0  0  0  0
  1  2  2  0
  2  3  1  0
  3  4  2  0
  4  5  1  0
  5  6  1  0
  5  7  2  0
  7  8  1  0
  8  9  2  0
  9 10  1  0
 10 11  2  0
 11 12  1  0
 12 13  1  0
 13 14  2  0
 14 15  1  0
 15 16  2  0
 16 17  1  0
 17 18  1  0
 18 19  1  0
 19 20  2  0
 20 21  1  0
 21 22  2  0
 22 23  1  0
 23 24  2  0
 16 25  1  0
 25 26  2  0
 12  2  1  0
 26 13  1  0
  9  3  1  0
 24 19  1  0
  4 27  1  0
  7 28  1  0
 11 29  1  0
 14 30  1  0
 15 31  1  0
 18 32  1  0
 18 33  1  0
 20 34  1  0
 21 35  1  0
 22 36  1  0
 23 37  1  0
 24 38  1  0
 25 39  1  0
 26 40  1  0
M  END
>  <UniqueID>  (61) 
54

>  <SMILES>  (61) 
S=c1c2cc(Cl)cnc2ncn1-c1ccc(OCc2ccccc2)cc1

>  <Energy>  (61) 
62.54317160367477

>  <Genealogy>  (61) 
S=c1c2cc(Cl)cnc2ncn1-c1ccc(OCc2ccccc2)cc1 (3D coordinates assigned)
S=c1c2cc(Cl)cnc2ncn1-c1ccc(OCc2ccccc2)cc1 (optimized conformer: 62.54317160367477 kcal/mol)

>  <smiles>  (61) 
S=c1c2cc(Cl)cnc2ncn1-c1ccc(OCc2ccccc2)cc1

>  <score_type>  (61) 
oracle

>  <origin>  (61) 
adg

>  <m_score__min__energy>  (61) 
-8

>  <m_primary>  (61) 
energy

$$$$
61:0
     RDKit          3D

 41 43  0  0  0  0  0  0  0  0999 V2000
   56.2350   26.2300   45.9410 C   0  0  0  0  0  0  0  0  0  0  0  0
   56.0060   27.6000   45.6270 O   0  0  0  0  0  0  0  0  0  0  0  0
   57.0010   28.5940   45.6070 C   0  0  0  0  0  0  0  0  0  0  0  0
   58.2100   28.4290   46.3020 C   0  0  0  0  0  0  0  0  0  0  0  0
   59.1730   29.4320   46.2620 C   0  0  0  0  0  0  0  0  0  0  0  0
   58.9490   30.5610   45.5480 N   0  0  0  0  0  0  0  0  0  0  0  0
   57.7970   30.7710   44.8540 C   0  0  0  0  0  0  0  0  0  0  0  0
   57.6880   32.0520   44.0650 C   0  0  0  0  0  0  0  0  0  0  0  0
   57.1850   33.4380   45.1450 S   0  0  0  0  0  0  0  0  0  0  0  0
   58.6940   33.4320   46.1130 C   0  0  0  0  0  0  0  0  0  0  0  0
   59.8670   33.9790   45.6000 C   0  0  0  0  0  0  0  0  0  0  0  0
   61.0120   33.9920   46.3910 C   0  0  0  0  0  0  0  0  0  0  0  0
   60.9650   33.4430   47.6820 C   0  0  0  0  0  0  0  0  0  0  0  0
   62.1640   33.4610   48.5570 C   0  0  0  0  0  0  0  0  0  0  0  0
   62.1500   34.1810   49.7660 C   0  0  0  0  0  0  0  0  0  0  0  0
   63.2790   34.2000   50.5910 C   0  0  0  0  0  0  0  0  0  0  0  0
   64.4300   33.5010   50.2210 C   0  0  0  0  0  0  0  0  0  0  0  0
   64.4550   32.7830   49.0230 C   0  0  0  0  0  0  0  0  0  0  0  0
   63.3300   32.7610   48.1930 C   0  0  0  0  0  0  0  0  0  0  0  0
   59.7910   32.9040   48.1250 N   0  0  0  0  0  0  0  0  0  0  0  0
   58.6950   32.8990   47.3620 N   0  0  0  0  0  0  0  0  0  0  0  0
   56.7790   29.7810   44.8730 C   0  0  0  0  0  0  0  0  0  0  0  0
   55.4770   29.9850   44.1340 C   0  0  0  0  0  0  0  0  0  0  0  0
   56.2563   26.1028   47.0334 H   0  0  0  0  0  0  0  0  0  0  0  0
   55.4270   25.6164   45.5161 H   0  0  0  0  0  0  0  0  0  0  0  0
   57.1987   25.9125   45.5161 H   0  0  0  0  0  0  0  0  0  0  0  0
   58.3950   27.5093   46.8764 H   0  0  0  0  0  0  0  0  0  0  0  0
   60.1180   29.3081   46.8112 H   0  0  0  0  0  0  0  0  0  0  0  0
   58.6646   32.2821   43.6141 H   0  0  0  0  0  0  0  0  0  0  0  0
   56.9265   31.9204   43.2822 H   0  0  0  0  0  0  0  0  0  0  0  0
   59.8885   34.3957   44.5822 H   0  0  0  0  0  0  0  0  0  0  0  0
   61.9460   34.4288   46.0077 H   0  0  0  0  0  0  0  0  0  0  0  0
   61.2458   34.7321   50.0638 H   0  0  0  0  0  0  0  0  0  0  0  0
   63.2604   34.7668   51.5335 H   0  0  0  0  0  0  0  0  0  0  0  0
   65.3162   33.5158   50.8724 H   0  0  0  0  0  0  0  0  0  0  0  0
   65.3623   32.2334   48.7318 H   0  0  0  0  0  0  0  0  0  0  0  0
   63.3561   32.1939   47.2508 H   0  0  0  0  0  0  0  0  0  0  0  0
   59.7340   32.4680   49.0710 H   0  0  0  0  0  0  0  0  0  0  0  0
   54.6599   30.1130   44.8592 H   0  0  0  0  0  0  0  0  0  0  0  0
   55.5506   30.8826   43.5024 H   0  0  0  0  0  0  0  0  0  0  0  0
   55.2726   29.1079   43.5024 H   0  0  0  0  0  0  0  0  0  0  0  0
  1  2  1  0
  2  3  1  0
  3  4  2  0
  4  5  1  0
  5  6  2  0
  6  7  1  0
  7  8  1  0
  8  9  1  0
  9 10  1  0
 10 11  2  0
 11 12  1  0
 12 13  2  0
 13 14  1  0
 14 15  2  0
 15 16  1  0
 16 17  2  0
 17 18  1  0
 18 19  2  0
 13 20  1  0
 20 21  2  0
  7 22  2  0
 22 23  1  0
 22  3  1  0
 21 10  1  0
 19 14  1  0
  1 24  1  0
  1 25  1  0
  1 26  1  0
  4 27  1  0
  5 28  1  0
  8 29  1  0
  8 30  1  0
 11 31  1  0
 12 32  1  0
 15 33  1  0
 16 34  1  0
 17 35  1  0
 18 36  1  0
 19 37  1  0
 20 38  1  0
 23 39  1  0
 23 40  1  0
 23 41  1  0
M  CHG  1  20   1
M  END
>  <UniqueID>  (62) 
55

>  <SMILES>  (62) 
COc1ccnc(CSc2ccc(-c3ccccc3)[nH+]n2)c1C

>  <Energy>  (62) 
45.55389435881672

>  <Genealogy>  (62) 
COc1ccnc(CSc2ccc(-c3ccccc3)[nH+]n2)c1C (protonated)
COc1ccnc(CSc2ccc(-c3ccccc3)[nH+]n2)c1C (3D coordinates assigned)
COc1ccnc(CSc2ccc(-c3ccccc3)[nH+]n2)c1C (optimized conformer: 45.55389435881672 kcal/mol)

>  <smiles>  (62) 
COc1ccnc(CSc2ccc(-c3ccccc3)nn2)c1C

>  <score_type>  (62) 
oracle

>  <origin>  (62) 
adg

>  <m_score__min__energy>  (62) 
-6.5099999999999998

>  <m_primary>  (62) 
energy

$$$$
62:0
     RDKit          3D

 34 36  0  0  0  0  0  0  0  0999 V2000
   60.5310   26.4900   46.2130 O   0  0  0  0  0  0  0  0  0  0  0  0
   59.5150   27.2350   46.2480 C   0  0  0  0  0  0  0  0  0  0  0  0
   58.6190   27.3210   45.0550 C   0  0  0  0  0  0  0  0  0  0  0  0
   56.8830   27.5560   45.5690 S   0  0  0  0  0  0  0  0  0  0  0  0
   56.8830   29.3230   45.2780 C   0  0  0  0  0  0  0  0  0  0  0  0
   55.9750   29.9510   44.5130 N   0  0  0  0  0  0  0  0  0  0  0  0
   56.2950   31.2330   44.5290 N   0  0  0  0  0  0  0  0  0  0  0  0
   57.3910   31.3500   45.3040 C   0  0  0  0  0  0  0  0  0  0  0  0
   58.0720   32.6340   45.5790 C   0  0  0  0  0  0  0  0  0  0  0  0
   58.5860   33.4090   44.5230 C   0  0  0  0  0  0  0  0  0  0  0  0
   59.2280   34.6230   44.7850 C   0  0  0  0  0  0  0  0  0  0  0  0
   59.3650   35.0730   46.1000 C   0  0  0  0  0  0  0  0  0  0  0  0
   58.8590   34.3120   47.1560 C   0  0  0  0  0  0  0  0  0  0  0  0
   58.2150   33.0970   46.8990 C   0  0  0  0  0  0  0  0  0  0  0  0
   57.7970   30.1630   45.8000 N   0  0  0  0  0  0  0  0  0  0  0  0
   59.2310   28.0310   47.4050 N   0  0  0  0  0  0  0  0  0  0  0  0
   59.8490   29.2790   47.7480 C   0  0  0  0  0  0  0  0  0  0  0  0
   59.5430   29.9590   48.9420 C   0  0  0  0  0  0  0  0  0  0  0  0
   60.1480   31.1890   49.2260 C   0  0  0  0  0  0  0  0  0  0  0  0
   61.0500   31.7530   48.3190 C   0  0  0  0  0  0  0  0  0  0  0  0
   61.8700   33.4330   48.7060 Br  0  0  0  0  0  0  0  0  0  0  0  0
   61.3400   31.0920   47.1210 C   0  0  0  0  0  0  0  0  0  0  0  0
   60.7350   29.8640   46.8340 C   0  0  0  0  0  0  0  0  0  0  0  0
   58.9293   28.1719   44.4307 H   0  0  0  0  0  0  0  0  0  0  0  0
   58.6959   26.3828   44.4860 H   0  0  0  0  0  0  0  0  0  0  0  0
   58.4821   33.0578   43.4858 H   0  0  0  0  0  0  0  0  0  0  0  0
   59.6257   35.2245   43.9543 H   0  0  0  0  0  0  0  0  0  0  0  0
   59.8719   36.0277   46.3041 H   0  0  0  0  0  0  0  0  0  0  0  0
   58.9670   34.6684   48.1911 H   0  0  0  0  0  0  0  0  0  0  0  0
   57.8184   32.5007   47.7339 H   0  0  0  0  0  0  0  0  0  0  0  0
   58.8266   29.5227   49.6537 H   0  0  0  0  0  0  0  0  0  0  0  0
   59.9133   31.7126   50.1645 H   0  0  0  0  0  0  0  0  0  0  0  0
   62.0446   31.5383   46.4038 H   0  0  0  0  0  0  0  0  0  0  0  0
   60.9563   29.3544   45.8846 H   0  0  0  0  0  0  0  0  0  0  0  0
  1  2  2  0
  2  3  1  0
  3  4  1  0
  4  5  1  0
  5  6  2  0
  6  7  1  0
  7  8  1  0
  8  9  1  0
  9 10  2  0
 10 11  1  0
 11 12  2  0
 12 13  1  0
 13 14  2  0
  8 15  2  0
  2 16  1  0
 16 17  1  0
 17 18  2  0
 18 19  1  0
 19 20  2  0
 20 21  1  0
 20 22  1  0
 22 23  2  0
 15  5  1  0
 23 17  1  0
 14  9  1  0
  3 24  1  0
  3 25  1  0
 10 26  1  0
 11 27  1  0
 12 28  1  0
 13 29  1  0
 14 30  1  0
 18 31  1  0
 19 32  1  0
 22 33  1  0
 23 34  1  0
M  CHG  2   7  -1  16  -1
M  END
>  <UniqueID>  (63) 
56

>  <SMILES>  (63) 
O=C(CSc1n[n-]c(-c2ccccc2)n1)[N-]c1ccc(Br)cc1

>  <Energy>  (63) 
67.28087307344266

>  <Genealogy>  (63) 
O=C(CSc1n[n-]c(-c2ccccc2)n1)[N-]c1ccc(Br)cc1 (protonated)
O=C(CSc1n[n-]c(-c2ccccc2)n1)[N-]c1ccc(Br)cc1 (3D coordinates assigned)
O=C(CSc1n[n-]c(-c2ccccc2)n1)[N-]c1ccc(Br)cc1 (optimized conformer: 67.28087307344266 kcal/mol)

>  <smiles>  (63) 
O=C(CSc1n[nH]c(-c2ccccc2)n1)Nc1ccc(Br)cc1

>  <score_type>  (63) 
oracle

>  <origin>  (63) 
adg

>  <m_score__min__energy>  (63) 
-11.42

>  <m_primary>  (63) 
energy

$$$$
63:0
     RDKit          3D

 49 52  0  0  0  0  0  0  0  0999 V2000
   53.8890   26.2420   45.9970 H   0  0  0  0  0  0  0  0  0  0  0  0
   54.8640   25.8800   45.9000 N   0  0  0  0  0  0  0  0  0  0  0  0
   55.8840   26.6690   45.9850 C   0  0  0  0  0  0  0  0  0  0  0  0
   55.8950   27.9110   45.4610 N   0  0  0  0  0  0  0  0  0  0  0  0
   57.1200   28.3730   45.7730 C   0  0  0  0  0  0  0  0  0  0  0  0
   57.6110   29.6990   45.3470 C   0  0  0  0  0  0  0  0  0  0  0  0
   57.2860   30.2170   44.0850 C   0  0  0  0  0  0  0  0  0  0  0  0
   56.6509   29.6355   43.4005 H   0  0  0  0  0  0  0  0  0  0  0  0
   57.7660   31.4680   43.6950 C   0  0  0  0  0  0  0  0  0  0  0  0
   57.4993   31.8734   42.7078 H   0  0  0  0  0  0  0  0  0  0  0  0
   58.5830   32.2070   44.5520 C   0  0  0  0  0  0  0  0  0  0  0  0
   58.9504   33.1955   44.2390 H   0  0  0  0  0  0  0  0  0  0  0  0
   58.9400   31.6960   45.8140 C   0  0  0  0  0  0  0  0  0  0  0  0
   59.8190   32.4730   46.7230 C   0  0  0  0  0  0  0  0  0  0  0  0
   61.0780   31.9750   47.1010 C   0  0  0  0  0  0  0  0  0  0  0  0
   61.4193   31.0034   46.7144 H   0  0  0  0  0  0  0  0  0  0  0  0
   61.8990   32.7050   47.9640 C   0  0  0  0  0  0  0  0  0  0  0  0
   62.8873   32.3094   48.2410 H   0  0  0  0  0  0  0  0  0  0  0  0
   61.4750   33.9350   48.4790 C   0  0  0  0  0  0  0  0  0  0  0  0
   62.3570   34.6590   49.3490 N   0  0  0  0  0  0  0  0  0  0  0  0
   62.8370   34.2190   50.6240 C   0  0  0  0  0  0  0  0  0  0  0  0
   64.0700   34.2970   50.8690 O   0  0  0  0  0  0  0  0  0  0  0  0
   61.9310   33.6950   51.6040 N   0  0  0  0  0  0  0  0  0  0  0  0
   60.7830   32.8710   51.3590 C   0  0  0  0  0  0  0  0  0  0  0  0
   60.8970   31.5500   50.8840 C   0  0  0  0  0  0  0  0  0  0  0  0
   61.8917   31.1138   50.7099 H   0  0  0  0  0  0  0  0  0  0  0  0
   59.7490   30.7910   50.6330 C   0  0  0  0  0  0  0  0  0  0  0  0
   59.8427   29.7558   50.2730 H   0  0  0  0  0  0  0  0  0  0  0  0
   58.4840   31.3460   50.8390 C   0  0  0  0  0  0  0  0  0  0  0  0
   57.5825   30.7453   50.6482 H   0  0  0  0  0  0  0  0  0  0  0  0
   58.3630   32.6630   51.2870 C   0  0  0  0  0  0  0  0  0  0  0  0
   57.3661   33.1012   51.4425 H   0  0  0  0  0  0  0  0  0  0  0  0
   59.5080   33.4250   51.5380 C   0  0  0  0  0  0  0  0  0  0  0  0
   59.4076   34.4662   51.8782 H   0  0  0  0  0  0  0  0  0  0  0  0
   60.2320   34.4530   48.0810 C   0  0  0  0  0  0  0  0  0  0  0  0
   59.9052   35.4364   48.4501 H   0  0  0  0  0  0  0  0  0  0  0  0
   59.4070   33.7240   47.2170 C   0  0  0  0  0  0  0  0  0  0  0  0
   58.4291   34.1323   46.9220 H   0  0  0  0  0  0  0  0  0  0  0  0
   58.4520   30.4330   46.1990 C   0  0  0  0  0  0  0  0  0  0  0  0
   58.7324   30.0166   47.1777 H   0  0  0  0  0  0  0  0  0  0  0  0
   57.8150   27.3920   46.4650 C   0  0  0  0  0  0  0  0  0  0  0  0
   59.2630   27.4020   46.8660 C   0  0  0  0  0  0  0  0  0  0  0  0
   59.4356   28.2303   47.5690 H   0  0  0  0  0  0  0  0  0  0  0  0
   59.5016   26.4380   47.3390 H   0  0  0  0  0  0  0  0  0  0  0  0
   60.1670   27.5830   45.6510 C   0  0  0  0  0  0  0  0  0  0  0  0
   61.1944   27.7887   45.9858 H   0  0  0  0  0  0  0  0  0  0  0  0
   60.1556   26.6647   45.0455 H   0  0  0  0  0  0  0  0  0  0  0  0
   59.8030   28.4261   45.0455 H   0  0  0  0  0  0  0  0  0  0  0  0
   57.0320   26.3060   46.5930 N   0  0  0  0  0  0  0  0  0  0  0  0
  1  2  1  0
  2  3  2  0
  3  4  1  0
  4  5  1  0
  5  6  1  0
  6  7  2  0
  7  8  1  0
  7  9  1  0
  9 10  1  0
  9 11  2  0
 11 12  1  0
 11 13  1  0
 13 14  1  0
 14 15  2  0
 15 16  1  0
 15 17  1  0
 17 18  1  0
 17 19  2  0
 19 20  1  0
 20 21  1  0
 21 22  2  0
 21 23  1  0
 23 24  1  0
 24 25  2  0
 25 26  1  0
 25 27  1  0
 27 28  1  0
 27 29  2  0
 29 30  1  0
 29 31  1  0
 31 32  1  0
 31 33  2  0
 33 34  1  0
 19 35  1  0
 35 36  1  0
 35 37  2  0
 37 38  1  0
 13 39  2  0
 39 40  1  0
  5 41  2  0
 41 42  1  0
 42 43  1  0
 42 44  1  0
 42 45  1  0
 45 46  1  0
 45 47  1  0
 45 48  1  0
 41 49  1  0
 49  3  1  0
 39  6  1  0
 37 14  1  0
 33 24  1  0
M  CHG  4   4  -1  20  -1  23  -1  49  -1
M  END
>  <UniqueID>  (64) 
57

>  <SMILES>  (64) 
[H]/N=c1/[n-]c(CC)c(-c2cccc(-c3ccc([N-]C(=O)[N-]c4ccccc4)cc3)c2)[n-]1

>  <Energy>  (64) 
94.99281078926451

>  <Genealogy>  (64) 
CCc1[n-]c(=N)[n-]c1-c1cccc(-c2ccc([N-]C(=O)[N-]c3ccccc3)cc2)c1 (protonated)
[H]/N=c1/[n-]c(CC)c(-c2cccc(-c3ccc([N-]C(=O)[N-]c4ccccc4)cc3)c2)[n-]1 (cis-trans isomerization)
[H]/N=c1/[n-]c(CC)c(-c2cccc(-c3ccc([N-]C(=O)[N-]c4ccccc4)cc3)c2)[n-]1 (3D coordinates assigned)
[H]/N=c1/[n-]c(CC)c(-c2cccc(-c3ccc([N-]C(=O)[N-]c4ccccc4)cc3)c2)[n-]1 (optimized conformer: 94.99281078926451 kcal/mol)

>  <smiles>  (64) 
CCc1[nH]c(=N)[nH]c1-c1cccc(-c2ccc(NC(=O)Nc3ccccc3)cc2)c1

>  <score_type>  (64) 
oracle

>  <origin>  (64) 
adg

>  <m_score__min__energy>  (64) 
-15.050000000000001

>  <m_primary>  (64) 
energy

$$$$
64:0
     RDKit          3D

 45 48  0  0  0  0  0  0  0  0999 V2000
   59.7360   26.1520   45.6110 N   0  0  0  0  0  0  0  0  0  0  0  0
   59.6020   27.3360   46.4030 C   0  0  0  0  0  0  0  0  0  0  0  0
   60.2840   28.5070   46.0430 C   0  0  0  0  0  0  0  0  0  0  0  0
   60.1520   29.6640   46.8170 C   0  0  0  0  0  0  0  0  0  0  0  0
   59.3370   29.6610   47.9570 C   0  0  0  0  0  0  0  0  0  0  0  0
   59.1290   31.1230   48.9160 S   0  0  0  0  0  0  0  0  0  0  0  0
   58.3930   30.7780   50.1810 O   0  0  0  0  0  0  0  0  0  0  0  0
   60.4610   31.7150   49.2830 O   0  0  0  0  0  0  0  0  0  0  0  0
   58.2090   32.2880   48.0190 N   0  0  0  0  0  0  0  0  0  0  0  0
   58.1840   32.3430   46.7190 C   0  0  0  0  0  0  0  0  0  0  0  0
   57.4800   31.4220   46.0020 N   0  0  0  0  0  0  0  0  0  0  0  0
   57.4260   31.4660   44.6470 C   0  0  0  0  0  0  0  0  0  0  0  0
   56.6910   30.5150   43.9310 C   0  0  0  0  0  0  0  0  0  0  0  0
   56.6440   30.5810   42.5340 C   0  0  0  0  0  0  0  0  0  0  0  0
   57.3280   31.5960   41.8540 C   0  0  0  0  0  0  0  0  0  0  0  0
   58.0620   32.5510   42.5670 C   0  0  0  0  0  0  0  0  0  0  0  0
   58.1120   32.4880   43.9640 C   0  0  0  0  0  0  0  0  0  0  0  0
   58.8160   33.4050   44.6760 N   0  0  0  0  0  0  0  0  0  0  0  0
   58.8810   33.3590   46.0370 C   0  0  0  0  0  0  0  0  0  0  0  0
   59.5400   34.2620   46.7080 N   0  0  0  0  0  0  0  0  0  0  0  0
   60.7270   34.0590   47.4940 C   0  0  0  0  0  0  0  0  0  0  0  0
   60.8490   34.5560   48.8050 C   0  0  0  0  0  0  0  0  0  0  0  0
   62.0340   34.3670   49.5220 C   0  0  0  0  0  0  0  0  0  0  0  0
   63.1110   33.7000   48.9340 C   0  0  0  0  0  0  0  0  0  0  0  0
   63.0130   33.2280   47.6170 C   0  0  0  0  0  0  0  0  0  0  0  0
   64.1210   32.5590   47.0080 N   0  0  0  0  0  0  0  0  0  0  0  0
   61.8240   33.4200   46.9000 C   0  0  0  0  0  0  0  0  0  0  0  0
   58.6520   28.4920   48.3140 C   0  0  0  0  0  0  0  0  0  0  0  0
   58.7850   27.3340   47.5430 C   0  0  0  0  0  0  0  0  0  0  0  0
   59.0140   25.9020   44.9000 H   0  0  0  0  0  0  0  0  0  0  0  0
   60.5580   25.5190   45.7300 H   0  0  0  0  0  0  0  0  0  0  0  0
   60.9248   28.5155   45.1490 H   0  0  0  0  0  0  0  0  0  0  0  0
   60.6897   30.5797   46.5301 H   0  0  0  0  0  0  0  0  0  0  0  0
   56.1519   29.7182   44.4643 H   0  0  0  0  0  0  0  0  0  0  0  0
   56.0682   29.8335   41.9686 H   0  0  0  0  0  0  0  0  0  0  0  0
   57.2884   31.6430   40.7557 H   0  0  0  0  0  0  0  0  0  0  0  0
   58.5977   33.3483   42.0310 H   0  0  0  0  0  0  0  0  0  0  0  0
   60.0089   35.0951   49.2671 H   0  0  0  0  0  0  0  0  0  0  0  0
   62.1184   34.7445   50.5517 H   0  0  0  0  0  0  0  0  0  0  0  0
   64.0382   33.5445   49.5051 H   0  0  0  0  0  0  0  0  0  0  0  0
   64.8300   33.0920   46.4580 H   0  0  0  0  0  0  0  0  0  0  0  0
   64.2400   31.5260   47.1040 H   0  0  0  0  0  0  0  0  0  0  0  0
   61.7511   33.0658   45.8611 H   0  0  0  0  0  0  0  0  0  0  0  0
   58.0068   28.4857   49.2049 H   0  0  0  0  0  0  0  0  0  0  0  0
   58.2475   26.4185   47.8310 H   0  0  0  0  0  0  0  0  0  0  0  0
  1  2  1  0
  2  3  2  0
  3  4  1  0
  4  5  2  0
  5  6  1  0
  6  7  2  0
  6  8  2  0
  6  9  1  0
  9 10  2  3
 10 11  1  0
 11 12  1  0
 12 13  2  0
 13 14  1  0
 14 15  2  0
 15 16  1  0
 16 17  2  0
 17 18  1  0
 18 19  1  0
 19 20  2  3
 20 21  1  0
 21 22  2  0
 22 23  1  0
 23 24  2  0
 24 25  1  0
 25 26  1  0
 25 27  2  0
  5 28  1  0
 28 29  2  0
 29  2  1  0
 19 10  1  0
 27 21  1  0
 17 12  1  0
  1 30  1  0
  1 31  1  0
  3 32  1  0
  4 33  1  0
 13 34  1  0
 14 35  1  0
 15 36  1  0
 16 37  1  0
 22 38  1  0
 23 39  1  0
 24 40  1  0
 26 41  1  0
 26 42  1  0
 27 43  1  0
 28 44  1  0
 29 45  1  0
M  CHG  2  11  -1  18  -1
M  END
>  <UniqueID>  (65) 
58

>  <SMILES>  (65) 
Nc1ccc(S(=O)(=O)N=c2[n-]c3ccccc3[n-]c2=Nc2cccc(N)c2)cc1

>  <Energy>  (65) 
60.986689904974625

>  <Genealogy>  (65) 
Nc1ccc(S(=O)(=O)N=c2[n-]c3ccccc3[n-]c2=Nc2cccc(N)c2)cc1 (protonated)
Nc1ccc(S(=O)(=O)N=c2[n-]c3ccccc3[n-]c2=Nc2cccc(N)c2)cc1 (3D coordinates assigned)
Nc1ccc(S(=O)(=O)N=c2[n-]c3ccccc3[n-]c2=Nc2cccc(N)c2)cc1 (optimized conformer: 60.986689904974625 kcal/mol)

>  <smiles>  (65) 
Nc1ccc(S(=O)(=O)N=c2[nH]c3ccccc3[nH]c2=Nc2cccc(N)c2)cc1

>  <score_type>  (65) 
oracle

>  <origin>  (65) 
adg

>  <m_score__min__energy>  (65) 
-10.84

>  <m_primary>  (65) 
energy

$$$$
65:0
     RDKit          3D

 53 56  0  0  0  0  0  0  0  0999 V2000
   62.6790   34.6670   49.2560 H   0  0  0  0  0  0  0  0  0  0  0  0
   62.0420   34.5050   48.5220 O   0  0  0  0  0  0  0  0  0  0  0  0
   62.5550   33.4350   47.7780 C   0  0  1  0  0  0  0  0  0  0  0  0
   63.1528   33.8673   46.9621 H   0  0  0  0  0  0  0  0  0  0  0  0
   63.3420   32.5410   48.6670 C   0  0  0  0  0  0  0  0  0  0  0  0
   64.5430   32.8560   49.0520 N   0  0  0  0  0  0  0  0  0  0  0  0
   64.8700   33.7970   50.0140 O   0  0  0  0  0  0  0  0  0  0  0  0
   65.7820   33.5330   51.0790 C   0  0  0  0  0  0  0  0  0  0  0  0
   65.4736   32.6200   51.6094 H   0  0  0  0  0  0  0  0  0  0  0  0
   65.7837   34.3791   51.7819 H   0  0  0  0  0  0  0  0  0  0  0  0
   67.1760   33.3420   50.5080 C   0  0  0  0  0  0  0  0  0  0  0  0
   67.8990   33.2429   51.3311 H   0  0  0  0  0  0  0  0  0  0  0  0
   67.1975   32.4325   49.8896 H   0  0  0  0  0  0  0  0  0  0  0  0
   67.4414   34.2122   49.8896 H   0  0  0  0  0  0  0  0  0  0  0  0
   62.7240   31.1960   48.8080 C   0  0  0  0  0  0  0  0  0  0  0  0
   63.4249   30.4074   48.4967 H   0  0  0  0  0  0  0  0  0  0  0  0
   62.4481   30.9596   49.8463 H   0  0  0  0  0  0  0  0  0  0  0  0
   61.5740   31.2510   47.9160 N   0  0  0  0  0  0  0  0  0  0  0  0
   60.7160   30.1280   47.6520 C   0  0  0  0  0  0  0  0  0  0  0  0
   60.6590   29.0450   48.5430 C   0  0  0  0  0  0  0  0  0  0  0  0
   61.4180   29.0250   49.6670 F   0  0  0  0  0  0  0  0  0  0  0  0
   59.7620   28.0030   48.3210 C   0  0  0  0  0  0  0  0  0  0  0  0
   59.7234   27.1584   49.0247 H   0  0  0  0  0  0  0  0  0  0  0  0
   58.9020   28.0200   47.2020 C   0  0  0  0  0  0  0  0  0  0  0  0
   57.9400   27.0130   47.0260 C   0  0  0  0  0  0  0  0  0  0  0  0
   57.8590   26.0700   47.8590 O   0  0  0  0  0  0  0  0  0  0  0  0
   57.0550   27.0730   45.9340 C   0  0  0  0  0  0  0  0  0  0  0  0
   55.9850   26.0580   45.7240 C   0  0  0  0  0  0  0  0  0  0  0  0
   54.7770   26.3330   45.9460 O   0  0  0  0  0  0  0  0  0  0  0  0
   56.3040   24.7780   45.2890 O   0  0  0  0  0  0  0  0  0  0  0  0
   57.1890   28.1240   45.0130 C   0  0  0  0  0  0  0  0  0  0  0  0
   56.4771   28.1942   44.1774 H   0  0  0  0  0  0  0  0  0  0  0  0
   58.1850   29.0710   45.1230 N   0  0  0  0  0  0  0  0  0  0  0  0
   58.3840   30.0810   44.1260 N   0  0  0  0  0  0  0  0  0  0  0  0
   59.3660   30.4270   44.2050 H   0  0  0  0  0  0  0  0  0  0  0  0
   58.2280   29.6450   43.1900 H   0  0  0  0  0  0  0  0  0  0  0  0
   57.4750   31.2410   44.2130 C   0  0  0  0  0  0  0  0  0  0  0  0
   57.0509   31.4416   43.2181 H   0  0  0  0  0  0  0  0  0  0  0  0
   56.6756   31.0078   44.9317 H   0  0  0  0  0  0  0  0  0  0  0  0
   58.2260   32.4920   44.7020 C   0  0  0  0  0  0  0  0  0  0  0  0
   59.1319   32.2894   44.1119 H   0  0  0  0  0  0  0  0  0  0  0  0
   57.3760   33.7360   44.9820 C   0  0  0  0  0  0  0  0  0  0  0  0
   57.7810   34.7377   44.7754 H   0  0  0  0  0  0  0  0  0  0  0  0
   56.3752   34.0799   44.6818 H   0  0  0  0  0  0  0  0  0  0  0  0
   57.9310   32.9140   46.1310 C   0  0  0  0  0  0  0  0  0  0  0  0
   58.7360   33.3231   46.7592 H   0  0  0  0  0  0  0  0  0  0  0  0
   57.4938   32.4180   47.0101 H   0  0  0  0  0  0  0  0  0  0  0  0
   58.9890   29.0740   46.2530 C   0  0  0  0  0  0  0  0  0  0  0  0
   59.8980   30.1270   46.5110 C   0  0  0  0  0  0  0  0  0  0  0  0
   59.9654   30.9645   45.8010 H   0  0  0  0  0  0  0  0  0  0  0  0
   61.4200   32.5460   47.2520 C   0  0  0  0  0  0  0  0  0  0  0  0
   61.5027   32.4275   46.1615 H   0  0  0  0  0  0  0  0  0  0  0  0
   60.4348   32.9886   47.4607 H   0  0  0  0  0  0  0  0  0  0  0  0
  1  2  1  0
  2  3  1  0
  3  4  1  6
  3  5  1  0
  5  6  2  0
  6  7  1  0
  7  8  1  0
  8  9  1  0
  8 10  1  0
  8 11  1  0
 11 12  1  0
 11 13  1  0
 11 14  1  0
  5 15  1  0
 15 16  1  0
 15 17  1  0
 15 18  1  0
 18 19  1  0
 19 20  2  0
 20 21  1  0
 20 22  1  0
 22 23  1  0
 22 24  2  0
 24 25  1  0
 25 26  2  0
 25 27  1  0
 27 28  1  0
 28 29  2  0
 28 30  1  0
 27 31  2  0
 31 32  1  0
 31 33  1  0
 33 34  1  0
 34 35  1  0
 34 36  1  0
 34 37  1  0
 37 38  1  0
 37 39  1  0
 37 40  1  0
 40 41  1  0
 40 42  1  0
 42 43  1  0
 42 44  1  0
 42 45  1  0
 45 46  1  0
 45 47  1  0
 33 48  1  0
 48 49  2  0
 49 50  1  0
 18 51  1  0
 51 52  1  0
 51 53  1  0
 51  3  1  0
 49 19  1  0
 48 24  1  0
 45 40  1  0
M  CHG  2  30  -1  34   1
M  END
>  <UniqueID>  (66) 
59

>  <SMILES>  (66) 
CCO/N=C1\CN(c2cc3c(cc2F)c(=O)c(C(=O)[O-])cn3[NH2+]CC2CC2)C[C@H]1O

>  <Energy>  (66) 
350.9792725896756

>  <Genealogy>  (66) 
CCON=C1CN(c2cc3c(cc2F)c(=O)c(C(=O)[O-])cn3[NH2+]CC2CC2)CC1O (protonated)
CCON=C1CN(c2cc3c(cc2F)c(=O)c(C(=O)[O-])cn3[NH2+]CC2CC2)C[C@H]1O (chirality)
CCO/N=C1\CN(c2cc3c(cc2F)c(=O)c(C(=O)[O-])cn3[NH2+]CC2CC2)C[C@H]1O (cis-trans isomerization)
CCO/N=C1\CN(c2cc3c(cc2F)c(=O)c(C(=O)[O-])cn3[NH2+]CC2CC2)C[C@H]1O (3D coordinates assigned)
CCO/N=C1\CN(c2cc3c(cc2F)c(=O)c(C(=O)[O-])cn3[NH2+]CC2CC2)C[C@H]1O (nonaromatic ring conformer: 350.9792725896756 kcal/mol)

>  <smiles>  (66) 
CCON=C1CN(c2cc3c(cc2F)c(=O)c(C(=O)O)cn3NCC2CC2)CC1O

>  <score_type>  (66) 
oracle

>  <origin>  (66) 
adg

>  <m_score__min__energy>  (66) 
-9.1099999999999994

>  <m_primary>  (66) 
energy

$$$$
66:0
     RDKit          3D

 24 26  0  0  0  0  0  0  0  0999 V2000
   56.1340   29.5040   43.8150 C   0  0  0  0  0  0  0  0  0  0  0  0
   56.9820   30.5270   44.4920 C   0  0  0  0  0  0  0  0  0  0  0  0
   58.2310   30.2840   45.0610 C   0  0  0  0  0  0  0  0  0  0  0  0
   58.6150   31.5140   45.5360 C   0  0  0  0  0  0  0  0  0  0  0  0
   59.7230   31.8650   46.1720 O   0  0  0  0  0  0  0  0  0  0  0  0
   59.9120   33.1340   46.5600 C   0  0  0  0  0  0  0  0  0  0  0  0
   61.1630   33.4740   47.2660 C   0  0  0  0  0  0  0  0  0  0  0  0
   62.4610   33.4630   46.7560 C   0  0  0  0  0  0  0  0  0  0  0  0
   63.4290   33.8410   47.6940 C   0  0  0  0  0  0  0  0  0  0  0  0
   62.9090   34.1510   48.9430 C   0  0  0  0  0  0  0  0  0  0  0  0
   61.2420   33.9530   48.8770 S   0  0  0  0  0  0  0  0  0  0  0  0
   58.9170   34.1150   46.2840 C   0  0  0  0  0  0  0  0  0  0  0  0
   57.7450   33.7330   45.6090 C   0  0  0  0  0  0  0  0  0  0  0  0
   56.8390   34.5680   45.3460 O   0  0  0  0  0  0  0  0  0  0  0  0
   57.6240   32.4000   45.2430 C   0  0  0  0  0  0  0  0  0  0  0  0
   56.6440   31.8020   44.6120 O   0  0  0  0  0  0  0  0  0  0  0  0
   55.6250   28.8900   44.5726 H   0  0  0  0  0  0  0  0  0  0  0  0
   55.3843   30.0069   43.1865 H   0  0  0  0  0  0  0  0  0  0  0  0
   56.7672   28.8605   43.1865 H   0  0  0  0  0  0  0  0  0  0  0  0
   58.7794   29.3321   45.1165 H   0  0  0  0  0  0  0  0  0  0  0  0
   62.7005   33.1848   45.7191 H   0  0  0  0  0  0  0  0  0  0  0  0
   64.5033   33.8880   47.4624 H   0  0  0  0  0  0  0  0  0  0  0  0
   63.4873   34.4705   49.8224 H   0  0  0  0  0  0  0  0  0  0  0  0
   59.0642   35.1596   46.5956 H   0  0  0  0  0  0  0  0  0  0  0  0
  1  2  1  0
  2  3  2  0
  3  4  1  0
  4  5  1  0
  5  6  1  0
  6  7  1  0
  7  8  2  0
  8  9  1  0
  9 10  2  0
 10 11  1  0
  6 12  2  0
 12 13  1  0
 13 14  2  0
 13 15  1  0
 15 16  1  0
 16  2  1  0
 15  4  2  0
 11  7  1  0
  1 17  1  0
  1 18  1  0
  1 19  1  0
  3 20  1  0
  8 21  1  0
  9 22  1  0
 10 23  1  0
 12 24  1  0
M  END
>  <UniqueID>  (67) 
60

>  <SMILES>  (67) 
Cc1cc2oc(-c3cccs3)cc(=O)c2o1

>  <Energy>  (67) 
88.78577362759641

>  <Genealogy>  (67) 
Cc1cc2oc(-c3cccs3)cc(=O)c2o1 (3D coordinates assigned)
Cc1cc2oc(-c3cccs3)cc(=O)c2o1 (optimized conformer: 88.78577362759641 kcal/mol)

>  <smiles>  (67) 
Cc1cc2oc(-c3cccs3)cc(=O)c2o1

>  <score_type>  (67) 
oracle

>  <origin>  (67) 
adg

>  <m_score__min__energy>  (67) 
-5.96

>  <m_primary>  (67) 
energy

$$$$
67:0
     RDKit          3D

 53 55  0  0  0  0  0  0  0  0999 V2000
   56.3850   24.3910   44.7970 C   0  0  0  0  0  0  0  0  0  0  0  0
   56.3190   25.8750   45.7780 S   0  0  0  0  0  0  0  0  0  0  0  0
   54.8940   26.3050   45.9860 O   0  0  0  0  0  0  0  0  0  0  0  0
   56.9350   25.5910   47.1190 O   0  0  0  0  0  0  0  0  0  0  0  0
   57.2190   27.1440   45.0060 N   0  0  0  0  0  0  0  0  0  0  0  0
   58.1810   27.9870   45.6680 C   0  0  0  0  0  0  0  0  0  0  0  0
   59.2600   28.4970   44.9290 C   0  0  0  0  0  0  0  0  0  0  0  0
   60.2170   29.3120   45.5370 C   0  0  0  0  0  0  0  0  0  0  0  0
   60.1150   29.6330   46.8990 C   0  0  0  0  0  0  0  0  0  0  0  0
   61.1870   30.4620   47.5620 C   0  0  0  0  0  0  0  0  0  0  0  0
   60.6140   31.7740   48.1140 C   0  0  0  0  0  0  0  0  0  0  0  0
   61.2150   33.0200   47.4280 C   0  0  0  0  0  0  0  0  0  0  0  0
   60.2130   34.0640   47.1260 N   0  0  0  0  0  0  0  0  0  0  0  0
   58.8920   33.8750   47.7720 C   0  0  0  0  0  0  0  0  0  0  0  0
   57.9000   33.0730   46.9050 C   0  0  0  0  0  0  0  0  0  0  0  0
   58.0630   33.3760   45.4790 N   0  0  0  0  0  0  0  0  0  0  0  0
   57.6460   32.4150   44.4890 C   0  0  0  0  0  0  0  0  0  0  0  0
   57.0150   31.2170   44.8740 C   0  0  0  0  0  0  0  0  0  0  0  0
   56.5810   30.3040   43.9080 C   0  0  0  0  0  0  0  0  0  0  0  0
   56.7690   30.5790   42.5510 C   0  0  0  0  0  0  0  0  0  0  0  0
   57.3890   31.7680   42.1580 C   0  0  0  0  0  0  0  0  0  0  0  0
   57.8220   32.6850   43.1210 C   0  0  0  0  0  0  0  0  0  0  0  0
   58.8070   34.5800   45.1070 C   0  0  0  0  0  0  0  0  0  0  0  0
   60.2100   34.5030   45.7070 C   0  0  0  0  0  0  0  0  0  0  0  0
   59.0370   29.1300   47.6410 C   0  0  0  0  0  0  0  0  0  0  0  0
   58.0780   28.3150   47.0340 C   0  0  0  0  0  0  0  0  0  0  0  0
   56.4240   23.5144   45.4604 H   0  0  0  0  0  0  0  0  0  0  0  0
   55.4886   24.3309   44.1622 H   0  0  0  0  0  0  0  0  0  0  0  0
   57.2832   24.4107   44.1622 H   0  0  0  0  0  0  0  0  0  0  0  0
   57.0400   27.2890   43.9860 H   0  0  0  0  0  0  0  0  0  0  0  0
   59.3525   28.2522   43.8606 H   0  0  0  0  0  0  0  0  0  0  0  0
   61.0563   29.7049   44.9443 H   0  0  0  0  0  0  0  0  0  0  0  0
   61.6251   29.8856   48.3902 H   0  0  0  0  0  0  0  0  0  0  0  0
   61.9525   30.7058   46.8106 H   0  0  0  0  0  0  0  0  0  0  0  0
   59.5252   31.7764   47.9573 H   0  0  0  0  0  0  0  0  0  0  0  0
   60.8704   31.8259   49.1824 H   0  0  0  0  0  0  0  0  0  0  0  0
   61.9777   33.4507   48.0934 H   0  0  0  0  0  0  0  0  0  0  0  0
   61.6394   32.6897   46.4684 H   0  0  0  0  0  0  0  0  0  0  0  0
   59.0404   33.3381   48.7205 H   0  0  0  0  0  0  0  0  0  0  0  0
   58.4578   34.8739   47.9258 H   0  0  0  0  0  0  0  0  0  0  0  0
   58.0744   31.9986   47.0640 H   0  0  0  0  0  0  0  0  0  0  0  0
   56.8785   33.3530   47.2020 H   0  0  0  0  0  0  0  0  0  0  0  0
   56.8625   30.9978   45.9411 H   0  0  0  0  0  0  0  0  0  0  0  0
   56.0912   29.3686   44.2165 H   0  0  0  0  0  0  0  0  0  0  0  0
   56.4288   29.8593   41.7919 H   0  0  0  0  0  0  0  0  0  0  0  0
   57.5367   31.9831   41.0894 H   0  0  0  0  0  0  0  0  0  0  0  0
   58.3030   33.6228   42.8060 H   0  0  0  0  0  0  0  0  0  0  0  0
   58.8776   34.6461   44.0113 H   0  0  0  0  0  0  0  0  0  0  0  0
   58.2875   35.4709   45.4896 H   0  0  0  0  0  0  0  0  0  0  0  0
   60.8040   33.7885   45.1181 H   0  0  0  0  0  0  0  0  0  0  0  0
   60.6363   35.5166   45.6761 H   0  0  0  0  0  0  0  0  0  0  0  0
   58.9455   29.3787   48.7086 H   0  0  0  0  0  0  0  0  0  0  0  0
   57.2368   27.9268   47.6270 H   0  0  0  0  0  0  0  0  0  0  0  0
  1  2  1  0
  2  3  2  0
  2  4  2  0
  2  5  1  0
  5  6  1  0
  6  7  2  0
  7  8  1  0
  8  9  2  0
  9 10  1  0
 10 11  1  0
 11 12  1  0
 12 13  1  0
 13 14  1  0
 14 15  1  0
 15 16  1  0
 16 17  1  0
 17 18  2  0
 18 19  1  0
 19 20  2  0
 20 21  1  0
 21 22  2  0
 16 23  1  0
 23 24  1  0
  9 25  1  0
 25 26  2  0
 26  6  1  0
 24 13  1  0
 22 17  1  0
  1 27  1  0
  1 28  1  0
  1 29  1  0
  5 30  1  0
  7 31  1  0
  8 32  1  0
 10 33  1  0
 10 34  1  0
 11 35  1  0
 11 36  1  0
 12 37  1  0
 12 38  1  0
 14 39  1  0
 14 40  1  0
 15 41  1  0
 15 42  1  0
 18 43  1  0
 19 44  1  0
 20 45  1  0
 21 46  1  0
 22 47  1  0
 23 48  1  0
 23 49  1  0
 24 50  1  0
 24 51  1  0
 25 52  1  0
 26 53  1  0
M  END
>  <UniqueID>  (68) 
61

>  <SMILES>  (68) 
CS(=O)(=O)Nc1ccc(CCCN2CCN(c3ccccc3)CC2)cc1

>  <Energy>  (68) 
63.38967825475991

>  <Genealogy>  (68) 
CS(=O)(=O)Nc1ccc(CCCN2CCN(c3ccccc3)CC2)cc1 (3D coordinates assigned)
CS(=O)(=O)Nc1ccc(CCCN2CCN(c3ccccc3)CC2)cc1 (nonaromatic ring conformer: 63.38967825475991 kcal/mol)

>  <smiles>  (68) 
CS(=O)(=O)Nc1ccc(CCCN2CCN(c3ccccc3)CC2)cc1

>  <score_type>  (68) 
oracle

>  <origin>  (68) 
adg

>  <m_score__min__energy>  (68) 
-8.9399999999999995

>  <m_primary>  (68) 
energy

$$$$
68:0
     RDKit          3D

 16 17  0  0  0  0  0  0  0  0999 V2000
   57.3150   21.1580   43.3560 C   0  0  0  0  0  0  0  0  0  0  0  0
   56.2760   21.8490   42.8240 N   0  0  0  0  0  0  0  0  0  0  0  0
   55.8600   23.0200   43.3690 C   0  0  0  0  0  0  0  0  0  0  0  0
   56.5050   23.5380   44.5020 C   0  0  0  0  0  0  0  0  0  0  0  0
   56.0830   24.8120   45.1280 C   0  0  0  0  0  0  0  0  0  0  0  0
   56.8660   25.9040   45.4430 C   0  0  0  0  0  0  0  0  0  0  0  0
   56.0610   26.8290   45.9920 N   0  0  0  0  0  0  0  0  0  0  0  0
   54.8390   26.3180   46.0090 N   0  0  0  0  0  0  0  0  0  0  0  0
   54.8200   25.0980   45.4940 N   0  0  0  0  0  0  0  0  0  0  0  0
   57.5770   22.8040   45.0310 C   0  0  0  0  0  0  0  0  0  0  0  0
   57.9610   21.6350   44.4520 N   0  0  0  0  0  0  0  0  0  0  0  0
   57.6351   20.2099   42.8993 H   0  0  0  0  0  0  0  0  0  0  0  0
   55.0153   23.5642   42.9215 H   0  0  0  0  0  0  0  0  0  0  0  0
   57.9490   25.9994   45.2755 H   0  0  0  0  0  0  0  0  0  0  0  0
   58.1097   23.1759   45.9186 H   0  0  0  0  0  0  0  0  0  0  0  0
   58.7590   21.0970   44.8550 H   0  0  0  0  0  0  0  0  0  0  0  0
  1  2  2  0
  2  3  1  0
  3  4  2  0
  4  5  1  0
  5  6  1  0
  6  7  2  0
  7  8  1  0
  8  9  1  0
  4 10  1  0
 10 11  2  0
 11  1  1  0
  9  5  2  0
  1 12  1  0
  3 13  1  0
  6 14  1  0
 10 15  1  0
 11 16  1  0
M  CHG  2   8  -1  11   1
M  END
>  <UniqueID>  (69) 
62

>  <SMILES>  (69) 
c1ncc(-c2cn[n-]n2)c[nH+]1

>  <Energy>  (69) 
52.15160658715237

>  <Genealogy>  (69) 
c1ncc(-c2cn[n-]n2)c[nH+]1 (protonated)
c1ncc(-c2cn[n-]n2)c[nH+]1 (3D coordinates assigned)
c1ncc(-c2cn[n-]n2)c[nH+]1 (optimized conformer: 52.15160658715237 kcal/mol)

>  <smiles>  (69) 
c1ncc(-c2cn[nH]n2)cn1

>  <score_type>  (69) 
oracle

>  <origin>  (69) 
adg

>  <m_score__min__energy>  (69) 
-6.6100000000000003

>  <m_primary>  (69) 
energy

$$$$
69:0
     RDKit          3D

 35 37  0  0  0  0  0  0  0  0999 V2000
   55.5310   27.0730   45.6260 N   0  0  0  0  0  0  0  0  0  0  0  0
   56.7050   26.4950   46.1920 C   0  0  0  0  0  0  0  0  0  0  0  0
   56.8040   25.2400   46.2580 O   0  0  0  0  0  0  0  0  0  0  0  0
   57.8020   27.3480   46.6990 C   0  0  0  0  0  0  0  0  0  0  0  0
   58.5150   27.0490   47.8750 C   0  0  0  0  0  0  0  0  0  0  0  0
   59.5150   27.9740   48.1870 C   0  0  0  0  0  0  0  0  0  0  0  0
   60.4320   27.9340   49.3560 C   0  0  0  0  0  0  0  0  0  0  0  0
   60.7350   26.7180   50.0010 C   0  0  0  0  0  0  0  0  0  0  0  0
   61.5980   26.6940   51.1000 C   0  0  0  0  0  0  0  0  0  0  0  0
   62.1670   27.8780   51.5720 C   0  0  0  0  0  0  0  0  0  0  0  0
   61.8730   29.0910   50.9450 C   0  0  0  0  0  0  0  0  0  0  0  0
   61.0100   29.1210   49.8450 C   0  0  0  0  0  0  0  0  0  0  0  0
   59.5120   29.1630   46.9890 S   0  0  0  0  0  0  0  0  0  0  0  0
   58.2520   28.5160   46.0810 C   0  0  0  0  0  0  0  0  0  0  0  0
   57.7100   29.0680   44.8730 N   0  0  0  0  0  0  0  0  0  0  0  0
   56.8820   30.2340   44.7590 C   0  0  0  0  0  0  0  0  0  0  0  0
   55.6510   30.1170   44.5180 O   0  0  0  0  0  0  0  0  0  0  0  0
   57.4800   31.5760   44.9680 C   0  0  0  0  0  0  0  0  0  0  0  0
   57.7520   31.9990   46.2840 C   0  0  0  0  0  0  0  0  0  0  0  0
   58.2990   33.2590   46.5310 C   0  0  0  0  0  0  0  0  0  0  0  0
   58.5880   34.1170   45.4700 C   0  0  0  0  0  0  0  0  0  0  0  0
   58.3370   33.7130   44.1590 C   0  0  0  0  0  0  0  0  0  0  0  0
   57.7880   32.4510   43.8940 C   0  0  0  0  0  0  0  0  0  0  0  0
   57.5640   31.9750   42.0470 Br  0  0  0  0  0  0  0  0  0  0  0  0
   55.5760   27.9730   45.0980 H   0  0  0  0  0  0  0  0  0  0  0  0
   58.3037   26.1648   48.4943 H   0  0  0  0  0  0  0  0  0  0  0  0
   60.2889   25.7809   49.6367 H   0  0  0  0  0  0  0  0  0  0  0  0
   61.8296   25.7391   51.5946 H   0  0  0  0  0  0  0  0  0  0  0  0
   62.8463   27.8558   52.4369 H   0  0  0  0  0  0  0  0  0  0  0  0
   62.3210   30.0242   51.3171 H   0  0  0  0  0  0  0  0  0  0  0  0
   60.7808   30.0802   49.3577 H   0  0  0  0  0  0  0  0  0  0  0  0
   57.5306   31.3280   47.1271 H   0  0  0  0  0  0  0  0  0  0  0  0
   58.5026   33.5760   47.5645 H   0  0  0  0  0  0  0  0  0  0  0  0
   59.0137   35.1119   45.6672 H   0  0  0  0  0  0  0  0  0  0  0  0
   58.5721   34.3910   43.3253 H   0  0  0  0  0  0  0  0  0  0  0  0
  1  2  1  0
  2  3  2  0
  2  4  1  0
  4  5  1  0
  5  6  2  0
  6  7  1  0
  7  8  2  0
  8  9  1  0
  9 10  2  0
 10 11  1  0
 11 12  2  0
  6 13  1  0
 13 14  1  0
 14 15  1  0
 15 16  1  0
 16 17  2  0
 16 18  1  0
 18 19  2  0
 19 20  1  0
 20 21  2  0
 21 22  1  0
 22 23  2  0
 23 24  1  0
 14  4  2  0
 23 18  1  0
 12  7  1  0
  1 25  1  0
  5 26  1  0
  8 27  1  0
  9 28  1  0
 10 29  1  0
 11 30  1  0
 12 31  1  0
 19 32  1  0
 20 33  1  0
 21 34  1  0
 22 35  1  0
M  CHG  2   1  -1  15  -1
M  END
>  <UniqueID>  (70) 
63

>  <SMILES>  (70) 
[NH-]C(=O)c1cc(-c2ccccc2)sc1[N-]C(=O)c1ccccc1Br

>  <Energy>  (70) 
72.95009370246792

>  <Genealogy>  (70) 
[NH-]C(=O)c1cc(-c2ccccc2)sc1[N-]C(=O)c1ccccc1Br (protonated)
[NH-]C(=O)c1cc(-c2ccccc2)sc1[N-]C(=O)c1ccccc1Br (3D coordinates assigned)
[NH-]C(=O)c1cc(-c2ccccc2)sc1[N-]C(=O)c1ccccc1Br (optimized conformer: 72.95009370246792 kcal/mol)

>  <smiles>  (70) 
NC(=O)c1cc(-c2ccccc2)sc1NC(=O)c1ccccc1Br

>  <score_type>  (70) 
oracle

>  <origin>  (70) 
adg

>  <m_score__min__energy>  (70) 
-12.390000000000001

>  <m_primary>  (70) 
energy

$$$$
70:0
     RDKit          3D

 39 41  0  0  0  0  0  0  0  0999 V2000
   56.7920   32.9777   45.1621 H   0  0  0  0  0  0  0  0  0  0  0  0
   57.3960   32.0660   45.2800 C   0  0  0  0  0  0  0  0  0  0  0  0
   56.8710   30.8620   44.9490 N   0  0  0  0  0  0  0  0  0  0  0  0
   57.5750   29.7130   45.0940 C   0  0  0  0  0  0  0  0  0  0  0  0
   57.1139   28.7557   44.8095 H   0  0  0  0  0  0  0  0  0  0  0  0
   58.8870   29.7260   45.6030 C   0  0  0  0  0  0  0  0  0  0  0  0
   59.5600   28.3920   45.8080 C   0  0  0  0  0  0  0  0  0  0  0  0
   59.6601   28.1935   46.8853 H   0  0  0  0  0  0  0  0  0  0  0  0
   58.9535   27.6002   45.3441 H   0  0  0  0  0  0  0  0  0  0  0  0
   60.5572   28.4093   45.3441 H   0  0  0  0  0  0  0  0  0  0  0  0
   59.4770   30.9900   45.9260 C   0  0  0  0  0  0  0  0  0  0  0  0
   60.7010   31.1500   46.3630 N   0  0  0  0  0  0  0  0  0  0  0  0
   61.2290   31.0340   47.6890 C   0  0  0  0  0  0  0  0  0  0  0  0
   60.6900   30.0810   48.5640 C   0  0  0  0  0  0  0  0  0  0  0  0
   59.8351   29.4666   48.2452 H   0  0  0  0  0  0  0  0  0  0  0  0
   61.2330   29.9080   49.8380 C   0  0  0  0  0  0  0  0  0  0  0  0
   60.7931   29.1730   50.5281 H   0  0  0  0  0  0  0  0  0  0  0  0
   62.3350   30.6680   50.2370 C   0  0  0  0  0  0  0  0  0  0  0  0
   62.8620   30.4980   51.4750 F   0  0  0  0  0  0  0  0  0  0  0  0
   62.9030   31.5950   49.3580 C   0  0  0  0  0  0  0  0  0  0  0  0
   63.7753   32.1860   49.6739 H   0  0  0  0  0  0  0  0  0  0  0  0
   62.3640   31.7750   48.0720 C   0  0  0  0  0  0  0  0  0  0  0  0
   62.9860   32.7620   47.1240 C   0  0  0  0  0  0  0  0  0  0  0  0
   63.4864   33.5561   47.6976 H   0  0  0  0  0  0  0  0  0  0  0  0
   63.7232   32.2472   46.4903 H   0  0  0  0  0  0  0  0  0  0  0  0
   62.2035   33.2049   46.4903 H   0  0  0  0  0  0  0  0  0  0  0  0
   58.7000   32.1550   45.7700 C   0  0  0  0  0  0  0  0  0  0  0  0
   59.3600   33.7840   46.1630 S   0  0  0  0  0  0  0  0  0  0  0  0
   59.2920   33.4930   47.9320 C   0  0  0  0  0  0  0  0  0  0  0  0
   60.1470   34.1940   48.7910 C   0  0  0  0  0  0  0  0  0  0  0  0
   60.8554   34.9292   48.3817 H   0  0  0  0  0  0  0  0  0  0  0  0
   60.1010   33.9600   50.1700 C   0  0  0  0  0  0  0  0  0  0  0  0
   60.7755   34.5088   50.8437 H   0  0  0  0  0  0  0  0  0  0  0  0
   59.1970   33.0280   50.6920 C   0  0  0  0  0  0  0  0  0  0  0  0
   59.1634   32.8412   51.7755 H   0  0  0  0  0  0  0  0  0  0  0  0
   58.3360   32.3340   49.8350 C   0  0  0  0  0  0  0  0  0  0  0  0
   57.6231   31.6037   50.2454 H   0  0  0  0  0  0  0  0  0  0  0  0
   58.3810   32.5680   48.4580 C   0  0  0  0  0  0  0  0  0  0  0  0
   57.7000   32.0250   47.7861 H   0  0  0  0  0  0  0  0  0  0  0  0
  1  2  1  0
  2  3  1  0
  3  4  1  0
  4  5  1  0
  4  6  2  0
  6  7  1  0
  7  8  1  0
  7  9  1  0
  7 10  1  0
  6 11  1  0
 11 12  2  0
 12 13  1  0
 13 14  2  0
 14 15  1  0
 14 16  1  0
 16 17  1  0
 16 18  2  0
 18 19  1  0
 18 20  1  0
 20 21  1  0
 20 22  2  0
 22 23  1  0
 23 24  1  0
 23 25  1  0
 23 26  1  0
 11 27  1  0
 27 28  1  0
 28 29  1  0
 29 30  2  0
 30 31  1  0
 30 32  1  0
 32 33  1  0
 32 34  2  0
 34 35  1  0
 34 36  1  0
 36 37  1  0
 36 38  2  0
 38 39  1  0
 27  2  2  0
 38 29  1  0
 22 13  1  0
M  CHG  1   3  -1
M  END
>  <UniqueID>  (71) 
64

>  <SMILES>  (71) 
Cc1cc(F)ccc1/N=c1\c(C)c[n-]cc1Sc1ccccc1

>  <Energy>  (71) 
54.611714517559804

>  <Genealogy>  (71) 
Cc1cc(F)ccc1N=c1c(C)c[n-]cc1Sc1ccccc1 (protonated)
Cc1cc(F)ccc1/N=c1\c(C)c[n-]cc1Sc1ccccc1 (cis-trans isomerization)
Cc1cc(F)ccc1/N=c1\c(C)c[n-]cc1Sc1ccccc1 (3D coordinates assigned)
Cc1cc(F)ccc1/N=c1\c(C)c[n-]cc1Sc1ccccc1 (optimized conformer: 54.611714517559804 kcal/mol)

>  <smiles>  (71) 
Cc1cc(F)ccc1N=c1c(C)c[nH]cc1Sc1ccccc1

>  <score_type>  (71) 
oracle

>  <origin>  (71) 
adg

>  <m_score__min__energy>  (71) 
-8.6699999999999999

>  <m_primary>  (71) 
energy

$$$$
71:0
     RDKit          3D

 56 59  0  0  0  0  0  0  0  0999 V2000
   61.6720   29.1830   51.0550 C   0  0  0  0  0  0  0  0  0  0  0  0
   61.8730   29.9640   49.8820 O   0  0  0  0  0  0  0  0  0  0  0  0
   60.9810   30.0210   48.7970 C   0  0  0  0  0  0  0  0  0  0  0  0
   59.7470   29.3450   48.8200 C   0  0  0  0  0  0  0  0  0  0  0  0
   58.8870   29.3960   47.7210 C   0  0  0  0  0  0  0  0  0  0  0  0
   59.2140   30.1710   46.6010 C   0  0  0  0  0  0  0  0  0  0  0  0
   58.3250   30.2080   45.4160 C   0  0  0  0  0  0  0  0  0  0  0  0
   57.8380   31.4600   44.9960 C   0  0  0  0  0  0  0  0  0  0  0  0
   57.0080   31.5680   43.8810 C   0  0  0  0  0  0  0  0  0  0  0  0
   56.6500   30.4270   43.1660 C   0  0  0  0  0  0  0  0  0  0  0  0
   57.1130   29.1750   43.5690 C   0  0  0  0  0  0  0  0  0  0  0  0
   57.9420   29.0430   44.6960 C   0  0  0  0  0  0  0  0  0  0  0  0
   58.4490   27.4090   45.1600 S   0  0  0  0  0  0  0  0  0  0  0  0
   58.3950   26.4950   43.9680 O   0  0  0  0  0  0  0  0  0  0  0  0
   59.8650   27.4520   45.6570 O   0  0  0  0  0  0  0  0  0  0  0  0
   57.4320   26.7500   46.3970 N   0  0  0  0  0  0  0  0  0  0  0  0
   56.3180   26.1410   46.1330 C   0  0  0  0  0  0  0  0  0  0  0  0
   55.1530   26.7310   46.0170 O   0  0  0  0  0  0  0  0  0  0  0  0
   54.2380   25.8700   45.6730 N   0  0  0  0  0  0  0  0  0  0  0  0
   54.8390   24.6640   45.5730 C   0  0  0  0  0  0  0  0  0  0  0  0
   54.1470   23.4570   45.0290 C   0  0  0  0  0  0  0  0  0  0  0  0
   56.1850   24.7940   45.8840 C   0  0  0  0  0  0  0  0  0  0  0  0
   57.2820   23.7840   45.7630 C   0  0  0  0  0  0  0  0  0  0  0  0
   60.4440   30.8460   46.5730 C   0  0  0  0  0  0  0  0  0  0  0  0
   61.3390   30.7610   47.6520 C   0  0  0  0  0  0  0  0  0  0  0  0
   62.6800   31.4450   47.5420 C   0  0  0  0  0  0  0  0  0  0  0  0
   62.7320   32.6220   48.4090 N   0  0  0  0  0  0  0  0  0  0  0  0
   61.8500   33.6420   48.4110 C   0  0  0  0  0  0  0  0  0  0  0  0
   62.2380   34.5510   49.3720 C   0  0  0  0  0  0  0  0  0  0  0  0
   63.3520   34.0960   49.9700 N   0  0  0  0  0  0  0  0  0  0  0  0
   63.6350   32.9230   49.3680 C   0  0  0  0  0  0  0  0  0  0  0  0
   64.8030   32.0660   49.7470 C   0  0  0  0  0  0  0  0  0  0  0  0
   61.8332   29.8095   51.9447 H   0  0  0  0  0  0  0  0  0  0  0  0
   60.6439   28.7919   51.0634 H   0  0  0  0  0  0  0  0  0  0  0  0
   62.3835   28.3442   51.0634 H   0  0  0  0  0  0  0  0  0  0  0  0
   59.4570   28.7708   49.7123 H   0  0  0  0  0  0  0  0  0  0  0  0
   57.9474   28.8243   47.7349 H   0  0  0  0  0  0  0  0  0  0  0  0
   58.1160   32.3656   45.5551 H   0  0  0  0  0  0  0  0  0  0  0  0
   56.6358   32.5540   43.5658 H   0  0  0  0  0  0  0  0  0  0  0  0
   56.0010   30.5140   42.2821 H   0  0  0  0  0  0  0  0  0  0  0  0
   56.8259   28.2798   42.9978 H   0  0  0  0  0  0  0  0  0  0  0  0
   53.7893   22.8331   45.8614 H   0  0  0  0  0  0  0  0  0  0  0  0
   53.2919   23.7713   44.4125 H   0  0  0  0  0  0  0  0  0  0  0  0
   54.8502   22.8778   44.4125 H   0  0  0  0  0  0  0  0  0  0  0  0
   57.6126   23.4796   46.7670 H   0  0  0  0  0  0  0  0  0  0  0  0
   56.9117   22.9041   45.2165 H   0  0  0  0  0  0  0  0  0  0  0  0
   58.1284   24.2256   45.2165 H   0  0  0  0  0  0  0  0  0  0  0  0
   60.7110   31.4503   45.6935 H   0  0  0  0  0  0  0  0  0  0  0  0
   63.4703   30.7408   47.8412 H   0  0  0  0  0  0  0  0  0  0  0  0
   62.8293   31.7657   46.5005 H   0  0  0  0  0  0  0  0  0  0  0  0
   60.9703   33.7332   47.7569 H   0  0  0  0  0  0  0  0  0  0  0  0
   61.7214   35.4926   49.6098 H   0  0  0  0  0  0  0  0  0  0  0  0
   63.8840   34.5600   50.7380 H   0  0  0  0  0  0  0  0  0  0  0  0
   64.8774   32.0114   50.8431 H   0  0  0  0  0  0  0  0  0  0  0  0
   64.6635   31.0544   49.3381 H   0  0  0  0  0  0  0  0  0  0  0  0
   65.7261   32.5026   49.3381 H   0  0  0  0  0  0  0  0  0  0  0  0
  1  2  1  0
  2  3  1  0
  3  4  2  0
  4  5  1  0
  5  6  2  0
  6  7  1  0
  7  8  2  0
  8  9  1  0
  9 10  2  0
 10 11  1  0
 11 12  2  0
 12 13  1  0
 13 14  2  0
 13 15  2  0
 13 16  1  0
 16 17  2  3
 17 18  1  0
 18 19  1  0
 19 20  1  0
 20 21  1  0
 20 22  2  0
 22 23  1  0
  6 24  1  0
 24 25  2  0
 25 26  1  0
 26 27  1  0
 27 28  1  0
 28 29  2  0
 29 30  1  0
 30 31  2  0
 31 32  1  0
 25  3  1  0
 31 27  1  0
 12  7  1  0
 22 17  1  0
  1 33  1  0
  1 34  1  0
  1 35  1  0
  4 36  1  0
  5 37  1  0
  8 38  1  0
  9 39  1  0
 10 40  1  0
 11 41  1  0
 21 42  1  0
 21 43  1  0
 21 44  1  0
 23 45  1  0
 23 46  1  0
 23 47  1  0
 24 48  1  0
 26 49  1  0
 26 50  1  0
 28 51  1  0
 29 52  1  0
 30 53  1  0
 32 54  1  0
 32 55  1  0
 32 56  1  0
M  CHG  2  19  -1  30   1
M  END
>  <UniqueID>  (72) 
65

>  <SMILES>  (72) 
COc1ccc(-c2ccccc2S(=O)(=O)N=c2o[n-]c(C)c2C)cc1Cn1cc[nH+]c1C

>  <Energy>  (72) 
123.26059391226882

>  <Genealogy>  (72) 
COc1ccc(-c2ccccc2S(=O)(=O)N=c2o[n-]c(C)c2C)cc1Cn1cc[nH+]c1C (protonated)
COc1ccc(-c2ccccc2S(=O)(=O)N=c2o[n-]c(C)c2C)cc1Cn1cc[nH+]c1C (3D coordinates assigned)
COc1ccc(-c2ccccc2S(=O)(=O)N=c2o[n-]c(C)c2C)cc1Cn1cc[nH+]c1C (optimized conformer: 123.26059391226882 kcal/mol)

>  <smiles>  (72) 
COc1ccc(-c2ccccc2S(=O)(=O)N=c2o[nH]c(C)c2C)cc1Cn1ccnc1C

>  <score_type>  (72) 
oracle

>  <origin>  (72) 
adg

>  <m_score__min__energy>  (72) 
-11.41

>  <m_primary>  (72) 
energy

$$$$
72:0
     RDKit          3D

 44 47  0  0  0  0  0  0  0  0999 V2000
   58.7070   25.9390   47.2350 O   0  0  0  0  0  0  0  0  0  0  0  0
   57.7110   26.6220   46.8810 C   0  0  0  0  0  0  0  0  0  0  0  0
   56.4450   25.9630   46.7280 N   0  0  0  0  0  0  0  0  0  0  0  0
   56.0710   25.0830   45.6580 C   0  0  0  0  0  0  0  0  0  0  0  0
   54.7990   24.4840   45.6020 C   0  0  0  0  0  0  0  0  0  0  0  0
   54.4660   23.6370   44.5400 C   0  0  0  0  0  0  0  0  0  0  0  0
   55.4040   23.3640   43.5410 C   0  0  0  0  0  0  0  0  0  0  0  0
   56.6800   23.9300   43.6080 C   0  0  0  0  0  0  0  0  0  0  0  0
   57.0150   24.7800   44.6670 C   0  0  0  0  0  0  0  0  0  0  0  0
   57.8830   28.0650   46.5960 C   0  0  0  0  0  0  0  0  0  0  0  0
   58.2520   28.9600   47.6070 C   0  0  0  0  0  0  0  0  0  0  0  0
   58.4650   30.2740   47.3290 N   0  0  0  0  0  0  0  0  0  0  0  0
   58.3260   30.7860   46.0640 C   0  0  0  0  0  0  0  0  0  0  0  0
   57.9000   29.9160   45.0300 C   0  0  0  0  0  0  0  0  0  0  0  0
   57.6770   28.5620   45.3060 C   0  0  0  0  0  0  0  0  0  0  0  0
   57.7260   30.4090   43.7390 C   0  0  0  0  0  0  0  0  0  0  0  0
   57.9820   31.7470   43.4700 C   0  0  0  0  0  0  0  0  0  0  0  0
   57.7620   32.3500   41.8320 Cl  0  0  0  0  0  0  0  0  0  0  0  0
   58.4280   32.5900   44.4940 C   0  0  0  0  0  0  0  0  0  0  0  0
   58.6790   33.7950   44.2160 O   0  0  0  0  0  0  0  0  0  0  0  0
   58.6000   32.1130   45.7780 N   0  0  0  0  0  0  0  0  0  0  0  0
   59.1360   33.0220   46.8190 C   0  0  0  0  0  0  0  0  0  0  0  0
   60.6380   32.9020   46.9240 C   0  0  0  0  0  0  0  0  0  0  0  0
   61.4690   33.9480   46.4860 C   0  0  0  0  0  0  0  0  0  0  0  0
   62.8600   33.8290   46.5770 C   0  0  0  0  0  0  0  0  0  0  0  0
   63.4310   32.6740   47.1180 C   0  0  0  0  0  0  0  0  0  0  0  0
   62.6120   31.6400   47.5770 C   0  0  0  0  0  0  0  0  0  0  0  0
   61.2220   31.7540   47.4870 C   0  0  0  0  0  0  0  0  0  0  0  0
   54.0641   24.6825   46.3961 H   0  0  0  0  0  0  0  0  0  0  0  0
   53.4643   23.1851   44.4911 H   0  0  0  0  0  0  0  0  0  0  0  0
   55.1382   22.7039   42.7022 H   0  0  0  0  0  0  0  0  0  0  0  0
   57.4217   23.7068   42.8270 H   0  0  0  0  0  0  0  0  0  0  0  0
   58.0246   25.2131   44.7225 H   0  0  0  0  0  0  0  0  0  0  0  0
   58.3711   28.5962   48.6383 H   0  0  0  0  0  0  0  0  0  0  0  0
   58.7390   30.8690   48.1380 H   0  0  0  0  0  0  0  0  0  0  0  0
   57.3388   27.8874   44.5057 H   0  0  0  0  0  0  0  0  0  0  0  0
   57.3866   29.7400   42.9345 H   0  0  0  0  0  0  0  0  0  0  0  0
   58.8756   34.0587   46.5595 H   0  0  0  0  0  0  0  0  0  0  0  0
   58.6945   32.7435   47.7873 H   0  0  0  0  0  0  0  0  0  0  0  0
   61.0237   34.8638   46.0700 H   0  0  0  0  0  0  0  0  0  0  0  0
   63.5053   34.6460   46.2221 H   0  0  0  0  0  0  0  0  0  0  0  0
   64.5250   32.5792   47.1823 H   0  0  0  0  0  0  0  0  0  0  0  0
   63.0617   30.7344   48.0101 H   0  0  0  0  0  0  0  0  0  0  0  0
   60.5814   30.9408   47.8588 H   0  0  0  0  0  0  0  0  0  0  0  0
  1  2  2  0
  2  3  1  0
  3  4  1  0
  4  5  2  0
  5  6  1  0
  6  7  2  0
  7  8  1  0
  8  9  2  0
  2 10  1  0
 10 11  2  0
 11 12  1  0
 12 13  2  0
 13 14  1  0
 14 15  2  0
 14 16  1  0
 16 17  2  0
 17 18  1  0
 17 19  1  0
 19 20  2  0
 19 21  1  0
 21 22  1  0
 22 23  1  0
 23 24  2  0
 24 25  1  0
 25 26  2  0
 26 27  1  0
 27 28  2  0
  9  4  1  0
 15 10  1  0
 28 23  1  0
 21 13  1  0
  5 29  1  0
  6 30  1  0
  7 31  1  0
  8 32  1  0
  9 33  1  0
 11 34  1  0
 12 35  1  0
 15 36  1  0
 16 37  1  0
 22 38  1  0
 22 39  1  0
 24 40  1  0
 25 41  1  0
 26 42  1  0
 27 43  1  0
 28 44  1  0
M  CHG  2   3  -1  12   1
M  END
>  <UniqueID>  (73) 
66

>  <SMILES>  (73) 
O=C([N-]c1ccccc1)c1c[nH+]c2c(c1)cc(Cl)c(=O)n2Cc1ccccc1

>  <Energy>  (73) 
65.65042891382545

>  <Genealogy>  (73) 
O=C([N-]c1ccccc1)c1c[nH+]c2c(c1)cc(Cl)c(=O)n2Cc1ccccc1 (protonated)
O=C([N-]c1ccccc1)c1c[nH+]c2c(c1)cc(Cl)c(=O)n2Cc1ccccc1 (3D coordinates assigned)
O=C([N-]c1ccccc1)c1c[nH+]c2c(c1)cc(Cl)c(=O)n2Cc1ccccc1 (optimized conformer: 65.65042891382545 kcal/mol)

>  <smiles>  (73) 
O=C(Nc1ccccc1)c1cnc2c(c1)cc(Cl)c(=O)n2Cc1ccccc1

>  <score_type>  (73) 
oracle

>  <origin>  (73) 
adg

>  <m_score__min__energy>  (73) 
-8.3900000000000006

>  <m_primary>  (73) 
energy

$$$$
73:0
     RDKit          3D

 41 44  0  0  0  0  0  0  0  0999 V2000
   56.2930   22.9160   43.0500 C   0  0  0  0  0  0  0  0  0  0  0  0
   57.2160   23.4760   44.0450 N   0  0  0  0  0  0  0  0  0  0  0  0
   57.9400   22.5620   44.9360 C   0  0  0  0  0  0  0  0  0  0  0  0
   57.4070   24.9120   44.1460 C   0  0  0  0  0  0  0  0  0  0  0  0
   57.2390   25.5800   45.3760 C   0  0  0  0  0  0  0  0  0  0  0  0
   57.4250   26.9620   45.4740 C   0  0  0  0  0  0  0  0  0  0  0  0
   57.7830   27.7180   44.3470 C   0  0  0  0  0  0  0  0  0  0  0  0
   57.9790   29.1860   44.4510 C   0  0  0  0  0  0  0  0  0  0  0  0
   58.3760   29.8870   45.6010 C   0  0  0  0  0  0  0  0  0  0  0  0
   58.4240   31.1780   45.2460 N   0  0  0  0  0  0  0  0  0  0  0  0
   58.7180   32.3670   45.8140 C   0  0  0  0  0  0  0  0  0  0  0  0
   58.6220   33.4160   44.8920 C   0  0  0  0  0  0  0  0  0  0  0  0
   58.1070   32.8200   43.3680 S   0  0  0  0  0  0  0  0  0  0  0  0
   58.0830   31.2510   43.9770 C   0  0  0  0  0  0  0  0  0  0  0  0
   57.7940   30.0640   43.4230 N   0  0  0  0  0  0  0  0  0  0  0  0
   58.8260   34.8550   45.2560 C   0  0  0  0  0  0  0  0  0  0  0  0
   59.6260   34.9770   46.5660 C   0  0  0  0  0  0  0  0  0  0  0  0
   59.0840   34.0260   47.6510 C   0  0  0  0  0  0  0  0  0  0  0  0
   59.2010   32.5510   47.2220 C   0  0  0  0  0  0  0  0  0  0  0  0
   57.9500   27.0590   43.1170 C   0  0  0  0  0  0  0  0  0  0  0  0
   57.7660   25.6770   43.0180 C   0  0  0  0  0  0  0  0  0  0  0  0
   55.4616   22.4116   43.5641 H   0  0  0  0  0  0  0  0  0  0  0  0
   55.8971   23.7263   42.4202 H   0  0  0  0  0  0  0  0  0  0  0  0
   56.8288   22.1906   42.4202 H   0  0  0  0  0  0  0  0  0  0  0  0
   57.7299   22.8272   45.9827 H   0  0  0  0  0  0  0  0  0  0  0  0
   57.6124   21.5291   44.7466 H   0  0  0  0  0  0  0  0  0  0  0  0
   59.0204   22.6445   44.7466 H   0  0  0  0  0  0  0  0  0  0  0  0
   56.9576   25.0058   46.2710 H   0  0  0  0  0  0  0  0  0  0  0  0
   57.2894   27.4621   46.4443 H   0  0  0  0  0  0  0  0  0  0  0  0
   58.6014   29.4631   46.5907 H   0  0  0  0  0  0  0  0  0  0  0  0
   57.4890   29.8810   42.4420 H   0  0  0  0  0  0  0  0  0  0  0  0
   59.3779   35.3571   44.4478 H   0  0  0  0  0  0  0  0  0  0  0  0
   57.8424   35.3269   45.3971 H   0  0  0  0  0  0  0  0  0  0  0  0
   60.6787   34.7280   46.3662 H   0  0  0  0  0  0  0  0  0  0  0  0
   59.5301   36.0094   46.9335 H   0  0  0  0  0  0  0  0  0  0  0  0
   59.6595   34.1753   48.5765 H   0  0  0  0  0  0  0  0  0  0  0  0
   58.0198   34.2551   47.8089 H   0  0  0  0  0  0  0  0  0  0  0  0
   60.2539   32.2391   47.2859 H   0  0  0  0  0  0  0  0  0  0  0  0
   58.5793   31.9383   47.8914 H   0  0  0  0  0  0  0  0  0  0  0  0
   58.2283   27.6366   42.2232 H   0  0  0  0  0  0  0  0  0  0  0  0
   57.9032   25.1796   42.0465 H   0  0  0  0  0  0  0  0  0  0  0  0
  1  2  1  0
  2  3  1  0
  2  4  1  0
  4  5  2  0
  5  6  1  0
  6  7  2  0
  7  8  1  0
  8  9  2  0
  9 10  1  0
 10 11  1  0
 11 12  2  0
 12 13  1  0
 13 14  1  0
 14 15  2  0
 12 16  1  0
 16 17  1  0
 17 18  1  0
 18 19  1  0
  7 20  1  0
 20 21  2  0
 21  4  1  0
 15  8  1  0
 14 10  1  0
 19 11  1  0
  1 22  1  0
  1 23  1  0
  1 24  1  0
  3 25  1  0
  3 26  1  0
  3 27  1  0
  5 28  1  0
  6 29  1  0
  9 30  1  0
 15 31  1  0
 16 32  1  0
 16 33  1  0
 17 34  1  0
 17 35  1  0
 18 36  1  0
 18 37  1  0
 19 38  1  0
 19 39  1  0
 20 40  1  0
 21 41  1  0
M  CHG  1  15   1
M  END
>  <UniqueID>  (74) 
67

>  <SMILES>  (74) 
CN(C)c1ccc(-c2cn3c4c(sc3[nH+]2)CCCC4)cc1

>  <Energy>  (74) 
125.99849130813905

>  <Genealogy>  (74) 
CN(C)c1ccc(-c2cn3c4c(sc3[nH+]2)CCCC4)cc1 (protonated)
CN(C)c1ccc(-c2cn3c4c(sc3[nH+]2)CCCC4)cc1 (3D coordinates assigned)
CN(C)c1ccc(-c2cn3c4c(sc3[nH+]2)CCCC4)cc1 (nonaromatic ring conformer: 125.99849130813905 kcal/mol)

>  <smiles>  (74) 
CN(C)c1ccc(-c2cn3c4c(sc3n2)CCCC4)cc1

>  <score_type>  (74) 
oracle

>  <origin>  (74) 
adg

>  <m_score__min__energy>  (74) 
-6.1500000000000004

>  <m_primary>  (74) 
energy

$$$$
74:0
     RDKit          3D

 44 47  0  0  0  0  0  0  0  0999 V2000
   54.7140   22.0430   48.0690 C   0  0  0  0  0  0  0  0  0  0  0  0
   55.0200   22.0910   46.6790 O   0  0  0  0  0  0  0  0  0  0  0  0
   56.1860   22.6470   46.1280 C   0  0  0  0  0  0  0  0  0  0  0  0
   57.3180   21.8450   45.8860 C   0  0  0  0  0  0  0  0  0  0  0  0
   58.4730   22.3930   45.3420 C   0  0  0  0  0  0  0  0  0  0  0  0
   58.5280   23.7470   45.0300 C   0  0  0  0  0  0  0  0  0  0  0  0
   57.4200   24.5820   45.2570 C   0  0  0  0  0  0  0  0  0  0  0  0
   57.5190   26.0280   44.9210 C   0  0  0  0  0  0  0  0  0  0  0  0
   57.2630   27.1030   45.7600 C   0  0  0  0  0  0  0  0  0  0  0  0
   57.4720   28.2130   45.0310 N   0  0  0  0  0  0  0  0  0  0  0  0
   57.3800   29.5970   45.5010 C   0  0  1  0  0  0  0  0  0  0  0  0
   58.7850   30.2210   45.5800 C   0  0  0  0  0  0  0  0  0  0  0  0
   58.7270   31.7130   45.7930 C   0  0  0  0  0  0  0  0  0  0  0  0
   59.7730   32.3820   46.4470 C   0  0  0  0  0  0  0  0  0  0  0  0
   59.7550   33.7760   46.5540 C   0  0  0  0  0  0  0  0  0  0  0  0
   58.7060   34.5100   45.9910 C   0  0  0  0  0  0  0  0  0  0  0  0
   57.6720   33.8510   45.3200 C   0  0  0  0  0  0  0  0  0  0  0  0
   57.6750   32.4550   45.2220 C   0  0  0  0  0  0  0  0  0  0  0  0
   56.6300   31.8060   44.5580 O   0  0  0  0  0  0  0  0  0  0  0  0
   56.4800   30.4170   44.6090 C   0  0  0  0  0  0  0  0  0  0  0  0
   55.5340   29.8740   43.9800 O   0  0  0  0  0  0  0  0  0  0  0  0
   57.8430   27.8370   43.8170 N   0  0  0  0  0  0  0  0  0  0  0  0
   57.8780   26.5180   43.7150 N   0  0  0  0  0  0  0  0  0  0  0  0
   56.2330   24.0340   45.8070 C   0  0  0  0  0  0  0  0  0  0  0  0
   55.1390   24.9010   45.9990 O   0  0  0  0  0  0  0  0  0  0  0  0
   53.8080   24.7210   45.5260 C   0  0  0  0  0  0  0  0  0  0  0  0
   55.6352   22.1875   48.6525 H   0  0  0  0  0  0  0  0  0  0  0  0
   53.9960   22.8395   48.3141 H   0  0  0  0  0  0  0  0  0  0  0  0
   54.2744   21.0649   48.3141 H   0  0  0  0  0  0  0  0  0  0  0  0
   57.2874   20.7729   46.1304 H   0  0  0  0  0  0  0  0  0  0  0  0
   59.3482   21.7527   45.1572 H   0  0  0  0  0  0  0  0  0  0  0  0
   59.4486   24.1694   44.6009 H   0  0  0  0  0  0  0  0  0  0  0  0
   56.9507   27.0562   46.8137 H   0  0  0  0  0  0  0  0  0  0  0  0
   56.9364   29.5928   46.5076 H   0  0  0  0  0  0  0  0  0  0  0  0
   59.3308   29.7631   46.4182 H   0  0  0  0  0  0  0  0  0  0  0  0
   59.2956   30.0329   44.6240 H   0  0  0  0  0  0  0  0  0  0  0  0
   60.6082   31.8089   46.8760 H   0  0  0  0  0  0  0  0  0  0  0  0
   60.5676   34.2965   47.0821 H   0  0  0  0  0  0  0  0  0  0  0  0
   58.6947   35.6066   46.0763 H   0  0  0  0  0  0  0  0  0  0  0  0
   56.8540   34.4310   44.8679 H   0  0  0  0  0  0  0  0  0  0  0  0
   58.0850   28.4890   43.0380 H   0  0  0  0  0  0  0  0  0  0  0  0
   53.1239   24.6285   46.3824 H   0  0  0  0  0  0  0  0  0  0  0  0
   53.5156   25.5878   44.9151 H   0  0  0  0  0  0  0  0  0  0  0  0
   53.7563   23.8077   44.9151 H   0  0  0  0  0  0  0  0  0  0  0  0
  1  2  1  0
  2  3  1  0
  3  4  2  0
  4  5  1  0
  5  6  2  0
  6  7  1  0
  7  8  1  0
  8  9  2  0
  9 10  1  0
 10 11  1  0
 11 12  1  0
 12 13  1  0
 13 14  2  0
 14 15  1  0
 15 16  2  0
 16 17  1  0
 17 18  2  0
 18 19  1  0
 19 20  1  0
 20 21  2  0
 10 22  1  0
 22 23  2  0
  7 24  2  0
 24 25  1  0
 25 26  1  0
 24  3  1  0
 23  8  1  0
 20 11  1  0
 18 13  1  0
  1 27  1  0
  1 28  1  0
  1 29  1  0
  4 30  1  0
  5 31  1  0
  6 32  1  0
  9 33  1  0
 11 34  1  1
 12 35  1  0
 12 36  1  0
 14 37  1  0
 15 38  1  0
 16 39  1  0
 17 40  1  0
 22 41  1  0
 26 42  1  0
 26 43  1  0
 26 44  1  0
M  CHG  1  22   1
M  END
>  <UniqueID>  (75) 
68

>  <SMILES>  (75) 
COc1cccc(-c2cn([C@H]3Cc4ccccc4OC3=O)[nH+]n2)c1OC

>  <Energy>  (75) 
89.76335145605233

>  <Genealogy>  (75) 
COc1cccc(-c2cn(C3Cc4ccccc4OC3=O)[nH+]n2)c1OC (protonated)
COc1cccc(-c2cn([C@H]3Cc4ccccc4OC3=O)[nH+]n2)c1OC (chirality)
COc1cccc(-c2cn([C@H]3Cc4ccccc4OC3=O)[nH+]n2)c1OC (3D coordinates assigned)
COc1cccc(-c2cn([C@H]3Cc4ccccc4OC3=O)[nH+]n2)c1OC (nonaromatic ring conformer: 89.76335145605233 kcal/mol)

>  <smiles>  (75) 
COc1cccc(-c2cn(C3Cc4ccccc4OC3=O)nn2)c1OC

>  <score_type>  (75) 
oracle

>  <origin>  (75) 
adg

>  <m_score__min__energy>  (75) 
-7.46

>  <m_primary>  (75) 
energy

$$$$
75:0
     RDKit          3D

 58 61  0  0  0  0  0  0  0  0999 V2000
   59.0450   29.5290   49.6210 C   0  0  0  0  0  0  0  0  0  0  0  0
   58.1380   30.4740   50.1760 O   0  0  0  0  0  0  0  0  0  0  0  0
   58.5150   31.5690   50.9720 C   0  0  0  0  0  0  0  0  0  0  0  0
   58.4660   31.5130   52.3790 C   0  0  0  0  0  0  0  0  0  0  0  0
   58.8730   32.6060   53.1460 C   0  0  0  0  0  0  0  0  0  0  0  0
   59.3360   33.7650   52.5220 C   0  0  0  0  0  0  0  0  0  0  0  0
   59.3870   33.8360   51.1300 C   0  0  0  0  0  0  0  0  0  0  0  0
   58.9710   32.7480   50.3420 C   0  0  0  0  0  0  0  0  0  0  0  0
   59.0150   32.8480   48.9040 N   0  0  0  0  0  0  0  0  0  0  0  0
   60.2410   33.3030   48.2400 C   0  0  0  0  0  0  0  0  0  0  0  0
   60.3050   32.7430   46.8100 C   0  0  0  0  0  0  0  0  0  0  0  0
   59.0730   32.9950   46.0080 N   0  0  0  0  0  0  0  0  0  0  0  0
   59.3260   33.8960   44.8630 C   0  0  0  0  0  0  0  0  0  0  0  0
   58.5210   33.4430   43.6330 C   0  0  0  0  0  0  0  0  0  0  0  0
   57.6870   32.1730   43.8900 C   0  0  0  0  0  0  0  0  0  0  0  0
   58.5040   30.8660   44.0080 C   0  0  0  0  0  0  0  0  0  0  0  0
   58.4170   30.2530   45.3510 N   0  0  1  0  0  0  0  0  0  0  0  0
   57.3210   29.3080   45.4080 C   0  0  0  0  0  0  0  0  0  0  0  0
   56.1220   29.6760   45.2600 O   0  0  0  0  0  0  0  0  0  0  0  0
   57.6730   27.9160   45.7210 C   0  0  0  0  0  0  0  0  0  0  0  0
   56.8070   26.8220   45.8260 C   0  0  0  0  0  0  0  0  0  0  0  0
   57.3450   25.5620   46.1460 C   0  0  0  0  0  0  0  0  0  0  0  0
   58.7290   25.4150   46.3600 C   0  0  0  0  0  0  0  0  0  0  0  0
   59.5820   26.5250   46.2520 C   0  0  0  0  0  0  0  0  0  0  0  0
   59.0210   27.7620   45.9330 C   0  0  0  0  0  0  0  0  0  0  0  0
   59.8240   29.2760   45.7290 S   0  0  0  0  0  0  0  0  0  0  0  0
   60.8170   29.2140   44.6010 O   0  0  0  0  0  0  0  0  0  0  0  0
   60.4720   29.7400   47.0040 O   0  0  0  0  0  0  0  0  0  0  0  0
   57.9120   33.4710   46.7950 C   0  0  0  0  0  0  0  0  0  0  0  0
   57.7840   32.7140   48.1190 C   0  0  0  0  0  0  0  0  0  0  0  0
   59.5589   28.9935   50.4329 H   0  0  0  0  0  0  0  0  0  0  0  0
   58.4907   28.8095   49.0005 H   0  0  0  0  0  0  0  0  0  0  0  0
   59.7867   30.0533   49.0005 H   0  0  0  0  0  0  0  0  0  0  0  0
   58.1043   30.6012   52.8768 H   0  0  0  0  0  0  0  0  0  0  0  0
   58.8287   32.5536   54.2439 H   0  0  0  0  0  0  0  0  0  0  0  0
   59.6610   34.6233   53.1284 H   0  0  0  0  0  0  0  0  0  0  0  0
   59.7560   34.7513   50.6441 H   0  0  0  0  0  0  0  0  0  0  0  0
   60.2474   34.4023   48.2011 H   0  0  0  0  0  0  0  0  0  0  0  0
   61.1125   32.9440   48.8070 H   0  0  0  0  0  0  0  0  0  0  0  0
   61.1566   33.2093   46.2929 H   0  0  0  0  0  0  0  0  0  0  0  0
   60.4116   31.6517   46.8983 H   0  0  0  0  0  0  0  0  0  0  0  0
   59.0271   34.9192   45.1345 H   0  0  0  0  0  0  0  0  0  0  0  0
   60.3978   33.8667   44.6173 H   0  0  0  0  0  0  0  0  0  0  0  0
   57.8398   34.2561   43.3417 H   0  0  0  0  0  0  0  0  0  0  0  0
   59.2431   33.2056   42.8379 H   0  0  0  0  0  0  0  0  0  0  0  0
   57.1317   32.3140   44.8290 H   0  0  0  0  0  0  0  0  0  0  0  0
   57.0367   32.0500   43.0114 H   0  0  0  0  0  0  0  0  0  0  0  0
   58.1237   30.1462   43.2682 H   0  0  0  0  0  0  0  0  0  0  0  0
   59.5593   31.1186   43.8279 H   0  0  0  0  0  0  0  0  0  0  0  0
   58.2720   30.9670   46.1000 H   0  0  0  0  0  0  0  0  0  0  0  0
   55.7263   26.9447   45.6615 H   0  0  0  0  0  0  0  0  0  0  0  0
   56.6819   24.6883   46.2293 H   0  0  0  0  0  0  0  0  0  0  0  0
   59.1431   24.4277   46.6125 H   0  0  0  0  0  0  0  0  0  0  0  0
   60.6650   26.4220   46.4147 H   0  0  0  0  0  0  0  0  0  0  0  0
   58.0390   34.5429   47.0069 H   0  0  0  0  0  0  0  0  0  0  0  0
   56.9998   33.2938   46.2063 H   0  0  0  0  0  0  0  0  0  0  0  0
   56.9412   33.1268   48.6928 H   0  0  0  0  0  0  0  0  0  0  0  0
   57.6100   31.6489   47.9063 H   0  0  0  0  0  0  0  0  0  0  0  0
  1  2  1  0
  2  3  1  0
  3  4  2  0
  4  5  1  0
  5  6  2  0
  6  7  1  0
  7  8  2  0
  8  9  1  0
  9 10  1  0
 10 11  1  0
 11 12  1  0
 12 13  1  0
 13 14  1  0
 14 15  1  0
 15 16  1  0
 16 17  1  0
 17 18  1  0
 18 19  2  0
 18 20  1  0
 20 21  2  0
 21 22  1  0
 22 23  2  0
 23 24  1  0
 24 25  2  0
 25 26  1  0
 26 27  2  0
 26 28  2  0
 12 29  1  0
 29 30  1  0
  8  3  1  0
 30  9  1  0
 26 17  1  0
 25 20  1  0
  1 31  1  0
  1 32  1  0
  1 33  1  0
  4 34  1  0
  5 35  1  0
  6 36  1  0
  7 37  1  0
 10 38  1  0
 10 39  1  0
 11 40  1  0
 11 41  1  0
 13 42  1  0
 13 43  1  0
 14 44  1  0
 14 45  1  0
 15 46  1  0
 15 47  1  0
 16 48  1  0
 16 49  1  0
 17 50  1  1
 21 51  1  0
 22 52  1  0
 23 53  1  0
 24 54  1  0
 29 55  1  0
 29 56  1  0
 30 57  1  0
 30 58  1  0
M  CHG  1  17   1
M  END
>  <UniqueID>  (76) 
69

>  <SMILES>  (76) 
COc1ccccc1N1CCN(CCCC[N@H+]2C(=O)c3ccccc3S2(=O)=O)CC1

>  <Energy>  (76) 
86.31572679814695

>  <Genealogy>  (76) 
COc1ccccc1N1CCN(CCCC[NH+]2C(=O)c3ccccc3S2(=O)=O)CC1 (protonated)
COc1ccccc1N1CCN(CCCC[N@H+]2C(=O)c3ccccc3S2(=O)=O)CC1 (chirality)
COc1ccccc1N1CCN(CCCC[N@H+]2C(=O)c3ccccc3S2(=O)=O)CC1 (3D coordinates assigned)
COc1ccccc1N1CCN(CCCC[N@H+]2C(=O)c3ccccc3S2(=O)=O)CC1 (nonaromatic ring conformer: 86.31572679814695 kcal/mol)

>  <smiles>  (76) 
COc1ccccc1N1CCN(CCCCN2C(=O)c3ccccc3S2(=O)=O)CC1

>  <score_type>  (76) 
oracle

>  <origin>  (76) 
adg

>  <m_score__min__energy>  (76) 
-7.9900000000000002

>  <m_primary>  (76) 
energy

$$$$
76:0
     RDKit          3D

 42 44  0  0  1  0  0  0  0  0999 V2000
   63.9030   31.9680   47.0730 N   0  0  0  0  0  0  0  0  0  0  0  0
   62.7180   33.2100   47.3810 S   0  0  0  0  0  0  0  0  0  0  0  0
   62.3890   33.9050   46.0790 O   0  0  0  0  0  0  0  0  0  0  0  0
   63.3700   34.2010   48.3040 O   0  0  0  0  0  0  0  0  0  0  0  0
   61.3120   32.4820   48.1100 C   0  0  0  0  0  0  0  0  0  0  0  0
   60.5980   33.2620   49.0130 C   0  0  0  0  0  0  0  0  0  0  0  0
   59.4630   32.7320   49.6280 C   0  0  0  0  0  0  0  0  0  0  0  0
   59.0740   31.4440   49.3250 C   0  0  0  0  0  0  0  0  0  0  0  0
   59.7660   30.6500   48.4320 C   0  0  0  0  0  0  0  0  0  0  0  0
   59.3780   29.3190   48.1090 N   0  0  0  0  0  0  0  0  0  0  0  0
   58.6950   29.0120   47.0780 C   0  0  0  0  0  0  0  0  0  0  0  0
   58.6170   29.8770   46.0130 C   0  0  0  0  0  0  0  0  0  0  0  0
   57.8630   29.4920   44.9240 C   0  0  0  0  0  0  0  0  0  0  0  0
   57.7400   30.3490   43.7760 N   0  0  0  0  0  0  0  0  0  0  0  0
   57.0190   31.5930   43.8990 C   0  0  0  0  0  0  0  0  0  0  0  0
   57.7150   32.6390   44.6530 C   0  0  0  0  0  0  0  0  0  0  0  0
   58.7060   33.4530   44.1330 C   0  0  0  0  0  0  0  0  0  0  0  0
   59.3420   34.4280   44.8650 C   0  0  0  0  0  0  0  0  0  0  0  0
   58.9680   34.5980   46.1900 C   0  0  0  0  0  0  0  0  0  0  0  0
   57.9880   33.8080   46.7420 C   0  0  0  0  0  0  0  0  0  0  0  0
   57.3620   32.8350   45.9860 C   0  0  0  0  0  0  0  0  0  0  0  0
   57.2430   28.3010   44.9510 N   0  0  0  0  0  0  0  0  0  0  0  0
   57.3160   27.4510   45.9940 C   0  0  0  0  0  0  0  0  0  0  0  0
   58.0610   27.8220   47.0760 N   0  0  0  0  0  0  0  0  0  0  0  0
   60.8990   31.2000   47.8280 C   0  0  0  0  0  0  0  0  0  0  0  0
   64.4610   31.7780   47.9350 H   0  0  0  0  0  0  0  0  0  0  0  0
   64.5660   32.3210   46.3690 H   0  0  0  0  0  0  0  0  0  0  0  0
   60.9249   34.2874   49.2405 H   0  0  0  0  0  0  0  0  0  0  0  0
   58.8859   33.3339   50.3454 H   0  0  0  0  0  0  0  0  0  0  0  0
   58.1780   31.0334   49.8135 H   0  0  0  0  0  0  0  0  0  0  0  0
   59.1390   30.8451   46.0285 H   0  0  0  0  0  0  0  0  0  0  0  0
   58.1760   30.0450   42.8830 H   0  0  0  0  0  0  0  0  0  0  0  0
   56.8225   31.9753   42.8865 H   0  0  0  0  0  0  0  0  0  0  0  0
   56.1034   31.3637   44.4639 H   0  0  0  0  0  0  0  0  0  0  0  0
   58.9995   33.3132   43.0821 H   0  0  0  0  0  0  0  0  0  0  0  0
   60.1247   35.0550   44.4130 H   0  0  0  0  0  0  0  0  0  0  0  0
   59.4584   35.3692   46.8022 H   0  0  0  0  0  0  0  0  0  0  0  0
   57.6997   33.9513   47.7938 H   0  0  0  0  0  0  0  0  0  0  0  0
   56.5789   32.2105   46.4406 H   0  0  0  0  0  0  0  0  0  0  0  0
   56.6660   27.9980   44.1270 H   0  0  0  0  0  0  0  0  0  0  0  0
   56.7900   26.4851   45.9741 H   0  0  0  0  0  0  0  0  0  0  0  0
   61.4737   30.5951   47.1112 H   0  0  0  0  0  0  0  0  0  0  0  0
  1  2  1  0
  2  3  2  0
  2  4  2  0
  2  5  1  0
  5  6  2  0
  6  7  1  0
  7  8  2  0
  8  9  1  0
  9 10  1  0
 10 11  2  0
 11 12  1  0
 12 13  2  0
 13 14  1  0
 14 15  1  0
 15 16  1  0
 16 17  2  0
 17 18  1  0
 18 19  2  0
 19 20  1  0
 20 21  2  0
 13 22  1  0
 22 23  1  0
 23 24  2  0
  9 25  2  0
 25  5  1  0
 24 11  1  0
 21 16  1  0
  1 26  1  0
  1 27  1  0
  6 28  1  0
  7 29  1  0
  8 30  1  0
 12 31  1  0
 14 32  1  0
 15 33  1  0
 15 34  1  0
 17 35  1  0
 18 36  1  0
 19 37  1  0
 20 38  1  0
 21 39  1  0
 22 40  1  0
 23 41  1  0
 25 42  1  0
M  END
>  <smiles>  (77) 
NS(=O)(=O)c1cccc(N=c2cc(NCc3ccccc3)[nH]cn2)c1

>  <score_type>  (77) 
oracle

>  <origin>  (77) 
adg

>  <m_score__min__energy>  (77) 
-8.9600000000000009

>  <m_primary>  (77) 
energy

$$$$
77:0
     RDKit          3D

 35 36  0  0  0  0  0  0  0  0999 V2000
   57.0714   29.7050   42.3104 H   0  0  0  0  0  0  0  0  0  0  0  0
   57.0110   29.3390   43.3460 C   0  0  0  0  0  0  0  0  0  0  0  0
   56.1040   30.0190   44.2850 C   0  0  0  0  0  0  0  0  0  0  0  0
   55.2250   29.3400   44.8800 O   0  0  0  0  0  0  0  0  0  0  0  0
   56.2500   31.4200   44.5570 N   0  0  0  0  0  0  0  0  0  0  0  0
   57.4120   32.0720   45.0890 C   0  0  0  0  0  0  0  0  0  0  0  0
   57.7690   33.3280   44.5790 C   0  0  0  0  0  0  0  0  0  0  0  0
   57.1694   33.7817   43.7761 H   0  0  0  0  0  0  0  0  0  0  0  0
   58.8810   34.0080   45.0830 C   0  0  0  0  0  0  0  0  0  0  0  0
   59.1535   34.9919   44.6734 H   0  0  0  0  0  0  0  0  0  0  0  0
   59.6510   33.4410   46.1090 C   0  0  0  0  0  0  0  0  0  0  0  0
   60.8200   34.1890   46.6780 C   0  0  0  0  0  0  0  0  0  0  0  0
   60.7744   34.1598   47.7767 H   0  0  0  0  0  0  0  0  0  0  0  0
   61.7555   33.7213   46.3373 H   0  0  0  0  0  0  0  0  0  0  0  0
   60.7874   35.2344   46.3373 H   0  0  0  0  0  0  0  0  0  0  0  0
   59.2710   32.2040   46.6510 C   0  0  0  0  0  0  0  0  0  0  0  0
   59.8516   31.7668   47.4767 H   0  0  0  0  0  0  0  0  0  0  0  0
   58.1580   31.5240   46.1470 C   0  0  0  0  0  0  0  0  0  0  0  0
   57.8650   30.5563   46.5802 H   0  0  0  0  0  0  0  0  0  0  0  0
   57.7640   28.2940   43.7030 C   0  0  0  0  0  0  0  0  0  0  0  0
   57.7482   27.3890   43.0779 H   0  0  0  0  0  0  0  0  0  0  0  0
   58.6180   28.3140   44.9110 C   0  0  0  0  0  0  0  0  0  0  0  0
   59.8410   29.0010   44.8320 C   0  0  0  0  0  0  0  0  0  0  0  0
   60.1361   29.4818   43.8876 H   0  0  0  0  0  0  0  0  0  0  0  0
   60.6850   29.0790   45.9410 C   0  0  0  0  0  0  0  0  0  0  0  0
   61.6365   29.6262   45.8689 H   0  0  0  0  0  0  0  0  0  0  0  0
   60.3250   28.4650   47.1400 C   0  0  0  0  0  0  0  0  0  0  0  0
   60.9845   28.5425   48.0170 H   0  0  0  0  0  0  0  0  0  0  0  0
   59.1280   27.7520   47.2280 C   0  0  0  0  0  0  0  0  0  0  0  0
   58.8492   27.2708   48.1770 H   0  0  0  0  0  0  0  0  0  0  0  0
   58.2750   27.6430   46.1150 C   0  0  0  0  0  0  0  0  0  0  0  0
   57.0240   26.8140   46.2480 C   0  0  0  0  0  0  0  0  0  0  0  0
   56.7959   26.6628   47.3134 H   0  0  0  0  0  0  0  0  0  0  0  0
   56.1853   27.3356   45.7638 H   0  0  0  0  0  0  0  0  0  0  0  0
   57.1775   25.8383   45.7638 H   0  0  0  0  0  0  0  0  0  0  0  0
  1  2  1  0
  2  3  1  0
  3  4  2  0
  3  5  1  0
  5  6  1  0
  6  7  2  0
  7  8  1  0
  7  9  1  0
  9 10  1  0
  9 11  2  0
 11 12  1  0
 12 13  1  0
 12 14  1  0
 12 15  1  0
 11 16  1  0
 16 17  1  0
 16 18  2  0
 18 19  1  0
  2 20  2  0
 20 21  1  0
 20 22  1  0
 22 23  2  0
 23 24  1  0
 23 25  1  0
 25 26  1  0
 25 27  2  0
 27 28  1  0
 27 29  1  0
 29 30  1  0
 29 31  2  0
 31 32  1  0
 32 33  1  0
 32 34  1  0
 32 35  1  0
 18  6  1  0
 31 22  1  0
M  CHG  1   5  -1
M  END
>  <UniqueID>  (78) 
70

>  <SMILES>  (78) 
Cc1ccc([N-]C(=O)/C=C/c2ccccc2C)cc1

>  <Energy>  (78) 
42.90124456501911

>  <Genealogy>  (78) 
Cc1ccc([N-]C(=O)C=Cc2ccccc2C)cc1 (protonated)
Cc1ccc([N-]C(=O)/C=C/c2ccccc2C)cc1 (cis-trans isomerization)
Cc1ccc([N-]C(=O)/C=C/c2ccccc2C)cc1 (3D coordinates assigned)
Cc1ccc([N-]C(=O)/C=C/c2ccccc2C)cc1 (optimized conformer: 42.90124456501911 kcal/mol)

>  <smiles>  (78) 
Cc1ccc(NC(=O)C=Cc2ccccc2C)cc1

>  <score_type>  (78) 
oracle

>  <origin>  (78) 
adg

>  <m_score__min__energy>  (78) 
-8.9499999999999993

>  <m_primary>  (78) 
energy

$$$$
78:0
     RDKit          3D

 49 51  0  0  0  0  0  0  0  0999 V2000
   58.9360   32.6340   49.4740 C   0  0  0  0  0  0  0  0  0  0  0  0
   58.6110   32.4250   48.1030 O   0  0  0  0  0  0  0  0  0  0  0  0
   58.8410   33.3550   47.0750 C   0  0  0  0  0  0  0  0  0  0  0  0
   59.6440   34.4940   47.2730 C   0  0  0  0  0  0  0  0  0  0  0  0
   59.8540   35.4060   46.2360 C   0  0  0  0  0  0  0  0  0  0  0  0
   59.2720   35.1900   44.9880 C   0  0  0  0  0  0  0  0  0  0  0  0
   58.4790   34.0620   44.7720 C   0  0  0  0  0  0  0  0  0  0  0  0
   58.2500   33.1420   45.8100 C   0  0  0  0  0  0  0  0  0  0  0  0
   57.4040   31.9250   45.5370 C   0  0  0  0  0  0  0  0  0  0  0  0
   58.3320   30.6630   44.5940 S   0  0  0  0  0  0  0  0  0  0  0  0
   58.8240   29.6970   46.0360 C   0  0  0  0  0  0  0  0  0  0  0  0
   59.6360   30.2900   46.9580 N   0  0  0  0  0  0  0  0  0  0  0  0
   60.0680   29.6340   48.0660 C   0  0  0  0  0  0  0  0  0  0  0  0
   59.6840   28.3150   48.2920 C   0  0  0  0  0  0  0  0  0  0  0  0
   58.8840   27.6680   47.3530 C   0  0  0  0  0  0  0  0  0  0  0  0
   58.4400   28.3450   46.2070 C   0  0  0  0  0  0  0  0  0  0  0  0
   57.6090   27.6120   45.2240 C   0  0  0  0  0  0  0  0  0  0  0  0
   57.9820   27.4950   44.0270 O   0  0  0  0  0  0  0  0  0  0  0  0
   56.3640   27.0460   45.6400 N   0  0  0  0  0  0  0  0  0  0  0  0
   56.2730   25.8390   46.4490 C   0  0  0  0  0  0  0  0  0  0  0  0
   56.5590   24.6430   45.5890 C   0  0  0  0  0  0  0  0  0  0  0  0
   56.6760   23.3690   46.1670 C   0  0  0  0  0  0  0  0  0  0  0  0
   56.9030   22.2470   45.3640 C   0  0  0  0  0  0  0  0  0  0  0  0
   56.9930   22.3820   43.9690 C   0  0  0  0  0  0  0  0  0  0  0  0
   57.2730   21.1850   43.1100 C   0  0  0  0  0  0  0  0  0  0  0  0
   56.8790   23.6560   43.3910 C   0  0  0  0  0  0  0  0  0  0  0  0
   56.6540   24.7780   44.1950 C   0  0  0  0  0  0  0  0  0  0  0  0
   58.1801   32.1479   50.1082 H   0  0  0  0  0  0  0  0  0  0  0  0
   59.9252   32.2023   49.6863 H   0  0  0  0  0  0  0  0  0  0  0  0
   58.9537   33.7132   49.6863 H   0  0  0  0  0  0  0  0  0  0  0  0
   60.1107   34.6676   48.2539 H   0  0  0  0  0  0  0  0  0  0  0  0
   60.4791   36.2953   46.4044 H   0  0  0  0  0  0  0  0  0  0  0  0
   59.4379   35.9093   44.1725 H   0  0  0  0  0  0  0  0  0  0  0  0
   58.0299   33.8916   43.7824 H   0  0  0  0  0  0  0  0  0  0  0  0
   57.0825   31.4907   46.4951 H   0  0  0  0  0  0  0  0  0  0  0  0
   56.5357   32.2353   44.9372 H   0  0  0  0  0  0  0  0  0  0  0  0
   59.9390   31.2790   46.8160 H   0  0  0  0  0  0  0  0  0  0  0  0
   60.7228   30.1460   48.7865 H   0  0  0  0  0  0  0  0  0  0  0  0
   60.0088   27.7895   49.2021 H   0  0  0  0  0  0  0  0  0  0  0  0
   58.5980   26.6177   47.5112 H   0  0  0  0  0  0  0  0  0  0  0  0
   57.0077   25.8881   47.2662 H   0  0  0  0  0  0  0  0  0  0  0  0
   55.2614   25.7548   46.8728 H   0  0  0  0  0  0  0  0  0  0  0  0
   56.5886   23.2528   47.2574 H   0  0  0  0  0  0  0  0  0  0  0  0
   57.0115   21.2549   45.8266 H   0  0  0  0  0  0  0  0  0  0  0  0
   57.4768   20.3139   43.7501 H   0  0  0  0  0  0  0  0  0  0  0  0
   56.3993   20.9770   42.4749 H   0  0  0  0  0  0  0  0  0  0  0  0
   58.1483   21.3861   42.4749 H   0  0  0  0  0  0  0  0  0  0  0  0
   56.9670   23.7725   42.3007 H   0  0  0  0  0  0  0  0  0  0  0  0
   56.5510   25.7709   43.7329 H   0  0  0  0  0  0  0  0  0  0  0  0
  1  2  1  0
  2  3  1  0
  3  4  2  0
  4  5  1  0
  5  6  2  0
  6  7  1  0
  7  8  2  0
  8  9  1  0
  9 10  1  0
 10 11  1  0
 11 12  2  0
 12 13  1  0
 13 14  2  0
 14 15  1  0
 15 16  2  0
 16 17  1  0
 17 18  2  0
 17 19  1  0
 19 20  1  0
 20 21  1  0
 21 22  2  0
 22 23  1  0
 23 24  2  0
 24 25  1  0
 24 26  1  0
 26 27  2  0
  8  3  1  0
 16 11  1  0
 27 21  1  0
  1 28  1  0
  1 29  1  0
  1 30  1  0
  4 31  1  0
  5 32  1  0
  6 33  1  0
  7 34  1  0
  9 35  1  0
  9 36  1  0
 12 37  1  0
 13 38  1  0
 14 39  1  0
 15 40  1  0
 20 41  1  0
 20 42  1  0
 22 43  1  0
 23 44  1  0
 25 45  1  0
 25 46  1  0
 25 47  1  0
 26 48  1  0
 27 49  1  0
M  CHG  2  12   1  19  -1
M  END
>  <UniqueID>  (79) 
71

>  <SMILES>  (79) 
COc1ccccc1CSc1[nH+]cccc1C(=O)[N-]Cc1ccc(C)cc1

>  <Energy>  (79) 
46.643039584267626

>  <Genealogy>  (79) 
COc1ccccc1CSc1[nH+]cccc1C(=O)[N-]Cc1ccc(C)cc1 (protonated)
COc1ccccc1CSc1[nH+]cccc1C(=O)[N-]Cc1ccc(C)cc1 (3D coordinates assigned)
COc1ccccc1CSc1[nH+]cccc1C(=O)[N-]Cc1ccc(C)cc1 (optimized conformer: 46.643039584267626 kcal/mol)

>  <smiles>  (79) 
COc1ccccc1CSc1ncccc1C(=O)NCc1ccc(C)cc1

>  <score_type>  (79) 
oracle

>  <origin>  (79) 
adg

>  <m_score__min__energy>  (79) 
-7.5099999999999998

>  <m_primary>  (79) 
energy

$$$$
79:0
     RDKit          3D

 31 33  0  0  0  0  0  0  0  0999 V2000
   57.0810   34.5940   45.5250 O   0  0  0  0  0  0  0  0  0  0  0  0
   58.1550   34.1760   46.0370 C   0  0  0  0  0  0  0  0  0  0  0  0
   58.8370   34.9690   46.9050 N   0  0  0  0  0  0  0  0  0  0  0  0
   59.9590   34.5530   47.4940 N   0  0  0  0  0  0  0  0  0  0  0  0
   60.4810   33.3180   47.2640 C   0  0  0  0  0  0  0  0  0  0  0  0
   61.7360   32.9160   47.9510 C   0  0  0  0  0  0  0  0  0  0  0  0
   62.9550   33.5210   47.5930 C   0  0  0  0  0  0  0  0  0  0  0  0
   64.1440   33.1600   48.2340 C   0  0  0  0  0  0  0  0  0  0  0  0
   64.1290   32.1960   49.2450 C   0  0  0  0  0  0  0  0  0  0  0  0
   62.9250   31.5960   49.6190 C   0  0  0  0  0  0  0  0  0  0  0  0
   61.7340   31.9540   48.9800 C   0  0  0  0  0  0  0  0  0  0  0  0
   59.8240   32.4680   46.3630 C   0  0  0  0  0  0  0  0  0  0  0  0
   58.6480   32.8930   45.7330 C   0  0  0  0  0  0  0  0  0  0  0  0
   57.9560   31.9950   44.7740 C   0  0  0  0  0  0  0  0  0  0  0  0
   57.8580   32.3360   43.4130 C   0  0  0  0  0  0  0  0  0  0  0  0
   57.2150   31.4810   42.5140 C   0  0  0  0  0  0  0  0  0  0  0  0
   56.6660   30.2760   42.9620 C   0  0  0  0  0  0  0  0  0  0  0  0
   56.7630   29.9250   44.3120 C   0  0  0  0  0  0  0  0  0  0  0  0
   57.4060   30.7770   45.2140 C   0  0  0  0  0  0  0  0  0  0  0  0
   58.4770   35.9240   47.1280 H   0  0  0  0  0  0  0  0  0  0  0  0
   62.9726   34.2849   46.8017 H   0  0  0  0  0  0  0  0  0  0  0  0
   65.0920   33.6354   47.9420 H   0  0  0  0  0  0  0  0  0  0  0  0
   65.0654   31.9098   49.7462 H   0  0  0  0  0  0  0  0  0  0  0  0
   62.9134   30.8401   50.4180 H   0  0  0  0  0  0  0  0  0  0  0  0
   60.7883   31.4809   49.2831 H   0  0  0  0  0  0  0  0  0  0  0  0
   60.2319   31.4686   46.1514 H   0  0  0  0  0  0  0  0  0  0  0  0
   58.2902   33.2817   43.0540 H   0  0  0  0  0  0  0  0  0  0  0  0
   57.1407   31.7567   41.4517 H   0  0  0  0  0  0  0  0  0  0  0  0
   56.1584   29.6049   42.2535 H   0  0  0  0  0  0  0  0  0  0  0  0
   56.3323   28.9763   44.6648 H   0  0  0  0  0  0  0  0  0  0  0  0
   57.4826   30.4937   46.2741 H   0  0  0  0  0  0  0  0  0  0  0  0
  1  2  2  0
  2  3  1  0
  3  4  1  0
  4  5  2  0
  5  6  1  0
  6  7  2  0
  7  8  1  0
  8  9  2  0
  9 10  1  0
 10 11  2  0
  5 12  1  0
 12 13  2  0
 13 14  1  0
 14 15  2  0
 15 16  1  0
 16 17  2  0
 17 18  1  0
 18 19  2  0
 13  2  1  0
 19 14  1  0
 11  6  1  0
  3 20  1  0
  7 21  1  0
  8 22  1  0
  9 23  1  0
 10 24  1  0
 11 25  1  0
 12 26  1  0
 15 27  1  0
 16 28  1  0
 17 29  1  0
 18 30  1  0
 19 31  1  0
M  END
>  <UniqueID>  (80) 
72

>  <SMILES>  (80) 
O=c1[nH]nc(-c2ccccc2)cc1-c1ccccc1

>  <Energy>  (80) 
45.39573269362309

>  <Genealogy>  (80) 
O=c1[nH]nc(-c2ccccc2)cc1-c1ccccc1 (3D coordinates assigned)
O=c1[nH]nc(-c2ccccc2)cc1-c1ccccc1 (optimized conformer: 45.39573269362309 kcal/mol)

>  <smiles>  (80) 
O=c1[nH]nc(-c2ccccc2)cc1-c1ccccc1

>  <score_type>  (80) 
oracle

>  <origin>  (80) 
adg

>  <m_score__min__energy>  (80) 
-7.2000000000000002

>  <m_primary>  (80) 
energy

$$$$
80:0
     RDKit          3D

 41 44  0  0  0  0  0  0  0  0999 V2000
   58.0179   20.5434   47.0461 H   0  0  0  0  0  0  0  0  0  0  0  0
   57.4090   21.3290   46.5750 C   0  0  0  0  0  0  0  0  0  0  0  0
   57.0170   22.4460   47.2450 N   0  0  0  0  0  0  0  0  0  0  0  0
   56.2900   23.2690   46.4610 C   0  0  0  0  0  0  0  0  0  0  0  0
   55.7850   24.3810   46.9090 N   0  0  0  0  0  0  0  0  0  0  0  0
   55.9280   25.6790   46.3130 C   0  0  0  0  0  0  0  0  0  0  0  0
   54.8860   26.3060   45.9820 O   0  0  0  0  0  0  0  0  0  0  0  0
   57.2490   26.3280   46.1240 C   0  0  0  0  0  0  0  0  0  0  0  0
   58.4130   25.5990   46.4260 C   0  0  0  0  0  0  0  0  0  0  0  0
   58.3309   24.5583   46.7726 H   0  0  0  0  0  0  0  0  0  0  0  0
   59.6730   26.1870   46.2890 C   0  0  0  0  0  0  0  0  0  0  0  0
   60.5777   25.6077   46.5255 H   0  0  0  0  0  0  0  0  0  0  0  0
   59.7860   27.5070   45.8530 C   0  0  0  0  0  0  0  0  0  0  0  0
   60.7788   27.9708   45.7573 H   0  0  0  0  0  0  0  0  0  0  0  0
   58.6410   28.2400   45.5380 C   0  0  0  0  0  0  0  0  0  0  0  0
   58.7345   29.2846   45.2062 H   0  0  0  0  0  0  0  0  0  0  0  0
   57.3730   27.6530   45.6420 C   0  0  0  0  0  0  0  0  0  0  0  0
   56.2320   28.4210   45.2440 N   0  0  0  0  0  0  0  0  0  0  0  0
   56.2920   29.7400   44.6850 C   0  0  0  0  0  0  0  0  0  0  0  0
   55.2460   30.4410   44.6710 O   0  0  0  0  0  0  0  0  0  0  0  0
   57.5720   30.3240   44.1430 C   0  0  0  0  0  0  0  0  0  0  0  0
   58.4012   29.6364   44.3660 H   0  0  0  0  0  0  0  0  0  0  0  0
   57.4571   30.4597   43.0575 H   0  0  0  0  0  0  0  0  0  0  0  0
   57.8710   31.6700   44.7600 C   0  0  0  0  0  0  0  0  0  0  0  0
   57.7290   32.8530   43.9990 C   0  0  0  0  0  0  0  0  0  0  0  0
   57.4279   32.7872   42.9431 H   0  0  0  0  0  0  0  0  0  0  0  0
   57.9690   34.1170   44.5780 C   0  0  0  0  0  0  0  0  0  0  0  0
   57.8450   35.0271   43.9727 H   0  0  0  0  0  0  0  0  0  0  0  0
   58.3650   34.2220   45.9210 C   0  0  0  0  0  0  0  0  0  0  0  0
   58.5480   35.2033   46.3832 H   0  0  0  0  0  0  0  0  0  0  0  0
   58.5190   33.0450   46.6500 C   0  0  0  0  0  0  0  0  0  0  0  0
   58.2910   31.8110   46.0930 C   0  0  0  0  0  0  0  0  0  0  0  0
   58.5400   30.8770   47.0830 C   0  0  0  0  0  0  0  0  0  0  0  0
   58.4659   29.7827   46.9994 H   0  0  0  0  0  0  0  0  0  0  0  0
   58.9030   31.6110   48.2040 C   0  0  0  0  0  0  0  0  0  0  0  0
   59.1655   31.1741   49.1788 H   0  0  0  0  0  0  0  0  0  0  0  0
   58.8900   32.9340   47.9350 N   0  0  0  0  0  0  0  0  0  0  0  0
   59.1210   33.7090   48.5960 H   0  0  0  0  0  0  0  0  0  0  0  0
   56.0860   22.6310   44.9110 S   0  0  0  0  0  0  0  0  0  0  0  0
   56.9860   21.2500   45.2530 C   0  0  0  0  0  0  0  0  0  0  0  0
   57.2016   20.4291   44.5532 H   0  0  0  0  0  0  0  0  0  0  0  0
  1  2  1  0
  2  3  1  0
  3  4  1  0
  4  5  2  0
  5  6  1  0
  6  7  2  0
  6  8  1  0
  8  9  2  0
  9 10  1  0
  9 11  1  0
 11 12  1  0
 11 13  2  0
 13 14  1  0
 13 15  1  0
 15 16  1  0
 15 17  2  0
 17 18  1  0
 18 19  1  0
 19 20  2  0
 19 21  1  0
 21 22  1  0
 21 23  1  0
 21 24  1  0
 24 25  2  0
 25 26  1  0
 25 27  1  0
 27 28  1  0
 27 29  2  0
 29 30  1  0
 29 31  1  0
 31 32  2  0
 32 33  1  0
 33 34  1  0
 33 35  2  0
 35 36  1  0
 35 37  1  0
 37 38  1  0
  4 39  1  0
 39 40  1  0
 40 41  1  0
 40  2  2  0
 17  8  1  0
 32 24  1  0
 37 31  1  0
M  CHG  2   3  -1  18  -1
M  END
>  <UniqueID>  (81) 
73

>  <SMILES>  (81) 
O=C(Cc1cccc2[nH]ccc12)[N-]c1ccccc1C(=O)/N=c1/[n-]ccs1

>  <Energy>  (81) 
120.37702787830295

>  <Genealogy>  (81) 
O=C(Cc1cccc2[nH]ccc12)[N-]c1ccccc1C(=O)N=c1[n-]ccs1 (protonated)
O=C(Cc1cccc2[nH]ccc12)[N-]c1ccccc1C(=O)/N=c1/[n-]ccs1 (cis-trans isomerization)
O=C(Cc1cccc2[nH]ccc12)[N-]c1ccccc1C(=O)/N=c1/[n-]ccs1 (3D coordinates assigned)
O=C(Cc1cccc2[nH]ccc12)[N-]c1ccccc1C(=O)/N=c1/[n-]ccs1 (optimized conformer: 120.37702787830295 kcal/mol)

>  <smiles>  (81) 
O=C(Cc1cccc2[nH]ccc12)Nc1ccccc1C(=O)N=c1[nH]ccs1

>  <score_type>  (81) 
oracle

>  <origin>  (81) 
adg

>  <m_score__min__energy>  (81) 
-12.83

>  <m_primary>  (81) 
energy

$$$$
81:0
     RDKit          3D

 39 40  0  0  0  0  0  0  0  0999 V2000
   59.3860   34.8870   45.7070 C   0  0  0  0  0  0  0  0  0  0  0  0
   58.7220   33.5780   45.4000 C   0  0  0  0  0  0  0  0  0  0  0  0
   58.7170   32.5470   46.3520 C   0  0  0  0  0  0  0  0  0  0  0  0
   58.0690   31.3390   46.0790 C   0  0  0  0  0  0  0  0  0  0  0  0
   57.4040   31.1550   44.8590 C   0  0  0  0  0  0  0  0  0  0  0  0
   56.6130   29.6150   44.5170 S   0  0  0  0  0  0  0  0  0  0  0  0
   55.1510   29.7500   44.8310 O   0  0  0  0  0  0  0  0  0  0  0  0
   56.7470   29.2810   43.0570 O   0  0  0  0  0  0  0  0  0  0  0  0
   57.2740   28.3160   45.4710 N   0  0  0  0  0  0  0  0  0  0  0  0
   57.9680   27.3200   44.6520 C   0  0  0  0  0  0  0  0  0  0  0  0
   58.4820   26.1550   45.4960 C   0  0  0  0  0  0  0  0  0  0  0  0
   57.7080   26.0700   46.7310 N   0  0  0  0  0  0  0  0  0  0  0  0
   56.2670   25.1380   46.4630 S   0  0  0  0  0  0  0  0  0  0  0  0
   55.8440   24.4810   47.7480 O   0  0  0  0  0  0  0  0  0  0  0  0
   55.1650   26.0550   46.0130 O   0  0  0  0  0  0  0  0  0  0  0  0
   56.5440   23.9170   45.2230 C   0  0  0  0  0  0  0  0  0  0  0  0
   55.8930   24.0150   43.9850 C   0  0  0  0  0  0  0  0  0  0  0  0
   56.1250   23.0600   42.9910 C   0  0  0  0  0  0  0  0  0  0  0  0
   57.0130   22.0050   43.2270 C   0  0  0  0  0  0  0  0  0  0  0  0
   57.2380   21.0790   42.2620 F   0  0  0  0  0  0  0  0  0  0  0  0
   57.6690   21.9070   44.4580 C   0  0  0  0  0  0  0  0  0  0  0  0
   57.4390   22.8610   45.4530 C   0  0  0  0  0  0  0  0  0  0  0  0
   57.3950   32.1880   43.9120 C   0  0  0  0  0  0  0  0  0  0  0  0
   58.0440   33.3970   44.1830 C   0  0  0  0  0  0  0  0  0  0  0  0
   59.4523   35.0177   46.7972 H   0  0  0  0  0  0  0  0  0  0  0  0
   60.3974   34.8954   45.2745 H   0  0  0  0  0  0  0  0  0  0  0  0
   58.7954   35.7081   45.2745 H   0  0  0  0  0  0  0  0  0  0  0  0
   59.2251   32.6901   47.3171 H   0  0  0  0  0  0  0  0  0  0  0  0
   58.0810   30.5300   46.8242 H   0  0  0  0  0  0  0  0  0  0  0  0
   57.2704   26.9317   43.8953 H   0  0  0  0  0  0  0  0  0  0  0  0
   58.8322   27.8077   44.1773 H   0  0  0  0  0  0  0  0  0  0  0  0
   58.3748   25.2174   44.9308 H   0  0  0  0  0  0  0  0  0  0  0  0
   59.5425   26.3178   45.7384 H   0  0  0  0  0  0  0  0  0  0  0  0
   55.1976   24.8459   43.7954 H   0  0  0  0  0  0  0  0  0  0  0  0
   55.6091   23.1380   42.0226 H   0  0  0  0  0  0  0  0  0  0  0  0
   58.3673   21.0776   44.6435 H   0  0  0  0  0  0  0  0  0  0  0  0
   57.9606   22.7839   46.4184 H   0  0  0  0  0  0  0  0  0  0  0  0
   56.8758   32.0475   42.9524 H   0  0  0  0  0  0  0  0  0  0  0  0
   58.0235   34.2087   43.4409 H   0  0  0  0  0  0  0  0  0  0  0  0
  1  2  1  0
  2  3  2  0
  3  4  1  0
  4  5  2  0
  5  6  1  0
  6  7  2  0
  6  8  2  0
  6  9  1  0
  9 10  1  0
 10 11  1  0
 11 12  1  0
 12 13  1  0
 13 14  2  0
 13 15  2  0
 13 16  1  0
 16 17  2  0
 17 18  1  0
 18 19  2  0
 19 20  1  0
 19 21  1  0
 21 22  2  0
  5 23  1  0
 23 24  2  0
 24  2  1  0
 22 16  1  0
  1 25  1  0
  1 26  1  0
  1 27  1  0
  3 28  1  0
  4 29  1  0
 10 30  1  0
 10 31  1  0
 11 32  1  0
 11 33  1  0
 17 34  1  0
 18 35  1  0
 21 36  1  0
 22 37  1  0
 23 38  1  0
 24 39  1  0
M  CHG  2   9  -1  12  -1
M  END
>  <UniqueID>  (82) 
74

>  <SMILES>  (82) 
Cc1ccc(S(=O)(=O)[N-]CC[N-]S(=O)(=O)c2ccc(F)cc2)cc1

>  <Energy>  (82) 
34.48863190338433

>  <Genealogy>  (82) 
Cc1ccc(S(=O)(=O)[N-]CC[N-]S(=O)(=O)c2ccc(F)cc2)cc1 (protonated)
Cc1ccc(S(=O)(=O)[N-]CC[N-]S(=O)(=O)c2ccc(F)cc2)cc1 (3D coordinates assigned)
Cc1ccc(S(=O)(=O)[N-]CC[N-]S(=O)(=O)c2ccc(F)cc2)cc1 (optimized conformer: 34.48863190338433 kcal/mol)

>  <smiles>  (82) 
Cc1ccc(S(=O)(=O)NCCNS(=O)(=O)c2ccc(F)cc2)cc1

>  <score_type>  (82) 
oracle

>  <origin>  (82) 
adg

>  <m_score__min__energy>  (82) 
-11.49

>  <m_primary>  (82) 
energy

$$$$
82:0
     RDKit          3D

 33 35  0  0  0  0  0  0  0  0999 V2000
   60.0000   29.2130   51.8150 N   0  0  0  0  0  0  0  0  0  0  0  0
   58.7330   30.3850   51.7220 S   0  0  0  0  0  0  0  0  0  0  0  0
   58.9070   31.3830   52.8320 O   0  0  0  0  0  0  0  0  0  0  0  0
   57.4030   29.7020   51.8670 O   0  0  0  0  0  0  0  0  0  0  0  0
   58.8040   31.2080   50.1750 C   0  0  0  0  0  0  0  0  0  0  0  0
   58.5270   30.6230   48.9430 C   0  0  0  0  0  0  0  0  0  0  0  0
   58.6590   31.5290   47.8800 C   0  0  0  0  0  0  0  0  0  0  0  0
   58.4680   31.2620   46.5120 C   0  0  0  0  0  0  0  0  0  0  0  0
   58.0340   29.9650   46.0670 N   0  0  0  0  0  0  0  0  0  0  0  0
   56.7970   29.7350   45.3750 C   0  0  0  0  0  0  0  0  0  0  0  0
   56.1820   30.6940   44.8370 O   0  0  0  0  0  0  0  0  0  0  0  0
   56.3290   28.3990   45.1530 N   0  0  0  0  0  0  0  0  0  0  0  0
   56.7390   27.2910   45.7090 C   0  0  0  0  0  0  0  0  0  0  0  0
   58.0830   27.1000   45.8170 N   0  0  0  0  0  0  0  0  0  0  0  0
   58.6230   25.9920   46.3870 C   0  0  0  0  0  0  0  0  0  0  0  0
   57.7940   24.9910   46.8870 C   0  0  0  0  0  0  0  0  0  0  0  0
   56.4120   25.1310   46.7720 C   0  0  0  0  0  0  0  0  0  0  0  0
   55.8680   26.2680   46.1660 C   0  0  0  0  0  0  0  0  0  0  0  0
   54.4910   26.3260   45.9890 O   0  0  0  0  0  0  0  0  0  0  0  0
   58.6550   32.3200   45.5940 C   0  0  0  0  0  0  0  0  0  0  0  0
   59.0430   33.5990   46.0360 C   0  0  0  0  0  0  0  0  0  0  0  0
   59.2670   34.8950   44.8760 Cl  0  0  0  0  0  0  0  0  0  0  0  0
   59.2420   33.8460   47.4030 C   0  0  0  0  0  0  0  0  0  0  0  0
   59.0420   32.8000   48.2970 C   0  0  0  0  0  0  0  0  0  0  0  0
   59.2120   32.8310   49.9680 S   0  0  0  0  0  0  0  0  0  0  0  0
   60.8280   29.6200   51.3260 H   0  0  0  0  0  0  0  0  0  0  0  0
   58.2373   29.5693   48.8169 H   0  0  0  0  0  0  0  0  0  0  0  0
   58.6600   29.1440   46.2230 H   0  0  0  0  0  0  0  0  0  0  0  0
   59.7158   25.8852   46.4538 H   0  0  0  0  0  0  0  0  0  0  0  0
   58.2249   24.1001   47.3672 H   0  0  0  0  0  0  0  0  0  0  0  0
   55.7471   24.3448   47.1591 H   0  0  0  0  0  0  0  0  0  0  0  0
   58.4953   32.1419   44.5203 H   0  0  0  0  0  0  0  0  0  0  0  0
   59.5482   34.8411   47.7580 H   0  0  0  0  0  0  0  0  0  0  0  0
  1  2  1  0
  2  3  2  0
  2  4  2  0
  2  5  1  0
  5  6  2  0
  6  7  1  0
  7  8  2  0
  8  9  1  0
  9 10  1  0
 10 11  2  0
 10 12  1  0
 12 13  2  3
 13 14  1  0
 14 15  1  0
 15 16  2  0
 16 17  1  0
 17 18  2  0
 18 19  1  0
  8 20  1  0
 20 21  2  0
 21 22  1  0
 21 23  1  0
 23 24  2  0
 24 25  1  0
 25  5  1  0
 24  7  1  0
 18 13  1  0
  1 26  1  0
  6 27  1  0
  9 28  1  0
 15 29  1  0
 16 30  1  0
 17 31  1  0
 20 32  1  0
 23 33  1  0
M  CHG  3   1  -1  14  -1  19  -1
M  END
>  <UniqueID>  (83) 
75

>  <SMILES>  (83) 
[NH-]S(=O)(=O)c1cc2c(NC(=O)N=c3[n-]cccc3[O-])cc(Cl)cc2s1

>  <Energy>  (83) 
82.2384740278473

>  <Genealogy>  (83) 
[NH-]S(=O)(=O)c1cc2c(NC(=O)N=c3[n-]cccc3[O-])cc(Cl)cc2s1 (protonated)
[NH-]S(=O)(=O)c1cc2c(NC(=O)N=c3[n-]cccc3[O-])cc(Cl)cc2s1 (3D coordinates assigned)
[NH-]S(=O)(=O)c1cc2c(NC(=O)N=c3[n-]cccc3[O-])cc(Cl)cc2s1 (optimized conformer: 82.2384740278473 kcal/mol)

>  <smiles>  (83) 
NS(=O)(=O)c1cc2c(NC(=O)N=c3[nH]cccc3O)cc(Cl)cc2s1

>  <score_type>  (83) 
oracle

>  <origin>  (83) 
adg

>  <m_score__min__energy>  (83) 
-13.92

>  <m_primary>  (83) 
energy

$$$$
83:0
     RDKit          3D

 38 41  0  0  0  0  0  0  0  0999 V2000
   56.6670   30.8370   44.9400 N   0  0  0  0  0  0  0  0  0  0  0  0
   57.4490   31.7510   45.3710 C   0  0  0  0  0  0  0  0  0  0  0  0
   57.0090   33.0250   45.2850 N   0  0  0  0  0  0  0  0  0  0  0  0
   57.8060   34.0200   45.7110 C   0  0  0  0  0  0  0  0  0  0  0  0
   59.0150   33.6990   46.2070 N   0  0  0  0  0  0  0  0  0  0  0  0
   59.4830   32.4550   46.3080 C   0  0  0  0  0  0  0  0  0  0  0  0
   58.6700   31.4320   45.8730 C   0  0  0  0  0  0  0  0  0  0  0  0
   59.3590   30.2780   46.0700 C   0  0  0  0  0  0  0  0  0  0  0  0
   58.9580   28.9090   45.7670 C   0  0  0  0  0  0  0  0  0  0  0  0
   58.6870   28.0280   46.8110 C   0  0  0  0  0  0  0  0  0  0  0  0
   58.2810   26.7280   46.5950 C   0  0  0  0  0  0  0  0  0  0  0  0
   58.1240   26.2440   45.3130 C   0  0  0  0  0  0  0  0  0  0  0  0
   58.3910   27.1110   44.2800 C   0  0  0  0  0  0  0  0  0  0  0  0
   58.7980   28.4140   44.4960 C   0  0  0  0  0  0  0  0  0  0  0  0
   60.5400   30.5860   46.6000 N   0  0  0  0  0  0  0  0  0  0  0  0
   60.6240   31.9210   46.7500 N   0  0  0  0  0  0  0  0  0  0  0  0
   61.7730   32.5520   47.2920 C   0  0  0  0  0  0  0  0  0  0  0  0
   62.4370   33.6330   46.5760 C   0  0  0  0  0  0  0  0  0  0  0  0
   63.6860   33.7110   47.4920 C   0  0  0  0  0  0  0  0  0  0  0  0
   62.9700   33.8530   48.8280 C   0  0  0  0  0  0  0  0  0  0  0  0
   61.6080   33.1650   48.6580 C   0  0  0  0  0  0  0  0  0  0  0  0
   56.2420   30.1610   45.6190 H   0  0  0  0  0  0  0  0  0  0  0  0
   57.4787   35.0687   45.6556 H   0  0  0  0  0  0  0  0  0  0  0  0
   59.6070   34.4890   46.5290 H   0  0  0  0  0  0  0  0  0  0  0  0
   58.8010   28.3823   47.8461 H   0  0  0  0  0  0  0  0  0  0  0  0
   58.0803   26.0704   47.4537 H   0  0  0  0  0  0  0  0  0  0  0  0
   57.7995   25.2098   45.1254 H   0  0  0  0  0  0  0  0  0  0  0  0
   58.2767   26.7552   43.2454 H   0  0  0  0  0  0  0  0  0  0  0  0
   58.9976   29.0670   43.6335 H   0  0  0  0  0  0  0  0  0  0  0  0
   62.3775   31.6340   47.2486 H   0  0  0  0  0  0  0  0  0  0  0  0
   62.6888   33.3618   45.5401 H   0  0  0  0  0  0  0  0  0  0  0  0
   61.8644   34.5618   46.4370 H   0  0  0  0  0  0  0  0  0  0  0  0
   64.2953   32.7965   47.4424 H   0  0  0  0  0  0  0  0  0  0  0  0
   64.4105   34.5023   47.2493 H   0  0  0  0  0  0  0  0  0  0  0  0
   63.5484   33.3625   49.6248 H   0  0  0  0  0  0  0  0  0  0  0  0
   62.8533   34.9097   49.1104 H   0  0  0  0  0  0  0  0  0  0  0  0
   61.4423   32.3981   49.4290 H   0  0  0  0  0  0  0  0  0  0  0  0
   60.7421   33.8364   48.7555 H   0  0  0  0  0  0  0  0  0  0  0  0
  1  2  2  3
  2  3  1  0
  3  4  2  0
  4  5  1  0
  5  6  1  0
  6  7  2  0
  7  8  1  0
  8  9  1  0
  9 10  2  0
 10 11  1  0
 11 12  2  0
 12 13  1  0
 13 14  2  0
  8 15  2  0
 15 16  1  0
 16 17  1  0
 17 18  1  0
 18 19  1  0
 19 20  1  0
 20 21  1  0
  7  2  1  0
 14  9  1  0
 21 17  1  0
 16  6  1  0
  1 22  1  0
  4 23  1  0
  5 24  1  0
 10 25  1  0
 11 26  1  0
 12 27  1  0
 13 28  1  0
 14 29  1  0
 17 30  1  0
 18 31  1  0
 18 32  1  0
 19 33  1  0
 19 34  1  0
 20 35  1  0
 20 36  1  0
 21 37  1  0
 21 38  1  0
M  END
>  <smiles>  (84) 
N=c1nc[nH]c2c1c(-c1ccccc1)nn2C1CCCC1

>  <score_type>  (84) 
oracle

>  <origin>  (84) 
adg

>  <m_score__min__energy>  (84) 
-7.2699999999999996

>  <m_primary>  (84) 
energy

$$$$
84:0
     RDKit          3D

 42 43  0  0  0  0  0  0  0  0999 V2000
   61.3050   33.4900   50.1940 C   0  0  0  0  0  0  0  0  0  0  0  0
   61.8050   32.0500   50.1370 C   0  0  0  0  0  0  0  0  0  0  0  0
   61.3120   31.3610   48.8910 C   0  0  0  0  0  0  0  0  0  0  0  0
   61.7790   31.6120   47.6130 C   0  0  0  0  0  0  0  0  0  0  0  0
   62.9890   32.7890   47.1320 Cl  0  0  0  0  0  0  0  0  0  0  0  0
   61.1380   30.7370   46.7650 C   0  0  0  0  0  0  0  0  0  0  0  0
   60.3030   29.9710   47.5570 C   0  0  0  0  0  0  0  0  0  0  0  0
   59.4580   28.8790   47.0410 C   0  0  0  0  0  0  0  0  0  0  0  0
   59.9400   27.7300   46.8570 O   0  0  0  0  0  0  0  0  0  0  0  0
   58.0860   29.1410   46.7350 N   0  0  0  0  0  0  0  0  0  0  0  0
   57.4310   28.6680   45.5220 C   0  0  0  0  0  0  0  0  0  0  0  0
   57.7390   29.6120   44.3620 C   0  0  0  0  0  0  0  0  0  0  0  0
   56.6610   31.0900   44.4470 S   0  0  0  0  0  0  0  0  0  0  0  0
   57.9420   32.3500   44.1050 C   0  0  0  0  0  0  0  0  0  0  0  0
   58.3940   33.0290   45.3720 C   0  0  0  0  0  0  0  0  0  0  0  0
   58.0340   32.5030   46.6250 C   0  0  0  0  0  0  0  0  0  0  0  0
   58.4930   33.1060   47.8020 C   0  0  0  0  0  0  0  0  0  0  0  0
   58.1460   32.5870   49.0070 F   0  0  0  0  0  0  0  0  0  0  0  0
   59.3010   34.2440   47.7380 C   0  0  0  0  0  0  0  0  0  0  0  0
   59.6560   34.7810   46.4990 C   0  0  0  0  0  0  0  0  0  0  0  0
   59.2140   34.1740   45.3180 C   0  0  0  0  0  0  0  0  0  0  0  0
   59.5950   34.6950   44.1230 F   0  0  0  0  0  0  0  0  0  0  0  0
   60.4060   30.3520   48.8550 N   0  0  0  0  0  0  0  0  0  0  0  0
   59.7090   29.7430   49.9930 C   0  0  0  0  0  0  0  0  0  0  0  0
   61.1975   33.7995   51.2441 H   0  0  0  0  0  0  0  0  0  0  0  0
   62.0269   34.1490   49.6895 H   0  0  0  0  0  0  0  0  0  0  0  0
   60.3300   33.5598   49.6895 H   0  0  0  0  0  0  0  0  0  0  0  0
   62.9050   32.0500   50.1378 H   0  0  0  0  0  0  0  0  0  0  0  0
   61.4213   31.5087   51.0143 H   0  0  0  0  0  0  0  0  0  0  0  0
   61.2649   30.6623   45.6749 H   0  0  0  0  0  0  0  0  0  0  0  0
   57.7980   27.6599   45.2789 H   0  0  0  0  0  0  0  0  0  0  0  0
   56.3437   28.6389   45.6858 H   0  0  0  0  0  0  0  0  0  0  0  0
   58.7917   29.9262   44.4187 H   0  0  0  0  0  0  0  0  0  0  0  0
   57.5547   29.0871   43.4131 H   0  0  0  0  0  0  0  0  0  0  0  0
   58.8069   31.8623   43.6316 H   0  0  0  0  0  0  0  0  0  0  0  0
   57.5111   33.1111   43.4379 H   0  0  0  0  0  0  0  0  0  0  0  0
   57.3889   31.6138   46.6808 H   0  0  0  0  0  0  0  0  0  0  0  0
   59.6578   34.7174   48.6646 H   0  0  0  0  0  0  0  0  0  0  0  0
   60.2842   35.6827   46.4511 H   0  0  0  0  0  0  0  0  0  0  0  0
   60.1407   30.1202   50.9318 H   0  0  0  0  0  0  0  0  0  0  0  0
   58.6409   30.0024   49.9503 H   0  0  0  0  0  0  0  0  0  0  0  0
   59.8228   28.6497   49.9503 H   0  0  0  0  0  0  0  0  0  0  0  0
  1  2  1  0
  2  3  1  0
  3  4  2  0
  4  5  1  0
  4  6  1  0
  6  7  2  0
  7  8  1  0
  8  9  2  0
  8 10  1  0
 10 11  1  0
 11 12  1  0
 12 13  1  0
 13 14  1  0
 14 15  1  0
 15 16  2  0
 16 17  1  0
 17 18  1  0
 17 19  2  0
 19 20  1  0
 20 21  2  0
 21 22  1  0
  7 23  1  0
 23 24  1  0
 23  3  1  0
 21 15  1  0
  1 25  1  0
  1 26  1  0
  1 27  1  0
  2 28  1  0
  2 29  1  0
  6 30  1  0
 11 31  1  0
 11 32  1  0
 12 33  1  0
 12 34  1  0
 14 35  1  0
 14 36  1  0
 16 37  1  0
 19 38  1  0
 20 39  1  0
 24 40  1  0
 24 41  1  0
 24 42  1  0
M  CHG  1  10  -1
M  END
>  <UniqueID>  (85) 
76

>  <SMILES>  (85) 
CCc1c(Cl)cc(C(=O)[N-]CCSCc2cc(F)ccc2F)n1C

>  <Energy>  (85) 
58.105546520731316

>  <Genealogy>  (85) 
CCc1c(Cl)cc(C(=O)[N-]CCSCc2cc(F)ccc2F)n1C (protonated)
CCc1c(Cl)cc(C(=O)[N-]CCSCc2cc(F)ccc2F)n1C (3D coordinates assigned)
CCc1c(Cl)cc(C(=O)[N-]CCSCc2cc(F)ccc2F)n1C (optimized conformer: 58.105546520731316 kcal/mol)

>  <smiles>  (85) 
CCc1c(Cl)cc(C(=O)NCCSCc2cc(F)ccc2F)n1C

>  <score_type>  (85) 
oracle

>  <origin>  (85) 
adg

>  <m_score__min__energy>  (85) 
-8.8499999999999996

>  <m_primary>  (85) 
energy

$$$$
85:0
     RDKit          3D

 39 39  0  0  0  0  0  0  0  0999 V2000
   59.1170   23.6250   45.5990 C   0  0  0  0  0  0  0  0  0  0  0  0
   58.6850   25.0900   45.5680 C   0  0  0  0  0  0  0  0  0  0  0  0
   57.2280   25.2130   45.3800 N   0  0  0  0  0  0  0  0  0  0  0  0
   56.4640   24.0430   44.9210 C   0  0  0  0  0  0  0  0  0  0  0  0
   56.5590   23.8930   43.4040 C   0  0  0  0  0  0  0  0  0  0  0  0
   56.5210   26.4380   45.6810 C   0  0  0  0  0  0  0  0  0  0  0  0
   55.2970   26.3890   45.9870 O   0  0  0  0  0  0  0  0  0  0  0  0
   57.2080   27.7790   45.6820 C   0  0  0  0  0  0  0  0  0  0  0  0
   57.3840   28.2800   44.3130 N   0  0  0  0  0  0  0  0  0  0  0  0
   56.3660   29.6620   44.0120 S   0  0  0  0  0  0  0  0  0  0  0  0
   55.9090   29.6250   42.5800 O   0  0  0  0  0  0  0  0  0  0  0  0
   55.1490   29.6100   44.8980 O   0  0  0  0  0  0  0  0  0  0  0  0
   57.2450   31.1660   44.2830 C   0  0  0  0  0  0  0  0  0  0  0  0
   57.7470   31.9060   43.2040 C   0  0  0  0  0  0  0  0  0  0  0  0
   58.4300   33.1050   43.4280 C   0  0  0  0  0  0  0  0  0  0  0  0
   58.6180   33.5770   44.7370 C   0  0  0  0  0  0  0  0  0  0  0  0
   59.3150   34.8840   44.9580 C   0  0  0  0  0  0  0  0  0  0  0  0
   58.1060   32.8400   45.8170 C   0  0  0  0  0  0  0  0  0  0  0  0
   57.4270   31.6400   45.5900 C   0  0  0  0  0  0  0  0  0  0  0  0
   59.2147   23.2936   46.6433 H   0  0  0  0  0  0  0  0  0  0  0  0
   58.3622   23.0093   45.0880 H   0  0  0  0  0  0  0  0  0  0  0  0
   60.0851   23.5173   45.0880 H   0  0  0  0  0  0  0  0  0  0  0  0
   58.9655   25.5669   46.5188 H   0  0  0  0  0  0  0  0  0  0  0  0
   59.1878   25.5833   44.7231 H   0  0  0  0  0  0  0  0  0  0  0  0
   56.8684   23.1384   45.3987 H   0  0  0  0  0  0  0  0  0  0  0  0
   55.4080   24.1821   45.1957 H   0  0  0  0  0  0  0  0  0  0  0  0
   57.1329   22.9868   43.1604 H   0  0  0  0  0  0  0  0  0  0  0  0
   55.5475   23.8116   42.9795 H   0  0  0  0  0  0  0  0  0  0  0  0
   57.0650   24.7726   42.9795 H   0  0  0  0  0  0  0  0  0  0  0  0
   56.5981   28.4954   46.2518 H   0  0  0  0  0  0  0  0  0  0  0  0
   58.1997   27.6649   46.1441 H   0  0  0  0  0  0  0  0  0  0  0  0
   57.0690   27.5350   43.6540 H   0  0  0  0  0  0  0  0  0  0  0  0
   57.6030   31.5417   42.1761 H   0  0  0  0  0  0  0  0  0  0  0  0
   58.8214   33.6805   42.5761 H   0  0  0  0  0  0  0  0  0  0  0  0
   59.4136   35.0690   46.0378 H   0  0  0  0  0  0  0  0  0  0  0  0
   60.3142   34.8489   44.4992 H   0  0  0  0  0  0  0  0  0  0  0  0
   58.7292   35.6941   44.4992 H   0  0  0  0  0  0  0  0  0  0  0  0
   58.2398   33.2084   46.8448 H   0  0  0  0  0  0  0  0  0  0  0  0
   57.0334   31.0644   46.4408 H   0  0  0  0  0  0  0  0  0  0  0  0
  1  2  1  0
  2  3  1  0
  3  4  1  0
  4  5  1  0
  3  6  1  0
  6  7  2  0
  6  8  1  0
  8  9  1  0
  9 10  1  0
 10 11  2  0
 10 12  2  0
 10 13  1  0
 13 14  2  0
 14 15  1  0
 15 16  2  0
 16 17  1  0
 16 18  1  0
 18 19  2  0
 19 13  1  0
  1 20  1  0
  1 21  1  0
  1 22  1  0
  2 23  1  0
  2 24  1  0
  4 25  1  0
  4 26  1  0
  5 27  1  0
  5 28  1  0
  5 29  1  0
  8 30  1  0
  8 31  1  0
  9 32  1  0
 14 33  1  0
 15 34  1  0
 17 35  1  0
 17 36  1  0
 17 37  1  0
 18 38  1  0
 19 39  1  0
M  END
>  <UniqueID>  (86) 
77

>  <SMILES>  (86) 
CCN(CC)C(=O)CNS(=O)(=O)c1ccc(C)cc1

>  <Energy>  (86) 
26.363168042868047

>  <Genealogy>  (86) 
CCN(CC)C(=O)CNS(=O)(=O)c1ccc(C)cc1 (3D coordinates assigned)
CCN(CC)C(=O)CNS(=O)(=O)c1ccc(C)cc1 (optimized conformer: 26.363168042868047 kcal/mol)

>  <smiles>  (86) 
CCN(CC)C(=O)CNS(=O)(=O)c1ccc(C)cc1

>  <score_type>  (86) 
oracle

>  <origin>  (86) 
adg

>  <m_score__min__energy>  (86) 
-7.7300000000000004

>  <m_primary>  (86) 
energy

$$$$
86:0
     RDKit          3D

 39 41  0  0  1  0  0  0  0  0999 V2000
   59.3930   30.7670   48.8390 N   0  0  0  0  0  0  0  0  0  0  0  0
   60.6860   30.5000   48.3320 C   0  0  0  0  0  0  0  0  0  0  0  0
   61.1050   29.3200   48.1980 O   0  0  0  0  0  0  0  0  0  0  0  0
   61.5380   31.6370   47.9620 C   0  0  0  0  0  0  0  0  0  0  0  0
   62.8480   31.7430   48.4430 C   0  0  0  0  0  0  0  0  0  0  0  0
   63.6040   32.8310   48.0660 C   0  0  0  0  0  0  0  0  0  0  0  0
   63.1240   33.8280   47.2290 C   0  0  0  0  0  0  0  0  0  0  0  0
   61.8160   33.7210   46.7510 C   0  0  0  0  0  0  0  0  0  0  0  0
   61.0150   32.6270   47.1140 C   0  0  0  0  0  0  0  0  0  0  0  0
   59.3280   28.5840   44.5400 N   0  0  0  0  0  0  0  0  0  0  0  0
   59.0270   29.8220   44.6630 C   0  0  0  0  0  0  0  0  0  0  0  0
   59.5430   30.5640   45.6490 N   0  0  0  0  0  0  0  0  0  0  0  0
   59.1930   31.8620   45.7300 C   0  0  0  0  0  0  0  0  0  0  0  0
   59.6800   32.5630   46.6610 N   0  0  0  0  0  0  0  0  0  0  0  0
   58.5920   27.5460   45.1860 C   0  0  0  0  0  0  0  0  0  0  0  0
   59.2650   26.4440   45.7150 C   0  0  0  0  0  0  0  0  0  0  0  0
   58.6000   25.4280   46.3420 C   0  0  0  0  0  0  0  0  0  0  0  0
   57.2320   25.4670   46.4700 C   0  0  0  0  0  0  0  0  0  0  0  0
   56.5290   26.5550   45.9550 C   0  0  0  0  0  0  0  0  0  0  0  0
   55.1420   26.6470   46.0570 O   0  0  0  0  0  0  0  0  0  0  0  0
   57.2170   27.5790   45.3200 C   0  0  0  0  0  0  0  0  0  0  0  0
   58.1830   30.3600   43.7780 N   0  0  0  0  0  0  0  0  0  0  0  0
   57.8210   31.6470   43.8380 C   0  0  0  0  0  0  0  0  0  0  0  0
   58.3280   32.4500   44.8390 C   0  0  0  0  0  0  0  0  0  0  0  0
   57.8020   34.2530   44.9020 Br  0  0  0  0  0  0  0  0  0  0  0  0
   59.0510   30.2120   49.6490 H   0  0  0  0  0  0  0  0  0  0  0  0
   58.7640   31.5080   48.4250 H   0  0  0  0  0  0  0  0  0  0  0  0
   63.2654   30.9731   49.1086 H   0  0  0  0  0  0  0  0  0  0  0  0
   64.6333   32.9130   48.4451 H   0  0  0  0  0  0  0  0  0  0  0  0
   63.7582   34.6820   46.9487 H   0  0  0  0  0  0  0  0  0  0  0  0
   61.4113   34.4985   46.0863 H   0  0  0  0  0  0  0  0  0  0  0  0
   60.1880   30.1340   46.3160 H   0  0  0  0  0  0  0  0  0  0  0  0
   60.3601   26.3917   45.6249 H   0  0  0  0  0  0  0  0  0  0  0  0
   59.1629   24.5739   46.7466 H   0  0  0  0  0  0  0  0  0  0  0  0
   56.6975   24.6481   46.9736 H   0  0  0  0  0  0  0  0  0  0  0  0
   54.5300   25.9260   46.3680 H   0  0  0  0  0  0  0  0  0  0  0  0
   56.6565   28.4345   44.9150 H   0  0  0  0  0  0  0  0  0  0  0  0
   57.7750   29.7890   43.0040 H   0  0  0  0  0  0  0  0  0  0  0  0
   57.1243   32.0617   43.0946 H   0  0  0  0  0  0  0  0  0  0  0  0
  1  2  1  0
  2  3  2  0
  2  4  1  0
  4  5  2  0
  5  6  1  0
  6  7  2  0
  7  8  1  0
  8  9  2  0
  9 10  1  0
 10 11  2  0
 11 12  1  0
 12 13  1  0
 13 14  2  0
 14 15  1  0
 15 16  2  0
 16 17  1  0
 17 18  2  0
 18 19  1  0
 19 20  1  0
 19 21  2  0
 13 22  1  0
 22 23  1  0
 23 24  2  0
 24 25  1  0
  9  4  1  0
 24 11  1  0
 21 15  1  0
  1 26  1  0
  1 27  1  0
  5 28  1  0
  6 29  1  0
  7 30  1  0
  8 31  1  0
 12 32  1  0
 16 33  1  0
 17 34  1  0
 18 35  1  0
 20 36  1  0
 21 37  1  0
 22 38  1  0
 23 39  1  0
M  END
>  <smiles>  (87) 
NC(=O)c1ccccc1N=c1[nH]c(=Nc2cccc(O)c2)[nH]cc1Br

>  <score_type>  (87) 
oracle

>  <origin>  (87) 
adg

>  <m_score__min__energy>  (87) 
-9.8100000000000005

>  <m_primary>  (87) 
energy

$$$$
87:0
     RDKit          3D

 29 30  0  0  0  0  0  0  0  0999 V2000
   57.7720   25.6080   44.9420 C   0  0  0  0  0  0  0  0  0  0  0  0
   57.9390   26.4690   46.0640 O   0  0  0  0  0  0  0  0  0  0  0  0
   58.5390   27.7390   46.0150 C   0  0  0  0  0  0  0  0  0  0  0  0
   59.8080   27.9760   46.5740 C   0  0  0  0  0  0  0  0  0  0  0  0
   60.3840   29.2440   46.5130 C   0  0  0  0  0  0  0  0  0  0  0  0
   59.7090   30.2960   45.8970 C   0  0  0  0  0  0  0  0  0  0  0  0
   58.4390   30.0900   45.3310 C   0  0  0  0  0  0  0  0  0  0  0  0
   57.7430   31.1420   44.7050 C   0  0  0  0  0  0  0  0  0  0  0  0
   58.3340   32.4150   44.6500 O   0  0  0  0  0  0  0  0  0  0  0  0
   57.9090   33.7420   45.6450 S   0  0  0  0  0  0  0  0  0  0  0  0
   57.3840   33.2440   46.9620 O   0  0  0  0  0  0  0  0  0  0  0  0
   56.8590   34.5740   44.9630 O   0  0  0  0  0  0  0  0  0  0  0  0
   59.3560   34.7370   45.9280 C   0  0  0  0  0  0  0  0  0  0  0  0
   59.4420   35.7150   44.9550 F   0  0  0  0  0  0  0  0  0  0  0  0
   59.2730   35.3330   47.1720 F   0  0  0  0  0  0  0  0  0  0  0  0
   60.4830   33.9390   45.8770 F   0  0  0  0  0  0  0  0  0  0  0  0
   56.4770   30.8860   44.1540 C   0  0  0  0  0  0  0  0  0  0  0  0
   55.9290   29.6060   44.2310 C   0  0  0  0  0  0  0  0  0  0  0  0
   54.7920   29.3830   43.7340 O   0  0  0  0  0  0  0  0  0  0  0  0
   56.6140   28.6000   44.8390 N   0  0  0  0  0  0  0  0  0  0  0  0
   57.8480   28.8010   45.3900 C   0  0  0  0  0  0  0  0  0  0  0  0
   57.5734   24.5842   45.2918 H   0  0  0  0  0  0  0  0  0  0  0  0
   56.9251   25.9584   44.3338 H   0  0  0  0  0  0  0  0  0  0  0  0
   58.6885   25.6164   44.3338 H   0  0  0  0  0  0  0  0  0  0  0  0
   60.3504   27.1537   47.0635 H   0  0  0  0  0  0  0  0  0  0  0  0
   61.3772   29.4151   46.9537 H   0  0  0  0  0  0  0  0  0  0  0  0
   60.1724   31.2927   45.8535 H   0  0  0  0  0  0  0  0  0  0  0  0
   55.9176   31.6951   43.6617 H   0  0  0  0  0  0  0  0  0  0  0  0
   56.1670   27.6540   44.8750 H   0  0  0  0  0  0  0  0  0  0  0  0
  1  2  1  0
  2  3  1  0
  3  4  2  0
  4  5  1  0
  5  6  2  0
  6  7  1  0
  7  8  1  0
  8  9  1  0
  9 10  1  0
 10 11  2  0
 10 12  2  0
 10 13  1  0
 13 14  1  0
 13 15  1  0
 13 16  1  0
  8 17  2  0
 17 18  1  0
 18 19  2  0
 18 20  1  0
 20 21  1  0
 21  3  1  0
 21  7  2  0
  1 22  1  0
  1 23  1  0
  1 24  1  0
  4 25  1  0
  5 26  1  0
  6 27  1  0
 17 28  1  0
 20 29  1  0
M  END
>  <UniqueID>  (88) 
78

>  <SMILES>  (88) 
COc1cccc2c(OS(=O)(=O)C(F)(F)F)cc(=O)[nH]c12

>  <Energy>  (88) 
29.829065069055506

>  <Genealogy>  (88) 
COc1cccc2c(OS(=O)(=O)C(F)(F)F)cc(=O)[nH]c12 (3D coordinates assigned)
COc1cccc2c(OS(=O)(=O)C(F)(F)F)cc(=O)[nH]c12 (optimized conformer: 29.829065069055506 kcal/mol)

>  <smiles>  (88) 
COc1cccc2c(OS(=O)(=O)C(F)(F)F)cc(=O)[nH]c12

>  <score_type>  (88) 
oracle

>  <origin>  (88) 
adg

>  <m_score__min__energy>  (88) 
-6.29

>  <m_primary>  (88) 
energy

$$$$
88:0
     RDKit          3D

 33 34  0  0  0  0  0  0  0  0999 V2000
   59.3570   34.6580   45.5350 C   0  0  0  0  0  0  0  0  0  0  0  0
   58.6680   33.3360   45.3720 C   0  0  0  0  0  0  0  0  0  0  0  0
   58.8410   32.3220   46.3270 C   0  0  0  0  0  0  0  0  0  0  0  0
   58.2210   31.0800   46.1550 C   0  0  0  0  0  0  0  0  0  0  0  0
   57.4330   30.8360   45.0230 C   0  0  0  0  0  0  0  0  0  0  0  0
   56.6460   29.2750   44.8210 S   0  0  0  0  0  0  0  0  0  0  0  0
   55.1510   29.4330   44.7830 O   0  0  0  0  0  0  0  0  0  0  0  0
   57.1070   28.6610   43.5300 O   0  0  0  0  0  0  0  0  0  0  0  0
   57.0720   28.2240   46.1330 N   0  0  0  0  0  0  0  0  0  0  0  0
   58.1600   27.2870   46.1300 C   0  0  0  0  0  0  0  0  0  0  0  0
   59.4990   27.7150   46.1930 C   0  0  0  0  0  0  0  0  0  0  0  0
   60.5400   26.7850   46.1850 C   0  0  0  0  0  0  0  0  0  0  0  0
   60.2600   25.4200   46.1160 C   0  0  0  0  0  0  0  0  0  0  0  0
   58.9360   24.9810   46.0540 C   0  0  0  0  0  0  0  0  0  0  0  0
   57.8800   25.9060   46.0610 C   0  0  0  0  0  0  0  0  0  0  0  0
   56.2120   25.3330   45.9600 S   0  0  0  0  0  0  0  0  0  0  0  0
   55.1440   26.6910   45.9270 N   0  0  0  0  0  0  0  0  0  0  0  0
   55.9040   24.4750   47.1560 O   0  0  0  0  0  0  0  0  0  0  0  0
   56.0080   24.5220   44.7110 O   0  0  0  0  0  0  0  0  0  0  0  0
   57.2780   31.8390   44.0570 C   0  0  0  0  0  0  0  0  0  0  0  0
   57.8950   33.0820   44.2290 C   0  0  0  0  0  0  0  0  0  0  0  0
   59.4734   34.8813   46.6058 H   0  0  0  0  0  0  0  0  0  0  0  0
   60.3480   34.6161   45.0594 H   0  0  0  0  0  0  0  0  0  0  0  0
   58.7550   35.4463   45.0594 H   0  0  0  0  0  0  0  0  0  0  0  0
   59.4661   32.5046   47.2135 H   0  0  0  0  0  0  0  0  0  0  0  0
   58.3527   30.2922   46.9113 H   0  0  0  0  0  0  0  0  0  0  0  0
   59.7270   28.7897   46.2489 H   0  0  0  0  0  0  0  0  0  0  0  0
   61.5836   27.1292   46.2332 H   0  0  0  0  0  0  0  0  0  0  0  0
   61.0824   24.6895   46.1104 H   0  0  0  0  0  0  0  0  0  0  0  0
   58.7191   23.9040   45.9993 H   0  0  0  0  0  0  0  0  0  0  0  0
   55.4870   27.3330   45.1790 H   0  0  0  0  0  0  0  0  0  0  0  0
   56.6693   31.6481   43.1609 H   0  0  0  0  0  0  0  0  0  0  0  0
   57.7738   33.8640   43.4649 H   0  0  0  0  0  0  0  0  0  0  0  0
  1  2  1  0
  2  3  2  0
  3  4  1  0
  4  5  2  0
  5  6  1  0
  6  7  2  0
  6  8  2  0
  6  9  1  0
  9 10  1  0
 10 11  2  0
 11 12  1  0
 12 13  2  0
 13 14  1  0
 14 15  2  0
 15 16  1  0
 16 17  1  0
 16 18  2  0
 16 19  2  0
  5 20  1  0
 20 21  2  0
 21  2  1  0
 15 10  1  0
  1 22  1  0
  1 23  1  0
  1 24  1  0
  3 25  1  0
  4 26  1  0
 11 27  1  0
 12 28  1  0
 13 29  1  0
 14 30  1  0
 17 31  1  0
 20 32  1  0
 21 33  1  0
M  CHG  2   9  -1  17  -1
M  END
>  <UniqueID>  (89) 
79

>  <SMILES>  (89) 
Cc1ccc(S(=O)(=O)[N-]c2ccccc2S([NH-])(=O)=O)cc1

>  <Energy>  (89) 
36.28394592098235

>  <Genealogy>  (89) 
Cc1ccc(S(=O)(=O)[N-]c2ccccc2S([NH-])(=O)=O)cc1 (protonated)
Cc1ccc(S(=O)(=O)[N-]c2ccccc2S([NH-])(=O)=O)cc1 (3D coordinates assigned)
Cc1ccc(S(=O)(=O)[N-]c2ccccc2S([NH-])(=O)=O)cc1 (optimized conformer: 36.28394592098235 kcal/mol)

>  <smiles>  (89) 
Cc1ccc(S(=O)(=O)Nc2ccccc2S(N)(=O)=O)cc1

>  <score_type>  (89) 
oracle

>  <origin>  (89) 
adg

>  <m_score__min__energy>  (89) 
-12.77

>  <m_primary>  (89) 
energy

$$$$
89:0
     RDKit          3D

 55 57  0  0  1  0  0  0  0  0999 V2000
   55.7840   23.1920   43.1680 C   0  0  0  0  0  0  0  0  0  0  0  0
   56.2430   21.9220   43.6480 N   0  0  0  0  0  0  0  0  0  0  0  0
   56.9740   21.1490   42.6910 C   0  0  0  0  0  0  0  0  0  0  0  0
   56.7940   21.9550   44.9660 C   0  0  0  0  0  0  0  0  0  0  0  0
   58.2440   22.4430   45.0040 C   0  0  0  0  0  0  0  0  0  0  0  0
   58.2210   23.6090   45.8050 O   0  0  0  0  0  0  0  0  0  0  0  0
   57.2400   23.8700   46.7650 C   0  0  0  0  0  0  0  0  0  0  0  0
   57.2960   23.3390   47.9020 O   0  0  0  0  0  0  0  0  0  0  0  0
   56.1540   24.8010   46.3480 C   0  0  0  0  0  0  0  0  0  0  0  0
   56.5750   26.1740   46.5280 N   0  0  0  0  0  0  0  0  0  0  0  0
   56.9780   26.8900   45.5330 C   0  0  0  0  0  0  0  0  0  0  0  0
   57.7660   26.3770   44.5240 C   0  0  0  0  0  0  0  0  0  0  0  0
   58.1420   27.2470   43.5220 C   0  0  0  0  0  0  0  0  0  0  0  0
   57.7420   28.5530   43.5430 N   0  0  0  0  0  0  0  0  0  0  0  0
   56.9750   29.0230   44.5380 C   0  0  0  0  0  0  0  0  0  0  0  0
   56.5660   30.2380   44.6280 N   0  0  0  0  0  0  0  0  0  0  0  0
   57.4120   31.1890   45.2550 C   0  0  0  0  0  0  0  0  0  0  0  0
   57.2910   32.5030   44.8050 C   0  0  0  0  0  0  0  0  0  0  0  0
   58.0450   33.5180   45.3190 C   0  0  0  0  0  0  0  0  0  0  0  0
   58.9620   33.2210   46.3220 C   0  0  0  0  0  0  0  0  0  0  0  0
   59.7040   34.2810   46.8090 O   0  0  0  0  0  0  0  0  0  0  0  0
   60.9800   34.0970   47.3180 C   0  0  0  0  0  0  0  0  0  0  0  0
   62.0170   33.8330   46.4390 C   0  0  0  0  0  0  0  0  0  0  0  0
   63.3120   33.6440   46.9290 C   0  0  0  0  0  0  0  0  0  0  0  0
   63.5330   33.7240   48.2910 C   0  0  0  0  0  0  0  0  0  0  0  0
   62.4790   33.9900   49.1590 C   0  0  0  0  0  0  0  0  0  0  0  0
   61.1890   34.1800   48.6830 C   0  0  0  0  0  0  0  0  0  0  0  0
   59.0810   31.9240   46.7650 C   0  0  0  0  0  0  0  0  0  0  0  0
   58.3150   30.8810   46.2480 C   0  0  0  0  0  0  0  0  0  0  0  0
   56.5830   28.1920   45.5480 N   0  0  0  0  0  0  0  0  0  0  0  0
   55.5485   23.8436   44.0224 H   0  0  0  0  0  0  0  0  0  0  0  0
   56.5703   23.6589   42.5566 H   0  0  0  0  0  0  0  0  0  0  0  0
   54.8809   23.0483   42.5566 H   0  0  0  0  0  0  0  0  0  0  0  0
   57.6378   20.4470   43.2168 H   0  0  0  0  0  0  0  0  0  0  0  0
   56.2705   20.5858   42.0603 H   0  0  0  0  0  0  0  0  0  0  0  0
   57.5756   21.8200   42.0603 H   0  0  0  0  0  0  0  0  0  0  0  0
   56.1824   22.6294   45.5833 H   0  0  0  0  0  0  0  0  0  0  0  0
   56.7874   20.9234   45.3478 H   0  0  0  0  0  0  0  0  0  0  0  0
   58.8965   21.6795   45.4525 H   0  0  0  0  0  0  0  0  0  0  0  0
   58.6373   22.6435   43.9965 H   0  0  0  0  0  0  0  0  0  0  0  0
   55.9163   24.6300   45.2877 H   0  0  0  0  0  0  0  0  0  0  0  0
   55.2644   24.6146   46.9676 H   0  0  0  0  0  0  0  0  0  0  0  0
   58.0801   25.3228   44.5186 H   0  0  0  0  0  0  0  0  0  0  0  0
   58.7716   26.8848   42.6959 H   0  0  0  0  0  0  0  0  0  0  0  0
   58.0190   29.2190   42.7920 H   0  0  0  0  0  0  0  0  0  0  0  0
   56.5647   32.7289   44.0104 H   0  0  0  0  0  0  0  0  0  0  0  0
   57.9302   34.5474   44.9486 H   0  0  0  0  0  0  0  0  0  0  0  0
   61.8219   33.7722   45.3581 H   0  0  0  0  0  0  0  0  0  0  0  0
   64.1438   33.4345   46.2404 H   0  0  0  0  0  0  0  0  0  0  0  0
   64.5472   33.5766   48.6905 H   0  0  0  0  0  0  0  0  0  0  0  0
   62.6710   34.0508   50.2404 H   0  0  0  0  0  0  0  0  0  0  0  0
   60.3571   34.3905   49.3712 H   0  0  0  0  0  0  0  0  0  0  0  0
   59.8095   31.7015   47.5586 H   0  0  0  0  0  0  0  0  0  0  0  0
   58.4273   29.8515   46.6188 H   0  0  0  0  0  0  0  0  0  0  0  0
   55.9810   28.5540   46.3320 H   0  0  0  0  0  0  0  0  0  0  0  0
  1  2  1  0
  2  3  1  0
  2  4  1  0
  4  5  1  0
  5  6  1  0
  6  7  1  0
  7  8  2  0
  7  9  1  0
  9 10  1  0
 10 11  2  0
 11 12  1  0
 12 13  2  0
 13 14  1  0
 14 15  1  0
 15 16  2  0
 16 17  1  0
 17 18  2  0
 18 19  1  0
 19 20  2  0
 20 21  1  0
 21 22  1  0
 22 23  2  0
 23 24  1  0
 24 25  2  0
 25 26  1  0
 26 27  2  0
 20 28  1  0
 28 29  2  0
 15 30  1  0
 30 11  1  0
 29 17  1  0
 27 22  1  0
  1 31  1  0
  1 32  1  0
  1 33  1  0
  3 34  1  0
  3 35  1  0
  3 36  1  0
  4 37  1  0
  4 38  1  0
  5 39  1  0
  5 40  1  0
  9 41  1  0
  9 42  1  0
 12 43  1  0
 13 44  1  0
 14 45  1  0
 18 46  1  0
 19 47  1  0
 23 48  1  0
 24 49  1  0
 25 50  1  0
 26 51  1  0
 27 52  1  0
 28 53  1  0
 29 54  1  0
 30 55  1  0
M  END
>  <smiles>  (90) 
CN(C)CCOC(=O)CN=c1cc[nH]c(=Nc2ccc(Oc3ccccc3)cc2)[nH]1

>  <score_type>  (90) 
oracle

>  <origin>  (90) 
adg

>  <m_score__min__energy>  (90) 
-8.8800000000000008

>  <m_primary>  (90) 
energy

$$$$
90:0
     RDKit          3D

 49 52  0  0  0  0  0  0  0  0999 V2000
   58.1780   32.5750   51.6680 O   0  0  0  0  0  0  0  0  0  0  0  0
   58.6530   31.7160   50.8770 C   0  0  0  0  0  0  0  0  0  0  0  0
   59.4350   32.1780   49.6830 C   0  0  0  0  0  0  0  0  0  0  0  0
   58.6910   33.1390   48.9340 O   0  0  0  0  0  0  0  0  0  0  0  0
   58.4730   33.0930   47.5470 C   0  0  0  0  0  0  0  0  0  0  0  0
   58.5790   34.2310   46.7240 C   0  0  0  0  0  0  0  0  0  0  0  0
   58.3600   34.1330   45.3470 C   0  0  0  0  0  0  0  0  0  0  0  0
   58.0300   32.8990   44.7720 C   0  0  0  0  0  0  0  0  0  0  0  0
   57.8100   32.7890   43.3890 C   0  0  0  0  0  0  0  0  0  0  0  0
   57.4800   31.5510   42.8270 C   0  0  0  0  0  0  0  0  0  0  0  0
   57.3680   30.4190   43.6380 C   0  0  0  0  0  0  0  0  0  0  0  0
   57.5830   30.5150   45.0160 C   0  0  0  0  0  0  0  0  0  0  0  0
   57.9150   31.7510   45.5920 C   0  0  0  0  0  0  0  0  0  0  0  0
   58.1360   31.8600   46.9730 C   0  0  0  0  0  0  0  0  0  0  0  0
   58.4410   30.3120   51.1030 N   0  0  0  0  0  0  0  0  0  0  0  0
   57.7760   29.7750   52.2590 C   0  0  0  0  0  0  0  0  0  0  0  0
   58.4830   28.9410   53.1360 C   0  0  0  0  0  0  0  0  0  0  0  0
   57.8560   28.4070   54.2640 C   0  0  0  0  0  0  0  0  0  0  0  0
   56.5160   28.6980   54.5270 C   0  0  0  0  0  0  0  0  0  0  0  0
   55.7910   29.5370   53.6650 C   0  0  0  0  0  0  0  0  0  0  0  0
   54.3640   29.8340   53.9380 C   0  0  0  0  0  0  0  0  0  0  0  0
   54.0570   30.5170   54.9500 O   0  0  0  0  0  0  0  0  0  0  0  0
   53.3160   29.4050   53.0540 N   0  0  0  0  0  0  0  0  0  0  0  0
   52.6310   30.2270   52.0980 C   0  0  0  0  0  0  0  0  0  0  0  0
   52.1420   31.4760   52.5010 C   0  0  0  0  0  0  0  0  0  0  0  0
   51.4810   32.3040   51.5870 C   0  0  0  0  0  0  0  0  0  0  0  0
   51.2900   31.8810   50.2680 C   0  0  0  0  0  0  0  0  0  0  0  0
   50.6400   32.7080   49.3600 O   0  0  0  0  0  0  0  0  0  0  0  0
   51.7500   30.6240   49.8660 C   0  0  0  0  0  0  0  0  0  0  0  0
   52.4100   29.7940   50.7770 C   0  0  0  0  0  0  0  0  0  0  0  0
   56.4400   30.1020   52.5530 C   0  0  0  0  0  0  0  0  0  0  0  0
   60.3763   32.6348   50.0225 H   0  0  0  0  0  0  0  0  0  0  0  0
   59.6424   31.3109   49.0388 H   0  0  0  0  0  0  0  0  0  0  0  0
   58.8360   35.2040   47.1681 H   0  0  0  0  0  0  0  0  0  0  0  0
   58.4471   35.0276   44.7129 H   0  0  0  0  0  0  0  0  0  0  0  0
   57.8973   33.6778   42.7468 H   0  0  0  0  0  0  0  0  0  0  0  0
   57.3083   31.4687   41.7436 H   0  0  0  0  0  0  0  0  0  0  0  0
   57.1095   29.4480   43.1904 H   0  0  0  0  0  0  0  0  0  0  0  0
   57.4918   29.6205   45.6497 H   0  0  0  0  0  0  0  0  0  0  0  0
   58.0439   30.9690   47.6114 H   0  0  0  0  0  0  0  0  0  0  0  0
   58.6750   29.6520   50.3260 H   0  0  0  0  0  0  0  0  0  0  0  0
   59.5385   28.7055   52.9346 H   0  0  0  0  0  0  0  0  0  0  0  0
   58.4197   27.7550   54.9475 H   0  0  0  0  0  0  0  0  0  0  0  0
   56.0260   28.2683   55.4131 H   0  0  0  0  0  0  0  0  0  0  0  0
   52.2782   31.8076   53.5409 H   0  0  0  0  0  0  0  0  0  0  0  0
   51.1110   33.2894   51.9067 H   0  0  0  0  0  0  0  0  0  0  0  0
   51.5924   30.2871   48.8308 H   0  0  0  0  0  0  0  0  0  0  0  0
   52.7577   28.7995   50.4605 H   0  0  0  0  0  0  0  0  0  0  0  0
   55.8972   30.8071   51.9063 H   0  0  0  0  0  0  0  0  0  0  0  0
  1  2  2  0
  2  3  1  0
  3  4  1  0
  4  5  1  0
  5  6  2  0
  6  7  1  0
  7  8  2  0
  8  9  1  0
  9 10  2  0
 10 11  1  0
 11 12  2  0
 12 13  1  0
 13 14  2  0
  2 15  1  0
 15 16  1  0
 16 17  2  0
 17 18  1  0
 18 19  2  0
 19 20  1  0
 20 21  1  0
 21 22  2  0
 21 23  1  0
 23 24  1  0
 24 25  2  0
 25 26  1  0
 26 27  2  0
 27 28  1  0
 27 29  1  0
 29 30  2  0
 20 31  2  0
 14  5  1  0
 31 16  1  0
 13  8  1  0
 30 24  1  0
  3 32  1  0
  3 33  1  0
  6 34  1  0
  7 35  1  0
  9 36  1  0
 10 37  1  0
 11 38  1  0
 12 39  1  0
 14 40  1  0
 15 41  1  0
 17 42  1  0
 18 43  1  0
 19 44  1  0
 25 45  1  0
 26 46  1  0
 29 47  1  0
 30 48  1  0
 31 49  1  0
M  CHG  2  23  -1  28  -1
M  END
>  <UniqueID>  (91) 
80

>  <SMILES>  (91) 
O=C(COc1ccc2ccccc2c1)Nc1cccc(C(=O)[N-]c2ccc([O-])cc2)c1

>  <Energy>  (91) 
65.02033285394795

>  <Genealogy>  (91) 
O=C(COc1ccc2ccccc2c1)Nc1cccc(C(=O)[N-]c2ccc([O-])cc2)c1 (protonated)
O=C(COc1ccc2ccccc2c1)Nc1cccc(C(=O)[N-]c2ccc([O-])cc2)c1 (3D coordinates assigned)
O=C(COc1ccc2ccccc2c1)Nc1cccc(C(=O)[N-]c2ccc([O-])cc2)c1 (optimized conformer: 65.02033285394795 kcal/mol)

>  <smiles>  (91) 
O=C(COc1ccc2ccccc2c1)Nc1cccc(C(=O)Nc2ccc(O)cc2)c1

>  <score_type>  (91) 
oracle

>  <origin>  (91) 
adg

>  <m_score__min__energy>  (91) 
-13.800000000000001

>  <m_primary>  (91) 
energy

$$$$
91:0
     RDKit          3D

 43 44  0  0  0  0  0  0  0  0999 V2000
   54.3830   29.3790   44.6620 H   0  0  0  0  0  0  0  0  0  0  0  0
   55.2600   29.3510   45.2270 N   0  0  0  0  0  0  0  0  0  0  0  0
   56.5450   29.8660   44.1910 S   0  0  0  0  0  0  0  0  0  0  0  0
   57.4140   28.6910   43.8440 O   0  0  0  0  0  0  0  0  0  0  0  0
   55.9420   30.4150   42.9290 O   0  0  0  0  0  0  0  0  0  0  0  0
   57.5190   31.1140   44.9880 C   0  0  0  0  0  0  0  0  0  0  0  0
   57.1520   32.4610   44.8260 C   0  0  0  0  0  0  0  0  0  0  0  0
   56.2992   32.7197   44.1812 H   0  0  0  0  0  0  0  0  0  0  0  0
   57.8600   33.4740   45.4760 C   0  0  0  0  0  0  0  0  0  0  0  0
   57.5639   34.5247   45.3404 H   0  0  0  0  0  0  0  0  0  0  0  0
   58.9420   33.1560   46.2970 C   0  0  0  0  0  0  0  0  0  0  0  0
   59.4921   33.9551   46.8155 H   0  0  0  0  0  0  0  0  0  0  0  0
   59.3270   31.8250   46.4610 C   0  0  0  0  0  0  0  0  0  0  0  0
   60.1804   31.5798   47.1104 H   0  0  0  0  0  0  0  0  0  0  0  0
   58.6330   30.7950   45.8030 C   0  0  0  0  0  0  0  0  0  0  0  0
   59.1000   29.4060   45.9890 C   0  0  0  0  0  0  0  0  0  0  0  0
   58.3310   28.4820   46.7080 C   0  0  0  0  0  0  0  0  0  0  0  0
   57.3668   28.7882   47.1398 H   0  0  0  0  0  0  0  0  0  0  0  0
   58.7740   27.2080   46.8730 N   0  0  0  0  0  0  0  0  0  0  0  0
   59.9620   26.7820   46.3560 C   0  0  0  0  0  0  0  0  0  0  0  0
   60.3660   25.5550   46.5120 N   0  0  0  0  0  0  0  0  0  0  0  0
   59.7380   24.3660   46.0040 C   0  0  0  0  0  0  0  0  0  0  0  0
   60.4710   23.4100   45.6360 O   0  0  0  0  0  0  0  0  0  0  0  0
   58.2360   24.2220   45.9210 C   0  0  0  0  0  0  0  0  0  0  0  0
   57.9757   23.1673   46.0937 H   0  0  0  0  0  0  0  0  0  0  0  0
   57.8011   24.8847   46.6836 H   0  0  0  0  0  0  0  0  0  0  0  0
   57.6560   24.6550   44.5480 C   0  0  2  0  0  0  0  0  0  0  0  0
   58.0695   23.9646   43.7981 H   0  0  0  0  0  0  0  0  0  0  0  0
   58.0440   26.0370   44.2530 N   0  0  0  0  0  0  0  0  0  0  0  0
   57.2570   26.5220   43.7620 H   0  0  0  0  0  0  0  0  0  0  0  0
   58.2120   26.5420   45.1540 H   0  0  0  0  0  0  0  0  0  0  0  0
   56.1170   24.5550   44.4980 C   0  0  0  0  0  0  0  0  0  0  0  0
   55.7716   24.9286   43.5227 H   0  0  0  0  0  0  0  0  0  0  0  0
   55.8478   23.4990   44.6478 H   0  0  0  0  0  0  0  0  0  0  0  0
   55.4490   25.3510   45.5810 C   0  0  0  0  0  0  0  0  0  0  0  0
   54.6470   24.7820   46.3700 O   0  0  0  0  0  0  0  0  0  0  0  0
   55.7280   26.7420   45.7380 N   0  0  0  0  0  0  0  0  0  0  0  0
   55.2680   27.2880   46.5000 H   0  0  0  0  0  0  0  0  0  0  0  0
   56.4080   27.2250   45.1110 H   0  0  0  0  0  0  0  0  0  0  0  0
   60.7410   27.6670   45.6050 C   0  0  0  0  0  0  0  0  0  0  0  0
   61.6895   27.3297   45.1616 H   0  0  0  0  0  0  0  0  0  0  0  0
   60.3080   28.9820   45.4210 C   0  0  0  0  0  0  0  0  0  0  0  0
   60.9151   29.6840   44.8306 H   0  0  0  0  0  0  0  0  0  0  0  0
  1  2  1  0
  2  3  1  0
  3  4  2  0
  3  5  2  0
  3  6  1  0
  6  7  2  0
  7  8  1  0
  7  9  1  0
  9 10  1  0
  9 11  2  0
 11 12  1  0
 11 13  1  0
 13 14  1  0
 13 15  2  0
 15 16  1  0
 16 17  2  0
 17 18  1  0
 17 19  1  0
 19 20  1  0
 20 21  2  0
 21 22  1  0
 22 23  2  0
 22 24  1  0
 24 25  1  0
 24 26  1  0
 24 27  1  0
 27 28  1  6
 27 29  1  0
 29 30  1  0
 29 31  1  0
 27 32  1  0
 32 33  1  0
 32 34  1  0
 32 35  1  0
 35 36  2  0
 35 37  1  0
 37 38  1  0
 37 39  1  0
 20 40  1  0
 40 41  1  0
 40 42  2  0
 42 43  1  0
 15  6  1  0
 42 16  1  0
M  CHG  2   2  -1  19  -1
M  END
>  <UniqueID>  (92) 
81

>  <SMILES>  (92) 
[NH-]S(=O)(=O)c1ccccc1-c1cc/c(=N/C(=O)C[C@H](N)CC(N)=O)[n-]c1

>  <Energy>  (92) 
52.474544752968875

>  <Genealogy>  (92) 
[NH-]S(=O)(=O)c1ccccc1-c1ccc(=NC(=O)CC(N)CC(N)=O)[n-]c1 (protonated)
[NH-]S(=O)(=O)c1ccccc1-c1ccc(=NC(=O)C[C@H](N)CC(N)=O)[n-]c1 (chirality)
[NH-]S(=O)(=O)c1ccccc1-c1cc/c(=N/C(=O)C[C@H](N)CC(N)=O)[n-]c1 (cis-trans isomerization)
[NH-]S(=O)(=O)c1ccccc1-c1cc/c(=N/C(=O)C[C@H](N)CC(N)=O)[n-]c1 (3D coordinates assigned)
[NH-]S(=O)(=O)c1ccccc1-c1cc/c(=N/C(=O)C[C@H](N)CC(N)=O)[n-]c1 (optimized conformer: 52.474544752968875 kcal/mol)

>  <smiles>  (92) 
NC(=O)CC(N)CC(=O)N=c1ccc(-c2ccccc2S(N)(=O)=O)c[nH]1

>  <score_type>  (92) 
oracle

>  <origin>  (92) 
adg

>  <m_score__min__energy>  (92) 
-11.67

>  <m_primary>  (92) 
energy

$$$$
92:0
     RDKit          3D

 41 44  0  0  0  0  0  0  0  0999 V2000
   63.3300   31.8260   47.5290 C   0  0  0  0  0  0  0  0  0  0  0  0
   62.6250   33.4570   47.6290 S   0  0  0  0  0  0  0  0  0  0  0  0
   62.9420   34.1920   46.3560 O   0  0  0  0  0  0  0  0  0  0  0  0
   63.2180   34.2170   48.7830 O   0  0  0  0  0  0  0  0  0  0  0  0
   60.9020   33.3570   47.8030 N   0  0  0  0  0  0  0  0  0  0  0  0
   59.9540   33.6750   46.7670 C   0  0  0  0  0  0  0  0  0  0  0  0
   60.0600   34.8420   45.9880 C   0  0  0  0  0  0  0  0  0  0  0  0
   59.1100   35.1240   45.0050 C   0  0  0  0  0  0  0  0  0  0  0  0
   58.0540   34.2410   44.7740 C   0  0  0  0  0  0  0  0  0  0  0  0
   57.9490   33.0550   45.5090 C   0  0  0  0  0  0  0  0  0  0  0  0
   56.8350   32.1830   45.2510 N   0  0  0  0  0  0  0  0  0  0  0  0
   56.8830   31.0200   44.6720 C   0  0  0  0  0  0  0  0  0  0  0  0
   56.9710   29.8430   45.3290 N   0  0  0  0  0  0  0  0  0  0  0  0
   57.0470   28.7900   44.4710 C   0  0  0  0  0  0  0  0  0  0  0  0
   57.1380   27.4040   44.9640 C   0  0  0  0  0  0  0  0  0  0  0  0
   57.8400   26.3820   44.3260 C   0  0  0  0  0  0  0  0  0  0  0  0
   57.6590   25.2740   45.1240 C   0  0  0  0  0  0  0  0  0  0  0  0
   58.1290   23.9700   44.9850 C   0  0  0  0  0  0  0  0  0  0  0  0
   57.7760   23.0360   45.9770 C   0  0  0  0  0  0  0  0  0  0  0  0
   56.9700   23.4240   47.0700 C   0  0  0  0  0  0  0  0  0  0  0  0
   56.5110   24.7510   47.1830 C   0  0  0  0  0  0  0  0  0  0  0  0
   56.8770   25.6520   46.1840 C   0  0  0  0  0  0  0  0  0  0  0  0
   56.5510   26.9530   46.1000 N   0  0  0  0  0  0  0  0  0  0  0  0
   57.0310   29.1360   43.1180 C   0  0  0  0  0  0  0  0  0  0  0  0
   56.9180   30.8130   43.0080 S   0  0  0  0  0  0  0  0  0  0  0  0
   58.8890   32.7910   46.5230 C   0  0  0  0  0  0  0  0  0  0  0  0
   63.4984   31.4365   48.5438 H   0  0  0  0  0  0  0  0  0  0  0  0
   62.6393   31.1603   46.9907 H   0  0  0  0  0  0  0  0  0  0  0  0
   64.2881   31.8731   46.9907 H   0  0  0  0  0  0  0  0  0  0  0  0
   60.5430   33.0960   48.7490 H   0  0  0  0  0  0  0  0  0  0  0  0
   60.8967   35.5364   46.1547 H   0  0  0  0  0  0  0  0  0  0  0  0
   59.1939   36.0455   44.4102 H   0  0  0  0  0  0  0  0  0  0  0  0
   57.2997   34.4789   44.0095 H   0  0  0  0  0  0  0  0  0  0  0  0
   58.4134   26.4466   43.3895 H   0  0  0  0  0  0  0  0  0  0  0  0
   58.7552   23.6799   44.1284 H   0  0  0  0  0  0  0  0  0  0  0  0
   58.1301   21.9974   45.9005 H   0  0  0  0  0  0  0  0  0  0  0  0
   56.6988   22.6849   47.8383 H   0  0  0  0  0  0  0  0  0  0  0  0
   55.8849   25.0657   48.0309 H   0  0  0  0  0  0  0  0  0  0  0  0
   55.9660   27.4910   46.7770 H   0  0  0  0  0  0  0  0  0  0  0  0
   57.0831   28.4354   42.2716 H   0  0  0  0  0  0  0  0  0  0  0  0
   58.7887   31.8808   47.1325 H   0  0  0  0  0  0  0  0  0  0  0  0
  1  2  1  0
  2  3  2  0
  2  4  2  0
  2  5  1  0
  5  6  1  0
  6  7  2  0
  7  8  1  0
  8  9  2  0
  9 10  1  0
 10 11  1  0
 11 12  2  3
 12 13  1  0
 13 14  1  0
 14 15  1  0
 15 16  2  0
 16 17  1  0
 17 18  2  0
 18 19  1  0
 19 20  2  0
 20 21  1  0
 21 22  2  0
 22 23  1  0
 14 24  2  0
 24 25  1  0
 10 26  2  0
 26  6  1  0
 25 12  1  0
 23 15  1  0
 22 17  1  0
  1 27  1  0
  1 28  1  0
  1 29  1  0
  5 30  1  0
  7 31  1  0
  8 32  1  0
  9 33  1  0
 16 34  1  0
 18 35  1  0
 19 36  1  0
 20 37  1  0
 21 38  1  0
 23 39  1  0
 24 40  1  0
 26 41  1  0
M  CHG  1  13  -1
M  END
>  <UniqueID>  (93) 
82

>  <SMILES>  (93) 
CS(=O)(=O)Nc1cccc(N=c2[n-]c(-c3cc4ccccc4[nH]3)cs2)c1

>  <Energy>  (93) 
111.90303147328854

>  <Genealogy>  (93) 
CS(=O)(=O)Nc1cccc(N=c2[n-]c(-c3cc4ccccc4[nH]3)cs2)c1 (protonated)
CS(=O)(=O)Nc1cccc(N=c2[n-]c(-c3cc4ccccc4[nH]3)cs2)c1 (3D coordinates assigned)
CS(=O)(=O)Nc1cccc(N=c2[n-]c(-c3cc4ccccc4[nH]3)cs2)c1 (optimized conformer: 111.90303147328854 kcal/mol)

>  <smiles>  (93) 
CS(=O)(=O)Nc1cccc(N=c2[nH]c(-c3cc4ccccc4[nH]3)cs2)c1

>  <score_type>  (93) 
oracle

>  <origin>  (93) 
adg

>  <m_score__min__energy>  (93) 
-10.199999999999999

>  <m_primary>  (93) 
energy

$$$$
93:0
     RDKit          3D

 30 31  0  0  0  0  0  0  0  0999 V2000
   58.6540   31.6390   47.4740 C   0  0  0  0  0  0  0  0  0  0  0  0
   58.4900   32.1410   46.0560 C   0  0  0  0  0  0  0  0  0  0  0  0
   57.9040   31.3230   45.0520 C   0  0  0  0  0  0  0  0  0  0  0  0
   57.3900   29.9720   45.3350 C   0  0  0  0  0  0  0  0  0  0  0  0
   56.1660   29.7320   45.1560 O   0  0  0  0  0  0  0  0  0  0  0  0
   58.2820   28.9480   45.8070 N   0  0  0  0  0  0  0  0  0  0  0  0
   57.8590   27.6370   46.2160 C   0  0  0  0  0  0  0  0  0  0  0  0
   58.6970   26.8690   47.0360 C   0  0  0  0  0  0  0  0  0  0  0  0
   58.2830   25.6030   47.4560 C   0  0  0  0  0  0  0  0  0  0  0  0
   57.0660   25.1250   47.0840 N   0  0  0  0  0  0  0  0  0  0  0  0
   56.2210   25.8550   46.3080 C   0  0  0  0  0  0  0  0  0  0  0  0
   55.0970   25.3840   45.9950 O   0  0  0  0  0  0  0  0  0  0  0  0
   56.5970   27.1260   45.8640 C   0  0  0  0  0  0  0  0  0  0  0  0
   57.7900   31.7990   43.7400 C   0  0  0  0  0  0  0  0  0  0  0  0
   58.2260   33.0780   43.4100 C   0  0  0  0  0  0  0  0  0  0  0  0
   58.8030   33.8920   44.3820 C   0  0  0  0  0  0  0  0  0  0  0  0
   58.9660   33.4350   45.6990 C   0  0  0  0  0  0  0  0  0  0  0  0
   59.6110   34.3000   46.6520 N   0  0  0  0  0  0  0  0  0  0  0  0
   58.9370   34.9540   47.4750 O   0  0  0  0  0  0  0  0  0  0  0  0
   60.9780   34.2570   46.8030 O   0  0  0  0  0  0  0  0  0  0  0  0
   58.3919   32.4412   48.1796 H   0  0  0  0  0  0  0  0  0  0  0  0
   57.9909   30.7765   47.6366 H   0  0  0  0  0  0  0  0  0  0  0  0
   59.6984   31.3343   47.6366 H   0  0  0  0  0  0  0  0  0  0  0  0
   59.3080   29.1410   45.7680 H   0  0  0  0  0  0  0  0  0  0  0  0
   59.6763   27.2616   47.3473 H   0  0  0  0  0  0  0  0  0  0  0  0
   58.9429   24.9916   48.0890 H   0  0  0  0  0  0  0  0  0  0  0  0
   55.9110   27.7219   45.2440 H   0  0  0  0  0  0  0  0  0  0  0  0
   57.3516   31.1554   42.9631 H   0  0  0  0  0  0  0  0  0  0  0  0
   58.1150   33.4472   42.3798 H   0  0  0  0  0  0  0  0  0  0  0  0
   59.1351   34.9058   44.1140 H   0  0  0  0  0  0  0  0  0  0  0  0
  1  2  1  0
  2  3  2  0
  3  4  1  0
  4  5  2  0
  4  6  1  0
  6  7  1  0
  7  8  1  0
  8  9  2  0
  9 10  1  0
 10 11  1  0
 11 12  2  0
 11 13  1  0
  3 14  1  0
 14 15  2  0
 15 16  1  0
 16 17  2  0
 17 18  1  0
 18 19  2  0
 18 20  1  0
 17  2  1  0
 13  7  2  0
  1 21  1  0
  1 22  1  0
  1 23  1  0
  6 24  1  0
  8 25  1  0
  9 26  1  0
 13 27  1  0
 14 28  1  0
 15 29  1  0
 16 30  1  0
M  CHG  3  10  -1  18   1  20  -1
M  END
>  <UniqueID>  (94) 
83

>  <SMILES>  (94) 
Cc1c(C(=O)Nc2cc[n-]c(=O)c2)cccc1[N+](=O)[O-]

>  <Energy>  (94) 
49.29839387485692

>  <Genealogy>  (94) 
Cc1c(C(=O)Nc2cc[n-]c(=O)c2)cccc1[N+](=O)[O-] (protonated)
Cc1c(C(=O)Nc2cc[n-]c(=O)c2)cccc1[N+](=O)[O-] (3D coordinates assigned)
Cc1c(C(=O)Nc2cc[n-]c(=O)c2)cccc1[N+](=O)[O-] (optimized conformer: 49.29839387485692 kcal/mol)

>  <smiles>  (94) 
Cc1c(C(=O)Nc2cc[nH]c(=O)c2)cccc1[N+](=O)[O-]

>  <score_type>  (94) 
oracle

>  <origin>  (94) 
adg

>  <m_score__min__energy>  (94) 
-8.5099999999999998

>  <m_primary>  (94) 
energy

$$$$
94:0
     RDKit          3D

 52 55  0  0  0  0  0  0  0  0999 V2000
   64.1420   32.3770   46.7470 N   0  0  0  0  0  0  0  0  0  0  0  0
   62.9280   32.9200   47.3400 C   0  0  2  0  0  0  0  0  0  0  0  0
   62.3210   31.9990   48.3910 C   0  0  1  0  0  0  0  0  0  0  0  0
   61.6260   32.7050   49.5240 C   0  0  0  0  0  0  0  0  0  0  0  0
   61.3850   33.9420   49.4480 O   0  0  0  0  0  0  0  0  0  0  0  0
   61.2820   31.9720   50.7060 N   0  0  0  0  0  0  0  0  0  0  0  0
   60.2460   32.3760   51.6130 C   0  0  0  0  0  0  0  0  0  0  0  0
   59.5720   33.4200   51.3870 O   0  0  0  0  0  0  0  0  0  0  0  0
   59.9200   31.4980   52.7890 C   0  0  0  0  0  0  0  0  0  0  0  0
   58.4990   30.9980   52.7580 C   0  0  0  0  0  0  0  0  0  0  0  0
   58.1270   29.8690   53.5050 C   0  0  0  0  0  0  0  0  0  0  0  0
   56.8160   29.3870   53.4500 C   0  0  0  0  0  0  0  0  0  0  0  0
   55.8600   30.0130   52.6300 C   0  0  0  0  0  0  0  0  0  0  0  0
   54.4620   29.5210   52.5740 C   0  0  0  0  0  0  0  0  0  0  0  0
   54.2530   28.2810   52.6710 O   0  0  0  0  0  0  0  0  0  0  0  0
   53.3020   30.4320   52.4090 C   0  0  0  0  0  0  0  0  0  0  0  0
   52.4890   30.7420   53.5140 C   0  0  0  0  0  0  0  0  0  0  0  0
   51.4080   31.6180   53.3760 C   0  0  0  0  0  0  0  0  0  0  0  0
   51.1330   32.2000   52.1350 C   0  0  0  0  0  0  0  0  0  0  0  0
   50.0600   33.0720   52.0000 O   0  0  0  0  0  0  0  0  0  0  0  0
   51.9410   31.9090   51.0330 C   0  0  0  0  0  0  0  0  0  0  0  0
   53.0240   31.0350   51.1680 C   0  0  0  0  0  0  0  0  0  0  0  0
   56.2360   31.1440   51.8870 C   0  0  0  0  0  0  0  0  0  0  0  0
   57.5460   31.6280   51.9440 C   0  0  0  0  0  0  0  0  0  0  0  0
   61.6820   32.1090   46.9940 C   0  0  1  0  0  0  0  0  0  0  0  0
   60.3900   32.8860   46.8860 C   0  0  0  0  0  0  0  0  0  0  0  0
   60.3620   34.1910   46.3590 C   0  0  0  0  0  0  0  0  0  0  0  0
   59.1510   34.8820   46.2560 C   0  0  0  0  0  0  0  0  0  0  0  0
   57.9590   34.2710   46.6550 C   0  0  0  0  0  0  0  0  0  0  0  0
   57.9730   32.9620   47.1390 C   0  0  0  0  0  0  0  0  0  0  0  0
   59.1810   32.2660   47.2380 C   0  0  0  0  0  0  0  0  0  0  0  0
   64.8370   33.1560   46.7030 H   0  0  0  0  0  0  0  0  0  0  0  0
   64.5240   31.6730   47.4190 H   0  0  0  0  0  0  0  0  0  0  0  0
   63.1971   33.9858   47.3005 H   0  0  0  0  0  0  0  0  0  0  0  0
   62.6716   31.1597   49.0097 H   0  0  0  0  0  0  0  0  0  0  0  0
   61.7400   31.0450   50.8600 H   0  0  0  0  0  0  0  0  0  0  0  0
   60.5989   30.6325   52.7823 H   0  0  0  0  0  0  0  0  0  0  0  0
   60.0429   32.1007   53.7009 H   0  0  0  0  0  0  0  0  0  0  0  0
   58.8708   29.3612   54.1366 H   0  0  0  0  0  0  0  0  0  0  0  0
   56.5301   28.5120   54.0522 H   0  0  0  0  0  0  0  0  0  0  0  0
   52.7052   30.2919   54.4941 H   0  0  0  0  0  0  0  0  0  0  0  0
   50.7736   31.8494   54.2443 H   0  0  0  0  0  0  0  0  0  0  0  0
   51.7247   32.3684   50.0572 H   0  0  0  0  0  0  0  0  0  0  0  0
   53.6625   30.8174   50.2991 H   0  0  0  0  0  0  0  0  0  0  0  0
   55.4934   31.6531   51.2550 H   0  0  0  0  0  0  0  0  0  0  0  0
   57.8310   32.5072   51.3476 H   0  0  0  0  0  0  0  0  0  0  0  0
   61.4040   31.3898   46.2095 H   0  0  0  0  0  0  0  0  0  0  0  0
   61.2957   34.6685   46.0272 H   0  0  0  0  0  0  0  0  0  0  0  0
   59.1363   35.9082   45.8603 H   0  0  0  0  0  0  0  0  0  0  0  0
   57.0094   34.8221   46.5875 H   0  0  0  0  0  0  0  0  0  0  0  0
   57.0330   32.4780   47.4426 H   0  0  0  0  0  0  0  0  0  0  0  0
   59.1842   31.2253   47.5942 H   0  0  0  0  0  0  0  0  0  0  0  0
  1  2  1  0
  2  3  1  0
  3  4  1  0
  4  5  2  0
  4  6  1  0
  6  7  1  0
  7  8  2  0
  7  9  1  0
  9 10  1  0
 10 11  2  0
 11 12  1  0
 12 13  2  0
 13 14  1  0
 14 15  2  0
 14 16  1  0
 16 17  2  0
 17 18  1  0
 18 19  2  0
 19 20  1  0
 19 21  1  0
 21 22  2  0
 13 23  1  0
 23 24  2  0
  3 25  1  0
 25 26  1  0
 26 27  2  0
 27 28  1  0
 28 29  2  0
 29 30  1  0
 30 31  2  0
 25  2  1  0
 31 26  1  0
 24 10  1  0
 22 16  1  0
  1 32  1  0
  1 33  1  0
  2 34  1  1
  3 35  1  1
  6 36  1  0
  9 37  1  0
  9 38  1  0
 11 39  1  0
 12 40  1  0
 17 41  1  0
 18 42  1  0
 21 43  1  0
 22 44  1  0
 23 45  1  0
 24 46  1  0
 25 47  1  6
 27 48  1  0
 28 49  1  0
 29 50  1  0
 30 51  1  0
 31 52  1  0
M  CHG  1  20  -1
M  END
>  <UniqueID>  (95) 
84

>  <SMILES>  (95) 
N[C@H]1C(c2ccccc2)[C@@H]1C(=O)NC(=O)Cc1ccc(C(=O)c2ccc([O-])cc2)cc1

>  <Energy>  (95) 
329.3165258914773

>  <Genealogy>  (95) 
NC1C(C(=O)NC(=O)Cc2ccc(C(=O)c3ccc([O-])cc3)cc2)C1c1ccccc1 (protonated)
N[C@H]1C(c2ccccc2)[C@@H]1C(=O)NC(=O)Cc1ccc(C(=O)c2ccc([O-])cc2)cc1 (chirality)
N[C@H]1C(c2ccccc2)[C@@H]1C(=O)NC(=O)Cc1ccc(C(=O)c2ccc([O-])cc2)cc1 (3D coordinates assigned)
N[C@H]1C(c2ccccc2)[C@@H]1C(=O)NC(=O)Cc1ccc(C(=O)c2ccc([O-])cc2)cc1 (nonaromatic ring conformer: 329.3165258914773 kcal/mol)

>  <smiles>  (95) 
NC1C(C(=O)NC(=O)Cc2ccc(C(=O)c3ccc(O)cc3)cc2)C1c1ccccc1

>  <score_type>  (95) 
oracle

>  <origin>  (95) 
adg

>  <m_score__min__energy>  (95) 
-13.68

>  <m_primary>  (95) 
energy

$$$$
95:0
     RDKit          3D

 67 69  0  0  0  0  0  0  0  0999 V2000
   59.9800   33.9140   49.5160 C   0  0  0  0  0  0  0  0  0  0  0  0
   58.9220   33.0450   48.8440 C   0  0  0  0  0  0  0  0  0  0  0  0
   59.0100   33.1430   47.3820 N   0  0  0  0  0  0  0  0  0  0  0  0
   57.8120   33.4610   46.5880 C   0  0  0  0  0  0  0  0  0  0  0  0
   57.7050   32.5650   45.3860 C   0  0  0  0  0  0  0  0  0  0  0  0
   57.7660   33.0940   44.0920 C   0  0  0  0  0  0  0  0  0  0  0  0
   57.7530   32.2290   43.0000 C   0  0  0  0  0  0  0  0  0  0  0  0
   57.6820   30.8500   43.2040 C   0  0  0  0  0  0  0  0  0  0  0  0
   57.6180   30.3430   44.5150 C   0  0  0  0  0  0  0  0  0  0  0  0
   57.5750   28.8820   44.7810 C   0  0  0  0  0  0  0  0  0  0  0  0
   57.0340   28.4020   45.9880 C   0  0  0  0  0  0  0  0  0  0  0  0
   57.0340   27.0340   46.2740 C   0  0  0  0  0  0  0  0  0  0  0  0
   57.5640   26.1110   45.3550 C   0  0  0  0  0  0  0  0  0  0  0  0
   57.5730   24.6630   45.6760 C   0  0  0  0  0  0  0  0  0  0  0  0
   57.0950   24.2700   46.7750 O   0  0  0  0  0  0  0  0  0  0  0  0
   58.1400   23.7070   44.7670 N   0  0  0  0  0  0  0  0  0  0  0  0
   58.1180   22.2690   45.0230 C   0  0  0  0  0  0  0  0  0  0  0  0
   56.6790   21.7440   44.9540 C   0  0  0  0  0  0  0  0  0  0  0  0
   56.2090   21.6450   43.5550 N   0  0  0  0  0  0  0  0  0  0  0  0
   57.2800   21.0920   42.7090 C   0  0  0  0  0  0  0  0  0  0  0  0
   55.8050   22.9630   43.0310 C   0  0  0  0  0  0  0  0  0  0  0  0
   58.0600   26.5860   44.1260 C   0  0  0  0  0  0  0  0  0  0  0  0
   58.0660   27.9540   43.8450 C   0  0  0  0  0  0  0  0  0  0  0  0
   57.6450   31.2150   45.5620 N   0  0  0  0  0  0  0  0  0  0  0  0
   60.2990   33.0380   46.7540 C   0  0  0  0  0  0  0  0  0  0  0  0
   60.6090   33.8710   45.8600 O   0  0  0  0  0  0  0  0  0  0  0  0
   61.2470   32.0280   47.1560 N   0  0  0  0  0  0  0  0  0  0  0  0
   62.6340   32.3830   47.4660 C   0  0  0  0  0  0  0  0  0  0  0  0
   60.8290   30.6540   47.2750 C   0  0  0  0  0  0  0  0  0  0  0  0
   60.7970   29.8230   46.1390 C   0  0  0  0  0  0  0  0  0  0  0  0
   60.3860   28.4910   46.2530 C   0  0  0  0  0  0  0  0  0  0  0  0
   60.0080   27.9790   47.5000 C   0  0  0  0  0  0  0  0  0  0  0  0
   60.0350   28.7980   48.6340 C   0  0  0  0  0  0  0  0  0  0  0  0
   60.4410   30.1340   48.5230 C   0  0  0  0  0  0  0  0  0  0  0  0
   59.8812   33.8329   50.6085 H   0  0  0  0  0  0  0  0  0  0  0  0
   60.9810   33.5739   49.2121 H   0  0  0  0  0  0  0  0  0  0  0  0
   59.8408   34.9620   49.2121 H   0  0  0  0  0  0  0  0  0  0  0  0
   59.0736   31.9976   49.1439 H   0  0  0  0  0  0  0  0  0  0  0  0
   57.9285   33.3968   49.1591 H   0  0  0  0  0  0  0  0  0  0  0  0
   56.9189   33.3273   47.2162 H   0  0  0  0  0  0  0  0  0  0  0  0
   57.8892   34.5021   46.2415 H   0  0  0  0  0  0  0  0  0  0  0  0
   57.8236   34.1817   43.9386 H   0  0  0  0  0  0  0  0  0  0  0  0
   57.7987   32.6325   41.9777 H   0  0  0  0  0  0  0  0  0  0  0  0
   57.6761   30.1634   42.3446 H   0  0  0  0  0  0  0  0  0  0  0  0
   56.6070   29.1102   46.7134 H   0  0  0  0  0  0  0  0  0  0  0  0
   56.6157   26.6762   47.2264 H   0  0  0  0  0  0  0  0  0  0  0  0
   58.7470   24.0410   43.9880 H   0  0  0  0  0  0  0  0  0  0  0  0
   58.7295   21.7553   44.2665 H   0  0  0  0  0  0  0  0  0  0  0  0
   58.5243   22.0755   46.0267 H   0  0  0  0  0  0  0  0  0  0  0  0
   56.6389   20.7469   45.4168 H   0  0  0  0  0  0  0  0  0  0  0  0
   56.0265   22.4487   45.4902 H   0  0  0  0  0  0  0  0  0  0  0  0
   58.0761   20.6810   43.3472 H   0  0  0  0  0  0  0  0  0  0  0  0
   56.8699   20.2929   42.0739 H   0  0  0  0  0  0  0  0  0  0  0  0
   57.6940   21.8890   42.0739 H   0  0  0  0  0  0  0  0  0  0  0  0
   55.5966   23.6430   43.8701 H   0  0  0  0  0  0  0  0  0  0  0  0
   56.6173   23.3778   42.4160 H   0  0  0  0  0  0  0  0  0  0  0  0
   54.8998   22.8513   42.4160 H   0  0  0  0  0  0  0  0  0  0  0  0
   58.4458   25.8742   43.3814 H   0  0  0  0  0  0  0  0  0  0  0  0
   58.4590   28.3096   42.8811 H   0  0  0  0  0  0  0  0  0  0  0  0
   62.7685   32.4174   48.5572 H   0  0  0  0  0  0  0  0  0  0  0  0
   63.3102   31.6290   47.0368 H   0  0  0  0  0  0  0  0  0  0  0  0
   62.8648   33.3692   47.0368 H   0  0  0  0  0  0  0  0  0  0  0  0
   61.0962   30.2225   45.1588 H   0  0  0  0  0  0  0  0  0  0  0  0
   60.3597   27.8455   45.3627 H   0  0  0  0  0  0  0  0  0  0  0  0
   59.6889   26.9300   47.5884 H   0  0  0  0  0  0  0  0  0  0  0  0
   59.7375   28.3929   49.6124 H   0  0  0  0  0  0  0  0  0  0  0  0
   60.4565   30.7784   49.4144 H   0  0  0  0  0  0  0  0  0  0  0  0
  1  2  1  0
  2  3  1  0
  3  4  1  0
  4  5  1  0
  5  6  2  0
  6  7  1  0
  7  8  2  0
  8  9  1  0
  9 10  1  0
 10 11  2  0
 11 12  1  0
 12 13  2  0
 13 14  1  0
 14 15  2  0
 14 16  1  0
 16 17  1  0
 17 18  1  0
 18 19  1  0
 19 20  1  0
 19 21  1  0
 13 22  1  0
 22 23  2  0
  9 24  2  0
  3 25  1  0
 25 26  2  0
 25 27  1  0
 27 28  1  0
 27 29  1  0
 29 30  2  0
 30 31  1  0
 31 32  2  0
 32 33  1  0
 33 34  2  0
 24  5  1  0
 34 29  1  0
 23 10  1  0
  1 35  1  0
  1 36  1  0
  1 37  1  0
  2 38  1  0
  2 39  1  0
  4 40  1  0
  4 41  1  0
  6 42  1  0
  7 43  1  0
  8 44  1  0
 11 45  1  0
 12 46  1  0
 16 47  1  0
 17 48  1  0
 17 49  1  0
 18 50  1  0
 18 51  1  0
 20 52  1  0
 20 53  1  0
 20 54  1  0
 21 55  1  0
 21 56  1  0
 21 57  1  0
 22 58  1  0
 23 59  1  0
 28 60  1  0
 28 61  1  0
 28 62  1  0
 30 63  1  0
 31 64  1  0
 32 65  1  0
 33 66  1  0
 34 67  1  0
M  END
>  <UniqueID>  (96) 
85

>  <SMILES>  (96) 
CCN(Cc1cccc(-c2ccc(C(=O)NCCN(C)C)cc2)n1)C(=O)N(C)c1ccccc1

>  <Energy>  (96) 
77.06217939587073

>  <Genealogy>  (96) 
CCN(Cc1cccc(-c2ccc(C(=O)NCCN(C)C)cc2)n1)C(=O)N(C)c1ccccc1 (3D coordinates assigned)
CCN(Cc1cccc(-c2ccc(C(=O)NCCN(C)C)cc2)n1)C(=O)N(C)c1ccccc1 (optimized conformer: 77.06217939587073 kcal/mol)

>  <smiles>  (96) 
CCN(Cc1cccc(-c2ccc(C(=O)NCCN(C)C)cc2)n1)C(=O)N(C)c1ccccc1

>  <score_type>  (96) 
oracle

>  <origin>  (96) 
adg

>  <m_score__min__energy>  (96) 
-9.1199999999999992

>  <m_primary>  (96) 
energy

$$$$
96:0
     RDKit          3D

 63 67  0  0  1  0  0  0  0  0999 V2000
   56.5510   23.4130   43.3520 C   0  0  0  0  0  0  0  0  0  0  0  0
   57.1520   24.5420   44.1930 C   0  0  0  0  0  0  0  0  0  0  0  0
   56.3550   25.0930   45.2290 C   0  0  0  0  0  0  0  0  0  0  0  0
   56.2020   26.2080   45.9630 N   0  0  0  0  0  0  0  0  0  0  0  0
   56.9720   27.2100   46.0800 C   0  0  0  0  0  0  0  0  0  0  0  0
   56.9040   28.1750   45.1300 N   0  0  0  0  0  0  0  0  0  0  0  0
   57.7220   29.2350   45.2570 C   0  0  0  0  0  0  0  0  0  0  0  0
   57.7070   30.1740   44.3990 N   0  0  0  0  0  0  0  0  0  0  0  0
   56.7790   31.2630   44.4390 C   0  0  0  0  0  0  0  0  0  0  0  0
   57.5810   32.4640   44.8800 C   0  0  0  0  0  0  0  0  0  0  0  0
   57.4070   32.9700   46.1520 C   0  0  0  0  0  0  0  0  0  0  0  0
   58.1180   34.0700   46.6100 C   0  0  0  0  0  0  0  0  0  0  0  0
   59.0300   34.6740   45.7570 C   0  0  0  0  0  0  0  0  0  0  0  0
   59.1960   34.1600   44.4880 C   0  0  0  0  0  0  0  0  0  0  0  0
   58.4850   33.0580   44.0280 C   0  0  0  0  0  0  0  0  0  0  0  0
   58.5920   29.3330   46.3150 C   0  0  0  0  0  0  0  0  0  0  0  0
   59.4340   30.4350   46.4360 C   0  0  0  0  0  0  0  0  0  0  0  0
   60.3220   30.5530   47.4970 C   0  0  0  0  0  0  0  0  0  0  0  0
   61.1910   31.6840   47.6370 N   0  0  0  0  0  0  0  0  0  0  0  0
   60.7840   32.9640   48.1020 C   0  0  0  0  0  0  0  0  0  0  0  0
   61.7460   33.6960   48.9790 C   0  0  0  0  0  0  0  0  0  0  0  0
   63.1050   33.2670   48.7170 N   0  0  0  0  0  0  0  0  0  0  0  0
   64.1330   33.3490   49.7420 C   0  0  0  0  0  0  0  0  0  0  0  0
   65.2740   32.7130   49.6870 C   0  0  0  0  0  0  0  0  0  0  0  0
   66.2130   32.8610   50.7320 C   0  0  0  0  0  0  0  0  0  0  0  0
   65.3990   34.0050   51.8980 S   0  0  0  0  0  0  0  0  0  0  0  0
   63.8490   34.1810   50.8540 C   0  0  0  0  0  0  0  0  0  0  0  0
   63.3790   32.7590   47.3940 C   0  0  0  0  0  0  0  0  0  0  0  0
   62.5740   31.4820   47.2650 C   0  0  0  0  0  0  0  0  0  0  0  0
   60.3210   29.5290   48.4110 C   0  0  0  0  0  0  0  0  0  0  0  0
   59.5090   28.4200   48.3330 C   0  0  0  0  0  0  0  0  0  0  0  0
   58.6390   28.3360   47.2660 C   0  0  0  0  0  0  0  0  0  0  0  0
   57.8160   27.2970   47.1130 N   0  0  0  0  0  0  0  0  0  0  0  0
   56.1393   22.6396   44.0171 H   0  0  0  0  0  0  0  0  0  0  0  0
   55.7481   23.8161   42.7173 H   0  0  0  0  0  0  0  0  0  0  0  0
   57.3337   22.9720   42.7173 H   0  0  0  0  0  0  0  0  0  0  0  0
   58.0696   24.1519   44.6576 H   0  0  0  0  0  0  0  0  0  0  0  0
   57.2936   25.3702   43.4830 H   0  0  0  0  0  0  0  0  0  0  0  0
   55.3494   24.9898   44.7952 H   0  0  0  0  0  0  0  0  0  0  0  0
   56.9802   24.6268   46.0048 H   0  0  0  0  0  0  0  0  0  0  0  0
   56.2640   28.1230   44.3350 H   0  0  0  0  0  0  0  0  0  0  0  0
   56.3460   31.4353   43.4426 H   0  0  0  0  0  0  0  0  0  0  0  0
   55.9417   31.0593   45.1227 H   0  0  0  0  0  0  0  0  0  0  0  0
   56.6823   32.4864   46.8235 H   0  0  0  0  0  0  0  0  0  0  0  0
   57.9617   34.4551   47.6285 H   0  0  0  0  0  0  0  0  0  0  0  0
   59.6108   35.5479   46.0870 H   0  0  0  0  0  0  0  0  0  0  0  0
   59.9195   34.6411   43.8135 H   0  0  0  0  0  0  0  0  0  0  0  0
   58.6403   32.6706   43.0103 H   0  0  0  0  0  0  0  0  0  0  0  0
   59.3951   31.2287   45.6754 H   0  0  0  0  0  0  0  0  0  0  0  0
   60.5914   33.5932   47.2205 H   0  0  0  0  0  0  0  0  0  0  0  0
   59.9031   32.7756   48.7332 H   0  0  0  0  0  0  0  0  0  0  0  0
   61.6638   34.7754   48.7834 H   0  0  0  0  0  0  0  0  0  0  0  0
   61.5027   33.4794   50.0296 H   0  0  0  0  0  0  0  0  0  0  0  0
   65.5023   32.0640   48.8287 H   0  0  0  0  0  0  0  0  0  0  0  0
   67.2052   32.3947   50.8221 H   0  0  0  0  0  0  0  0  0  0  0  0
   62.9477   34.7789   51.0545 H   0  0  0  0  0  0  0  0  0  0  0  0
   63.0656   33.4876   46.6318 H   0  0  0  0  0  0  0  0  0  0  0  0
   64.4535   32.5759   47.2461 H   0  0  0  0  0  0  0  0  0  0  0  0
   62.6161   31.1375   46.2212 H   0  0  0  0  0  0  0  0  0  0  0  0
   63.0068   30.7326   47.9441 H   0  0  0  0  0  0  0  0  0  0  0  0
   61.0147   29.5991   49.2618 H   0  0  0  0  0  0  0  0  0  0  0  0
   59.5525   27.6282   49.0953 H   0  0  0  0  0  0  0  0  0  0  0  0
   57.8110   26.5240   47.7980 H   0  0  0  0  0  0  0  0  0  0  0  0
  1  2  1  0
  2  3  1  0
  3  4  1  0
  4  5  2  0
  5  6  1  0
  6  7  1  0
  7  8  2  0
  8  9  1  0
  9 10  1  0
 10 11  2  0
 11 12  1  0
 12 13  2  0
 13 14  1  0
 14 15  2  0
  7 16  1  0
 16 17  2  0
 17 18  1  0
 18 19  1  0
 19 20  1  0
 20 21  1  0
 21 22  1  0
 22 23  1  0
 23 24  1  0
 24 25  2  0
 25 26  1  0
 26 27  1  0
 22 28  1  0
 28 29  1  0
 18 30  2  0
 30 31  1  0
 31 32  2  0
 32 33  1  0
 33  5  1  0
 15 10  1  0
 32 16  1  0
 29 19  1  0
 27 23  2  0
  1 34  1  0
  1 35  1  0
  1 36  1  0
  2 37  1  0
  2 38  1  0
  3 39  1  0
  3 40  1  0
  6 41  1  0
  9 42  1  0
  9 43  1  0
 11 44  1  0
 12 45  1  0
 13 46  1  0
 14 47  1  0
 15 48  1  0
 17 49  1  0
 20 50  1  0
 20 51  1  0
 21 52  1  0
 21 53  1  0
 24 54  1  0
 25 55  1  0
 27 56  1  0
 28 57  1  0
 28 58  1  0
 29 59  1  0
 29 60  1  0
 30 61  1  0
 31 62  1  0
 33 63  1  0
M  END
>  <smiles>  (97) 
CCCN=c1[nH]c(=NCc2ccccc2)c2cc(N3CCN(c4ccsc4)CC3)ccc2[nH]1

>  <score_type>  (97) 
oracle

>  <origin>  (97) 
adg

>  <m_score__min__energy>  (97) 
-9.8599999999999994

>  <m_primary>  (97) 
energy

$$$$
97:0
     RDKit          3D

 44 46  0  0  0  0  0  0  0  0999 V2000
   55.1450   26.6790   45.9970 O   0  0  0  0  0  0  0  0  0  0  0  0
   56.3880   26.6020   45.7980 C   0  0  0  0  0  0  0  0  0  0  0  0
   57.2290   27.7340   46.0590 N   0  0  0  0  0  0  0  0  0  0  0  0
   57.2730   28.9560   45.3060 C   0  0  0  0  0  0  0  0  0  0  0  0
   56.7180   28.9700   44.0230 C   0  0  0  0  0  0  0  0  0  0  0  0
   56.7350   30.1390   43.2600 C   0  0  0  0  0  0  0  0  0  0  0  0
   57.2870   31.3110   43.7810 C   0  0  0  0  0  0  0  0  0  0  0  0
   57.8150   31.3310   45.0840 C   0  0  0  0  0  0  0  0  0  0  0  0
   58.3950   32.5700   45.6570 C   0  0  0  0  0  0  0  0  0  0  0  0
   58.5920   33.5640   44.9070 O   0  0  0  0  0  0  0  0  0  0  0  0
   58.7500   32.6510   47.0490 N   0  0  0  0  0  0  0  0  0  0  0  0
   59.2680   33.8760   47.6530 C   0  0  0  0  0  0  0  0  0  0  0  0
   60.7700   33.8340   47.6920 C   0  0  0  0  0  0  0  0  0  0  0  0
   61.4540   33.8430   48.9200 C   0  0  0  0  0  0  0  0  0  0  0  0
   62.8520   33.8450   48.9470 C   0  0  0  0  0  0  0  0  0  0  0  0
   63.5760   33.8420   47.7520 C   0  0  0  0  0  0  0  0  0  0  0  0
   62.9040   33.8390   46.5260 C   0  0  0  0  0  0  0  0  0  0  0  0
   61.5050   33.8380   46.4950 C   0  0  0  0  0  0  0  0  0  0  0  0
   57.8060   30.1440   45.8410 C   0  0  0  0  0  0  0  0  0  0  0  0
   56.9850   25.3230   45.3450 C   0  0  0  0  0  0  0  0  0  0  0  0
   58.2520   24.9260   45.8070 C   0  0  0  0  0  0  0  0  0  0  0  0
   58.8140   23.7210   45.3850 C   0  0  0  0  0  0  0  0  0  0  0  0
   58.1210   22.8930   44.5010 C   0  0  0  0  0  0  0  0  0  0  0  0
   56.8520   23.2620   44.0260 C   0  0  0  0  0  0  0  0  0  0  0  0
   56.1410   22.4050   43.1140 N   0  0  0  0  0  0  0  0  0  0  0  0
   56.4000   21.1850   43.0530 O   0  0  0  0  0  0  0  0  0  0  0  0
   55.1510   22.9120   42.3040 O   0  0  0  0  0  0  0  0  0  0  0  0
   56.2920   24.4810   44.4540 C   0  0  0  0  0  0  0  0  0  0  0  0
   56.2656   28.0552   43.6125 H   0  0  0  0  0  0  0  0  0  0  0  0
   56.3120   30.1368   42.2446 H   0  0  0  0  0  0  0  0  0  0  0  0
   57.3089   32.2243   43.1683 H   0  0  0  0  0  0  0  0  0  0  0  0
   58.7830   31.7820   47.6260 H   0  0  0  0  0  0  0  0  0  0  0  0
   58.9430   34.7417   47.0572 H   0  0  0  0  0  0  0  0  0  0  0  0
   58.8822   33.9639   48.6794 H   0  0  0  0  0  0  0  0  0  0  0  0
   60.8875   33.8485   49.8629 H   0  0  0  0  0  0  0  0  0  0  0  0
   63.3826   33.8489   49.9105 H   0  0  0  0  0  0  0  0  0  0  0  0
   64.6757   33.8420   47.7758 H   0  0  0  0  0  0  0  0  0  0  0  0
   63.4750   33.8374   45.5858 H   0  0  0  0  0  0  0  0  0  0  0  0
   60.9786   33.8404   45.5291 H   0  0  0  0  0  0  0  0  0  0  0  0
   58.2194   30.1449   46.8603 H   0  0  0  0  0  0  0  0  0  0  0  0
   58.8044   25.5705   46.5066 H   0  0  0  0  0  0  0  0  0  0  0  0
   59.8075   23.4223   45.7506 H   0  0  0  0  0  0  0  0  0  0  0  0
   58.5719   21.9445   44.1739 H   0  0  0  0  0  0  0  0  0  0  0  0
   55.2990   24.7799   44.0871 H   0  0  0  0  0  0  0  0  0  0  0  0
  1  2  2  0
  2  3  1  0
  3  4  1  0
  4  5  2  0
  5  6  1  0
  6  7  2  0
  7  8  1  0
  8  9  1  0
  9 10  2  0
  9 11  1  0
 11 12  1  0
 12 13  1  0
 13 14  2  0
 14 15  1  0
 15 16  2  0
 16 17  1  0
 17 18  2  0
  8 19  2  0
  2 20  1  0
 20 21  2  0
 21 22  1  0
 22 23  2  0
 23 24  1  0
 24 25  1  0
 25 26  2  0
 25 27  1  0
 24 28  2  0
 19  4  1  0
 28 20  1  0
 18 13  1  0
  5 29  1  0
  6 30  1  0
  7 31  1  0
 11 32  1  0
 12 33  1  0
 12 34  1  0
 14 35  1  0
 15 36  1  0
 16 37  1  0
 17 38  1  0
 18 39  1  0
 19 40  1  0
 21 41  1  0
 22 42  1  0
 23 43  1  0
 28 44  1  0
M  CHG  3   3  -1  25   1  27  -1
M  END
>  <UniqueID>  (98) 
86

>  <SMILES>  (98) 
O=C([N-]c1cccc(C(=O)NCc2ccccc2)c1)c1cccc([N+](=O)[O-])c1

>  <Energy>  (98) 
52.86550613591538

>  <Genealogy>  (98) 
O=C([N-]c1cccc(C(=O)NCc2ccccc2)c1)c1cccc([N+](=O)[O-])c1 (protonated)
O=C([N-]c1cccc(C(=O)NCc2ccccc2)c1)c1cccc([N+](=O)[O-])c1 (3D coordinates assigned)
O=C([N-]c1cccc(C(=O)NCc2ccccc2)c1)c1cccc([N+](=O)[O-])c1 (optimized conformer: 52.86550613591538 kcal/mol)

>  <smiles>  (98) 
O=C(NCc1ccccc1)c1cccc(NC(=O)c2cccc([N+](=O)[O-])c2)c1

>  <score_type>  (98) 
oracle

>  <origin>  (98) 
adg

>  <m_score__min__energy>  (98) 
-11.460000000000001

>  <m_primary>  (98) 
energy

$$$$
