0:0
     RDKit          3D

 27 28  0  0  1  0  0  0  0  0999 V2000
   57.3320   32.0570   41.4900 C   0  0  0  0  0  0  0  0  0  0  0  0
   57.0370   31.2210   42.4720 C   0  0  0  0  0  0  0  0  0  0  0  0
   56.3060   30.0970   42.3620 N   0  0  0  0  0  0  0  0  0  0  0  0
   56.2370   29.5380   43.5680 N   0  0  0  0  0  0  0  0  0  0  0  0
   56.9090   30.2770   44.4630 C   0  0  0  0  0  0  0  0  0  0  0  0
   57.0050   29.9770   45.6770 O   0  0  0  0  0  0  0  0  0  0  0  0
   57.4290   31.3550   43.7920 C   0  0  0  0  0  0  0  0  0  0  0  0
   57.6110   33.4970   44.9720 C   0  0  0  0  0  0  0  0  0  0  0  0
   58.4350   34.4740   45.3560 C   0  0  0  0  0  0  0  0  0  0  0  0
   58.1550   32.3130   44.3310 C   0  0  0  0  0  0  0  0  0  0  0  0
   59.4820   34.3060   46.3380 C   0  0  0  0  0  0  0  0  0  0  0  0
   60.7490   33.8790   46.0810 C   0  0  0  0  0  0  0  0  0  0  0  0
   61.6680   33.7560   47.1010 C   0  0  0  0  0  0  0  0  0  0  0  0
   61.3250   34.0610   48.4000 C   0  0  0  0  0  0  0  0  0  0  0  0
   60.0570   34.4890   48.6590 N   0  0  0  0  0  0  0  0  0  0  0  0
   59.1840   34.6030   47.6700 C   0  0  0  0  0  0  0  0  0  0  0  0
   57.9402   32.9508   41.6927 H   0  0  0  0  0  0  0  0  0  0  0  0
   56.9690   31.8583   40.4708 H   0  0  0  0  0  0  0  0  0  0  0  0
   55.8540   29.6960   41.4980 H   0  0  0  0  0  0  0  0  0  0  0  0
   55.7230   28.6440   43.7660 H   0  0  0  0  0  0  0  0  0  0  0  0
   56.5277   33.5879   45.1398 H   0  0  0  0  0  0  0  0  0  0  0  0
   58.3099   35.4662   44.8978 H   0  0  0  0  0  0  0  0  0  0  0  0
   59.2494   32.2088   44.2929 H   0  0  0  0  0  0  0  0  0  0  0  0
   61.0419   33.6300   45.0504 H   0  0  0  0  0  0  0  0  0  0  0  0
   62.6875   33.4102   46.8751 H   0  0  0  0  0  0  0  0  0  0  0  0
   62.0600   33.9611   49.2123 H   0  0  0  0  0  0  0  0  0  0  0  0
   58.1685   34.9506   47.9105 H   0  0  0  0  0  0  0  0  0  0  0  0
  1  2  2  0
  2  3  1  0
  3  4  1  0
  4  5  1  0
  5  6  2  0
  5  7  1  0
  7  8  2  0
  8  9  1  0
  9 10  2  0
 10 11  1  0
 11 12  2  0
 12 13  1  0
 13 14  2  0
 14 15  1  0
 15 16  2  0
  7  2  1  0
 16 11  1  0
  1 17  1  0
  1 18  1  0
  3 19  1  0
  4 20  1  0
  8 21  1  0
  9 22  1  0
 10 23  1  0
 12 24  1  0
 13 25  1  0
 14 26  1  0
 16 27  1  0
M  END
>  <smiles>  (1) 
C=c1[nH][nH]c(=O)c1=CC=Cc1cccnc1

>  <score_type>  (1) 
oracle

>  <origin>  (1) 
adg

>  <m_score__min__energy>  (1) 
-7.04

>  <m_primary>  (1) 
energy

$$$$
1:0
     RDKit          3D

 67 69  0  0  1  0  0  0  0  0999 V2000
   58.0250   32.3430   41.8130 C   0  0  0  0  0  0  0  0  0  0  0  0
   57.4430   31.6240   42.9760 C   0  0  0  0  0  0  0  0  0  0  0  0
   57.5200   32.1770   44.2550 N   0  0  0  0  0  0  0  0  0  0  0  0
   57.7420   33.5350   44.4760 C   0  0  0  0  0  0  0  0  0  0  0  0
   57.9760   34.0530   45.8160 C   0  0  0  0  0  0  0  0  0  0  0  0
   57.0400   33.8310   46.6740 O   0  0  0  0  0  0  0  0  0  0  0  0
   59.0880   34.7590   46.2970 N   0  0  0  0  0  0  0  0  0  0  0  0
   59.9850   34.3520   47.1130 C   0  0  0  0  0  0  0  0  0  0  0  0
   61.2170   34.0090   46.6560 C   0  0  0  0  0  0  0  0  0  0  0  0
   62.1630   33.5910   47.5410 C   0  0  0  0  0  0  0  0  0  0  0  0
   63.5220   33.1980   47.1360 C   0  0  0  0  0  0  0  0  0  0  0  0
   61.8450   33.5300   48.8520 N   0  0  0  0  0  0  0  0  0  0  0  0
   60.6380   33.8620   49.3250 C   0  0  0  0  0  0  0  0  0  0  0  0
   60.2550   33.8060   50.7530 C   0  0  0  0  0  0  0  0  0  0  0  0
   59.7140   34.2730   48.4360 N   0  0  0  0  0  0  0  0  0  0  0  0
   57.8030   31.2920   45.3280 C   0  0  0  0  0  0  0  0  0  0  0  0
   57.6190   29.8660   45.1090 C   0  0  0  0  0  0  0  0  0  0  0  0
   56.4330   29.4010   45.2230 O   0  0  0  0  0  0  0  0  0  0  0  0
   58.6180   28.9190   44.7750 N   0  0  0  0  0  0  0  0  0  0  0  0
   58.1610   27.5600   44.6250 C   0  0  0  0  0  0  0  0  0  0  0  0
   58.1750   27.0930   43.3070 C   0  0  0  0  0  0  0  0  0  0  0  0
   57.7710   25.8050   43.0270 C   0  0  0  0  0  0  0  0  0  0  0  0
   57.3580   24.9990   44.0790 C   0  0  0  0  0  0  0  0  0  0  0  0
   56.9350   23.6230   43.7330 C   0  0  0  0  0  0  0  0  0  0  0  0
   57.3540   25.4870   45.3810 C   0  0  0  0  0  0  0  0  0  0  0  0
   56.8230   24.4040   46.6470 S   0  0  0  0  0  0  0  0  0  0  0  0
   57.5620   23.0980   46.5990 O   0  0  0  0  0  0  0  0  0  0  0  0
   57.1850   25.0370   47.9770 O   0  0  0  0  0  0  0  0  0  0  0  0
   55.1420   24.1370   46.6060 N   0  0  0  0  0  0  0  0  0  0  0  0
   54.7240   22.8360   46.9810 C   0  0  0  0  0  0  0  0  0  0  0  0
   53.2510   22.6680   46.6660 C   0  0  0  0  0  0  0  0  0  0  0  0
   53.1220   22.7720   45.3040 O   0  0  0  0  0  0  0  0  0  0  0  0
   53.3920   24.0370   44.8490 C   0  0  0  0  0  0  0  0  0  0  0  0
   54.4200   24.8090   45.5910 C   0  0  0  0  0  0  0  0  0  0  0  0
   57.7600   26.7870   45.6700 C   0  0  0  0  0  0  0  0  0  0  0  0
   58.6793   33.1513   42.1716 H   0  0  0  0  0  0  0  0  0  0  0  0
   58.6114   31.6399   41.2032 H   0  0  0  0  0  0  0  0  0  0  0  0
   57.2152   32.7701   41.2032 H   0  0  0  0  0  0  0  0  0  0  0  0
   56.3745   31.4810   42.7570 H   0  0  0  0  0  0  0  0  0  0  0  0
   58.0718   30.7248   43.0542 H   0  0  0  0  0  0  0  0  0  0  0  0
   58.6239   33.8080   43.8779 H   0  0  0  0  0  0  0  0  0  0  0  0
   56.7722   33.9822   44.2124 H   0  0  0  0  0  0  0  0  0  0  0  0
   61.4479   34.0683   45.5822 H   0  0  0  0  0  0  0  0  0  0  0  0
   64.1348   33.0208   48.0321 H   0  0  0  0  0  0  0  0  0  0  0  0
   63.4740   32.2769   46.5366 H   0  0  0  0  0  0  0  0  0  0  0  0
   63.9730   34.0025   46.5366 H   0  0  0  0  0  0  0  0  0  0  0  0
   62.5540   33.2130   49.5470 H   0  0  0  0  0  0  0  0  0  0  0  0
   61.1505   33.9369   51.3782 H   0  0  0  0  0  0  0  0  0  0  0  0
   59.5349   34.6084   50.9712 H   0  0  0  0  0  0  0  0  0  0  0  0
   59.7948   32.8310   50.9712 H   0  0  0  0  0  0  0  0  0  0  0  0
   58.8554   31.4458   45.6088 H   0  0  0  0  0  0  0  0  0  0  0  0
   57.0587   31.5482   46.0964 H   0  0  0  0  0  0  0  0  0  0  0  0
   59.6080   29.1970   44.6400 H   0  0  0  0  0  0  0  0  0  0  0  0
   58.5085   27.7537   42.4932 H   0  0  0  0  0  0  0  0  0  0  0  0
   57.7758   25.4251   41.9947 H   0  0  0  0  0  0  0  0  0  0  0  0
   56.7590   23.0506   44.6557 H   0  0  0  0  0  0  0  0  0  0  0  0
   56.0074   23.6620   43.1431 H   0  0  0  0  0  0  0  0  0  0  0  0
   57.7243   23.1341   43.1431 H   0  0  0  0  0  0  0  0  0  0  0  0
   55.3060   22.0885   46.4220 H   0  0  0  0  0  0  0  0  0  0  0  0
   54.8865   22.6955   48.0598 H   0  0  0  0  0  0  0  0  0  0  0  0
   52.9014   21.6817   47.0052 H   0  0  0  0  0  0  0  0  0  0  0  0
   52.6483   23.4321   47.1788 H   0  0  0  0  0  0  0  0  0  0  0  0
   53.7293   23.9506   43.8056 H   0  0  0  0  0  0  0  0  0  0  0  0
   52.4559   24.5983   44.9854 H   0  0  0  0  0  0  0  0  0  0  0  0
   55.1511   25.1746   44.8549 H   0  0  0  0  0  0  0  0  0  0  0  0
   53.8532   25.5878   46.1222 H   0  0  0  0  0  0  0  0  0  0  0  0
   57.7566   27.1728   46.7001 H   0  0  0  0  0  0  0  0  0  0  0  0
  1  2  1  0
  2  3  1  0
  3  4  1  0
  4  5  1  0
  5  6  2  0
  5  7  1  0
  7  8  2  0
  8  9  1  0
  9 10  2  0
 10 11  1  0
 10 12  1  0
 12 13  1  0
 13 14  1  0
 13 15  2  0
  3 16  1  0
 16 17  1  0
 17 18  2  0
 17 19  1  0
 19 20  1  0
 20 21  2  0
 21 22  1  0
 22 23  2  0
 23 24  1  0
 23 25  1  0
 25 26  1  0
 26 27  2  0
 26 28  2  0
 26 29  1  0
 29 30  1  0
 30 31  1  0
 31 32  1  0
 32 33  1  0
 33 34  1  0
 25 35  2  0
 15  8  1  0
 35 20  1  0
 34 29  1  0
  1 36  1  0
  1 37  1  0
  1 38  1  0
  2 39  1  0
  2 40  1  0
  4 41  1  0
  4 42  1  0
  9 43  1  0
 11 44  1  0
 11 45  1  0
 11 46  1  0
 12 47  1  0
 14 48  1  0
 14 49  1  0
 14 50  1  0
 16 51  1  0
 16 52  1  0
 19 53  1  0
 21 54  1  0
 22 55  1  0
 24 56  1  0
 24 57  1  0
 24 58  1  0
 30 59  1  0
 30 60  1  0
 31 61  1  0
 31 62  1  0
 33 63  1  0
 33 64  1  0
 34 65  1  0
 34 66  1  0
 35 67  1  0
M  END
>  <smiles>  (2) 
CCN(CC(=O)N=c1cc(C)[nH]c(C)n1)CC(=O)Nc1ccc(C)c(S(=O)(=O)N2CCOCC2)c1

>  <score_type>  (2) 
oracle

>  <origin>  (2) 
adg

>  <m_score__min__energy>  (2) 
-10.67

>  <m_primary>  (2) 
energy

$$$$
2:0
     RDKit          3D

 28 29  0  0  0  0  0  0  0  0999 V2000
   54.5090   26.1260   45.9920 N   0  0  0  0  0  0  0  0  0  0  0  0
   55.9290   25.1410   46.0070 S   0  0  0  0  0  0  0  0  0  0  0  0
   55.8800   24.1920   44.8430 O   0  0  0  0  0  0  0  0  0  0  0  0
   55.9940   24.3480   47.2820 O   0  0  0  0  0  0  0  0  0  0  0  0
   57.3420   26.1400   45.8590 N   0  0  0  0  0  0  0  0  0  0  0  0
   57.3980   27.3270   45.3260 C   0  0  0  0  0  0  0  0  0  0  0  0
   58.5490   27.8140   44.6780 C   0  0  0  0  0  0  0  0  0  0  0  0
   58.5390   29.0990   44.1300 C   0  0  0  0  0  0  0  0  0  0  0  0
   57.3860   29.8910   44.2170 C   0  0  0  0  0  0  0  0  0  0  0  0
   57.3760   31.2900   43.6640 C   0  0  0  0  0  0  0  0  0  0  0  0
   57.9390   32.2520   44.6750 C   0  0  0  0  0  0  0  0  0  0  0  0
   58.4740   33.4830   44.2680 C   0  0  0  0  0  0  0  0  0  0  0  0
   59.0260   34.3520   45.2110 C   0  0  0  0  0  0  0  0  0  0  0  0
   59.0450   33.9750   46.5590 C   0  0  0  0  0  0  0  0  0  0  0  0
   59.6850   34.9710   47.6870 S   0  0  0  0  0  0  0  0  0  0  0  0
   58.5330   32.7740   46.9360 N   0  0  0  0  0  0  0  0  0  0  0  0
   57.9900   31.9120   46.0360 C   0  0  0  0  0  0  0  0  0  0  0  0
   56.2650   29.3760   44.8790 C   0  0  0  0  0  0  0  0  0  0  0  0
   56.2980   28.1240   45.4060 N   0  0  0  0  0  0  0  0  0  0  0  0
   54.7630   27.0350   46.4400 H   0  0  0  0  0  0  0  0  0  0  0  0
   59.4499   27.1872   44.6037 H   0  0  0  0  0  0  0  0  0  0  0  0
   59.4373   29.4897   43.6296 H   0  0  0  0  0  0  0  0  0  0  0  0
   57.9874   31.3240   42.7502 H   0  0  0  0  0  0  0  0  0  0  0  0
   56.3396   31.5775   43.4331 H   0  0  0  0  0  0  0  0  0  0  0  0
   58.4586   33.7641   43.2046 H   0  0  0  0  0  0  0  0  0  0  0  0
   59.4411   35.3215   44.8984 H   0  0  0  0  0  0  0  0  0  0  0  0
   57.5894   30.9453   46.3752 H   0  0  0  0  0  0  0  0  0  0  0  0
   55.3549   29.9867   44.9728 H   0  0  0  0  0  0  0  0  0  0  0  0
  1  2  1  0
  2  3  2  0
  2  4  2  0
  2  5  1  0
  5  6  2  3
  6  7  1  0
  7  8  2  0
  8  9  1  0
  9 10  1  0
 10 11  1  0
 11 12  1  0
 12 13  2  0
 13 14  1  0
 14 15  2  0
 14 16  1  0
 16 17  1  0
  9 18  2  0
 18 19  1  0
 19  6  1  0
 17 11  2  0
  1 20  1  0
  7 21  1  0
  8 22  1  0
 10 23  1  0
 10 24  1  0
 12 25  1  0
 13 26  1  0
 17 27  1  0
 18 28  1  0
M  CHG  3   1  -1  16  -1  19  -1
M  END
>  <UniqueID>  (3) 
1

>  <SMILES>  (3) 
[NH-]S(=O)(=O)N=c1ccc(Cc2ccc(=S)[n-]c2)c[n-]1

>  <Energy>  (3) 
31.915237344219772

>  <Genealogy>  (3) 
[NH-]S(=O)(=O)N=c1ccc(Cc2ccc(=S)[n-]c2)c[n-]1 (protonated)
[NH-]S(=O)(=O)N=c1ccc(Cc2ccc(=S)[n-]c2)c[n-]1 (3D coordinates assigned)
[NH-]S(=O)(=O)N=c1ccc(Cc2ccc(=S)[n-]c2)c[n-]1 (optimized conformer: 31.915237344219772 kcal/mol)

>  <smiles>  (3) 
NS(=O)(=O)N=c1ccc(Cc2ccc(=S)[nH]c2)c[nH]1

>  <score_type>  (3) 
oracle

>  <origin>  (3) 
adg

>  <m_score__min__energy>  (3) 
-12.83

>  <m_primary>  (3) 
energy

$$$$
3:0
     RDKit          3D

 50 53  0  0  1  0  0  0  0  0999 V2000
   54.7630   26.2910   45.9940 O   0  0  0  0  0  0  0  0  0  0  0  0
   55.8730   25.5050   45.6460 C   0  0  0  0  0  0  0  0  0  0  0  0
   55.7410   24.1830   45.2910 C   0  0  0  0  0  0  0  0  0  0  0  0
   56.8410   23.4240   44.9520 C   0  0  0  0  0  0  0  0  0  0  0  0
   58.0750   24.0370   44.9810 C   0  0  0  0  0  0  0  0  0  0  0  0
   58.2000   25.3820   45.3420 C   0  0  0  0  0  0  0  0  0  0  0  0
   57.1190   26.1460   45.6810 C   0  0  0  0  0  0  0  0  0  0  0  0
   57.2000   27.5780   46.0730 C   0  0  0  0  0  0  0  0  0  0  0  0
   59.0060   33.8610   48.3880 N   0  0  0  0  0  0  0  0  0  0  0  0
   58.8840   33.7950   47.1150 C   0  0  0  0  0  0  0  0  0  0  0  0
   59.3860   34.8860   46.3980 C   0  0  0  0  0  0  0  0  0  0  0  0
   57.5730   31.5600   44.5510 C   0  0  0  0  0  0  0  0  0  0  0  0
   56.7230   30.5170   42.6060 C   0  0  0  0  0  0  0  0  0  0  0  0
   58.6840   33.7700   44.4300 C   0  0  0  0  0  0  0  0  0  0  0  0
   59.2890   34.8840   45.0250 C   0  0  0  0  0  0  0  0  0  0  0  0
   57.2180   30.4210   45.2350 C   0  0  0  0  0  0  0  0  0  0  0  0
   56.6220   29.3580   44.5790 C   0  0  0  0  0  0  0  0  0  0  0  0
   56.3090   28.3210   45.2530 N   0  0  0  0  0  0  0  0  0  0  0  0
   59.8670   33.0130   49.1420 C   0  0  0  0  0  0  0  0  0  0  0  0
   59.8890   31.6000   48.6280 C   0  0  0  0  0  0  0  0  0  0  0  0
   60.7700   31.1790   47.6600 C   0  0  0  0  0  0  0  0  0  0  0  0
   60.7730   29.8660   47.1940 C   0  0  0  0  0  0  0  0  0  0  0  0
   59.8860   28.9460   47.6980 C   0  0  0  0  0  0  0  0  0  0  0  0
   59.9040   27.6650   47.2310 F   0  0  0  0  0  0  0  0  0  0  0  0
   59.0030   29.3380   48.6590 C   0  0  0  0  0  0  0  0  0  0  0  0
   59.0070   30.6400   49.1140 C   0  0  0  0  0  0  0  0  0  0  0  0
   56.3760   29.4030   43.2780 N   0  0  0  0  0  0  0  0  0  0  0  0
   57.3130   31.5800   43.2290 N   0  0  0  0  0  0  0  0  0  0  0  0
   58.2020   32.7160   45.1690 C   0  0  0  0  0  0  0  0  0  0  0  0
   58.3120   32.7530   46.4950 N   0  0  0  0  0  0  0  0  0  0  0  0
   54.7810   27.2950   46.0010 H   0  0  0  0  0  0  0  0  0  0  0  0
   54.7416   23.7236   45.2773 H   0  0  0  0  0  0  0  0  0  0  0  0
   56.7373   22.3663   44.6683 H   0  0  0  0  0  0  0  0  0  0  0  0
   58.9737   23.4604   44.7166 H   0  0  0  0  0  0  0  0  0  0  0  0
   59.2002   25.8396   45.3535 H   0  0  0  0  0  0  0  0  0  0  0  0
   56.9134   27.6904   47.1291 H   0  0  0  0  0  0  0  0  0  0  0  0
   58.2281   27.9468   45.9429 H   0  0  0  0  0  0  0  0  0  0  0  0
   59.8513   35.7329   46.9235 H   0  0  0  0  0  0  0  0  0  0  0  0
   58.5914   33.7373   43.3344 H   0  0  0  0  0  0  0  0  0  0  0  0
   59.6701   35.7209   44.4214 H   0  0  0  0  0  0  0  0  0  0  0  0
   57.4100   30.3540   46.3160 H   0  0  0  0  0  0  0  0  0  0  0  0
   60.8882   33.4194   49.0970 H   0  0  0  0  0  0  0  0  0  0  0  0
   59.4844   32.9846   50.1729 H   0  0  0  0  0  0  0  0  0  0  0  0
   61.4910   31.8973   47.2427 H   0  0  0  0  0  0  0  0  0  0  0  0
   61.4907   29.5639   46.4170 H   0  0  0  0  0  0  0  0  0  0  0  0
   58.2853   28.6143   49.0728 H   0  0  0  0  0  0  0  0  0  0  0  0
   58.2849   30.9307   49.8912 H   0  0  0  0  0  0  0  0  0  0  0  0
   55.9310   28.5980   42.8120 H   0  0  0  0  0  0  0  0  0  0  0  0
   56.5259   30.5727   41.5252 H   0  0  0  0  0  0  0  0  0  0  0  0
   57.9550   31.9710   47.0440 H   0  0  0  0  0  0  0  0  0  0  0  0
  1  2  1  0
  2  3  2  0
  3  4  1  0
  4  5  2  0
  5  6  1  0
  6  7  2  0
  7  8  1  0
  8  9  1  0
  9 10  2  0
 10 11  1  0
 11 12  2  0
 12 13  1  0
 13 14  2  0
 14 15  1  0
 15 16  2  0
 16 17  1  0
 17 18  2  0
 18 19  1  0
 19 20  1  0
 20 21  2  0
 21 22  1  0
 22 23  2  0
 23 24  1  0
 23 25  1  0
 25 26  2  0
 17 27  1  0
 12 28  1  0
 28 29  2  0
 29 30  1  0
  7  2  1  0
 30 10  1  0
 27 13  1  0
 26 20  1  0
  1 31  1  0
  3 32  1  0
  4 33  1  0
  5 34  1  0
  6 35  1  0
  8 36  1  0
  8 37  1  0
 11 38  1  0
 14 39  1  0
 15 40  1  0
 16 41  1  0
 19 42  1  0
 19 43  1  0
 21 44  1  0
 22 45  1  0
 25 46  1  0
 26 47  1  0
 27 48  1  0
 29 49  1  0
 30 50  1  0
M  END
>  <smiles>  (4) 
Oc1ccccc1CN=c1cc(-c2cccc(=NCc3ccc(F)cc3)[nH]2)nc[nH]1

>  <score_type>  (4) 
oracle

>  <origin>  (4) 
adg

>  <m_score__min__energy>  (4) 
-10.66

>  <m_primary>  (4) 
energy

$$$$
4:0
     RDKit          3D

 37 39  0  0  0  0  0  0  0  0999 V2000
   55.4860   29.3300   45.2230 O   0  0  0  0  0  0  0  0  0  0  0  0
   56.5180   28.6040   45.2510 C   0  0  0  0  0  0  0  0  0  0  0  0
   56.4000   27.2600   45.6170 C   0  0  0  0  0  0  0  0  0  0  0  0
   55.1470   26.7240   45.9000 O   0  0  0  0  0  0  0  0  0  0  0  0
   57.5470   26.4620   45.6800 C   0  0  0  0  0  0  0  0  0  0  0  0
   57.4760   25.0790   46.0700 N   0  0  0  0  0  0  0  0  0  0  0  0
   57.1250   24.7190   47.4490 C   0  0  0  0  0  0  0  0  0  0  0  0
   55.8540   23.8530   47.4740 C   0  0  0  0  0  0  0  0  0  0  0  0
   55.7610   22.8610   46.2930 C   0  0  0  0  0  0  0  0  0  0  0  0
   57.0970   22.6770   45.5640 C   0  0  0  0  0  0  0  0  0  0  0  0
   57.6150   24.0280   45.0500 C   0  0  0  0  0  0  0  0  0  0  0  0
   58.7780   27.0400   45.3630 C   0  0  0  0  0  0  0  0  0  0  0  0
   58.8440   28.3500   45.0080 N   0  0  0  0  0  0  0  0  0  0  0  0
   57.7500   29.1220   44.9440 N   0  0  0  0  0  0  0  0  0  0  0  0
   57.8950   30.5030   44.5580 C   0  0  0  0  0  0  0  0  0  0  0  0
   58.2850   31.4730   45.4990 C   0  0  0  0  0  0  0  0  0  0  0  0
   58.4090   32.8130   45.1200 C   0  0  0  0  0  0  0  0  0  0  0  0
   58.1400   33.1960   43.8030 C   0  0  0  0  0  0  0  0  0  0  0  0
   57.7430   32.2410   42.8640 C   0  0  0  0  0  0  0  0  0  0  0  0
   57.6170   30.9000   43.2390 C   0  0  0  0  0  0  0  0  0  0  0  0
   57.9558   24.1552   47.8984 H   0  0  0  0  0  0  0  0  0  0  0  0
   56.9384   25.6404   48.0202 H   0  0  0  0  0  0  0  0  0  0  0  0
   55.8420   23.2793   48.4124 H   0  0  0  0  0  0  0  0  0  0  0  0
   54.9955   24.5358   47.3915 H   0  0  0  0  0  0  0  0  0  0  0  0
   55.4343   21.8843   46.6795 H   0  0  0  0  0  0  0  0  0  0  0  0
   55.0434   23.2747   45.5692 H   0  0  0  0  0  0  0  0  0  0  0  0
   57.8332   22.2469   46.2590 H   0  0  0  0  0  0  0  0  0  0  0  0
   56.9473   22.0025   44.7081 H   0  0  0  0  0  0  0  0  0  0  0  0
   58.6773   23.9261   44.7835 H   0  0  0  0  0  0  0  0  0  0  0  0
   57.0184   24.3164   44.1720 H   0  0  0  0  0  0  0  0  0  0  0  0
   59.6953   26.4342   45.4007 H   0  0  0  0  0  0  0  0  0  0  0  0
   59.7820   28.7460   44.7710 H   0  0  0  0  0  0  0  0  0  0  0  0
   58.4933   31.1760   46.5375 H   0  0  0  0  0  0  0  0  0  0  0  0
   58.7186   33.5666   45.8590 H   0  0  0  0  0  0  0  0  0  0  0  0
   58.2410   34.2502   43.5057 H   0  0  0  0  0  0  0  0  0  0  0  0
   57.5293   32.5443   41.8285 H   0  0  0  0  0  0  0  0  0  0  0  0
   57.2987   30.1520   42.4979 H   0  0  0  0  0  0  0  0  0  0  0  0
  1  2  2  0
  2  3  1  0
  3  4  1  0
  3  5  2  0
  5  6  1  0
  6  7  1  0
  7  8  1  0
  8  9  1  0
  9 10  1  0
 10 11  1  0
  5 12  1  0
 12 13  2  0
 13 14  1  0
 14 15  1  0
 15 16  2  0
 16 17  1  0
 17 18  2  0
 18 19  1  0
 19 20  2  0
 14  2  1  0
 20 15  1  0
 11  6  1  0
  7 21  1  0
  7 22  1  0
  8 23  1  0
  8 24  1  0
  9 25  1  0
  9 26  1  0
 10 27  1  0
 10 28  1  0
 11 29  1  0
 11 30  1  0
 12 31  1  0
 13 32  1  0
 16 33  1  0
 17 34  1  0
 18 35  1  0
 19 36  1  0
 20 37  1  0
M  CHG  2   4  -1  13   1
M  END
>  <UniqueID>  (5) 
2

>  <SMILES>  (5) 
O=c1c([O-])c(N2CCCCC2)c[nH+]n1-c1ccccc1

>  <Energy>  (5) 
53.361594715017006

>  <Genealogy>  (5) 
O=c1c([O-])c(N2CCCCC2)c[nH+]n1-c1ccccc1 (protonated)
O=c1c([O-])c(N2CCCCC2)c[nH+]n1-c1ccccc1 (3D coordinates assigned)
O=c1c([O-])c(N2CCCCC2)c[nH+]n1-c1ccccc1 (nonaromatic ring conformer: 53.361594715017006 kcal/mol)

>  <smiles>  (5) 
O=c1c(O)c(N2CCCCC2)cnn1-c1ccccc1

>  <score_type>  (5) 
oracle

>  <origin>  (5) 
adg

>  <m_score__min__energy>  (5) 
-9.0899999999999999

>  <m_primary>  (5) 
energy

$$$$
5:0
     RDKit          3D

 45 46  0  0  0  0  0  0  0  0999 V2000
   55.5230   28.2000   45.0610 H   0  0  0  0  0  0  0  0  0  0  0  0
   56.0790   27.5180   45.6240 N   0  0  0  0  0  0  0  0  0  0  0  0
   57.6790   27.5010   44.9680 S   0  0  0  0  0  0  0  0  0  0  0  0
   57.6640   28.1930   43.6340 O   0  0  0  0  0  0  0  0  0  0  0  0
   58.1340   26.0800   44.7770 O   0  0  0  0  0  0  0  0  0  0  0  0
   58.7810   28.3250   46.0710 C   0  0  0  0  0  0  0  0  0  0  0  0
   58.5350   28.2910   47.4480 C   0  0  0  0  0  0  0  0  0  0  0  0
   57.6540   27.7571   47.8338 H   0  0  0  0  0  0  0  0  0  0  0  0
   59.4030   28.9320   48.3350 C   0  0  0  0  0  0  0  0  0  0  0  0
   59.1985   28.9002   49.4154 H   0  0  0  0  0  0  0  0  0  0  0  0
   60.5330   29.6160   47.8620 C   0  0  0  0  0  0  0  0  0  0  0  0
   61.4110   30.2480   48.8120 N   0  0  0  0  0  0  0  0  0  0  0  0
   61.5780   29.7780   49.7310 H   0  0  0  0  0  0  0  0  0  0  0  0
   62.2000   31.7770   48.5720 S   0  0  0  0  0  0  0  0  0  0  0  0
   62.7570   32.2870   49.8710 O   0  0  0  0  0  0  0  0  0  0  0  0
   63.3330   31.5750   47.6070 O   0  0  0  0  0  0  0  0  0  0  0  0
   61.0780   32.9400   47.8850 C   0  0  0  0  0  0  0  0  0  0  0  0
   60.4270   32.8730   46.3340 S   0  0  0  0  0  0  0  0  0  0  0  0
   59.5480   34.2870   46.5610 C   0  0  0  0  0  0  0  0  0  0  0  0
   58.7420   34.7750   45.6670 N   0  0  0  0  0  0  0  0  0  0  0  0
   57.4490   34.2520   45.3280 C   0  0  0  0  0  0  0  0  0  0  0  0
   56.6570   34.8980   44.5900 O   0  0  0  0  0  0  0  0  0  0  0  0
   57.0270   32.9250   45.8810 C   0  0  0  0  0  0  0  0  0  0  0  0
   55.9385   32.8183   45.7635 H   0  0  0  0  0  0  0  0  0  0  0  0
   57.3112   32.8869   46.9430 H   0  0  0  0  0  0  0  0  0  0  0  0
   57.7220   31.7690   45.1550 C   0  0  0  0  0  0  0  0  0  0  0  0
   58.1176   31.0654   45.9023 H   0  0  0  0  0  0  0  0  0  0  0  0
   58.5320   32.1883   44.5401 H   0  0  0  0  0  0  0  0  0  0  0  0
   56.7800   31.0360   44.2490 C   0  0  0  0  0  0  0  0  0  0  0  0
   55.8770   30.3040   44.7410 O   0  0  0  0  0  0  0  0  0  0  0  0
   56.8890   31.2010   42.8650 O   0  0  0  0  0  0  0  0  0  0  0  0
   57.8320   32.0780   42.2510 C   0  0  0  0  0  0  0  0  0  0  0  0
   58.8152   31.5858   42.2194 H   0  0  0  0  0  0  0  0  0  0  0  0
   57.8877   33.0053   42.8401 H   0  0  0  0  0  0  0  0  0  0  0  0
   57.4010   32.4250   40.8320 C   0  0  0  0  0  0  0  0  0  0  0  0
   56.5446   33.1145   40.8672 H   0  0  0  0  0  0  0  0  0  0  0  0
   58.2368   32.9052   40.3020 H   0  0  0  0  0  0  0  0  0  0  0  0
   57.1103   31.5060   40.3020 H   0  0  0  0  0  0  0  0  0  0  0  0
   59.7360   34.8180   47.7910 N   0  0  0  0  0  0  0  0  0  0  0  0
   60.5910   34.0680   48.5310 C   0  0  0  0  0  0  0  0  0  0  0  0
   60.8754   34.3326   49.5601 H   0  0  0  0  0  0  0  0  0  0  0  0
   60.7770   29.6460   46.4760 C   0  0  0  0  0  0  0  0  0  0  0  0
   61.6597   30.1757   46.0883 H   0  0  0  0  0  0  0  0  0  0  0  0
   59.9050   29.0070   45.5880 C   0  0  0  0  0  0  0  0  0  0  0  0
   60.1028   29.0403   44.5065 H   0  0  0  0  0  0  0  0  0  0  0  0
  1  2  1  0
  2  3  1  0
  3  4  2  0
  3  5  2  0
  3  6  1  0
  6  7  2  0
  7  8  1  0
  7  9  1  0
  9 10  1  0
  9 11  2  0
 11 12  1  0
 12 13  1  0
 12 14  1  0
 14 15  2  0
 14 16  2  0
 14 17  1  0
 17 18  1  0
 18 19  1  0
 19 20  2  0
 20 21  1  0
 21 22  2  0
 21 23  1  0
 23 24  1  0
 23 25  1  0
 23 26  1  0
 26 27  1  0
 26 28  1  0
 26 29  1  0
 29 30  2  0
 29 31  1  0
 31 32  1  0
 32 33  1  0
 32 34  1  0
 32 35  1  0
 35 36  1  0
 35 37  1  0
 35 38  1  0
 19 39  1  0
 39 40  1  0
 40 41  1  0
 11 42  1  0
 42 43  1  0
 42 44  2  0
 44 45  1  0
 44  6  1  0
 40 17  2  0
M  CHG  2   2  -1  39  -1
M  END
>  <UniqueID>  (6) 
3

>  <SMILES>  (6) 
CCOC(=O)CCC(=O)/N=c1\[n-]cc(S(=O)(=O)Nc2ccc(S([NH-])(=O)=O)cc2)s1

>  <Energy>  (6) 
70.4454386733399

>  <Genealogy>  (6) 
CCOC(=O)CCC(=O)N=c1[n-]cc(S(=O)(=O)Nc2ccc(S([NH-])(=O)=O)cc2)s1 (protonated)
CCOC(=O)CCC(=O)/N=c1\[n-]cc(S(=O)(=O)Nc2ccc(S([NH-])(=O)=O)cc2)s1 (cis-trans isomerization)
CCOC(=O)CCC(=O)/N=c1\[n-]cc(S(=O)(=O)Nc2ccc(S([NH-])(=O)=O)cc2)s1 (3D coordinates assigned)
CCOC(=O)CCC(=O)/N=c1\[n-]cc(S(=O)(=O)Nc2ccc(S([NH-])(=O)=O)cc2)s1 (optimized conformer: 70.4454386733399 kcal/mol)

>  <smiles>  (6) 
CCOC(=O)CCC(=O)N=c1[nH]cc(S(=O)(=O)Nc2ccc(S(N)(=O)=O)cc2)s1

>  <score_type>  (6) 
oracle

>  <origin>  (6) 
adg

>  <m_score__min__energy>  (6) 
-12.119999999999999

>  <m_primary>  (6) 
energy

$$$$
6:0
     RDKit          3D

 55 59  0  0  0  0  0  0  0  0999 V2000
   63.2550   32.1450   48.2350 C   0  0  0  0  0  0  0  0  0  0  0  0
   61.9200   31.6630   47.8950 N   0  0  0  0  0  0  0  0  0  0  0  0
   61.2430   31.9280   46.7550 C   0  0  0  0  0  0  0  0  0  0  0  0
   59.9810   31.3380   46.7970 C   0  0  0  0  0  0  0  0  0  0  0  0
   58.9780   31.3490   45.7110 C   0  0  0  0  0  0  0  0  0  0  0  0
   58.3160   30.2850   45.2310 C   0  0  0  0  0  0  0  0  0  0  0  0
   58.5740   28.8660   45.5530 C   0  0  0  0  0  0  0  0  0  0  0  0
   59.8820   28.4230   45.8170 C   0  0  0  0  0  0  0  0  0  0  0  0
   60.1180   27.0880   46.1520 C   0  0  0  0  0  0  0  0  0  0  0  0
   59.0520   26.1870   46.2360 C   0  0  0  0  0  0  0  0  0  0  0  0
   57.7460   26.6120   45.9620 C   0  0  0  0  0  0  0  0  0  0  0  0
   56.4040   25.4870   46.1370 S   0  0  0  0  0  0  0  0  0  0  0  0
   54.9170   26.3390   45.9100 N   0  0  0  0  0  0  0  0  0  0  0  0
   56.5080   24.3850   45.1170 O   0  0  0  0  0  0  0  0  0  0  0  0
   56.4340   24.8780   47.5130 O   0  0  0  0  0  0  0  0  0  0  0  0
   57.5100   27.9510   45.6140 C   0  0  0  0  0  0  0  0  0  0  0  0
   57.2680   30.7810   44.3340 C   0  0  0  0  0  0  0  0  0  0  0  0
   56.4240   30.0690   43.7310 O   0  0  0  0  0  0  0  0  0  0  0  0
   57.3030   32.1960   44.2520 N   0  0  0  0  0  0  0  0  0  0  0  0
   58.3610   32.5470   45.1300 C   0  0  0  0  0  0  0  0  0  0  0  0
   58.6610   33.7360   45.4150 O   0  0  0  0  0  0  0  0  0  0  0  0
   59.9050   30.7000   48.0240 C   0  0  0  0  0  0  0  0  0  0  0  0
   58.8740   29.9850   48.6310 C   0  0  0  0  0  0  0  0  0  0  0  0
   59.1030   29.4540   49.9120 C   0  0  0  0  0  0  0  0  0  0  0  0
   60.3380   29.6510   50.5700 C   0  0  0  0  0  0  0  0  0  0  0  0
   60.5130   29.0710   51.8390 O   0  0  0  0  0  0  0  0  0  0  0  0
   59.8770   29.5130   53.0410 C   0  0  0  0  0  0  0  0  0  0  0  0
   59.0720   30.7630   52.7940 C   0  0  0  0  0  0  0  0  0  0  0  0
   57.6860   30.6760   52.5820 C   0  0  0  0  0  0  0  0  0  0  0  0
   56.9330   31.8340   52.3560 C   0  0  0  0  0  0  0  0  0  0  0  0
   57.5590   33.0860   52.3340 C   0  0  0  0  0  0  0  0  0  0  0  0
   58.9390   33.1800   52.5330 C   0  0  0  0  0  0  0  0  0  0  0  0
   59.6960   32.0230   52.7560 C   0  0  0  0  0  0  0  0  0  0  0  0
   61.3490   30.4160   49.9420 C   0  0  0  0  0  0  0  0  0  0  0  0
   61.0990   30.9210   48.6650 C   0  0  0  0  0  0  0  0  0  0  0  0
   63.3631   32.1840   49.3290 H   0  0  0  0  0  0  0  0  0  0  0  0
   64.0090   31.4623   47.8161 H   0  0  0  0  0  0  0  0  0  0  0  0
   63.3990   33.1519   47.8161 H   0  0  0  0  0  0  0  0  0  0  0  0
   61.6320   32.5232   45.9157 H   0  0  0  0  0  0  0  0  0  0  0  0
   60.7224   29.1304   45.7595 H   0  0  0  0  0  0  0  0  0  0  0  0
   61.1441   26.7447   46.3501 H   0  0  0  0  0  0  0  0  0  0  0  0
   59.2399   25.1406   46.5183 H   0  0  0  0  0  0  0  0  0  0  0  0
   55.1450   27.3630   46.0130 H   0  0  0  0  0  0  0  0  0  0  0  0
   56.4868   28.2856   45.3879 H   0  0  0  0  0  0  0  0  0  0  0  0
   56.6440   32.8310   43.7500 H   0  0  0  0  0  0  0  0  0  0  0  0
   57.9094   29.8405   48.1224 H   0  0  0  0  0  0  0  0  0  0  0  0
   58.3096   28.8769   50.4095 H   0  0  0  0  0  0  0  0  0  0  0  0
   59.2082   28.7202   53.4073 H   0  0  0  0  0  0  0  0  0  0  0  0
   60.6529   29.7360   53.7881 H   0  0  0  0  0  0  0  0  0  0  0  0
   57.1906   29.6940   52.5937 H   0  0  0  0  0  0  0  0  0  0  0  0
   55.8473   31.7602   52.1954 H   0  0  0  0  0  0  0  0  0  0  0  0
   56.9649   33.9953   52.1602 H   0  0  0  0  0  0  0  0  0  0  0  0
   59.4311   34.1636   52.5145 H   0  0  0  0  0  0  0  0  0  0  0  0
   60.7835   32.1000   52.9021 H   0  0  0  0  0  0  0  0  0  0  0  0
   62.3072   30.6078   50.4470 H   0  0  0  0  0  0  0  0  0  0  0  0
  1  2  1  0
  2  3  1  0
  3  4  2  0
  4  5  1  0
  5  6  2  0
  6  7  1  0
  7  8  2  0
  8  9  1  0
  9 10  2  0
 10 11  1  0
 11 12  1  0
 12 13  1  0
 12 14  2  0
 12 15  2  0
 11 16  2  0
  6 17  1  0
 17 18  2  0
 17 19  1  0
 19 20  1  0
 20 21  2  0
  4 22  1  0
 22 23  2  0
 23 24  1  0
 24 25  2  0
 25 26  1  0
 26 27  1  0
 27 28  1  0
 28 29  2  0
 29 30  1  0
 30 31  2  0
 31 32  1  0
 32 33  2  0
 25 34  1  0
 34 35  2  0
 35  2  1  0
 20  5  1  0
 35 22  1  0
 16  7  1  0
 33 28  1  0
  1 36  1  0
  1 37  1  0
  1 38  1  0
  3 39  1  0
  8 40  1  0
  9 41  1  0
 10 42  1  0
 13 43  1  0
 16 44  1  0
 19 45  1  0
 23 46  1  0
 24 47  1  0
 27 48  1  0
 27 49  1  0
 29 50  1  0
 30 51  1  0
 31 52  1  0
 32 53  1  0
 33 54  1  0
 34 55  1  0
M  CHG  1  13  -1
M  END
>  <UniqueID>  (7) 
4

>  <SMILES>  (7) 
Cn1cc(C2=C(c3cccc(S([NH-])(=O)=O)c3)C(=O)NC2=O)c2ccc(OCc3ccccc3)cc21

>  <Energy>  (7) 
128.51376208614076

>  <Genealogy>  (7) 
Cn1cc(C2=C(c3cccc(S([NH-])(=O)=O)c3)C(=O)NC2=O)c2ccc(OCc3ccccc3)cc21 (protonated)
Cn1cc(C2=C(c3cccc(S([NH-])(=O)=O)c3)C(=O)NC2=O)c2ccc(OCc3ccccc3)cc21 (3D coordinates assigned)
Cn1cc(C2=C(c3cccc(S([NH-])(=O)=O)c3)C(=O)NC2=O)c2ccc(OCc3ccccc3)cc21 (nonaromatic ring conformer: 128.51376208614076 kcal/mol)

>  <smiles>  (7) 
Cn1cc(C2=C(c3cccc(S(N)(=O)=O)c3)C(=O)NC2=O)c2ccc(OCc3ccccc3)cc21

>  <score_type>  (7) 
oracle

>  <origin>  (7) 
adg

>  <m_score__min__energy>  (7) 
-13.07

>  <m_primary>  (7) 
energy

$$$$
7:0
     RDKit          3D

 48 51  0  0  1  0  0  0  0  0999 V2000
   59.3020   30.4830   48.0380 C   0  0  0  0  0  0  0  0  0  0  0  0
   59.4860   31.8420   47.5380 C   0  0  0  0  0  0  0  0  0  0  0  0
   60.3370   32.7100   48.2630 C   0  0  0  0  0  0  0  0  0  0  0  0
   61.0750   32.4490   49.4800 C   0  0  0  0  0  0  0  0  0  0  0  0
   60.2600   32.1590   50.5960 C   0  0  0  0  0  0  0  0  0  0  0  0
   60.7670   31.9910   51.8410 C   0  0  0  0  0  0  0  0  0  0  0  0
   62.1110   32.1060   52.0230 C   0  0  0  0  0  0  0  0  0  0  0  0
   62.9040   32.3870   50.9520 C   0  0  0  0  0  0  0  0  0  0  0  0
   62.4330   32.5720   49.6450 C   0  0  0  0  0  0  0  0  0  0  0  0
   63.5660   32.9590   48.4120 S   0  0  0  0  0  0  0  0  0  0  0  0
   63.5780   31.7970   47.1250 N   0  0  0  0  0  0  0  0  0  0  0  0
   64.9020   33.4000   48.7940 O   0  0  0  0  0  0  0  0  0  0  0  0
   62.9600   34.2120   47.6890 O   0  0  0  0  0  0  0  0  0  0  0  0
   60.2890   33.9370   47.7120 N   0  0  0  0  0  0  0  0  0  0  0  0
   59.4740   33.9420   46.6740 C   0  0  0  0  0  0  0  0  0  0  0  0
   59.1260   34.9330   45.8520 N   0  0  0  0  0  0  0  0  0  0  0  0
   58.2570   34.6560   44.8740 C   0  0  0  0  0  0  0  0  0  0  0  0
   57.7440   33.4470   44.7050 N   0  0  0  0  0  0  0  0  0  0  0  0
   58.1070   32.4390   45.5530 C   0  0  0  0  0  0  0  0  0  0  0  0
   57.6530   31.3410   45.3570 N   0  0  0  0  0  0  0  0  0  0  0  0
   57.9420   30.0910   45.1840 C   0  0  0  0  0  0  0  0  0  0  0  0
   59.1170   29.6590   44.5190 C   0  0  0  0  0  0  0  0  0  0  0  0
   59.4880   28.3480   44.4870 C   0  0  0  0  0  0  0  0  0  0  0  0
   58.7500   27.3830   45.0910 C   0  0  0  0  0  0  0  0  0  0  0  0
   57.6010   27.7510   45.7510 C   0  0  0  0  0  0  0  0  0  0  0  0
   56.8270   26.6910   46.3920 C   0  0  0  0  0  0  0  0  0  0  0  0
   55.4820   26.4080   46.0020 N   0  0  0  0  0  0  0  0  0  0  0  0
   57.3250   26.0040   47.2980 O   0  0  0  0  0  0  0  0  0  0  0  0
   57.1800   29.0610   45.8150 C   0  0  0  0  0  0  0  0  0  0  0  0
   58.9870   32.6440   46.5760 C   0  0  0  0  0  0  0  0  0  0  0  0
   59.3034   30.4937   49.1379 H   0  0  0  0  0  0  0  0  0  0  0  0
   58.3419   30.0861   47.6764 H   0  0  0  0  0  0  0  0  0  0  0  0
   60.1220   29.8451   47.6764 H   0  0  0  0  0  0  0  0  0  0  0  0
   59.1738   32.0661   50.4491 H   0  0  0  0  0  0  0  0  0  0  0  0
   60.1044   31.7657   52.6896 H   0  0  0  0  0  0  0  0  0  0  0  0
   62.5511   31.9737   53.0224 H   0  0  0  0  0  0  0  0  0  0  0  0
   63.9869   32.4747   51.1244 H   0  0  0  0  0  0  0  0  0  0  0  0
   62.8210   31.9540   46.4530 H   0  0  0  0  0  0  0  0  0  0  0  0
   64.5170   31.6910   46.7250 H   0  0  0  0  0  0  0  0  0  0  0  0
   60.8180   34.7650   48.0510 H   0  0  0  0  0  0  0  0  0  0  0  0
   59.5120   35.9050   45.9530 H   0  0  0  0  0  0  0  0  0  0  0  0
   57.9579   35.4605   44.1860 H   0  0  0  0  0  0  0  0  0  0  0  0
   59.7484   30.4045   44.0135 H   0  0  0  0  0  0  0  0  0  0  0  0
   60.4098   28.0649   43.9577 H   0  0  0  0  0  0  0  0  0  0  0  0
   59.0638   26.3294   45.0536 H   0  0  0  0  0  0  0  0  0  0  0  0
   54.7660   26.2460   46.7390 H   0  0  0  0  0  0  0  0  0  0  0  0
   55.2300   26.3690   44.9970 H   0  0  0  0  0  0  0  0  0  0  0  0
   56.2548   29.3144   46.3533 H   0  0  0  0  0  0  0  0  0  0  0  0
  1  2  1  0
  2  3  2  0
  3  4  1  0
  4  5  2  0
  5  6  1  0
  6  7  2  0
  7  8  1  0
  8  9  2  0
  9 10  1  0
 10 11  1  0
 10 12  2  0
 10 13  2  0
  3 14  1  0
 14 15  1  0
 15 16  1  0
 16 17  1  0
 17 18  2  0
 18 19  1  0
 19 20  2  0
 20 21  1  0
 21 22  2  0
 22 23  1  0
 23 24  2  0
 24 25  1  0
 25 26  1  0
 26 27  1  0
 26 28  2  0
 25 29  2  0
 19 30  1  0
 30  2  1  0
  9  4  1  0
 30 15  2  0
 29 21  1  0
  1 31  1  0
  1 32  1  0
  1 33  1  0
  5 34  1  0
  6 35  1  0
  7 36  1  0
  8 37  1  0
 11 38  1  0
 11 39  1  0
 14 40  1  0
 16 41  1  0
 17 42  1  0
 22 43  1  0
 23 44  1  0
 24 45  1  0
 27 46  1  0
 27 47  1  0
 29 48  1  0
M  END
>  <smiles>  (8) 
Cc1c(-c2ccccc2S(N)(=O)=O)[nH]c2[nH]cnc(=Nc3cccc(C(N)=O)c3)c12

>  <score_type>  (8) 
oracle

>  <origin>  (8) 
adg

>  <m_score__min__energy>  (8) 
-10.640000000000001

>  <m_primary>  (8) 
energy

$$$$
8:0
     RDKit          3D

 60 63  0  0  0  0  0  0  0  0999 V2000
   56.8040   30.9420   43.0560 O   0  0  0  0  0  0  0  0  0  0  0  0
   56.8860   31.0500   44.3100 C   0  0  0  0  0  0  0  0  0  0  0  0
   56.2590   30.0730   45.1520 N   0  0  0  0  0  0  0  0  0  0  0  0
   56.6680   28.6740   45.2420 C   0  0  0  0  0  0  0  0  0  0  0  0
   58.1500   28.5120   44.8400 C   0  0  1  0  0  0  0  0  0  0  0  0
   59.1320   28.9840   45.9460 C   0  0  0  0  0  0  0  0  0  0  0  0
   59.8350   27.8260   46.6670 C   0  0  0  0  0  0  0  0  0  0  0  0
   58.8970   26.6280   46.8090 C   0  0  0  0  0  0  0  0  0  0  0  0
   58.5060   26.0710   45.4890 N   0  0  0  0  0  0  0  0  0  0  0  0
   57.2720   25.2620   45.5710 C   0  0  0  0  0  0  0  0  0  0  0  0
   57.4630   23.9280   44.8960 C   0  0  0  0  0  0  0  0  0  0  0  0
   58.5490   23.1050   45.2360 C   0  0  0  0  0  0  0  0  0  0  0  0
   58.7370   21.8820   44.5850 C   0  0  0  0  0  0  0  0  0  0  0  0
   57.8460   21.4750   43.5880 C   0  0  0  0  0  0  0  0  0  0  0  0
   56.7630   22.2920   43.2360 C   0  0  0  0  0  0  0  0  0  0  0  0
   55.8700   21.8970   42.2440 O   0  0  0  0  0  0  0  0  0  0  0  0
   56.5760   23.5170   43.8860 C   0  0  0  0  0  0  0  0  0  0  0  0
   58.4630   27.0650   44.3840 C   0  0  0  0  0  0  0  0  0  0  0  0
   57.6260   32.1880   44.9090 C   0  0  0  0  0  0  0  0  0  0  0  0
   57.0680   33.4760   44.8960 C   0  0  0  0  0  0  0  0  0  0  0  0
   57.7550   34.5450   45.4620 C   0  0  0  0  0  0  0  0  0  0  0  0
   59.0020   34.3490   46.0580 C   0  0  0  0  0  0  0  0  0  0  0  0
   59.5990   33.0680   46.0920 C   0  0  0  0  0  0  0  0  0  0  0  0
   60.9080   32.8640   46.7090 N   0  0  0  0  0  0  0  0  0  0  0  0
   61.9850   33.8400   46.4510 C   0  0  0  0  0  0  0  0  0  0  0  0
   63.2490   33.5660   47.2620 C   0  0  0  0  0  0  0  0  0  0  0  0
   63.5410   32.1890   47.2520 O   0  0  0  0  0  0  0  0  0  0  0  0
   62.5890   31.5280   48.0510 C   0  0  0  0  0  0  0  0  0  0  0  0
   61.1780   31.6100   47.4490 C   0  0  0  0  0  0  0  0  0  0  0  0
   58.8870   31.9950   45.5030 C   0  0  0  0  0  0  0  0  0  0  0  0
   56.5341   28.3244   46.2763 H   0  0  0  0  0  0  0  0  0  0  0  0
   56.0480   28.0793   44.5550 H   0  0  0  0  0  0  0  0  0  0  0  0
   58.3089   29.1783   43.9793 H   0  0  0  0  0  0  0  0  0  0  0  0
   59.8979   29.6237   45.4833 H   0  0  0  0  0  0  0  0  0  0  0  0
   58.5398   29.5253   46.6986 H   0  0  0  0  0  0  0  0  0  0  0  0
   60.7203   27.5246   46.0879 H   0  0  0  0  0  0  0  0  0  0  0  0
   60.1319   28.1632   47.6711 H   0  0  0  0  0  0  0  0  0  0  0  0
   59.4065   25.8443   47.3889 H   0  0  0  0  0  0  0  0  0  0  0  0
   57.9839   26.9687   47.3191 H   0  0  0  0  0  0  0  0  0  0  0  0
   57.0173   25.0983   46.6285 H   0  0  0  0  0  0  0  0  0  0  0  0
   56.4605   25.8027   45.0620 H   0  0  0  0  0  0  0  0  0  0  0  0
   59.2544   23.4238   46.0175 H   0  0  0  0  0  0  0  0  0  0  0  0
   59.5871   21.2394   44.8578 H   0  0  0  0  0  0  0  0  0  0  0  0
   57.9951   20.5115   43.0786 H   0  0  0  0  0  0  0  0  0  0  0  0
   55.9860   22.1890   41.2810 H   0  0  0  0  0  0  0  0  0  0  0  0
   55.7303   24.1618   43.6050 H   0  0  0  0  0  0  0  0  0  0  0  0
   59.4423   27.0659   43.8831 H   0  0  0  0  0  0  0  0  0  0  0  0
   57.6424   26.7602   43.7179 H   0  0  0  0  0  0  0  0  0  0  0  0
   56.0825   33.6408   44.4359 H   0  0  0  0  0  0  0  0  0  0  0  0
   57.3125   35.5518   45.4398 H   0  0  0  0  0  0  0  0  0  0  0  0
   59.5279   35.2040   46.5079 H   0  0  0  0  0  0  0  0  0  0  0  0
   62.2407   33.8046   45.3817 H   0  0  0  0  0  0  0  0  0  0  0  0
   61.6101   34.8292   46.7525 H   0  0  0  0  0  0  0  0  0  0  0  0
   64.0912   34.1197   46.8214 H   0  0  0  0  0  0  0  0  0  0  0  0
   63.0886   33.8926   48.3001 H   0  0  0  0  0  0  0  0  0  0  0  0
   62.8753   30.4699   48.1429 H   0  0  0  0  0  0  0  0  0  0  0  0
   62.5687   32.0208   49.0342 H   0  0  0  0  0  0  0  0  0  0  0  0
   61.0484   30.7654   46.7563 H   0  0  0  0  0  0  0  0  0  0  0  0
   60.4716   31.5807   48.2917 H   0  0  0  0  0  0  0  0  0  0  0  0
   59.3296   30.9880   45.5099 H   0  0  0  0  0  0  0  0  0  0  0  0
  1  2  2  0
  2  3  1  0
  3  4  1  0
  4  5  1  0
  5  6  1  0
  6  7  1  0
  7  8  1  0
  8  9  1  0
  9 10  1  0
 10 11  1  0
 11 12  2  0
 12 13  1  0
 13 14  2  0
 14 15  1  0
 15 16  1  0
 15 17  2  0
  9 18  1  0
  2 19  1  0
 19 20  2  0
 20 21  1  0
 21 22  2  0
 22 23  1  0
 23 24  1  0
 24 25  1  0
 25 26  1  0
 26 27  1  0
 27 28  1  0
 28 29  1  0
 23 30  2  0
 18  5  1  0
 30 19  1  0
 17 11  1  0
 29 24  1  0
  4 31  1  0
  4 32  1  0
  5 33  1  6
  6 34  1  0
  6 35  1  0
  7 36  1  0
  7 37  1  0
  8 38  1  0
  8 39  1  0
 10 40  1  0
 10 41  1  0
 12 42  1  0
 13 43  1  0
 14 44  1  0
 16 45  1  0
 17 46  1  0
 18 47  1  0
 18 48  1  0
 20 49  1  0
 21 50  1  0
 22 51  1  0
 25 52  1  0
 25 53  1  0
 26 54  1  0
 26 55  1  0
 28 56  1  0
 28 57  1  0
 29 58  1  0
 29 59  1  0
 30 60  1  0
M  CHG  1   3  -1
M  END
>  <UniqueID>  (9) 
5

>  <SMILES>  (9) 
O=C([N-]C[C@H]1CCCN(Cc2cccc(O)c2)C1)c1cccc(N2CCOCC2)c1

>  <Energy>  (9) 
79.60526423002472

>  <Genealogy>  (9) 
O=C([N-]CC1CCCN(Cc2cccc(O)c2)C1)c1cccc(N2CCOCC2)c1 (protonated)
O=C([N-]C[C@H]1CCCN(Cc2cccc(O)c2)C1)c1cccc(N2CCOCC2)c1 (chirality)
O=C([N-]C[C@H]1CCCN(Cc2cccc(O)c2)C1)c1cccc(N2CCOCC2)c1 (3D coordinates assigned)
O=C([N-]C[C@H]1CCCN(Cc2cccc(O)c2)C1)c1cccc(N2CCOCC2)c1 (nonaromatic ring conformer: 79.60526423002472 kcal/mol)

>  <smiles>  (9) 
O=C(NCC1CCCN(Cc2cccc(O)c2)C1)c1cccc(N2CCOCC2)c1

>  <score_type>  (9) 
oracle

>  <origin>  (9) 
adg

>  <m_score__min__energy>  (9) 
-12.720000000000001

>  <m_primary>  (9) 
energy

$$$$
9:0
     RDKit          3D

 36 38  0  0  0  0  0  0  0  0999 V2000
   57.9992   32.0730   42.5327 H   0  0  0  0  0  0  0  0  0  0  0  0
   57.5610   31.4120   43.2950 C   0  0  0  0  0  0  0  0  0  0  0  0
   56.6630   30.0180   42.9940 S   0  0  0  0  0  0  0  0  0  0  0  0
   56.4330   29.6960   44.6210 C   0  0  0  0  0  0  0  0  0  0  0  0
   55.7650   28.6710   45.0650 N   0  0  0  0  0  0  0  0  0  0  0  0
   56.3240   27.4760   45.6310 C   0  0  0  0  0  0  0  0  0  0  0  0
   55.5490   26.6420   46.1660 O   0  0  0  0  0  0  0  0  0  0  0  0
   57.7420   27.2570   45.6390 N   0  0  0  0  0  0  0  0  0  0  0  0
   58.7610   28.1940   46.0170 C   0  0  0  0  0  0  0  0  0  0  0  0
   59.8100   28.4350   45.1220 C   0  0  0  0  0  0  0  0  0  0  0  0
   59.8277   27.9218   44.1492 H   0  0  0  0  0  0  0  0  0  0  0  0
   60.8340   29.3230   45.4570 C   0  0  0  0  0  0  0  0  0  0  0  0
   61.6493   29.5150   44.7440 H   0  0  0  0  0  0  0  0  0  0  0  0
   60.8250   29.9680   46.6960 C   0  0  0  0  0  0  0  0  0  0  0  0
   61.6293   30.6740   46.9501 H   0  0  0  0  0  0  0  0  0  0  0  0
   59.7990   29.7220   47.6170 C   0  0  0  0  0  0  0  0  0  0  0  0
   59.8460   30.3820   48.8540 O   0  0  0  0  0  0  0  0  0  0  0  0
   59.5490   29.7680   50.1050 C   0  0  0  0  0  0  0  0  0  0  0  0
   59.8691   30.4297   50.9234 H   0  0  0  0  0  0  0  0  0  0  0  0
   58.4658   29.5912   50.1787 H   0  0  0  0  0  0  0  0  0  0  0  0
   60.0828   28.8091   50.1787 H   0  0  0  0  0  0  0  0  0  0  0  0
   58.7670   28.8250   47.2750 C   0  0  0  0  0  0  0  0  0  0  0  0
   57.9620   28.6170   47.9952 H   0  0  0  0  0  0  0  0  0  0  0  0
   57.0210   30.6220   45.4080 N   0  0  0  0  0  0  0  0  0  0  0  0
   57.6540   31.5850   44.6820 C   0  0  0  0  0  0  0  0  0  0  0  0
   58.3700   32.7070   45.3510 C   0  0  0  0  0  0  0  0  0  0  0  0
   58.6530   33.8840   44.6360 C   0  0  0  0  0  0  0  0  0  0  0  0
   58.3444   33.9721   43.5839 H   0  0  0  0  0  0  0  0  0  0  0  0
   59.3230   34.9410   45.2530 C   0  0  0  0  0  0  0  0  0  0  0  0
   59.5428   35.8617   44.6927 H   0  0  0  0  0  0  0  0  0  0  0  0
   59.7110   34.8190   46.5860 C   0  0  0  0  0  0  0  0  0  0  0  0
   60.2399   35.6464   47.0817 H   0  0  0  0  0  0  0  0  0  0  0  0
   59.4370   33.6790   47.2750 N   0  0  0  0  0  0  0  0  0  0  0  0
   59.7360   33.6040   48.2730 H   0  0  0  0  0  0  0  0  0  0  0  0
   58.7840   32.6330   46.6960 C   0  0  0  0  0  0  0  0  0  0  0  0
   58.5786   31.7250   47.2820 H   0  0  0  0  0  0  0  0  0  0  0  0
  1  2  1  0
  2  3  1  0
  3  4  1  0
  4  5  2  0
  5  6  1  0
  6  7  2  0
  6  8  1  0
  8  9  1  0
  9 10  2  0
 10 11  1  0
 10 12  1  0
 12 13  1  0
 12 14  2  0
 14 15  1  0
 14 16  1  0
 16 17  1  0
 17 18  1  0
 18 19  1  0
 18 20  1  0
 18 21  1  0
 16 22  2  0
 22 23  1  0
  4 24  1  0
 24 25  1  0
 25 26  1  0
 26 27  2  0
 27 28  1  0
 27 29  1  0
 29 30  1  0
 29 31  2  0
 31 32  1  0
 31 33  1  0
 33 34  1  0
 33 35  2  0
 35 36  1  0
 25  2  2  0
 35 26  1  0
 22  9  1  0
M  CHG  3   8  -1  24  -1  33   1
M  END
>  <UniqueID>  (10) 
6

>  <SMILES>  (10) 
COc1cccc([N-]C(=O)/N=c2\[n-]c(-c3ccc[nH+]c3)cs2)c1

>  <Energy>  (10) 
74.84932558081752

>  <Genealogy>  (10) 
COc1cccc([N-]C(=O)N=c2[n-]c(-c3ccc[nH+]c3)cs2)c1 (protonated)
COc1cccc([N-]C(=O)/N=c2\[n-]c(-c3ccc[nH+]c3)cs2)c1 (cis-trans isomerization)
COc1cccc([N-]C(=O)/N=c2\[n-]c(-c3ccc[nH+]c3)cs2)c1 (3D coordinates assigned)
COc1cccc([N-]C(=O)/N=c2\[n-]c(-c3ccc[nH+]c3)cs2)c1 (optimized conformer: 74.84932558081752 kcal/mol)

>  <smiles>  (10) 
COc1cccc(NC(=O)N=c2[nH]c(-c3cccnc3)cs2)c1

>  <score_type>  (10) 
oracle

>  <origin>  (10) 
adg

>  <m_score__min__energy>  (10) 
-8.9900000000000002

>  <m_primary>  (10) 
energy

$$$$
10:0
     RDKit          3D

 48 51  0  0  0  0  0  0  0  0999 V2000
   59.4590   26.6230   44.7330 H   0  0  0  0  0  0  0  0  0  0  0  0
   59.1380   25.8200   45.2590 O   0  0  0  0  0  0  0  0  0  0  0  0
   57.7810   25.5300   45.4080 C   0  0  0  0  0  0  0  0  0  0  0  0
   57.2190   24.2850   45.2120 C   0  0  0  0  0  0  0  0  0  0  0  0
   55.8700   24.4230   45.4170 C   0  0  0  0  0  0  0  0  0  0  0  0
   55.6540   25.7490   45.7340 C   0  0  0  0  0  0  0  0  0  0  0  0
   54.4130   26.3210   45.9950 O   0  0  0  0  0  0  0  0  0  0  0  0
   56.8240   26.4280   45.7460 N   0  0  0  0  0  0  0  0  0  0  0  0
   56.9920   27.8610   45.9950 C   0  0  0  0  0  0  0  0  0  0  0  0
   57.7686   28.0066   46.7603 H   0  0  0  0  0  0  0  0  0  0  0  0
   56.0343   28.2760   46.3422 H   0  0  0  0  0  0  0  0  0  0  0  0
   57.4010   28.5720   44.7330 C   0  0  0  0  0  0  0  0  0  0  0  0
   57.9870   27.9280   43.8230 O   0  0  0  0  0  0  0  0  0  0  0  0
   57.1170   29.9620   44.5220 N   0  0  0  0  0  0  0  0  0  0  0  0
   57.8000   31.0710   45.1190 C   0  0  0  0  0  0  0  0  0  0  0  0
   57.3580   32.3920   44.9340 C   0  0  0  0  0  0  0  0  0  0  0  0
   56.4860   32.5929   44.2942 H   0  0  0  0  0  0  0  0  0  0  0  0
   58.0210   33.4520   45.5590 C   0  0  0  0  0  0  0  0  0  0  0  0
   57.6777   34.4846   45.3984 H   0  0  0  0  0  0  0  0  0  0  0  0
   59.1210   33.2030   46.3890 C   0  0  0  0  0  0  0  0  0  0  0  0
   59.9460   34.5270   47.2080 S   0  0  0  0  0  0  0  0  0  0  0  0
   59.0190   35.6960   47.3950 O   0  0  0  0  0  0  0  0  0  0  0  0
   61.1090   34.9640   46.3620 O   0  0  0  0  0  0  0  0  0  0  0  0
   60.5320   34.0030   48.7560 N   0  0  0  0  0  0  0  0  0  0  0  0
   61.7760   33.7210   49.0100 C   0  0  0  0  0  0  0  0  0  0  0  0
   62.3590   34.1120   50.1810 N   0  0  0  0  0  0  0  0  0  0  0  0
   63.6450   33.7940   50.4800 C   0  0  0  0  0  0  0  0  0  0  0  0
   64.0802   34.1127   51.4387 H   0  0  0  0  0  0  0  0  0  0  0  0
   64.4170   33.0630   49.5730 C   0  0  0  0  0  0  0  0  0  0  0  0
   65.4578   32.7997   49.8127 H   0  0  0  0  0  0  0  0  0  0  0  0
   63.8500   32.6710   48.3580 C   0  0  0  0  0  0  0  0  0  0  0  0
   64.4484   32.1085   47.6262 H   0  0  0  0  0  0  0  0  0  0  0  0
   62.5220   32.9950   48.0750 C   0  0  0  0  0  0  0  0  0  0  0  0
   62.0656   32.6820   47.1244 H   0  0  0  0  0  0  0  0  0  0  0  0
   59.5430   31.8830   46.6000 C   0  0  0  0  0  0  0  0  0  0  0  0
   60.3986   31.6803   47.2609 H   0  0  0  0  0  0  0  0  0  0  0  0
   58.8810   30.8240   45.9740 C   0  0  0  0  0  0  0  0  0  0  0  0
   59.2109   29.7901   46.1538 H   0  0  0  0  0  0  0  0  0  0  0  0
   54.8800   23.3160   45.2490 C   0  0  0  0  0  0  0  0  0  0  0  0
   54.2133   23.5580   44.4082 H   0  0  0  0  0  0  0  0  0  0  0  0
   54.3117   23.2178   46.1857 H   0  0  0  0  0  0  0  0  0  0  0  0
   55.5640   21.9930   44.9690 C   0  0  0  0  0  0  0  0  0  0  0  0
   54.9404   21.0878   44.9283 H   0  0  0  0  0  0  0  0  0  0  0  0
   56.8950   21.8570   44.7660 C   0  0  0  0  0  0  0  0  0  0  0  0
   57.2874   20.8485   44.5688 H   0  0  0  0  0  0  0  0  0  0  0  0
   57.8770   23.0100   44.7940 C   0  0  0  0  0  0  0  0  0  0  0  0
   58.3020   23.1411   43.7879 H   0  0  0  0  0  0  0  0  0  0  0  0
   58.6635   22.7735   45.5258 H   0  0  0  0  0  0  0  0  0  0  0  0
  1  2  1  0
  2  3  1  0
  3  4  2  0
  4  5  1  0
  5  6  2  0
  6  7  1  0
  6  8  1  0
  8  9  1  0
  9 10  1  0
  9 11  1  0
  9 12  1  0
 12 13  2  0
 12 14  1  0
 14 15  1  0
 15 16  2  0
 16 17  1  0
 16 18  1  0
 18 19  1  0
 18 20  2  0
 20 21  1  0
 21 22  2  0
 21 23  2  0
 21 24  1  0
 24 25  2  0
 25 26  1  0
 26 27  1  0
 27 28  1  0
 27 29  2  0
 29 30  1  0
 29 31  1  0
 31 32  1  0
 31 33  2  0
 33 34  1  0
 20 35  1  0
 35 36  1  0
 35 37  2  0
 37 38  1  0
  5 39  1  0
 39 40  1  0
 39 41  1  0
 39 42  1  0
 42 43  1  0
 42 44  2  0
 44 45  1  0
 44 46  1  0
 46 47  1  0
 46 48  1  0
  8  3  1  0
 37 15  1  0
 46  4  1  0
 33 25  1  0
M  CHG  3   7  -1  14  -1  26  -1
M  END
>  <UniqueID>  (11) 
7

>  <SMILES>  (11) 
O=C(Cn1c([O-])c2c(c1O)CC=CC2)[N-]c1ccc(S(=O)(=O)/N=c2/cccc[n-]2)cc1

>  <Energy>  (11) 
91.90210504934396

>  <Genealogy>  (11) 
O=C(Cn1c([O-])c2c(c1O)CC=CC2)[N-]c1ccc(S(=O)(=O)N=c2cccc[n-]2)cc1 (protonated)
O=C(Cn1c([O-])c2c(c1O)CC=CC2)[N-]c1ccc(S(=O)(=O)/N=c2/cccc[n-]2)cc1 (cis-trans isomerization)
O=C(Cn1c([O-])c2c(c1O)CC=CC2)[N-]c1ccc(S(=O)(=O)/N=c2/cccc[n-]2)cc1 (3D coordinates assigned)
O=C(Cn1c([O-])c2c(c1O)CC=CC2)[N-]c1ccc(S(=O)(=O)/N=c2/cccc[n-]2)cc1 (nonaromatic ring conformer: 91.90210504934396 kcal/mol)

>  <smiles>  (11) 
O=C(Cn1c(O)c2c(c1O)CC=CC2)Nc1ccc(S(=O)(=O)N=c2cccc[nH]2)cc1

>  <score_type>  (11) 
oracle

>  <origin>  (11) 
adg

>  <m_score__min__energy>  (11) 
-14.32

>  <m_primary>  (11) 
energy

$$$$
11:0
     RDKit          3D

 58 60  0  0  0  0  0  0  0  0999 V2000
   55.6880   25.8310   46.0080 O   0  0  0  0  0  0  0  0  0  0  0  0
   56.7490   26.4400   45.6850 C   0  0  0  0  0  0  0  0  0  0  0  0
   57.8630   25.6860   45.0250 C   0  0  0  0  0  0  0  0  0  0  0  0
   57.3820   24.3220   44.6080 C   0  0  0  0  0  0  0  0  0  0  0  0
   57.7400   23.1860   45.3520 C   0  0  0  0  0  0  0  0  0  0  0  0
   57.3370   21.9110   44.9450 C   0  0  0  0  0  0  0  0  0  0  0  0
   56.6020   21.7490   43.7650 C   0  0  0  0  0  0  0  0  0  0  0  0
   56.2340   20.4690   43.3560 O   0  0  0  0  0  0  0  0  0  0  0  0
   56.2500   22.8720   43.0080 C   0  0  0  0  0  0  0  0  0  0  0  0
   56.6430   24.1540   43.4190 C   0  0  0  0  0  0  0  0  0  0  0  0
   56.9090   27.8290   45.9950 N   0  0  0  0  0  0  0  0  0  0  0  0
   58.2150   28.4680   46.1850 C   0  0  2  0  0  0  0  0  0  0  0  0
   58.4820   28.6810   47.6830 C   0  0  0  0  0  0  0  0  0  0  0  0
   59.2040   29.8850   47.8410 O   0  0  0  0  0  0  0  0  0  0  0  0
   60.5890   29.6640   47.6690 C   0  0  0  0  0  0  0  0  0  0  0  0
   61.4150   30.8730   48.0580 C   0  0  0  0  0  0  0  0  0  0  0  0
   61.3310   31.4160   49.3560 C   0  0  0  0  0  0  0  0  0  0  0  0
   62.0890   32.5420   49.7000 C   0  0  0  0  0  0  0  0  0  0  0  0
   62.9380   33.1280   48.7570 C   0  0  0  0  0  0  0  0  0  0  0  0
   63.0390   32.5850   47.4730 C   0  0  0  0  0  0  0  0  0  0  0  0
   62.2830   31.4630   47.1230 C   0  0  0  0  0  0  0  0  0  0  0  0
   58.3190   29.7600   45.4180 C   0  0  0  0  0  0  0  0  0  0  0  0
   59.4210   30.1250   44.9170 O   0  0  0  0  0  0  0  0  0  0  0  0
   57.1620   30.5930   45.3000 N   0  0  0  0  0  0  0  0  0  0  0  0
   57.0780   31.7550   44.4220 C   0  0  0  0  0  0  0  0  0  0  0  0
   56.7420   33.0020   45.2450 C   0  0  0  0  0  0  0  0  0  0  0  0
   57.9520   33.5190   45.9870 C   0  0  0  0  0  0  0  0  0  0  0  0
   58.1690   33.1680   47.3320 C   0  0  0  0  0  0  0  0  0  0  0  0
   59.2580   33.6930   48.0340 C   0  0  0  0  0  0  0  0  0  0  0  0
   60.1360   34.5760   47.4030 C   0  0  0  0  0  0  0  0  0  0  0  0
   59.9270   34.9330   46.0690 C   0  0  0  0  0  0  0  0  0  0  0  0
   58.8380   34.4130   45.3630 C   0  0  0  0  0  0  0  0  0  0  0  0
   58.2027   26.2400   44.1375 H   0  0  0  0  0  0  0  0  0  0  0  0
   58.6956   25.5748   45.7352 H   0  0  0  0  0  0  0  0  0  0  0  0
   58.3437   23.3008   46.2643 H   0  0  0  0  0  0  0  0  0  0  0  0
   57.5982   21.0327   45.5536 H   0  0  0  0  0  0  0  0  0  0  0  0
   56.8770   19.6860   43.4260 H   0  0  0  0  0  0  0  0  0  0  0  0
   55.6624   22.7487   42.0863 H   0  0  0  0  0  0  0  0  0  0  0  0
   56.3739   25.0310   42.8120 H   0  0  0  0  0  0  0  0  0  0  0  0
   58.9893   27.7979   45.7833 H   0  0  0  0  0  0  0  0  0  0  0  0
   57.5269   28.7468   48.2248 H   0  0  0  0  0  0  0  0  0  0  0  0
   59.0610   27.8375   48.0871 H   0  0  0  0  0  0  0  0  0  0  0  0
   60.8920   28.8118   48.2951 H   0  0  0  0  0  0  0  0  0  0  0  0
   60.7684   29.4618   46.6027 H   0  0  0  0  0  0  0  0  0  0  0  0
   60.6675   30.9535   50.1015 H   0  0  0  0  0  0  0  0  0  0  0  0
   62.0162   32.9654   50.7126 H   0  0  0  0  0  0  0  0  0  0  0  0
   63.5272   34.0172   49.0255 H   0  0  0  0  0  0  0  0  0  0  0  0
   63.7155   33.0422   46.7359 H   0  0  0  0  0  0  0  0  0  0  0  0
   62.3676   31.0397   46.1113 H   0  0  0  0  0  0  0  0  0  0  0  0
   58.0434   31.9007   43.9153 H   0  0  0  0  0  0  0  0  0  0  0  0
   56.2888   31.5894   43.6738 H   0  0  0  0  0  0  0  0  0  0  0  0
   56.3747   33.7881   44.5689 H   0  0  0  0  0  0  0  0  0  0  0  0
   55.9741   32.7306   45.9843 H   0  0  0  0  0  0  0  0  0  0  0  0
   57.4773   32.4759   47.8345 H   0  0  0  0  0  0  0  0  0  0  0  0
   59.4231   33.4102   49.0841 H   0  0  0  0  0  0  0  0  0  0  0  0
   60.9919   34.9903   47.9560 H   0  0  0  0  0  0  0  0  0  0  0  0
   60.6218   35.6259   45.5719 H   0  0  0  0  0  0  0  0  0  0  0  0
   58.6744   34.7049   44.3151 H   0  0  0  0  0  0  0  0  0  0  0  0
  1  2  2  0
  2  3  1  0
  3  4  1  0
  4  5  2  0
  5  6  1  0
  6  7  2  0
  7  8  1  0
  7  9  1  0
  9 10  2  0
  2 11  1  0
 11 12  1  0
 12 13  1  0
 13 14  1  0
 14 15  1  0
 15 16  1  0
 16 17  2  0
 17 18  1  0
 18 19  2  0
 19 20  1  0
 20 21  2  0
 12 22  1  0
 22 23  2  0
 22 24  1  0
 24 25  1  0
 25 26  1  0
 26 27  1  0
 27 28  2  0
 28 29  1  0
 29 30  2  0
 30 31  1  0
 31 32  2  0
 10  4  1  0
 21 16  1  0
 32 27  1  0
  3 33  1  0
  3 34  1  0
  5 35  1  0
  6 36  1  0
  8 37  1  0
  9 38  1  0
 10 39  1  0
 12 40  1  6
 13 41  1  0
 13 42  1  0
 15 43  1  0
 15 44  1  0
 17 45  1  0
 18 46  1  0
 19 47  1  0
 20 48  1  0
 21 49  1  0
 25 50  1  0
 25 51  1  0
 26 52  1  0
 26 53  1  0
 28 54  1  0
 29 55  1  0
 30 56  1  0
 31 57  1  0
 32 58  1  0
M  CHG  2  11  -1  24  -1
M  END
>  <UniqueID>  (12) 
8

>  <SMILES>  (12) 
O=C(Cc1ccc(O)cc1)[N-][C@H](COCc1ccccc1)C(=O)[N-]CCc1ccccc1

>  <Energy>  (12) 
54.158622166038484

>  <Genealogy>  (12) 
O=C(Cc1ccc(O)cc1)[N-]C(COCc1ccccc1)C(=O)[N-]CCc1ccccc1 (protonated)
O=C(Cc1ccc(O)cc1)[N-][C@H](COCc1ccccc1)C(=O)[N-]CCc1ccccc1 (chirality)
O=C(Cc1ccc(O)cc1)[N-][C@H](COCc1ccccc1)C(=O)[N-]CCc1ccccc1 (3D coordinates assigned)
O=C(Cc1ccc(O)cc1)[N-][C@H](COCc1ccccc1)C(=O)[N-]CCc1ccccc1 (optimized conformer: 54.158622166038484 kcal/mol)

>  <smiles>  (12) 
O=C(Cc1ccc(O)cc1)NC(COCc1ccccc1)C(=O)NCCc1ccccc1

>  <score_type>  (12) 
oracle

>  <origin>  (12) 
adg

>  <m_score__min__energy>  (12) 
-13.56

>  <m_primary>  (12) 
energy

$$$$
12:0
     RDKit          3D

 46 49  0  0  0  0  0  0  0  0999 V2000
   55.8520   24.6390   47.6080 O   0  0  0  0  0  0  0  0  0  0  0  0
   56.3940   25.4870   46.8520 C   0  0  0  0  0  0  0  0  0  0  0  0
   57.6810   25.3140   46.4560 N   0  0  0  0  0  0  0  0  0  0  0  0
   58.2920   26.2070   45.6360 C   0  0  0  0  0  0  0  0  0  0  0  0
   59.4990   26.0280   45.3230 O   0  0  0  0  0  0  0  0  0  0  0  0
   57.5820   27.3270   45.1670 C   0  0  0  0  0  0  0  0  0  0  0  0
   58.2010   28.3410   44.2820 C   0  0  0  0  0  0  0  0  0  0  0  0
   58.6050   29.5590   44.6740 C   0  0  0  0  0  0  0  0  0  0  0  0
   59.1220   29.8950   46.0210 C   0  0  0  0  0  0  0  0  0  0  0  0
   60.4930   30.1000   46.2550 C   0  0  0  0  0  0  0  0  0  0  0  0
   60.9460   30.4350   47.5340 C   0  0  0  0  0  0  0  0  0  0  0  0
   60.0460   30.5850   48.5940 C   0  0  0  0  0  0  0  0  0  0  0  0
   60.5610   30.9150   49.8580 O   0  0  0  0  0  0  0  0  0  0  0  0
   60.6490   32.2330   50.4010 C   0  0  0  0  0  0  0  0  0  0  0  0
   59.5720   33.1380   49.8020 C   0  0  0  0  0  0  0  0  0  0  0  0
   59.9620   33.5700   48.4600 N   0  0  0  0  0  0  0  0  0  0  0  0
   61.2230   33.8550   48.0540 C   0  0  0  0  0  0  0  0  0  0  0  0
   61.2440   34.1630   46.6980 C   0  0  0  0  0  0  0  0  0  0  0  0
   59.9360   34.0420   46.2780 C   0  0  0  0  0  0  0  0  0  0  0  0
   59.3740   34.2160   45.0150 C   0  0  0  0  0  0  0  0  0  0  0  0
   57.9910   34.0040   44.8770 C   0  0  0  0  0  0  0  0  0  0  0  0
   57.2100   33.6250   45.9920 C   0  0  0  0  0  0  0  0  0  0  0  0
   57.8060   33.4560   47.2550 C   0  0  0  0  0  0  0  0  0  0  0  0
   59.1820   33.6770   47.3650 C   0  0  0  0  0  0  0  0  0  0  0  0
   58.6700   30.4140   48.3510 C   0  0  0  0  0  0  0  0  0  0  0  0
   58.2140   30.0800   47.0720 C   0  0  0  0  0  0  0  0  0  0  0  0
   56.2630   27.5000   45.6140 C   0  0  0  0  0  0  0  0  0  0  0  0
   55.5230   28.6060   45.2080 O   0  0  0  0  0  0  0  0  0  0  0  0
   55.6950   26.5770   46.4370 N   0  0  0  0  0  0  0  0  0  0  0  0
   58.3399   28.0754   43.2236 H   0  0  0  0  0  0  0  0  0  0  0  0
   58.5477   30.3730   43.9363 H   0  0  0  0  0  0  0  0  0  0  0  0
   61.2116   29.9964   45.4286 H   0  0  0  0  0  0  0  0  0  0  0  0
   62.0220   30.5823   47.7089 H   0  0  0  0  0  0  0  0  0  0  0  0
   60.5137   32.1839   51.4915 H   0  0  0  0  0  0  0  0  0  0  0  0
   61.6371   32.6504   50.1571 H   0  0  0  0  0  0  0  0  0  0  0  0
   58.6235   32.5840   49.7437 H   0  0  0  0  0  0  0  0  0  0  0  0
   59.4516   34.0240   50.4427 H   0  0  0  0  0  0  0  0  0  0  0  0
   62.1081   33.8442   48.7070 H   0  0  0  0  0  0  0  0  0  0  0  0
   62.1171   34.4432   46.0904 H   0  0  0  0  0  0  0  0  0  0  0  0
   59.9922   34.5097   44.1539 H   0  0  0  0  0  0  0  0  0  0  0  0
   57.5137   34.1340   43.8945 H   0  0  0  0  0  0  0  0  0  0  0  0
   56.1290   33.4611   45.8716 H   0  0  0  0  0  0  0  0  0  0  0  0
   57.2078   33.1591   48.1291 H   0  0  0  0  0  0  0  0  0  0  0  0
   57.9494   30.5439   49.1719 H   0  0  0  0  0  0  0  0  0  0  0  0
   57.1357   29.9617   46.8898 H   0  0  0  0  0  0  0  0  0  0  0  0
   54.7080   26.7110   46.7520 H   0  0  0  0  0  0  0  0  0  0  0  0
  1  2  2  0
  2  3  1  0
  3  4  1  0
  4  5  2  0
  4  6  1  0
  6  7  1  0
  7  8  2  3
  8  9  1  0
  9 10  2  0
 10 11  1  0
 11 12  2  0
 12 13  1  0
 13 14  1  0
 14 15  1  0
 15 16  1  0
 16 17  1  0
 17 18  2  0
 18 19  1  0
 19 20  2  0
 20 21  1  0
 21 22  2  0
 22 23  1  0
 23 24  2  0
 12 25  1  0
 25 26  2  0
  6 27  2  0
 27 28  1  0
 27 29  1  0
 29  2  1  0
 26  9  1  0
 24 16  1  0
 24 19  1  0
  7 30  1  0
  8 31  1  0
 10 32  1  0
 11 33  1  0
 14 34  1  0
 14 35  1  0
 15 36  1  0
 15 37  1  0
 17 38  1  0
 18 39  1  0
 20 40  1  0
 21 41  1  0
 22 42  1  0
 23 43  1  0
 25 44  1  0
 26 45  1  0
 29 46  1  0
M  CHG  2   3  -1  28  -1
M  END
>  <UniqueID>  (13) 
9

>  <SMILES>  (13) 
O=c1[n-]c(=O)c(C=Cc2ccc(OCCn3ccc4ccccc43)cc2)c([O-])[nH]1

>  <Energy>  (13) 
94.12810837097355

>  <Genealogy>  (13) 
O=c1[n-]c(=O)c(C=Cc2ccc(OCCn3ccc4ccccc43)cc2)c([O-])[nH]1 (protonated)
O=c1[n-]c(=O)c(C=Cc2ccc(OCCn3ccc4ccccc43)cc2)c([O-])[nH]1 (3D coordinates assigned)
O=c1[n-]c(=O)c(C=Cc2ccc(OCCn3ccc4ccccc43)cc2)c([O-])[nH]1 (optimized conformer: 94.12810837097355 kcal/mol)

>  <smiles>  (13) 
O=c1[nH]c(O)c(C=Cc2ccc(OCCn3ccc4ccccc43)cc2)c(=O)[nH]1

>  <score_type>  (13) 
oracle

>  <origin>  (13) 
adg

>  <m_score__min__energy>  (13) 
-14.539999999999999

>  <m_primary>  (13) 
energy

$$$$
13:0
     RDKit          3D

 40 42  0  0  0  0  0  0  0  0999 V2000
   60.0380   34.5520   48.7400 C   0  0  0  0  0  0  0  0  0  0  0  0
   59.3820   34.2120   47.4350 C   0  0  0  0  0  0  0  0  0  0  0  0
   58.3590   33.2560   47.3860 C   0  0  0  0  0  0  0  0  0  0  0  0
   57.7710   32.9100   46.1660 C   0  0  0  0  0  0  0  0  0  0  0  0
   58.2050   33.5130   44.9690 C   0  0  0  0  0  0  0  0  0  0  0  0
   57.6180   33.1860   43.6940 N   0  0  0  0  0  0  0  0  0  0  0  0
   57.8810   31.9510   42.9540 C   0  0  0  0  0  0  0  0  0  0  0  0
   57.3370   30.7700   43.6980 C   0  0  0  0  0  0  0  0  0  0  0  0
   56.1350   30.7080   44.3680 C   0  0  0  0  0  0  0  0  0  0  0  0
   56.0320   29.5060   44.8870 O   0  0  0  0  0  0  0  0  0  0  0  0
   57.1180   28.8340   44.5600 C   0  0  0  0  0  0  0  0  0  0  0  0
   57.3890   27.4340   44.9730 C   0  0  0  0  0  0  0  0  0  0  0  0
   57.1730   27.0670   46.3140 C   0  0  0  0  0  0  0  0  0  0  0  0
   57.3910   25.7560   46.7400 C   0  0  0  0  0  0  0  0  0  0  0  0
   57.8240   24.7900   45.8340 C   0  0  0  0  0  0  0  0  0  0  0  0
   58.0460   25.1310   44.5010 C   0  0  0  0  0  0  0  0  0  0  0  0
   57.8450   26.4500   44.0540 C   0  0  0  0  0  0  0  0  0  0  0  0
   58.1230   26.7730   42.6090 C   0  0  0  0  0  0  0  0  0  0  0  0
   57.9590   29.5840   43.8160 N   0  0  0  0  0  0  0  0  0  0  0  0
   59.2470   34.4520   45.0220 C   0  0  0  0  0  0  0  0  0  0  0  0
   59.8340   34.7960   46.2430 C   0  0  0  0  0  0  0  0  0  0  0  0
   59.3971   34.2198   49.5700 H   0  0  0  0  0  0  0  0  0  0  0  0
   61.0123   34.0454   48.8036 H   0  0  0  0  0  0  0  0  0  0  0  0
   60.1857   35.6402   48.8036 H   0  0  0  0  0  0  0  0  0  0  0  0
   58.0163   32.7745   48.3137 H   0  0  0  0  0  0  0  0  0  0  0  0
   56.9645   32.1624   46.1404 H   0  0  0  0  0  0  0  0  0  0  0  0
   56.9300   33.8530   43.2760 H   0  0  0  0  0  0  0  0  0  0  0  0
   57.3995   32.0105   41.9668 H   0  0  0  0  0  0  0  0  0  0  0  0
   58.9681   31.8295   42.8378 H   0  0  0  0  0  0  0  0  0  0  0  0
   55.3957   31.5181   44.4529 H   0  0  0  0  0  0  0  0  0  0  0  0
   56.8282   27.8225   47.0353 H   0  0  0  0  0  0  0  0  0  0  0  0
   57.2208   25.4849   47.7924 H   0  0  0  0  0  0  0  0  0  0  0  0
   57.9909   23.7564   46.1714 H   0  0  0  0  0  0  0  0  0  0  0  0
   58.3819   24.3609   43.7909 H   0  0  0  0  0  0  0  0  0  0  0  0
   58.8396   27.6056   42.5507 H   0  0  0  0  0  0  0  0  0  0  0  0
   58.5469   25.8888   42.1106 H   0  0  0  0  0  0  0  0  0  0  0  0
   57.1855   27.0605   42.1106 H   0  0  0  0  0  0  0  0  0  0  0  0
   58.8780   29.3110   43.4050 H   0  0  0  0  0  0  0  0  0  0  0  0
   59.6050   34.9216   44.0939 H   0  0  0  0  0  0  0  0  0  0  0  0
   60.6544   35.5283   46.2689 H   0  0  0  0  0  0  0  0  0  0  0  0
  1  2  1  0
  2  3  2  0
  3  4  1  0
  4  5  2  0
  5  6  1  0
  6  7  1  0
  7  8  1  0
  8  9  2  0
  9 10  1  0
 10 11  1  0
 11 12  1  0
 12 13  2  0
 13 14  1  0
 14 15  2  0
 15 16  1  0
 16 17  2  0
 17 18  1  0
 11 19  2  0
  5 20  1  0
 20 21  2  0
 21  2  1  0
 19  8  1  0
 17 12  1  0
  1 22  1  0
  1 23  1  0
  1 24  1  0
  3 25  1  0
  4 26  1  0
  6 27  1  0
  7 28  1  0
  7 29  1  0
  9 30  1  0
 13 31  1  0
 14 32  1  0
 15 33  1  0
 16 34  1  0
 18 35  1  0
 18 36  1  0
 18 37  1  0
 19 38  1  0
 20 39  1  0
 21 40  1  0
M  CHG  1  19   1
M  END
>  <UniqueID>  (14) 
10

>  <SMILES>  (14) 
Cc1ccc(NCc2coc(-c3ccccc3C)[nH+]2)cc1

>  <Energy>  (14) 
74.40970329237972

>  <Genealogy>  (14) 
Cc1ccc(NCc2coc(-c3ccccc3C)[nH+]2)cc1 (protonated)
Cc1ccc(NCc2coc(-c3ccccc3C)[nH+]2)cc1 (3D coordinates assigned)
Cc1ccc(NCc2coc(-c3ccccc3C)[nH+]2)cc1 (optimized conformer: 74.40970329237972 kcal/mol)

>  <smiles>  (14) 
Cc1ccc(NCc2coc(-c3ccccc3C)n2)cc1

>  <score_type>  (14) 
oracle

>  <origin>  (14) 
adg

>  <m_score__min__energy>  (14) 
-6.2199999999999998

>  <m_primary>  (14) 
energy

$$$$
14:0
     RDKit          3D

 55 58  0  0  0  0  0  0  0  0999 V2000
   59.6050   36.0720   46.4130 O   0  0  0  0  0  0  0  0  0  0  0  0
   60.0230   34.9290   46.0820 C   0  0  0  0  0  0  0  0  0  0  0  0
   59.5050   34.2860   44.9090 N   0  0  0  0  0  0  0  0  0  0  0  0
   58.7040   33.0960   44.8680 C   0  0  0  0  0  0  0  0  0  0  0  0
   58.1170   32.6340   43.6770 C   0  0  0  0  0  0  0  0  0  0  0  0
   57.3650   31.4550   43.6730 C   0  0  0  0  0  0  0  0  0  0  0  0
   57.1950   30.7100   44.8550 C   0  0  0  0  0  0  0  0  0  0  0  0
   56.4010   29.4590   44.8500 C   0  0  0  0  0  0  0  0  0  0  0  0
   55.1410   29.5150   44.8610 O   0  0  0  0  0  0  0  0  0  0  0  0
   57.0640   28.1880   44.7850 N   0  0  0  0  0  0  0  0  0  0  0  0
   58.1950   27.7680   45.5630 C   0  0  0  0  0  0  0  0  0  0  0  0
   57.9700   26.9850   46.7030 C   0  0  0  0  0  0  0  0  0  0  0  0
   59.0460   26.5330   47.4750 C   0  0  0  0  0  0  0  0  0  0  0  0
   60.3550   26.8500   47.1040 C   0  0  0  0  0  0  0  0  0  0  0  0
   60.5910   27.6100   45.9560 C   0  0  0  0  0  0  0  0  0  0  0  0
   59.5180   28.0640   45.1810 C   0  0  0  0  0  0  0  0  0  0  0  0
   57.8040   31.1660   46.0370 C   0  0  0  0  0  0  0  0  0  0  0  0
   58.5570   32.3440   46.0380 C   0  0  0  0  0  0  0  0  0  0  0  0
   61.0110   34.2280   46.9360 C   0  0  0  0  0  0  0  0  0  0  0  0
   60.8160   34.1330   48.3260 C   0  0  0  0  0  0  0  0  0  0  0  0
   61.7400   33.4540   49.1270 C   0  0  0  0  0  0  0  0  0  0  0  0
   62.8620   32.8440   48.5540 C   0  0  0  0  0  0  0  0  0  0  0  0
   63.8080   32.1090   49.4200 C   0  0  0  0  0  0  0  0  0  0  0  0
   63.5010   31.5690   50.6120 C   0  0  0  0  0  0  0  0  0  0  0  0
   62.6750   30.3570   50.8180 C   0  0  0  0  0  0  0  0  0  0  0  0
   63.0900   29.4900   51.6320 O   0  0  0  0  0  0  0  0  0  0  0  0
   61.3620   30.1600   50.1540 C   0  0  0  0  0  0  0  0  0  0  0  0
   61.2530   30.2850   48.7570 C   0  0  0  0  0  0  0  0  0  0  0  0
   60.0310   30.0650   48.1180 C   0  0  0  0  0  0  0  0  0  0  0  0
   58.9000   29.7310   48.8660 C   0  0  0  0  0  0  0  0  0  0  0  0
   58.9900   29.6190   50.2550 C   0  0  0  0  0  0  0  0  0  0  0  0
   60.2140   29.8300   50.9060 C   0  0  0  0  0  0  0  0  0  0  0  0
   60.2950   29.6920   52.2920 O   0  0  0  0  0  0  0  0  0  0  0  0
   63.0830   32.9730   47.1730 C   0  0  0  0  0  0  0  0  0  0  0  0
   62.1600   33.6470   46.3700 C   0  0  0  0  0  0  0  0  0  0  0  0
   58.2498   33.2022   42.7445 H   0  0  0  0  0  0  0  0  0  0  0  0
   56.9022   31.1067   42.7378 H   0  0  0  0  0  0  0  0  0  0  0  0
   56.9414   26.7241   46.9928 H   0  0  0  0  0  0  0  0  0  0  0  0
   58.8610   25.9277   48.3746 H   0  0  0  0  0  0  0  0  0  0  0  0
   61.1999   26.5011   47.7159 H   0  0  0  0  0  0  0  0  0  0  0  0
   61.6225   27.8521   45.6606 H   0  0  0  0  0  0  0  0  0  0  0  0
   59.7081   28.6532   44.2717 H   0  0  0  0  0  0  0  0  0  0  0  0
   57.6873   30.5918   46.9680 H   0  0  0  0  0  0  0  0  0  0  0  0
   59.0382   32.6824   46.9675 H   0  0  0  0  0  0  0  0  0  0  0  0
   59.9306   34.5960   48.7862 H   0  0  0  0  0  0  0  0  0  0  0  0
   61.5839   33.3990   50.2145 H   0  0  0  0  0  0  0  0  0  0  0  0
   64.8418   31.9953   49.0617 H   0  0  0  0  0  0  0  0  0  0  0  0
   63.8960   32.0686   51.5089 H   0  0  0  0  0  0  0  0  0  0  0  0
   62.1377   30.5583   48.1631 H   0  0  0  0  0  0  0  0  0  0  0  0
   59.9592   30.1549   47.0240 H   0  0  0  0  0  0  0  0  0  0  0  0
   57.9385   29.5562   48.3611 H   0  0  0  0  0  0  0  0  0  0  0  0
   58.0954   29.3637   50.8420 H   0  0  0  0  0  0  0  0  0  0  0  0
   61.1820   29.5430   52.7610 H   0  0  0  0  0  0  0  0  0  0  0  0
   63.9881   32.5408   46.7213 H   0  0  0  0  0  0  0  0  0  0  0  0
   62.3331   33.7240   45.2864 H   0  0  0  0  0  0  0  0  0  0  0  0
  1  2  2  0
  2  3  1  0
  3  4  1  0
  4  5  2  0
  5  6  1  0
  6  7  2  0
  7  8  1  0
  8  9  2  0
  8 10  1  0
 10 11  1  0
 11 12  2  0
 12 13  1  0
 13 14  2  0
 14 15  1  0
 15 16  2  0
  7 17  1  0
 17 18  2  0
  2 19  1  0
 19 20  2  0
 20 21  1  0
 21 22  2  0
 22 23  1  0
 23 24  2  3
 24 25  1  0
 25 26  2  0
 25 27  1  0
 27 28  2  0
 28 29  1  0
 29 30  2  0
 30 31  1  0
 31 32  2  0
 32 33  1  0
 22 34  1  0
 34 35  2  0
 18  4  1  0
 35 19  1  0
 16 11  1  0
 32 27  1  0
  5 36  1  0
  6 37  1  0
 12 38  1  0
 13 39  1  0
 14 40  1  0
 15 41  1  0
 16 42  1  0
 17 43  1  0
 18 44  1  0
 20 45  1  0
 21 46  1  0
 23 47  1  0
 24 48  1  0
 28 49  1  0
 29 50  1  0
 30 51  1  0
 31 52  1  0
 33 53  1  0
 34 54  1  0
 35 55  1  0
M  CHG  2   3  -1  10  -1
M  END
>  <UniqueID>  (15) 
11

>  <SMILES>  (15) 
O=C([N-]c1ccc(C(=O)[N-]c2ccccc2)cc1)c1ccc(C=CC(=O)c2ccccc2O)cc1

>  <Energy>  (15) 
79.37659661998343

>  <Genealogy>  (15) 
O=C([N-]c1ccc(C(=O)[N-]c2ccccc2)cc1)c1ccc(C=CC(=O)c2ccccc2O)cc1 (protonated)
O=C([N-]c1ccc(C(=O)[N-]c2ccccc2)cc1)c1ccc(C=CC(=O)c2ccccc2O)cc1 (3D coordinates assigned)
O=C([N-]c1ccc(C(=O)[N-]c2ccccc2)cc1)c1ccc(C=CC(=O)c2ccccc2O)cc1 (optimized conformer: 79.37659661998343 kcal/mol)

>  <smiles>  (15) 
O=C(Nc1ccc(C(=O)Nc2ccccc2)cc1)c1ccc(C=CC(=O)c2ccccc2O)cc1

>  <score_type>  (15) 
oracle

>  <origin>  (15) 
adg

>  <m_score__min__energy>  (15) 
-12.42

>  <m_primary>  (15) 
energy

$$$$
15:0
     RDKit          3D

 35 36  0  0  0  0  0  0  0  0999 V2000
   59.7770   33.5900   48.5570 C   0  0  0  0  0  0  0  0  0  0  0  0
   59.3070   33.6370   47.1660 N   0  0  0  0  0  0  0  0  0  0  0  0
   59.6620   34.6930   46.3740 C   0  0  0  0  0  0  0  0  0  0  0  0
   59.2290   34.7670   45.0530 C   0  0  0  0  0  0  0  0  0  0  0  0
   58.4260   33.7550   44.5370 C   0  0  0  0  0  0  0  0  0  0  0  0
   58.0530   32.6650   45.3380 C   0  0  0  0  0  0  0  0  0  0  0  0
   57.1920   31.5940   44.7680 C   0  0  0  0  0  0  0  0  0  0  0  0
   55.9370   31.6860   44.8580 O   0  0  0  0  0  0  0  0  0  0  0  0
   57.7670   30.5140   44.0820 O   0  0  0  0  0  0  0  0  0  0  0  0
   57.8850   29.2060   44.5730 C   0  0  0  0  0  0  0  0  0  0  0  0
   59.1030   28.5040   44.5310 C   0  0  0  0  0  0  0  0  0  0  0  0
   59.1850   27.1950   45.0120 C   0  0  0  0  0  0  0  0  0  0  0  0
   58.0470   26.5510   45.5140 C   0  0  0  0  0  0  0  0  0  0  0  0
   58.1750   25.1740   46.0440 C   0  0  0  0  0  0  0  0  0  0  0  0
   58.1540   24.0570   45.2950 C   0  0  0  0  0  0  0  0  0  0  0  0
   56.9800   23.7470   44.5240 C   0  0  0  0  0  0  0  0  0  0  0  0
   56.0360   23.4980   43.9030 N   0  0  0  0  0  0  0  0  0  0  0  0
   59.2310   23.0990   45.2940 C   0  0  0  0  0  0  0  0  0  0  0  0
   60.0950   22.3290   45.2960 N   0  0  0  0  0  0  0  0  0  0  0  0
   56.8290   27.2530   45.5640 C   0  0  0  0  0  0  0  0  0  0  0  0
   56.7420   28.5640   45.0840 C   0  0  0  0  0  0  0  0  0  0  0  0
   55.5130   29.2200   45.1380 O   0  0  0  0  0  0  0  0  0  0  0  0
   58.5130   32.6290   46.6770 C   0  0  0  0  0  0  0  0  0  0  0  0
   58.1940   31.6660   47.4290 O   0  0  0  0  0  0  0  0  0  0  0  0
   58.9172   33.6760   49.2377 H   0  0  0  0  0  0  0  0  0  0  0  0
   60.2935   32.6357   48.7375 H   0  0  0  0  0  0  0  0  0  0  0  0
   60.4723   34.4231   48.7375 H   0  0  0  0  0  0  0  0  0  0  0  0
   60.2963   35.4924   46.7846 H   0  0  0  0  0  0  0  0  0  0  0  0
   59.5197   35.6196   44.4217 H   0  0  0  0  0  0  0  0  0  0  0  0
   58.0811   33.8097   43.4939 H   0  0  0  0  0  0  0  0  0  0  0  0
   59.9985   28.9897   44.1160 H   0  0  0  0  0  0  0  0  0  0  0  0
   60.1496   26.6666   44.9964 H   0  0  0  0  0  0  0  0  0  0  0  0
   58.2962   25.0560   47.1309 H   0  0  0  0  0  0  0  0  0  0  0  0
   55.9366   26.7664   45.9845 H   0  0  0  0  0  0  0  0  0  0  0  0
   55.3860   30.0890   45.6450 H   0  0  0  0  0  0  0  0  0  0  0  0
  1  2  1  0
  2  3  1  0
  3  4  2  0
  4  5  1  0
  5  6  2  0
  6  7  1  0
  7  8  2  0
  7  9  1  0
  9 10  1  0
 10 11  2  0
 11 12  1  0
 12 13  2  0
 13 14  1  0
 14 15  2  3
 15 16  1  0
 16 17  3  0
 15 18  1  0
 18 19  3  0
 13 20  1  0
 20 21  2  0
 21 22  1  0
  6 23  1  0
 23 24  2  0
 23  2  1  0
 21 10  1  0
  1 25  1  0
  1 26  1  0
  1 27  1  0
  3 28  1  0
  4 29  1  0
  5 30  1  0
 11 31  1  0
 12 32  1  0
 14 33  1  0
 20 34  1  0
 22 35  1  0
M  END
>  <UniqueID>  (16) 
12

>  <SMILES>  (16) 
Cn1cccc(C(=O)Oc2ccc(C=C(C#N)C#N)cc2O)c1=O

>  <Energy>  (16) 
48.56873122069633

>  <Genealogy>  (16) 
Cn1cccc(C(=O)Oc2ccc(C=C(C#N)C#N)cc2O)c1=O (3D coordinates assigned)
Cn1cccc(C(=O)Oc2ccc(C=C(C#N)C#N)cc2O)c1=O (optimized conformer: 48.56873122069633 kcal/mol)

>  <smiles>  (16) 
Cn1cccc(C(=O)Oc2ccc(C=C(C#N)C#N)cc2O)c1=O

>  <score_type>  (16) 
oracle

>  <origin>  (16) 
adg

>  <m_score__min__energy>  (16) 
-8.5600000000000005

>  <m_primary>  (16) 
energy

$$$$
16:0
     RDKit          3D

 32 34  0  0  0  0  0  0  0  0999 V2000
   58.5210   31.9670   48.0220 O   0  0  0  0  0  0  0  0  0  0  0  0
   59.5120   32.2970   47.2980 C   0  0  0  0  0  0  0  0  0  0  0  0
   59.9310   33.7100   47.1550 C   0  0  0  0  0  0  0  0  0  0  0  0
   58.8180   34.5370   45.9510 S   0  0  0  0  0  0  0  0  0  0  0  0
   58.1680   33.1790   44.9470 C   0  0  0  0  0  0  0  0  0  0  0  0
   58.4850   33.2160   43.6330 N   0  0  0  0  0  0  0  0  0  0  0  0
   58.0580   32.2700   42.7760 C   0  0  0  0  0  0  0  0  0  0  0  0
   58.3610   32.3150   41.5520 O   0  0  0  0  0  0  0  0  0  0  0  0
   57.2750   31.2580   43.3160 C   0  0  0  0  0  0  0  0  0  0  0  0
   56.6810   30.1450   42.7220 C   0  0  0  0  0  0  0  0  0  0  0  0
   56.0370   29.4900   43.7020 N   0  0  0  0  0  0  0  0  0  0  0  0
   56.1960   30.1310   44.8660 N   0  0  0  0  0  0  0  0  0  0  0  0
   56.9600   31.2330   44.6620 C   0  0  0  0  0  0  0  0  0  0  0  0
   57.4120   32.2070   45.4860 N   0  0  0  0  0  0  0  0  0  0  0  0
   60.2740   31.3130   46.5860 N   0  0  0  0  0  0  0  0  0  0  0  0
   59.9250   29.9380   46.6990 C   0  0  0  0  0  0  0  0  0  0  0  0
   59.5770   29.2670   45.5290 C   0  0  0  0  0  0  0  0  0  0  0  0
   59.2460   27.9460   45.5770 C   0  0  0  0  0  0  0  0  0  0  0  0
   59.2590   27.2890   46.7920 C   0  0  0  0  0  0  0  0  0  0  0  0
   59.6060   27.9540   47.9700 C   0  0  0  0  0  0  0  0  0  0  0  0
   59.9480   29.3120   47.9280 C   0  0  0  0  0  0  0  0  0  0  0  0
   59.8635   34.2162   48.1293 H   0  0  0  0  0  0  0  0  0  0  0  0
   60.9703   33.7578   46.7978 H   0  0  0  0  0  0  0  0  0  0  0  0
   56.7301   29.8598   41.6607 H   0  0  0  0  0  0  0  0  0  0  0  0
   55.4990   28.6030   43.5190 H   0  0  0  0  0  0  0  0  0  0  0  0
   57.1890   32.2150   46.5050 H   0  0  0  0  0  0  0  0  0  0  0  0
   61.0960   31.6070   45.9790 H   0  0  0  0  0  0  0  0  0  0  0  0
   59.5694   29.8024   44.5681 H   0  0  0  0  0  0  0  0  0  0  0  0
   58.9712   27.4083   44.6575 H   0  0  0  0  0  0  0  0  0  0  0  0
   58.9912   26.2229   46.8324 H   0  0  0  0  0  0  0  0  0  0  0  0
   59.6108   27.4132   48.9279 H   0  0  0  0  0  0  0  0  0  0  0  0
   60.2247   29.8589   48.8414 H   0  0  0  0  0  0  0  0  0  0  0  0
  1  2  2  0
  2  3  1  0
  3  4  1  0
  4  5  1  0
  5  6  2  0
  6  7  1  0
  7  8  2  0
  7  9  1  0
  9 10  2  0
 10 11  1  0
 11 12  1  0
 12 13  2  0
 13 14  1  0
  2 15  1  0
 15 16  1  0
 16 17  2  0
 17 18  1  0
 18 19  2  0
 19 20  1  0
 20 21  2  0
 14  5  1  0
 21 16  1  0
 13  9  1  0
  3 22  1  0
  3 23  1  0
 10 24  1  0
 11 25  1  0
 14 26  1  0
 15 27  1  0
 17 28  1  0
 18 29  1  0
 19 30  1  0
 20 31  1  0
 21 32  1  0
M  END
>  <smiles>  (17) 
O=C(CSc1nc(=O)c2c[nH]nc2[nH]1)Nc1ccccc1

>  <score_type>  (17) 
oracle

>  <origin>  (17) 
adg

>  <m_score__min__energy>  (17) 
-7.1900000000000004

>  <m_primary>  (17) 
energy

$$$$
17:0
     RDKit          3D

 51 53  0  0  0  0  0  0  0  0999 V2000
   59.7860   30.3450   49.8360 C   0  0  0  0  0  0  0  0  0  0  0  0
   60.9760   30.3770   49.0570 O   0  0  0  0  0  0  0  0  0  0  0  0
   61.0420   31.0000   47.8060 C   0  0  0  0  0  0  0  0  0  0  0  0
   61.5620   30.3970   46.8270 O   0  0  0  0  0  0  0  0  0  0  0  0
   60.5090   32.3700   47.6370 C   0  0  0  0  0  0  0  0  0  0  0  0
   60.4790   33.2580   48.7250 C   0  0  0  0  0  0  0  0  0  0  0  0
   60.0160   34.5660   48.5590 C   0  0  0  0  0  0  0  0  0  0  0  0
   59.5800   35.0030   47.3070 C   0  0  0  0  0  0  0  0  0  0  0  0
   59.5820   34.1250   46.2140 C   0  0  0  0  0  0  0  0  0  0  0  0
   59.1220   34.6050   44.8630 C   0  0  0  0  0  0  0  0  0  0  0  0
   58.7230   33.4740   44.0130 N   0  0  0  0  0  0  0  0  0  0  0  0
   57.4120   32.9160   44.3880 C   0  0  0  0  0  0  0  0  0  0  0  0
   57.5310   31.4510   44.7180 C   0  0  0  0  0  0  0  0  0  0  0  0
   57.7840   31.0330   46.0340 C   0  0  0  0  0  0  0  0  0  0  0  0
   57.8430   29.6720   46.3440 C   0  0  0  0  0  0  0  0  0  0  0  0
   57.6380   28.7080   45.3450 C   0  0  0  0  0  0  0  0  0  0  0  0
   57.6290   27.2690   45.6930 C   0  0  0  0  0  0  0  0  0  0  0  0
   56.4070   26.5780   45.6300 C   0  0  0  0  0  0  0  0  0  0  0  0
   56.3470   25.2120   45.9070 C   0  0  0  0  0  0  0  0  0  0  0  0
   57.5050   24.5180   46.2530 C   0  0  0  0  0  0  0  0  0  0  0  0
   58.7260   25.1890   46.3330 C   0  0  0  0  0  0  0  0  0  0  0  0
   58.8040   26.5670   46.0710 C   0  0  0  0  0  0  0  0  0  0  0  0
   60.3700   27.3710   46.2630 S   0  0  0  0  0  0  0  0  0  0  0  0
   60.4030   28.2570   47.7490 N   0  0  0  0  0  0  0  0  0  0  0  0
   61.4670   26.3440   46.2770 O   0  0  0  0  0  0  0  0  0  0  0  0
   60.5980   28.3340   45.1330 O   0  0  0  0  0  0  0  0  0  0  0  0
   57.3680   29.1240   44.0330 C   0  0  0  0  0  0  0  0  0  0  0  0
   57.3210   30.4860   43.7210 C   0  0  0  0  0  0  0  0  0  0  0  0
   60.0420   32.8090   46.3850 C   0  0  0  0  0  0  0  0  0  0  0  0
   60.0470   30.3520   50.9046 H   0  0  0  0  0  0  0  0  0  0  0  0
   59.1713   31.2269   49.6029 H   0  0  0  0  0  0  0  0  0  0  0  0
   59.2196   29.4313   49.6029 H   0  0  0  0  0  0  0  0  0  0  0  0
   60.8223   32.9215   49.7144 H   0  0  0  0  0  0  0  0  0  0  0  0
   59.9951   35.2534   49.4175 H   0  0  0  0  0  0  0  0  0  0  0  0
   59.2339   36.0391   47.1776 H   0  0  0  0  0  0  0  0  0  0  0  0
   58.2621   35.2785   44.9935 H   0  0  0  0  0  0  0  0  0  0  0  0
   59.9540   35.1346   44.3759 H   0  0  0  0  0  0  0  0  0  0  0  0
   58.6400   33.8400   43.0350 H   0  0  0  0  0  0  0  0  0  0  0  0
   57.0288   33.4542   45.2675 H   0  0  0  0  0  0  0  0  0  0  0  0
   56.7225   33.0321   43.5389 H   0  0  0  0  0  0  0  0  0  0  0  0
   57.9367   31.7813   46.8257 H   0  0  0  0  0  0  0  0  0  0  0  0
   58.0512   29.3545   47.3764 H   0  0  0  0  0  0  0  0  0  0  0  0
   55.4886   27.1196   45.3596 H   0  0  0  0  0  0  0  0  0  0  0  0
   55.3846   24.6821   45.8523 H   0  0  0  0  0  0  0  0  0  0  0  0
   57.4565   23.4394   46.4634 H   0  0  0  0  0  0  0  0  0  0  0  0
   59.6361   24.6336   46.6038 H   0  0  0  0  0  0  0  0  0  0  0  0
   61.4000   28.5120   47.9300 H   0  0  0  0  0  0  0  0  0  0  0  0
   59.8880   29.1500   47.5820 H   0  0  0  0  0  0  0  0  0  0  0  0
   57.1925   28.3755   43.2463 H   0  0  0  0  0  0  0  0  0  0  0  0
   57.1181   30.8032   42.6875 H   0  0  0  0  0  0  0  0  0  0  0  0
   60.0370   32.1150   45.5316 H   0  0  0  0  0  0  0  0  0  0  0  0
  1  2  1  0
  2  3  1  0
  3  4  2  0
  3  5  1  0
  5  6  2  0
  6  7  1  0
  7  8  2  0
  8  9  1  0
  9 10  1  0
 10 11  1  0
 11 12  1  0
 12 13  1  0
 13 14  2  0
 14 15  1  0
 15 16  2  0
 16 17  1  0
 17 18  2  0
 18 19  1  0
 19 20  2  0
 20 21  1  0
 21 22  2  0
 22 23  1  0
 23 24  1  0
 23 25  2  0
 23 26  2  0
 16 27  1  0
 27 28  2  0
  9 29  2  0
 29  5  1  0
 28 13  1  0
 22 17  1  0
  1 30  1  0
  1 31  1  0
  1 32  1  0
  6 33  1  0
  7 34  1  0
  8 35  1  0
 10 36  1  0
 10 37  1  0
 11 38  1  0
 12 39  1  0
 12 40  1  0
 14 41  1  0
 15 42  1  0
 18 43  1  0
 19 44  1  0
 20 45  1  0
 21 46  1  0
 24 47  1  0
 24 48  1  0
 27 49  1  0
 28 50  1  0
 29 51  1  0
M  END
>  <UniqueID>  (18) 
13

>  <SMILES>  (18) 
COC(=O)c1cccc(CNCc2ccc(-c3ccccc3S(N)(=O)=O)cc2)c1

>  <Energy>  (18) 
54.97597525915694

>  <Genealogy>  (18) 
COC(=O)c1cccc(CNCc2ccc(-c3ccccc3S(N)(=O)=O)cc2)c1 (3D coordinates assigned)
COC(=O)c1cccc(CNCc2ccc(-c3ccccc3S(N)(=O)=O)cc2)c1 (optimized conformer: 54.97597525915694 kcal/mol)

>  <smiles>  (18) 
COC(=O)c1cccc(CNCc2ccc(-c3ccccc3S(N)(=O)=O)cc2)c1

>  <score_type>  (18) 
oracle

>  <origin>  (18) 
adg

>  <m_score__min__energy>  (18) 
-9.8599999999999994

>  <m_primary>  (18) 
energy

$$$$
18:0
     RDKit          3D

 45 47  0  0  0  0  0  0  0  0999 V2000
   57.6167   32.0312   42.4801 H   0  0  0  0  0  0  0  0  0  0  0  0
   57.3150   31.3310   43.2730 C   0  0  0  0  0  0  0  0  0  0  0  0
   56.5620   29.8450   43.0430 S   0  0  0  0  0  0  0  0  0  0  0  0
   56.5060   29.4890   44.6850 C   0  0  0  0  0  0  0  0  0  0  0  0
   55.9790   28.4390   45.2440 N   0  0  0  0  0  0  0  0  0  0  0  0
   56.6250   27.3510   45.9270 C   0  0  0  0  0  0  0  0  0  0  0  0
   56.1100   26.2050   45.8320 O   0  0  0  0  0  0  0  0  0  0  0  0
   57.8870   27.5360   46.7450 C   0  0  0  0  0  0  0  0  0  0  0  0
   58.0236   26.6455   47.3761 H   0  0  0  0  0  0  0  0  0  0  0  0
   57.7528   28.4558   47.3331 H   0  0  0  0  0  0  0  0  0  0  0  0
   59.1600   27.7300   45.8990 C   0  0  0  0  0  0  0  0  0  0  0  0
   58.9194   27.5061   44.8492 H   0  0  0  0  0  0  0  0  0  0  0  0
   59.9262   27.0512   46.3017 H   0  0  0  0  0  0  0  0  0  0  0  0
   59.7260   29.1510   45.9760 C   0  0  0  0  0  0  0  0  0  0  0  0
   59.0128   29.8505   45.5155 H   0  0  0  0  0  0  0  0  0  0  0  0
   60.6861   29.1818   45.4400 H   0  0  0  0  0  0  0  0  0  0  0  0
   59.9430   29.5280   47.3350 O   0  0  0  0  0  0  0  0  0  0  0  0
   60.5580   30.7220   47.7470 C   0  0  0  0  0  0  0  0  0  0  0  0
   61.7020   31.2330   47.1050 C   0  0  0  0  0  0  0  0  0  0  0  0
   62.1294   30.7005   46.2426 H   0  0  0  0  0  0  0  0  0  0  0  0
   62.2960   32.4110   47.5570 C   0  0  0  0  0  0  0  0  0  0  0  0
   63.1948   32.8001   47.0563 H   0  0  0  0  0  0  0  0  0  0  0  0
   61.7500   33.0990   48.6470 C   0  0  0  0  0  0  0  0  0  0  0  0
   62.2229   34.0262   49.0028 H   0  0  0  0  0  0  0  0  0  0  0  0
   60.6050   32.6110   49.2850 C   0  0  0  0  0  0  0  0  0  0  0  0
   60.1763   33.1573   50.1381 H   0  0  0  0  0  0  0  0  0  0  0  0
   60.0000   31.4200   48.8360 C   0  0  0  0  0  0  0  0  0  0  0  0
   58.8380   30.9070   49.4300 O   0  0  0  0  0  0  0  0  0  0  0  0
   58.8010   29.7750   50.2910 C   0  0  0  0  0  0  0  0  0  0  0  0
   58.8120   30.1106   51.3385 H   0  0  0  0  0  0  0  0  0  0  0  0
   57.8835   29.1990   50.1001 H   0  0  0  0  0  0  0  0  0  0  0  0
   59.6789   29.1403   50.1001 H   0  0  0  0  0  0  0  0  0  0  0  0
   57.0360   30.4920   45.4170 N   0  0  0  0  0  0  0  0  0  0  0  0
   57.4910   31.5220   44.6460 C   0  0  0  0  0  0  0  0  0  0  0  0
   58.1030   32.7350   45.2590 C   0  0  0  0  0  0  0  0  0  0  0  0
   57.9600   32.9720   46.6430 C   0  0  0  0  0  0  0  0  0  0  0  0
   57.4055   32.2528   47.2637 H   0  0  0  0  0  0  0  0  0  0  0  0
   58.5170   34.1140   47.2350 C   0  0  0  0  0  0  0  0  0  0  0  0
   58.3962   34.2862   48.3147 H   0  0  0  0  0  0  0  0  0  0  0  0
   59.2250   35.0340   46.4580 C   0  0  0  0  0  0  0  0  0  0  0  0
   59.6618   35.9293   46.9246 H   0  0  0  0  0  0  0  0  0  0  0  0
   59.3770   34.8140   45.0860 C   0  0  0  0  0  0  0  0  0  0  0  0
   59.9338   35.5386   44.4736 H   0  0  0  0  0  0  0  0  0  0  0  0
   58.8230   33.6740   44.4870 C   0  0  0  0  0  0  0  0  0  0  0  0
   58.9500   33.5092   43.4069 H   0  0  0  0  0  0  0  0  0  0  0  0
  1  2  1  0
  2  3  1  0
  3  4  1  0
  4  5  2  0
  5  6  1  0
  6  7  2  0
  6  8  1  0
  8  9  1  0
  8 10  1  0
  8 11  1  0
 11 12  1  0
 11 13  1  0
 11 14  1  0
 14 15  1  0
 14 16  1  0
 14 17  1  0
 17 18  1  0
 18 19  2  0
 19 20  1  0
 19 21  1  0
 21 22  1  0
 21 23  2  0
 23 24  1  0
 23 25  1  0
 25 26  1  0
 25 27  2  0
 27 28  1  0
 28 29  1  0
 29 30  1  0
 29 31  1  0
 29 32  1  0
  4 33  1  0
 33 34  1  0
 34 35  1  0
 35 36  2  0
 36 37  1  0
 36 38  1  0
 38 39  1  0
 38 40  2  0
 40 41  1  0
 40 42  1  0
 42 43  1  0
 42 44  2  0
 44 45  1  0
 34  2  2  0
 44 35  1  0
 27 18  1  0
M  CHG  1  33  -1
M  END
>  <UniqueID>  (19) 
14

>  <SMILES>  (19) 
COc1ccccc1OCCCC(=O)/N=c1/[n-]c(-c2ccccc2)cs1

>  <Energy>  (19) 
82.29982744669474

>  <Genealogy>  (19) 
COc1ccccc1OCCCC(=O)N=c1[n-]c(-c2ccccc2)cs1 (protonated)
COc1ccccc1OCCCC(=O)/N=c1/[n-]c(-c2ccccc2)cs1 (cis-trans isomerization)
COc1ccccc1OCCCC(=O)/N=c1/[n-]c(-c2ccccc2)cs1 (3D coordinates assigned)
COc1ccccc1OCCCC(=O)/N=c1/[n-]c(-c2ccccc2)cs1 (optimized conformer: 82.29982744669474 kcal/mol)

>  <smiles>  (19) 
COc1ccccc1OCCCC(=O)N=c1[nH]c(-c2ccccc2)cs1

>  <score_type>  (19) 
oracle

>  <origin>  (19) 
adg

>  <m_score__min__energy>  (19) 
-10.1

>  <m_primary>  (19) 
energy

$$$$
19:0
     RDKit          3D

 29 30  0  0  0  0  0  0  0  0999 V2000
   61.3440   30.5520   46.3930 O   0  0  0  0  0  0  0  0  0  0  0  0
   60.2790   29.9220   46.6390 C   0  0  0  0  0  0  0  0  0  0  0  0
   59.4270   30.3360   47.7910 C   0  0  0  0  0  0  0  0  0  0  0  0
   59.9500   31.9850   48.3610 S   0  0  0  0  0  0  0  0  0  0  0  0
   59.1670   32.8390   46.9920 C   0  0  0  0  0  0  0  0  0  0  0  0
   59.8150   33.9140   46.3710 C   0  0  0  0  0  0  0  0  0  0  0  0
   59.2050   34.5780   45.3030 C   0  0  0  0  0  0  0  0  0  0  0  0
   57.9450   34.1690   44.8530 C   0  0  0  0  0  0  0  0  0  0  0  0
   57.2970   33.0940   45.4700 C   0  0  0  0  0  0  0  0  0  0  0  0
   57.9070   32.4280   46.5380 C   0  0  0  0  0  0  0  0  0  0  0  0
   59.8860   28.8290   45.8570 O   0  0  0  0  0  0  0  0  0  0  0  0
   58.6320   28.2000   45.9140 C   0  0  0  0  0  0  0  0  0  0  0  0
   58.4610   26.9100   46.4500 C   0  0  0  0  0  0  0  0  0  0  0  0
   57.1940   26.3190   46.4730 C   0  0  0  0  0  0  0  0  0  0  0  0
   56.0910   27.0030   45.9540 C   0  0  0  0  0  0  0  0  0  0  0  0
   54.8330   26.4110   45.9820 O   0  0  0  0  0  0  0  0  0  0  0  0
   56.2570   28.2790   45.4030 C   0  0  0  0  0  0  0  0  0  0  0  0
   55.1660   28.9610   44.8780 O   0  0  0  0  0  0  0  0  0  0  0  0
   57.5240   28.8700   45.3790 C   0  0  0  0  0  0  0  0  0  0  0  0
   58.3739   30.3728   47.4752 H   0  0  0  0  0  0  0  0  0  0  0  0
   59.5356   29.6102   48.6104 H   0  0  0  0  0  0  0  0  0  0  0  0
   60.8056   34.2363   46.7243 H   0  0  0  0  0  0  0  0  0  0  0  0
   59.7156   35.4221   44.8163 H   0  0  0  0  0  0  0  0  0  0  0  0
   57.4639   34.6929   44.0139 H   0  0  0  0  0  0  0  0  0  0  0  0
   56.3069   32.7721   45.1150 H   0  0  0  0  0  0  0  0  0  0  0  0
   57.3974   31.5815   47.0215 H   0  0  0  0  0  0  0  0  0  0  0  0
   59.3274   26.3646   46.8524 H   0  0  0  0  0  0  0  0  0  0  0  0
   57.0650   25.3137   46.9004 H   0  0  0  0  0  0  0  0  0  0  0  0
   57.6518   29.8689   44.9365 H   0  0  0  0  0  0  0  0  0  0  0  0
  1  2  2  0
  2  3  1  0
  3  4  1  0
  4  5  1  0
  5  6  2  0
  6  7  1  0
  7  8  2  0
  8  9  1  0
  9 10  2  0
  2 11  1  0
 11 12  1  0
 12 13  2  0
 13 14  1  0
 14 15  2  0
 15 16  1  0
 15 17  1  0
 17 18  1  0
 17 19  2  0
 10  5  1  0
 19 12  1  0
  3 20  1  0
  3 21  1  0
  6 22  1  0
  7 23  1  0
  8 24  1  0
  9 25  1  0
 10 26  1  0
 13 27  1  0
 14 28  1  0
 19 29  1  0
M  CHG  2  16  -1  18  -1
M  END
>  <UniqueID>  (20) 
15

>  <SMILES>  (20) 
O=C(CSc1ccccc1)Oc1ccc([O-])c([O-])c1

>  <Energy>  (20) 
29.161729308830626

>  <Genealogy>  (20) 
O=C(CSc1ccccc1)Oc1ccc([O-])c([O-])c1 (protonated)
O=C(CSc1ccccc1)Oc1ccc([O-])c([O-])c1 (3D coordinates assigned)
O=C(CSc1ccccc1)Oc1ccc([O-])c([O-])c1 (optimized conformer: 29.161729308830626 kcal/mol)

>  <smiles>  (20) 
O=C(CSc1ccccc1)Oc1ccc(O)c(O)c1

>  <score_type>  (20) 
oracle

>  <origin>  (20) 
adg

>  <m_score__min__energy>  (20) 
-14.130000000000001

>  <m_primary>  (20) 
energy

$$$$
20:0
     RDKit          3D

 52 55  0  0  0  0  0  0  0  0999 V2000
   60.7880   26.4810   46.8250 C   0  0  0  0  0  0  0  0  0  0  0  0
   59.7620   27.3950   46.2070 C   0  0  0  0  0  0  0  0  0  0  0  0
   59.2730   27.0960   44.9250 C   0  0  0  0  0  0  0  0  0  0  0  0
   58.2630   27.8700   44.3500 C   0  0  0  0  0  0  0  0  0  0  0  0
   57.7460   28.9770   45.0340 C   0  0  0  0  0  0  0  0  0  0  0  0
   56.4710   29.9590   44.3110 S   0  0  0  0  0  0  0  0  0  0  0  0
   56.5440   29.8930   42.8100 O   0  0  0  0  0  0  0  0  0  0  0  0
   55.1430   29.4070   44.7440 O   0  0  0  0  0  0  0  0  0  0  0  0
   56.5860   31.6070   44.8470 N   0  0  0  0  0  0  0  0  0  0  0  0
   57.6350   32.5200   44.5020 C   0  0  0  0  0  0  0  0  0  0  0  0
   57.9860   32.6110   43.2960 O   0  0  0  0  0  0  0  0  0  0  0  0
   58.3120   33.3550   45.5040 C   0  0  0  0  0  0  0  0  0  0  0  0
   59.0830   34.4570   45.0970 C   0  0  0  0  0  0  0  0  0  0  0  0
   59.7290   35.2520   46.0490 C   0  0  0  0  0  0  0  0  0  0  0  0
   59.6230   34.9450   47.4070 C   0  0  0  0  0  0  0  0  0  0  0  0
   58.8820   33.8320   47.8160 C   0  0  0  0  0  0  0  0  0  0  0  0
   58.2360   33.0340   46.8680 C   0  0  0  0  0  0  0  0  0  0  0  0
   58.2400   29.2970   46.3050 C   0  0  0  0  0  0  0  0  0  0  0  0
   59.2520   28.5260   46.8970 C   0  0  0  0  0  0  0  0  0  0  0  0
   59.6710   28.8440   48.2330 N   0  0  0  0  0  0  0  0  0  0  0  0
   60.0530   30.1600   48.6440 C   0  0  0  0  0  0  0  0  0  0  0  0
   59.8250   30.5440   49.8240 O   0  0  0  0  0  0  0  0  0  0  0  0
   60.7130   31.0830   47.6690 C   0  0  0  0  0  0  0  0  0  0  0  0
   61.9870   31.6620   48.2280 C   0  0  0  0  0  0  0  0  0  0  0  0
   62.5060   31.1570   49.3870 N   0  0  0  0  0  0  0  0  0  0  0  0
   63.6840   31.6230   49.8930 C   0  0  0  0  0  0  0  0  0  0  0  0
   64.2310   31.0810   51.0670 C   0  0  0  0  0  0  0  0  0  0  0  0
   65.4530   31.5590   51.5610 C   0  0  0  0  0  0  0  0  0  0  0  0
   66.1110   30.8450   53.0280 Cl  0  0  0  0  0  0  0  0  0  0  0  0
   66.1310   32.5880   50.8820 C   0  0  0  0  0  0  0  0  0  0  0  0
   67.6690   33.2030   51.4690 Cl  0  0  0  0  0  0  0  0  0  0  0  0
   65.5830   33.1350   49.7140 C   0  0  0  0  0  0  0  0  0  0  0  0
   64.3660   32.6550   49.2190 C   0  0  0  0  0  0  0  0  0  0  0  0
   63.8320   33.1750   48.0820 N   0  0  0  0  0  0  0  0  0  0  0  0
   62.6640   32.7100   47.5730 C   0  0  0  0  0  0  0  0  0  0  0  0
   62.2040   33.2190   46.5150 O   0  0  0  0  0  0  0  0  0  0  0  0
   60.7201   26.5415   47.9212 H   0  0  0  0  0  0  0  0  0  0  0  0
   60.5991   25.4464   46.5025 H   0  0  0  0  0  0  0  0  0  0  0  0
   61.7939   26.7877   46.5025 H   0  0  0  0  0  0  0  0  0  0  0  0
   59.6897   26.2437   44.3683 H   0  0  0  0  0  0  0  0  0  0  0  0
   57.8719   27.6090   43.3556 H   0  0  0  0  0  0  0  0  0  0  0  0
   59.1786   34.6948   44.0273 H   0  0  0  0  0  0  0  0  0  0  0  0
   60.3218   36.1210   45.7274 H   0  0  0  0  0  0  0  0  0  0  0  0
   60.1223   35.5786   48.1549 H   0  0  0  0  0  0  0  0  0  0  0  0
   58.8075   33.5843   48.8852 H   0  0  0  0  0  0  0  0  0  0  0  0
   57.6658   32.1509   47.1922 H   0  0  0  0  0  0  0  0  0  0  0  0
   57.8298   30.1629   46.8454 H   0  0  0  0  0  0  0  0  0  0  0  0
   60.9476   30.5241   46.7510 H   0  0  0  0  0  0  0  0  0  0  0  0
   60.0217   31.9123   47.4583 H   0  0  0  0  0  0  0  0  0  0  0  0
   62.0000   30.3890   49.8830 H   0  0  0  0  0  0  0  0  0  0  0  0
   63.6995   30.2793   51.6006 H   0  0  0  0  0  0  0  0  0  0  0  0
   66.1106   33.9429   49.1858 H   0  0  0  0  0  0  0  0  0  0  0  0
  1  2  1  0
  2  3  2  0
  3  4  1  0
  4  5  2  0
  5  6  1  0
  6  7  2  0
  6  8  2  0
  6  9  1  0
  9 10  1  0
 10 11  2  0
 10 12  1  0
 12 13  2  0
 13 14  1  0
 14 15  2  0
 15 16  1  0
 16 17  2  0
  5 18  1  0
 18 19  2  0
 19 20  1  0
 20 21  1  0
 21 22  2  0
 21 23  1  0
 23 24  1  0
 24 25  2  0
 25 26  1  0
 26 27  2  0
 27 28  1  0
 28 29  1  0
 28 30  2  0
 30 31  1  0
 30 32  1  0
 32 33  2  0
 33 34  1  0
 34 35  1  0
 35 36  2  0
 19  2  1  0
 35 24  1  0
 17 12  1  0
 33 26  1  0
  1 37  1  0
  1 38  1  0
  1 39  1  0
  3 40  1  0
  4 41  1  0
 13 42  1  0
 14 43  1  0
 15 44  1  0
 16 45  1  0
 17 46  1  0
 18 47  1  0
 23 48  1  0
 23 49  1  0
 25 50  1  0
 27 51  1  0
 32 52  1  0
M  CHG  4   9  -1  20  -1  25   1  34  -1
M  END
>  <UniqueID>  (21) 
16

>  <SMILES>  (21) 
Cc1ccc(S(=O)(=O)[N-]C(=O)c2ccccc2)cc1[N-]C(=O)Cc1[nH+]c2cc(Cl)c(Cl)cc2[n-]c1=O

>  <Energy>  (21) 
76.99686841633425

>  <Genealogy>  (21) 
Cc1ccc(S(=O)(=O)[N-]C(=O)c2ccccc2)cc1[N-]C(=O)Cc1[nH+]c2cc(Cl)c(Cl)cc2[n-]c1=O (protonated)
Cc1ccc(S(=O)(=O)[N-]C(=O)c2ccccc2)cc1[N-]C(=O)Cc1[nH+]c2cc(Cl)c(Cl)cc2[n-]c1=O (3D coordinates assigned)
Cc1ccc(S(=O)(=O)[N-]C(=O)c2ccccc2)cc1[N-]C(=O)Cc1[nH+]c2cc(Cl)c(Cl)cc2[n-]c1=O (optimized conformer: 76.99686841633425 kcal/mol)

>  <smiles>  (21) 
Cc1ccc(S(=O)(=O)NC(=O)c2ccccc2)cc1NC(=O)Cc1nc2cc(Cl)c(Cl)cc2[nH]c1=O

>  <score_type>  (21) 
oracle

>  <origin>  (21) 
adg

>  <m_score__min__energy>  (21) 
-12.56

>  <m_primary>  (21) 
energy

$$$$
21:0
     RDKit          3D

 83 84  0  0  0  0  0  0  0  0999 V2000
   64.4950   31.7190   47.0230 H   0  0  0  0  0  0  0  0  0  0  0  0
   64.1440   32.3930   46.3820 O   0  0  0  0  0  0  0  0  0  0  0  0
   63.5660   33.4380   47.1230 C   0  0  1  0  0  0  0  0  0  0  0  0
   64.2378   34.3090   47.1340 H   0  0  0  0  0  0  0  0  0  0  0  0
   57.0220   28.9720   44.3010 C   0  0  0  0  0  0  0  0  0  0  0  0
   56.3686   28.6979   45.1424 H   0  0  0  0  0  0  0  0  0  0  0  0
   62.2740   33.8890   46.4690 C   0  0  0  0  0  0  0  0  0  0  0  0
   55.8991   29.9829   42.6754 H   0  0  0  0  0  0  0  0  0  0  0  0
   58.5490   27.0520   47.4930 C   0  0  0  0  0  0  0  0  0  0  0  0
   56.6660   30.1200   43.4520 C   0  0  0  0  0  0  0  0  0  0  0  0
   57.9506   31.4672   48.7070 H   0  0  0  0  0  0  0  0  0  0  0  0
   57.1120   32.0830   44.8510 C   0  0  0  0  0  0  0  0  0  0  0  0
   56.4154   31.7003   45.6114 H   0  0  0  0  0  0  0  0  0  0  0  0
   60.0340   31.2070   48.5880 C   0  0  0  0  0  0  0  0  0  0  0  0
   60.9127   31.8644   48.6636 H   0  0  0  0  0  0  0  0  0  0  0  0
   59.7500   34.1990   46.3380 C   0  0  0  0  0  0  0  0  0  0  0  0
   57.7940   33.2050   45.1310 C   0  0  0  0  0  0  0  0  0  0  0  0
   57.6660   34.0680   44.4611 H   0  0  0  0  0  0  0  0  0  0  0  0
   57.2380   31.3290   43.5850 C   0  0  0  0  0  0  0  0  0  0  0  0
   58.6563   28.3736   43.1122 H   0  0  0  0  0  0  0  0  0  0  0  0
   58.6280   27.3160   45.0880 C   0  0  0  0  0  0  0  0  0  0  0  0
   59.6460   26.9168   44.9682 H   0  0  0  0  0  0  0  0  0  0  0  0
   57.9100   26.9190   46.1560 C   0  0  0  0  0  0  0  0  0  0  0  0
   62.3712   34.4532   45.5297 H   0  0  0  0  0  0  0  0  0  0  0  0
   58.1220   28.2600   44.0670 C   0  0  0  0  0  0  0  0  0  0  0  0
   61.0200   33.6740   46.9130 C   0  0  0  0  0  0  0  0  0  0  0  0
   60.9228   33.0364   47.8041 H   0  0  0  0  0  0  0  0  0  0  0  0
   58.9160   31.5540   49.2270 C   0  0  0  0  0  0  0  0  0  0  0  0
   57.9405   26.7488   48.3577 H   0  0  0  0  0  0  0  0  0  0  0  0
   58.7050   33.3510   46.2830 C   0  0  0  0  0  0  0  0  0  0  0  0
   58.5162   32.7193   47.1635 H   0  0  0  0  0  0  0  0  0  0  0  0
   60.1370   29.9690   47.7800 C   0  0  0  0  0  0  0  0  0  0  0  0
   60.1090   28.7870   48.4240 C   0  0  0  0  0  0  0  0  0  0  0  0
   60.3383   28.7751   49.4998 H   0  0  0  0  0  0  0  0  0  0  0  0
   59.7860   27.5010   47.7620 C   0  0  0  0  0  0  0  0  0  0  0  0
   60.6300   26.8606   47.4662 H   0  0  0  0  0  0  0  0  0  0  0  0
   58.9450   32.0550   50.6250 C   0  0  0  0  0  0  0  0  0  0  0  0
   59.2290   33.3700   50.8360 C   0  0  0  0  0  0  0  0  0  0  0  0
   59.6500   34.2660   49.6940 C   0  0  0  0  0  0  0  0  0  0  0  0
   60.0854   35.1926   50.0963 H   0  0  0  0  0  0  0  0  0  0  0  0
   60.3984   33.7468   49.0773 H   0  0  0  0  0  0  0  0  0  0  0  0
   58.7726   34.5107   49.0773 H   0  0  0  0  0  0  0  0  0  0  0  0
   59.2630   33.9690   52.2230 C   0  0  0  0  0  0  0  0  0  0  0  0
   60.3000   33.9494   52.5894 H   0  0  0  0  0  0  0  0  0  0  0  0
   58.8763   34.9962   52.1507 H   0  0  0  0  0  0  0  0  0  0  0  0
   58.3820   33.2140   53.2120 C   0  0  0  0  0  0  0  0  0  0  0  0
   58.5634   33.5926   54.2287 H   0  0  0  0  0  0  0  0  0  0  0  0
   57.3240   33.3627   52.9503 H   0  0  0  0  0  0  0  0  0  0  0  0
   58.7170   31.7300   53.1550 C   0  0  0  0  0  0  0  0  0  0  0  0
   59.7805   31.5960   53.4021 H   0  0  0  0  0  0  0  0  0  0  0  0
   58.0724   31.2077   53.8773 H   0  0  0  0  0  0  0  0  0  0  0  0
   58.4490   31.1280   51.7490 C   0  0  0  0  0  0  0  0  0  0  0  0
   59.1620   29.7620   51.6930 C   0  0  0  0  0  0  0  0  0  0  0  0
   59.3490   29.4038   52.7161 H   0  0  0  0  0  0  0  0  0  0  0  0
   58.5266   29.0383   51.1615 H   0  0  0  0  0  0  0  0  0  0  0  0
   60.1190   29.8694   51.1615 H   0  0  0  0  0  0  0  0  0  0  0  0
   56.9330   30.8940   51.5620 C   0  0  0  0  0  0  0  0  0  0  0  0
   56.4493   30.8193   52.5471 H   0  0  0  0  0  0  0  0  0  0  0  0
   56.4983   31.7357   51.0029 H   0  0  0  0  0  0  0  0  0  0  0  0
   56.7723   29.9604   51.0029 H   0  0  0  0  0  0  0  0  0  0  0  0
   60.2940   30.0620   46.2810 C   0  0  0  0  0  0  0  0  0  0  0  0
   61.2179   30.6093   46.0423 H   0  0  0  0  0  0  0  0  0  0  0  0
   60.3470   29.0495   45.8544 H   0  0  0  0  0  0  0  0  0  0  0  0
   59.4315   30.5950   45.8544 H   0  0  0  0  0  0  0  0  0  0  0  0
   56.5900   26.2090   45.9760 C   0  0  0  0  0  0  0  0  0  0  0  0
   56.1605   25.9780   46.9620 H   0  0  0  0  0  0  0  0  0  0  0  0
   55.8984   26.8568   45.4174 H   0  0  0  0  0  0  0  0  0  0  0  0
   56.7493   25.2749   45.4174 H   0  0  0  0  0  0  0  0  0  0  0  0
   59.6750   35.6040   45.7890 C   0  0  0  0  0  0  0  0  0  0  0  0
   59.6367   36.3215   46.6219 H   0  0  0  0  0  0  0  0  0  0  0  0
   60.5637   35.8048   45.1726 H   0  0  0  0  0  0  0  0  0  0  0  0
   58.7700   35.7090   45.1726 H   0  0  0  0  0  0  0  0  0  0  0  0
   57.9310   32.0010   42.4300 C   0  0  0  0  0  0  0  0  0  0  0  0
   58.6711   32.7187   42.8137 H   0  0  0  0  0  0  0  0  0  0  0  0
   58.4394   31.2429   41.8161 H   0  0  0  0  0  0  0  0  0  0  0  0
   57.1889   32.5325   41.8161 H   0  0  0  0  0  0  0  0  0  0  0  0
   63.3760   33.0030   48.5550 C   0  0  0  0  0  0  0  0  0  0  0  0
   63.4160   31.7070   48.9390 N   0  0  0  0  0  0  0  0  0  0  0  0
   63.1340   31.5540   50.2620 C   0  0  0  0  0  0  0  0  0  0  0  0
   63.1304   30.5702   50.7541 H   0  0  0  0  0  0  0  0  0  0  0  0
   62.8510   32.7300   50.9460 C   0  0  0  0  0  0  0  0  0  0  0  0
   62.6077   32.8155   52.0153 H   0  0  0  0  0  0  0  0  0  0  0  0
   62.9470   33.9990   49.8470 S   0  0  0  0  0  0  0  0  0  0  0  0
  1  2  1  0
  2  3  1  0
  3  4  1  1
  3  5  1  0
  5  6  1  0
  5  7  2  3
  7  8  1  0
  7  9  1  0
  9 10  2  3
 10 11  1  0
 10 12  1  0
 12 13  1  0
 12 14  2  0
 14 15  1  0
 14 16  1  0
 16 17  2  0
 17 18  1  0
 17 19  1  0
 19 20  1  0
 19 21  2  3
 21 22  1  0
 21 23  1  0
 23 24  1  0
 23 25  2  3
 25 26  1  0
 26 27  1  0
 26 28  2  3
 28 29  1  0
 28 30  1  0
 30 31  1  0
 30 32  2  0
 32 33  1  0
 33 34  1  0
 33 35  2  0
 35 36  1  0
 35 37  1  0
 37 38  2  0
 38 39  1  0
 39 40  1  0
 39 41  1  0
 39 42  1  0
 38 43  1  0
 43 44  1  0
 43 45  1  0
 43 46  1  0
 46 47  1  0
 46 48  1  0
 46 49  1  0
 49 50  1  0
 49 51  1  0
 49 52  1  0
 52 53  1  0
 53 54  1  0
 53 55  1  0
 53 56  1  0
 52 57  1  0
 57 58  1  0
 57 59  1  0
 57 60  1  0
 32 61  1  0
 61 62  1  0
 61 63  1  0
 61 64  1  0
 25 65  1  0
 65 66  1  0
 65 67  1  0
 65 68  1  0
 16 69  1  0
 69 70  1  0
 69 71  1  0
 69 72  1  0
  9 73  1  0
 73 74  1  0
 73 75  1  0
 73 76  1  0
  3 77  1  0
 77 78  2  0
 78 79  1  0
 79 80  1  0
 79 81  2  0
 81 82  1  0
 81 83  1  0
 52 37  1  0
 83 77  1  0
M  END
>  <UniqueID>  (22) 
17

>  <SMILES>  (22) 
CC(C=CC=C(C)/C=C/C1=C(C)CCCC1(C)C)=CC=C/C=C(\C)C=CC=C(C)C=C[C@H](O)c1nccs1

>  <Energy>  (22) 
145.17430014957787

>  <Genealogy>  (22) 
CC(C=CC=C(C)C=CC1=C(C)CCCC1(C)C)=CC=CC=C(C)C=CC=C(C)C=C[C@H](O)c1nccs1 (chirality)
CC(C=CC=C(C)/C=C/C1=C(C)CCCC1(C)C)=CC=C/C=C(\C)C=CC=C(C)C=C[C@H](O)c1nccs1 (cis-trans isomerization)
CC(C=CC=C(C)/C=C/C1=C(C)CCCC1(C)C)=CC=C/C=C(\C)C=CC=C(C)C=C[C@H](O)c1nccs1 (3D coordinates assigned)
CC(C=CC=C(C)/C=C/C1=C(C)CCCC1(C)C)=CC=C/C=C(\C)C=CC=C(C)C=C[C@H](O)c1nccs1 (nonaromatic ring conformer: 145.17430014957787 kcal/mol)

>  <smiles>  (22) 
CC(C=CC=C(C)C=CC1=C(C)CCCC1(C)C)=CC=CC=C(C)C=CC=C(C)C=CC(O)c1nccs1

>  <score_type>  (22) 
oracle

>  <origin>  (22) 
adg

>  <m_score__min__energy>  (22) 
-10.109999999999999

>  <m_primary>  (22) 
energy

$$$$
22:0
     RDKit          3D

 39 41  0  0  0  0  0  0  0  0999 V2000
   54.2460   25.8770   45.8310 O   0  0  0  0  0  0  0  0  0  0  0  0
   55.4540   25.5260   45.7310 C   0  0  0  0  0  0  0  0  0  0  0  0
   56.4720   26.2350   46.4480 N   0  0  0  0  0  0  0  0  0  0  0  0
   57.3610   27.2050   45.8760 C   0  0  0  0  0  0  0  0  0  0  0  0
   58.7300   26.9190   45.8420 C   0  0  0  0  0  0  0  0  0  0  0  0
   59.6290   27.8350   45.2980 C   0  0  0  0  0  0  0  0  0  0  0  0
   59.1670   29.0370   44.7600 C   0  0  0  0  0  0  0  0  0  0  0  0
   57.7960   29.3240   44.7420 C   0  0  0  0  0  0  0  0  0  0  0  0
   57.2520   30.8590   44.0520 S   0  0  0  0  0  0  0  0  0  0  0  0
   57.2510   30.7380   42.5520 O   0  0  0  0  0  0  0  0  0  0  0  0
   55.8510   31.1750   44.5000 O   0  0  0  0  0  0  0  0  0  0  0  0
   58.3380   32.1440   44.5250 N   0  0  0  0  0  0  0  0  0  0  0  0
   58.7640   31.9580   45.9250 C   0  0  0  0  0  0  0  0  0  0  0  0
   59.3090   33.2760   46.4970 C   0  0  0  0  0  0  0  0  0  0  0  0
   58.3600   34.3370   46.5130 O   0  0  0  0  0  0  0  0  0  0  0  0
   57.3030   34.1740   45.5780 C   0  0  0  0  0  0  0  0  0  0  0  0
   57.7380   33.4740   44.2750 C   0  0  0  0  0  0  0  0  0  0  0  0
   56.8860   28.4000   45.2940 C   0  0  0  0  0  0  0  0  0  0  0  0
   55.5190   28.6510   45.2410 O   0  0  0  0  0  0  0  0  0  0  0  0
   55.8240   24.3620   44.9060 C   0  0  0  0  0  0  0  0  0  0  0  0
   57.1540   23.9360   44.7960 C   0  0  0  0  0  0  0  0  0  0  0  0
   57.4480   22.8120   44.0240 C   0  0  0  0  0  0  0  0  0  0  0  0
   56.4120   22.1410   43.3760 C   0  0  0  0  0  0  0  0  0  0  0  0
   56.6500   21.1240   42.6760 O   0  0  0  0  0  0  0  0  0  0  0  0
   55.1370   22.5920   43.5100 N   0  0  0  0  0  0  0  0  0  0  0  0
   54.8530   23.6660   44.2510 N   0  0  0  0  0  0  0  0  0  0  0  0
   59.0993   25.9653   46.2471 H   0  0  0  0  0  0  0  0  0  0  0  0
   60.7057   27.6098   45.2928 H   0  0  0  0  0  0  0  0  0  0  0  0
   59.8833   29.7630   44.3479 H   0  0  0  0  0  0  0  0  0  0  0  0
   57.9027   31.6305   46.5258 H   0  0  0  0  0  0  0  0  0  0  0  0
   59.5585   31.1979   45.9590 H   0  0  0  0  0  0  0  0  0  0  0  0
   59.6413   33.0936   47.5296 H   0  0  0  0  0  0  0  0  0  0  0  0
   60.1301   33.5936   45.8374 H   0  0  0  0  0  0  0  0  0  0  0  0
   56.5112   33.5728   46.0487 H   0  0  0  0  0  0  0  0  0  0  0  0
   56.9548   35.1808   45.3041 H   0  0  0  0  0  0  0  0  0  0  0  0
   56.8562   33.3486   43.6295 H   0  0  0  0  0  0  0  0  0  0  0  0
   58.5018   34.1027   43.7941 H   0  0  0  0  0  0  0  0  0  0  0  0
   57.9574   24.4817   45.3126 H   0  0  0  0  0  0  0  0  0  0  0  0
   58.4854   22.4591   43.9276 H   0  0  0  0  0  0  0  0  0  0  0  0
  1  2  2  0
  2  3  1  0
  3  4  1  0
  4  5  2  0
  5  6  1  0
  6  7  2  0
  7  8  1  0
  8  9  1  0
  9 10  2  0
  9 11  2  0
  9 12  1  0
 12 13  1  0
 13 14  1  0
 14 15  1  0
 15 16  1  0
 16 17  1  0
  8 18  2  0
 18 19  1  0
  2 20  1  0
 20 21  1  0
 21 22  2  0
 22 23  1  0
 23 24  2  0
 23 25  1  0
 25 26  1  0
 18  4  1  0
 26 20  2  0
 17 12  1  0
  5 27  1  0
  6 28  1  0
  7 29  1  0
 13 30  1  0
 13 31  1  0
 14 32  1  0
 14 33  1  0
 16 34  1  0
 16 35  1  0
 17 36  1  0
 17 37  1  0
 21 38  1  0
 22 39  1  0
M  CHG  3   3  -1  19  -1  25  -1
M  END
>  <UniqueID>  (23) 
18

>  <SMILES>  (23) 
O=C([N-]c1cccc(S(=O)(=O)N2CCOCC2)c1[O-])c1ccc(=O)[n-]n1

>  <Energy>  (23) 
61.06615370512477

>  <Genealogy>  (23) 
O=C([N-]c1cccc(S(=O)(=O)N2CCOCC2)c1[O-])c1ccc(=O)[n-]n1 (protonated)
O=C([N-]c1cccc(S(=O)(=O)N2CCOCC2)c1[O-])c1ccc(=O)[n-]n1 (3D coordinates assigned)
O=C([N-]c1cccc(S(=O)(=O)N2CCOCC2)c1[O-])c1ccc(=O)[n-]n1 (nonaromatic ring conformer: 61.06615370512477 kcal/mol)

>  <smiles>  (23) 
O=C(Nc1cccc(S(=O)(=O)N2CCOCC2)c1O)c1ccc(=O)[nH]n1

>  <score_type>  (23) 
oracle

>  <origin>  (23) 
adg

>  <m_score__min__energy>  (23) 
-16.710000000000001

>  <m_primary>  (23) 
energy

$$$$
23:0
     RDKit          3D

 33 35  0  0  0  0  0  0  0  0999 V2000
   53.6840   24.4710   45.9770 O   0  0  0  0  0  0  0  0  0  0  0  0
   54.7670   24.9750   45.5810 C   0  0  0  0  0  0  0  0  0  0  0  0
   55.1280   26.2870   46.0350 N   0  0  0  0  0  0  0  0  0  0  0  0
   56.4470   26.8500   46.0290 C   0  0  0  0  0  0  0  0  0  0  0  0
   56.7660   27.9610   45.2280 C   0  0  0  0  0  0  0  0  0  0  0  0
   58.0540   28.5080   45.2440 C   0  0  0  0  0  0  0  0  0  0  0  0
   58.3330   29.6310   44.3970 N   0  0  0  0  0  0  0  0  0  0  0  0
   57.2630   30.9660   44.1230 S   0  0  0  0  0  0  0  0  0  0  0  0
   55.8870   30.6110   44.6090 O   0  0  0  0  0  0  0  0  0  0  0  0
   57.2240   31.3040   42.6590 O   0  0  0  0  0  0  0  0  0  0  0  0
   57.8470   32.3560   45.0180 C   0  0  0  0  0  0  0  0  0  0  0  0
   58.1140   33.6070   44.4840 C   0  0  0  0  0  0  0  0  0  0  0  0
   58.5570   34.5250   45.4440 C   0  0  0  0  0  0  0  0  0  0  0  0
   58.6330   33.9960   46.7280 C   0  0  0  0  0  0  0  0  0  0  0  0
   58.1490   32.3860   46.6690 S   0  0  0  0  0  0  0  0  0  0  0  0
   59.0300   27.9480   46.0870 C   0  0  0  0  0  0  0  0  0  0  0  0
   58.7100   26.8600   46.9050 C   0  0  0  0  0  0  0  0  0  0  0  0
   57.4230   26.3160   46.8810 C   0  0  0  0  0  0  0  0  0  0  0  0
   57.1200   25.2370   47.7040 O   0  0  0  0  0  0  0  0  0  0  0  0
   55.6500   24.1740   44.7140 C   0  0  0  0  0  0  0  0  0  0  0  0
   57.0020   23.9450   44.8960 C   0  0  0  0  0  0  0  0  0  0  0  0
   57.3870   23.1320   43.8530 C   0  0  0  0  0  0  0  0  0  0  0  0
   56.2500   22.9100   43.1020 C   0  0  0  0  0  0  0  0  0  0  0  0
   55.2330   23.5400   43.6430 O   0  0  0  0  0  0  0  0  0  0  0  0
   55.9945   28.4050   44.5817 H   0  0  0  0  0  0  0  0  0  0  0  0
   57.9909   33.8526   43.4189 H   0  0  0  0  0  0  0  0  0  0  0  0
   58.8200   35.5661   45.2052 H   0  0  0  0  0  0  0  0  0  0  0  0
   58.9550   34.5384   47.6292 H   0  0  0  0  0  0  0  0  0  0  0  0
   60.0471   28.3665   46.1031 H   0  0  0  0  0  0  0  0  0  0  0  0
   59.4741   26.4308   47.5698 H   0  0  0  0  0  0  0  0  0  0  0  0
   57.6379   24.3320   45.7059 H   0  0  0  0  0  0  0  0  0  0  0  0
   58.3958   22.7392   43.6579 H   0  0  0  0  0  0  0  0  0  0  0  0
   56.2032   22.2982   42.1890 H   0  0  0  0  0  0  0  0  0  0  0  0
  1  2  2  0
  2  3  1  0
  3  4  1  0
  4  5  2  0
  5  6  1  0
  6  7  1  0
  7  8  1  0
  8  9  2  0
  8 10  2  0
  8 11  1  0
 11 12  2  0
 12 13  1  0
 13 14  2  0
 14 15  1  0
  6 16  2  0
 16 17  1  0
 17 18  2  0
 18 19  1  0
  2 20  1  0
 20 21  2  0
 21 22  1  0
 22 23  2  0
 23 24  1  0
 18  4  1  0
 24 20  1  0
 15 11  1  0
  5 25  1  0
 12 26  1  0
 13 27  1  0
 14 28  1  0
 16 29  1  0
 17 30  1  0
 21 31  1  0
 22 32  1  0
 23 33  1  0
M  CHG  3   3  -1   7  -1  19  -1
M  END
>  <UniqueID>  (24) 
19

>  <SMILES>  (24) 
O=C([N-]c1cc([N-]S(=O)(=O)c2cccs2)ccc1[O-])c1ccco1

>  <Energy>  (24) 
96.66577226239544

>  <Genealogy>  (24) 
O=C([N-]c1cc([N-]S(=O)(=O)c2cccs2)ccc1[O-])c1ccco1 (protonated)
O=C([N-]c1cc([N-]S(=O)(=O)c2cccs2)ccc1[O-])c1ccco1 (3D coordinates assigned)
O=C([N-]c1cc([N-]S(=O)(=O)c2cccs2)ccc1[O-])c1ccco1 (optimized conformer: 96.66577226239544 kcal/mol)

>  <smiles>  (24) 
O=C(Nc1cc(NS(=O)(=O)c2cccs2)ccc1O)c1ccco1

>  <score_type>  (24) 
oracle

>  <origin>  (24) 
adg

>  <m_score__min__energy>  (24) 
-13.82

>  <m_primary>  (24) 
energy

$$$$
24:0
     RDKit          3D

 54 57  0  0  0  0  0  0  0  0999 V2000
   57.6620   32.5190   42.4680 C   0  0  0  0  0  0  0  0  0  0  0  0
   57.8100   31.5620   43.6200 C   0  0  0  0  0  0  0  0  0  0  0  0
   57.6620   30.1840   43.3870 C   0  0  0  0  0  0  0  0  0  0  0  0
   57.7960   29.2650   44.4320 C   0  0  0  0  0  0  0  0  0  0  0  0
   58.0640   29.7050   45.7360 C   0  0  0  0  0  0  0  0  0  0  0  0
   58.2480   28.7200   46.8350 C   0  0  0  0  0  0  0  0  0  0  0  0
   59.2700   28.7960   47.5680 O   0  0  0  0  0  0  0  0  0  0  0  0
   57.3130   27.6560   47.0760 N   0  0  0  0  0  0  0  0  0  0  0  0
   57.2040   26.4350   46.3250 C   0  0  0  0  0  0  0  0  0  0  0  0
   58.3510   25.6500   46.1460 C   0  0  0  0  0  0  0  0  0  0  0  0
   58.2970   24.4840   45.3770 C   0  0  0  0  0  0  0  0  0  0  0  0
   57.0940   24.0900   44.7890 C   0  0  0  0  0  0  0  0  0  0  0  0
   55.9360   24.8440   44.9930 C   0  0  0  0  0  0  0  0  0  0  0  0
   55.9790   26.0060   45.7710 C   0  0  0  0  0  0  0  0  0  0  0  0
   54.8030   26.7140   46.0020 O   0  0  0  0  0  0  0  0  0  0  0  0
   58.1480   31.0850   45.9830 C   0  0  0  0  0  0  0  0  0  0  0  0
   58.0450   32.0180   44.9400 C   0  0  0  0  0  0  0  0  0  0  0  0
   58.3220   33.7300   45.3100 S   0  0  0  0  0  0  0  0  0  0  0  0
   57.0630   34.5300   45.1050 O   0  0  0  0  0  0  0  0  0  0  0  0
   59.4030   34.2270   44.3910 O   0  0  0  0  0  0  0  0  0  0  0  0
   58.8240   33.8900   46.9660 N   0  0  0  0  0  0  0  0  0  0  0  0
   60.1700   33.7840   47.4460 C   0  0  0  0  0  0  0  0  0  0  0  0
   60.5640   34.3070   48.6900 C   0  0  0  0  0  0  0  0  0  0  0  0
   61.8970   34.2130   49.1020 C   0  0  0  0  0  0  0  0  0  0  0  0
   62.8500   33.5900   48.2830 C   0  0  0  0  0  0  0  0  0  0  0  0
   64.2800   33.4680   48.7380 C   0  0  0  0  0  0  0  0  0  0  0  0
   64.4190   32.3500   49.7350 C   0  0  0  0  0  0  0  0  0  0  0  0
   63.3250   31.5240   50.0340 C   0  0  0  0  0  0  0  0  0  0  0  0
   63.4780   30.4760   50.9460 C   0  0  0  0  0  0  0  0  0  0  0  0
   64.6850   30.2540   51.5310 N   0  0  0  0  0  0  0  0  0  0  0  0
   65.7670   31.0280   51.2490 C   0  0  0  0  0  0  0  0  0  0  0  0
   65.6570   32.0890   50.3440 C   0  0  0  0  0  0  0  0  0  0  0  0
   62.4440   33.0270   47.0630 C   0  0  0  0  0  0  0  0  0  0  0  0
   61.1110   33.1220   46.6510 C   0  0  0  0  0  0  0  0  0  0  0  0
   57.5046   33.5367   42.8547 H   0  0  0  0  0  0  0  0  0  0  0  0
   58.5742   32.4972   41.8537 H   0  0  0  0  0  0  0  0  0  0  0  0
   56.7990   32.2226   41.8537 H   0  0  0  0  0  0  0  0  0  0  0  0
   57.4384   29.8247   42.3717 H   0  0  0  0  0  0  0  0  0  0  0  0
   57.6904   28.1889   44.2297 H   0  0  0  0  0  0  0  0  0  0  0  0
   59.2995   25.9532   46.6134 H   0  0  0  0  0  0  0  0  0  0  0  0
   59.2031   23.8766   45.2352 H   0  0  0  0  0  0  0  0  0  0  0  0
   57.0578   23.1851   44.1646 H   0  0  0  0  0  0  0  0  0  0  0  0
   54.9864   24.5229   44.5401 H   0  0  0  0  0  0  0  0  0  0  0  0
   58.2973   31.4410   47.0130 H   0  0  0  0  0  0  0  0  0  0  0  0
   59.8216   34.7916   49.3412 H   0  0  0  0  0  0  0  0  0  0  0  0
   62.1998   34.6300   50.0738 H   0  0  0  0  0  0  0  0  0  0  0  0
   64.9207   33.2600   47.8684 H   0  0  0  0  0  0  0  0  0  0  0  0
   64.5847   34.4114   49.2146 H   0  0  0  0  0  0  0  0  0  0  0  0
   62.3516   31.7004   49.5530 H   0  0  0  0  0  0  0  0  0  0  0  0
   62.6215   29.8306   51.1905 H   0  0  0  0  0  0  0  0  0  0  0  0
   66.7319   30.8191   51.7341 H   0  0  0  0  0  0  0  0  0  0  0  0
   66.5324   32.7132   50.1115 H   0  0  0  0  0  0  0  0  0  0  0  0
   63.1777   32.5087   46.4281 H   0  0  0  0  0  0  0  0  0  0  0  0
   60.8008   32.6733   45.6958 H   0  0  0  0  0  0  0  0  0  0  0  0
  1  2  1  0
  2  3  2  0
  3  4  1  0
  4  5  2  0
  5  6  1  0
  6  7  2  0
  6  8  1  0
  8  9  1  0
  9 10  2  0
 10 11  1  0
 11 12  2  0
 12 13  1  0
 13 14  2  0
 14 15  1  0
  5 16  1  0
 16 17  2  0
 17 18  1  0
 18 19  2  0
 18 20  2  0
 18 21  1  0
 21 22  1  0
 22 23  2  0
 23 24  1  0
 24 25  2  0
 25 26  1  0
 26 27  1  0
 27 28  2  0
 28 29  1  0
 29 30  2  0
 30 31  1  0
 31 32  2  0
 25 33  1  0
 33 34  2  0
 17  2  1  0
 34 22  1  0
 14  9  1  0
 32 27  1  0
  1 35  1  0
  1 36  1  0
  1 37  1  0
  3 38  1  0
  4 39  1  0
 10 40  1  0
 11 41  1  0
 12 42  1  0
 13 43  1  0
 16 44  1  0
 23 45  1  0
 24 46  1  0
 26 47  1  0
 26 48  1  0
 28 49  1  0
 29 50  1  0
 31 51  1  0
 32 52  1  0
 33 53  1  0
 34 54  1  0
M  CHG  3   8  -1  15  -1  21  -1
M  END
>  <UniqueID>  (25) 
20

>  <SMILES>  (25) 
Cc1ccc(C(=O)[N-]c2ccccc2[O-])cc1S(=O)(=O)[N-]c1ccc(Cc2ccncc2)cc1

>  <Energy>  (25) 
71.79775566776826

>  <Genealogy>  (25) 
Cc1ccc(C(=O)[N-]c2ccccc2[O-])cc1S(=O)(=O)[N-]c1ccc(Cc2ccncc2)cc1 (protonated)
Cc1ccc(C(=O)[N-]c2ccccc2[O-])cc1S(=O)(=O)[N-]c1ccc(Cc2ccncc2)cc1 (3D coordinates assigned)
Cc1ccc(C(=O)[N-]c2ccccc2[O-])cc1S(=O)(=O)[N-]c1ccc(Cc2ccncc2)cc1 (optimized conformer: 71.79775566776826 kcal/mol)

>  <smiles>  (25) 
Cc1ccc(C(=O)Nc2ccccc2O)cc1S(=O)(=O)Nc1ccc(Cc2ccncc2)cc1

>  <score_type>  (25) 
oracle

>  <origin>  (25) 
adg

>  <m_score__min__energy>  (25) 
-16.809999999999999

>  <m_primary>  (25) 
energy

$$$$
25:0
     RDKit          3D

 63 67  0  0  0  0  0  0  0  0999 V2000
   61.3035   34.6623   48.1502 H   0  0  0  0  0  0  0  0  0  0  0  0
   61.1810   34.2100   47.1550 C   0  0  0  0  0  0  0  0  0  0  0  0
   62.2820   33.9050   46.4460 C   0  0  0  0  0  0  0  0  0  0  0  0
   62.1695   33.6020   45.3946 H   0  0  0  0  0  0  0  0  0  0  0  0
   63.6670   33.9640   47.0430 C   0  0  0  0  0  0  0  0  0  0  0  0
   63.6678   34.6788   47.8791 H   0  0  0  0  0  0  0  0  0  0  0  0
   64.3715   34.2835   46.2609 H   0  0  0  0  0  0  0  0  0  0  0  0
   64.0870   32.6410   47.5400 N   0  0  0  0  0  0  0  0  0  0  0  0
   64.8580   32.7740   48.2370 H   0  0  0  0  0  0  0  0  0  0  0  0
   64.4720   32.0480   46.7660 H   0  0  0  0  0  0  0  0  0  0  0  0
   62.9970   31.9590   48.1890 C   0  0  0  0  0  0  0  0  0  0  0  0
   62.0490   31.3290   47.4380 N   0  0  0  0  0  0  0  0  0  0  0  0
   61.0060   30.6780   48.0150 C   0  0  0  0  0  0  0  0  0  0  0  0
   60.0270   30.0640   47.2280 C   0  0  0  0  0  0  0  0  0  0  0  0
   60.1144   30.0822   46.1316 H   0  0  0  0  0  0  0  0  0  0  0  0
   58.9340   29.4250   47.8310 C   0  0  0  0  0  0  0  0  0  0  0  0
   57.9550   28.8610   47.0000 O   0  0  0  0  0  0  0  0  0  0  0  0
   58.1710   28.4740   45.6460 C   0  0  0  0  0  0  0  0  0  0  0  0
   58.9702   29.0902   45.2083 H   0  0  0  0  0  0  0  0  0  0  0  0
   57.2485   28.6176   45.0643 H   0  0  0  0  0  0  0  0  0  0  0  0
   58.5750   27.0250   45.6150 C   0  0  0  0  0  0  0  0  0  0  0  0
   57.7990   26.0850   44.9210 C   0  0  0  0  0  0  0  0  0  0  0  0
   56.9035   26.4090   44.3704 H   0  0  0  0  0  0  0  0  0  0  0  0
   58.1680   24.7250   44.9300 C   0  0  0  0  0  0  0  0  0  0  0  0
   57.3900   23.7310   44.2250 N   0  0  0  0  0  0  0  0  0  0  0  0
   56.3310   24.1300   43.2860 C   0  0  0  0  0  0  0  0  0  0  0  0
   55.7676   24.9718   43.7149 H   0  0  0  0  0  0  0  0  0  0  0  0
   56.7974   24.4254   42.3346 H   0  0  0  0  0  0  0  0  0  0  0  0
   55.3690   22.9650   43.0200 C   0  0  0  0  0  0  0  0  0  0  0  0
   54.8332   22.7267   43.9507 H   0  0  0  0  0  0  0  0  0  0  0  0
   54.6707   23.2737   42.2282 H   0  0  0  0  0  0  0  0  0  0  0  0
   56.0790   21.7610   42.5580 N   0  0  0  0  0  0  0  0  0  0  0  0
   56.3060   21.8830   41.5430 H   0  0  0  0  0  0  0  0  0  0  0  0
   57.3320   21.4590   43.2850 C   0  0  0  0  0  0  0  0  0  0  0  0
   57.3136   20.3994   43.5799 H   0  0  0  0  0  0  0  0  0  0  0  0
   58.1606   21.6950   42.6011 H   0  0  0  0  0  0  0  0  0  0  0  0
   57.5440   22.3080   44.5480 C   0  0  0  0  0  0  0  0  0  0  0  0
   56.8007   22.0239   45.3074 H   0  0  0  0  0  0  0  0  0  0  0  0
   58.5581   22.1325   44.9363 H   0  0  0  0  0  0  0  0  0  0  0  0
   59.2780   24.3480   45.6250 N   0  0  0  0  0  0  0  0  0  0  0  0
   60.0400   25.2360   46.3150 C   0  0  0  0  0  0  0  0  0  0  0  0
   60.9274   24.8873   46.8635 H   0  0  0  0  0  0  0  0  0  0  0  0
   59.7000   26.5900   46.3300 C   0  0  0  0  0  0  0  0  0  0  0  0
   60.4570   27.4670   47.0380 F   0  0  0  0  0  0  0  0  0  0  0  0
   58.8500   29.3780   49.2400 C   0  0  0  0  0  0  0  0  0  0  0  0
   58.0054   28.8625   49.7206 H   0  0  0  0  0  0  0  0  0  0  0  0
   59.8360   29.9840   50.0290 C   0  0  0  0  0  0  0  0  0  0  0  0
   59.7657   29.9428   51.1260 H   0  0  0  0  0  0  0  0  0  0  0  0
   60.9090   30.6410   49.4210 C   0  0  0  0  0  0  0  0  0  0  0  0
   61.8570   31.2620   50.1720 N   0  0  0  0  0  0  0  0  0  0  0  0
   62.8930   31.9210   49.5900 C   0  0  0  0  0  0  0  0  0  0  0  0
   63.6477   32.4230   50.2133 H   0  0  0  0  0  0  0  0  0  0  0  0
   59.8080   33.9620   46.6510 C   0  0  0  0  0  0  0  0  0  0  0  0
   58.8620   33.3710   47.5040 C   0  0  0  0  0  0  0  0  0  0  0  0
   59.1450   33.1015   48.5322 H   0  0  0  0  0  0  0  0  0  0  0  0
   57.5600   33.1230   47.0520 C   0  0  0  0  0  0  0  0  0  0  0  0
   56.8228   32.6655   47.7282 H   0  0  0  0  0  0  0  0  0  0  0  0
   57.1940   33.4550   45.7440 C   0  0  0  0  0  0  0  0  0  0  0  0
   56.1671   33.2699   45.3960 H   0  0  0  0  0  0  0  0  0  0  0  0
   58.1320   34.0210   44.8810 C   0  0  0  0  0  0  0  0  0  0  0  0
   57.8460   34.2754   43.8497 H   0  0  0  0  0  0  0  0  0  0  0  0
   59.4370   34.2660   45.3250 C   0  0  0  0  0  0  0  0  0  0  0  0
   60.1771   34.6981   44.6355 H   0  0  0  0  0  0  0  0  0  0  0  0
  1  2  1  0
  2  3  2  0
  3  4  1  0
  3  5  1  0
  5  6  1  0
  5  7  1  0
  5  8  1  0
  8  9  1  0
  8 10  1  0
  8 11  1  0
 11 12  2  0
 12 13  1  0
 13 14  2  0
 14 15  1  0
 14 16  1  0
 16 17  1  0
 17 18  1  0
 18 19  1  0
 18 20  1  0
 18 21  1  0
 21 22  2  0
 22 23  1  0
 22 24  1  0
 24 25  1  0
 25 26  1  0
 26 27  1  0
 26 28  1  0
 26 29  1  0
 29 30  1  0
 29 31  1  0
 29 32  1  0
 32 33  1  0
 32 34  1  0
 34 35  1  0
 34 36  1  0
 34 37  1  0
 37 38  1  0
 37 39  1  0
 24 40  2  0
 40 41  1  0
 41 42  1  0
 41 43  2  0
 43 44  1  0
 16 45  2  0
 45 46  1  0
 45 47  1  0
 47 48  1  0
 47 49  2  0
 49 50  1  0
 50 51  2  0
 51 52  1  0
  2 53  1  0
 53 54  2  0
 54 55  1  0
 54 56  1  0
 56 57  1  0
 56 58  2  0
 58 59  1  0
 58 60  1  0
 60 61  1  0
 60 62  2  0
 62 63  1  0
 51 11  1  0
 62 53  1  0
 49 13  1  0
 43 21  1  0
 37 25  1  0
M  CHG  1   8   1
M  END
>  <UniqueID>  (26) 
21

>  <SMILES>  (26) 
Fc1cnc(N2CCNCC2)cc1COc1ccc2ncc([NH2+]C/C=C/c3ccccc3)nc2c1

>  <Energy>  (26) 
82.00243388861429

>  <Genealogy>  (26) 
Fc1cnc(N2CCNCC2)cc1COc1ccc2ncc([NH2+]CC=Cc3ccccc3)nc2c1 (protonated)
Fc1cnc(N2CCNCC2)cc1COc1ccc2ncc([NH2+]C/C=C/c3ccccc3)nc2c1 (cis-trans isomerization)
Fc1cnc(N2CCNCC2)cc1COc1ccc2ncc([NH2+]C/C=C/c3ccccc3)nc2c1 (3D coordinates assigned)
Fc1cnc(N2CCNCC2)cc1COc1ccc2ncc([NH2+]C/C=C/c3ccccc3)nc2c1 (nonaromatic ring conformer: 82.00243388861429 kcal/mol)

>  <smiles>  (26) 
Fc1cnc(N2CCNCC2)cc1COc1ccc2ncc(NCC=Cc3ccccc3)nc2c1

>  <score_type>  (26) 
oracle

>  <origin>  (26) 
adg

>  <m_score__min__energy>  (26) 
-8.3499999999999996

>  <m_primary>  (26) 
energy

$$$$
26:0
     RDKit          3D

 30 31  0  0  0  0  0  0  0  0999 V2000
   55.3150   29.7210   43.3640 C   0  0  0  0  0  0  0  0  0  0  0  0
   56.6280   29.7620   44.0660 C   0  0  0  0  0  0  0  0  0  0  0  0
   57.0020   30.7620   44.8940 N   0  0  0  0  0  0  0  0  0  0  0  0
   58.1890   30.5580   45.4630 N   0  0  0  0  0  0  0  0  0  0  0  0
   58.7540   29.3870   45.1040 C   0  0  0  0  0  0  0  0  0  0  0  0
   60.3550   28.8380   45.6940 S   0  0  0  0  0  0  0  0  0  0  0  0
   59.6820   27.6750   46.9320 C   0  0  0  0  0  0  0  0  0  0  0  0
   58.3010   28.1000   47.4390 C   0  0  0  0  0  0  0  0  0  0  0  0
   57.3940   26.9940   47.4450 O   0  0  0  0  0  0  0  0  0  0  0  0
   57.3180   25.9680   46.4880 C   0  0  0  0  0  0  0  0  0  0  0  0
   58.3860   25.0900   46.2200 C   0  0  0  0  0  0  0  0  0  0  0  0
   58.2530   24.0870   45.2560 C   0  0  0  0  0  0  0  0  0  0  0  0
   57.0550   23.9470   44.5370 C   0  0  0  0  0  0  0  0  0  0  0  0
   56.8970   22.8950   43.5160 C   0  0  0  0  0  0  0  0  0  0  0  0
   55.8190   22.2540   43.4040 O   0  0  0  0  0  0  0  0  0  0  0  0
   55.9960   24.8280   44.7940 C   0  0  0  0  0  0  0  0  0  0  0  0
   56.1280   25.8310   45.7600 C   0  0  0  0  0  0  0  0  0  0  0  0
   55.0640   26.6950   45.9990 O   0  0  0  0  0  0  0  0  0  0  0  0
   57.7800   28.5330   44.0300 S   0  0  0  0  0  0  0  0  0  0  0  0
   54.5032   29.6957   44.1059 H   0  0  0  0  0  0  0  0  0  0  0  0
   55.2080   30.6162   42.7338 H   0  0  0  0  0  0  0  0  0  0  0  0
   55.2641   28.8208   42.7338 H   0  0  0  0  0  0  0  0  0  0  0  0
   59.5990   26.6788   46.4730 H   0  0  0  0  0  0  0  0  0  0  0  0
   60.3677   27.6655   47.7921 H   0  0  0  0  0  0  0  0  0  0  0  0
   58.3983   28.4909   48.4626 H   0  0  0  0  0  0  0  0  0  0  0  0
   57.9042   28.8748   46.7665 H   0  0  0  0  0  0  0  0  0  0  0  0
   59.3311   25.1944   46.7731 H   0  0  0  0  0  0  0  0  0  0  0  0
   59.0918   23.4031   45.0593 H   0  0  0  0  0  0  0  0  0  0  0  0
   57.7348   22.6663   42.8409 H   0  0  0  0  0  0  0  0  0  0  0  0
   55.0551   24.7302   44.2326 H   0  0  0  0  0  0  0  0  0  0  0  0
  1  2  1  0
  2  3  2  0
  3  4  1  0
  4  5  2  0
  5  6  1  0
  6  7  1  0
  7  8  1  0
  8  9  1  0
  9 10  1  0
 10 11  2  0
 11 12  1  0
 12 13  2  0
 13 14  1  0
 14 15  2  0
 13 16  1  0
 16 17  2  0
 17 18  1  0
  5 19  1  0
 19  2  1  0
 17 10  1  0
  1 20  1  0
  1 21  1  0
  1 22  1  0
  7 23  1  0
  7 24  1  0
  8 25  1  0
  8 26  1  0
 11 27  1  0
 12 28  1  0
 14 29  1  0
 16 30  1  0
M  CHG  1  18  -1
M  END
>  <UniqueID>  (27) 
22

>  <SMILES>  (27) 
Cc1nnc(SCCOc2ccc(C=O)cc2[O-])s1

>  <Energy>  (27) 
60.00429066538604

>  <Genealogy>  (27) 
Cc1nnc(SCCOc2ccc(C=O)cc2[O-])s1 (protonated)
Cc1nnc(SCCOc2ccc(C=O)cc2[O-])s1 (3D coordinates assigned)
Cc1nnc(SCCOc2ccc(C=O)cc2[O-])s1 (optimized conformer: 60.00429066538604 kcal/mol)

>  <smiles>  (27) 
Cc1nnc(SCCOc2ccc(C=O)cc2O)s1

>  <score_type>  (27) 
oracle

>  <origin>  (27) 
adg

>  <m_score__min__energy>  (27) 
-11.43

>  <m_primary>  (27) 
energy

$$$$
27:0
     RDKit          3D

 41 43  0  0  0  0  0  0  0  0999 V2000
   60.2650   29.2010   49.6740 O   0  0  0  0  0  0  0  0  0  0  0  0
   59.1510   29.7570   49.4690 C   0  0  0  0  0  0  0  0  0  0  0  0
   58.4730   29.5550   48.2600 O   0  0  0  0  0  0  0  0  0  0  0  0
   58.8500   28.5760   47.2930 C   0  0  0  0  0  0  0  0  0  0  0  0
   57.6780   28.2530   46.3630 C   0  0  0  0  0  0  0  0  0  0  0  0
   57.5080   29.2910   45.3450 N   0  0  0  0  0  0  0  0  0  0  0  0
   58.4630   30.0880   44.8280 C   0  0  0  0  0  0  0  0  0  0  0  0
   59.7960   30.0670   45.2240 O   0  0  0  0  0  0  0  0  0  0  0  0
   57.9440   30.9120   43.8500 C   0  0  0  0  0  0  0  0  0  0  0  0
   56.5990   30.5980   43.7590 C   0  0  0  0  0  0  0  0  0  0  0  0
   56.3750   29.6000   44.6860 C   0  0  0  0  0  0  0  0  0  0  0  0
   55.1490   28.9850   44.9120 O   0  0  0  0  0  0  0  0  0  0  0  0
   58.5560   30.6280   50.5060 C   0  0  0  0  0  0  0  0  0  0  0  0
   59.0210   31.9420   50.6940 C   0  0  0  0  0  0  0  0  0  0  0  0
   58.4470   32.7610   51.6700 C   0  0  0  0  0  0  0  0  0  0  0  0
   57.4120   32.2770   52.4730 C   0  0  0  0  0  0  0  0  0  0  0  0
   56.9490   30.9680   52.3140 C   0  0  0  0  0  0  0  0  0  0  0  0
   55.8760   30.5060   53.1490 N   0  0  0  0  0  0  0  0  0  0  0  0
   54.7130   29.7860   52.7190 C   0  0  0  0  0  0  0  0  0  0  0  0
   54.6230   28.5620   52.9970 O   0  0  0  0  0  0  0  0  0  0  0  0
   53.6360   30.4210   51.9290 C   0  0  0  0  0  0  0  0  0  0  0  0
   53.0770   29.7870   50.8070 C   0  0  0  0  0  0  0  0  0  0  0  0
   52.0630   30.4270   50.0890 C   0  0  0  0  0  0  0  0  0  0  0  0
   51.5620   29.8700   49.0750 O   0  0  0  0  0  0  0  0  0  0  0  0
   51.6070   31.6830   50.5020 C   0  0  0  0  0  0  0  0  0  0  0  0
   50.6000   32.3380   49.8000 O   0  0  0  0  0  0  0  0  0  0  0  0
   52.1710   32.2740   51.6340 C   0  0  0  0  0  0  0  0  0  0  0  0
   53.1590   31.6370   52.3150 N   0  0  0  0  0  0  0  0  0  0  0  0
   57.5070   30.1530   51.3120 C   0  0  0  0  0  0  0  0  0  0  0  0
   59.6886   28.9631   46.6956 H   0  0  0  0  0  0  0  0  0  0  0  0
   59.1474   27.6567   47.8187 H   0  0  0  0  0  0  0  0  0  0  0  0
   57.8693   27.2907   45.8657 H   0  0  0  0  0  0  0  0  0  0  0  0
   56.7591   28.2024   46.9655 H   0  0  0  0  0  0  0  0  0  0  0  0
   58.4887   31.6654   43.2621 H   0  0  0  0  0  0  0  0  0  0  0  0
   55.8583   31.0520   43.0843 H   0  0  0  0  0  0  0  0  0  0  0  0
   59.8407   32.3270   50.0696 H   0  0  0  0  0  0  0  0  0  0  0  0
   58.8115   33.7899   51.8062 H   0  0  0  0  0  0  0  0  0  0  0  0
   56.9590   32.9292   53.2343 H   0  0  0  0  0  0  0  0  0  0  0  0
   53.4346   28.7944   50.4959 H   0  0  0  0  0  0  0  0  0  0  0  0
   51.8148   33.2572   51.9752 H   0  0  0  0  0  0  0  0  0  0  0  0
   57.1190   29.1353   51.1581 H   0  0  0  0  0  0  0  0  0  0  0  0
  1  2  2  0
  2  3  1  0
  3  4  1  0
  4  5  1  0
  5  6  1  0
  6  7  1  0
  7  8  1  0
  7  9  2  0
  9 10  1  0
 10 11  2  0
 11 12  1  0
  2 13  1  0
 13 14  2  0
 14 15  1  0
 15 16  2  0
 16 17  1  0
 17 18  1  0
 18 19  1  0
 19 20  2  0
 19 21  1  0
 21 22  2  0
 22 23  1  0
 23 24  2  0
 23 25  1  0
 25 26  1  0
 25 27  2  0
 27 28  1  0
 17 29  2  0
 11  6  1  0
 29 13  1  0
 28 21  1  0
  4 30  1  0
  4 31  1  0
  5 32  1  0
  5 33  1  0
  9 34  1  0
 10 35  1  0
 14 36  1  0
 15 37  1  0
 16 38  1  0
 22 39  1  0
 27 40  1  0
 29 41  1  0
M  CHG  5   8  -1  12  -1  18  -1  26  -1  28  -1
M  END
>  <UniqueID>  (28) 
23

>  <SMILES>  (28) 
O=C(OCCn1c([O-])ccc1[O-])c1cccc([N-]C(=O)c2cc(=O)c([O-])c[n-]2)c1

>  <Energy>  (28) 
75.13341867023992

>  <Genealogy>  (28) 
O=C(OCCn1c([O-])ccc1[O-])c1cccc([N-]C(=O)c2cc(=O)c([O-])c[n-]2)c1 (protonated)
O=C(OCCn1c([O-])ccc1[O-])c1cccc([N-]C(=O)c2cc(=O)c([O-])c[n-]2)c1 (3D coordinates assigned)
O=C(OCCn1c([O-])ccc1[O-])c1cccc([N-]C(=O)c2cc(=O)c([O-])c[n-]2)c1 (optimized conformer: 75.13341867023992 kcal/mol)

>  <smiles>  (28) 
O=C(OCCn1c(O)ccc1O)c1cccc(NC(=O)c2cc(=O)c(O)c[nH]2)c1

>  <score_type>  (28) 
oracle

>  <origin>  (28) 
adg

>  <m_score__min__energy>  (28) 
-18.300000000000001

>  <m_primary>  (28) 
energy

$$$$
28:0
     RDKit          3D

 48 51  0  0  0  0  0  0  0  0999 V2000
   55.3250   29.4440   44.7430 O   0  0  0  0  0  0  0  0  0  0  0  0
   56.3040   28.8620   45.2820 C   0  0  0  0  0  0  0  0  0  0  0  0
   57.3980   29.6160   45.8210 N   0  0  0  0  0  0  0  0  0  0  0  0
   57.8230   30.9220   45.4090 C   0  0  0  0  0  0  0  0  0  0  0  0
   57.5920   31.4070   44.1080 C   0  0  0  0  0  0  0  0  0  0  0  0
   58.0490   32.6750   43.7400 C   0  0  0  0  0  0  0  0  0  0  0  0
   58.7470   33.4650   44.6580 C   0  0  0  0  0  0  0  0  0  0  0  0
   58.9990   32.9840   45.9500 C   0  0  0  0  0  0  0  0  0  0  0  0
   59.9140   33.9520   47.1040 S   0  0  0  0  0  0  0  0  0  0  0  0
   58.9470   34.8130   47.8680 O   0  0  0  0  0  0  0  0  0  0  0  0
   60.8690   34.8510   46.3700 O   0  0  0  0  0  0  0  0  0  0  0  0
   60.7760   32.9180   48.2250 N   0  0  0  0  0  0  0  0  0  0  0  0
   61.7880   32.0890   47.5450 C   0  0  0  0  0  0  0  0  0  0  0  0
   63.0250   32.9110   47.1130 C   0  0  0  0  0  0  0  0  0  0  0  0
   63.1500   34.1500   47.7910 O   0  0  0  0  0  0  0  0  0  0  0  0
   62.8510   33.9910   49.1590 C   0  0  0  0  0  0  0  0  0  0  0  0
   61.3520   33.6900   49.3490 C   0  0  0  0  0  0  0  0  0  0  0  0
   58.5460   31.7090   46.3150 C   0  0  0  0  0  0  0  0  0  0  0  0
   56.2960   27.3990   45.4070 C   0  0  0  0  0  0  0  0  0  0  0  0
   57.2130   26.5310   44.8540 C   0  0  0  0  0  0  0  0  0  0  0  0
   56.7750   25.2810   45.2560 C   0  0  0  0  0  0  0  0  0  0  0  0
   57.3970   23.9710   44.9420 C   0  0  0  0  0  0  0  0  0  0  0  0
   56.7070   23.0420   44.1410 C   0  0  0  0  0  0  0  0  0  0  0  0
   57.2800   21.8040   43.8370 C   0  0  0  0  0  0  0  0  0  0  0  0
   58.5450   21.4770   44.3260 C   0  0  0  0  0  0  0  0  0  0  0  0
   59.2450   22.3870   45.1230 C   0  0  0  0  0  0  0  0  0  0  0  0
   60.5070   22.0480   45.6050 O   0  0  0  0  0  0  0  0  0  0  0  0
   58.6730   23.6310   45.4300 C   0  0  0  0  0  0  0  0  0  0  0  0
   55.6600   25.4210   46.0040 N   0  0  0  0  0  0  0  0  0  0  0  0
   55.3690   26.7080   46.0960 N   0  0  0  0  0  0  0  0  0  0  0  0
   57.0503   30.7862   43.3792 H   0  0  0  0  0  0  0  0  0  0  0  0
   57.8589   33.0529   42.7246 H   0  0  0  0  0  0  0  0  0  0  0  0
   59.0989   34.4654   44.3659 H   0  0  0  0  0  0  0  0  0  0  0  0
   62.1137   31.2938   48.2318 H   0  0  0  0  0  0  0  0  0  0  0  0
   61.3272   31.6716   46.6376 H   0  0  0  0  0  0  0  0  0  0  0  0
   63.9265   32.3131   47.3127 H   0  0  0  0  0  0  0  0  0  0  0  0
   62.9021   33.1399   46.0441 H   0  0  0  0  0  0  0  0  0  0  0  0
   63.4425   33.1571   49.5649 H   0  0  0  0  0  0  0  0  0  0  0  0
   63.0982   34.9226   49.6892 H   0  0  0  0  0  0  0  0  0  0  0  0
   61.2243   33.1108   50.2754 H   0  0  0  0  0  0  0  0  0  0  0  0
   60.8235   34.6536   49.3948 H   0  0  0  0  0  0  0  0  0  0  0  0
   58.7601   31.3225   47.3224 H   0  0  0  0  0  0  0  0  0  0  0  0
   58.0898   26.7752   44.2363 H   0  0  0  0  0  0  0  0  0  0  0  0
   55.7092   23.2921   43.7513 H   0  0  0  0  0  0  0  0  0  0  0  0
   56.7318   21.0852   43.2102 H   0  0  0  0  0  0  0  0  0  0  0  0
   58.9921   20.5016   44.0839 H   0  0  0  0  0  0  0  0  0  0  0  0
   61.0940   21.3740   45.1260 H   0  0  0  0  0  0  0  0  0  0  0  0
   59.2259   24.3461   46.0568 H   0  0  0  0  0  0  0  0  0  0  0  0
  1  2  2  0
  2  3  1  0
  3  4  1  0
  4  5  2  0
  5  6  1  0
  6  7  2  0
  7  8  1  0
  8  9  1  0
  9 10  2  0
  9 11  2  0
  9 12  1  0
 12 13  1  0
 13 14  1  0
 14 15  1  0
 15 16  1  0
 16 17  1  0
  8 18  2  0
  2 19  1  0
 19 20  2  0
 20 21  1  0
 21 22  1  0
 22 23  2  0
 23 24  1  0
 24 25  2  0
 25 26  1  0
 26 27  1  0
 26 28  2  0
 21 29  2  0
 29 30  1  0
 18  4  1  0
 30 19  1  0
 17 12  1  0
 28 22  1  0
  5 31  1  0
  6 32  1  0
  7 33  1  0
 13 34  1  0
 13 35  1  0
 14 36  1  0
 14 37  1  0
 16 38  1  0
 16 39  1  0
 17 40  1  0
 17 41  1  0
 18 42  1  0
 20 43  1  0
 23 44  1  0
 24 45  1  0
 25 46  1  0
 27 47  1  0
 28 48  1  0
M  CHG  2   3  -1  30  -1
M  END
>  <UniqueID>  (29) 
24

>  <SMILES>  (29) 
O=C([N-]c1cccc(S(=O)(=O)N2CCOCC2)c1)c1cc(-c2cccc(O)c2)n[n-]1

>  <Energy>  (29) 
95.28170232988388

>  <Genealogy>  (29) 
O=C([N-]c1cccc(S(=O)(=O)N2CCOCC2)c1)c1cc(-c2cccc(O)c2)n[n-]1 (protonated)
O=C([N-]c1cccc(S(=O)(=O)N2CCOCC2)c1)c1cc(-c2cccc(O)c2)n[n-]1 (3D coordinates assigned)
O=C([N-]c1cccc(S(=O)(=O)N2CCOCC2)c1)c1cc(-c2cccc(O)c2)n[n-]1 (nonaromatic ring conformer: 95.28170232988388 kcal/mol)

>  <smiles>  (29) 
O=C(Nc1cccc(S(=O)(=O)N2CCOCC2)c1)c1cc(-c2cccc(O)c2)n[nH]1

>  <score_type>  (29) 
oracle

>  <origin>  (29) 
adg

>  <m_score__min__energy>  (29) 
-14.609999999999999

>  <m_primary>  (29) 
energy

$$$$
29:0
     RDKit          3D

 41 43  0  0  0  0  0  0  0  0999 V2000
   59.8790   35.1830   49.0780 H   0  0  0  0  0  0  0  0  0  0  0  0
   60.5850   34.5960   49.5090 O   0  0  0  0  0  0  0  0  0  0  0  0
   61.3970   33.7530   48.7530 C   0  0  0  0  0  0  0  0  0  0  0  0
   62.7720   34.0150   48.6560 C   0  0  0  0  0  0  0  0  0  0  0  0
   63.2028   34.8796   49.1822 H   0  0  0  0  0  0  0  0  0  0  0  0
   63.5960   33.1840   47.8950 C   0  0  0  0  0  0  0  0  0  0  0  0
   64.6738   33.3928   47.8253 H   0  0  0  0  0  0  0  0  0  0  0  0
   63.0530   32.0890   47.2230 C   0  0  0  0  0  0  0  0  0  0  0  0
   63.7027   31.4382   46.6193 H   0  0  0  0  0  0  0  0  0  0  0  0
   61.6860   31.8170   47.3150 C   0  0  0  0  0  0  0  0  0  0  0  0
   61.2640   30.9536   46.7798 H   0  0  0  0  0  0  0  0  0  0  0  0
   60.8460   32.6380   48.0860 C   0  0  0  0  0  0  0  0  0  0  0  0
   59.3670   32.3380   48.1480 C   0  0  0  0  0  0  0  0  0  0  0  0
   58.9121   32.9242   48.9600 H   0  0  0  0  0  0  0  0  0  0  0  0
   59.2287   31.2628   48.3344 H   0  0  0  0  0  0  0  0  0  0  0  0
   58.7180   32.6890   46.8740 N   0  0  0  0  0  0  0  0  0  0  0  0
   58.1230   31.6950   46.1470 C   0  0  0  0  0  0  0  0  0  0  0  0
   58.1927   30.6542   46.4962 H   0  0  0  0  0  0  0  0  0  0  0  0
   57.4250   31.9800   44.9630 C   0  0  0  0  0  0  0  0  0  0  0  0
   56.7340   30.9030   44.2160 C   0  0  0  0  0  0  0  0  0  0  0  0
   56.6910   30.9540   42.9580 O   0  0  0  0  0  0  0  0  0  0  0  0
   56.1530   29.7680   44.8810 N   0  0  0  0  0  0  0  0  0  0  0  0
   56.7760   28.6640   45.1810 C   0  0  0  0  0  0  0  0  0  0  0  0
   56.0940   27.5670   45.6150 N   0  0  0  0  0  0  0  0  0  0  0  0
   56.7170   26.4010   45.9360 C   0  0  0  0  0  0  0  0  0  0  0  0
   55.8990   25.2300   46.3780 C   0  0  0  0  0  0  0  0  0  0  0  0
   55.8740   25.1942   47.4771 H   0  0  0  0  0  0  0  0  0  0  0  0
   54.8743   25.3315   45.9910 H   0  0  0  0  0  0  0  0  0  0  0  0
   56.3469   24.3028   45.9910 H   0  0  0  0  0  0  0  0  0  0  0  0
   58.1070   26.3010   45.7970 C   0  0  0  0  0  0  0  0  0  0  0  0
   58.6238   25.3614   46.0422 H   0  0  0  0  0  0  0  0  0  0  0  0
   58.8300   27.4060   45.3440 C   0  0  0  0  0  0  0  0  0  0  0  0
   59.9226   27.3414   45.2343 H   0  0  0  0  0  0  0  0  0  0  0  0
   58.1650   28.5940   45.0300 C   0  0  0  0  0  0  0  0  0  0  0  0
   58.7285   29.4663   44.6674 H   0  0  0  0  0  0  0  0  0  0  0  0
   57.3930   33.3000   44.5040 C   0  0  0  0  0  0  0  0  0  0  0  0
   56.8821   33.5430   43.5606 H   0  0  0  0  0  0  0  0  0  0  0  0
   58.0090   34.3070   45.2430 C   0  0  0  0  0  0  0  0  0  0  0  0
   57.9824   35.3476   44.8873 H   0  0  0  0  0  0  0  0  0  0  0  0
   58.6610   33.9910   46.4380 C   0  0  0  0  0  0  0  0  0  0  0  0
   59.1990   34.9190   47.1030 O   0  0  0  0  0  0  0  0  0  0  0  0
  1  2  1  0
  2  3  1  0
  3  4  2  0
  4  5  1  0
  4  6  1  0
  6  7  1  0
  6  8  2  0
  8  9  1  0
  8 10  1  0
 10 11  1  0
 10 12  2  0
 12 13  1  0
 13 14  1  0
 13 15  1  0
 13 16  1  0
 16 17  1  0
 17 18  1  0
 17 19  2  0
 19 20  1  0
 20 21  2  0
 20 22  1  0
 22 23  2  0
 23 24  1  0
 24 25  1  0
 25 26  1  0
 26 27  1  0
 26 28  1  0
 26 29  1  0
 25 30  2  0
 30 31  1  0
 30 32  1  0
 32 33  1  0
 32 34  2  0
 34 35  1  0
 19 36  1  0
 36 37  1  0
 36 38  2  0
 38 39  1  0
 38 40  1  0
 40 41  2  0
 12  3  1  0
 40 16  1  0
 34 23  1  0
M  CHG  1  24  -1
M  END
>  <UniqueID>  (30) 
25

>  <SMILES>  (30) 
Cc1ccc/c(=N/C(=O)c2ccc(=O)n(Cc3ccccc3O)c2)[n-]1

>  <Energy>  (30) 
48.27793740366468

>  <Genealogy>  (30) 
Cc1cccc(=NC(=O)c2ccc(=O)n(Cc3ccccc3O)c2)[n-]1 (protonated)
Cc1ccc/c(=N/C(=O)c2ccc(=O)n(Cc3ccccc3O)c2)[n-]1 (cis-trans isomerization)
Cc1ccc/c(=N/C(=O)c2ccc(=O)n(Cc3ccccc3O)c2)[n-]1 (3D coordinates assigned)
Cc1ccc/c(=N/C(=O)c2ccc(=O)n(Cc3ccccc3O)c2)[n-]1 (optimized conformer: 48.27793740366468 kcal/mol)

>  <smiles>  (30) 
Cc1cccc(=NC(=O)c2ccc(=O)n(Cc3ccccc3O)c2)[nH]1

>  <score_type>  (30) 
oracle

>  <origin>  (30) 
adg

>  <m_score__min__energy>  (30) 
-10.970000000000001

>  <m_primary>  (30) 
energy

$$$$
30:0
     RDKit          3D

 46 48  0  0  0  0  0  0  0  0999 V2000
   57.4190   31.9960   42.9680 O   0  0  0  0  0  0  0  0  0  0  0  0
   57.0570   31.2210   43.8930 C   0  0  0  0  0  0  0  0  0  0  0  0
   56.2430   30.0060   43.5540 C   0  0  0  0  0  0  0  0  0  0  0  0
   56.1690   29.1120   44.6660 O   0  0  0  0  0  0  0  0  0  0  0  0
   57.2380   28.3550   45.1710 C   0  0  0  0  0  0  0  0  0  0  0  0
   58.5260   28.6260   44.6910 C   0  0  0  0  0  0  0  0  0  0  0  0
   59.6270   27.9130   45.1750 C   0  0  0  0  0  0  0  0  0  0  0  0
   59.4490   26.9190   46.1400 C   0  0  0  0  0  0  0  0  0  0  0  0
   58.1680   26.6350   46.6200 C   0  0  0  0  0  0  0  0  0  0  0  0
   57.0640   27.3450   46.1390 C   0  0  0  0  0  0  0  0  0  0  0  0
   57.4160   31.4930   45.2570 N   0  0  0  0  0  0  0  0  0  0  0  0
   58.1570   32.6590   45.6570 C   0  0  0  0  0  0  0  0  0  0  0  0
   58.1460   33.8110   44.8530 C   0  0  0  0  0  0  0  0  0  0  0  0
   58.9050   34.9290   45.2090 C   0  0  0  0  0  0  0  0  0  0  0  0
   59.6830   34.9070   46.3670 C   0  0  0  0  0  0  0  0  0  0  0  0
   59.7100   33.7640   47.1700 C   0  0  0  0  0  0  0  0  0  0  0  0
   58.9610   32.6310   46.8190 C   0  0  0  0  0  0  0  0  0  0  0  0
   58.9660   31.4520   47.7110 C   0  0  0  0  0  0  0  0  0  0  0  0
   58.3920   30.3960   47.3360 O   0  0  0  0  0  0  0  0  0  0  0  0
   59.6240   31.4690   48.9820 N   0  0  0  0  0  0  0  0  0  0  0  0
   60.9770   30.9780   49.2150 C   0  0  0  0  0  0  0  0  0  0  0  0
   61.9650   31.9850   48.7050 C   0  0  0  0  0  0  0  0  0  0  0  0
   62.6600   31.7540   47.5070 C   0  0  0  0  0  0  0  0  0  0  0  0
   63.5540   32.7110   47.0150 C   0  0  0  0  0  0  0  0  0  0  0  0
   63.7510   33.9070   47.7110 C   0  0  0  0  0  0  0  0  0  0  0  0
   63.0510   34.1510   48.8950 C   0  0  0  0  0  0  0  0  0  0  0  0
   62.1560   33.1980   49.3900 C   0  0  0  0  0  0  0  0  0  0  0  0
   55.2259   30.3204   43.2770 H   0  0  0  0  0  0  0  0  0  0  0  0
   56.7267   29.4831   42.7158 H   0  0  0  0  0  0  0  0  0  0  0  0
   58.6721   29.4050   43.9282 H   0  0  0  0  0  0  0  0  0  0  0  0
   60.6351   28.1352   44.7952 H   0  0  0  0  0  0  0  0  0  0  0  0
   60.3164   26.3604   46.5216 H   0  0  0  0  0  0  0  0  0  0  0  0
   58.0278   25.8507   47.3784 H   0  0  0  0  0  0  0  0  0  0  0  0
   56.0569   27.1150   46.5168 H   0  0  0  0  0  0  0  0  0  0  0  0
   57.0200   30.8820   46.0060 H   0  0  0  0  0  0  0  0  0  0  0  0
   57.5363   33.8331   43.9377 H   0  0  0  0  0  0  0  0  0  0  0  0
   58.8891   35.8279   44.5752 H   0  0  0  0  0  0  0  0  0  0  0  0
   60.2755   35.7902   46.6479 H   0  0  0  0  0  0  0  0  0  0  0  0
   60.3226   33.7524   48.0835 H   0  0  0  0  0  0  0  0  0  0  0  0
   61.1317   30.8251   50.2933 H   0  0  0  0  0  0  0  0  0  0  0  0
   61.1184   30.0233   48.6872 H   0  0  0  0  0  0  0  0  0  0  0  0
   62.5009   30.8170   46.9532 H   0  0  0  0  0  0  0  0  0  0  0  0
   64.1021   32.5222   46.0801 H   0  0  0  0  0  0  0  0  0  0  0  0
   64.4579   34.6568   47.3261 H   0  0  0  0  0  0  0  0  0  0  0  0
   63.2043   35.0948   49.4389 H   0  0  0  0  0  0  0  0  0  0  0  0
   61.5997   33.3976   50.3178 H   0  0  0  0  0  0  0  0  0  0  0  0
  1  2  2  0
  2  3  1  0
  3  4  1  0
  4  5  1  0
  5  6  2  0
  6  7  1  0
  7  8  2  0
  8  9  1  0
  9 10  2  0
  2 11  1  0
 11 12  1  0
 12 13  2  0
 13 14  1  0
 14 15  2  0
 15 16  1  0
 16 17  2  0
 17 18  1  0
 18 19  2  0
 18 20  1  0
 20 21  1  0
 21 22  1  0
 22 23  2  0
 23 24  1  0
 24 25  2  0
 25 26  1  0
 26 27  2  0
 10  5  1  0
 17 12  1  0
 27 22  1  0
  3 28  1  0
  3 29  1  0
  6 30  1  0
  7 31  1  0
  8 32  1  0
  9 33  1  0
 10 34  1  0
 11 35  1  0
 13 36  1  0
 14 37  1  0
 15 38  1  0
 16 39  1  0
 21 40  1  0
 21 41  1  0
 23 42  1  0
 24 43  1  0
 25 44  1  0
 26 45  1  0
 27 46  1  0
M  CHG  1  20  -1
M  END
>  <UniqueID>  (31) 
26

>  <SMILES>  (31) 
O=C(COc1ccccc1)Nc1ccccc1C(=O)[N-]Cc1ccccc1

>  <Energy>  (31) 
54.75557213106425

>  <Genealogy>  (31) 
O=C(COc1ccccc1)Nc1ccccc1C(=O)[N-]Cc1ccccc1 (protonated)
O=C(COc1ccccc1)Nc1ccccc1C(=O)[N-]Cc1ccccc1 (3D coordinates assigned)
O=C(COc1ccccc1)Nc1ccccc1C(=O)[N-]Cc1ccccc1 (optimized conformer: 54.75557213106425 kcal/mol)

>  <smiles>  (31) 
O=C(COc1ccccc1)Nc1ccccc1C(=O)NCc1ccccc1

>  <score_type>  (31) 
oracle

>  <origin>  (31) 
adg

>  <m_score__min__energy>  (31) 
-10.35

>  <m_primary>  (31) 
energy

$$$$
31:0
     RDKit          3D

 47 49  0  0  0  0  0  0  0  0999 V2000
   59.5650   35.4720   46.8000 C   0  0  0  0  0  0  0  0  0  0  0  0
   59.5110   34.7140   48.1170 C   0  0  0  0  0  0  0  0  0  0  0  0
   59.0470   33.3890   47.8840 O   0  0  0  0  0  0  0  0  0  0  0  0
   59.6000   32.5560   46.9050 C   0  0  0  0  0  0  0  0  0  0  0  0
   60.4870   32.9960   46.1230 O   0  0  0  0  0  0  0  0  0  0  0  0
   59.1310   31.1620   46.7750 C   0  0  0  0  0  0  0  0  0  0  0  0
   59.6660   30.1120   47.5260 C   0  0  0  0  0  0  0  0  0  0  0  0
   60.7930   30.2100   48.4120 N   0  0  0  0  0  0  0  0  0  0  0  0
   61.7510   31.2800   48.3630 C   0  0  0  0  0  0  0  0  0  0  0  0
   62.6480   31.3570   47.2860 C   0  0  0  0  0  0  0  0  0  0  0  0
   63.5770   32.3990   47.2130 C   0  0  0  0  0  0  0  0  0  0  0  0
   63.6060   33.3810   48.2070 C   0  0  0  0  0  0  0  0  0  0  0  0
   62.7020   33.3260   49.2710 C   0  0  0  0  0  0  0  0  0  0  0  0
   61.7730   32.2840   49.3480 C   0  0  0  0  0  0  0  0  0  0  0  0
   58.9640   28.6700   47.0280 S   0  0  0  0  0  0  0  0  0  0  0  0
   57.9330   29.3440   45.8820 C   0  0  0  0  0  0  0  0  0  0  0  0
   57.0130   28.5450   45.0390 C   0  0  0  0  0  0  0  0  0  0  0  0
   55.8290   28.9260   44.8640 O   0  0  0  0  0  0  0  0  0  0  0  0
   57.4170   27.2870   44.4800 N   0  0  0  0  0  0  0  0  0  0  0  0
   57.2650   26.0010   45.0980 C   0  0  0  0  0  0  0  0  0  0  0  0
   58.2160   24.9830   44.8960 C   0  0  0  0  0  0  0  0  0  0  0  0
   58.0520   23.7320   45.4970 C   0  0  0  0  0  0  0  0  0  0  0  0
   59.2550   22.4780   45.2540 Cl  0  0  0  0  0  0  0  0  0  0  0  0
   56.9280   23.4790   46.2870 C   0  0  0  0  0  0  0  0  0  0  0  0
   55.9640   24.4730   46.4700 C   0  0  0  0  0  0  0  0  0  0  0  0
   56.1230   25.7310   45.8760 C   0  0  0  0  0  0  0  0  0  0  0  0
   55.1390   26.6980   46.0800 O   0  0  0  0  0  0  0  0  0  0  0  0
   58.1190   30.7370   45.8750 C   0  0  0  0  0  0  0  0  0  0  0  0
   57.3710   31.6680   44.9570 C   0  0  0  0  0  0  0  0  0  0  0  0
   59.6418   36.5508   47.0007 H   0  0  0  0  0  0  0  0  0  0  0  0
   60.4420   35.1430   46.2233 H   0  0  0  0  0  0  0  0  0  0  0  0
   58.6502   35.2706   46.2233 H   0  0  0  0  0  0  0  0  0  0  0  0
   60.5170   34.6774   48.5603 H   0  0  0  0  0  0  0  0  0  0  0  0
   58.8243   35.2266   48.8068 H   0  0  0  0  0  0  0  0  0  0  0  0
   60.8580   29.5330   49.2030 H   0  0  0  0  0  0  0  0  0  0  0  0
   62.6197   30.5931   46.4950 H   0  0  0  0  0  0  0  0  0  0  0  0
   64.2855   32.4460   46.3729 H   0  0  0  0  0  0  0  0  0  0  0  0
   64.3409   34.1976   48.1517 H   0  0  0  0  0  0  0  0  0  0  0  0
   62.7213   34.1034   50.0490 H   0  0  0  0  0  0  0  0  0  0  0  0
   61.0566   32.2492   50.1820 H   0  0  0  0  0  0  0  0  0  0  0  0
   59.0938   25.1734   44.2610 H   0  0  0  0  0  0  0  0  0  0  0  0
   56.8021   22.4964   46.7652 H   0  0  0  0  0  0  0  0  0  0  0  0
   55.0751   24.2665   47.0841 H   0  0  0  0  0  0  0  0  0  0  0  0
   55.1480   27.5900   45.6000 H   0  0  0  0  0  0  0  0  0  0  0  0
   56.7931   32.3873   45.5558 H   0  0  0  0  0  0  0  0  0  0  0  0
   58.0870   32.2108   44.3224 H   0  0  0  0  0  0  0  0  0  0  0  0
   56.6867   31.0857   44.3224 H   0  0  0  0  0  0  0  0  0  0  0  0
  1  2  1  0
  2  3  1  0
  3  4  1  0
  4  5  2  0
  4  6  1  0
  6  7  2  0
  7  8  1  0
  8  9  1  0
  9 10  2  0
 10 11  1  0
 11 12  2  0
 12 13  1  0
 13 14  2  0
  7 15  1  0
 15 16  1  0
 16 17  1  0
 17 18  2  0
 17 19  1  0
 19 20  1  0
 20 21  2  0
 21 22  1  0
 22 23  1  0
 22 24  2  0
 24 25  1  0
 25 26  2  0
 26 27  1  0
 16 28  2  0
 28 29  1  0
 28  6  1  0
 14  9  1  0
 26 20  1  0
  1 30  1  0
  1 31  1  0
  1 32  1  0
  2 33  1  0
  2 34  1  0
  8 35  1  0
 10 36  1  0
 11 37  1  0
 12 38  1  0
 13 39  1  0
 14 40  1  0
 21 41  1  0
 24 42  1  0
 25 43  1  0
 27 44  1  0
 29 45  1  0
 29 46  1  0
 29 47  1  0
M  CHG  1  19  -1
M  END
>  <UniqueID>  (32) 
27

>  <SMILES>  (32) 
CCOC(=O)c1c(Nc2ccccc2)sc(C(=O)[N-]c2cc(Cl)ccc2O)c1C

>  <Energy>  (32) 
86.20371781140648

>  <Genealogy>  (32) 
CCOC(=O)c1c(Nc2ccccc2)sc(C(=O)[N-]c2cc(Cl)ccc2O)c1C (protonated)
CCOC(=O)c1c(Nc2ccccc2)sc(C(=O)[N-]c2cc(Cl)ccc2O)c1C (3D coordinates assigned)
CCOC(=O)c1c(Nc2ccccc2)sc(C(=O)[N-]c2cc(Cl)ccc2O)c1C (optimized conformer: 86.20371781140648 kcal/mol)

>  <smiles>  (32) 
CCOC(=O)c1c(Nc2ccccc2)sc(C(=O)Nc2cc(Cl)ccc2O)c1C

>  <score_type>  (32) 
oracle

>  <origin>  (32) 
adg

>  <m_score__min__energy>  (32) 
-10.960000000000001

>  <m_primary>  (32) 
energy

$$$$
32:0
     RDKit          3D

 55 57  0  0  1  0  0  0  0  0999 V2000
   57.0590   33.4560   47.0930 C   0  0  0  0  0  0  0  0  0  0  0  0
   57.6230   34.2810   45.9870 C   0  0  0  0  0  0  0  0  0  0  0  0
   58.8600   33.7440   45.4540 N   0  0  0  0  0  0  0  0  0  0  0  0
   58.9010   33.8110   44.0280 C   0  0  0  0  0  0  0  0  0  0  0  0
   58.1220   32.6900   43.3700 C   0  0  0  0  0  0  0  0  0  0  0  0
   59.9470   34.4120   46.0970 C   0  0  0  0  0  0  0  0  0  0  0  0
   61.2100   33.6090   46.2290 C   0  0  0  0  0  0  0  0  0  0  0  0
   61.1060   32.6440   47.3170 N   0  0  0  0  0  0  0  0  0  0  0  0
   60.5020   31.5130   47.2030 C   0  0  0  0  0  0  0  0  0  0  0  0
   61.0730   30.3880   47.7650 C   0  0  0  0  0  0  0  0  0  0  0  0
   60.3800   29.2010   47.6150 C   0  0  0  0  0  0  0  0  0  0  0  0
   59.1910   29.1520   46.9430 N   0  0  0  0  0  0  0  0  0  0  0  0
   58.5610   27.9820   46.8280 C   0  0  0  0  0  0  0  0  0  0  0  0
   57.3360   27.8590   46.1540 C   0  0  0  0  0  0  0  0  0  0  0  0
   56.6920   26.5690   46.0670 C   0  0  0  0  0  0  0  0  0  0  0  0
   57.4110   25.5600   46.3990 O   0  0  0  0  0  0  0  0  0  0  0  0
   55.3860   26.2900   45.6700 N   0  0  0  0  0  0  0  0  0  0  0  0
   54.7900   24.9690   45.6040 C   0  0  0  0  0  0  0  0  0  0  0  0
   55.6010   23.9540   44.9370 C   0  0  0  0  0  0  0  0  0  0  0  0
   56.2650   22.9730   45.6500 C   0  0  0  0  0  0  0  0  0  0  0  0
   57.0540   22.0100   45.0320 C   0  0  0  0  0  0  0  0  0  0  0  0
   57.2120   21.9910   43.6520 C   0  0  0  0  0  0  0  0  0  0  0  0
   57.9680   21.0760   43.0120 F   0  0  0  0  0  0  0  0  0  0  0  0
   56.5510   22.9700   42.9290 C   0  0  0  0  0  0  0  0  0  0  0  0
   55.7640   23.9290   43.5620 C   0  0  0  0  0  0  0  0  0  0  0  0
   56.8490   29.0330   45.6290 C   0  0  0  0  0  0  0  0  0  0  0  0
   55.7690   29.0680   45.0040 O   0  0  0  0  0  0  0  0  0  0  0  0
   57.5020   30.2200   45.7540 N   0  0  0  0  0  0  0  0  0  0  0  0
   58.6670   30.2690   46.4100 C   0  0  0  0  0  0  0  0  0  0  0  0
   59.3320   31.4480   46.5460 N   0  0  0  0  0  0  0  0  0  0  0  0
   57.3545   33.8883   48.0604 H   0  0  0  0  0  0  0  0  0  0  0  0
   55.9617   33.4423   47.0174 H   0  0  0  0  0  0  0  0  0  0  0  0
   57.4446   32.4286   47.0174 H   0  0  0  0  0  0  0  0  0  0  0  0
   56.8834   34.3306   45.1743 H   0  0  0  0  0  0  0  0  0  0  0  0
   57.8468   35.2758   46.3996 H   0  0  0  0  0  0  0  0  0  0  0  0
   58.4733   34.7726   43.7079 H   0  0  0  0  0  0  0  0  0  0  0  0
   59.9523   33.7123   43.7196 H   0  0  0  0  0  0  0  0  0  0  0  0
   57.6765   32.0490   44.1450 H   0  0  0  0  0  0  0  0  0  0  0  0
   57.3245   33.1162   42.7437 H   0  0  0  0  0  0  0  0  0  0  0  0
   58.7995   32.0911   42.7437 H   0  0  0  0  0  0  0  0  0  0  0  0
   60.1796   35.3173   45.5171 H   0  0  0  0  0  0  0  0  0  0  0  0
   59.6107   34.6186   47.1238 H   0  0  0  0  0  0  0  0  0  0  0  0
   61.3938   33.0707   45.2875 H   0  0  0  0  0  0  0  0  0  0  0  0
   62.0401   34.2963   46.4492 H   0  0  0  0  0  0  0  0  0  0  0  0
   62.0305   30.4340   48.3045 H   0  0  0  0  0  0  0  0  0  0  0  0
   60.7941   28.2773   48.0453 H   0  0  0  0  0  0  0  0  0  0  0  0
   59.0156   27.0857   47.2752 H   0  0  0  0  0  0  0  0  0  0  0  0
   54.7690   27.0790   45.3900 H   0  0  0  0  0  0  0  0  0  0  0  0
   54.5989   24.6300   46.6329 H   0  0  0  0  0  0  0  0  0  0  0  0
   53.8768   25.0757   45.0001 H   0  0  0  0  0  0  0  0  0  0  0  0
   56.1653   22.9540   46.7453 H   0  0  0  0  0  0  0  0  0  0  0  0
   57.5614   21.2508   45.6454 H   0  0  0  0  0  0  0  0  0  0  0  0
   56.6495   22.9905   41.8336 H   0  0  0  0  0  0  0  0  0  0  0  0
   55.2563   24.6899   42.9510 H   0  0  0  0  0  0  0  0  0  0  0  0
   58.9220   32.2900   46.1370 H   0  0  0  0  0  0  0  0  0  0  0  0
  1  2  1  0
  2  3  1  0
  3  4  1  0
  4  5  1  0
  3  6  1  0
  6  7  1  0
  7  8  1  0
  8  9  2  0
  9 10  1  0
 10 11  2  0
 11 12  1  0
 12 13  1  0
 13 14  2  0
 14 15  1  0
 15 16  2  0
 15 17  1  0
 17 18  1  0
 18 19  1  0
 19 20  2  0
 20 21  1  0
 21 22  2  0
 22 23  1  0
 22 24  1  0
 24 25  2  0
 14 26  1  0
 26 27  2  0
 26 28  1  0
 28 29  2  0
 29 30  1  0
 30  9  1  0
 29 12  1  0
 25 19  1  0
  1 31  1  0
  1 32  1  0
  1 33  1  0
  2 34  1  0
  2 35  1  0
  4 36  1  0
  4 37  1  0
  5 38  1  0
  5 39  1  0
  5 40  1  0
  6 41  1  0
  6 42  1  0
  7 43  1  0
  7 44  1  0
 10 45  1  0
 11 46  1  0
 13 47  1  0
 17 48  1  0
 18 49  1  0
 18 50  1  0
 20 51  1  0
 21 52  1  0
 24 53  1  0
 25 54  1  0
 30 55  1  0
M  END
>  <smiles>  (33) 
CCN(CC)CCN=c1ccn2cc(C(=O)NCc3ccc(F)cc3)c(=O)nc2[nH]1

>  <score_type>  (33) 
oracle

>  <origin>  (33) 
adg

>  <m_score__min__energy>  (33) 
-8.0700000000000003

>  <m_primary>  (33) 
energy

$$$$
33:0
     RDKit          3D

 44 46  0  0  0  0  0  0  0  0999 V2000
   55.8810   24.2590   44.8950 C   0  0  0  0  0  0  0  0  0  0  0  0
   55.7370   25.4610   45.7780 C   0  0  0  0  0  0  0  0  0  0  0  0
   54.5940   25.9580   45.9530 O   0  0  0  0  0  0  0  0  0  0  0  0
   56.8670   26.0900   46.3990 N   0  0  0  0  0  0  0  0  0  0  0  0
   57.3000   27.4450   46.2120 C   0  0  0  0  0  0  0  0  0  0  0  0
   56.6490   28.2390   45.2620 C   0  0  0  0  0  0  0  0  0  0  0  0
   57.0340   29.5690   45.0660 C   0  0  0  0  0  0  0  0  0  0  0  0
   58.0780   30.1250   45.8210 C   0  0  0  0  0  0  0  0  0  0  0  0
   58.4560   31.4960   45.6000 N   0  0  0  0  0  0  0  0  0  0  0  0
   58.2060   32.2070   44.3770 C   0  0  0  0  0  0  0  0  0  0  0  0
   57.4470   31.7230   43.4940 O   0  0  0  0  0  0  0  0  0  0  0  0
   58.8520   33.5380   44.1340 C   0  0  0  0  0  0  0  0  0  0  0  0
   58.3140   34.6000   45.1080 C   0  0  0  0  0  0  0  0  0  0  0  0
   59.6550   35.3000   46.1340 S   0  0  0  0  0  0  0  0  0  0  0  0
   59.8920   33.7930   47.0760 C   0  0  0  0  0  0  0  0  0  0  0  0
   60.8160   32.8630   46.7760 N   0  0  0  0  0  0  0  0  0  0  0  0
   60.6670   31.8890   47.6570 N   0  0  0  0  0  0  0  0  0  0  0  0
   59.6560   32.2530   48.4700 C   0  0  0  0  0  0  0  0  0  0  0  0
   59.1770   31.4350   49.6050 C   0  0  0  0  0  0  0  0  0  0  0  0
   58.1410   31.9010   50.4330 C   0  0  0  0  0  0  0  0  0  0  0  0
   57.6800   31.1190   51.4940 C   0  0  0  0  0  0  0  0  0  0  0  0
   58.2470   29.8660   51.7420 C   0  0  0  0  0  0  0  0  0  0  0  0
   59.2790   29.3950   50.9280 C   0  0  0  0  0  0  0  0  0  0  0  0
   59.7490   30.1770   49.8690 C   0  0  0  0  0  0  0  0  0  0  0  0
   59.1380   33.4540   48.1370 N   0  0  0  0  0  0  0  0  0  0  0  0
   58.6920   29.3450   46.8160 C   0  0  0  0  0  0  0  0  0  0  0  0
   58.3060   28.0150   47.0090 C   0  0  0  0  0  0  0  0  0  0  0  0
   55.9889   23.3581   45.5168 H   0  0  0  0  0  0  0  0  0  0  0  0
   54.9881   24.1614   44.2600 H   0  0  0  0  0  0  0  0  0  0  0  0
   56.7717   24.3751   44.2600 H   0  0  0  0  0  0  0  0  0  0  0  0
   55.8285   27.8142   44.6650 H   0  0  0  0  0  0  0  0  0  0  0  0
   56.5152   30.1832   44.3153 H   0  0  0  0  0  0  0  0  0  0  0  0
   58.8610   32.0310   46.4020 H   0  0  0  0  0  0  0  0  0  0  0  0
   59.9388   33.4407   44.2729 H   0  0  0  0  0  0  0  0  0  0  0  0
   58.6208   33.8565   43.1068 H   0  0  0  0  0  0  0  0  0  0  0  0
   57.8441   35.4101   44.5310 H   0  0  0  0  0  0  0  0  0  0  0  0
   57.5812   34.1209   45.7740 H   0  0  0  0  0  0  0  0  0  0  0  0
   57.6911   32.8869   50.2441 H   0  0  0  0  0  0  0  0  0  0  0  0
   56.8681   31.4903   52.1366 H   0  0  0  0  0  0  0  0  0  0  0  0
   57.8807   29.2515   52.5776 H   0  0  0  0  0  0  0  0  0  0  0  0
   59.7228   28.4071   51.1204 H   0  0  0  0  0  0  0  0  0  0  0  0
   60.5708   29.8067   49.2384 H   0  0  0  0  0  0  0  0  0  0  0  0
   59.4801   29.7830   47.4461 H   0  0  0  0  0  0  0  0  0  0  0  0
   58.7930   27.4119   47.7894 H   0  0  0  0  0  0  0  0  0  0  0  0
  1  2  1  0
  2  3  2  0
  2  4  1  0
  4  5  1  0
  5  6  2  0
  6  7  1  0
  7  8  2  0
  8  9  1  0
  9 10  1  0
 10 11  2  0
 10 12  1  0
 12 13  1  0
 13 14  1  0
 14 15  1  0
 15 16  2  0
 16 17  1  0
 17 18  1  0
 18 19  1  0
 19 20  2  0
 20 21  1  0
 21 22  2  0
 22 23  1  0
 23 24  2  0
 18 25  2  0
  8 26  1  0
 26 27  2  0
 27  5  1  0
 25 15  1  0
 24 19  1  0
  1 28  1  0
  1 29  1  0
  1 30  1  0
  6 31  1  0
  7 32  1  0
  9 33  1  0
 12 34  1  0
 12 35  1  0
 13 36  1  0
 13 37  1  0
 20 38  1  0
 21 39  1  0
 22 40  1  0
 23 41  1  0
 24 42  1  0
 26 43  1  0
 27 44  1  0
M  CHG  2   4  -1  17  -1
M  END
>  <UniqueID>  (34) 
28

>  <SMILES>  (34) 
CC(=O)[N-]c1ccc(NC(=O)CCSc2n[n-]c(-c3ccccc3)n2)cc1

>  <Energy>  (34) 
81.18797100149207

>  <Genealogy>  (34) 
CC(=O)[N-]c1ccc(NC(=O)CCSc2n[n-]c(-c3ccccc3)n2)cc1 (protonated)
CC(=O)[N-]c1ccc(NC(=O)CCSc2n[n-]c(-c3ccccc3)n2)cc1 (3D coordinates assigned)
CC(=O)[N-]c1ccc(NC(=O)CCSc2n[n-]c(-c3ccccc3)n2)cc1 (optimized conformer: 81.18797100149207 kcal/mol)

>  <smiles>  (34) 
CC(=O)Nc1ccc(NC(=O)CCSc2n[nH]c(-c3ccccc3)n2)cc1

>  <score_type>  (34) 
oracle

>  <origin>  (34) 
adg

>  <m_score__min__energy>  (34) 
-9.9700000000000006

>  <m_primary>  (34) 
energy

$$$$
34:0
     RDKit          3D

 28 29  0  0  0  0  0  0  0  0999 V2000
   57.9228   31.2249   42.8452 H   0  0  0  0  0  0  0  0  0  0  0  0
   57.5760   31.2110   43.8890 C   0  0  0  0  0  0  0  0  0  0  0  0
   56.7220   30.2360   44.2430 C   0  0  0  0  0  0  0  0  0  0  0  0
   55.6709   30.3517   43.9399 H   0  0  0  0  0  0  0  0  0  0  0  0
   57.0780   29.0190   45.0070 C   0  0  0  0  0  0  0  0  0  0  0  0
   58.3600   28.8500   45.5530 C   0  0  0  0  0  0  0  0  0  0  0  0
   59.1385   29.6126   45.4033 H   0  0  0  0  0  0  0  0  0  0  0  0
   58.6270   27.6960   46.2890 C   0  0  0  0  0  0  0  0  0  0  0  0
   59.7700   27.5080   46.7800 O   0  0  0  0  0  0  0  0  0  0  0  0
   57.6490   26.7750   46.4810 N   0  0  0  0  0  0  0  0  0  0  0  0
   56.4030   26.9600   45.9710 C   0  0  0  0  0  0  0  0  0  0  0  0
   55.5130   26.0940   46.1700 O   0  0  0  0  0  0  0  0  0  0  0  0
   56.1200   28.0790   45.2490 N   0  0  0  0  0  0  0  0  0  0  0  0
   55.1560   28.2100   44.8670 H   0  0  0  0  0  0  0  0  0  0  0  0
   58.0880   32.2680   44.7900 C   0  0  0  0  0  0  0  0  0  0  0  0
   58.4320   33.5420   44.3050 C   0  0  0  0  0  0  0  0  0  0  0  0
   58.3482   33.7598   43.2300 H   0  0  0  0  0  0  0  0  0  0  0  0
   58.8800   34.5330   45.1830 C   0  0  0  0  0  0  0  0  0  0  0  0
   59.1615   35.5233   44.7956 H   0  0  0  0  0  0  0  0  0  0  0  0
   58.9710   34.2680   46.5520 C   0  0  0  0  0  0  0  0  0  0  0  0
   59.3196   35.0520   47.2404 H   0  0  0  0  0  0  0  0  0  0  0  0
   58.6190   33.0050   47.0510 C   0  0  0  0  0  0  0  0  0  0  0  0
   58.6680   32.7380   48.5260 C   0  0  0  0  0  0  0  0  0  0  0  0
   58.4959   33.6759   49.0743 H   0  0  0  0  0  0  0  0  0  0  0  0
   57.8886   32.0090   48.7928 H   0  0  0  0  0  0  0  0  0  0  0  0
   59.6554   32.3332   48.7928 H   0  0  0  0  0  0  0  0  0  0  0  0
   58.1550   32.0180   46.1690 C   0  0  0  0  0  0  0  0  0  0  0  0
   57.8410   31.0397   46.5618 H   0  0  0  0  0  0  0  0  0  0  0  0
  1  2  1  0
  2  3  2  0
  3  4  1  0
  3  5  1  0
  5  6  2  0
  6  7  1  0
  6  8  1  0
  8  9  2  0
  8 10  1  0
 10 11  1  0
 11 12  2  0
 11 13  1  0
 13 14  1  0
  2 15  1  0
 15 16  2  0
 16 17  1  0
 16 18  1  0
 18 19  1  0
 18 20  2  0
 20 21  1  0
 20 22  1  0
 22 23  1  0
 23 24  1  0
 23 25  1  0
 23 26  1  0
 22 27  2  0
 27 28  1  0
 13  5  1  0
 27 15  1  0
M  CHG  1  10  -1
M  END
>  <UniqueID>  (35) 
29

>  <SMILES>  (35) 
Cc1cccc(/C=C\c2cc(=O)[n-]c(=O)[nH]2)c1

>  <Energy>  (35) 
38.23730991484382

>  <Genealogy>  (35) 
Cc1cccc(C=Cc2cc(=O)[n-]c(=O)[nH]2)c1 (protonated)
Cc1cccc(/C=C\c2cc(=O)[n-]c(=O)[nH]2)c1 (cis-trans isomerization)
Cc1cccc(/C=C\c2cc(=O)[n-]c(=O)[nH]2)c1 (3D coordinates assigned)
Cc1cccc(/C=C\c2cc(=O)[n-]c(=O)[nH]2)c1 (optimized conformer: 38.23730991484382 kcal/mol)

>  <smiles>  (35) 
Cc1cccc(C=Cc2cc(=O)[nH]c(=O)[nH]2)c1

>  <score_type>  (35) 
oracle

>  <origin>  (35) 
adg

>  <m_score__min__energy>  (35) 
-9.0500000000000007

>  <m_primary>  (35) 
energy

$$$$
35:0
     RDKit          3D

 49 52  0  0  0  0  0  0  0  0999 V2000
   57.7930   34.0860   45.0040 C   0  0  0  0  0  0  0  0  0  0  0  0
   58.4850   34.0020   46.3230 C   0  0  0  0  0  0  0  0  0  0  0  0
   58.0460   33.2640   47.4250 C   0  0  0  0  0  0  0  0  0  0  0  0
   58.9050   33.2990   48.4790 N   0  0  0  0  0  0  0  0  0  0  0  0
   58.7370   32.6910   49.6870 C   0  0  0  0  0  0  0  0  0  0  0  0
   57.7040   32.0120   49.9310 O   0  0  0  0  0  0  0  0  0  0  0  0
   59.7360   32.8310   50.6590 C   0  0  0  0  0  0  0  0  0  0  0  0
   60.8880   33.5780   50.3500 C   0  0  0  0  0  0  0  0  0  0  0  0
   61.9800   33.7690   51.3620 C   0  0  0  0  0  0  0  0  0  0  0  0
   62.9840   32.7700   51.1940 O   0  0  0  0  0  0  0  0  0  0  0  0
   62.6960   31.4360   50.8780 C   0  0  0  0  0  0  0  0  0  0  0  0
   62.8540   30.5300   51.7410 O   0  0  0  0  0  0  0  0  0  0  0  0
   62.2120   31.0900   49.5230 C   0  0  0  0  0  0  0  0  0  0  0  0
   62.8920   31.5620   48.3880 C   0  0  0  0  0  0  0  0  0  0  0  0
   62.4330   31.2400   47.1090 C   0  0  0  0  0  0  0  0  0  0  0  0
   61.2980   30.4410   46.9470 C   0  0  0  0  0  0  0  0  0  0  0  0
   60.6190   29.9410   48.0720 C   0  0  0  0  0  0  0  0  0  0  0  0
   59.4290   29.1470   47.9530 N   0  0  0  0  0  0  0  0  0  0  0  0
   59.0520   28.3340   46.8340 C   0  0  0  0  0  0  0  0  0  0  0  0
   59.8920   27.5760   46.2760 O   0  0  0  0  0  0  0  0  0  0  0  0
   57.6480   28.4200   46.3130 C   0  0  0  0  0  0  0  0  0  0  0  0
   57.5210   29.4340   45.2030 C   0  0  0  0  0  0  0  0  0  0  0  0
   58.6410   30.1930   44.8200 C   0  0  0  0  0  0  0  0  0  0  0  0
   58.5320   31.1470   43.8060 C   0  0  0  0  0  0  0  0  0  0  0  0
   57.3080   31.3570   43.1680 C   0  0  0  0  0  0  0  0  0  0  0  0
   56.1840   30.6240   43.5540 C   0  0  0  0  0  0  0  0  0  0  0  0
   56.2810   29.6710   44.5730 C   0  0  0  0  0  0  0  0  0  0  0  0
   55.1450   28.9670   44.9550 O   0  0  0  0  0  0  0  0  0  0  0  0
   61.0710   30.2830   49.3540 C   0  0  0  0  0  0  0  0  0  0  0  0
   61.0040   34.1740   49.1290 N   0  0  0  0  0  0  0  0  0  0  0  0
   60.0140   34.0300   48.2150 C   0  0  0  0  0  0  0  0  0  0  0  0
   60.0000   34.6760   46.6670 S   0  0  0  0  0  0  0  0  0  0  0  0
   56.7127   34.2171   45.1644 H   0  0  0  0  0  0  0  0  0  0  0  0
   58.1863   34.9430   44.4375 H   0  0  0  0  0  0  0  0  0  0  0  0
   57.9698   33.1598   44.4375 H   0  0  0  0  0  0  0  0  0  0  0  0
   57.0969   32.7081   47.4389 H   0  0  0  0  0  0  0  0  0  0  0  0
   59.6218   32.3643   51.6485 H   0  0  0  0  0  0  0  0  0  0  0  0
   62.4304   34.7636   51.2280 H   0  0  0  0  0  0  0  0  0  0  0  0
   61.5534   33.6844   52.3724 H   0  0  0  0  0  0  0  0  0  0  0  0
   63.7891   32.1874   48.5071 H   0  0  0  0  0  0  0  0  0  0  0  0
   62.9675   31.6172   46.2247 H   0  0  0  0  0  0  0  0  0  0  0  0
   60.9348   30.2026   45.9364 H   0  0  0  0  0  0  0  0  0  0  0  0
   57.3501   27.4332   45.9290 H   0  0  0  0  0  0  0  0  0  0  0  0
   56.9961   28.7368   47.1404 H   0  0  0  0  0  0  0  0  0  0  0  0
   59.6072   30.0346   45.3213 H   0  0  0  0  0  0  0  0  0  0  0  0
   59.4131   31.7348   43.5091 H   0  0  0  0  0  0  0  0  0  0  0  0
   57.2291   32.1002   42.3609 H   0  0  0  0  0  0  0  0  0  0  0  0
   55.2190   30.7967   43.0550 H   0  0  0  0  0  0  0  0  0  0  0  0
   60.5281   29.9167   50.2378 H   0  0  0  0  0  0  0  0  0  0  0  0
  1  2  1  0
  2  3  2  0
  3  4  1  0
  4  5  1  0
  5  6  2  0
  5  7  1  0
  7  8  2  0
  8  9  1  0
  9 10  1  0
 10 11  1  0
 11 12  2  0
 11 13  1  0
 13 14  2  0
 14 15  1  0
 15 16  2  0
 16 17  1  0
 17 18  1  0
 18 19  1  0
 19 20  2  0
 19 21  1  0
 21 22  1  0
 22 23  2  0
 23 24  1  0
 24 25  2  0
 25 26  1  0
 26 27  2  0
 27 28  1  0
 17 29  2  0
  8 30  1  0
 30 31  2  0
 31 32  1  0
 32  2  1  0
 31  4  1  0
 29 13  1  0
 27 22  1  0
  1 33  1  0
  1 34  1  0
  1 35  1  0
  3 36  1  0
  7 37  1  0
  9 38  1  0
  9 39  1  0
 14 40  1  0
 15 41  1  0
 16 42  1  0
 21 43  1  0
 21 44  1  0
 23 45  1  0
 24 46  1  0
 25 47  1  0
 26 48  1  0
 29 49  1  0
M  CHG  2  18  -1  28  -1
M  END
>  <UniqueID>  (36) 
30

>  <SMILES>  (36) 
Cc1cn2c(=O)cc(COC(=O)c3cccc([N-]C(=O)Cc4ccccc4[O-])c3)nc2s1

>  <Energy>  (36) 
89.70839639880526

>  <Genealogy>  (36) 
Cc1cn2c(=O)cc(COC(=O)c3cccc([N-]C(=O)Cc4ccccc4[O-])c3)nc2s1 (protonated)
Cc1cn2c(=O)cc(COC(=O)c3cccc([N-]C(=O)Cc4ccccc4[O-])c3)nc2s1 (3D coordinates assigned)
Cc1cn2c(=O)cc(COC(=O)c3cccc([N-]C(=O)Cc4ccccc4[O-])c3)nc2s1 (optimized conformer: 89.70839639880526 kcal/mol)

>  <smiles>  (36) 
Cc1cn2c(=O)cc(COC(=O)c3cccc(NC(=O)Cc4ccccc4O)c3)nc2s1

>  <score_type>  (36) 
oracle

>  <origin>  (36) 
adg

>  <m_score__min__energy>  (36) 
-13.98

>  <m_primary>  (36) 
energy

$$$$
36:0
     RDKit          3D

 32 33  0  0  0  0  0  0  0  0999 V2000
   53.5040   24.1310   45.5510 C   0  0  0  0  0  0  0  0  0  0  0  0
   54.7460   24.9540   45.6250 C   0  0  0  0  0  0  0  0  0  0  0  0
   56.0340   24.5080   45.3960 C   0  0  0  0  0  0  0  0  0  0  0  0
   56.8030   25.6380   45.6210 C   0  0  0  0  0  0  0  0  0  0  0  0
   58.1000   25.7470   45.5730 N   0  0  0  0  0  0  0  0  0  0  0  0
   58.9510   26.5790   46.3800 C   0  0  0  0  0  0  0  0  0  0  0  0
   59.6460   26.0330   47.2770 O   0  0  0  0  0  0  0  0  0  0  0  0
   58.9880   28.0790   46.2580 C   0  0  0  0  0  0  0  0  0  0  0  0
   57.6700   28.6720   46.4970 N   0  0  0  0  0  0  0  0  0  0  0  0
   57.0380   29.3990   45.0480 S   0  0  0  0  0  0  0  0  0  0  0  0
   55.5350   29.3460   45.0590 O   0  0  0  0  0  0  0  0  0  0  0  0
   57.5300   28.6270   43.8560 O   0  0  0  0  0  0  0  0  0  0  0  0
   57.5890   31.0670   44.9140 C   0  0  0  0  0  0  0  0  0  0  0  0
   57.8550   31.8080   46.0730 C   0  0  0  0  0  0  0  0  0  0  0  0
   58.2780   33.1360   45.9770 C   0  0  0  0  0  0  0  0  0  0  0  0
   58.4350   33.7330   44.7220 C   0  0  0  0  0  0  0  0  0  0  0  0
   58.8440   35.0220   44.6300 F   0  0  0  0  0  0  0  0  0  0  0  0
   58.1670   33.0000   43.5620 C   0  0  0  0  0  0  0  0  0  0  0  0
   57.7420   31.6710   43.6560 C   0  0  0  0  0  0  0  0  0  0  0  0
   56.0020   26.6590   45.9710 N   0  0  0  0  0  0  0  0  0  0  0  0
   54.7770   26.2240   45.9650 O   0  0  0  0  0  0  0  0  0  0  0  0
   53.1558   23.9003   46.5686 H   0  0  0  0  0  0  0  0  0  0  0  0
   52.7241   24.6916   45.0149 H   0  0  0  0  0  0  0  0  0  0  0  0
   53.7163   23.1942   45.0149 H   0  0  0  0  0  0  0  0  0  0  0  0
   56.3673   23.5007   45.1057 H   0  0  0  0  0  0  0  0  0  0  0  0
   59.6989   28.4797   46.9956 H   0  0  0  0  0  0  0  0  0  0  0  0
   59.2993   28.3334   45.2341 H   0  0  0  0  0  0  0  0  0  0  0  0
   57.7304   31.3425   47.0618 H   0  0  0  0  0  0  0  0  0  0  0  0
   58.4879   33.7129   46.8898 H   0  0  0  0  0  0  0  0  0  0  0  0
   58.2905   33.4690   42.5747 H   0  0  0  0  0  0  0  0  0  0  0  0
   57.5271   31.0976   42.7422 H   0  0  0  0  0  0  0  0  0  0  0  0
   56.2910   27.6330   46.2160 H   0  0  0  0  0  0  0  0  0  0  0  0
  1  2  1  0
  2  3  2  0
  3  4  1  0
  4  5  2  3
  5  6  1  0
  6  7  2  0
  6  8  1  0
  8  9  1  0
  9 10  1  0
 10 11  2  0
 10 12  2  0
 10 13  1  0
 13 14  2  0
 14 15  1  0
 15 16  2  0
 16 17  1  0
 16 18  1  0
 18 19  2  0
  4 20  1  0
 20 21  1  0
 21  2  1  0
 19 13  1  0
  1 22  1  0
  1 23  1  0
  1 24  1  0
  3 25  1  0
  8 26  1  0
  8 27  1  0
 14 28  1  0
 15 29  1  0
 18 30  1  0
 19 31  1  0
 20 32  1  0
M  CHG  1   9  -1
M  END
>  <UniqueID>  (37) 
31

>  <SMILES>  (37) 
Cc1cc(=NC(=O)C[N-]S(=O)(=O)c2ccc(F)cc2)[nH]o1

>  <Energy>  (37) 
68.85541533028916

>  <Genealogy>  (37) 
Cc1cc(=NC(=O)C[N-]S(=O)(=O)c2ccc(F)cc2)[nH]o1 (protonated)
Cc1cc(=NC(=O)C[N-]S(=O)(=O)c2ccc(F)cc2)[nH]o1 (3D coordinates assigned)
Cc1cc(=NC(=O)C[N-]S(=O)(=O)c2ccc(F)cc2)[nH]o1 (optimized conformer: 68.85541533028916 kcal/mol)

>  <smiles>  (37) 
Cc1cc(=NC(=O)CNS(=O)(=O)c2ccc(F)cc2)[nH]o1

>  <score_type>  (37) 
oracle

>  <origin>  (37) 
adg

>  <m_score__min__energy>  (37) 
-8.5

>  <m_primary>  (37) 
energy

$$$$
37:0
     RDKit          3D

 45 47  0  0  0  0  0  0  0  0999 V2000
   53.5840   24.4870   45.6010 C   0  0  0  0  0  0  0  0  0  0  0  0
   54.4950   25.5140   45.9770 O   0  0  0  0  0  0  0  0  0  0  0  0
   55.8920   25.3880   45.9450 C   0  0  0  0  0  0  0  0  0  0  0  0
   56.5370   24.1460   46.1180 C   0  0  0  0  0  0  0  0  0  0  0  0
   57.9310   24.0640   46.0710 C   0  0  0  0  0  0  0  0  0  0  0  0
   58.6950   25.2120   45.8500 C   0  0  0  0  0  0  0  0  0  0  0  0
   58.0670   26.4470   45.6810 C   0  0  0  0  0  0  0  0  0  0  0  0
   56.6710   26.5410   45.7350 C   0  0  0  0  0  0  0  0  0  0  0  0
   56.0470   27.8160   45.5930 N   0  0  0  0  0  0  0  0  0  0  0  0
   56.6250   28.9650   44.4360 S   0  0  0  0  0  0  0  0  0  0  0  0
   57.6180   28.3090   43.5180 O   0  0  0  0  0  0  0  0  0  0  0  0
   55.4680   29.4550   43.6140 O   0  0  0  0  0  0  0  0  0  0  0  0
   57.3570   30.3370   45.2570 C   0  0  0  0  0  0  0  0  0  0  0  0
   57.1150   31.9410   44.8070 S   0  0  0  0  0  0  0  0  0  0  0  0
   58.0380   32.5310   46.0790 C   0  0  0  0  0  0  0  0  0  0  0  0
   58.2180   33.7980   46.3040 N   0  0  0  0  0  0  0  0  0  0  0  0
   59.4450   34.4440   46.6800 C   0  0  0  0  0  0  0  0  0  0  0  0
   59.4000   35.3570   47.5440 O   0  0  0  0  0  0  0  0  0  0  0  0
   60.7670   34.1390   46.0170 C   0  0  0  0  0  0  0  0  0  0  0  0
   61.6880   33.4650   46.9510 N   0  0  0  0  0  0  0  0  0  0  0  0
   61.1850   32.8030   48.0370 C   0  0  0  0  0  0  0  0  0  0  0  0
   62.0330   32.1490   48.9270 C   0  0  0  0  0  0  0  0  0  0  0  0
   63.4040   32.2030   48.7000 C   0  0  0  0  0  0  0  0  0  0  0  0
   64.1970   31.6200   49.4880 O   0  0  0  0  0  0  0  0  0  0  0  0
   63.8870   32.8880   47.6300 N   0  0  0  0  0  0  0  0  0  0  0  0
   63.0480   33.5210   46.7640 C   0  0  0  0  0  0  0  0  0  0  0  0
   63.5340   34.1600   45.7920 O   0  0  0  0  0  0  0  0  0  0  0  0
   58.5180   31.5410   46.8630 N   0  0  0  0  0  0  0  0  0  0  0  0
   58.1420   30.3130   46.4140 C   0  0  0  0  0  0  0  0  0  0  0  0
   58.5880   29.0670   47.1070 C   0  0  0  0  0  0  0  0  0  0  0  0
   53.1675   24.0175   46.5044 H   0  0  0  0  0  0  0  0  0  0  0  0
   52.7683   24.9209   45.0040 H   0  0  0  0  0  0  0  0  0  0  0  0
   54.1121   23.7289   45.0040 H   0  0  0  0  0  0  0  0  0  0  0  0
   55.9403   23.2382   46.2906 H   0  0  0  0  0  0  0  0  0  0  0  0
   58.4282   23.0924   46.2085 H   0  0  0  0  0  0  0  0  0  0  0  0
   59.7921   25.1429   45.8091 H   0  0  0  0  0  0  0  0  0  0  0  0
   58.6708   27.3494   45.5048 H   0  0  0  0  0  0  0  0  0  0  0  0
   60.5915   33.4842   45.1507 H   0  0  0  0  0  0  0  0  0  0  0  0
   61.2248   35.0874   45.6993 H   0  0  0  0  0  0  0  0  0  0  0  0
   60.0987   32.7871   48.2092 H   0  0  0  0  0  0  0  0  0  0  0  0
   61.6274   31.6017   49.7907 H   0  0  0  0  0  0  0  0  0  0  0  0
   64.9200   32.9320   47.4710 H   0  0  0  0  0  0  0  0  0  0  0  0
   58.5353   29.2141   48.1958 H   0  0  0  0  0  0  0  0  0  0  0  0
   57.9329   28.2320   46.8177 H   0  0  0  0  0  0  0  0  0  0  0  0
   59.6241   28.8374   46.8177 H   0  0  0  0  0  0  0  0  0  0  0  0
  1  2  1  0
  2  3  1  0
  3  4  2  0
  4  5  1  0
  5  6  2  0
  6  7  1  0
  7  8  2  0
  8  9  1  0
  9 10  1  0
 10 11  2  0
 10 12  2  0
 10 13  1  0
 13 14  1  0
 14 15  1  0
 15 16  2  3
 16 17  1  0
 17 18  2  0
 17 19  1  0
 19 20  1  0
 20 21  1  0
 21 22  2  0
 22 23  1  0
 23 24  2  0
 23 25  1  0
 25 26  1  0
 26 27  2  0
 15 28  1  0
 28 29  1  0
 29 30  1  0
  8  3  1  0
 29 13  2  0
 26 20  1  0
  1 31  1  0
  1 32  1  0
  1 33  1  0
  4 34  1  0
  5 35  1  0
  6 36  1  0
  7 37  1  0
 19 38  1  0
 19 39  1  0
 21 40  1  0
 22 41  1  0
 25 42  1  0
 30 43  1  0
 30 44  1  0
 30 45  1  0
M  CHG  2   9  -1  28  -1
M  END
>  <UniqueID>  (38) 
32

>  <SMILES>  (38) 
COc1ccccc1[N-]S(=O)(=O)c1sc(=NC(=O)Cn2ccc(=O)[nH]c2=O)[n-]c1C

>  <Energy>  (38) 
89.45153854318355

>  <Genealogy>  (38) 
COc1ccccc1[N-]S(=O)(=O)c1sc(=NC(=O)Cn2ccc(=O)[nH]c2=O)[n-]c1C (protonated)
COc1ccccc1[N-]S(=O)(=O)c1sc(=NC(=O)Cn2ccc(=O)[nH]c2=O)[n-]c1C (3D coordinates assigned)
COc1ccccc1[N-]S(=O)(=O)c1sc(=NC(=O)Cn2ccc(=O)[nH]c2=O)[n-]c1C (optimized conformer: 89.45153854318355 kcal/mol)

>  <smiles>  (38) 
COc1ccccc1NS(=O)(=O)c1sc(=NC(=O)Cn2ccc(=O)[nH]c2=O)[nH]c1C

>  <score_type>  (38) 
oracle

>  <origin>  (38) 
adg

>  <m_score__min__energy>  (38) 
-11.94

>  <m_primary>  (38) 
energy

$$$$
38:0
     RDKit          3D

 50 52  0  0  0  0  0  0  0  0999 V2000
   50.2420   22.4720   46.9160 C   0  0  0  0  0  0  0  0  0  0  0  0
   51.6860   22.5110   46.5210 C   0  0  0  0  0  0  0  0  0  0  0  0
   52.0320   22.8420   45.2490 N   0  0  0  0  0  0  0  0  0  0  0  0
   53.3090   22.8980   44.8700 N   0  0  0  0  0  0  0  0  0  0  0  0
   54.3070   22.6260   45.7500 C   0  0  0  0  0  0  0  0  0  0  0  0
   56.0160   22.6970   45.2210 S   0  0  0  0  0  0  0  0  0  0  0  0
   55.9290   24.4240   44.6370 C   0  0  0  0  0  0  0  0  0  0  0  0
   55.8930   25.3700   45.8030 C   0  0  0  0  0  0  0  0  0  0  0  0
   54.8570   26.0570   46.0030 O   0  0  0  0  0  0  0  0  0  0  0  0
   57.0490   25.6130   46.6130 N   0  0  0  0  0  0  0  0  0  0  0  0
   57.7430   26.8600   46.7380 C   0  0  0  0  0  0  0  0  0  0  0  0
   58.6450   27.0940   47.7890 C   0  0  0  0  0  0  0  0  0  0  0  0
   59.2750   28.3360   47.9120 C   0  0  0  0  0  0  0  0  0  0  0  0
   58.9900   29.3590   47.0050 C   0  0  0  0  0  0  0  0  0  0  0  0
   58.0630   29.1500   45.9750 C   0  0  0  0  0  0  0  0  0  0  0  0
   57.6490   30.4620   44.8720 S   0  0  0  0  0  0  0  0  0  0  0  0
   58.0930   30.1000   43.4830 O   0  0  0  0  0  0  0  0  0  0  0  0
   56.1560   30.6370   44.8490 O   0  0  0  0  0  0  0  0  0  0  0  0
   58.4010   31.9660   45.3600 N   0  0  0  0  0  0  0  0  0  0  0  0
   58.0330   32.2950   46.7510 C   0  0  0  0  0  0  0  0  0  0  0  0
   59.0580   33.2020   47.4550 C   0  0  0  0  0  0  0  0  0  0  0  0
   59.9470   33.9390   46.4530 C   0  0  0  0  0  0  0  0  0  0  0  0
   59.2000   34.9940   45.6310 C   0  0  0  0  0  0  0  0  0  0  0  0
   57.9600   34.4420   44.9130 C   0  0  0  0  0  0  0  0  0  0  0  0
   58.1980   33.0280   44.3450 C   0  0  0  0  0  0  0  0  0  0  0  0
   57.4400   27.8990   45.8480 C   0  0  0  0  0  0  0  0  0  0  0  0
   54.0020   22.3040   47.0320 N   0  0  0  0  0  0  0  0  0  0  0  0
   52.7090   22.2410   47.4400 C   0  0  0  0  0  0  0  0  0  0  0  0
   52.4440   21.9400   48.6340 O   0  0  0  0  0  0  0  0  0  0  0  0
   50.1619   22.4698   48.0131 H   0  0  0  0  0  0  0  0  0  0  0  0
   49.7275   23.3566   46.5125 H   0  0  0  0  0  0  0  0  0  0  0  0
   49.7760   21.5609   46.5125 H   0  0  0  0  0  0  0  0  0  0  0  0
   56.8129   24.6429   44.0199 H   0  0  0  0  0  0  0  0  0  0  0  0
   55.0120   24.5541   44.0436 H   0  0  0  0  0  0  0  0  0  0  0  0
   58.8564   26.2975   48.5176 H   0  0  0  0  0  0  0  0  0  0  0  0
   59.9964   28.5077   48.7245 H   0  0  0  0  0  0  0  0  0  0  0  0
   59.4947   30.3318   47.0994 H   0  0  0  0  0  0  0  0  0  0  0  0
   57.0604   32.8088   46.7424 H   0  0  0  0  0  0  0  0  0  0  0  0
   57.9977   31.3486   47.3106 H   0  0  0  0  0  0  0  0  0  0  0  0
   58.5189   33.9423   48.0644 H   0  0  0  0  0  0  0  0  0  0  0  0
   59.7022   32.5676   48.0815 H   0  0  0  0  0  0  0  0  0  0  0  0
   60.7557   34.4382   47.0069 H   0  0  0  0  0  0  0  0  0  0  0  0
   60.3269   33.1877   45.7450 H   0  0  0  0  0  0  0  0  0  0  0  0
   58.8811   35.8011   46.3069 H   0  0  0  0  0  0  0  0  0  0  0  0
   59.8927   35.3511   44.8547 H   0  0  0  0  0  0  0  0  0  0  0  0
   57.1253   34.4008   45.6283 H   0  0  0  0  0  0  0  0  0  0  0  0
   57.7317   35.1109   44.0701 H   0  0  0  0  0  0  0  0  0  0  0  0
   57.3238   32.7542   43.7361 H   0  0  0  0  0  0  0  0  0  0  0  0
   59.1340   33.0835   43.7698 H   0  0  0  0  0  0  0  0  0  0  0  0
   56.7083   27.7328   45.0437 H   0  0  0  0  0  0  0  0  0  0  0  0
  1  2  1  0
  2  3  2  0
  3  4  1  0
  4  5  1  0
  5  6  1  0
  6  7  1  0
  7  8  1  0
  8  9  2  0
  8 10  1  0
 10 11  1  0
 11 12  2  0
 12 13  1  0
 13 14  2  0
 14 15  1  0
 15 16  1  0
 16 17  2  0
 16 18  2  0
 16 19  1  0
 19 20  1  0
 20 21  1  0
 21 22  1  0
 22 23  1  0
 23 24  1  0
 24 25  1  0
 15 26  2  0
  5 27  2  0
 27 28  1  0
 28 29  2  0
 28  2  1  0
 26 11  1  0
 25 19  1  0
  1 30  1  0
  1 31  1  0
  1 32  1  0
  7 33  1  0
  7 34  1  0
 12 35  1  0
 13 36  1  0
 14 37  1  0
 20 38  1  0
 20 39  1  0
 21 40  1  0
 21 41  1  0
 22 42  1  0
 22 43  1  0
 23 44  1  0
 23 45  1  0
 24 46  1  0
 24 47  1  0
 25 48  1  0
 25 49  1  0
 26 50  1  0
M  CHG  2   4  -1  10  -1
M  END
>  <UniqueID>  (39) 
33

>  <SMILES>  (39) 
Cc1n[n-]c(SCC(=O)[N-]c2cccc(S(=O)(=O)N3CCCCCC3)c2)nc1=O

>  <Energy>  (39) 
58.70775179456243

>  <Genealogy>  (39) 
Cc1n[n-]c(SCC(=O)[N-]c2cccc(S(=O)(=O)N3CCCCCC3)c2)nc1=O (protonated)
Cc1n[n-]c(SCC(=O)[N-]c2cccc(S(=O)(=O)N3CCCCCC3)c2)nc1=O (3D coordinates assigned)
Cc1n[n-]c(SCC(=O)[N-]c2cccc(S(=O)(=O)N3CCCCCC3)c2)nc1=O (nonaromatic ring conformer: 58.70775179456243 kcal/mol)

>  <smiles>  (39) 
Cc1n[nH]c(SCC(=O)Nc2cccc(S(=O)(=O)N3CCCCCC3)c2)nc1=O

>  <score_type>  (39) 
oracle

>  <origin>  (39) 
adg

>  <m_score__min__energy>  (39) 
-11.31

>  <m_primary>  (39) 
energy

$$$$
39:0
     RDKit          3D

 49 51  0  0  0  0  0  0  0  0999 V2000
   58.8622   35.6220   44.1569 H   0  0  0  0  0  0  0  0  0  0  0  0
   58.7920   34.8140   44.9000 C   0  0  0  0  0  0  0  0  0  0  0  0
   59.6880   34.7710   45.9730 C   0  0  0  0  0  0  0  0  0  0  0  0
   60.4642   35.5441   46.0721 H   0  0  0  0  0  0  0  0  0  0  0  0
   59.5980   33.7460   46.9200 C   0  0  0  0  0  0  0  0  0  0  0  0
   60.3086   33.7112   47.7590 H   0  0  0  0  0  0  0  0  0  0  0  0
   58.6040   32.7610   46.8040 C   0  0  0  0  0  0  0  0  0  0  0  0
   58.5280   31.6370   47.8060 C   0  0  0  0  0  0  0  0  0  0  0  0
   57.6369   31.0283   47.5930 H   0  0  0  0  0  0  0  0  0  0  0  0
   58.4715   32.0762   48.8129 H   0  0  0  0  0  0  0  0  0  0  0  0
   59.7710   30.7400   47.7420 C   0  0  0  0  0  0  0  0  0  0  0  0
   59.8784   30.2095   48.6996 H   0  0  0  0  0  0  0  0  0  0  0  0
   60.6461   31.3771   47.5463 H   0  0  0  0  0  0  0  0  0  0  0  0
   59.6690   29.7560   46.6620 N   0  0  0  0  0  0  0  0  0  0  0  0
   58.5970   29.0880   46.3600 C   0  0  0  0  0  0  0  0  0  0  0  0
   57.5560   29.6830   45.7190 N   0  0  0  0  0  0  0  0  0  0  0  0
   56.4450   28.9710   45.4050 C   0  0  0  0  0  0  0  0  0  0  0  0
   55.4640   29.5550   44.7870 N   0  0  0  0  0  0  0  0  0  0  0  0
   55.5150   29.9420   43.3810 C   0  0  0  0  0  0  0  0  0  0  0  0
   54.4312   30.0175   43.2086 H   0  0  0  0  0  0  0  0  0  0  0  0
   56.6800   29.3310   42.6230 C   0  0  0  0  0  0  0  0  0  0  0  0
   57.3321   28.5950   43.1160 H   0  0  0  0  0  0  0  0  0  0  0  0
   56.7926   28.7920   41.6708 H   0  0  0  0  0  0  0  0  0  0  0  0
   56.7250   30.7930   43.0460 C   0  0  0  0  0  0  0  0  0  0  0  0
   57.4101   31.1139   43.8446 H   0  0  0  0  0  0  0  0  0  0  0  0
   56.8840   31.7491   42.5258 H   0  0  0  0  0  0  0  0  0  0  0  0
   56.3760   27.6540   45.7360 N   0  0  0  0  0  0  0  0  0  0  0  0
   57.4120   27.0510   46.3780 C   0  0  0  0  0  0  0  0  0  0  0  0
   57.3580   25.7950   46.7010 N   0  0  0  0  0  0  0  0  0  0  0  0
   57.7860   24.7070   45.8260 C   0  0  0  0  0  0  0  0  0  0  0  0
   57.5496   23.7444   46.3030 H   0  0  0  0  0  0  0  0  0  0  0  0
   58.8699   24.7905   45.6580 H   0  0  0  0  0  0  0  0  0  0  0  0
   57.0660   24.7910   44.4740 C   0  0  0  0  0  0  0  0  0  0  0  0
   57.7008   24.3145   43.7124 H   0  0  0  0  0  0  0  0  0  0  0  0
   56.8921   25.8575   44.2684 H   0  0  0  0  0  0  0  0  0  0  0  0
   55.6890   24.1000   44.4610 C   0  0  0  0  0  0  0  0  0  0  0  0
   55.8529   23.0135   44.4086 H   0  0  0  0  0  0  0  0  0  0  0  0
   55.1510   24.5030   43.5903 H   0  0  0  0  0  0  0  0  0  0  0  0
   54.8030   24.3910   45.6870 C   0  0  0  0  0  0  0  0  0  0  0  0
   55.2812   23.9573   46.5776 H   0  0  0  0  0  0  0  0  0  0  0  0
   53.8159   23.9444   45.4969 H   0  0  0  0  0  0  0  0  0  0  0  0
   54.6040   25.8220   45.9130 N   0  0  0  0  0  0  0  0  0  0  0  0
   55.1630   26.1240   46.7450 H   0  0  0  0  0  0  0  0  0  0  0  0
   54.9450   26.3530   45.0810 H   0  0  0  0  0  0  0  0  0  0  0  0
   58.5190   27.7730   46.6890 N   0  0  0  0  0  0  0  0  0  0  0  0
   57.7140   32.8050   45.7170 C   0  0  0  0  0  0  0  0  0  0  0  0
   56.9411   32.0297   45.6095 H   0  0  0  0  0  0  0  0  0  0  0  0
   57.8080   33.8310   44.7720 C   0  0  0  0  0  0  0  0  0  0  0  0
   57.1057   33.8642   43.9260 H   0  0  0  0  0  0  0  0  0  0  0  0
  1  2  1  0
  2  3  2  0
  3  4  1  0
  3  5  1  0
  5  6  1  0
  5  7  2  0
  7  8  1  0
  8  9  1  0
  8 10  1  0
  8 11  1  0
 11 12  1  0
 11 13  1  0
 11 14  1  0
 14 15  2  0
 15 16  1  0
 16 17  1  0
 17 18  2  3
 18 19  1  0
 19 20  1  0
 19 21  1  0
 21 22  1  0
 21 23  1  0
 21 24  1  0
 24 25  1  0
 24 26  1  0
 17 27  1  0
 27 28  1  0
 28 29  2  0
 29 30  1  0
 30 31  1  0
 30 32  1  0
 30 33  1  0
 33 34  1  0
 33 35  1  0
 33 36  1  0
 36 37  1  0
 36 38  1  0
 36 39  1  0
 39 40  1  0
 39 41  1  0
 39 42  1  0
 42 43  1  0
 42 44  1  0
 28 45  1  0
  7 46  1  0
 46 47  1  0
 46 48  2  0
 48 49  1  0
 48  2  1  0
 45 15  1  0
 24 19  1  0
M  CHG  3  16  -1  27  -1  45  -1
M  END
>  <UniqueID>  (40) 
34

>  <SMILES>  (40) 
NCCCC/N=c1\[n-]c(=NC2CC2)[n-]/c(=N\CCc2ccccc2)[n-]1

>  <Energy>  (40) 
305.8491219273486

>  <Genealogy>  (40) 
NCCCCN=c1[n-]c(=NCCc2ccccc2)[n-]c(=NC2CC2)[n-]1 (protonated)
NCCCC/N=c1\[n-]c(=NC2CC2)[n-]/c(=N\CCc2ccccc2)[n-]1 (cis-trans isomerization)
NCCCC/N=c1\[n-]c(=NC2CC2)[n-]/c(=N\CCc2ccccc2)[n-]1 (3D coordinates assigned)
NCCCC/N=c1\[n-]c(=NC2CC2)[n-]/c(=N\CCc2ccccc2)[n-]1 (nonaromatic ring conformer: 305.8491219273486 kcal/mol)

>  <smiles>  (40) 
NCCCCN=c1[nH]c(=NCCc2ccccc2)[nH]c(=NC2CC2)[nH]1

>  <score_type>  (40) 
oracle

>  <origin>  (40) 
adg

>  <m_score__min__energy>  (40) 
-11.56

>  <m_primary>  (40) 
energy

$$$$
40:0
     RDKit          3D

 49 52  0  0  0  0  0  0  0  0999 V2000
   57.0153   25.0790   43.4710 H   0  0  0  0  0  0  0  0  0  0  0  0
   56.8050   24.8900   44.5340 C   0  0  0  0  0  0  0  0  0  0  0  0
   57.7610   25.1040   45.3940 N   0  0  0  0  0  0  0  0  0  0  0  0
   58.1480   26.3610   45.9730 C   0  0  0  0  0  0  0  0  0  0  0  0
   58.4320   26.4880   47.3440 C   0  0  0  0  0  0  0  0  0  0  0  0
   58.3793   25.6051   47.9980 H   0  0  0  0  0  0  0  0  0  0  0  0
   58.7810   27.7310   47.8800 C   0  0  0  0  0  0  0  0  0  0  0  0
   59.0291   27.8151   48.9484 H   0  0  0  0  0  0  0  0  0  0  0  0
   58.8170   28.8740   47.0630 C   0  0  0  0  0  0  0  0  0  0  0  0
   59.1920   30.1970   47.6190 C   0  0  0  0  0  0  0  0  0  0  0  0
   58.8830   30.4750   48.8070 O   0  0  0  0  0  0  0  0  0  0  0  0
   59.8520   31.1960   46.8310 N   0  0  0  0  0  0  0  0  0  0  0  0
   59.2370   32.3460   46.2280 C   0  0  0  0  0  0  0  0  0  0  0  0
   58.0700   32.2230   45.4530 C   0  0  0  0  0  0  0  0  0  0  0  0
   57.5945   31.2383   45.3336 H   0  0  0  0  0  0  0  0  0  0  0  0
   57.5110   33.3430   44.8340 C   0  0  0  0  0  0  0  0  0  0  0  0
   56.5907   33.2407   44.2403 H   0  0  0  0  0  0  0  0  0  0  0  0
   58.1190   34.5920   44.9680 C   0  0  0  0  0  0  0  0  0  0  0  0
   57.6759   35.4739   44.4822 H   0  0  0  0  0  0  0  0  0  0  0  0
   59.2890   34.7230   45.7180 C   0  0  0  0  0  0  0  0  0  0  0  0
   59.7694   35.7080   45.8131 H   0  0  0  0  0  0  0  0  0  0  0  0
   59.8570   33.6060   46.3520 C   0  0  0  0  0  0  0  0  0  0  0  0
   61.0580   33.7510   47.1260 N   0  0  0  0  0  0  0  0  0  0  0  0
   60.9730   34.2140   48.5130 C   0  0  0  0  0  0  0  0  0  0  0  0
   60.9727   35.3138   48.5328 H   0  0  0  0  0  0  0  0  0  0  0  0
   60.0448   33.8382   48.9682 H   0  0  0  0  0  0  0  0  0  0  0  0
   62.1760   33.6900   49.3020 C   0  0  0  0  0  0  0  0  0  0  0  0
   62.1751   34.1433   50.3043 H   0  0  0  0  0  0  0  0  0  0  0  0
   62.0989   32.5953   49.3769 H   0  0  0  0  0  0  0  0  0  0  0  0
   63.3880   34.0160   48.6460 O   0  0  0  0  0  0  0  0  0  0  0  0
   63.4560   33.3490   47.3990 C   0  0  0  0  0  0  0  0  0  0  0  0
   64.4376   33.5405   46.9408 H   0  0  0  0  0  0  0  0  0  0  0  0
   63.3155   32.2712   47.5680 H   0  0  0  0  0  0  0  0  0  0  0  0
   62.3560   33.8450   46.4550 C   0  0  0  0  0  0  0  0  0  0  0  0
   62.5523   34.8922   46.1814 H   0  0  0  0  0  0  0  0  0  0  0  0
   62.3450   33.2246   45.5467 H   0  0  0  0  0  0  0  0  0  0  0  0
   58.5100   28.7460   45.6980 C   0  0  0  0  0  0  0  0  0  0  0  0
   58.5422   29.6309   45.0454 H   0  0  0  0  0  0  0  0  0  0  0  0
   58.1640   27.5020   45.1640 C   0  0  0  0  0  0  0  0  0  0  0  0
   57.9021   27.4193   44.0988 H   0  0  0  0  0  0  0  0  0  0  0  0
   55.4530   24.4080   44.9000 C   0  0  0  0  0  0  0  0  0  0  0  0
   54.5440   25.2190   45.6010 C   0  0  0  0  0  0  0  0  0  0  0  0
   54.8910   26.5070   45.9920 O   0  0  0  0  0  0  0  0  0  0  0  0
   53.3150   24.7370   45.9230 N   0  0  0  0  0  0  0  0  0  0  0  0
   52.9500   23.4720   45.5950 C   0  0  0  0  0  0  0  0  0  0  0  0
   51.4660   22.9240   45.9940 S   0  0  0  0  0  0  0  0  0  0  0  0
   53.8220   22.6590   44.9480 N   0  0  0  0  0  0  0  0  0  0  0  0
   55.0620   23.0930   44.6010 C   0  0  0  0  0  0  0  0  0  0  0  0
   55.8450   22.3100   44.0010 O   0  0  0  0  0  0  0  0  0  0  0  0
  1  2  1  0
  2  3  2  0
  3  4  1  0
  4  5  2  0
  5  6  1  0
  5  7  1  0
  7  8  1  0
  7  9  2  0
  9 10  1  0
 10 11  2  0
 10 12  1  0
 12 13  1  0
 13 14  2  0
 14 15  1  0
 14 16  1  0
 16 17  1  0
 16 18  2  0
 18 19  1  0
 18 20  1  0
 20 21  1  0
 20 22  2  0
 22 23  1  0
 23 24  1  0
 24 25  1  0
 24 26  1  0
 24 27  1  0
 27 28  1  0
 27 29  1  0
 27 30  1  0
 30 31  1  0
 31 32  1  0
 31 33  1  0
 31 34  1  0
 34 35  1  0
 34 36  1  0
  9 37  1  0
 37 38  1  0
 37 39  2  0
 39 40  1  0
  2 41  1  0
 41 42  2  0
 42 43  1  0
 42 44  1  0
 44 45  1  0
 45 46  2  0
 45 47  1  0
 47 48  1  0
 48 49  2  0
 39  4  1  0
 48 41  1  0
 22 13  1  0
 34 23  1  0
M  CHG  4  12  -1  43  -1  44  -1  47  -1
M  END
>  <UniqueID>  (41) 
35

>  <SMILES>  (41) 
O=C([N-]c1ccccc1N1CCOCC1)c1ccc(/N=C\c2c([O-])[n-]c(=S)[n-]c2=O)cc1

>  <Energy>  (41) 
79.44505826333611

>  <Genealogy>  (41) 
O=C([N-]c1ccccc1N1CCOCC1)c1ccc(N=Cc2c([O-])[n-]c(=S)[n-]c2=O)cc1 (protonated)
O=C([N-]c1ccccc1N1CCOCC1)c1ccc(/N=C\c2c([O-])[n-]c(=S)[n-]c2=O)cc1 (cis-trans isomerization)
O=C([N-]c1ccccc1N1CCOCC1)c1ccc(/N=C\c2c([O-])[n-]c(=S)[n-]c2=O)cc1 (3D coordinates assigned)
O=C([N-]c1ccccc1N1CCOCC1)c1ccc(/N=C\c2c([O-])[n-]c(=S)[n-]c2=O)cc1 (nonaromatic ring conformer: 79.44505826333611 kcal/mol)

>  <smiles>  (41) 
O=C(Nc1ccccc1N1CCOCC1)c1ccc(N=Cc2c(O)[nH]c(=S)[nH]c2=O)cc1

>  <score_type>  (41) 
oracle

>  <origin>  (41) 
adg

>  <m_score__min__energy>  (41) 
-16.969999999999999

>  <m_primary>  (41) 
energy

$$$$
41:0
     RDKit          3D

 27 28  0  0  0  0  0  0  0  0999 V2000
   57.7330   22.4940   48.4420 H   0  0  0  0  0  0  0  0  0  0  0  0
   57.0680   22.2900   47.6610 N   0  0  0  0  0  0  0  0  0  0  0  0
   57.1500   22.9040   46.5250 C   0  0  0  0  0  0  0  0  0  0  0  0
   56.4710   22.4360   45.4470 N   0  0  0  0  0  0  0  0  0  0  0  0
   56.5570   23.0760   44.2560 C   0  0  0  0  0  0  0  0  0  0  0  0
   55.9100   22.6220   43.2330 N   0  0  0  0  0  0  0  0  0  0  0  0
   56.1050   22.9690   42.2660 H   0  0  0  0  0  0  0  0  0  0  0  0
   57.3250   24.1900   44.1410 N   0  0  0  0  0  0  0  0  0  0  0  0
   58.0020   24.6740   45.2180 C   0  0  0  0  0  0  0  0  0  0  0  0
   58.7610   25.7280   45.1170 N   0  0  0  0  0  0  0  0  0  0  0  0
   58.3450   27.1020   45.1790 C   0  0  0  0  0  0  0  0  0  0  0  0
   59.2670   28.1640   45.1830 C   0  0  0  0  0  0  0  0  0  0  0  0
   60.3461   27.9513   45.1656 H   0  0  0  0  0  0  0  0  0  0  0  0
   58.8200   29.4890   45.2090 C   0  0  0  0  0  0  0  0  0  0  0  0
   59.5492   30.3123   45.2288 H   0  0  0  0  0  0  0  0  0  0  0  0
   57.4420   29.7740   45.2100 C   0  0  0  0  0  0  0  0  0  0  0  0
   56.9490   31.0880   45.2390 O   0  0  0  0  0  0  0  0  0  0  0  0
   57.4920   32.1680   44.4860 C   0  0  0  0  0  0  0  0  0  0  0  0
   57.8781   32.9360   45.1724 H   0  0  0  0  0  0  0  0  0  0  0  0
   58.3111   31.7977   43.8520 H   0  0  0  0  0  0  0  0  0  0  0  0
   56.7062   32.6045   43.8520 H   0  0  0  0  0  0  0  0  0  0  0  0
   56.5250   28.7150   45.1730 C   0  0  0  0  0  0  0  0  0  0  0  0
   55.1610   28.9760   45.1610 O   0  0  0  0  0  0  0  0  0  0  0  0
   56.9750   27.3900   45.1460 C   0  0  0  0  0  0  0  0  0  0  0  0
   56.2461   26.5676   45.0984 H   0  0  0  0  0  0  0  0  0  0  0  0
   57.9190   24.0210   46.4090 N   0  0  0  0  0  0  0  0  0  0  0  0
   58.4470   24.3800   47.2390 H   0  0  0  0  0  0  0  0  0  0  0  0
  1  2  1  0
  2  3  2  3
  3  4  1  0
  4  5  1  0
  5  6  2  0
  6  7  1  0
  5  8  1  0
  8  9  1  0
  9 10  2  0
 10 11  1  0
 11 12  2  0
 12 13  1  0
 12 14  1  0
 14 15  1  0
 14 16  2  0
 16 17  1  0
 17 18  1  0
 18 19  1  0
 18 20  1  0
 18 21  1  0
 16 22  1  0
 22 23  1  0
 22 24  2  0
 24 25  1  0
  9 26  1  0
 26 27  1  0
 26  3  1  0
 24 11  1  0
M  CHG  3   4  -1   8  -1  23  -1
M  END
>  <UniqueID>  (42) 
36

>  <SMILES>  (42) 
[H]/N=c1/[n-]c(=N)[nH]/c(=N/c2ccc(OC)c([O-])c2)[n-]1

>  <Energy>  (42) 
33.62533297664996

>  <Genealogy>  (42) 
COc1ccc(N=c2[n-]c(=N)[n-]c(=N)[nH]2)cc1[O-] (protonated)
[H]/N=c1/[n-]c(=N)[nH]/c(=N/c2ccc(OC)c([O-])c2)[n-]1 (cis-trans isomerization)
[H]/N=c1/[n-]c(=N)[nH]/c(=N/c2ccc(OC)c([O-])c2)[n-]1 (3D coordinates assigned)
[H]/N=c1/[n-]c(=N)[nH]/c(=N/c2ccc(OC)c([O-])c2)[n-]1 (optimized conformer: 33.62533297664996 kcal/mol)

>  <smiles>  (42) 
COc1ccc(N=c2[nH]c(=N)[nH]c(=N)[nH]2)cc1O

>  <score_type>  (42) 
oracle

>  <origin>  (42) 
adg

>  <m_score__min__energy>  (42) 
-11.6

>  <m_primary>  (42) 
energy

$$$$
42:0
     RDKit          3D

 53 56  0  0  0  0  0  0  0  0999 V2000
   59.2830   35.0196   46.8349 H   0  0  0  0  0  0  0  0  0  0  0  0
   58.8280   34.2010   46.2580 C   0  0  0  0  0  0  0  0  0  0  0  0
   58.3640   33.0570   46.9150 C   0  0  0  0  0  0  0  0  0  0  0  0
   58.4518   32.9776   48.0086 H   0  0  0  0  0  0  0  0  0  0  0  0
   57.7880   32.0130   46.1820 C   0  0  0  0  0  0  0  0  0  0  0  0
   57.4260   31.1125   46.6997 H   0  0  0  0  0  0  0  0  0  0  0  0
   57.6720   32.1140   44.7880 C   0  0  0  0  0  0  0  0  0  0  0  0
   56.9380   30.8140   43.8540 S   0  0  0  0  0  0  0  0  0  0  0  0
   56.6630   31.2560   42.4440 O   0  0  0  0  0  0  0  0  0  0  0  0
   55.6400   30.4270   44.5050 O   0  0  0  0  0  0  0  0  0  0  0  0
   57.9960   29.4380   43.8230 N   0  0  0  0  0  0  0  0  0  0  0  0
   58.1360   28.9720   42.8990 H   0  0  0  0  0  0  0  0  0  0  0  0
   58.5930   28.8570   44.9970 C   0  0  0  0  0  0  0  0  0  0  0  0
   59.7790   29.4100   45.5060 C   0  0  0  0  0  0  0  0  0  0  0  0
   60.2326   30.2793   45.0074 H   0  0  0  0  0  0  0  0  0  0  0  0
   60.3880   28.8670   46.6390 C   0  0  0  0  0  0  0  0  0  0  0  0
   61.3288   29.2968   47.0133 H   0  0  0  0  0  0  0  0  0  0  0  0
   59.8080   27.7790   47.3010 C   0  0  0  0  0  0  0  0  0  0  0  0
   60.4830   27.2060   48.4320 N   0  0  0  0  0  0  0  0  0  0  0  0
   60.4810   27.6380   49.6630 C   0  0  0  0  0  0  0  0  0  0  0  0
   59.7740   28.7640   49.9490 N   0  0  0  0  0  0  0  0  0  0  0  0
   59.6910   29.2840   51.2050 C   0  0  0  0  0  0  0  0  0  0  0  0
   58.9320   30.4880   51.4300 N   0  0  0  0  0  0  0  0  0  0  0  0
   57.6000   30.4170   52.0430 C   0  0  0  0  0  0  0  0  0  0  0  0
   56.8532   30.1867   51.2689 H   0  0  0  0  0  0  0  0  0  0  0  0
   57.5935   29.6279   52.8093 H   0  0  0  0  0  0  0  0  0  0  0  0
   57.2590   31.7610   52.6960 C   0  0  0  0  0  0  0  0  0  0  0  0
   56.2152   31.7395   53.0426 H   0  0  0  0  0  0  0  0  0  0  0  0
   57.9398   31.9246   53.5444 H   0  0  0  0  0  0  0  0  0  0  0  0
   57.4200   32.8210   51.7730 O   0  0  0  0  0  0  0  0  0  0  0  0
   58.7820   32.9380   51.4120 C   0  0  0  0  0  0  0  0  0  0  0  0
   58.9093   33.8198   50.7669 H   0  0  0  0  0  0  0  0  0  0  0  0
   59.3811   33.0432   52.3285 H   0  0  0  0  0  0  0  0  0  0  0  0
   59.2560   31.6910   50.6570 C   0  0  0  0  0  0  0  0  0  0  0  0
   58.7536   31.6431   49.6796 H   0  0  0  0  0  0  0  0  0  0  0  0
   60.3450   31.7467   50.5122 H   0  0  0  0  0  0  0  0  0  0  0  0
   60.3700   28.6530   52.2560 C   0  0  0  0  0  0  0  0  0  0  0  0
   60.3248   29.0705   53.2727 H   0  0  0  0  0  0  0  0  0  0  0  0
   61.1060   27.4890   52.0060 C   0  0  0  0  0  0  0  0  0  0  0  0
   61.7840   26.7680   53.1330 C   0  0  0  0  0  0  0  0  0  0  0  0
   61.4159   27.1594   54.0928 H   0  0  0  0  0  0  0  0  0  0  0  0
   61.5624   25.6926   53.0663 H   0  0  0  0  0  0  0  0  0  0  0  0
   62.8710   26.9232   53.0663 H   0  0  0  0  0  0  0  0  0  0  0  0
   61.1420   26.9630   50.7090 C   0  0  0  0  0  0  0  0  0  0  0  0
   61.6837   26.0271   50.5072 H   0  0  0  0  0  0  0  0  0  0  0  0
   58.6380   27.2030   46.7810 C   0  0  0  0  0  0  0  0  0  0  0  0
   58.2007   26.3189   47.2679 H   0  0  0  0  0  0  0  0  0  0  0  0
   58.0260   27.7460   45.6490 C   0  0  0  0  0  0  0  0  0  0  0  0
   57.0954   27.3028   45.2648 H   0  0  0  0  0  0  0  0  0  0  0  0
   58.1360   33.2640   44.1340 C   0  0  0  0  0  0  0  0  0  0  0  0
   58.0455   33.3481   43.0410 H   0  0  0  0  0  0  0  0  0  0  0  0
   58.7140   34.3050   44.8690 C   0  0  0  0  0  0  0  0  0  0  0  0
   59.0788   35.2056   44.3533 H   0  0  0  0  0  0  0  0  0  0  0  0
  1  2  1  0
  2  3  2  0
  3  4  1  0
  3  5  1  0
  5  6  1  0
  5  7  2  0
  7  8  1  0
  8  9  2  0
  8 10  2  0
  8 11  1  0
 11 12  1  0
 11 13  1  0
 13 14  2  0
 14 15  1  0
 14 16  1  0
 16 17  1  0
 16 18  2  0
 18 19  1  0
 19 20  2  0
 20 21  1  0
 21 22  1  0
 22 23  1  0
 23 24  1  0
 24 25  1  0
 24 26  1  0
 24 27  1  0
 27 28  1  0
 27 29  1  0
 27 30  1  0
 30 31  1  0
 31 32  1  0
 31 33  1  0
 31 34  1  0
 34 35  1  0
 34 36  1  0
 22 37  2  0
 37 38  1  0
 37 39  1  0
 39 40  1  0
 40 41  1  0
 40 42  1  0
 40 43  1  0
 39 44  2  0
 44 45  1  0
 18 46  1  0
 46 47  1  0
 46 48  2  0
 48 49  1  0
  7 50  1  0
 50 51  1  0
 50 52  2  0
 52 53  1  0
 52  2  1  0
 48 13  1  0
 44 20  1  0
 34 23  1  0
M  CHG  1  21  -1
M  END
>  <UniqueID>  (43) 
37

>  <SMILES>  (43) 
Cc1cc(N2CCOCC2)[n-]/c(=N/c2ccc(NS(=O)(=O)c3ccccc3)cc2)c1

>  <Energy>  (43) 
72.66153906980283

>  <Genealogy>  (43) 
Cc1cc(N2CCOCC2)[n-]c(=Nc2ccc(NS(=O)(=O)c3ccccc3)cc2)c1 (protonated)
Cc1cc(N2CCOCC2)[n-]/c(=N/c2ccc(NS(=O)(=O)c3ccccc3)cc2)c1 (cis-trans isomerization)
Cc1cc(N2CCOCC2)[n-]/c(=N/c2ccc(NS(=O)(=O)c3ccccc3)cc2)c1 (3D coordinates assigned)
Cc1cc(N2CCOCC2)[n-]/c(=N/c2ccc(NS(=O)(=O)c3ccccc3)cc2)c1 (nonaromatic ring conformer: 72.66153906980283 kcal/mol)

>  <smiles>  (43) 
Cc1cc(N2CCOCC2)[nH]c(=Nc2ccc(NS(=O)(=O)c3ccccc3)cc2)c1

>  <score_type>  (43) 
oracle

>  <origin>  (43) 
adg

>  <m_score__min__energy>  (43) 
-11.119999999999999

>  <m_primary>  (43) 
energy

$$$$
43:0
     RDKit          3D

 49 52  0  0  0  0  0  0  0  0999 V2000
   58.3100   28.0850   46.0720 C   0  0  0  0  0  0  0  0  0  0  0  0
   57.8200   29.2080   45.1960 C   0  0  0  0  0  0  0  0  0  0  0  0
   57.3930   28.9030   43.8930 C   0  0  0  0  0  0  0  0  0  0  0  0
   56.9750   29.9140   43.0270 C   0  0  0  0  0  0  0  0  0  0  0  0
   57.0000   31.2460   43.4420 C   0  0  0  0  0  0  0  0  0  0  0  0
   57.4220   31.5710   44.7320 C   0  0  0  0  0  0  0  0  0  0  0  0
   57.4670   33.4140   45.2520 Br  0  0  0  0  0  0  0  0  0  0  0  0
   57.7980   30.5600   45.6360 C   0  0  0  0  0  0  0  0  0  0  0  0
   58.1810   30.9460   46.9310 O   0  0  0  0  0  0  0  0  0  0  0  0
   59.4970   31.1940   47.3450 C   0  0  0  0  0  0  0  0  0  0  0  0
   60.1610   32.2490   46.7940 N   0  0  0  0  0  0  0  0  0  0  0  0
   61.4490   32.5460   47.1280 C   0  0  0  0  0  0  0  0  0  0  0  0
   62.1180   33.6220   46.5210 C   0  0  0  0  0  0  0  0  0  0  0  0
   63.4350   33.9250   46.8790 C   0  0  0  0  0  0  0  0  0  0  0  0
   64.0940   33.1590   47.8450 C   0  0  0  0  0  0  0  0  0  0  0  0
   63.4390   32.0850   48.4550 C   0  0  0  0  0  0  0  0  0  0  0  0
   62.1190   31.7690   48.0970 C   0  0  0  0  0  0  0  0  0  0  0  0
   61.4450   30.7040   48.6980 C   0  0  0  0  0  0  0  0  0  0  0  0
   60.1310   30.3910   48.3220 C   0  0  0  0  0  0  0  0  0  0  0  0
   59.4010   29.3380   49.0640 C   0  0  0  0  0  0  0  0  0  0  0  0
   59.5050   28.1390   48.6930 O   0  0  0  0  0  0  0  0  0  0  0  0
   58.4970   29.6460   50.1340 N   0  0  0  0  0  0  0  0  0  0  0  0
   58.8660   30.2850   51.3990 C   0  0  0  0  0  0  0  0  0  0  0  0
   58.1280   31.6240   51.5220 C   0  0  0  0  0  0  0  0  0  0  0  0
   56.6060   31.4230   51.7240 C   0  0  0  0  0  0  0  0  0  0  0  0
   56.2500   30.0740   51.9860 O   0  0  0  0  0  0  0  0  0  0  0  0
   57.0410   29.5600   53.0370 C   0  0  0  0  0  0  0  0  0  0  0  0
   58.5020   29.3660   52.5820 C   0  0  0  0  0  0  0  0  0  0  0  0
   58.1881   28.3645   47.1289 H   0  0  0  0  0  0  0  0  0  0  0  0
   57.7267   27.1760   45.8634 H   0  0  0  0  0  0  0  0  0  0  0  0
   59.3731   27.8944   45.8634 H   0  0  0  0  0  0  0  0  0  0  0  0
   57.3881   27.8572   43.5521 H   0  0  0  0  0  0  0  0  0  0  0  0
   56.6251   29.6606   42.0154 H   0  0  0  0  0  0  0  0  0  0  0  0
   56.6863   32.0420   42.7506 H   0  0  0  0  0  0  0  0  0  0  0  0
   59.6650   32.8320   46.0820 H   0  0  0  0  0  0  0  0  0  0  0  0
   61.6035   34.2285   45.7611 H   0  0  0  0  0  0  0  0  0  0  0  0
   63.9539   34.7681   46.3995 H   0  0  0  0  0  0  0  0  0  0  0  0
   65.1296   33.4017   48.1256 H   0  0  0  0  0  0  0  0  0  0  0  0
   63.9592   31.4863   49.2172 H   0  0  0  0  0  0  0  0  0  0  0  0
   61.9485   30.1062   49.4720 H   0  0  0  0  0  0  0  0  0  0  0  0
   59.9513   30.4636   51.4172 H   0  0  0  0  0  0  0  0  0  0  0  0
   58.5321   32.1759   52.3835 H   0  0  0  0  0  0  0  0  0  0  0  0
   58.2786   32.1855   50.5881 H   0  0  0  0  0  0  0  0  0  0  0  0
   56.2814   32.0416   52.5737 H   0  0  0  0  0  0  0  0  0  0  0  0
   56.1104   31.7157   50.7866 H   0  0  0  0  0  0  0  0  0  0  0  0
   57.0175   30.2632   53.8826 H   0  0  0  0  0  0  0  0  0  0  0  0
   56.6340   28.5834   53.3380 H   0  0  0  0  0  0  0  0  0  0  0  0
   59.1698   29.5927   53.4262 H   0  0  0  0  0  0  0  0  0  0  0  0
   58.6188   28.3236   52.2506 H   0  0  0  0  0  0  0  0  0  0  0  0
  1  2  1  0
  2  3  2  0
  3  4  1  0
  4  5  2  0
  5  6  1  0
  6  7  1  0
  6  8  2  0
  8  9  1  0
  9 10  1  0
 10 11  2  0
 11 12  1  0
 12 13  2  0
 13 14  1  0
 14 15  2  0
 15 16  1  0
 16 17  2  0
 17 18  1  0
 18 19  2  0
 19 20  1  0
 20 21  2  0
 20 22  1  0
 22 23  1  0
 23 24  1  0
 24 25  1  0
 25 26  1  0
 26 27  1  0
 27 28  1  0
  8  2  1  0
 19 10  1  0
 28 23  1  0
 17 12  1  0
  1 29  1  0
  1 30  1  0
  1 31  1  0
  3 32  1  0
  4 33  1  0
  5 34  1  0
 11 35  1  0
 13 36  1  0
 14 37  1  0
 15 38  1  0
 16 39  1  0
 18 40  1  0
 23 41  1  0
 24 42  1  0
 24 43  1  0
 25 44  1  0
 25 45  1  0
 27 46  1  0
 27 47  1  0
 28 48  1  0
 28 49  1  0
M  CHG  2  11   1  22  -1
M  END
>  <UniqueID>  (44) 
38

>  <SMILES>  (44) 
Cc1cccc(Br)c1Oc1[nH+]c2ccccc2cc1C(=O)[N-]C1CCOCC1

>  <Energy>  (44) 
77.05867177244657

>  <Genealogy>  (44) 
Cc1cccc(Br)c1Oc1[nH+]c2ccccc2cc1C(=O)[N-]C1CCOCC1 (protonated)
Cc1cccc(Br)c1Oc1[nH+]c2ccccc2cc1C(=O)[N-]C1CCOCC1 (3D coordinates assigned)
Cc1cccc(Br)c1Oc1[nH+]c2ccccc2cc1C(=O)[N-]C1CCOCC1 (nonaromatic ring conformer: 77.05867177244657 kcal/mol)

>  <smiles>  (44) 
Cc1cccc(Br)c1Oc1nc2ccccc2cc1C(=O)NC1CCOCC1

>  <score_type>  (44) 
oracle

>  <origin>  (44) 
adg

>  <m_score__min__energy>  (44) 
-8.4800000000000004

>  <m_primary>  (44) 
energy

$$$$
44:0
     RDKit          3D

 46 48  0  0  0  0  0  0  0  0999 V2000
   59.7400   34.8210   45.6170 O   0  0  0  0  0  0  0  0  0  0  0  0
   59.1640   33.7210   45.8320 C   0  0  0  0  0  0  0  0  0  0  0  0
   57.7900   33.4870   45.2860 C   0  0  0  0  0  0  0  0  0  0  0  0
   57.2310   32.2520   45.8370 N   0  0  0  0  0  0  0  0  0  0  0  0
   57.1820   30.9980   44.6310 S   0  0  0  0  0  0  0  0  0  0  0  0
   57.6410   31.5490   43.3100 O   0  0  0  0  0  0  0  0  0  0  0  0
   55.7700   30.5040   44.4920 O   0  0  0  0  0  0  0  0  0  0  0  0
   58.2140   29.6560   45.1160 C   0  0  0  0  0  0  0  0  0  0  0  0
   57.6450   28.4940   45.6570 C   0  0  0  0  0  0  0  0  0  0  0  0
   58.4590   27.4260   46.0430 C   0  0  0  0  0  0  0  0  0  0  0  0
   59.8470   27.5110   45.8870 C   0  0  0  0  0  0  0  0  0  0  0  0
   60.6370   26.4750   46.2620 F   0  0  0  0  0  0  0  0  0  0  0  0
   60.4180   28.6650   45.3430 C   0  0  0  0  0  0  0  0  0  0  0  0
   59.6060   29.7350   44.9570 C   0  0  0  0  0  0  0  0  0  0  0  0
   59.8230   32.6880   46.5800 N   0  0  0  0  0  0  0  0  0  0  0  0
   61.1520   32.8470   47.0970 C   0  0  0  0  0  0  0  0  0  0  0  0
   62.0770   33.6050   46.3660 C   0  0  0  0  0  0  0  0  0  0  0  0
   63.3650   33.8180   46.8600 C   0  0  0  0  0  0  0  0  0  0  0  0
   63.7450   33.2670   48.0840 C   0  0  0  0  0  0  0  0  0  0  0  0
   62.8410   32.4870   48.8100 C   0  0  0  0  0  0  0  0  0  0  0  0
   61.5430   32.2610   48.3250 C   0  0  0  0  0  0  0  0  0  0  0  0
   60.6700   31.3720   49.0440 N   0  0  0  0  0  0  0  0  0  0  0  0
   59.9370   31.8310   50.2270 C   0  0  0  0  0  0  0  0  0  0  0  0
   58.5130   31.2700   50.1940 C   0  0  0  0  0  0  0  0  0  0  0  0
   58.5280   29.8660   50.0070 O   0  0  0  0  0  0  0  0  0  0  0  0
   59.0620   29.5560   48.7330 C   0  0  0  0  0  0  0  0  0  0  0  0
   60.5340   29.9680   48.6450 C   0  0  0  0  0  0  0  0  0  0  0  0
   57.1417   34.3327   45.5588 H   0  0  0  0  0  0  0  0  0  0  0  0
   57.8492   33.3972   44.1913 H   0  0  0  0  0  0  0  0  0  0  0  0
   56.5540   28.4231   45.7779 H   0  0  0  0  0  0  0  0  0  0  0  0
   58.0085   26.5178   46.4698 H   0  0  0  0  0  0  0  0  0  0  0  0
   61.5089   28.7312   45.2184 H   0  0  0  0  0  0  0  0  0  0  0  0
   60.0589   30.6409   44.5277 H   0  0  0  0  0  0  0  0  0  0  0  0
   59.4120   31.7280   46.5670 H   0  0  0  0  0  0  0  0  0  0  0  0
   61.7859   34.0350   45.3963 H   0  0  0  0  0  0  0  0  0  0  0  0
   64.0815   34.4213   46.2833 H   0  0  0  0  0  0  0  0  0  0  0  0
   64.7563   33.4466   48.4777 H   0  0  0  0  0  0  0  0  0  0  0  0
   63.1490   32.0463   49.7697 H   0  0  0  0  0  0  0  0  0  0  0  0
   60.4488   31.4792   51.1349 H   0  0  0  0  0  0  0  0  0  0  0  0
   59.8982   32.9303   50.2308 H   0  0  0  0  0  0  0  0  0  0  0  0
   58.0124   31.5014   51.1458 H   0  0  0  0  0  0  0  0  0  0  0  0
   57.9726   31.7311   49.3542 H   0  0  0  0  0  0  0  0  0  0  0  0
   58.9800   28.4725   48.5616 H   0  0  0  0  0  0  0  0  0  0  0  0
   58.4951   30.1087   47.9693 H   0  0  0  0  0  0  0  0  0  0  0  0
   61.1331   29.3356   49.3167 H   0  0  0  0  0  0  0  0  0  0  0  0
   60.8900   29.8429   47.6117 H   0  0  0  0  0  0  0  0  0  0  0  0
  1  2  2  0
  2  3  1  0
  3  4  1  0
  4  5  1  0
  5  6  2  0
  5  7  2  0
  5  8  1  0
  8  9  2  0
  9 10  1  0
 10 11  2  0
 11 12  1  0
 11 13  1  0
 13 14  2  0
  2 15  1  0
 15 16  1  0
 16 17  2  0
 17 18  1  0
 18 19  2  0
 19 20  1  0
 20 21  2  0
 21 22  1  0
 22 23  1  0
 23 24  1  0
 24 25  1  0
 25 26  1  0
 26 27  1  0
 14  8  1  0
 21 16  1  0
 27 22  1  0
  3 28  1  0
  3 29  1  0
  9 30  1  0
 10 31  1  0
 13 32  1  0
 14 33  1  0
 15 34  1  0
 17 35  1  0
 18 36  1  0
 19 37  1  0
 20 38  1  0
 23 39  1  0
 23 40  1  0
 24 41  1  0
 24 42  1  0
 26 43  1  0
 26 44  1  0
 27 45  1  0
 27 46  1  0
M  CHG  1   4  -1
M  END
>  <UniqueID>  (45) 
39

>  <SMILES>  (45) 
O=C(C[N-]S(=O)(=O)c1ccc(F)cc1)Nc1ccccc1N1CCOCC1

>  <Energy>  (45) 
55.39934750089754

>  <Genealogy>  (45) 
O=C(C[N-]S(=O)(=O)c1ccc(F)cc1)Nc1ccccc1N1CCOCC1 (protonated)
O=C(C[N-]S(=O)(=O)c1ccc(F)cc1)Nc1ccccc1N1CCOCC1 (3D coordinates assigned)
O=C(C[N-]S(=O)(=O)c1ccc(F)cc1)Nc1ccccc1N1CCOCC1 (nonaromatic ring conformer: 55.39934750089754 kcal/mol)

>  <smiles>  (45) 
O=C(CNS(=O)(=O)c1ccc(F)cc1)Nc1ccccc1N1CCOCC1

>  <score_type>  (45) 
oracle

>  <origin>  (45) 
adg

>  <m_score__min__energy>  (45) 
-9.3200000000000003

>  <m_primary>  (45) 
energy

$$$$
45:0
     RDKit          3D

 65 68  0  0  0  0  0  0  0  0999 V2000
   53.7883   27.8325   53.3528 H   0  0  0  0  0  0  0  0  0  0  0  0
   53.8960   28.8120   52.8640 C   0  0  0  0  0  0  0  0  0  0  0  0
   55.0890   29.4590   52.8950 N   0  0  0  0  0  0  0  0  0  0  0  0
   55.2480   30.6690   52.2970 C   0  0  0  0  0  0  0  0  0  0  0  0
   56.4050   31.2540   52.3400 N   0  0  0  0  0  0  0  0  0  0  0  0
   57.8910   30.4880   51.8810 S   0  0  0  0  0  0  0  0  0  0  0  0
   58.9810   30.8490   52.8530 O   0  0  0  0  0  0  0  0  0  0  0  0
   57.6980   28.9970   51.8740 O   0  0  0  0  0  0  0  0  0  0  0  0
   58.3500   31.0490   50.2770 C   0  0  0  0  0  0  0  0  0  0  0  0
   58.5050   32.4210   50.0440 C   0  0  0  0  0  0  0  0  0  0  0  0
   58.3349   33.1380   50.8607 H   0  0  0  0  0  0  0  0  0  0  0  0
   58.8750   32.8830   48.7780 C   0  0  0  0  0  0  0  0  0  0  0  0
   58.9819   33.9633   48.6004 H   0  0  0  0  0  0  0  0  0  0  0  0
   59.1110   31.9780   47.7320 C   0  0  0  0  0  0  0  0  0  0  0  0
   59.4650   32.4800   46.4330 N   0  0  0  0  0  0  0  0  0  0  0  0
   60.4140   32.9010   46.3130 H   0  0  0  0  0  0  0  0  0  0  0  0
   58.6020   32.4270   45.2860 C   0  0  0  0  0  0  0  0  0  0  0  0
   58.8840   33.4720   44.0500 S   0  0  0  0  0  0  0  0  0  0  0  0
   57.6310   31.3700   45.1560 N   0  0  0  0  0  0  0  0  0  0  0  0
   57.6860   30.5610   45.8130 H   0  0  0  0  0  0  0  0  0  0  0  0
   56.6610   31.2760   44.0630 C   0  0  0  0  0  0  0  0  0  0  0  0
   55.9199   32.0823   44.1665 H   0  0  0  0  0  0  0  0  0  0  0  0
   57.1939   31.3711   43.1054 H   0  0  0  0  0  0  0  0  0  0  0  0
   55.9550   29.9470   44.0970 C   0  0  0  0  0  0  0  0  0  0  0  0
   55.3400   29.5450   43.0740 O   0  0  0  0  0  0  0  0  0  0  0  0
   55.9880   29.1040   45.2560 N   0  0  0  0  0  0  0  0  0  0  0  0
   56.8300   27.9590   45.4600 C   0  0  0  0  0  0  0  0  0  0  0  0
   58.2270   28.0540   45.3550 C   0  0  0  0  0  0  0  0  0  0  0  0
   58.6926   29.0138   45.0868 H   0  0  0  0  0  0  0  0  0  0  0  0
   59.0270   26.9340   45.5900 C   0  0  0  0  0  0  0  0  0  0  0  0
   60.1195   27.0086   45.4856 H   0  0  0  0  0  0  0  0  0  0  0  0
   58.4440   25.7200   45.9570 C   0  0  0  0  0  0  0  0  0  0  0  0
   59.0783   24.8372   46.1255 H   0  0  0  0  0  0  0  0  0  0  0  0
   57.0540   25.6200   46.1120 C   0  0  0  0  0  0  0  0  0  0  0  0
   56.3520   24.0720   46.6040 S   0  0  0  0  0  0  0  0  0  0  0  0
   57.4540   23.1050   46.9410 O   0  0  0  0  0  0  0  0  0  0  0  0
   55.5500   24.2890   47.8580 O   0  0  0  0  0  0  0  0  0  0  0  0
   55.3090   23.3650   45.3870 N   0  0  0  0  0  0  0  0  0  0  0  0
   55.4750   23.9690   44.0510 C   0  0  0  0  0  0  0  0  0  0  0  0
   54.5064   23.9430   43.5302 H   0  0  0  0  0  0  0  0  0  0  0  0
   55.8322   24.9995   44.1943 H   0  0  0  0  0  0  0  0  0  0  0  0
   56.5140   23.2330   43.1930 C   0  0  0  0  0  0  0  0  0  0  0  0
   56.4956   23.6441   42.1729 H   0  0  0  0  0  0  0  0  0  0  0  0
   57.5071   23.3733   43.6448 H   0  0  0  0  0  0  0  0  0  0  0  0
   56.2330   21.8530   43.1400 O   0  0  0  0  0  0  0  0  0  0  0  0
   56.3670   21.3050   44.4320 C   0  0  0  0  0  0  0  0  0  0  0  0
   56.2373   20.2141   44.3766 H   0  0  0  0  0  0  0  0  0  0  0  0
   57.3669   21.5516   44.8185 H   0  0  0  0  0  0  0  0  0  0  0  0
   55.3130   21.8900   45.3820 C   0  0  0  0  0  0  0  0  0  0  0  0
   54.3201   21.5362   45.0672 H   0  0  0  0  0  0  0  0  0  0  0  0
   55.5598   21.5544   46.4001 H   0  0  0  0  0  0  0  0  0  0  0  0
   56.2470   26.7440   45.8550 C   0  0  0  0  0  0  0  0  0  0  0  0
   54.8640   26.6660   45.9950 O   0  0  0  0  0  0  0  0  0  0  0  0
   58.9330   30.6030   47.9630 C   0  0  0  0  0  0  0  0  0  0  0  0
   59.0846   29.8863   47.1424 H   0  0  0  0  0  0  0  0  0  0  0  0
   58.5640   30.1410   49.2310 C   0  0  0  0  0  0  0  0  0  0  0  0
   58.4415   29.0622   49.4075 H   0  0  0  0  0  0  0  0  0  0  0  0
   54.1920   31.2470   51.6580 N   0  0  0  0  0  0  0  0  0  0  0  0
   52.9760   30.6410   51.6120 C   0  0  0  0  0  0  0  0  0  0  0  0
   51.8530   31.2880   50.8660 C   0  0  0  0  0  0  0  0  0  0  0  0
   51.1294   31.7049   51.5819 H   0  0  0  0  0  0  0  0  0  0  0  0
   52.2502   32.0957   50.2337 H   0  0  0  0  0  0  0  0  0  0  0  0
   51.3534   30.5393   50.2337 H   0  0  0  0  0  0  0  0  0  0  0  0
   52.8070   29.3900   52.2120 C   0  0  0  0  0  0  0  0  0  0  0  0
   51.8369   28.8730   52.1709 H   0  0  0  0  0  0  0  0  0  0  0  0
  1  2  1  0
  2  3  1  0
  3  4  1  0
  4  5  2  0
  5  6  1  0
  6  7  2  0
  6  8  2  0
  6  9  1  0
  9 10  2  0
 10 11  1  0
 10 12  1  0
 12 13  1  0
 12 14  2  0
 14 15  1  0
 15 16  1  0
 15 17  1  0
 17 18  2  0
 17 19  1  0
 19 20  1  0
 19 21  1  0
 21 22  1  0
 21 23  1  0
 21 24  1  0
 24 25  2  0
 24 26  1  0
 26 27  1  0
 27 28  2  0
 28 29  1  0
 28 30  1  0
 30 31  1  0
 30 32  2  0
 32 33  1  0
 32 34  1  0
 34 35  1  0
 35 36  2  0
 35 37  2  0
 35 38  1  0
 38 39  1  0
 39 40  1  0
 39 41  1  0
 39 42  1  0
 42 43  1  0
 42 44  1  0
 42 45  1  0
 45 46  1  0
 46 47  1  0
 46 48  1  0
 46 49  1  0
 49 50  1  0
 49 51  1  0
 34 52  2  0
 52 53  1  0
 14 54  1  0
 54 55  1  0
 54 56  2  0
 56 57  1  0
  4 58  1  0
 58 59  2  0
 59 60  1  0
 60 61  1  0
 60 62  1  0
 60 63  1  0
 59 64  1  0
 64 65  1  0
 64  2  2  0
 56  9  1  0
 52 27  1  0
 49 38  1  0
M  CHG  3   3  -1  26  -1  53  -1
M  END
>  <UniqueID>  (46) 
40

>  <SMILES>  (46) 
Cc1cc[n-]/c(=N/S(=O)(=O)c2ccc(NC(=S)NCC(=O)[N-]c3cccc(S(=O)(=O)N4CCOCC4)c3[O-])cc2)n1

>  <Energy>  (46) 
86.83649140183303

>  <Genealogy>  (46) 
Cc1cc[n-]c(=NS(=O)(=O)c2ccc(NC(=S)NCC(=O)[N-]c3cccc(S(=O)(=O)N4CCOCC4)c3[O-])cc2)n1 (protonated)
Cc1cc[n-]/c(=N/S(=O)(=O)c2ccc(NC(=S)NCC(=O)[N-]c3cccc(S(=O)(=O)N4CCOCC4)c3[O-])cc2)n1 (cis-trans isomerization)
Cc1cc[n-]/c(=N/S(=O)(=O)c2ccc(NC(=S)NCC(=O)[N-]c3cccc(S(=O)(=O)N4CCOCC4)c3[O-])cc2)n1 (3D coordinates assigned)
Cc1cc[n-]/c(=N/S(=O)(=O)c2ccc(NC(=S)NCC(=O)[N-]c3cccc(S(=O)(=O)N4CCOCC4)c3[O-])cc2)n1 (nonaromatic ring conformer: 86.83649140183303 kcal/mol)

>  <smiles>  (46) 
Cc1cc[nH]c(=NS(=O)(=O)c2ccc(NC(=S)NCC(=O)Nc3cccc(S(=O)(=O)N4CCOCC4)c3O)cc2)n1

>  <score_type>  (46) 
oracle

>  <origin>  (46) 
adg

>  <m_score__min__energy>  (46) 
-18

>  <m_primary>  (46) 
energy

$$$$
46:0
     RDKit          3D

 67 70  0  0  0  0  0  0  0  0999 V2000
   57.4560   31.9210   41.8230 C   0  0  0  0  0  0  0  0  0  0  0  0
   57.0700   31.8930   43.1920 O   0  0  0  0  0  0  0  0  0  0  0  0
   57.6440   32.6920   44.1920 C   0  0  0  0  0  0  0  0  0  0  0  0
   58.8050   33.4590   43.9740 C   0  0  0  0  0  0  0  0  0  0  0  0
   59.3430   34.2320   45.0060 C   0  0  0  0  0  0  0  0  0  0  0  0
   58.7340   34.2520   46.2700 C   0  0  0  0  0  0  0  0  0  0  0  0
   59.3440   35.0530   47.3860 C   0  0  0  0  0  0  0  0  0  0  0  0
   60.1410   34.1860   48.2510 N   0  0  0  0  0  0  0  0  0  0  0  0
   61.4180   33.6640   47.8490 C   0  0  0  0  0  0  0  0  0  0  0  0
   61.7800   33.7580   46.6430 O   0  0  0  0  0  0  0  0  0  0  0  0
   62.3030   32.9920   48.8270 C   0  0  0  0  0  0  0  0  0  0  0  0
   63.6830   32.9030   48.5820 C   0  0  0  0  0  0  0  0  0  0  0  0
   64.5160   32.2290   49.4760 C   0  0  0  0  0  0  0  0  0  0  0  0
   63.9810   31.6240   50.6150 C   0  0  0  0  0  0  0  0  0  0  0  0
   62.6030   31.7000   50.8790 C   0  0  0  0  0  0  0  0  0  0  0  0
   62.0200   30.9990   52.0890 C   0  0  0  0  0  0  0  0  0  0  0  0
   61.2940   29.7460   51.7650 N   0  0  0  0  0  0  0  0  0  0  0  0
   62.0060   28.8680   50.8080 C   0  0  0  0  0  0  0  0  0  0  0  0
   61.0550   27.8320   50.1930 C   0  0  0  0  0  0  0  0  0  0  0  0
   59.9540   28.4740   49.4310 N   0  0  0  0  0  0  0  0  0  0  0  0
   60.2950   28.5830   47.9950 C   0  0  0  0  0  0  0  0  0  0  0  0
   59.0550   28.5720   47.1330 C   0  0  0  0  0  0  0  0  0  0  0  0
   58.7180   29.6950   46.3600 C   0  0  0  0  0  0  0  0  0  0  0  0
   57.5420   29.7010   45.6060 C   0  0  0  0  0  0  0  0  0  0  0  0
   56.6970   28.5890   45.6140 C   0  0  0  0  0  0  0  0  0  0  0  0
   55.5310   28.6090   44.8560 O   0  0  0  0  0  0  0  0  0  0  0  0
   57.0170   27.4590   46.3800 C   0  0  0  0  0  0  0  0  0  0  0  0
   56.1400   26.3620   46.3560 O   0  0  0  0  0  0  0  0  0  0  0  0
   56.3310   25.1960   45.5630 C   0  0  0  0  0  0  0  0  0  0  0  0
   58.2000   27.4590   47.1450 C   0  0  0  0  0  0  0  0  0  0  0  0
   59.5380   29.7870   49.9900 C   0  0  0  0  0  0  0  0  0  0  0  0
   59.8510   29.9200   51.4860 C   0  0  0  0  0  0  0  0  0  0  0  0
   61.7790   32.4270   50.0030 C   0  0  0  0  0  0  0  0  0  0  0  0
   57.5760   33.4900   46.4860 C   0  0  0  0  0  0  0  0  0  0  0  0
   57.0360   32.7190   45.4530 C   0  0  0  0  0  0  0  0  0  0  0  0
   58.5508   32.0004   41.7523 H   0  0  0  0  0  0  0  0  0  0  0  0
   57.1228   30.9963   41.3291 H   0  0  0  0  0  0  0  0  0  0  0  0
   56.9928   32.7879   41.3291 H   0  0  0  0  0  0  0  0  0  0  0  0
   59.2903   33.4494   42.9869 H   0  0  0  0  0  0  0  0  0  0  0  0
   60.2496   34.8286   44.8265 H   0  0  0  0  0  0  0  0  0  0  0  0
   59.9899   35.8354   46.9610 H   0  0  0  0  0  0  0  0  0  0  0  0
   58.5400   35.5121   47.9799 H   0  0  0  0  0  0  0  0  0  0  0  0
   59.7390   33.9160   49.1780 H   0  0  0  0  0  0  0  0  0  0  0  0
   64.1096   33.3671   47.6805 H   0  0  0  0  0  0  0  0  0  0  0  0
   65.5975   32.1742   49.2828 H   0  0  0  0  0  0  0  0  0  0  0  0
   64.6420   31.0848   51.3095 H   0  0  0  0  0  0  0  0  0  0  0  0
   62.8423   30.7549   52.7777 H   0  0  0  0  0  0  0  0  0  0  0  0
   61.2868   31.6872   52.5347 H   0  0  0  0  0  0  0  0  0  0  0  0
   62.4329   29.4853   50.0038 H   0  0  0  0  0  0  0  0  0  0  0  0
   62.8004   28.3337   51.3497 H   0  0  0  0  0  0  0  0  0  0  0  0
   61.6271   27.1837   49.5130 H   0  0  0  0  0  0  0  0  0  0  0  0
   60.6081   27.2507   51.0130 H   0  0  0  0  0  0  0  0  0  0  0  0
   60.8398   29.5237   47.8267 H   0  0  0  0  0  0  0  0  0  0  0  0
   60.9164   27.7181   47.7196 H   0  0  0  0  0  0  0  0  0  0  0  0
   59.3817   30.5721   46.3482 H   0  0  0  0  0  0  0  0  0  0  0  0
   57.2808   30.5840   45.0043 H   0  0  0  0  0  0  0  0  0  0  0  0
   56.4736   24.3252   46.2198 H   0  0  0  0  0  0  0  0  0  0  0  0
   55.4472   25.0355   44.9281 H   0  0  0  0  0  0  0  0  0  0  0  0
   57.2198   25.3259   44.9281 H   0  0  0  0  0  0  0  0  0  0  0  0
   58.4554   26.5806   47.7559 H   0  0  0  0  0  0  0  0  0  0  0  0
   60.0676   30.5840   49.4475 H   0  0  0  0  0  0  0  0  0  0  0  0
   58.4476   29.8684   49.8704 H   0  0  0  0  0  0  0  0  0  0  0  0
   59.5407   30.9187   51.8269 H   0  0  0  0  0  0  0  0  0  0  0  0
   59.3025   29.1306   52.0208 H   0  0  0  0  0  0  0  0  0  0  0  0
   60.7125   32.5554   50.2399 H   0  0  0  0  0  0  0  0  0  0  0  0
   57.0908   33.4994   47.4731 H   0  0  0  0  0  0  0  0  0  0  0  0
   56.1255   32.1283   45.6321 H   0  0  0  0  0  0  0  0  0  0  0  0
  1  2  1  0
  2  3  1  0
  3  4  2  0
  4  5  1  0
  5  6  2  0
  6  7  1  0
  7  8  1  0
  8  9  1  0
  9 10  2  0
  9 11  1  0
 11 12  2  0
 12 13  1  0
 13 14  2  0
 14 15  1  0
 15 16  1  0
 16 17  1  0
 17 18  1  0
 18 19  1  0
 19 20  1  0
 20 21  1  0
 21 22  1  0
 22 23  2  0
 23 24  1  0
 24 25  2  0
 25 26  1  0
 25 27  1  0
 27 28  1  0
 28 29  1  0
 27 30  2  0
 20 31  1  0
 31 32  1  0
 15 33  2  0
  6 34  1  0
 34 35  2  0
 35  3  1  0
 33 11  1  0
 32 17  1  0
 30 22  1  0
  1 36  1  0
  1 37  1  0
  1 38  1  0
  4 39  1  0
  5 40  1  0
  7 41  1  0
  7 42  1  0
  8 43  1  0
 12 44  1  0
 13 45  1  0
 14 46  1  0
 16 47  1  0
 16 48  1  0
 18 49  1  0
 18 50  1  0
 19 51  1  0
 19 52  1  0
 21 53  1  0
 21 54  1  0
 23 55  1  0
 24 56  1  0
 29 57  1  0
 29 58  1  0
 29 59  1  0
 30 60  1  0
 31 61  1  0
 31 62  1  0
 32 63  1  0
 32 64  1  0
 33 65  1  0
 34 66  1  0
 35 67  1  0
M  CHG  1  26  -1
M  END
>  <UniqueID>  (47) 
41

>  <SMILES>  (47) 
COc1ccc(CNC(=O)c2cccc(CN3CCN(Cc4ccc([O-])c(OC)c4)CC3)c2)cc1

>  <Energy>  (47) 
82.72592656694641

>  <Genealogy>  (47) 
COc1ccc(CNC(=O)c2cccc(CN3CCN(Cc4ccc([O-])c(OC)c4)CC3)c2)cc1 (protonated)
COc1ccc(CNC(=O)c2cccc(CN3CCN(Cc4ccc([O-])c(OC)c4)CC3)c2)cc1 (3D coordinates assigned)
COc1ccc(CNC(=O)c2cccc(CN3CCN(Cc4ccc([O-])c(OC)c4)CC3)c2)cc1 (nonaromatic ring conformer: 82.72592656694641 kcal/mol)

>  <smiles>  (47) 
COc1ccc(CNC(=O)c2cccc(CN3CCN(Cc4ccc(O)c(OC)c4)CC3)c2)cc1

>  <score_type>  (47) 
oracle

>  <origin>  (47) 
adg

>  <m_score__min__energy>  (47) 
-13.529999999999999

>  <m_primary>  (47) 
energy

$$$$
47:0
     RDKit          3D

 50 53  0  0  0  0  0  0  0  0999 V2000
   59.4880   31.4440   50.9850 O   0  0  0  0  0  0  0  0  0  0  0  0
   59.7130   30.4990   50.1830 C   0  0  0  0  0  0  0  0  0  0  0  0
   60.0070   29.1910   50.6850 N   0  0  0  0  0  0  0  0  0  0  0  0
   60.0490   28.0480   49.7750 C   0  0  0  0  0  0  0  0  0  0  0  0
   60.7520   28.4280   48.4660 C   0  0  0  0  0  0  0  0  0  0  0  0
   60.1680   29.6930   47.8770 C   0  0  0  0  0  0  0  0  0  0  0  0
   60.1770   29.8920   46.4890 C   0  0  0  0  0  0  0  0  0  0  0  0
   59.6920   31.0840   45.9440 C   0  0  0  0  0  0  0  0  0  0  0  0
   59.2060   32.0990   46.7790 C   0  0  0  0  0  0  0  0  0  0  0  0
   58.5250   33.5730   46.0840 S   0  0  0  0  0  0  0  0  0  0  0  0
   57.6530   34.2450   47.1080 O   0  0  0  0  0  0  0  0  0  0  0  0
   59.6400   34.5170   45.7280 O   0  0  0  0  0  0  0  0  0  0  0  0
   57.5710   33.2230   44.6590 N   0  0  0  0  0  0  0  0  0  0  0  0
   58.4440   33.0940   43.4700 C   0  0  0  0  0  0  0  0  0  0  0  0
   57.7460   32.3390   42.3310 C   0  0  0  0  0  0  0  0  0  0  0  0
   57.3710   30.9030   42.7510 C   0  0  0  0  0  0  0  0  0  0  0  0
   57.2180   30.7630   44.2800 C   0  0  2  0  0  0  0  0  0  0  0  0
   56.3600   29.5850   44.6440 C   0  0  0  0  0  0  0  0  0  0  0  0
   55.1700   29.7580   45.0200 O   0  0  0  0  0  0  0  0  0  0  0  0
   56.8750   28.2600   44.4670 N   0  0  0  0  0  0  0  0  0  0  0  0
   57.2550   27.4140   45.3850 C   0  0  0  0  0  0  0  0  0  0  0  0
   58.5880   27.3210   45.6460 N   0  0  0  0  0  0  0  0  0  0  0  0
   59.0950   26.4820   46.5870 C   0  0  0  0  0  0  0  0  0  0  0  0
   58.2410   25.6740   47.3330 C   0  0  0  0  0  0  0  0  0  0  0  0
   56.8670   25.7470   47.1100 C   0  0  0  0  0  0  0  0  0  0  0  0
   56.3550   26.6230   46.1470 C   0  0  0  0  0  0  0  0  0  0  0  0
   54.9740   26.7140   46.0040 O   0  0  0  0  0  0  0  0  0  0  0  0
   56.6670   32.0680   44.8870 C   0  0  0  0  0  0  0  0  0  0  0  0
   59.2270   31.9190   48.1700 C   0  0  0  0  0  0  0  0  0  0  0  0
   59.7030   30.7210   48.7240 C   0  0  0  0  0  0  0  0  0  0  0  0
   60.1290   29.0430   51.7110 H   0  0  0  0  0  0  0  0  0  0  0  0
   60.5977   27.2239   50.2543 H   0  0  0  0  0  0  0  0  0  0  0  0
   59.0188   27.7367   49.5477 H   0  0  0  0  0  0  0  0  0  0  0  0
   61.8219   28.5866   48.6665 H   0  0  0  0  0  0  0  0  0  0  0  0
   60.6089   27.6102   47.7444 H   0  0  0  0  0  0  0  0  0  0  0  0
   60.5677   29.1061   45.8259 H   0  0  0  0  0  0  0  0  0  0  0  0
   59.6918   31.2263   44.8532 H   0  0  0  0  0  0  0  0  0  0  0  0
   58.7157   34.0997   43.1168 H   0  0  0  0  0  0  0  0  0  0  0  0
   59.3378   32.5231   43.7619 H   0  0  0  0  0  0  0  0  0  0  0  0
   56.8301   32.8805   42.0519 H   0  0  0  0  0  0  0  0  0  0  0  0
   58.4405   32.2794   41.4800 H   0  0  0  0  0  0  0  0  0  0  0  0
   56.4178   30.6320   42.2735 H   0  0  0  0  0  0  0  0  0  0  0  0
   58.1840   30.2348   42.4308 H   0  0  0  0  0  0  0  0  0  0  0  0
   58.2151   30.5788   44.7064 H   0  0  0  0  0  0  0  0  0  0  0  0
   60.1806   26.4411   46.7595 H   0  0  0  0  0  0  0  0  0  0  0  0
   58.6460   24.9859   48.0897 H   0  0  0  0  0  0  0  0  0  0  0  0
   56.1828   25.1134   47.6934 H   0  0  0  0  0  0  0  0  0  0  0  0
   55.6914   32.2868   44.4283 H   0  0  0  0  0  0  0  0  0  0  0  0
   56.5772   31.9212   45.9735 H   0  0  0  0  0  0  0  0  0  0  0  0
   58.8681   32.7220   48.8305 H   0  0  0  0  0  0  0  0  0  0  0  0
  1  2  2  0
  2  3  1  0
  3  4  1  0
  4  5  1  0
  5  6  1  0
  6  7  2  0
  7  8  1  0
  8  9  2  0
  9 10  1  0
 10 11  2  0
 10 12  2  0
 10 13  1  0
 13 14  1  0
 14 15  1  0
 15 16  1  0
 16 17  1  0
 17 18  1  0
 18 19  2  0
 18 20  1  0
 20 21  2  3
 21 22  1  0
 22 23  1  0
 23 24  2  0
 24 25  1  0
 25 26  2  0
 26 27  1  0
 17 28  1  0
  9 29  1  0
 29 30  2  0
 30  2  1  0
 30  6  1  0
 28 13  1  0
 26 21  1  0
  3 31  1  0
  4 32  1  0
  4 33  1  0
  5 34  1  0
  5 35  1  0
  7 36  1  0
  8 37  1  0
 14 38  1  0
 14 39  1  0
 15 40  1  0
 15 41  1  0
 16 42  1  0
 16 43  1  0
 17 44  1  1
 23 45  1  0
 24 46  1  0
 25 47  1  0
 28 48  1  0
 28 49  1  0
 29 50  1  0
M  CHG  2  22  -1  27  -1
M  END
>  <UniqueID>  (48) 
42

>  <SMILES>  (48) 
O=C1NCCc2ccc(S(=O)(=O)N3CCC[C@H](C(=O)N=c4[n-]cccc4[O-])C3)cc21

>  <Energy>  (48) 
65.64021760395259

>  <Genealogy>  (48) 
O=C1NCCc2ccc(S(=O)(=O)N3CCCC(C(=O)N=c4[n-]cccc4[O-])C3)cc21 (protonated)
O=C1NCCc2ccc(S(=O)(=O)N3CCC[C@H](C(=O)N=c4[n-]cccc4[O-])C3)cc21 (chirality)
O=C1NCCc2ccc(S(=O)(=O)N3CCC[C@H](C(=O)N=c4[n-]cccc4[O-])C3)cc21 (3D coordinates assigned)
O=C1NCCc2ccc(S(=O)(=O)N3CCC[C@H](C(=O)N=c4[n-]cccc4[O-])C3)cc21 (nonaromatic ring conformer: 65.64021760395259 kcal/mol)

>  <smiles>  (48) 
O=C1NCCc2ccc(S(=O)(=O)N3CCCC(C(=O)N=c4[nH]cccc4O)C3)cc21

>  <score_type>  (48) 
oracle

>  <origin>  (48) 
adg

>  <m_score__min__energy>  (48) 
-15.460000000000001

>  <m_primary>  (48) 
energy

$$$$
48:0
     RDKit          3D

 58 61  0  0  0  0  0  0  0  0999 V2000
   56.3710   31.0730   44.5090 O   0  0  0  0  0  0  0  0  0  0  0  0
   57.3020   31.7950   44.9590 C   0  0  0  0  0  0  0  0  0  0  0  0
   57.3140   33.2640   44.6570 C   0  0  0  0  0  0  0  0  0  0  0  0
   58.7140   33.8600   44.8910 C   0  0  0  0  0  0  0  0  0  0  0  0
   58.9760   34.1850   46.3760 C   0  0  0  0  0  0  0  0  0  0  0  0
   60.3990   34.7110   46.6370 C   0  0  0  0  0  0  0  0  0  0  0  0
   61.3910   33.6030   46.8840 C   0  0  0  0  0  0  0  0  0  0  0  0
   62.7680   33.8420   46.7360 C   0  0  0  0  0  0  0  0  0  0  0  0
   63.6920   32.8290   47.0140 C   0  0  0  0  0  0  0  0  0  0  0  0
   63.2490   31.5750   47.4440 C   0  0  0  0  0  0  0  0  0  0  0  0
   61.8820   31.3300   47.5930 C   0  0  0  0  0  0  0  0  0  0  0  0
   60.9550   32.3390   47.3160 C   0  0  0  0  0  0  0  0  0  0  0  0
   58.3380   31.2240   45.7700 N   0  0  0  0  0  0  0  0  0  0  0  0
   58.7740   29.8580   45.6760 C   0  0  0  0  0  0  0  0  0  0  0  0
   59.8860   29.4940   44.8960 C   0  0  0  0  0  0  0  0  0  0  0  0
   60.3190   28.1660   44.8620 C   0  0  0  0  0  0  0  0  0  0  0  0
   59.6540   27.1910   45.6070 C   0  0  0  0  0  0  0  0  0  0  0  0
   58.5420   27.5350   46.3920 C   0  0  0  0  0  0  0  0  0  0  0  0
   57.8360   26.4860   47.2160 C   0  0  0  0  0  0  0  0  0  0  0  0
   56.8120   25.7390   46.4010 C   0  0  0  0  0  0  0  0  0  0  0  0
   55.5410   26.2240   46.3680 N   0  0  0  0  0  0  0  0  0  0  0  0
   54.5680   25.6150   45.6930 N   0  0  0  0  0  0  0  0  0  0  0  0
   54.7890   24.4660   45.0080 C   0  0  0  0  0  0  0  0  0  0  0  0
   53.8400   23.9300   44.3760 O   0  0  0  0  0  0  0  0  0  0  0  0
   56.0680   23.8900   45.0140 C   0  0  0  0  0  0  0  0  0  0  0  0
   57.1070   24.5490   45.7010 C   0  0  0  0  0  0  0  0  0  0  0  0
   58.4330   23.9810   45.6980 N   0  0  0  0  0  0  0  0  0  0  0  0
   58.7670   22.8310   44.8610 C   0  0  0  0  0  0  0  0  0  0  0  0
   57.5750   21.8800   44.7720 C   0  0  0  0  0  0  0  0  0  0  0  0
   56.3450   22.6210   44.2350 C   0  0  0  0  0  0  0  0  0  0  0  0
   58.1230   28.8750   46.4380 C   0  0  0  0  0  0  0  0  0  0  0  0
   57.0276   33.4183   43.6062 H   0  0  0  0  0  0  0  0  0  0  0  0
   56.6008   33.7669   45.3266 H   0  0  0  0  0  0  0  0  0  0  0  0
   59.4677   33.1350   44.5501 H   0  0  0  0  0  0  0  0  0  0  0  0
   58.7753   34.8021   44.3264 H   0  0  0  0  0  0  0  0  0  0  0  0
   58.2551   34.9503   46.6994 H   0  0  0  0  0  0  0  0  0  0  0  0
   58.8637   33.2483   46.9416 H   0  0  0  0  0  0  0  0  0  0  0  0
   60.7273   35.2887   45.7603 H   0  0  0  0  0  0  0  0  0  0  0  0
   60.3628   35.3336   47.5431 H   0  0  0  0  0  0  0  0  0  0  0  0
   63.1203   34.8286   46.4006 H   0  0  0  0  0  0  0  0  0  0  0  0
   64.7687   33.0197   46.8940 H   0  0  0  0  0  0  0  0  0  0  0  0
   63.9772   30.7808   47.6651 H   0  0  0  0  0  0  0  0  0  0  0  0
   61.5344   30.3418   47.9287 H   0  0  0  0  0  0  0  0  0  0  0  0
   59.8794   32.1426   47.4368 H   0  0  0  0  0  0  0  0  0  0  0  0
   58.8030   31.8420   46.4740 H   0  0  0  0  0  0  0  0  0  0  0  0
   60.4174   30.2583   44.3099 H   0  0  0  0  0  0  0  0  0  0  0  0
   61.1869   27.8880   44.2460 H   0  0  0  0  0  0  0  0  0  0  0  0
   60.0028   26.1481   45.5790 H   0  0  0  0  0  0  0  0  0  0  0  0
   58.5798   25.7710   47.5974 H   0  0  0  0  0  0  0  0  0  0  0  0
   57.3163   26.9903   48.0441 H   0  0  0  0  0  0  0  0  0  0  0  0
   59.1990   24.3930   46.2690 H   0  0  0  0  0  0  0  0  0  0  0  0
   59.0295   23.1803   43.8515 H   0  0  0  0  0  0  0  0  0  0  0  0
   59.6194   22.2977   45.3071 H   0  0  0  0  0  0  0  0  0  0  0  0
   57.8229   21.0492   44.0950 H   0  0  0  0  0  0  0  0  0  0  0  0
   57.3499   21.4919   45.7763 H   0  0  0  0  0  0  0  0  0  0  0  0
   56.5185   22.8813   43.1804 H   0  0  0  0  0  0  0  0  0  0  0  0
   55.4736   21.9581   44.3405 H   0  0  0  0  0  0  0  0  0  0  0  0
   57.2747   29.1574   47.0788 H   0  0  0  0  0  0  0  0  0  0  0  0
  1  2  2  0
  2  3  1  0
  3  4  1  0
  4  5  1  0
  5  6  1  0
  6  7  1  0
  7  8  2  0
  8  9  1  0
  9 10  2  0
 10 11  1  0
 11 12  2  0
  2 13  1  0
 13 14  1  0
 14 15  2  0
 15 16  1  0
 16 17  2  0
 17 18  1  0
 18 19  1  0
 19 20  1  0
 20 21  2  0
 21 22  1  0
 22 23  1  0
 23 24  2  0
 23 25  1  0
 25 26  2  0
 26 27  1  0
 27 28  1  0
 28 29  1  0
 29 30  1  0
 18 31  2  0
 12  7  1  0
 31 14  1  0
 26 20  1  0
 30 25  1  0
  3 32  1  0
  3 33  1  0
  4 34  1  0
  4 35  1  0
  5 36  1  0
  5 37  1  0
  6 38  1  0
  6 39  1  0
  8 40  1  0
  9 41  1  0
 10 42  1  0
 11 43  1  0
 12 44  1  0
 13 45  1  0
 15 46  1  0
 16 47  1  0
 17 48  1  0
 19 49  1  0
 19 50  1  0
 27 51  1  0
 28 52  1  0
 28 53  1  0
 29 54  1  0
 29 55  1  0
 30 56  1  0
 30 57  1  0
 31 58  1  0
M  CHG  1  22  -1
M  END
>  <UniqueID>  (49) 
43

>  <SMILES>  (49) 
O=C(CCCCc1ccccc1)Nc1cccc(Cc2n[n-]c(=O)c3c2NCCC3)c1

>  <Energy>  (49) 
59.954253726041394

>  <Genealogy>  (49) 
O=C(CCCCc1ccccc1)Nc1cccc(Cc2n[n-]c(=O)c3c2NCCC3)c1 (protonated)
O=C(CCCCc1ccccc1)Nc1cccc(Cc2n[n-]c(=O)c3c2NCCC3)c1 (3D coordinates assigned)
O=C(CCCCc1ccccc1)Nc1cccc(Cc2n[n-]c(=O)c3c2NCCC3)c1 (nonaromatic ring conformer: 59.954253726041394 kcal/mol)

>  <smiles>  (49) 
O=C(CCCCc1ccccc1)Nc1cccc(Cc2n[nH]c(=O)c3c2NCCC3)c1

>  <score_type>  (49) 
oracle

>  <origin>  (49) 
adg

>  <m_score__min__energy>  (49) 
-12.92

>  <m_primary>  (49) 
energy

$$$$
49:0
     RDKit          3D

 46 48  0  0  0  0  0  0  0  0999 V2000
   63.4365   33.6660   45.4439 H   0  0  0  0  0  0  0  0  0  0  0  0
   62.8790   33.7980   46.3830 C   0  0  0  0  0  0  0  0  0  0  0  0
   61.5400   34.0280   46.3500 N   0  0  0  0  0  0  0  0  0  0  0  0
   60.8040   34.2050   47.4800 C   0  0  0  0  0  0  0  0  0  0  0  0
   59.5210   34.4060   47.3620 N   0  0  0  0  0  0  0  0  0  0  0  0
   58.4660   33.4540   47.5550 C   0  0  0  0  0  0  0  0  0  0  0  0
   58.6590   32.4870   48.3390 O   0  0  0  0  0  0  0  0  0  0  0  0
   57.2540   33.4560   46.6620 C   0  0  0  0  0  0  0  0  0  0  0  0
   56.5563   32.6788   47.0072 H   0  0  0  0  0  0  0  0  0  0  0  0
   56.7929   34.4533   46.7143 H   0  0  0  0  0  0  0  0  0  0  0  0
   57.6940   33.1240   44.9160 S   0  0  0  0  0  0  0  0  0  0  0  0
   58.6750   31.6600   45.2560 C   0  0  0  0  0  0  0  0  0  0  0  0
   58.4660   30.4290   44.7540 N   0  0  0  0  0  0  0  0  0  0  0  0
   57.4560   29.9820   43.7990 C   0  0  0  0  0  0  0  0  0  0  0  0
   57.1789   30.8250   43.1490 H   0  0  0  0  0  0  0  0  0  0  0  0
   57.8783   29.1573   43.2061 H   0  0  0  0  0  0  0  0  0  0  0  0
   56.2240   29.4800   44.5040 C   0  0  0  0  0  0  0  0  0  0  0  0
   55.1660   30.1590   44.4450 O   0  0  0  0  0  0  0  0  0  0  0  0
   56.2180   28.2560   45.2500 N   0  0  0  0  0  0  0  0  0  0  0  0
   57.3920   27.6280   45.7750 C   0  0  0  0  0  0  0  0  0  0  0  0
   57.7670   27.8970   47.0970 C   0  0  0  0  0  0  0  0  0  0  0  0
   57.1459   28.5601   47.7171 H   0  0  0  0  0  0  0  0  0  0  0  0
   58.9240   27.3290   47.6330 C   0  0  0  0  0  0  0  0  0  0  0  0
   59.2180   27.5535   48.6690 H   0  0  0  0  0  0  0  0  0  0  0  0
   59.7080   26.4760   46.8540 C   0  0  0  0  0  0  0  0  0  0  0  0
   60.6257   26.0379   47.2733 H   0  0  0  0  0  0  0  0  0  0  0  0
   59.3290   26.1780   45.5430 C   0  0  0  0  0  0  0  0  0  0  0  0
   59.9512   25.5054   44.9344 H   0  0  0  0  0  0  0  0  0  0  0  0
   58.1590   26.7310   44.9960 C   0  0  0  0  0  0  0  0  0  0  0  0
   57.7730   26.3700   43.5870 C   0  0  0  0  0  0  0  0  0  0  0  0
   56.9697   25.6188   43.6079 H   0  0  0  0  0  0  0  0  0  0  0  0
   57.4201   27.2696   43.0616 H   0  0  0  0  0  0  0  0  0  0  0  0
   58.6470   25.9577   43.0616 H   0  0  0  0  0  0  0  0  0  0  0  0
   59.4120   29.6540   45.2640 N   0  0  0  0  0  0  0  0  0  0  0  0
   60.1740   30.3800   46.0710 N   0  0  0  0  0  0  0  0  0  0  0  0
   59.7310   31.6280   46.0820 N   0  0  0  0  0  0  0  0  0  0  0  0
   60.1440   32.4140   46.6300 H   0  0  0  0  0  0  0  0  0  0  0  0
   61.4450   34.1210   48.7320 C   0  0  0  0  0  0  0  0  0  0  0  0
   60.8633   34.2381   49.6583 H   0  0  0  0  0  0  0  0  0  0  0  0
   62.8250   33.8880   48.7940 C   0  0  0  0  0  0  0  0  0  0  0  0
   63.5050   33.7980   50.1280 C   0  0  0  0  0  0  0  0  0  0  0  0
   62.7569   33.8970   50.9283 H   0  0  0  0  0  0  0  0  0  0  0  0
   64.0105   32.8251   50.2170 H   0  0  0  0  0  0  0  0  0  0  0  0
   64.2462   34.6059   50.2170 H   0  0  0  0  0  0  0  0  0  0  0  0
   63.5480   33.7290   47.6050 C   0  0  0  0  0  0  0  0  0  0  0  0
   64.6332   33.5514   47.6346 H   0  0  0  0  0  0  0  0  0  0  0  0
  1  2  1  0
  2  3  1  0
  3  4  1  0
  4  5  2  0
  5  6  1  0
  6  7  2  0
  6  8  1  0
  8  9  1  0
  8 10  1  0
  8 11  1  0
 11 12  1  0
 12 13  1  0
 13 14  1  0
 14 15  1  0
 14 16  1  0
 14 17  1  0
 17 18  2  0
 17 19  1  0
 19 20  1  0
 20 21  2  0
 21 22  1  0
 21 23  1  0
 23 24  1  0
 23 25  2  0
 25 26  1  0
 25 27  1  0
 27 28  1  0
 27 29  2  0
 29 30  1  0
 30 31  1  0
 30 32  1  0
 30 33  1  0
 13 34  1  0
 34 35  2  0
 35 36  1  0
 36 37  1  0
  4 38  1  0
 38 39  1  0
 38 40  2  0
 40 41  1  0
 41 42  1  0
 41 43  1  0
 41 44  1  0
 40 45  1  0
 45 46  1  0
 45  2  2  0
 36 12  2  0
 29 20  1  0
M  CHG  3   3  -1  19  -1  36   1
M  END
>  <UniqueID>  (50) 
44

>  <SMILES>  (50) 
Cc1cc[n-]/c(=N/C(=O)CSc2[nH+]nnn2CC(=O)[N-]c2ccccc2C)c1

>  <Energy>  (50) 
98.5552666073788

>  <Genealogy>  (50) 
Cc1cc[n-]c(=NC(=O)CSc2[nH+]nnn2CC(=O)[N-]c2ccccc2C)c1 (protonated)
Cc1cc[n-]/c(=N/C(=O)CSc2[nH+]nnn2CC(=O)[N-]c2ccccc2C)c1 (cis-trans isomerization)
Cc1cc[n-]/c(=N/C(=O)CSc2[nH+]nnn2CC(=O)[N-]c2ccccc2C)c1 (3D coordinates assigned)
Cc1cc[n-]/c(=N/C(=O)CSc2[nH+]nnn2CC(=O)[N-]c2ccccc2C)c1 (optimized conformer: 98.5552666073788 kcal/mol)

>  <smiles>  (50) 
Cc1cc[nH]c(=NC(=O)CSc2nnnn2CC(=O)Nc2ccccc2C)c1

>  <score_type>  (50) 
oracle

>  <origin>  (50) 
adg

>  <m_score__min__energy>  (50) 
-10.779999999999999

>  <m_primary>  (50) 
energy

$$$$
50:0
     RDKit          3D

 29 30  0  0  0  0  0  0  0  0999 V2000
   59.6900   34.2340   48.4820 C   0  0  0  0  0  0  0  0  0  0  0  0
   59.1680   33.9180   47.1460 N   0  0  0  0  0  0  0  0  0  0  0  0
   58.6700   32.6680   46.8960 C   0  0  0  0  0  0  0  0  0  0  0  0
   58.1790   32.3260   45.6240 C   0  0  0  0  0  0  0  0  0  0  0  0
   57.6350   30.9740   45.3460 C   0  0  0  0  0  0  0  0  0  0  0  0
   56.5440   30.8600   44.7230 O   0  0  0  0  0  0  0  0  0  0  0  0
   58.3100   29.7970   45.8220 N   0  0  0  0  0  0  0  0  0  0  0  0
   58.1030   28.4830   45.2750 C   0  0  0  0  0  0  0  0  0  0  0  0
   58.3320   28.2090   43.9140 C   0  0  0  0  0  0  0  0  0  0  0  0
   58.1470   26.9170   43.4130 C   0  0  0  0  0  0  0  0  0  0  0  0
   57.7430   25.8850   44.2640 C   0  0  0  0  0  0  0  0  0  0  0  0
   57.5660   24.6350   43.7660 F   0  0  0  0  0  0  0  0  0  0  0  0
   57.5310   26.1420   45.6240 C   0  0  0  0  0  0  0  0  0  0  0  0
   57.0360   24.8510   46.7040 Cl  0  0  0  0  0  0  0  0  0  0  0  0
   57.7170   27.4350   46.1280 C   0  0  0  0  0  0  0  0  0  0  0  0
   58.2350   33.2890   44.6070 C   0  0  0  0  0  0  0  0  0  0  0  0
   58.7570   34.5530   44.8690 C   0  0  0  0  0  0  0  0  0  0  0  0
   59.2250   34.8560   46.1480 C   0  0  0  0  0  0  0  0  0  0  0  0
   59.7020   36.0030   46.3700 O   0  0  0  0  0  0  0  0  0  0  0  0
   59.0133   33.8244   49.2464 H   0  0  0  0  0  0  0  0  0  0  0  0
   60.6889   33.7888   48.6001 H   0  0  0  0  0  0  0  0  0  0  0  0
   59.7587   35.3255   48.6001 H   0  0  0  0  0  0  0  0  0  0  0  0
   58.6537   31.9199   47.7023 H   0  0  0  0  0  0  0  0  0  0  0  0
   58.8960   29.8810   46.6830 H   0  0  0  0  0  0  0  0  0  0  0  0
   58.6582   29.0155   43.2408 H   0  0  0  0  0  0  0  0  0  0  0  0
   58.3199   26.7123   42.3461 H   0  0  0  0  0  0  0  0  0  0  0  0
   57.5599   27.6318   47.1988 H   0  0  0  0  0  0  0  0  0  0  0  0
   57.8658   33.0457   43.5998 H   0  0  0  0  0  0  0  0  0  0  0  0
   58.8002   35.3092   44.0713 H   0  0  0  0  0  0  0  0  0  0  0  0
  1  2  1  0
  2  3  1  0
  3  4  2  0
  4  5  1  0
  5  6  2  0
  5  7  1  0
  7  8  1  0
  8  9  2  0
  9 10  1  0
 10 11  2  0
 11 12  1  0
 11 13  1  0
 13 14  1  0
 13 15  2  0
  4 16  1  0
 16 17  2  0
 17 18  1  0
 18 19  2  0
 18  2  1  0
 15  8  1  0
  1 20  1  0
  1 21  1  0
  1 22  1  0
  3 23  1  0
  7 24  1  0
  9 25  1  0
 10 26  1  0
 15 27  1  0
 16 28  1  0
 17 29  1  0
M  END
>  <UniqueID>  (51) 
45

>  <SMILES>  (51) 
Cn1cc(C(=O)Nc2ccc(F)c(Cl)c2)ccc1=O

>  <Energy>  (51) 
37.43289228867426

>  <Genealogy>  (51) 
Cn1cc(C(=O)Nc2ccc(F)c(Cl)c2)ccc1=O (3D coordinates assigned)
Cn1cc(C(=O)Nc2ccc(F)c(Cl)c2)ccc1=O (optimized conformer: 37.43289228867426 kcal/mol)

>  <smiles>  (51) 
Cn1cc(C(=O)Nc2ccc(F)c(Cl)c2)ccc1=O

>  <score_type>  (51) 
oracle

>  <origin>  (51) 
adg

>  <m_score__min__energy>  (51) 
-6.54

>  <m_primary>  (51) 
energy

$$$$
51:0
     RDKit          3D

 42 44  0  0  0  0  0  0  0  0999 V2000
   55.0630   30.6300   53.6690 O   0  0  0  0  0  0  0  0  0  0  0  0
   54.8940   30.5560   52.4200 C   0  0  0  0  0  0  0  0  0  0  0  0
   55.9470   30.1760   51.5780 O   0  0  0  0  0  0  0  0  0  0  0  0
   57.1940   30.8650   51.5350 C   0  0  0  0  0  0  0  0  0  0  0  0
   58.3510   29.8740   51.6670 C   0  0  0  0  0  0  0  0  0  0  0  0
   59.8600   30.5050   50.8520 S   0  0  0  0  0  0  0  0  0  0  0  0
   59.6040   29.5770   49.3410 C   0  0  0  0  0  0  0  0  0  0  0  0
   60.4020   28.5170   49.0500 N   0  0  0  0  0  0  0  0  0  0  0  0
   60.2390   27.8180   47.8980 C   0  0  0  0  0  0  0  0  0  0  0  0
   60.9870   26.8370   47.6480 O   0  0  0  0  0  0  0  0  0  0  0  0
   59.2440   28.1910   46.9920 C   0  0  0  0  0  0  0  0  0  0  0  0
   58.4310   29.2860   47.3040 C   0  0  0  0  0  0  0  0  0  0  0  0
   57.4210   29.7180   46.3820 N   0  0  0  0  0  0  0  0  0  0  0  0
   57.7110   30.9210   45.1650 S   0  0  0  0  0  0  0  0  0  0  0  0
   56.4510   31.2000   44.3940 O   0  0  0  0  0  0  0  0  0  0  0  0
   58.7440   30.3860   44.2140 O   0  0  0  0  0  0  0  0  0  0  0  0
   58.2950   32.4100   45.9070 C   0  0  0  0  0  0  0  0  0  0  0  0
   58.3480   32.5330   47.3040 C   0  0  0  0  0  0  0  0  0  0  0  0
   58.8310   33.7080   47.8890 C   0  0  0  0  0  0  0  0  0  0  0  0
   59.2660   34.7640   47.0840 C   0  0  0  0  0  0  0  0  0  0  0  0
   59.2170   34.6480   45.6920 C   0  0  0  0  0  0  0  0  0  0  0  0
   58.7320   33.4750   45.1040 C   0  0  0  0  0  0  0  0  0  0  0  0
   58.6270   29.9490   48.4750 N   0  0  0  0  0  0  0  0  0  0  0  0
   53.5800   30.8710   51.8480 C   0  0  0  0  0  0  0  0  0  0  0  0
   52.9790   30.1870   50.8070 C   0  0  0  0  0  0  0  0  0  0  0  0
   51.7720   30.8100   50.5860 C   0  0  0  0  0  0  0  0  0  0  0  0
   51.7080   31.8340   51.5040 C   0  0  0  0  0  0  0  0  0  0  0  0
   50.6470   32.7200   51.6250 O   0  0  0  0  0  0  0  0  0  0  0  0
   52.8040   31.8860   52.2820 N   0  0  0  0  0  0  0  0  0  0  0  0
   57.2809   31.3992   50.5774 H   0  0  0  0  0  0  0  0  0  0  0  0
   57.2374   31.5800   52.3698 H   0  0  0  0  0  0  0  0  0  0  0  0
   58.5620   29.7092   52.7339 H   0  0  0  0  0  0  0  0  0  0  0  0
   58.0598   28.9324   51.1785 H   0  0  0  0  0  0  0  0  0  0  0  0
   59.1024   27.6357   46.0530 H   0  0  0  0  0  0  0  0  0  0  0  0
   56.4790   29.2670   46.4010 H   0  0  0  0  0  0  0  0  0  0  0  0
   58.0086   31.7028   47.9408 H   0  0  0  0  0  0  0  0  0  0  0  0
   58.8685   33.8009   48.9844 H   0  0  0  0  0  0  0  0  0  0  0  0
   59.6471   35.6868   47.5459 H   0  0  0  0  0  0  0  0  0  0  0  0
   59.5599   35.4794   45.0586 H   0  0  0  0  0  0  0  0  0  0  0  0
   58.6930   33.3870   44.0082 H   0  0  0  0  0  0  0  0  0  0  0  0
   53.3841   29.3198   50.2649 H   0  0  0  0  0  0  0  0  0  0  0  0
   51.0156   30.5449   49.8326 H   0  0  0  0  0  0  0  0  0  0  0  0
  1  2  2  0
  2  3  1  0
  3  4  1  0
  4  5  1  0
  5  6  1  0
  6  7  1  0
  7  8  2  0
  8  9  1  0
  9 10  2  0
  9 11  1  0
 11 12  2  0
 12 13  1  0
 13 14  1  0
 14 15  2  0
 14 16  2  0
 14 17  1  0
 17 18  2  0
 18 19  1  0
 19 20  2  0
 20 21  1  0
 21 22  2  0
 12 23  1  0
  2 24  1  0
 24 25  2  0
 25 26  1  0
 26 27  2  0
 27 28  1  0
 27 29  1  0
 23  7  1  0
 29 24  1  0
 22 17  1  0
  4 30  1  0
  4 31  1  0
  5 32  1  0
  5 33  1  0
 11 34  1  0
 13 35  1  0
 18 36  1  0
 19 37  1  0
 20 38  1  0
 21 39  1  0
 22 40  1  0
 25 41  1  0
 26 42  1  0
M  CHG  3  23  -1  28  -1  29  -1
M  END
>  <UniqueID>  (52) 
46

>  <SMILES>  (52) 
O=C(OCCSc1nc(=O)cc(NS(=O)(=O)c2ccccc2)[n-]1)c1ccc([O-])[n-]1

>  <Energy>  (52) 
62.59132961815632

>  <Genealogy>  (52) 
O=C(OCCSc1nc(=O)cc(NS(=O)(=O)c2ccccc2)[n-]1)c1ccc([O-])[n-]1 (protonated)
O=C(OCCSc1nc(=O)cc(NS(=O)(=O)c2ccccc2)[n-]1)c1ccc([O-])[n-]1 (3D coordinates assigned)
O=C(OCCSc1nc(=O)cc(NS(=O)(=O)c2ccccc2)[n-]1)c1ccc([O-])[n-]1 (optimized conformer: 62.59132961815632 kcal/mol)

>  <smiles>  (52) 
O=C(OCCSc1nc(=O)cc(NS(=O)(=O)c2ccccc2)[nH]1)c1ccc(O)[nH]1

>  <score_type>  (52) 
oracle

>  <origin>  (52) 
adg

>  <m_score__min__energy>  (52) 
-15.699999999999999

>  <m_primary>  (52) 
energy

$$$$
52:0
     RDKit          3D

 40 41  0  0  0  0  0  0  0  0999 V2000
   58.8640   32.7230   50.0190 C   0  0  0  0  0  0  0  0  0  0  0  0
   58.4580   32.2940   48.7240 O   0  0  0  0  0  0  0  0  0  0  0  0
   58.5520   33.0760   47.5590 C   0  0  0  0  0  0  0  0  0  0  0  0
   57.4200   33.3760   46.7750 C   0  0  0  0  0  0  0  0  0  0  0  0
   57.5480   34.1420   45.6140 C   0  0  0  0  0  0  0  0  0  0  0  0
   58.7990   34.6140   45.2190 C   0  0  0  0  0  0  0  0  0  0  0  0
   59.9290   34.3240   45.9860 C   0  0  0  0  0  0  0  0  0  0  0  0
   59.8150   33.5680   47.1650 C   0  0  0  0  0  0  0  0  0  0  0  0
   61.0560   33.2440   47.9600 C   0  0  0  0  0  0  0  0  0  0  0  0
   62.0350   32.4220   47.1180 C   0  0  0  0  0  0  0  0  0  0  0  0
   61.9240   31.0040   47.4460 N   0  0  0  0  0  0  0  0  0  0  0  0
   61.1470   30.5010   48.5360 C   0  0  0  0  0  0  0  0  0  0  0  0
   61.5680   30.6110   49.7190 O   0  0  0  0  0  0  0  0  0  0  0  0
   59.8960   29.9340   48.2680 O   0  0  0  0  0  0  0  0  0  0  0  0
   59.5060   29.3660   47.0460 C   0  0  0  0  0  0  0  0  0  0  0  0
   60.2230   28.3170   46.4400 C   0  0  0  0  0  0  0  0  0  0  0  0
   59.7990   27.7890   45.2180 C   0  0  0  0  0  0  0  0  0  0  0  0
   58.6670   28.3070   44.5840 C   0  0  0  0  0  0  0  0  0  0  0  0
   57.9610   29.3690   45.1630 C   0  0  0  0  0  0  0  0  0  0  0  0
   56.5330   30.0200   44.3660 S   0  0  0  0  0  0  0  0  0  0  0  0
   55.1710   29.0170   44.7110 N   0  0  0  0  0  0  0  0  0  0  0  0
   56.2650   31.4140   44.8600 O   0  0  0  0  0  0  0  0  0  0  0  0
   56.7570   30.0710   42.8800 O   0  0  0  0  0  0  0  0  0  0  0  0
   58.3840   29.8940   46.3930 C   0  0  0  0  0  0  0  0  0  0  0  0
   58.3200   32.1482   50.7830 H   0  0  0  0  0  0  0  0  0  0  0  0
   59.9452   32.5588   50.1374 H   0  0  0  0  0  0  0  0  0  0  0  0
   58.6405   33.7935   50.1374 H   0  0  0  0  0  0  0  0  0  0  0  0
   56.4301   33.0049   47.0790 H   0  0  0  0  0  0  0  0  0  0  0  0
   56.6588   34.3736   45.0093 H   0  0  0  0  0  0  0  0  0  0  0  0
   58.8957   35.2150   44.3028 H   0  0  0  0  0  0  0  0  0  0  0  0
   60.9155   34.6899   45.6651 H   0  0  0  0  0  0  0  0  0  0  0  0
   61.5427   34.1810   48.2686 H   0  0  0  0  0  0  0  0  0  0  0  0
   60.7678   32.6562   48.8440 H   0  0  0  0  0  0  0  0  0  0  0  0
   61.8055   32.5662   46.0519 H   0  0  0  0  0  0  0  0  0  0  0  0
   63.0599   32.7584   47.3336 H   0  0  0  0  0  0  0  0  0  0  0  0
   61.1203   27.9116   46.9304 H   0  0  0  0  0  0  0  0  0  0  0  0
   60.3580   26.9632   44.7538 H   0  0  0  0  0  0  0  0  0  0  0  0
   58.3295   27.8799   43.6281 H   0  0  0  0  0  0  0  0  0  0  0  0
   54.7200   29.4000   45.5720 H   0  0  0  0  0  0  0  0  0  0  0  0
   57.8301   30.7277   46.8492 H   0  0  0  0  0  0  0  0  0  0  0  0
  1  2  1  0
  2  3  1  0
  3  4  2  0
  4  5  1  0
  5  6  2  0
  6  7  1  0
  7  8  2  0
  8  9  1  0
  9 10  1  0
 10 11  1  0
 11 12  1  0
 12 13  2  0
 12 14  1  0
 14 15  1  0
 15 16  2  0
 16 17  1  0
 17 18  2  0
 18 19  1  0
 19 20  1  0
 20 21  1  0
 20 22  2  0
 20 23  2  0
 19 24  2  0
  8  3  1  0
 24 15  1  0
  1 25  1  0
  1 26  1  0
  1 27  1  0
  4 28  1  0
  5 29  1  0
  6 30  1  0
  7 31  1  0
  9 32  1  0
  9 33  1  0
 10 34  1  0
 10 35  1  0
 16 36  1  0
 17 37  1  0
 18 38  1  0
 21 39  1  0
 24 40  1  0
M  CHG  2  11  -1  21  -1
M  END
>  <UniqueID>  (53) 
47

>  <SMILES>  (53) 
COc1ccccc1CC[N-]C(=O)Oc1cccc(S([NH-])(=O)=O)c1

>  <Energy>  (53) 
40.10296963246319

>  <Genealogy>  (53) 
COc1ccccc1CC[N-]C(=O)Oc1cccc(S([NH-])(=O)=O)c1 (protonated)
COc1ccccc1CC[N-]C(=O)Oc1cccc(S([NH-])(=O)=O)c1 (3D coordinates assigned)
COc1ccccc1CC[N-]C(=O)Oc1cccc(S([NH-])(=O)=O)c1 (optimized conformer: 40.10296963246319 kcal/mol)

>  <smiles>  (53) 
COc1ccccc1CCNC(=O)Oc1cccc(S(N)(=O)=O)c1

>  <score_type>  (53) 
oracle

>  <origin>  (53) 
adg

>  <m_score__min__energy>  (53) 
-11.369999999999999

>  <m_primary>  (53) 
energy

$$$$
53:0
     RDKit          3D

 48 51  0  0  0  0  0  0  0  0999 V2000
   60.0227   28.7941   47.7889 H   0  0  0  0  0  0  0  0  0  0  0  0
   59.3800   28.2400   47.0890 C   0  0  0  0  0  0  0  0  0  0  0  0
   59.3035   27.1451   47.1617 H   0  0  0  0  0  0  0  0  0  0  0  0
   58.6890   28.9000   46.1460 C   0  0  0  0  0  0  0  0  0  0  0  0
   57.8280   28.3510   45.1790 C   0  0  0  0  0  0  0  0  0  0  0  0
   57.5870   27.0730   44.8320 C   0  0  0  0  0  0  0  0  0  0  0  0
   57.7484   26.7988   43.7790 H   0  0  0  0  0  0  0  0  0  0  0  0
   57.1260   26.0110   45.7410 C   0  0  0  0  0  0  0  0  0  0  0  0
   55.8400   25.8330   46.1970 C   0  0  0  0  0  0  0  0  0  0  0  0
   54.7770   26.7030   45.9840 O   0  0  0  0  0  0  0  0  0  0  0  0
   55.7370   24.6800   46.8860 N   0  0  0  0  0  0  0  0  0  0  0  0
   56.9860   24.1720   46.8030 C   0  0  0  0  0  0  0  0  0  0  0  0
   57.3110   23.0700   47.3190 O   0  0  0  0  0  0  0  0  0  0  0  0
   57.8480   24.9390   46.1080 N   0  0  0  0  0  0  0  0  0  0  0  0
   58.8440   24.7270   45.8760 H   0  0  0  0  0  0  0  0  0  0  0  0
   57.2170   29.4240   44.5510 C   0  0  0  0  0  0  0  0  0  0  0  0
   56.4528   29.3724   43.7614 H   0  0  0  0  0  0  0  0  0  0  0  0
   57.7500   30.5700   45.1050 C   0  0  0  0  0  0  0  0  0  0  0  0
   57.4000   31.9640   44.6790 C   0  0  0  0  0  0  0  0  0  0  0  0
   57.2426   32.5908   45.5691 H   0  0  0  0  0  0  0  0  0  0  0  0
   58.2214   32.3808   44.0776 H   0  0  0  0  0  0  0  0  0  0  0  0
   56.4792   31.9433   44.0776 H   0  0  0  0  0  0  0  0  0  0  0  0
   58.6510   30.2550   46.0610 N   0  0  0  0  0  0  0  0  0  0  0  0
   59.3620   31.2030   46.8760 C   0  0  0  0  0  0  0  0  0  0  0  0
   60.5160   31.8280   46.3850 C   0  0  0  0  0  0  0  0  0  0  0  0
   60.8868   31.5827   45.3789 H   0  0  0  0  0  0  0  0  0  0  0  0
   61.1970   32.7620   47.1700 C   0  0  0  0  0  0  0  0  0  0  0  0
   62.0982   33.2536   46.7748 H   0  0  0  0  0  0  0  0  0  0  0  0
   60.7410   33.0770   48.4560 C   0  0  0  0  0  0  0  0  0  0  0  0
   61.4450   34.0290   49.2060 O   0  0  0  0  0  0  0  0  0  0  0  0
   62.7480   33.8700   49.7030 C   0  0  0  0  0  0  0  0  0  0  0  0
   63.7090   33.2650   48.8880 C   0  0  0  0  0  0  0  0  0  0  0  0
   63.4356   32.9337   47.8753 H   0  0  0  0  0  0  0  0  0  0  0  0
   65.0140   33.0780   49.3500 C   0  0  0  0  0  0  0  0  0  0  0  0
   65.7672   32.6244   48.6890 H   0  0  0  0  0  0  0  0  0  0  0  0
   65.3720   33.4650   50.6530 C   0  0  0  0  0  0  0  0  0  0  0  0
   66.7920   33.3130   51.1330 C   0  0  0  0  0  0  0  0  0  0  0  0
   66.8070   33.3140   52.5150 F   0  0  0  0  0  0  0  0  0  0  0  0
   67.5780   34.3550   50.6720 F   0  0  0  0  0  0  0  0  0  0  0  0
   67.3390   32.1260   50.6780 F   0  0  0  0  0  0  0  0  0  0  0  0
   64.4050   34.0780   51.4700 C   0  0  0  0  0  0  0  0  0  0  0  0
   64.6777   34.4141   52.4813 H   0  0  0  0  0  0  0  0  0  0  0  0
   63.0990   34.2630   51.0050 C   0  0  0  0  0  0  0  0  0  0  0  0
   62.3433   34.7184   51.6619 H   0  0  0  0  0  0  0  0  0  0  0  0
   59.5670   32.4680   48.9360 C   0  0  0  0  0  0  0  0  0  0  0  0
   59.1844   32.7281   49.9340 H   0  0  0  0  0  0  0  0  0  0  0  0
   58.8850   31.5350   48.1520 C   0  0  0  0  0  0  0  0  0  0  0  0
   57.9709   31.0592   48.5367 H   0  0  0  0  0  0  0  0  0  0  0  0
  1  2  1  0
  2  3  1  0
  2  4  2  0
  4  5  1  0
  5  6  2  0
  6  7  1  0
  6  8  1  0
  8  9  2  0
  9 10  1  0
  9 11  1  0
 11 12  1  0
 12 13  2  0
 12 14  1  0
 14 15  1  0
  5 16  1  0
 16 17  1  0
 16 18  2  0
 18 19  1  0
 19 20  1  0
 19 21  1  0
 19 22  1  0
 18 23  1  0
 23 24  1  0
 24 25  2  0
 25 26  1  0
 25 27  1  0
 27 28  1  0
 27 29  2  0
 29 30  1  0
 30 31  1  0
 31 32  2  0
 32 33  1  0
 32 34  1  0
 34 35  1  0
 34 36  2  0
 36 37  1  0
 37 38  1  0
 37 39  1  0
 37 40  1  0
 36 41  1  0
 41 42  1  0
 41 43  2  0
 43 44  1  0
 29 45  1  0
 45 46  1  0
 45 47  2  0
 47 48  1  0
 23  4  1  0
 47 24  1  0
 14  8  1  0
 43 31  1  0
M  CHG  2  10  -1  11  -1
M  END
>  <UniqueID>  (54) 
48

>  <SMILES>  (54) 
C=c1/c(=C\c2[nH]c(=O)[n-]c2[O-])cc(C)n1-c1ccc(Oc2ccc(C(F)(F)F)cc2)cc1

>  <Energy>  (54) 
135.9661406731765

>  <Genealogy>  (54) 
C=c1c(=Cc2[nH]c(=O)[n-]c2[O-])cc(C)n1-c1ccc(Oc2ccc(C(F)(F)F)cc2)cc1 (protonated)
C=c1/c(=C\c2[nH]c(=O)[n-]c2[O-])cc(C)n1-c1ccc(Oc2ccc(C(F)(F)F)cc2)cc1 (cis-trans isomerization)
C=c1/c(=C\c2[nH]c(=O)[n-]c2[O-])cc(C)n1-c1ccc(Oc2ccc(C(F)(F)F)cc2)cc1 (3D coordinates assigned)
C=c1/c(=C\c2[nH]c(=O)[n-]c2[O-])cc(C)n1-c1ccc(Oc2ccc(C(F)(F)F)cc2)cc1 (optimized conformer: 135.9661406731765 kcal/mol)

>  <smiles>  (54) 
C=c1c(=Cc2[nH]c(=O)[nH]c2O)cc(C)n1-c1ccc(Oc2ccc(C(F)(F)F)cc2)cc1

>  <score_type>  (54) 
oracle

>  <origin>  (54) 
adg

>  <m_score__min__energy>  (54) 
-14.380000000000001

>  <m_primary>  (54) 
energy

$$$$
54:0
     RDKit          3D

 43 45  0  0  0  0  0  0  0  0999 V2000
   55.5430   22.2390   42.4030 N   0  0  0  0  0  0  0  0  0  0  0  0
   56.3710   22.0570   43.9070 S   0  0  0  0  0  0  0  0  0  0  0  0
   57.7290   21.4580   43.6650 O   0  0  0  0  0  0  0  0  0  0  0  0
   55.5910   21.1360   44.8030 O   0  0  0  0  0  0  0  0  0  0  0  0
   56.5390   23.6310   44.6760 C   0  0  0  0  0  0  0  0  0  0  0  0
   57.8100   24.1580   44.9380 C   0  0  0  0  0  0  0  0  0  0  0  0
   57.9420   25.4110   45.5420 C   0  0  0  0  0  0  0  0  0  0  0  0
   56.8010   26.1640   45.8750 C   0  0  0  0  0  0  0  0  0  0  0  0
   56.8990   27.4420   46.5230 N   0  0  0  0  0  0  0  0  0  0  0  0
   58.0790   28.2440   46.6590 C   0  0  0  0  0  0  0  0  0  0  0  0
   58.7250   28.2650   47.7400 O   0  0  0  0  0  0  0  0  0  0  0  0
   58.5560   29.0490   45.4930 C   0  0  0  0  0  0  0  0  0  0  0  0
   59.2330   30.2920   45.9780 C   0  0  0  0  0  0  0  0  0  0  0  0
   60.7640   30.3570   46.6720 S   0  0  0  0  0  0  0  0  0  0  0  0
   60.6560   32.0100   47.0050 C   0  0  0  0  0  0  0  0  0  0  0  0
   61.6700   32.8020   47.6550 N   0  0  0  0  0  0  0  0  0  0  0  0
   61.3330   34.0490   48.3570 C   0  0  0  0  0  0  0  0  0  0  0  0
   62.1310   34.1650   49.6630 C   0  0  0  0  0  0  0  0  0  0  0  0
   63.6320   33.8310   49.5100 C   0  0  0  0  0  0  0  0  0  0  0  0
   64.0310   33.4590   48.0770 C   0  0  0  0  0  0  0  0  0  0  0  0
   63.0790   32.4050   47.5020 C   0  0  0  0  0  0  0  0  0  0  0  0
   59.4620   32.5150   46.6170 N   0  0  0  0  0  0  0  0  0  0  0  0
   58.6720   31.5640   46.0550 C   0  0  0  0  0  0  0  0  0  0  0  0
   57.3920   31.8550   45.6000 O   0  0  0  0  0  0  0  0  0  0  0  0
   55.5300   25.6270   45.6250 C   0  0  0  0  0  0  0  0  0  0  0  0
   54.3880   26.3410   45.9720 O   0  0  0  0  0  0  0  0  0  0  0  0
   55.4000   24.3710   45.0200 C   0  0  0  0  0  0  0  0  0  0  0  0
   56.2450   22.5770   41.7060 H   0  0  0  0  0  0  0  0  0  0  0  0
   58.7079   23.5831   44.6672 H   0  0  0  0  0  0  0  0  0  0  0  0
   58.9436   25.8110   45.7584 H   0  0  0  0  0  0  0  0  0  0  0  0
   59.2675   28.4519   44.9037 H   0  0  0  0  0  0  0  0  0  0  0  0
   57.6954   29.3253   44.8661 H   0  0  0  0  0  0  0  0  0  0  0  0
   61.5730   34.9050   47.7092 H   0  0  0  0  0  0  0  0  0  0  0  0
   60.2593   34.0428   48.5962 H   0  0  0  0  0  0  0  0  0  0  0  0
   62.0416   35.1969   50.0333 H   0  0  0  0  0  0  0  0  0  0  0  0
   61.7090   33.4280   50.3622 H   0  0  0  0  0  0  0  0  0  0  0  0
   64.2177   34.7097   49.8179 H   0  0  0  0  0  0  0  0  0  0  0  0
   63.8350   32.9534   50.1414 H   0  0  0  0  0  0  0  0  0  0  0  0
   63.9939   34.3601   47.4471 H   0  0  0  0  0  0  0  0  0  0  0  0
   65.0492   33.0430   48.0918 H   0  0  0  0  0  0  0  0  0  0  0  0
   63.2979   32.2729   46.4321 H   0  0  0  0  0  0  0  0  0  0  0  0
   63.2326   31.4665   48.0549 H   0  0  0  0  0  0  0  0  0  0  0  0
   54.3993   23.9634   44.8139 H   0  0  0  0  0  0  0  0  0  0  0  0
  1  2  1  0
  2  3  2  0
  2  4  2  0
  2  5  1  0
  5  6  2  0
  6  7  1  0
  7  8  2  0
  8  9  1  0
  9 10  1  0
 10 11  2  0
 10 12  1  0
 12 13  1  0
 13 14  1  0
 14 15  1  0
 15 16  1  0
 16 17  1  0
 17 18  1  0
 18 19  1  0
 19 20  1  0
 20 21  1  0
 15 22  2  0
 22 23  1  0
 23 24  1  0
  8 25  1  0
 25 26  1  0
 25 27  2  0
 27  5  1  0
 23 13  2  0
 21 16  1  0
  1 28  1  0
  6 29  1  0
  7 30  1  0
 12 31  1  0
 12 32  1  0
 17 33  1  0
 17 34  1  0
 18 35  1  0
 18 36  1  0
 19 37  1  0
 19 38  1  0
 20 39  1  0
 20 40  1  0
 21 41  1  0
 21 42  1  0
 27 43  1  0
M  CHG  4   1  -1   9  -1  24  -1  26  -1
M  END
>  <UniqueID>  (55) 
49

>  <SMILES>  (55) 
[NH-]S(=O)(=O)c1ccc([N-]C(=O)Cc2sc(N3CCCCC3)nc2[O-])c([O-])c1

>  <Energy>  (55) 
76.70518266374816

>  <Genealogy>  (55) 
[NH-]S(=O)(=O)c1ccc([N-]C(=O)Cc2sc(N3CCCCC3)nc2[O-])c([O-])c1 (protonated)
[NH-]S(=O)(=O)c1ccc([N-]C(=O)Cc2sc(N3CCCCC3)nc2[O-])c([O-])c1 (3D coordinates assigned)
[NH-]S(=O)(=O)c1ccc([N-]C(=O)Cc2sc(N3CCCCC3)nc2[O-])c([O-])c1 (nonaromatic ring conformer: 76.70518266374816 kcal/mol)

>  <smiles>  (55) 
NS(=O)(=O)c1ccc(NC(=O)Cc2sc(N3CCCCC3)nc2O)c(O)c1

>  <score_type>  (55) 
oracle

>  <origin>  (55) 
adg

>  <m_score__min__energy>  (55) 
-18.27

>  <m_primary>  (55) 
energy

$$$$
55:0
     RDKit          3D

 46 48  0  0  0  0  0  0  0  0999 V2000
   61.3210   34.2020   49.0650 C   0  0  0  0  0  0  0  0  0  0  0  0
   62.0690   34.0180   47.8690 O   0  0  0  0  0  0  0  0  0  0  0  0
   62.6110   32.7820   47.4990 C   0  0  0  0  0  0  0  0  0  0  0  0
   63.7280   32.7330   46.9130 O   0  0  0  0  0  0  0  0  0  0  0  0
   61.8720   31.5350   47.7950 C   0  0  0  0  0  0  0  0  0  0  0  0
   61.2080   30.8420   46.7670 C   0  0  0  0  0  0  0  0  0  0  0  0
   60.5040   29.6660   47.0450 C   0  0  0  0  0  0  0  0  0  0  0  0
   60.4370   29.1750   48.3570 C   0  0  0  0  0  0  0  0  0  0  0  0
   59.7460   27.9580   48.6600 N   0  0  0  0  0  0  0  0  0  0  0  0
   59.6340   26.8210   47.7920 C   0  0  0  0  0  0  0  0  0  0  0  0
   60.6620   26.4160   47.1880 O   0  0  0  0  0  0  0  0  0  0  0  0
   58.3570   26.0370   47.6680 C   0  0  0  0  0  0  0  0  0  0  0  0
   58.0640   25.5580   45.9300 S   0  0  0  0  0  0  0  0  0  0  0  0
   57.7170   27.2260   45.3800 C   0  0  0  0  0  0  0  0  0  0  0  0
   58.7350   28.0440   45.0090 N   0  0  0  0  0  0  0  0  0  0  0  0
   58.5000   29.3160   44.6000 C   0  0  0  0  0  0  0  0  0  0  0  0
   59.4730   30.0430   44.2650 O   0  0  0  0  0  0  0  0  0  0  0  0
   57.1820   29.8090   44.5530 C   0  0  0  0  0  0  0  0  0  0  0  0
   56.8800   31.2110   44.0720 C   0  0  0  0  0  0  0  0  0  0  0  0
   57.6270   32.2270   44.8960 C   0  0  0  0  0  0  0  0  0  0  0  0
   58.1840   33.3650   44.2860 C   0  0  0  0  0  0  0  0  0  0  0  0
   58.9000   34.2940   45.0470 C   0  0  0  0  0  0  0  0  0  0  0  0
   59.0660   34.0950   46.4200 C   0  0  0  0  0  0  0  0  0  0  0  0
   58.5210   32.9650   47.0330 C   0  0  0  0  0  0  0  0  0  0  0  0
   57.8050   32.0320   46.2760 C   0  0  0  0  0  0  0  0  0  0  0  0
   56.1450   28.9320   44.9250 C   0  0  0  0  0  0  0  0  0  0  0  0
   54.8170   29.3410   44.8850 O   0  0  0  0  0  0  0  0  0  0  0  0
   56.4360   27.6700   45.3310 N   0  0  0  0  0  0  0  0  0  0  0  0
   61.1240   29.8410   49.3770 C   0  0  0  0  0  0  0  0  0  0  0  0
   61.8290   31.0180   49.1030 C   0  0  0  0  0  0  0  0  0  0  0  0
   61.9749   34.0412   49.9348 H   0  0  0  0  0  0  0  0  0  0  0  0
   60.9194   35.2257   49.0925 H   0  0  0  0  0  0  0  0  0  0  0  0
   60.4903   33.4814   49.0925 H   0  0  0  0  0  0  0  0  0  0  0  0
   61.2426   31.2275   45.7374 H   0  0  0  0  0  0  0  0  0  0  0  0
   60.0006   29.1237   46.2310 H   0  0  0  0  0  0  0  0  0  0  0  0
   58.4281   25.1299   48.2861 H   0  0  0  0  0  0  0  0  0  0  0  0
   57.5206   26.6648   48.0090 H   0  0  0  0  0  0  0  0  0  0  0  0
   57.1843   31.3053   43.0191 H   0  0  0  0  0  0  0  0  0  0  0  0
   55.8005   31.3961   44.1744 H   0  0  0  0  0  0  0  0  0  0  0  0
   58.0558   33.5250   43.2053 H   0  0  0  0  0  0  0  0  0  0  0  0
   59.3331   35.1825   44.5643 H   0  0  0  0  0  0  0  0  0  0  0  0
   59.6262   34.8287   47.0182 H   0  0  0  0  0  0  0  0  0  0  0  0
   58.6550   32.8083   48.1135 H   0  0  0  0  0  0  0  0  0  0  0  0
   57.3796   31.1421   46.7629 H   0  0  0  0  0  0  0  0  0  0  0  0
   61.1100   29.4373   50.4001 H   0  0  0  0  0  0  0  0  0  0  0  0
   62.3531   31.5427   49.9154 H   0  0  0  0  0  0  0  0  0  0  0  0
  1  2  1  0
  2  3  1  0
  3  4  2  0
  3  5  1  0
  5  6  2  0
  6  7  1  0
  7  8  2  0
  8  9  1  0
  9 10  1  0
 10 11  2  0
 10 12  1  0
 12 13  1  0
 13 14  1  0
 14 15  2  0
 15 16  1  0
 16 17  2  0
 16 18  1  0
 18 19  1  0
 19 20  1  0
 20 21  2  0
 21 22  1  0
 22 23  2  0
 23 24  1  0
 24 25  2  0
 18 26  2  0
 26 27  1  0
 26 28  1  0
  8 29  1  0
 29 30  2  0
 30  5  1  0
 28 14  1  0
 25 20  1  0
  1 31  1  0
  1 32  1  0
  1 33  1  0
  6 34  1  0
  7 35  1  0
 12 36  1  0
 12 37  1  0
 19 38  1  0
 19 39  1  0
 21 40  1  0
 22 41  1  0
 23 42  1  0
 24 43  1  0
 25 44  1  0
 29 45  1  0
 30 46  1  0
M  CHG  3   9  -1  27  -1  28  -1
M  END
>  <UniqueID>  (56) 
50

>  <SMILES>  (56) 
COC(=O)c1ccc([N-]C(=O)CSc2nc(=O)c(Cc3ccccc3)c([O-])[n-]2)cc1

>  <Energy>  (56) 
49.60721492832619

>  <Genealogy>  (56) 
COC(=O)c1ccc([N-]C(=O)CSc2nc(=O)c(Cc3ccccc3)c([O-])[n-]2)cc1 (protonated)
COC(=O)c1ccc([N-]C(=O)CSc2nc(=O)c(Cc3ccccc3)c([O-])[n-]2)cc1 (3D coordinates assigned)
COC(=O)c1ccc([N-]C(=O)CSc2nc(=O)c(Cc3ccccc3)c([O-])[n-]2)cc1 (optimized conformer: 49.60721492832619 kcal/mol)

>  <smiles>  (56) 
COC(=O)c1ccc(NC(=O)CSc2nc(=O)c(Cc3ccccc3)c(O)[nH]2)cc1

>  <score_type>  (56) 
oracle

>  <origin>  (56) 
adg

>  <m_score__min__energy>  (56) 
-14.359999999999999

>  <m_primary>  (56) 
energy

$$$$
56:0
     RDKit          3D

 51 54  0  0  0  0  0  0  0  0999 V2000
   55.4070   29.7930   44.8590 N   0  0  0  0  0  0  0  0  0  0  0  0
   56.9760   29.2420   44.3820 S   0  0  0  0  0  0  0  0  0  0  0  0
   57.9090   30.4200   44.3820 O   0  0  0  0  0  0  0  0  0  0  0  0
   56.9080   28.6740   42.9920 O   0  0  0  0  0  0  0  0  0  0  0  0
   57.5650   28.0020   45.5040 C   0  0  0  0  0  0  0  0  0  0  0  0
   57.0840   26.6890   45.3700 C   0  0  0  0  0  0  0  0  0  0  0  0
   57.5530   25.6730   46.2060 C   0  0  0  0  0  0  0  0  0  0  0  0
   58.5090   25.9540   47.1810 C   0  0  0  0  0  0  0  0  0  0  0  0
   58.9910   27.2540   47.3340 C   0  0  0  0  0  0  0  0  0  0  0  0
   58.5200   28.2910   46.5110 C   0  0  0  0  0  0  0  0  0  0  0  0
   59.0430   29.6530   46.7280 C   0  0  0  0  0  0  0  0  0  0  0  0
   60.3970   29.9380   46.5080 C   0  0  0  0  0  0  0  0  0  0  0  0
   60.8930   31.2240   46.7360 C   0  0  0  0  0  0  0  0  0  0  0  0
   60.0410   32.2430   47.1950 C   0  0  0  0  0  0  0  0  0  0  0  0
   60.5740   33.6330   47.4500 C   0  0  0  0  0  0  0  0  0  0  0  0
   61.8720   33.5880   48.1630 N   0  0  0  0  0  0  0  0  0  0  0  0
   61.9430   33.5170   49.5460 C   0  0  0  0  0  0  0  0  0  0  0  0
   60.7650   33.5540   50.3930 N   0  0  0  0  0  0  0  0  0  0  0  0
   60.1590   32.2450   50.4660 C   0  0  0  0  0  0  0  0  0  0  0  0
   60.9080   31.0930   50.1600 C   0  0  0  0  0  0  0  0  0  0  0  0
   60.3150   29.8280   50.2190 C   0  0  0  0  0  0  0  0  0  0  0  0
   58.9730   29.6990   50.5790 C   0  0  0  0  0  0  0  0  0  0  0  0
   58.2170   30.8350   50.8830 C   0  0  0  0  0  0  0  0  0  0  0  0
   56.9130   30.7080   51.2300 F   0  0  0  0  0  0  0  0  0  0  0  0
   58.8060   32.1020   50.8260 C   0  0  0  0  0  0  0  0  0  0  0  0
   63.1980   33.3930   50.1680 C   0  0  0  0  0  0  0  0  0  0  0  0
   64.3440   33.3740   49.3900 C   0  0  0  0  0  0  0  0  0  0  0  0
   65.4770   33.2740   49.9290 O   0  0  0  0  0  0  0  0  0  0  0  0
   64.2440   33.4630   48.0460 N   0  0  0  0  0  0  0  0  0  0  0  0
   63.0390   33.5650   47.4290 C   0  0  0  0  0  0  0  0  0  0  0  0
   63.0150   33.6280   46.1690 O   0  0  0  0  0  0  0  0  0  0  0  0
   58.6760   31.9650   47.3690 C   0  0  0  0  0  0  0  0  0  0  0  0
   58.1800   30.6800   47.1390 C   0  0  0  0  0  0  0  0  0  0  0  0
   54.7690   28.9670   44.8240 H   0  0  0  0  0  0  0  0  0  0  0  0
   56.3321   26.4591   44.6007 H   0  0  0  0  0  0  0  0  0  0  0  0
   57.1672   24.6489   46.0948 H   0  0  0  0  0  0  0  0  0  0  0  0
   58.8838   25.1493   47.8306 H   0  0  0  0  0  0  0  0  0  0  0  0
   59.7457   27.4690   48.1049 H   0  0  0  0  0  0  0  0  0  0  0  0
   61.0727   29.1455   46.1541 H   0  0  0  0  0  0  0  0  0  0  0  0
   61.9563   31.4401   46.5552 H   0  0  0  0  0  0  0  0  0  0  0  0
   60.7115   34.1466   46.4870 H   0  0  0  0  0  0  0  0  0  0  0  0
   59.8505   34.1730   48.0785 H   0  0  0  0  0  0  0  0  0  0  0  0
   60.9520   33.8850   51.3600 H   0  0  0  0  0  0  0  0  0  0  0  0
   60.0910   34.2440   49.9870 H   0  0  0  0  0  0  0  0  0  0  0  0
   61.9656   31.1885   49.8729 H   0  0  0  0  0  0  0  0  0  0  0  0
   60.9078   28.9325   49.9811 H   0  0  0  0  0  0  0  0  0  0  0  0
   58.5095   28.7024   50.6236 H   0  0  0  0  0  0  0  0  0  0  0  0
   58.2073   32.9935   51.0643 H   0  0  0  0  0  0  0  0  0  0  0  0
   63.2691   33.3118   51.2627 H   0  0  0  0  0  0  0  0  0  0  0  0
   57.9922   32.7651   47.6888 H   0  0  0  0  0  0  0  0  0  0  0  0
   57.1091   30.4723   47.2805 H   0  0  0  0  0  0  0  0  0  0  0  0
  1  2  1  0
  2  3  2  0
  2  4  2  0
  2  5  1  0
  5  6  2  0
  6  7  1  0
  7  8  2  0
  8  9  1  0
  9 10  2  0
 10 11  1  0
 11 12  2  0
 12 13  1  0
 13 14  2  0
 14 15  1  0
 15 16  1  0
 16 17  1  0
 17 18  1  0
 18 19  1  0
 19 20  2  0
 20 21  1  0
 21 22  2  0
 22 23  1  0
 23 24  1  0
 23 25  2  0
 17 26  2  0
 26 27  1  0
 27 28  2  0
 27 29  1  0
 29 30  1  0
 30 31  2  0
 14 32  1  0
 32 33  2  0
 10  5  1  0
 33 11  1  0
 30 16  1  0
 25 19  1  0
  1 34  1  0
  6 35  1  0
  7 36  1  0
  8 37  1  0
  9 38  1  0
 12 39  1  0
 13 40  1  0
 15 41  1  0
 15 42  1  0
 18 43  1  0
 18 44  1  0
 20 45  1  0
 21 46  1  0
 22 47  1  0
 25 48  1  0
 26 49  1  0
 32 50  1  0
 33 51  1  0
M  CHG  3   1  -1  18   1  29  -1
M  END
>  <UniqueID>  (57) 
51

>  <SMILES>  (57) 
[NH-]S(=O)(=O)c1ccccc1-c1ccc(Cn2c([NH2+]c3cccc(F)c3)cc(=O)[n-]c2=O)cc1

>  <Energy>  (57) 
73.60514345266432

>  <Genealogy>  (57) 
[NH-]S(=O)(=O)c1ccccc1-c1ccc(Cn2c([NH2+]c3cccc(F)c3)cc(=O)[n-]c2=O)cc1 (protonated)
[NH-]S(=O)(=O)c1ccccc1-c1ccc(Cn2c([NH2+]c3cccc(F)c3)cc(=O)[n-]c2=O)cc1 (3D coordinates assigned)
[NH-]S(=O)(=O)c1ccccc1-c1ccc(Cn2c([NH2+]c3cccc(F)c3)cc(=O)[n-]c2=O)cc1 (optimized conformer: 73.60514345266432 kcal/mol)

>  <smiles>  (57) 
NS(=O)(=O)c1ccccc1-c1ccc(Cn2c(Nc3cccc(F)c3)cc(=O)[nH]c2=O)cc1

>  <score_type>  (57) 
oracle

>  <origin>  (57) 
adg

>  <m_score__min__energy>  (57) 
-11.02

>  <m_primary>  (57) 
energy

$$$$
57:0
     RDKit          3D

 63 67  0  0  0  0  0  0  0  0999 V2000
   57.1822   27.3019   43.4192 H   0  0  0  0  0  0  0  0  0  0  0  0
   57.5040   27.6130   44.4240 C   0  0  0  0  0  0  0  0  0  0  0  0
   57.8800   28.8920   44.5890 C   0  0  0  0  0  0  0  0  0  0  0  0
   59.6110   29.3270   44.5100 S   0  0  0  0  0  0  0  0  0  0  0  0
   59.5890   29.9860   46.1830 C   0  0  0  0  0  0  0  0  0  0  0  0
   60.6280   29.6660   47.0640 C   0  0  0  0  0  0  0  0  0  0  0  0
   61.4203   28.9713   46.7483 H   0  0  0  0  0  0  0  0  0  0  0  0
   60.6620   30.2270   48.3450 C   0  0  0  0  0  0  0  0  0  0  0  0
   61.4751   29.9627   49.0371 H   0  0  0  0  0  0  0  0  0  0  0  0
   59.6640   31.1250   48.7510 C   0  0  0  0  0  0  0  0  0  0  0  0
   59.6560   31.6690   50.1200 C   0  0  0  0  0  0  0  0  0  0  0  0
   59.9630   32.8850   50.2850 O   0  0  0  0  0  0  0  0  0  0  0  0
   59.2520   30.8480   51.2500 N   0  0  0  0  0  0  0  0  0  0  0  0
   58.5170   29.5910   51.0180 C   0  0  0  0  0  0  0  0  0  0  0  0
   59.2247   28.8234   50.6717 H   0  0  0  0  0  0  0  0  0  0  0  0
   57.7411   29.7829   50.2623 H   0  0  0  0  0  0  0  0  0  0  0  0
   57.8270   29.0910   52.2940 C   0  0  0  0  0  0  0  0  0  0  0  0
   58.5714   28.6199   52.9527 H   0  0  0  0  0  0  0  0  0  0  0  0
   57.0541   28.3548   52.0282 H   0  0  0  0  0  0  0  0  0  0  0  0
   57.2050   30.2230   52.9900 N   0  0  0  0  0  0  0  0  0  0  0  0
   55.8170   30.1570   53.3700 C   0  0  0  0  0  0  0  0  0  0  0  0
   55.4640   29.9870   54.7190 C   0  0  0  0  0  0  0  0  0  0  0  0
   56.2483   29.8543   55.4788 H   0  0  0  0  0  0  0  0  0  0  0  0
   54.1200   29.9860   55.0980 C   0  0  0  0  0  0  0  0  0  0  0  0
   53.8483   29.8559   56.1559 H   0  0  0  0  0  0  0  0  0  0  0  0
   53.1190   30.1500   54.1360 C   0  0  0  0  0  0  0  0  0  0  0  0
   52.0625   30.1619   54.4419 H   0  0  0  0  0  0  0  0  0  0  0  0
   53.4570   30.3000   52.7770 C   0  0  0  0  0  0  0  0  0  0  0  0
   52.4860   30.4320   51.7730 O   0  0  0  0  0  0  0  0  0  0  0  0
   52.3250   31.5940   50.9600 C   0  0  0  0  0  0  0  0  0  0  0  0
   52.2026   32.4777   51.6035 H   0  0  0  0  0  0  0  0  0  0  0  0
   53.2138   31.7232   50.3249 H   0  0  0  0  0  0  0  0  0  0  0  0
   51.4345   31.4767   50.3249 H   0  0  0  0  0  0  0  0  0  0  0  0
   54.8090   30.3110   52.4050 C   0  0  0  0  0  0  0  0  0  0  0  0
   55.0822   30.4415   51.3475 H   0  0  0  0  0  0  0  0  0  0  0  0
   57.9950   31.4320   53.2720 C   0  0  0  0  0  0  0  0  0  0  0  0
   58.1110   31.5394   54.3606 H   0  0  0  0  0  0  0  0  0  0  0  0
   57.4665   32.3004   52.8517 H   0  0  0  0  0  0  0  0  0  0  0  0
   59.3820   31.3480   52.6270 C   0  0  0  0  0  0  0  0  0  0  0  0
   60.0158   30.6619   53.2081 H   0  0  0  0  0  0  0  0  0  0  0  0
   59.8412   32.3474   52.6127 H   0  0  0  0  0  0  0  0  0  0  0  0
   58.6240   31.4530   47.8650 C   0  0  0  0  0  0  0  0  0  0  0  0
   57.8524   32.1745   48.1715 H   0  0  0  0  0  0  0  0  0  0  0  0
   58.5630   30.8650   46.5890 C   0  0  0  0  0  0  0  0  0  0  0  0
   57.3940   31.0500   45.7670 N   0  0  0  0  0  0  0  0  0  0  0  0
   56.7510   31.8590   45.9570 H   0  0  0  0  0  0  0  0  0  0  0  0
   56.9650   30.0120   44.8740 C   0  0  0  0  0  0  0  0  0  0  0  0
   55.8270   30.0740   44.3360 O   0  0  0  0  0  0  0  0  0  0  0  0
   57.4910   26.5920   45.4950 C   0  0  0  0  0  0  0  0  0  0  0  0
   58.6280   25.8030   45.7550 C   0  0  0  0  0  0  0  0  0  0  0  0
   59.5519   25.9718   45.1823 H   0  0  0  0  0  0  0  0  0  0  0  0
   58.5920   24.8070   46.7350 C   0  0  0  0  0  0  0  0  0  0  0  0
   59.4946   24.2150   46.9465 H   0  0  0  0  0  0  0  0  0  0  0  0
   57.4150   24.5590   47.4480 C   0  0  0  0  0  0  0  0  0  0  0  0
   57.4260   23.5330   48.4040 O   0  0  0  0  0  0  0  0  0  0  0  0
   56.3400   22.6420   48.6370 C   0  0  0  0  0  0  0  0  0  0  0  0
   56.1916   22.5202   49.7201 H   0  0  0  0  0  0  0  0  0  0  0  0
   55.4251   23.0531   48.1854 H   0  0  0  0  0  0  0  0  0  0  0  0
   56.5644   21.6644   48.1854 H   0  0  0  0  0  0  0  0  0  0  0  0
   56.2650   25.3320   47.1790 C   0  0  0  0  0  0  0  0  0  0  0  0
   55.3352   25.1425   47.7353 H   0  0  0  0  0  0  0  0  0  0  0  0
   56.3030   26.3390   46.2070 C   0  0  0  0  0  0  0  0  0  0  0  0
   55.1540   27.0910   45.9590 O   0  0  0  0  0  0  0  0  0  0  0  0
  1  2  1  0
  2  3  2  0
  3  4  1  0
  4  5  1  0
  5  6  2  0
  6  7  1  0
  6  8  1  0
  8  9  1  0
  8 10  2  0
 10 11  1  0
 11 12  2  0
 11 13  1  0
 13 14  1  0
 14 15  1  0
 14 16  1  0
 14 17  1  0
 17 18  1  0
 17 19  1  0
 17 20  1  0
 20 21  1  0
 21 22  2  0
 22 23  1  0
 22 24  1  0
 24 25  1  0
 24 26  2  0
 26 27  1  0
 26 28  1  0
 28 29  1  0
 29 30  1  0
 30 31  1  0
 30 32  1  0
 30 33  1  0
 28 34  2  0
 34 35  1  0
 20 36  1  0
 36 37  1  0
 36 38  1  0
 36 39  1  0
 39 40  1  0
 39 41  1  0
 10 42  1  0
 42 43  1  0
 42 44  2  0
 44 45  1  0
 45 46  1  0
 45 47  1  0
 47 48  2  0
  2 49  1  0
 49 50  2  0
 50 51  1  0
 50 52  1  0
 52 53  1  0
 52 54  2  0
 54 55  1  0
 55 56  1  0
 56 57  1  0
 56 58  1  0
 56 59  1  0
 54 60  1  0
 60 61  1  0
 60 62  2  0
 62 63  1  0
 47  3  1  0
 62 49  1  0
 44  5  1  0
 39 13  1  0
 34 21  1  0
M  CHG  1  63  -1
M  END
>  <UniqueID>  (58) 
52

>  <SMILES>  (58) 
COc1cccc(N2CCN(C(=O)c3ccc4c(c3)NC(=O)/C(=C\c3ccc(OC)cc3[O-])S4)CC2)c1

>  <Energy>  (58) 
96.57805224572817

>  <Genealogy>  (58) 
COc1cccc(N2CCN(C(=O)c3ccc4c(c3)NC(=O)C(=Cc3ccc(OC)cc3[O-])S4)CC2)c1 (protonated)
COc1cccc(N2CCN(C(=O)c3ccc4c(c3)NC(=O)/C(=C\c3ccc(OC)cc3[O-])S4)CC2)c1 (cis-trans isomerization)
COc1cccc(N2CCN(C(=O)c3ccc4c(c3)NC(=O)/C(=C\c3ccc(OC)cc3[O-])S4)CC2)c1 (3D coordinates assigned)
COc1cccc(N2CCN(C(=O)c3ccc4c(c3)NC(=O)/C(=C\c3ccc(OC)cc3[O-])S4)CC2)c1 (nonaromatic ring conformer: 96.57805224572817 kcal/mol)

>  <smiles>  (58) 
COc1cccc(N2CCN(C(=O)c3ccc4c(c3)NC(=O)C(=Cc3ccc(OC)cc3O)S4)CC2)c1

>  <score_type>  (58) 
oracle

>  <origin>  (58) 
adg

>  <m_score__min__energy>  (58) 
-13.029999999999999

>  <m_primary>  (58) 
energy

$$$$
58:0
     RDKit          3D

 44 46  0  0  1  0  0  0  0  0999 V2000
   60.6430   33.9050   46.0280 C   0  0  0  0  0  0  0  0  0  0  0  0
   61.6390   34.2130   47.0640 N   0  0  0  0  0  0  0  0  0  0  0  0
   62.9110   33.7510   46.5690 C   0  0  0  0  0  0  0  0  0  0  0  0
   63.3640   32.6060   47.4510 C   0  0  0  0  0  0  0  0  0  0  0  0
   62.0140   32.0910   47.9400 C   0  0  1  0  0  0  0  0  0  0  0  0
   62.2060   31.2110   49.1470 C   0  0  0  0  0  0  0  0  0  0  0  0
   57.6090   31.1740   46.2030 N   0  0  0  0  0  0  0  0  0  0  0  0
   58.5480   30.4930   46.7430 C   0  0  0  0  0  0  0  0  0  0  0  0
   60.5330   28.9360   47.8050 C   0  0  0  0  0  0  0  0  0  0  0  0
   59.8050   28.4910   46.7080 C   0  0  0  0  0  0  0  0  0  0  0  0
   60.1660   26.9250   46.0090 Cl  0  0  0  0  0  0  0  0  0  0  0  0
   58.8410   29.2970   46.2270 N   0  0  0  0  0  0  0  0  0  0  0  0
   60.2190   30.1850   48.3370 C   0  0  0  0  0  0  0  0  0  0  0  0
   60.9070   30.5690   49.3490 N   0  0  0  0  0  0  0  0  0  0  0  0
   57.6150   31.4530   44.8050 C   0  0  0  0  0  0  0  0  0  0  0  0
   58.2210   32.5680   44.2630 C   0  0  0  0  0  0  0  0  0  0  0  0
   58.1620   32.7340   42.8940 C   0  0  0  0  0  0  0  0  0  0  0  0
   57.5190   31.8210   42.0660 C   0  0  0  0  0  0  0  0  0  0  0  0
   56.9050   30.6960   42.6090 C   0  0  0  0  0  0  0  0  0  0  0  0
   56.9640   30.5290   43.9800 C   0  0  0  0  0  0  0  0  0  0  0  0
   56.3380   29.3750   44.5560 N   0  0  0  0  0  0  0  0  0  0  0  0
   55.1670   29.3870   44.9680 O   0  0  0  0  0  0  0  0  0  0  0  0
   57.0220   28.1830   44.6790 O   0  0  0  0  0  0  0  0  0  0  0  0
   59.2420   30.9460   47.8100 N   0  0  0  0  0  0  0  0  0  0  0  0
   61.3380   33.4030   48.2430 C   0  0  0  0  0  0  0  0  0  0  0  0
   59.6961   33.6122   46.5052 H   0  0  0  0  0  0  0  0  0  0  0  0
   60.4784   34.7942   45.4017 H   0  0  0  0  0  0  0  0  0  0  0  0
   61.0091   33.0781   45.4017 H   0  0  0  0  0  0  0  0  0  0  0  0
   62.8045   33.4038   45.5307 H   0  0  0  0  0  0  0  0  0  0  0  0
   63.6495   34.5660   46.5887 H   0  0  0  0  0  0  0  0  0  0  0  0
   63.9085   31.8411   46.8779 H   0  0  0  0  0  0  0  0  0  0  0  0
   64.0665   32.8884   48.2490 H   0  0  0  0  0  0  0  0  0  0  0  0
   61.4412   31.4570   47.2472 H   0  0  0  0  0  0  0  0  0  0  0  0
   62.9856   30.4582   48.9582 H   0  0  0  0  0  0  0  0  0  0  0  0
   62.5304   31.7809   50.0302 H   0  0  0  0  0  0  0  0  0  0  0  0
   61.3337   28.3202   48.2406 H   0  0  0  0  0  0  0  0  0  0  0  0
   58.3070   28.9510   45.4080 H   0  0  0  0  0  0  0  0  0  0  0  0
   58.7349   33.3014   44.9018 H   0  0  0  0  0  0  0  0  0  0  0  0
   58.6390   33.6170   42.4437 H   0  0  0  0  0  0  0  0  0  0  0  0
   57.4954   31.9880   40.9790 H   0  0  0  0  0  0  0  0  0  0  0  0
   56.3902   29.9645   41.9688 H   0  0  0  0  0  0  0  0  0  0  0  0
   59.0100   31.8810   48.2120 H   0  0  0  0  0  0  0  0  0  0  0  0
   60.2528   33.2692   48.3633 H   0  0  0  0  0  0  0  0  0  0  0  0
   61.6847   33.8607   49.1812 H   0  0  0  0  0  0  0  0  0  0  0  0
  1  2  1  0
  2  3  1  0
  3  4  1  0
  4  5  1  0
  5  6  1  0
  6  7  1  0
  7  8  2  0
  8  9  1  0
  9 10  2  0
 10 11  1  0
 10 12  1  0
 12 13  1  0
 13 14  2  0
 14 15  1  0
 15 16  2  0
 16 17  1  0
 17 18  2  0
 18 19  1  0
 19 20  2  0
 20 21  1  0
 21 22  2  0
 21 23  1  0
 13 24  1  0
  5 25  1  0
 25  2  1  0
 24  8  1  0
 20 15  1  0
  1 26  1  0
  1 27  1  0
  1 28  1  0
  3 29  1  0
  3 30  1  0
  4 31  1  0
  4 32  1  0
  5 33  1  6
  6 34  1  0
  6 35  1  0
  9 36  1  0
 12 37  1  0
 16 38  1  0
 17 39  1  0
 18 40  1  0
 19 41  1  0
 24 42  1  0
 25 43  1  0
 25 44  1  0
M  CHG  2  21   1  23  -1
M  END
>  <smiles>  (59) 
CN1CCC(CN=c2cc(Cl)[nH]c(=Nc3ccccc3[N+](=O)[O-])[nH]2)C1

>  <score_type>  (59) 
oracle

>  <origin>  (59) 
adg

>  <m_score__min__energy>  (59) 
-8.4199999999999999

>  <m_primary>  (59) 
energy

$$$$
59:0
     RDKit          3D

 37 39  0  0  0  0  0  0  0  0999 V2000
   64.9790   32.6730   49.7640 C   0  0  0  0  0  0  0  0  0  0  0  0
   64.0050   33.7100   49.7750 O   0  0  0  0  0  0  0  0  0  0  0  0
   62.8290   33.6980   49.0090 C   0  0  0  0  0  0  0  0  0  0  0  0
   61.5610   33.9420   49.5700 C   0  0  0  0  0  0  0  0  0  0  0  0
   60.4230   33.9570   48.7580 C   0  0  0  0  0  0  0  0  0  0  0  0
   60.5360   33.7460   47.3750 C   0  0  0  0  0  0  0  0  0  0  0  0
   59.3200   33.8490   46.4880 C   0  0  0  0  0  0  0  0  0  0  0  0
   59.5660   33.2670   45.1660 N   0  0  0  0  0  0  0  0  0  0  0  0
   58.0830   33.0150   44.2860 S   0  0  0  0  0  0  0  0  0  0  0  0
   57.1100   34.1250   44.5760 O   0  0  0  0  0  0  0  0  0  0  0  0
   58.3800   33.0110   42.8120 O   0  0  0  0  0  0  0  0  0  0  0  0
   57.3950   31.4540   44.7270 C   0  0  0  0  0  0  0  0  0  0  0  0
   56.2440   31.0000   44.0710 C   0  0  0  0  0  0  0  0  0  0  0  0
   55.7380   29.7250   44.3310 C   0  0  0  0  0  0  0  0  0  0  0  0
   56.3830   28.8880   45.2470 C   0  0  0  0  0  0  0  0  0  0  0  0
   55.9110   27.6350   45.4740 N   0  0  0  0  0  0  0  0  0  0  0  0
   56.5340   26.8000   46.3450 C   0  0  0  0  0  0  0  0  0  0  0  0
   56.0810   25.6420   46.5390 O   0  0  0  0  0  0  0  0  0  0  0  0
   57.6470   27.2120   47.0060 N   0  0  0  0  0  0  0  0  0  0  0  0
   58.1620   28.4550   46.8190 C   0  0  0  0  0  0  0  0  0  0  0  0
   59.1980   28.7960   47.4490 O   0  0  0  0  0  0  0  0  0  0  0  0
   57.5350   29.3390   45.9240 C   0  0  0  0  0  0  0  0  0  0  0  0
   58.0310   30.6300   45.6690 C   0  0  0  0  0  0  0  0  0  0  0  0
   61.7960   33.4650   46.8240 C   0  0  0  0  0  0  0  0  0  0  0  0
   62.9310   33.4420   47.6380 C   0  0  0  0  0  0  0  0  0  0  0  0
   65.2355   32.3999   50.7982 H   0  0  0  0  0  0  0  0  0  0  0  0
   64.5726   31.7938   49.2426 H   0  0  0  0  0  0  0  0  0  0  0  0
   65.8819   33.0236   49.2426 H   0  0  0  0  0  0  0  0  0  0  0  0
   61.4653   34.1215   50.6510 H   0  0  0  0  0  0  0  0  0  0  0  0
   59.4340   34.1351   49.2053 H   0  0  0  0  0  0  0  0  0  0  0  0
   58.4848   33.3141   46.9637 H   0  0  0  0  0  0  0  0  0  0  0  0
   59.0798   34.9143   46.3557 H   0  0  0  0  0  0  0  0  0  0  0  0
   55.7352   31.6523   43.3460 H   0  0  0  0  0  0  0  0  0  0  0  0
   54.8307   29.3783   43.8146 H   0  0  0  0  0  0  0  0  0  0  0  0
   58.9179   30.9944   46.2080 H   0  0  0  0  0  0  0  0  0  0  0  0
   61.8901   33.2621   45.7470 H   0  0  0  0  0  0  0  0  0  0  0  0
   63.9139   33.2205   47.1966 H   0  0  0  0  0  0  0  0  0  0  0  0
  1  2  1  0
  2  3  1  0
  3  4  2  0
  4  5  1  0
  5  6  2  0
  6  7  1  0
  7  8  1  0
  8  9  1  0
  9 10  2  0
  9 11  2  0
  9 12  1  0
 12 13  2  0
 13 14  1  0
 14 15  2  0
 15 16  1  0
 16 17  1  0
 17 18  2  0
 17 19  1  0
 19 20  1  0
 20 21  2  0
 20 22  1  0
 22 23  2  0
  6 24  1  0
 24 25  2  0
 25  3  1  0
 23 12  1  0
 22 15  1  0
  1 26  1  0
  1 27  1  0
  1 28  1  0
  4 29  1  0
  5 30  1  0
  7 31  1  0
  7 32  1  0
 13 33  1  0
 14 34  1  0
 23 35  1  0
 24 36  1  0
 25 37  1  0
M  CHG  3   8  -1  16  -1  19  -1
M  END
>  <UniqueID>  (60) 
53

>  <SMILES>  (60) 
COc1ccc(C[N-]S(=O)(=O)c2ccc3[n-]c(=O)[n-]c(=O)c3c2)cc1

>  <Energy>  (60) 
37.900175490853364

>  <Genealogy>  (60) 
COc1ccc(C[N-]S(=O)(=O)c2ccc3[n-]c(=O)[n-]c(=O)c3c2)cc1 (protonated)
COc1ccc(C[N-]S(=O)(=O)c2ccc3[n-]c(=O)[n-]c(=O)c3c2)cc1 (3D coordinates assigned)
COc1ccc(C[N-]S(=O)(=O)c2ccc3[n-]c(=O)[n-]c(=O)c3c2)cc1 (optimized conformer: 37.900175490853364 kcal/mol)

>  <smiles>  (60) 
COc1ccc(CNS(=O)(=O)c2ccc3[nH]c(=O)[nH]c(=O)c3c2)cc1

>  <score_type>  (60) 
oracle

>  <origin>  (60) 
adg

>  <m_score__min__energy>  (60) 
-12.93

>  <m_primary>  (60) 
energy

$$$$
60:0
     RDKit          3D

 51 53  0  0  0  0  0  0  0  0999 V2000
   55.1410   29.3130   44.8040 N   0  0  0  0  0  0  0  0  0  0  0  0
   56.7630   29.8130   44.4860 S   0  0  0  0  0  0  0  0  0  0  0  0
   56.8300   31.3150   44.4550 O   0  0  0  0  0  0  0  0  0  0  0  0
   57.1930   29.2860   43.1460 O   0  0  0  0  0  0  0  0  0  0  0  0
   57.8270   29.1990   45.7460 C   0  0  0  0  0  0  0  0  0  0  0  0
   58.3940   27.9240   45.6190 C   0  0  0  0  0  0  0  0  0  0  0  0
   59.2370   27.4300   46.6160 C   0  0  0  0  0  0  0  0  0  0  0  0
   59.5250   28.2070   47.7410 C   0  0  0  0  0  0  0  0  0  0  0  0
   58.9780   29.4950   47.8780 C   0  0  0  0  0  0  0  0  0  0  0  0
   59.2830   30.3030   49.0840 C   0  0  0  0  0  0  0  0  0  0  0  0
   58.3900   30.4600   49.9620 O   0  0  0  0  0  0  0  0  0  0  0  0
   60.5760   30.8980   49.2760 N   0  0  0  0  0  0  0  0  0  0  0  0
   60.8280   31.8160   50.3870 C   0  0  0  0  0  0  0  0  0  0  0  0
   62.2250   32.3770   50.3230 C   0  0  0  0  0  0  0  0  0  0  0  0
   62.4900   33.4300   50.9610 O   0  0  0  0  0  0  0  0  0  0  0  0
   63.2860   31.7160   49.6210 N   0  0  0  0  0  0  0  0  0  0  0  0
   63.7500   32.0330   48.2700 C   0  0  2  0  0  0  0  0  0  0  0  0
   64.2080   33.4840   48.1690 C   0  0  0  0  0  0  0  0  0  0  0  0
   63.3530   34.1020   47.0750 C   0  0  0  0  0  0  0  0  0  0  0  0
   62.1560   33.2650   46.9110 N   0  0  0  0  0  0  0  0  0  0  0  0
   61.0500   33.7230   47.7800 C   0  0  0  0  0  0  0  0  0  0  0  0
   59.7690   33.8300   46.9920 C   0  0  0  0  0  0  0  0  0  0  0  0
   59.7720   34.4430   45.7280 C   0  0  0  0  0  0  0  0  0  0  0  0
   58.5830   34.5570   44.9990 C   0  0  0  0  0  0  0  0  0  0  0  0
   57.3870   34.0640   45.5270 C   0  0  0  0  0  0  0  0  0  0  0  0
   57.3780   33.4530   46.7840 C   0  0  0  0  0  0  0  0  0  0  0  0
   58.5630   33.3360   47.5160 C   0  0  0  0  0  0  0  0  0  0  0  0
   62.5930   31.9110   47.2800 C   0  0  0  0  0  0  0  0  0  0  0  0
   58.1230   29.9820   46.8710 C   0  0  0  0  0  0  0  0  0  0  0  0
   55.1750   28.6800   45.6350 H   0  0  0  0  0  0  0  0  0  0  0  0
   58.1745   27.3113   44.7322 H   0  0  0  0  0  0  0  0  0  0  0  0
   59.6757   26.4263   46.5157 H   0  0  0  0  0  0  0  0  0  0  0  0
   60.1848   27.8080   48.5255 H   0  0  0  0  0  0  0  0  0  0  0  0
   61.3760   30.5860   48.6800 H   0  0  0  0  0  0  0  0  0  0  0  0
   60.1059   32.6444   50.3390 H   0  0  0  0  0  0  0  0  0  0  0  0
   60.7182   31.2605   51.3301 H   0  0  0  0  0  0  0  0  0  0  0  0
   64.5725   31.3371   48.0479 H   0  0  0  0  0  0  0  0  0  0  0  0
   64.0472   34.0057   49.1240 H   0  0  0  0  0  0  0  0  0  0  0  0
   65.2814   33.5592   47.9407 H   0  0  0  0  0  0  0  0  0  0  0  0
   63.0592   35.1225   47.3617 H   0  0  0  0  0  0  0  0  0  0  0  0
   63.9164   34.1545   46.1317 H   0  0  0  0  0  0  0  0  0  0  0  0
   60.9116   33.0027   48.5998 H   0  0  0  0  0  0  0  0  0  0  0  0
   61.3026   34.7142   48.1847 H   0  0  0  0  0  0  0  0  0  0  0  0
   60.7113   34.8344   45.3103 H   0  0  0  0  0  0  0  0  0  0  0  0
   58.5899   35.0356   44.0086 H   0  0  0  0  0  0  0  0  0  0  0  0
   56.4529   34.1567   44.9536 H   0  0  0  0  0  0  0  0  0  0  0  0
   56.4364   33.0634   47.1981 H   0  0  0  0  0  0  0  0  0  0  0  0
   58.5511   32.8556   48.5055 H   0  0  0  0  0  0  0  0  0  0  0  0
   61.7597   31.3657   47.7472 H   0  0  0  0  0  0  0  0  0  0  0  0
   62.9171   31.3604   46.3846 H   0  0  0  0  0  0  0  0  0  0  0  0
   57.6833   30.9856   46.9676 H   0  0  0  0  0  0  0  0  0  0  0  0
  1  2  1  0
  2  3  2  0
  2  4  2  0
  2  5  1  0
  5  6  2  0
  6  7  1  0
  7  8  2  0
  8  9  1  0
  9 10  1  0
 10 11  2  0
 10 12  1  0
 12 13  1  0
 13 14  1  0
 14 15  2  0
 14 16  1  0
 16 17  1  0
 17 18  1  0
 18 19  1  0
 19 20  1  0
 20 21  1  0
 21 22  1  0
 22 23  2  0
 23 24  1  0
 24 25  2  0
 25 26  1  0
 26 27  2  0
 20 28  1  0
  9 29  2  0
 29  5  1  0
 28 17  1  0
 27 22  1  0
  1 30  1  0
  6 31  1  0
  7 32  1  0
  8 33  1  0
 12 34  1  0
 13 35  1  0
 13 36  1  0
 17 37  1  6
 18 38  1  0
 18 39  1  0
 19 40  1  0
 19 41  1  0
 21 42  1  0
 21 43  1  0
 23 44  1  0
 24 45  1  0
 25 46  1  0
 26 47  1  0
 27 48  1  0
 28 49  1  0
 28 50  1  0
 29 51  1  0
M  CHG  2   1  -1  16  -1
M  END
>  <UniqueID>  (61) 
54

>  <SMILES>  (61) 
[NH-]S(=O)(=O)c1cccc(C(=O)NCC(=O)[N-][C@@H]2CCN(Cc3ccccc3)C2)c1

>  <Energy>  (61) 
55.32260583432319

>  <Genealogy>  (61) 
[NH-]S(=O)(=O)c1cccc(C(=O)NCC(=O)[N-]C2CCN(Cc3ccccc3)C2)c1 (protonated)
[NH-]S(=O)(=O)c1cccc(C(=O)NCC(=O)[N-][C@@H]2CCN(Cc3ccccc3)C2)c1 (chirality)
[NH-]S(=O)(=O)c1cccc(C(=O)NCC(=O)[N-][C@@H]2CCN(Cc3ccccc3)C2)c1 (3D coordinates assigned)
[NH-]S(=O)(=O)c1cccc(C(=O)NCC(=O)[N-][C@@H]2CCN(Cc3ccccc3)C2)c1 (nonaromatic ring conformer: 55.32260583432319 kcal/mol)

>  <smiles>  (61) 
NS(=O)(=O)c1cccc(C(=O)NCC(=O)NC2CCN(Cc3ccccc3)C2)c1

>  <score_type>  (61) 
oracle

>  <origin>  (61) 
adg

>  <m_score__min__energy>  (61) 
-12.58

>  <m_primary>  (61) 
energy

$$$$
61:0
     RDKit          3D

 28 30  0  0  0  0  0  0  0  0999 V2000
   60.3380   25.6100   45.9100 O   0  0  0  0  0  0  0  0  0  0  0  0
   59.2280   26.2060   45.8630 C   0  0  0  0  0  0  0  0  0  0  0  0
   59.2090   27.5870   45.6760 C   0  0  0  0  0  0  0  0  0  0  0  0
   57.9780   28.2590   45.6230 C   0  0  0  0  0  0  0  0  0  0  0  0
   57.9030   29.7230   45.4170 C   0  0  0  0  0  0  0  0  0  0  0  0
   59.0200   30.5120   45.7400 C   0  0  0  0  0  0  0  0  0  0  0  0
   58.9900   31.8990   45.5640 C   0  0  0  0  0  0  0  0  0  0  0  0
   60.1070   32.6600   45.9030 O   0  0  0  0  0  0  0  0  0  0  0  0
   57.8410   32.5100   45.0490 C   0  0  0  0  0  0  0  0  0  0  0  0
   56.7320   31.7360   44.7020 C   0  0  0  0  0  0  0  0  0  0  0  0
   56.7590   30.3470   44.8720 C   0  0  0  0  0  0  0  0  0  0  0  0
   55.6570   29.6000   44.4690 O   0  0  0  0  0  0  0  0  0  0  0  0
   56.8460   27.5690   45.7320 O   0  0  0  0  0  0  0  0  0  0  0  0
   56.8110   26.2510   45.9120 C   0  0  0  0  0  0  0  0  0  0  0  0
   55.5720   25.6060   46.0240 C   0  0  0  0  0  0  0  0  0  0  0  0
   54.3950   26.3410   45.9450 O   0  0  0  0  0  0  0  0  0  0  0  0
   55.5180   24.2210   46.2150 C   0  0  0  0  0  0  0  0  0  0  0  0
   54.2890   23.5800   46.3260 O   0  0  0  0  0  0  0  0  0  0  0  0
   56.6970   23.4770   46.2940 C   0  0  0  0  0  0  0  0  0  0  0  0
   57.9420   24.1050   46.1840 C   0  0  0  0  0  0  0  0  0  0  0  0
   59.0920   23.3270   46.2680 O   0  0  0  0  0  0  0  0  0  0  0  0
   58.0120   25.5040   45.9900 C   0  0  0  0  0  0  0  0  0  0  0  0
   60.1508   28.1455   45.5708 H   0  0  0  0  0  0  0  0  0  0  0  0
   59.9280   30.0334   46.1356 H   0  0  0  0  0  0  0  0  0  0  0  0
   60.4040   32.7640   46.8670 H   0  0  0  0  0  0  0  0  0  0  0  0
   57.8116   33.6017   44.9174 H   0  0  0  0  0  0  0  0  0  0  0  0
   55.8329   32.2201   44.2931 H   0  0  0  0  0  0  0  0  0  0  0  0
   56.6463   22.3884   46.4439 H   0  0  0  0  0  0  0  0  0  0  0  0
  1  2  2  0
  2  3  1  0
  3  4  2  0
  4  5  1  0
  5  6  2  0
  6  7  1  0
  7  8  1  0
  7  9  2  0
  9 10  1  0
 10 11  2  0
 11 12  1  0
  4 13  1  0
 13 14  1  0
 14 15  2  0
 15 16  1  0
 15 17  1  0
 17 18  1  0
 17 19  2  0
 19 20  1  0
 20 21  1  0
 20 22  2  0
 22  2  1  0
 11  5  1  0
 22 14  1  0
  3 23  1  0
  6 24  1  0
  8 25  1  0
  9 26  1  0
 10 27  1  0
 19 28  1  0
M  CHG  4  12  -1  16  -1  18  -1  21  -1
M  END
>  <UniqueID>  (62) 
55

>  <SMILES>  (62) 
O=c1cc(-c2cc(O)ccc2[O-])oc2c([O-])c([O-])cc([O-])c12

>  <Energy>  (62) 
43.88014850667403

>  <Genealogy>  (62) 
O=c1cc(-c2cc(O)ccc2[O-])oc2c([O-])c([O-])cc([O-])c12 (protonated)
O=c1cc(-c2cc(O)ccc2[O-])oc2c([O-])c([O-])cc([O-])c12 (3D coordinates assigned)
O=c1cc(-c2cc(O)ccc2[O-])oc2c([O-])c([O-])cc([O-])c12 (optimized conformer: 43.88014850667403 kcal/mol)

>  <smiles>  (62) 
O=c1cc(-c2cc(O)ccc2O)oc2c(O)c(O)cc(O)c12

>  <score_type>  (62) 
oracle

>  <origin>  (62) 
adg

>  <m_score__min__energy>  (62) 
-14.91

>  <m_primary>  (62) 
energy

$$$$
62:0
     RDKit          3D

 70 73  0  0  0  0  0  0  0  0999 V2000
   55.9267   33.2957   45.2778 H   0  0  0  0  0  0  0  0  0  0  0  0
   56.7700   32.5900   45.2480 C   0  0  0  0  0  0  0  0  0  0  0  0
   56.6300   31.3990   44.6280 N   0  0  0  0  0  0  0  0  0  0  0  0
   57.6330   30.4870   44.5820 C   0  0  0  0  0  0  0  0  0  0  0  0
   57.3980   29.2780   43.9170 C   0  0  0  0  0  0  0  0  0  0  0  0
   56.4236   29.0967   43.4399 H   0  0  0  0  0  0  0  0  0  0  0  0
   58.3890   28.3050   43.8560 C   0  0  0  0  0  0  0  0  0  0  0  0
   58.1100   26.8220   42.9670 Cl  0  0  0  0  0  0  0  0  0  0  0  0
   59.6080   28.5190   44.4940 C   0  0  0  0  0  0  0  0  0  0  0  0
   60.3823   27.7381   44.4658 H   0  0  0  0  0  0  0  0  0  0  0  0
   59.8570   29.7170   45.1700 C   0  0  0  0  0  0  0  0  0  0  0  0
   60.8182   29.8557   45.6866 H   0  0  0  0  0  0  0  0  0  0  0  0
   58.8930   30.7570   45.2020 C   0  0  0  0  0  0  0  0  0  0  0  0
   59.0640   32.0430   45.8320 C   0  0  0  0  0  0  0  0  0  0  0  0
   60.1600   32.5050   46.3850 N   0  0  0  0  0  0  0  0  0  0  0  0
   60.8050   33.8110   46.3520 C   0  0  0  0  0  0  0  0  0  0  0  0
   60.5380   34.3242   45.4164 H   0  0  0  0  0  0  0  0  0  0  0  0
   61.8949   33.6736   46.4083 H   0  0  0  0  0  0  0  0  0  0  0  0
   60.3470   34.6600   47.5430 C   0  0  0  0  0  0  0  0  0  0  0  0
   59.2566   34.5569   47.6454 H   0  0  0  0  0  0  0  0  0  0  0  0
   60.6500   35.6972   47.3370 H   0  0  0  0  0  0  0  0  0  0  0  0
   61.0030   34.2520   48.8760 C   0  0  0  0  0  0  0  0  0  0  0  0
   60.8785   35.0699   49.6009 H   0  0  0  0  0  0  0  0  0  0  0  0
   62.0687   34.0530   48.6900 H   0  0  0  0  0  0  0  0  0  0  0  0
   60.3860   33.0150   49.4310 N   0  0  0  0  0  0  0  0  0  0  0  0
   61.4160   32.1340   50.0310 C   0  0  0  0  0  0  0  0  0  0  0  0
   62.4106   32.5714   49.8592 H   0  0  0  0  0  0  0  0  0  0  0  0
   61.2214   32.0442   51.1099 H   0  0  0  0  0  0  0  0  0  0  0  0
   61.3650   30.7660   49.4140 C   0  0  0  0  0  0  0  0  0  0  0  0
   62.2470   29.9300   49.7360 O   0  0  0  0  0  0  0  0  0  0  0  0
   60.3350   30.4400   48.4610 N   0  0  0  0  0  0  0  0  0  0  0  0
   59.7950   31.2490   48.0790 H   0  0  0  0  0  0  0  0  0  0  0  0
   59.8450   29.1210   48.1350 C   0  0  0  0  0  0  0  0  0  0  0  0
   60.7390   28.0380   48.2070 C   0  0  0  0  0  0  0  0  0  0  0  0
   61.7839   28.2163   48.5010 H   0  0  0  0  0  0  0  0  0  0  0  0
   60.3200   26.7410   47.9110 C   0  0  0  0  0  0  0  0  0  0  0  0
   61.0404   25.9109   47.9565 H   0  0  0  0  0  0  0  0  0  0  0  0
   58.9920   26.4880   47.5570 C   0  0  0  0  0  0  0  0  0  0  0  0
   58.6220   25.1630   47.2690 O   0  0  0  0  0  0  0  0  0  0  0  0
   57.7470   24.7540   46.2510 C   0  0  0  0  0  0  0  0  0  0  0  0
   58.1810   24.0040   45.1400 C   0  0  0  0  0  0  0  0  0  0  0  0
   59.2402   23.7212   45.0496 H   0  0  0  0  0  0  0  0  0  0  0  0
   57.2700   23.6180   44.1520 C   0  0  0  0  0  0  0  0  0  0  0  0
   57.6120   23.0226   43.2926 H   0  0  0  0  0  0  0  0  0  0  0  0
   55.9260   23.9870   44.2540 C   0  0  0  0  0  0  0  0  0  0  0  0
   55.2080   23.6691   43.4837 H   0  0  0  0  0  0  0  0  0  0  0  0
   55.4950   24.7600   45.3350 C   0  0  0  0  0  0  0  0  0  0  0  0
   54.4399   25.0619   45.4091 H   0  0  0  0  0  0  0  0  0  0  0  0
   56.4050   25.1500   46.3230 C   0  0  0  0  0  0  0  0  0  0  0  0
   56.0643   25.7727   47.1634 H   0  0  0  0  0  0  0  0  0  0  0  0
   58.0910   27.5640   47.4690 C   0  0  0  0  0  0  0  0  0  0  0  0
   57.0521   27.3815   47.1569 H   0  0  0  0  0  0  0  0  0  0  0  0
   58.5050   28.8640   47.7750 C   0  0  0  0  0  0  0  0  0  0  0  0
   57.7815   29.6916   47.7349 H   0  0  0  0  0  0  0  0  0  0  0  0
   59.3600   33.3340   50.4550 C   0  0  0  0  0  0  0  0  0  0  0  0
   58.8533   34.2682   50.1711 H   0  0  0  0  0  0  0  0  0  0  0  0
   59.8685   33.4360   51.4251 H   0  0  0  0  0  0  0  0  0  0  0  0
   58.3300   32.2410   50.5820 C   0  0  0  0  0  0  0  0  0  0  0  0
   58.1540   31.4760   49.5940 O   0  0  0  0  0  0  0  0  0  0  0  0
   57.5620   32.0320   51.7920 N   0  0  0  0  0  0  0  0  0  0  0  0
   56.5410   30.9800   51.8120 C   0  0  0  0  0  0  0  0  0  0  0  0
   56.2955   30.7271   52.8540 H   0  0  0  0  0  0  0  0  0  0  0  0
   55.6362   31.3373   51.2985 H   0  0  0  0  0  0  0  0  0  0  0  0
   56.9252   30.0863   51.2985 H   0  0  0  0  0  0  0  0  0  0  0  0
   57.8390   32.7470   53.0420 C   0  0  0  0  0  0  0  0  0  0  0  0
   57.5889   32.1015   53.8968 H   0  0  0  0  0  0  0  0  0  0  0  0
   58.9054   33.0135   53.0834 H   0  0  0  0  0  0  0  0  0  0  0  0
   57.2304   33.6624   53.0834 H   0  0  0  0  0  0  0  0  0  0  0  0
   57.9760   32.9260   45.8480 C   0  0  0  0  0  0  0  0  0  0  0  0
   58.0793   33.9021   46.3445 H   0  0  0  0  0  0  0  0  0  0  0  0
  1  2  1  0
  2  3  1  0
  3  4  1  0
  4  5  2  0
  5  6  1  0
  5  7  1  0
  7  8  1  0
  7  9  2  0
  9 10  1  0
  9 11  1  0
 11 12  1  0
 11 13  2  0
 13 14  1  0
 14 15  2  0
 15 16  1  0
 16 17  1  0
 16 18  1  0
 16 19  1  0
 19 20  1  0
 19 21  1  0
 19 22  1  0
 22 23  1  0
 22 24  1  0
 22 25  1  0
 25 26  1  0
 26 27  1  0
 26 28  1  0
 26 29  1  0
 29 30  2  0
 29 31  1  0
 31 32  1  0
 31 33  1  0
 33 34  2  0
 34 35  1  0
 34 36  1  0
 36 37  1  0
 36 38  2  0
 38 39  1  0
 39 40  1  0
 40 41  2  0
 41 42  1  0
 41 43  1  0
 43 44  1  0
 43 45  2  0
 45 46  1  0
 45 47  1  0
 47 48  1  0
 47 49  2  0
 49 50  1  0
 38 51  1  0
 51 52  1  0
 51 53  2  0
 53 54  1  0
 25 55  1  0
 55 56  1  0
 55 57  1  0
 55 58  1  0
 58 59  2  0
 58 60  1  0
 60 61  1  0
 61 62  1  0
 61 63  1  0
 61 64  1  0
 60 65  1  0
 65 66  1  0
 65 67  1  0
 65 68  1  0
 14 69  1  0
 69 70  1  0
 69  2  2  0
 13  4  1  0
 53 33  1  0
 49 40  1  0
M  CHG  1   3  -1
M  END
>  <UniqueID>  (63) 
56

>  <SMILES>  (63) 
CN(C)C(=O)CN(CCC/N=c1/cc[n-]c2cc(Cl)ccc12)CC(=O)Nc1ccc(Oc2ccccc2)cc1

>  <Energy>  (63) 
92.09624531923889

>  <Genealogy>  (63) 
CN(C)C(=O)CN(CCCN=c1cc[n-]c2cc(Cl)ccc12)CC(=O)Nc1ccc(Oc2ccccc2)cc1 (protonated)
CN(C)C(=O)CN(CCC/N=c1/cc[n-]c2cc(Cl)ccc12)CC(=O)Nc1ccc(Oc2ccccc2)cc1 (cis-trans isomerization)
CN(C)C(=O)CN(CCC/N=c1/cc[n-]c2cc(Cl)ccc12)CC(=O)Nc1ccc(Oc2ccccc2)cc1 (3D coordinates assigned)
CN(C)C(=O)CN(CCC/N=c1/cc[n-]c2cc(Cl)ccc12)CC(=O)Nc1ccc(Oc2ccccc2)cc1 (optimized conformer: 92.09624531923889 kcal/mol)

>  <smiles>  (63) 
CN(C)C(=O)CN(CCCN=c1cc[nH]c2cc(Cl)ccc12)CC(=O)Nc1ccc(Oc2ccccc2)cc1

>  <score_type>  (63) 
oracle

>  <origin>  (63) 
adg

>  <m_score__min__energy>  (63) 
-10.16

>  <m_primary>  (63) 
energy

$$$$
63:0
     RDKit          3D

 34 36  0  0  0  0  0  0  0  0999 V2000
   63.7840   31.6070   50.4120 C   0  0  0  0  0  0  0  0  0  0  0  0
   62.8240   31.4590   49.3260 N   0  0  0  0  0  0  0  0  0  0  0  0
   62.9240   31.9710   48.0830 C   0  0  0  0  0  0  0  0  0  0  0  0
   61.8950   31.5870   47.3020 N   0  0  0  0  0  0  0  0  0  0  0  0
   61.1400   30.7930   48.0850 C   0  0  0  0  0  0  0  0  0  0  0  0
   59.6320   30.0480   47.5910 S   0  0  0  0  0  0  0  0  0  0  0  0
   58.5380   30.4710   48.5310 O   0  0  0  0  0  0  0  0  0  0  0  0
   59.7560   28.5510   47.6400 O   0  0  0  0  0  0  0  0  0  0  0  0
   59.2620   30.5450   45.9700 N   0  0  0  0  0  0  0  0  0  0  0  0
   59.4400   29.5920   44.8690 C   0  0  0  0  0  0  0  0  0  0  0  0
   58.1650   29.4080   44.0330 C   0  0  0  0  0  0  0  0  0  0  0  0
   56.9390   29.8680   44.7680 C   0  0  0  0  0  0  0  0  0  0  0  0
   56.1600   29.0250   45.2860 O   0  0  0  0  0  0  0  0  0  0  0  0
   56.6630   31.2650   44.9140 N   0  0  0  0  0  0  0  0  0  0  0  0
   57.6690   32.2560   45.1750 C   0  0  0  0  0  0  0  0  0  0  0  0
   57.4280   33.5850   44.8170 C   0  0  0  0  0  0  0  0  0  0  0  0
   58.4040   34.5580   45.0440 C   0  0  0  0  0  0  0  0  0  0  0  0
   59.6240   34.1840   45.6110 C   0  0  0  0  0  0  0  0  0  0  0  0
   59.8580   32.8820   45.9250 N   0  0  0  0  0  0  0  0  0  0  0  0
   58.9190   31.9160   45.7320 C   0  0  0  0  0  0  0  0  0  0  0  0
   61.7100   30.7030   49.3350 C   0  0  0  0  0  0  0  0  0  0  0  0
   63.2616   31.5265   51.3767 H   0  0  0  0  0  0  0  0  0  0  0  0
   64.5444   30.8155   50.3396 H   0  0  0  0  0  0  0  0  0  0  0  0
   64.2707   32.5908   50.3396 H   0  0  0  0  0  0  0  0  0  0  0  0
   63.7446   32.6222   47.7474 H   0  0  0  0  0  0  0  0  0  0  0  0
   61.7220   31.8530   46.3070 H   0  0  0  0  0  0  0  0  0  0  0  0
   60.2419   29.9593   44.2117 H   0  0  0  0  0  0  0  0  0  0  0  0
   59.6913   28.6166   45.3110 H   0  0  0  0  0  0  0  0  0  0  0  0
   58.2619   29.9902   43.1047 H   0  0  0  0  0  0  0  0  0  0  0  0
   58.0506   28.3350   43.8196 H   0  0  0  0  0  0  0  0  0  0  0  0
   56.4692   33.8650   44.3562 H   0  0  0  0  0  0  0  0  0  0  0  0
   58.2135   35.6084   44.7788 H   0  0  0  0  0  0  0  0  0  0  0  0
   60.3963   34.9432   45.8038 H   0  0  0  0  0  0  0  0  0  0  0  0
   61.3257   30.1203   50.1852 H   0  0  0  0  0  0  0  0  0  0  0  0
  1  2  1  0
  2  3  1  0
  3  4  2  0
  4  5  1  0
  5  6  1  0
  6  7  2  0
  6  8  2  0
  6  9  1  0
  9 10  1  0
 10 11  1  0
 11 12  1  0
 12 13  2  0
 12 14  1  0
 14 15  1  0
 15 16  2  0
 16 17  1  0
 17 18  2  0
 18 19  1  0
 19 20  2  0
  5 21  2  0
 21  2  1  0
 20  9  1  0
 20 15  1  0
  1 22  1  0
  1 23  1  0
  1 24  1  0
  3 25  1  0
  4 26  1  0
 10 27  1  0
 10 28  1  0
 11 29  1  0
 11 30  1  0
 16 31  1  0
 17 32  1  0
 18 33  1  0
 21 34  1  0
M  CHG  2   4   1  14  -1
M  END
>  <UniqueID>  (64) 
57

>  <SMILES>  (64) 
Cn1c[nH+]c(S(=O)(=O)N2CCC(=O)[N-]c3cccnc32)c1

>  <Energy>  (64) 
76.64573045855346

>  <Genealogy>  (64) 
Cn1c[nH+]c(S(=O)(=O)N2CCC(=O)[N-]c3cccnc32)c1 (protonated)
Cn1c[nH+]c(S(=O)(=O)N2CCC(=O)[N-]c3cccnc32)c1 (3D coordinates assigned)
Cn1c[nH+]c(S(=O)(=O)N2CCC(=O)[N-]c3cccnc32)c1 (nonaromatic ring conformer: 76.64573045855346 kcal/mol)

>  <smiles>  (64) 
Cn1cnc(S(=O)(=O)N2CCC(=O)Nc3cccnc32)c1

>  <score_type>  (64) 
oracle

>  <origin>  (64) 
adg

>  <m_score__min__energy>  (64) 
-5.1500000000000004

>  <m_primary>  (64) 
energy

$$$$
64:0
     RDKit          3D

 42 44  0  0  1  0  0  0  0  0999 V2000
   59.2840   33.2060   51.3100 C   0  0  0  0  0  0  0  0  0  0  0  0
   59.3680   33.8380   49.9880 N   0  0  0  0  0  0  0  0  0  0  0  0
   58.9240   33.1030   48.8730 C   0  0  0  0  0  0  0  0  0  0  0  0
   58.4670   31.9410   49.0070 O   0  0  0  0  0  0  0  0  0  0  0  0
   58.9880   33.6840   47.5200 C   0  0  0  0  0  0  0  0  0  0  0  0
   59.6800   34.8590   47.2670 C   0  0  0  0  0  0  0  0  0  0  0  0
   59.7370   35.3890   46.0000 C   0  0  0  0  0  0  0  0  0  0  0  0
   59.0890   34.7310   44.9580 C   0  0  0  0  0  0  0  0  0  0  0  0
   58.3880   33.5570   45.1660 C   0  0  0  0  0  0  0  0  0  0  0  0
   57.7230   32.9010   44.0700 N   0  0  0  0  0  0  0  0  0  0  0  0
   57.5910   31.6380   43.9570 C   0  0  0  0  0  0  0  0  0  0  0  0
   58.3360   30.7120   44.6900 C   0  0  0  0  0  0  0  0  0  0  0  0
   58.0800   29.3780   44.4640 C   0  0  0  0  0  0  0  0  0  0  0  0
   58.7630   28.3160   45.1290 N   0  0  0  0  0  0  0  0  0  0  0  0
   58.0540   27.1660   45.5980 C   0  0  0  0  0  0  0  0  0  0  0  0
   58.6660   26.0260   46.0300 C   0  0  0  0  0  0  0  0  0  0  0  0
   57.8910   24.9460   46.4380 C   0  0  0  0  0  0  0  0  0  0  0  0
   56.5120   25.0160   46.4090 C   0  0  0  0  0  0  0  0  0  0  0  0
   55.8620   26.1770   45.9690 C   0  0  0  0  0  0  0  0  0  0  0  0
   54.4780   26.2630   45.9330 O   0  0  0  0  0  0  0  0  0  0  0  0
   56.6680   27.2170   45.5770 C   0  0  0  0  0  0  0  0  0  0  0  0
   57.1400   28.9620   43.5620 N   0  0  0  0  0  0  0  0  0  0  0  0
   56.4250   29.8780   42.8550 C   0  0  0  0  0  0  0  0  0  0  0  0
   56.7010   31.1550   43.1040 N   0  0  0  0  0  0  0  0  0  0  0  0
   58.3490   33.0510   46.4490 C   0  0  0  0  0  0  0  0  0  0  0  0
   59.3861   33.9741   52.0908 H   0  0  0  0  0  0  0  0  0  0  0  0
   58.3112   32.7034   51.4150 H   0  0  0  0  0  0  0  0  0  0  0  0
   60.0918   32.4668   51.4150 H   0  0  0  0  0  0  0  0  0  0  0  0
   59.7530   34.8000   49.9400 H   0  0  0  0  0  0  0  0  0  0  0  0
   60.1912   35.3749   48.0932 H   0  0  0  0  0  0  0  0  0  0  0  0
   60.2881   36.3221   45.8115 H   0  0  0  0  0  0  0  0  0  0  0  0
   59.1357   35.1554   43.9442 H   0  0  0  0  0  0  0  0  0  0  0  0
   59.0955   31.0346   45.4174 H   0  0  0  0  0  0  0  0  0  0  0  0
   59.7890   28.4000   45.2680 H   0  0  0  0  0  0  0  0  0  0  0  0
   59.7638   25.9616   46.0554 H   0  0  0  0  0  0  0  0  0  0  0  0
   58.3817   24.0257   46.7877 H   0  0  0  0  0  0  0  0  0  0  0  0
   55.9168   24.1503   46.7351 H   0  0  0  0  0  0  0  0  0  0  0  0
   53.9550   25.4970   46.3740 H   0  0  0  0  0  0  0  0  0  0  0  0
   56.1878   28.1425   45.2266 H   0  0  0  0  0  0  0  0  0  0  0  0
   56.9540   27.9410   43.3960 H   0  0  0  0  0  0  0  0  0  0  0  0
   55.6628   29.5799   42.1200 H   0  0  0  0  0  0  0  0  0  0  0  0
   57.7967   32.1182   46.6358 H   0  0  0  0  0  0  0  0  0  0  0  0
  1  2  1  0
  2  3  1  0
  3  4  2  0
  3  5  1  0
  5  6  2  0
  6  7  1  0
  7  8  2  0
  8  9  1  0
  9 10  1  0
 10 11  2  0
 11 12  1  0
 12 13  2  0
 13 14  1  0
 14 15  1  0
 15 16  2  0
 16 17  1  0
 17 18  2  0
 18 19  1  0
 19 20  1  0
 19 21  2  0
 13 22  1  0
 22 23  1  0
 23 24  2  0
  9 25  2  0
 25  5  1  0
 24 11  1  0
 21 15  1  0
  1 26  1  0
  1 27  1  0
  1 28  1  0
  2 29  1  0
  6 30  1  0
  7 31  1  0
  8 32  1  0
 12 33  1  0
 14 34  1  0
 16 35  1  0
 17 36  1  0
 18 37  1  0
 20 38  1  0
 21 39  1  0
 22 40  1  0
 23 41  1  0
 25 42  1  0
M  END
>  <smiles>  (65) 
CNC(=O)c1cccc(N=c2cc(Nc3cccc(O)c3)[nH]cn2)c1

>  <score_type>  (65) 
oracle

>  <origin>  (65) 
adg

>  <m_score__min__energy>  (65) 
-8.9100000000000001

>  <m_primary>  (65) 
energy

$$$$
65:0
     RDKit          3D

 45 47  0  0  0  0  0  0  0  0999 V2000
   56.7970   30.5750   53.3030 C   0  0  0  0  0  0  0  0  0  0  0  0
   57.4200   30.7570   51.9600 C   0  0  0  0  0  0  0  0  0  0  0  0
   57.6270   31.9600   51.3220 C   0  0  0  0  0  0  0  0  0  0  0  0
   58.1640   31.5910   50.1010 C   0  0  0  0  0  0  0  0  0  0  0  0
   58.6070   32.4810   49.0040 C   0  0  0  0  0  0  0  0  0  0  0  0
   59.6420   33.4100   49.1900 C   0  0  0  0  0  0  0  0  0  0  0  0
   60.0570   34.2230   48.1360 C   0  0  0  0  0  0  0  0  0  0  0  0
   59.4530   34.1310   46.8710 C   0  0  0  0  0  0  0  0  0  0  0  0
   59.9520   35.0320   45.7730 C   0  0  0  0  0  0  0  0  0  0  0  0
   58.4000   33.2000   46.6760 C   0  0  0  0  0  0  0  0  0  0  0  0
   57.5770   32.9350   45.1260 S   0  0  0  0  0  0  0  0  0  0  0  0
   58.5220   32.8370   43.9610 O   0  0  0  0  0  0  0  0  0  0  0  0
   56.6440   34.0870   44.8770 O   0  0  0  0  0  0  0  0  0  0  0  0
   56.6500   31.4730   45.2380 N   0  0  0  0  0  0  0  0  0  0  0  0
   57.1560   30.4720   44.2980 C   0  0  0  0  0  0  0  0  0  0  0  0
   56.3430   29.1870   44.4270 C   0  0  0  0  0  0  0  0  0  0  0  0
   57.0330   28.2320   45.2960 N   0  0  0  0  0  0  0  0  0  0  0  0
   56.4930   27.2110   45.9930 C   0  0  0  0  0  0  0  0  0  0  0  0
   55.1490   26.8600   45.9650 O   0  0  0  0  0  0  0  0  0  0  0  0
   57.4710   26.5830   46.7370 C   0  0  0  0  0  0  0  0  0  0  0  0
   58.6320   27.2330   46.5140 N   0  0  0  0  0  0  0  0  0  0  0  0
   59.9370   26.9210   47.0850 C   0  0  0  0  0  0  0  0  0  0  0  0
   58.3360   28.2230   45.6460 C   0  0  0  0  0  0  0  0  0  0  0  0
   59.1830   29.0530   45.2170 O   0  0  0  0  0  0  0  0  0  0  0  0
   57.9970   32.3880   47.7460 C   0  0  0  0  0  0  0  0  0  0  0  0
   58.2360   30.2790   50.0580 O   0  0  0  0  0  0  0  0  0  0  0  0
   57.7900   29.7430   51.1570 N   0  0  0  0  0  0  0  0  0  0  0  0
   57.5402   30.7921   54.0844 H   0  0  0  0  0  0  0  0  0  0  0  0
   55.9439   31.2615   53.4075 H   0  0  0  0  0  0  0  0  0  0  0  0
   56.4476   29.5372   53.4075 H   0  0  0  0  0  0  0  0  0  0  0  0
   57.4157   32.9732   51.6944 H   0  0  0  0  0  0  0  0  0  0  0  0
   60.1286   33.4974   50.1726 H   0  0  0  0  0  0  0  0  0  0  0  0
   60.8692   34.9470   48.2974 H   0  0  0  0  0  0  0  0  0  0  0  0
   60.4400   35.9131   46.2151 H   0  0  0  0  0  0  0  0  0  0  0  0
   60.6760   34.4855   45.1508 H   0  0  0  0  0  0  0  0  0  0  0  0
   59.1046   35.3557   45.1508 H   0  0  0  0  0  0  0  0  0  0  0  0
   57.0695   30.8578   43.2715 H   0  0  0  0  0  0  0  0  0  0  0  0
   58.2111   30.2596   44.5254 H   0  0  0  0  0  0  0  0  0  0  0  0
   55.3584   29.4226   44.8571 H   0  0  0  0  0  0  0  0  0  0  0  0
   56.2223   28.7393   43.4295 H   0  0  0  0  0  0  0  0  0  0  0  0
   57.3297   25.7111   47.3926 H   0  0  0  0  0  0  0  0  0  0  0  0
   59.8702   26.9370   48.1829 H   0  0  0  0  0  0  0  0  0  0  0  0
   60.2538   25.9218   46.7514 H   0  0  0  0  0  0  0  0  0  0  0  0
   60.6715   27.6689   46.7514 H   0  0  0  0  0  0  0  0  0  0  0  0
   57.1844   31.6623   47.5944 H   0  0  0  0  0  0  0  0  0  0  0  0
  1  2  1  0
  2  3  1  0
  3  4  2  0
  4  5  1  0
  5  6  2  0
  6  7  1  0
  7  8  2  0
  8  9  1  0
  8 10  1  0
 10 11  1  0
 11 12  2  0
 11 13  2  0
 11 14  1  0
 14 15  1  0
 15 16  1  0
 16 17  1  0
 17 18  1  0
 18 19  1  0
 18 20  2  0
 20 21  1  0
 21 22  1  0
 21 23  1  0
 23 24  2  0
 10 25  2  0
  4 26  1  0
 26 27  1  0
 27  2  2  0
 25  5  1  0
 23 17  1  0
  1 28  1  0
  1 29  1  0
  1 30  1  0
  3 31  1  0
  6 32  1  0
  7 33  1  0
  9 34  1  0
  9 35  1  0
  9 36  1  0
 15 37  1  0
 15 38  1  0
 16 39  1  0
 16 40  1  0
 20 41  1  0
 22 42  1  0
 22 43  1  0
 22 44  1  0
 25 45  1  0
M  CHG  2  14  -1  19  -1
M  END
>  <UniqueID>  (66) 
58

>  <SMILES>  (66) 
Cc1cc(-c2ccc(C)c(S(=O)(=O)[N-]CCn3c([O-])cn(C)c3=O)c2)on1

>  <Energy>  (66) 
103.63861100684262

>  <Genealogy>  (66) 
Cc1cc(-c2ccc(C)c(S(=O)(=O)[N-]CCn3c([O-])cn(C)c3=O)c2)on1 (protonated)
Cc1cc(-c2ccc(C)c(S(=O)(=O)[N-]CCn3c([O-])cn(C)c3=O)c2)on1 (3D coordinates assigned)
Cc1cc(-c2ccc(C)c(S(=O)(=O)[N-]CCn3c([O-])cn(C)c3=O)c2)on1 (optimized conformer: 103.63861100684262 kcal/mol)

>  <smiles>  (66) 
Cc1cc(-c2ccc(C)c(S(=O)(=O)NCCn3c(O)cn(C)c3=O)c2)on1

>  <score_type>  (66) 
oracle

>  <origin>  (66) 
adg

>  <m_score__min__energy>  (66) 
-13.98

>  <m_primary>  (66) 
energy

$$$$
66:0
     RDKit          3D

 41 43  0  0  0  0  0  0  0  0999 V2000
   59.0810   27.6180   48.1900 O   0  0  0  0  0  0  0  0  0  0  0  0
   58.9170   28.7930   47.7630 C   0  0  0  0  0  0  0  0  0  0  0  0
   59.8110   29.8520   48.2740 C   0  0  0  0  0  0  0  0  0  0  0  0
   59.4280   30.8450   49.0890 C   0  0  0  0  0  0  0  0  0  0  0  0
   58.4190   30.7220   50.1640 C   0  0  0  0  0  0  0  0  0  0  0  0
   57.6230   31.8300   50.4850 C   0  0  0  0  0  0  0  0  0  0  0  0
   56.7290   31.7720   51.5590 C   0  0  0  0  0  0  0  0  0  0  0  0
   56.6310   30.6120   52.3480 C   0  0  0  0  0  0  0  0  0  0  0  0
   55.7330   30.5650   53.5300 C   0  0  0  0  0  0  0  0  0  0  0  0
   56.3450   30.8090   55.0330 S   0  0  0  0  0  0  0  0  0  0  0  0
   54.3840   30.0830   53.4160 N   0  0  0  0  0  0  0  0  0  0  0  0
   53.4920   30.4530   52.3530 C   0  0  0  0  0  0  0  0  0  0  0  0
   53.4410   29.7200   51.1520 C   0  0  0  0  0  0  0  0  0  0  0  0
   52.5880   30.1200   50.1190 C   0  0  0  0  0  0  0  0  0  0  0  0
   51.7720   31.2420   50.2770 C   0  0  0  0  0  0  0  0  0  0  0  0
   51.8230   31.9800   51.4620 C   0  0  0  0  0  0  0  0  0  0  0  0
   51.0180   33.1010   51.6180 O   0  0  0  0  0  0  0  0  0  0  0  0
   52.6850   31.5920   52.4930 C   0  0  0  0  0  0  0  0  0  0  0  0
   57.4360   29.5050   52.0260 C   0  0  0  0  0  0  0  0  0  0  0  0
   58.3240   29.5620   50.9490 C   0  0  0  0  0  0  0  0  0  0  0  0
   57.8960   29.0540   46.7130 C   0  0  0  0  0  0  0  0  0  0  0  0
   57.0620   28.0200   46.2490 C   0  0  0  0  0  0  0  0  0  0  0  0
   57.1190   26.7520   46.8230 O   0  0  0  0  0  0  0  0  0  0  0  0
   56.1830   28.2590   45.2410 N   0  0  0  0  0  0  0  0  0  0  0  0
   56.0820   29.4860   44.6680 C   0  0  0  0  0  0  0  0  0  0  0  0
   55.2700   29.6800   43.7290 O   0  0  0  0  0  0  0  0  0  0  0  0
   56.8620   30.5040   45.1070 N   0  0  0  0  0  0  0  0  0  0  0  0
   57.7610   30.3210   46.1070 C   0  0  0  0  0  0  0  0  0  0  0  0
   58.4830   31.2890   46.4620 O   0  0  0  0  0  0  0  0  0  0  0  0
   60.8660   29.8238   47.9637 H   0  0  0  0  0  0  0  0  0  0  0  0
   59.9008   31.8280   48.9475 H   0  0  0  0  0  0  0  0  0  0  0  0
   57.7019   32.7509   49.8886 H   0  0  0  0  0  0  0  0  0  0  0  0
   56.0964   32.6421   51.7888 H   0  0  0  0  0  0  0  0  0  0  0  0
   54.0160   29.4700   54.1790 H   0  0  0  0  0  0  0  0  0  0  0  0
   54.0744   28.8296   51.0260 H   0  0  0  0  0  0  0  0  0  0  0  0
   52.5596   29.5492   49.1791 H   0  0  0  0  0  0  0  0  0  0  0  0
   51.0896   31.5445   49.4690 H   0  0  0  0  0  0  0  0  0  0  0  0
   52.7304   32.1836   53.4193 H   0  0  0  0  0  0  0  0  0  0  0  0
   57.3660   28.5864   52.6271 H   0  0  0  0  0  0  0  0  0  0  0  0
   58.9537   28.6911   50.7142 H   0  0  0  0  0  0  0  0  0  0  0  0
   57.8770   26.4940   47.4450 H   0  0  0  0  0  0  0  0  0  0  0  0
  1  2  2  0
  2  3  1  0
  3  4  2  3
  4  5  1  0
  5  6  2  0
  6  7  1  0
  7  8  2  0
  8  9  1  0
  9 10  2  0
  9 11  1  0
 11 12  1  0
 12 13  2  0
 13 14  1  0
 14 15  2  0
 15 16  1  0
 16 17  1  0
 16 18  2  0
  8 19  1  0
 19 20  2  0
  2 21  1  0
 21 22  2  0
 22 23  1  0
 22 24  1  0
 24 25  1  0
 25 26  2  0
 25 27  1  0
 27 28  1  0
 28 29  2  0
 20  5  1  0
 28 21  1  0
 18 12  1  0
  3 30  1  0
  4 31  1  0
  6 32  1  0
  7 33  1  0
 11 34  1  0
 13 35  1  0
 14 36  1  0
 15 37  1  0
 18 38  1  0
 19 39  1  0
 20 40  1  0
 23 41  1  0
M  CHG  3  17  -1  24  -1  27  -1
M  END
>  <UniqueID>  (67) 
59

>  <SMILES>  (67) 
O=C(C=Cc1ccc(C(=S)Nc2cccc([O-])c2)cc1)c1c(O)[n-]c(=O)[n-]c1=O

>  <Energy>  (67) 
63.72016716155769

>  <Genealogy>  (67) 
O=C(C=Cc1ccc(C(=S)Nc2cccc([O-])c2)cc1)c1c(O)[n-]c(=O)[n-]c1=O (protonated)
O=C(C=Cc1ccc(C(=S)Nc2cccc([O-])c2)cc1)c1c(O)[n-]c(=O)[n-]c1=O (3D coordinates assigned)
O=C(C=Cc1ccc(C(=S)Nc2cccc([O-])c2)cc1)c1c(O)[n-]c(=O)[n-]c1=O (optimized conformer: 63.72016716155769 kcal/mol)

>  <smiles>  (67) 
O=C(C=Cc1ccc(C(=S)Nc2cccc(O)c2)cc1)c1c(O)[nH]c(=O)[nH]c1=O

>  <score_type>  (67) 
oracle

>  <origin>  (67) 
adg

>  <m_score__min__energy>  (67) 
-14.699999999999999

>  <m_primary>  (67) 
energy

$$$$
67:0
     RDKit          3D

 60 63  0  0  0  0  0  0  0  0999 V2000
   60.5720   29.6270   47.7500 O   0  0  0  0  0  0  0  0  0  0  0  0
   60.0810   28.9050   48.6620 C   0  0  0  0  0  0  0  0  0  0  0  0
   59.3130   27.7380   48.3270 N   0  0  0  0  0  0  0  0  0  0  0  0
   58.7960   27.4760   47.0120 C   0  0  0  0  0  0  0  0  0  0  0  0
   58.7940   26.1620   46.5200 C   0  0  0  0  0  0  0  0  0  0  0  0
   58.2960   25.8880   45.2430 C   0  0  0  0  0  0  0  0  0  0  0  0
   57.7840   26.9190   44.4530 C   0  0  0  0  0  0  0  0  0  0  0  0
   57.7480   28.2310   44.9440 C   0  0  0  0  0  0  0  0  0  0  0  0
   57.1080   29.5320   43.9420 S   0  0  0  0  0  0  0  0  0  0  0  0
   56.7790   28.9700   42.5860 O   0  0  0  0  0  0  0  0  0  0  0  0
   55.8400   30.0600   44.5510 O   0  0  0  0  0  0  0  0  0  0  0  0
   58.2890   30.8150   43.7610 N   0  0  0  0  0  0  0  0  0  0  0  0
   59.0750   31.0230   44.9900 C   0  0  0  0  0  0  0  0  0  0  0  0
   58.2560   31.7290   46.0980 C   0  0  0  0  0  0  0  0  0  0  0  0
   57.0970   32.3860   45.6140 O   0  0  0  0  0  0  0  0  0  0  0  0
   57.3890   33.0700   44.4170 C   0  0  0  0  0  0  0  0  0  0  0  0
   57.6660   32.0680   43.2800 C   0  0  0  0  0  0  0  0  0  0  0  0
   58.2480   28.5050   46.2240 C   0  0  0  0  0  0  0  0  0  0  0  0
   60.3210   29.2670   50.1070 C   0  0  0  0  0  0  0  0  0  0  0  0
   61.8190   29.5550   50.3750 C   0  0  0  0  0  0  0  0  0  0  0  0
   62.1030   31.0620   50.3840 C   0  0  0  0  0  0  0  0  0  0  0  0
   61.3520   31.7520   51.4570 N   0  0  0  0  0  0  0  0  0  0  0  0
   61.2700   33.4640   51.1170 S   0  0  0  0  0  0  0  0  0  0  0  0
   62.5810   34.1120   51.4680 O   0  0  0  0  0  0  0  0  0  0  0  0
   60.1850   34.1010   51.9430 O   0  0  0  0  0  0  0  0  0  0  0  0
   60.9490   33.7240   49.4040 C   0  0  0  0  0  0  0  0  0  0  0  0
   61.9650   33.5460   48.4530 C   0  0  0  0  0  0  0  0  0  0  0  0
   61.7070   33.7760   47.0990 C   0  0  0  0  0  0  0  0  0  0  0  0
   60.4350   34.1900   46.6890 C   0  0  0  0  0  0  0  0  0  0  0  0
   59.4230   34.3770   47.6340 C   0  0  0  0  0  0  0  0  0  0  0  0
   59.6790   34.1460   48.9890 C   0  0  0  0  0  0  0  0  0  0  0  0
   60.0000   31.1970   51.7210 C   0  0  0  0  0  0  0  0  0  0  0  0
   59.4150   30.4500   50.5140 C   0  0  0  0  0  0  0  0  0  0  0  0
   59.1920   27.0000   49.0570 H   0  0  0  0  0  0  0  0  0  0  0  0
   59.1861   25.3438   47.1420 H   0  0  0  0  0  0  0  0  0  0  0  0
   58.3075   24.8571   44.8594 H   0  0  0  0  0  0  0  0  0  0  0  0
   57.4079   26.7009   43.4426 H   0  0  0  0  0  0  0  0  0  0  0  0
   59.4094   30.0448   45.3660 H   0  0  0  0  0  0  0  0  0  0  0  0
   59.9287   31.6695   44.7385 H   0  0  0  0  0  0  0  0  0  0  0  0
   57.9457   30.9744   46.8357 H   0  0  0  0  0  0  0  0  0  0  0  0
   58.9051   32.5007   46.5375 H   0  0  0  0  0  0  0  0  0  0  0  0
   56.5317   33.7021   44.1423 H   0  0  0  0  0  0  0  0  0  0  0  0
   58.2832   33.6920   44.5704 H   0  0  0  0  0  0  0  0  0  0  0  0
   56.7132   31.8211   42.7889 H   0  0  0  0  0  0  0  0  0  0  0  0
   58.3721   32.5435   42.5833 H   0  0  0  0  0  0  0  0  0  0  0  0
   58.2119   29.5322   46.6158 H   0  0  0  0  0  0  0  0  0  0  0  0
   60.0530   28.4062   50.7372 H   0  0  0  0  0  0  0  0  0  0  0  0
   62.0961   29.1322   51.3519 H   0  0  0  0  0  0  0  0  0  0  0  0
   62.4108   29.0947   49.5701 H   0  0  0  0  0  0  0  0  0  0  0  0
   63.1798   31.2213   50.5428 H   0  0  0  0  0  0  0  0  0  0  0  0
   61.7824   31.4782   49.4175 H   0  0  0  0  0  0  0  0  0  0  0  0
   62.9669   33.2247   48.7739 H   0  0  0  0  0  0  0  0  0  0  0  0
   62.5044   33.6315   46.3552 H   0  0  0  0  0  0  0  0  0  0  0  0
   60.2317   34.3683   45.6227 H   0  0  0  0  0  0  0  0  0  0  0  0
   58.4241   34.7062   47.3117 H   0  0  0  0  0  0  0  0  0  0  0  0
   58.8812   34.2960   49.7313 H   0  0  0  0  0  0  0  0  0  0  0  0
   60.0667   30.4981   52.5678 H   0  0  0  0  0  0  0  0  0  0  0  0
   59.3327   32.0434   51.9406 H   0  0  0  0  0  0  0  0  0  0  0  0
   58.4179   30.0666   50.7763 H   0  0  0  0  0  0  0  0  0  0  0  0
   59.3470   31.1486   49.6671 H   0  0  0  0  0  0  0  0  0  0  0  0
  1  2  2  0
  2  3  1  0
  3  4  1  0
  4  5  2  0
  5  6  1  0
  6  7  2  0
  7  8  1  0
  8  9  1  0
  9 10  2  0
  9 11  2  0
  9 12  1  0
 12 13  1  0
 13 14  1  0
 14 15  1  0
 15 16  1  0
 16 17  1  0
  8 18  2  0
  2 19  1  0
 19 20  1  0
 20 21  1  0
 21 22  1  0
 22 23  1  0
 23 24  2  0
 23 25  2  0
 23 26  1  0
 26 27  2  0
 27 28  1  0
 28 29  2  0
 29 30  1  0
 30 31  2  0
 22 32  1  0
 32 33  1  0
 18  4  1  0
 33 19  1  0
 17 12  1  0
 31 26  1  0
  3 34  1  0
  5 35  1  0
  6 36  1  0
  7 37  1  0
 13 38  1  0
 13 39  1  0
 14 40  1  0
 14 41  1  0
 16 42  1  0
 16 43  1  0
 17 44  1  0
 17 45  1  0
 18 46  1  0
 19 47  1  0
 20 48  1  0
 20 49  1  0
 21 50  1  0
 21 51  1  0
 27 52  1  0
 28 53  1  0
 29 54  1  0
 30 55  1  0
 31 56  1  0
 32 57  1  0
 32 58  1  0
 33 59  1  0
 33 60  1  0
M  END
>  <UniqueID>  (68) 
60

>  <SMILES>  (68) 
O=C(Nc1cccc(S(=O)(=O)N2CCOCC2)c1)C1CCN(S(=O)(=O)c2ccccc2)CC1

>  <Energy>  (68) 
81.68757079199077

>  <Genealogy>  (68) 
O=C(Nc1cccc(S(=O)(=O)N2CCOCC2)c1)C1CCN(S(=O)(=O)c2ccccc2)CC1 (3D coordinates assigned)
O=C(Nc1cccc(S(=O)(=O)N2CCOCC2)c1)C1CCN(S(=O)(=O)c2ccccc2)CC1 (nonaromatic ring conformer: 81.68757079199077 kcal/mol)

>  <smiles>  (68) 
O=C(Nc1cccc(S(=O)(=O)N2CCOCC2)c1)C1CCN(S(=O)(=O)c2ccccc2)CC1

>  <score_type>  (68) 
oracle

>  <origin>  (68) 
adg

>  <m_score__min__energy>  (68) 
-9.6400000000000006

>  <m_primary>  (68) 
energy

$$$$
68:0
     RDKit          3D

 47 50  0  0  0  0  0  0  0  0999 V2000
   56.7280   29.9640   42.8360 O   0  0  0  0  0  0  0  0  0  0  0  0
   57.4710   30.4530   43.7310 C   0  0  0  0  0  0  0  0  0  0  0  0
   58.6860   29.7980   44.1130 N   0  0  0  0  0  0  0  0  0  0  0  0
   58.8010   28.5980   44.8930 C   0  0  0  0  0  0  0  0  0  0  0  0
   59.9850   28.2600   45.5730 C   0  0  0  0  0  0  0  0  0  0  0  0
   60.0480   27.0910   46.3340 C   0  0  0  0  0  0  0  0  0  0  0  0
   58.9310   26.2580   46.4370 C   0  0  0  0  0  0  0  0  0  0  0  0
   57.7380   26.5980   45.7870 C   0  0  0  0  0  0  0  0  0  0  0  0
   56.3380   25.5370   45.9220 S   0  0  0  0  0  0  0  0  0  0  0  0
   55.0860   26.3550   46.0930 O   0  0  0  0  0  0  0  0  0  0  0  0
   56.5100   24.6650   47.1360 O   0  0  0  0  0  0  0  0  0  0  0  0
   56.2100   24.5440   44.4900 N   0  0  0  0  0  0  0  0  0  0  0  0
   54.9690   23.7280   44.5130 C   0  0  0  0  0  0  0  0  0  0  0  0
   55.2510   22.2610   44.8790 C   0  0  0  0  0  0  0  0  0  0  0  0
   56.1510   21.6230   43.9830 O   0  0  0  0  0  0  0  0  0  0  0  0
   57.1540   22.4890   43.4640 C   0  0  0  0  0  0  0  0  0  0  0  0
   57.4310   23.7240   44.3390 C   0  0  0  0  0  0  0  0  0  0  0  0
   57.6770   27.7720   45.0200 C   0  0  0  0  0  0  0  0  0  0  0  0
   57.0270   31.6720   44.4810 C   0  0  2  0  0  0  0  0  0  0  0  0
   57.7770   32.9500   44.0040 C   0  0  0  0  0  0  0  0  0  0  0  0
   58.4320   33.4230   45.2510 C   0  0  0  0  0  0  0  0  0  0  0  0
   59.2420   34.5440   45.4400 C   0  0  0  0  0  0  0  0  0  0  0  0
   59.7580   34.7860   46.7250 C   0  0  0  0  0  0  0  0  0  0  0  0
   59.4570   33.9090   47.7890 C   0  0  0  0  0  0  0  0  0  0  0  0
   60.1060   34.2170   49.3890 Cl  0  0  0  0  0  0  0  0  0  0  0  0
   58.6390   32.7870   47.5670 C   0  0  0  0  0  0  0  0  0  0  0  0
   58.1430   32.5760   46.2820 C   0  0  0  0  0  0  0  0  0  0  0  0
   57.3330   31.5390   45.8710 O   0  0  0  0  0  0  0  0  0  0  0  0
   60.8636   28.9183   45.5051 H   0  0  0  0  0  0  0  0  0  0  0  0
   60.9801   26.8250   46.8541 H   0  0  0  0  0  0  0  0  0  0  0  0
   58.9888   25.3332   47.0299 H   0  0  0  0  0  0  0  0  0  0  0  0
   56.1550   25.1980   43.6730 H   0  0  0  0  0  0  0  0  0  0  0  0
   54.2782   24.1530   45.2561 H   0  0  0  0  0  0  0  0  0  0  0  0
   54.5301   23.7484   43.5045 H   0  0  0  0  0  0  0  0  0  0  0  0
   55.6835   22.2299   45.8899 H   0  0  0  0  0  0  0  0  0  0  0  0
   54.2947   21.7204   44.8216 H   0  0  0  0  0  0  0  0  0  0  0  0
   58.0886   21.9169   43.3680 H   0  0  0  0  0  0  0  0  0  0  0  0
   56.7830   22.8613   42.4977 H   0  0  0  0  0  0  0  0  0  0  0  0
   57.7690   23.3939   45.3324 H   0  0  0  0  0  0  0  0  0  0  0  0
   58.2076   24.3334   43.8537 H   0  0  0  0  0  0  0  0  0  0  0  0
   56.7390   28.0455   44.5147 H   0  0  0  0  0  0  0  0  0  0  0  0
   55.9459   31.7652   44.3007 H   0  0  0  0  0  0  0  0  0  0  0  0
   58.5214   32.7088   43.2309 H   0  0  0  0  0  0  0  0  0  0  0  0
   57.1166   33.6999   43.5440 H   0  0  0  0  0  0  0  0  0  0  0  0
   59.4709   35.2213   44.6040 H   0  0  0  0  0  0  0  0  0  0  0  0
   60.3989   35.6623   46.9019 H   0  0  0  0  0  0  0  0  0  0  0  0
   58.3970   32.0940   48.3863 H   0  0  0  0  0  0  0  0  0  0  0  0
  1  2  2  0
  2  3  1  0
  3  4  1  0
  4  5  2  0
  5  6  1  0
  6  7  2  0
  7  8  1  0
  8  9  1  0
  9 10  2  0
  9 11  2  0
  9 12  1  0
 12 13  1  0
 13 14  1  0
 14 15  1  0
 15 16  1  0
 16 17  1  0
  8 18  2  0
  2 19  1  0
 19 20  1  0
 20 21  1  0
 21 22  2  0
 22 23  1  0
 23 24  2  0
 24 25  1  0
 24 26  1  0
 26 27  2  0
 27 28  1  0
 18  4  1  0
 28 19  1  0
 17 12  1  0
 27 21  1  0
  5 29  1  0
  6 30  1  0
  7 31  1  0
 12 32  1  0
 13 33  1  0
 13 34  1  0
 14 35  1  0
 14 36  1  0
 16 37  1  0
 16 38  1  0
 17 39  1  0
 17 40  1  0
 18 41  1  0
 19 42  1  1
 20 43  1  0
 20 44  1  0
 22 45  1  0
 23 46  1  0
 26 47  1  0
M  CHG  2   3  -1  12   1
M  END
>  <UniqueID>  (69) 
61

>  <SMILES>  (69) 
O=C([N-]c1cccc(S(=O)(=O)[NH+]2CCOCC2)c1)[C@@H]1Cc2ccc(Cl)cc2O1

>  <Energy>  (69) 
81.04336304019326

>  <Genealogy>  (69) 
O=C([N-]c1cccc(S(=O)(=O)[NH+]2CCOCC2)c1)C1Cc2ccc(Cl)cc2O1 (protonated)
O=C([N-]c1cccc(S(=O)(=O)[NH+]2CCOCC2)c1)[C@@H]1Cc2ccc(Cl)cc2O1 (chirality)
O=C([N-]c1cccc(S(=O)(=O)[NH+]2CCOCC2)c1)[C@@H]1Cc2ccc(Cl)cc2O1 (3D coordinates assigned)
O=C([N-]c1cccc(S(=O)(=O)[NH+]2CCOCC2)c1)[C@@H]1Cc2ccc(Cl)cc2O1 (nonaromatic ring conformer: 81.04336304019326 kcal/mol)

>  <smiles>  (69) 
O=C(Nc1cccc(S(=O)(=O)N2CCOCC2)c1)C1Cc2ccc(Cl)cc2O1

>  <score_type>  (69) 
oracle

>  <origin>  (69) 
adg

>  <m_score__min__energy>  (69) 
-9.8300000000000001

>  <m_primary>  (69) 
energy

$$$$
69:0
     RDKit          3D

 35 36  0  0  0  0  0  0  0  0999 V2000
   57.2500   25.0670   47.8010 C   0  0  0  0  0  0  0  0  0  0  0  0
   57.5960   25.4110   46.4650 O   0  0  0  0  0  0  0  0  0  0  0  0
   57.6050   26.7210   45.9570 C   0  0  0  0  0  0  0  0  0  0  0  0
   58.7990   27.4110   45.6920 C   0  0  0  0  0  0  0  0  0  0  0  0
   58.7670   28.7110   45.1880 C   0  0  0  0  0  0  0  0  0  0  0  0
   57.5430   29.3570   44.9340 C   0  0  0  0  0  0  0  0  0  0  0  0
   57.5430   30.7420   44.3970 C   0  0  0  0  0  0  0  0  0  0  0  0
   57.5610   30.9330   43.1490 O   0  0  0  0  0  0  0  0  0  0  0  0
   57.5220   31.8400   45.2640 O   0  0  0  0  0  0  0  0  0  0  0  0
   58.5650   32.8070   45.3130 C   0  0  0  0  0  0  0  0  0  0  0  0
   59.3860   32.5810   46.5490 C   0  0  0  0  0  0  0  0  0  0  0  0
   58.8250   31.9400   47.6630 C   0  0  0  0  0  0  0  0  0  0  0  0
   59.6010   31.6940   48.7960 C   0  0  0  0  0  0  0  0  0  0  0  0
   60.9450   32.0730   48.8250 C   0  0  0  0  0  0  0  0  0  0  0  0
   61.5300   32.7000   47.7100 C   0  0  0  0  0  0  0  0  0  0  0  0
   62.9570   33.0940   47.7300 C   0  0  0  0  0  0  0  0  0  0  0  0
   63.7690   32.5200   48.5030 O   0  0  0  0  0  0  0  0  0  0  0  0
   63.4220   34.1030   46.8940 O   0  0  0  0  0  0  0  0  0  0  0  0
   60.7420   32.9450   46.5710 C   0  0  0  0  0  0  0  0  0  0  0  0
   56.3420   28.6620   45.2020 C   0  0  0  0  0  0  0  0  0  0  0  0
   55.1080   29.2610   44.9670 O   0  0  0  0  0  0  0  0  0  0  0  0
   56.3790   27.3500   45.7100 C   0  0  0  0  0  0  0  0  0  0  0  0
   55.1980   26.6550   45.9770 O   0  0  0  0  0  0  0  0  0  0  0  0
   57.8516   25.6652   48.5012 H   0  0  0  0  0  0  0  0  0  0  0  0
   56.1821   25.2718   47.9675 H   0  0  0  0  0  0  0  0  0  0  0  0
   57.4486   23.9980   47.9675 H   0  0  0  0  0  0  0  0  0  0  0  0
   59.7660   26.9229   45.8832 H   0  0  0  0  0  0  0  0  0  0  0  0
   59.7111   29.2383   44.9864 H   0  0  0  0  0  0  0  0  0  0  0  0
   59.2034   32.7057   44.4230 H   0  0  0  0  0  0  0  0  0  0  0  0
   58.1324   33.8181   45.3350 H   0  0  0  0  0  0  0  0  0  0  0  0
   57.7697   31.6302   47.6434 H   0  0  0  0  0  0  0  0  0  0  0  0
   59.1525   31.1995   49.6702 H   0  0  0  0  0  0  0  0  0  0  0  0
   61.5488   31.8803   49.7240 H   0  0  0  0  0  0  0  0  0  0  0  0
   61.1919   33.4259   45.6899 H   0  0  0  0  0  0  0  0  0  0  0  0
   54.3820   27.1060   46.3730 H   0  0  0  0  0  0  0  0  0  0  0  0
  1  2  1  0
  2  3  1  0
  3  4  2  0
  4  5  1  0
  5  6  2  0
  6  7  1  0
  7  8  2  0
  7  9  1  0
  9 10  1  0
 10 11  1  0
 11 12  2  0
 12 13  1  0
 13 14  2  0
 14 15  1  0
 15 16  1  0
 16 17  2  0
 16 18  1  0
 15 19  2  0
  6 20  1  0
 20 21  1  0
 20 22  2  0
 22 23  1  0
 22  3  1  0
 19 11  1  0
  1 24  1  0
  1 25  1  0
  1 26  1  0
  4 27  1  0
  5 28  1  0
 10 29  1  0
 10 30  1  0
 12 31  1  0
 13 32  1  0
 14 33  1  0
 19 34  1  0
 23 35  1  0
M  CHG  2  18  -1  21  -1
M  END
>  <UniqueID>  (70) 
62

>  <SMILES>  (70) 
COc1ccc(C(=O)OCc2cccc(C(=O)[O-])c2)c([O-])c1O

>  <Energy>  (70) 
36.02864301827771

>  <Genealogy>  (70) 
COc1ccc(C(=O)OCc2cccc(C(=O)[O-])c2)c([O-])c1O (protonated)
COc1ccc(C(=O)OCc2cccc(C(=O)[O-])c2)c([O-])c1O (3D coordinates assigned)
COc1ccc(C(=O)OCc2cccc(C(=O)[O-])c2)c([O-])c1O (optimized conformer: 36.02864301827771 kcal/mol)

>  <smiles>  (70) 
COc1ccc(C(=O)OCc2cccc(C(=O)O)c2)c(O)c1O

>  <score_type>  (70) 
oracle

>  <origin>  (70) 
adg

>  <m_score__min__energy>  (70) 
-12.640000000000001

>  <m_primary>  (70) 
energy

$$$$
70:0
     RDKit          3D

 43 45  0  0  0  0  0  0  0  0999 V2000
   54.2600   26.7050   46.7470 H   0  0  0  0  0  0  0  0  0  0  0  0
   55.1320   26.4180   46.3210 O   0  0  0  0  0  0  0  0  0  0  0  0
   55.3660   25.0840   45.9950 C   0  0  0  0  0  0  0  0  0  0  0  0
   54.3250   24.2170   45.9660 N   0  0  0  0  0  0  0  0  0  0  0  0
   54.4870   22.9180   45.6160 C   0  0  0  0  0  0  0  0  0  0  0  0
   53.4760   22.1630   45.5960 O   0  0  0  0  0  0  0  0  0  0  0  0
   55.7270   22.4410   45.2810 N   0  0  0  0  0  0  0  0  0  0  0  0
   55.8900   21.0390   44.8580 C   0  0  0  0  0  0  0  0  0  0  0  0
   55.9649   20.3944   45.7462 H   0  0  0  0  0  0  0  0  0  0  0  0
   55.0212   20.7343   44.2560 H   0  0  0  0  0  0  0  0  0  0  0  0
   56.8055   20.9417   44.2560 H   0  0  0  0  0  0  0  0  0  0  0  0
   56.8030   23.2920   45.2730 C   0  0  0  0  0  0  0  0  0  0  0  0
   57.9420   22.8720   44.9200 O   0  0  0  0  0  0  0  0  0  0  0  0
   56.6550   24.6360   45.6640 C   0  0  0  0  0  0  0  0  0  0  0  0
   57.8280   25.5440   45.6610 C   0  0  0  0  0  0  0  0  0  0  0  0
   58.3696   25.7055   44.7173 H   0  0  0  0  0  0  0  0  0  0  0  0
   58.2530   26.1750   46.7640 C   0  0  0  0  0  0  0  0  0  0  0  0
   58.1448   25.6584   47.7291 H   0  0  0  0  0  0  0  0  0  0  0  0
   58.8610   27.5290   46.7620 C   0  0  0  0  0  0  0  0  0  0  0  0
   59.7640   27.9580   47.7550 C   0  0  0  0  0  0  0  0  0  0  0  0
   60.0357   27.2796   48.5772 H   0  0  0  0  0  0  0  0  0  0  0  0
   60.3160   29.2400   47.7010 C   0  0  0  0  0  0  0  0  0  0  0  0
   61.0311   29.5620   48.4724 H   0  0  0  0  0  0  0  0  0  0  0  0
   59.9630   30.1140   46.6710 C   0  0  0  0  0  0  0  0  0  0  0  0
   60.4169   31.1149   46.6238 H   0  0  0  0  0  0  0  0  0  0  0  0
   59.0360   29.7250   45.6990 C   0  0  0  0  0  0  0  0  0  0  0  0
   58.7110   30.6470   44.6500 N   0  0  0  0  0  0  0  0  0  0  0  0
   57.5680   31.5110   44.6030 C   0  0  0  0  0  0  0  0  0  0  0  0
   56.4100   31.0630   44.8130 O   0  0  0  0  0  0  0  0  0  0  0  0
   57.7580   32.9640   44.3090 C   0  0  0  0  0  0  0  0  0  0  0  0
   58.4306   33.0768   43.4459 H   0  0  0  0  0  0  0  0  0  0  0  0
   56.7824   33.4184   44.0815 H   0  0  0  0  0  0  0  0  0  0  0  0
   58.3560   33.6490   45.4970 C   0  0  0  0  0  0  0  0  0  0  0  0
   58.3220   33.2020   46.8040 C   0  0  0  0  0  0  0  0  0  0  0  0
   57.9043   32.2517   47.1680 H   0  0  0  0  0  0  0  0  0  0  0  0
   58.9190   34.1910   47.5600 C   0  0  0  0  0  0  0  0  0  0  0  0
   59.0653   34.1489   48.6494 H   0  0  0  0  0  0  0  0  0  0  0  0
   59.2960   35.2140   46.7710 N   0  0  0  0  0  0  0  0  0  0  0  0
   59.7610   36.0970   47.0810 H   0  0  0  0  0  0  0  0  0  0  0  0
   58.9500   34.8960   45.5120 C   0  0  0  0  0  0  0  0  0  0  0  0
   59.1145   35.5311   44.6291 H   0  0  0  0  0  0  0  0  0  0  0  0
   58.4980   28.4250   45.7400 C   0  0  0  0  0  0  0  0  0  0  0  0
   57.7860   28.1062   44.9645 H   0  0  0  0  0  0  0  0  0  0  0  0
  1  2  1  0
  2  3  1  0
  3  4  1  0
  4  5  1  0
  5  6  2  0
  5  7  1  0
  7  8  1  0
  8  9  1  0
  8 10  1  0
  8 11  1  0
  7 12  1  0
 12 13  2  0
 12 14  1  0
 14 15  1  0
 15 16  1  0
 15 17  2  0
 17 18  1  0
 17 19  1  0
 19 20  2  0
 20 21  1  0
 20 22  1  0
 22 23  1  0
 22 24  2  0
 24 25  1  0
 24 26  1  0
 26 27  1  0
 27 28  1  0
 28 29  2  0
 28 30  1  0
 30 31  1  0
 30 32  1  0
 30 33  1  0
 33 34  1  0
 34 35  1  0
 34 36  2  0
 36 37  1  0
 36 38  1  0
 38 39  1  0
 38 40  1  0
 40 41  1  0
 26 42  2  0
 42 43  1  0
 14  3  2  0
 42 19  1  0
 40 33  2  0
M  CHG  2   4  -1  27  -1
M  END
>  <UniqueID>  (71) 
63

>  <SMILES>  (71) 
Cn1c(=O)[n-]c(O)c(/C=C/c2cccc([N-]C(=O)Cc3cc[nH]c3)c2)c1=O

>  <Energy>  (71) 
83.18755443252408

>  <Genealogy>  (71) 
Cn1c(=O)[n-]c(O)c(C=Cc2cccc([N-]C(=O)Cc3cc[nH]c3)c2)c1=O (protonated)
Cn1c(=O)[n-]c(O)c(/C=C/c2cccc([N-]C(=O)Cc3cc[nH]c3)c2)c1=O (cis-trans isomerization)
Cn1c(=O)[n-]c(O)c(/C=C/c2cccc([N-]C(=O)Cc3cc[nH]c3)c2)c1=O (3D coordinates assigned)
Cn1c(=O)[n-]c(O)c(/C=C/c2cccc([N-]C(=O)Cc3cc[nH]c3)c2)c1=O (optimized conformer: 83.18755443252408 kcal/mol)

>  <smiles>  (71) 
Cn1c(=O)[nH]c(O)c(C=Cc2cccc(NC(=O)Cc3cc[nH]c3)c2)c1=O

>  <score_type>  (71) 
oracle

>  <origin>  (71) 
adg

>  <m_score__min__energy>  (71) 
-11.94

>  <m_primary>  (71) 
energy

$$$$
71:0
     RDKit          3D

 33 35  0  0  0  0  0  0  0  0999 V2000
   54.8570   26.3480   45.9570 N   0  0  0  0  0  0  0  0  0  0  0  0
   55.8300   25.3080   46.0200 C   0  0  0  0  0  0  0  0  0  0  0  0
   55.5450   24.2150   46.5780 O   0  0  0  0  0  0  0  0  0  0  0  0
   57.2020   25.5340   45.4730 C   0  0  0  0  0  0  0  0  0  0  0  0
   57.5800   26.9320   45.6420 N   0  0  0  0  0  0  0  0  0  0  0  0
   58.4200   27.6360   44.8660 C   0  0  0  0  0  0  0  0  0  0  0  0
   58.5190   28.8800   45.4490 C   0  0  0  0  0  0  0  0  0  0  0  0
   59.3630   30.0250   44.9850 C   0  0  0  0  0  0  0  0  0  0  0  0
   58.7840   31.3070   45.4270 N   0  0  0  0  0  0  0  0  0  0  0  0
   57.4370   31.6500   45.0420 C   0  0  0  0  0  0  0  0  0  0  0  0
   56.6880   30.8030   44.4840 O   0  0  0  0  0  0  0  0  0  0  0  0
   56.9360   33.0470   45.2480 C   0  0  0  0  0  0  0  0  0  0  0  0
   57.5250   33.6340   46.4050 O   0  0  0  0  0  0  0  0  0  0  0  0
   58.8310   33.3480   46.8110 C   0  0  0  0  0  0  0  0  0  0  0  0
   59.4630   34.1950   47.7270 C   0  0  0  0  0  0  0  0  0  0  0  0
   60.7670   33.9280   48.1470 C   0  0  0  0  0  0  0  0  0  0  0  0
   61.4410   32.8080   47.6610 C   0  0  0  0  0  0  0  0  0  0  0  0
   60.8120   31.9460   46.7570 C   0  0  0  0  0  0  0  0  0  0  0  0
   59.4940   32.2040   46.3190 C   0  0  0  0  0  0  0  0  0  0  0  0
   57.7620   28.8910   46.5650 N   0  0  0  0  0  0  0  0  0  0  0  0
   57.2030   27.6920   46.6580 N   0  0  0  0  0  0  0  0  0  0  0  0
   55.1400   27.3500   46.0350 H   0  0  0  0  0  0  0  0  0  0  0  0
   57.9185   24.8950   46.0100 H   0  0  0  0  0  0  0  0  0  0  0  0
   57.2104   25.2837   44.4019 H   0  0  0  0  0  0  0  0  0  0  0  0
   58.9253   27.2901   43.9522 H   0  0  0  0  0  0  0  0  0  0  0  0
   60.3749   29.9215   45.4037 H   0  0  0  0  0  0  0  0  0  0  0  0
   59.4039   30.0138   43.8858 H   0  0  0  0  0  0  0  0  0  0  0  0
   57.1907   33.6543   44.3669 H   0  0  0  0  0  0  0  0  0  0  0  0
   55.8456   33.0117   45.3888 H   0  0  0  0  0  0  0  0  0  0  0  0
   58.9306   35.0746   48.1178 H   0  0  0  0  0  0  0  0  0  0  0  0
   61.2632   34.6012   48.8616 H   0  0  0  0  0  0  0  0  0  0  0  0
   62.4703   32.6020   47.9896 H   0  0  0  0  0  0  0  0  0  0  0  0
   61.3476   31.0605   46.3842 H   0  0  0  0  0  0  0  0  0  0  0  0
  1  2  1  0
  2  3  2  0
  2  4  1  0
  4  5  1  0
  5  6  1  0
  6  7  2  0
  7  8  1  0
  8  9  1  0
  9 10  1  0
 10 11  2  0
 10 12  1  0
 12 13  1  0
 13 14  1  0
 14 15  2  0
 15 16  1  0
 16 17  2  0
 17 18  1  0
 18 19  2  0
  7 20  1  0
 20 21  2  0
 21  5  1  0
 19  9  1  0
 19 14  1  0
  1 22  1  0
  4 23  1  0
  4 24  1  0
  6 25  1  0
  8 26  1  0
  8 27  1  0
 12 28  1  0
 12 29  1  0
 15 30  1  0
 16 31  1  0
 17 32  1  0
 18 33  1  0
M  CHG  1   1  -1
M  END
>  <UniqueID>  (72) 
64

>  <SMILES>  (72) 
[NH-]C(=O)Cn1cc(CN2C(=O)COc3ccccc32)nn1

>  <Energy>  (72) 
70.66191269913334

>  <Genealogy>  (72) 
[NH-]C(=O)Cn1cc(CN2C(=O)COc3ccccc32)nn1 (protonated)
[NH-]C(=O)Cn1cc(CN2C(=O)COc3ccccc32)nn1 (3D coordinates assigned)
[NH-]C(=O)Cn1cc(CN2C(=O)COc3ccccc32)nn1 (nonaromatic ring conformer: 70.66191269913334 kcal/mol)

>  <smiles>  (72) 
NC(=O)Cn1cc(CN2C(=O)COc3ccccc32)nn1

>  <score_type>  (72) 
oracle

>  <origin>  (72) 
adg

>  <m_score__min__energy>  (72) 
-10.529999999999999

>  <m_primary>  (72) 
energy

$$$$
72:0
     RDKit          3D

 37 38  0  0  0  0  0  0  0  0999 V2000
   57.4360   33.3770   45.3580 C   0  0  0  0  0  0  0  0  0  0  0  0
   57.7590   31.9310   45.7240 C   0  0  0  0  0  0  0  0  0  0  0  0
   57.2250   30.9600   44.6670 C   0  0  0  0  0  0  0  0  0  0  0  0
   57.5130   29.5300   45.0640 C   0  0  0  0  0  0  0  0  0  0  0  0
   56.4650   28.5930   45.1630 C   0  0  0  0  0  0  0  0  0  0  0  0
   55.1550   28.9610   44.8720 O   0  0  0  0  0  0  0  0  0  0  0  0
   56.7290   27.2790   45.5580 C   0  0  0  0  0  0  0  0  0  0  0  0
   58.0330   26.8810   45.8800 C   0  0  0  0  0  0  0  0  0  0  0  0
   58.3190   25.4550   46.2660 C   0  0  0  0  0  0  0  0  0  0  0  0
   57.1120   24.5950   46.0010 C   0  0  0  0  0  0  0  0  0  0  0  0
   56.1610   24.3860   47.0080 C   0  0  0  0  0  0  0  0  0  0  0  0
   55.0240   23.6200   46.7530 C   0  0  0  0  0  0  0  0  0  0  0  0
   54.8160   23.0600   45.4890 C   0  0  0  0  0  0  0  0  0  0  0  0
   53.6690   22.3010   45.2790 O   0  0  0  0  0  0  0  0  0  0  0  0
   55.7580   23.2680   44.4550 C   0  0  0  0  0  0  0  0  0  0  0  0
   55.5730   22.7120   43.1360 N   0  0  0  0  0  0  0  0  0  0  0  0
   54.7820   23.2300   42.3200 O   0  0  0  0  0  0  0  0  0  0  0  0
   56.2720   21.5910   42.7490 O   0  0  0  0  0  0  0  0  0  0  0  0
   56.9010   24.0430   44.7280 C   0  0  0  0  0  0  0  0  0  0  0  0
   59.0780   27.8110   45.7890 C   0  0  0  0  0  0  0  0  0  0  0  0
   58.8250   29.1330   45.3940 C   0  0  0  0  0  0  0  0  0  0  0  0
   59.8740   30.0500   45.3300 O   0  0  0  0  0  0  0  0  0  0  0  0
   57.3042   33.9671   46.2769 H   0  0  0  0  0  0  0  0  0  0  0  0
   58.2621   33.7988   44.7667 H   0  0  0  0  0  0  0  0  0  0  0  0
   56.5090   33.4072   44.7667 H   0  0  0  0  0  0  0  0  0  0  0  0
   58.8503   31.8150   45.7991 H   0  0  0  0  0  0  0  0  0  0  0  0
   57.2773   31.6990   46.6853 H   0  0  0  0  0  0  0  0  0  0  0  0
   56.1379   31.0957   44.5678 H   0  0  0  0  0  0  0  0  0  0  0  0
   57.7236   31.1693   43.7091 H   0  0  0  0  0  0  0  0  0  0  0  0
   55.9063   26.5512   45.6166 H   0  0  0  0  0  0  0  0  0  0  0  0
   59.1685   25.0816   45.6753 H   0  0  0  0  0  0  0  0  0  0  0  0
   58.5617   25.4141   47.3381 H   0  0  0  0  0  0  0  0  0  0  0  0
   56.3117   24.8279   48.0040 H   0  0  0  0  0  0  0  0  0  0  0  0
   54.2858   23.4553   47.5517 H   0  0  0  0  0  0  0  0  0  0  0  0
   57.6396   24.2185   43.9320 H   0  0  0  0  0  0  0  0  0  0  0  0
   60.1057   27.5013   46.0295 H   0  0  0  0  0  0  0  0  0  0  0  0
   60.8320   29.7530   45.1870 H   0  0  0  0  0  0  0  0  0  0  0  0
  1  2  1  0
  2  3  1  0
  3  4  1  0
  4  5  2  0
  5  6  1  0
  5  7  1  0
  7  8  2  0
  8  9  1  0
  9 10  1  0
 10 11  2  0
 11 12  1  0
 12 13  2  0
 13 14  1  0
 13 15  1  0
 15 16  1  0
 16 17  2  0
 16 18  1  0
 15 19  2  0
  8 20  1  0
 20 21  2  0
 21 22  1  0
 21  4  1  0
 19 10  1  0
  1 23  1  0
  1 24  1  0
  1 25  1  0
  2 26  1  0
  2 27  1  0
  3 28  1  0
  3 29  1  0
  7 30  1  0
  9 31  1  0
  9 32  1  0
 11 33  1  0
 12 34  1  0
 19 35  1  0
 20 36  1  0
 22 37  1  0
M  CHG  4   6  -1  14  -1  16   1  18  -1
M  END
>  <UniqueID>  (73) 
65

>  <SMILES>  (73) 
CCCc1c([O-])cc(Cc2ccc([O-])c([N+](=O)[O-])c2)cc1O

>  <Energy>  (73) 
34.30936741286785

>  <Genealogy>  (73) 
CCCc1c([O-])cc(Cc2ccc([O-])c([N+](=O)[O-])c2)cc1O (protonated)
CCCc1c([O-])cc(Cc2ccc([O-])c([N+](=O)[O-])c2)cc1O (3D coordinates assigned)
CCCc1c([O-])cc(Cc2ccc([O-])c([N+](=O)[O-])c2)cc1O (optimized conformer: 34.30936741286785 kcal/mol)

>  <smiles>  (73) 
CCCc1c(O)cc(Cc2ccc(O)c([N+](=O)[O-])c2)cc1O

>  <score_type>  (73) 
oracle

>  <origin>  (73) 
adg

>  <m_score__min__energy>  (73) 
-12.199999999999999

>  <m_primary>  (73) 
energy

$$$$
73:0
     RDKit          3D

 45 47  0  0  0  0  0  0  0  0999 V2000
   63.6160   33.3070   49.8610 C   0  0  0  0  0  0  0  0  0  0  0  0
   63.3320   32.1960   48.9380 N   0  0  0  0  0  0  0  0  0  0  0  0
   62.0690   31.5100   49.3110 C   0  0  0  0  0  0  0  0  0  0  0  0
   61.3470   30.9040   48.1050 C   0  0  0  0  0  0  0  0  0  0  0  0
   61.0730   31.9650   47.1350 N   0  0  0  0  0  0  0  0  0  0  0  0
   59.8570   31.9550   46.3710 C   0  0  0  0  0  0  0  0  0  0  0  0
   59.5000   30.8150   45.6490 C   0  0  0  0  0  0  0  0  0  0  0  0
   58.3170   30.7960   44.8990 C   0  0  0  0  0  0  0  0  0  0  0  0
   57.9220   29.6120   44.1770 N   0  0  0  0  0  0  0  0  0  0  0  0
   57.9490   28.4700   45.0600 C   0  0  0  0  0  0  0  0  0  0  0  0
   59.1780   27.8740   45.4010 C   0  0  0  0  0  0  0  0  0  0  0  0
   59.2160   26.7480   46.2290 C   0  0  0  0  0  0  0  0  0  0  0  0
   58.0290   26.2020   46.7210 C   0  0  0  0  0  0  0  0  0  0  0  0
   56.8020   26.7790   46.3870 C   0  0  0  0  0  0  0  0  0  0  0  0
   56.7550   27.9070   45.5600 C   0  0  0  0  0  0  0  0  0  0  0  0
   55.5200   28.4620   45.2430 O   0  0  0  0  0  0  0  0  0  0  0  0
   57.5030   31.9390   44.9000 C   0  0  0  0  0  0  0  0  0  0  0  0
   57.8540   33.0550   45.6110 N   0  0  0  0  0  0  0  0  0  0  0  0
   56.9870   34.2390   45.5720 C   0  0  0  0  0  0  0  0  0  0  0  0
   59.0190   33.0820   46.3330 C   0  0  0  0  0  0  0  0  0  0  0  0
   59.3540   34.1240   46.9610 O   0  0  0  0  0  0  0  0  0  0  0  0
   62.0570   33.0320   46.9290 C   0  0  0  0  0  0  0  0  0  0  0  0
   63.4180   32.6350   47.5220 C   0  0  0  0  0  0  0  0  0  0  0  0
   63.5257   32.9537   50.8988 H   0  0  0  0  0  0  0  0  0  0  0  0
   64.6374   33.6763   49.6870 H   0  0  0  0  0  0  0  0  0  0  0  0
   62.8971   34.1212   49.6870 H   0  0  0  0  0  0  0  0  0  0  0  0
   62.3031   30.7042   50.0223 H   0  0  0  0  0  0  0  0  0  0  0  0
   61.4006   32.2628   49.7543 H   0  0  0  0  0  0  0  0  0  0  0  0
   61.9830   30.1353   47.6418 H   0  0  0  0  0  0  0  0  0  0  0  0
   60.4028   30.4420   48.4291 H   0  0  0  0  0  0  0  0  0  0  0  0
   60.1502   29.9280   45.6690 H   0  0  0  0  0  0  0  0  0  0  0  0
   56.9580   29.7400   43.7880 H   0  0  0  0  0  0  0  0  0  0  0  0
   58.5520   29.4580   43.3570 H   0  0  0  0  0  0  0  0  0  0  0  0
   60.1160   28.2976   45.0129 H   0  0  0  0  0  0  0  0  0  0  0  0
   60.1817   26.2921   46.4929 H   0  0  0  0  0  0  0  0  0  0  0  0
   58.0603   25.3163   47.3725 H   0  0  0  0  0  0  0  0  0  0  0  0
   55.8688   26.3452   46.7754 H   0  0  0  0  0  0  0  0  0  0  0  0
   56.5681   31.9383   44.3204 H   0  0  0  0  0  0  0  0  0  0  0  0
   56.7542   34.5570   46.5990 H   0  0  0  0  0  0  0  0  0  0  0  0
   57.5032   35.0542   45.0439 H   0  0  0  0  0  0  0  0  0  0  0  0
   56.0539   33.9930   45.0439 H   0  0  0  0  0  0  0  0  0  0  0  0
   62.1720   33.2143   45.8503 H   0  0  0  0  0  0  0  0  0  0  0  0
   61.7028   33.9431   47.4334 H   0  0  0  0  0  0  0  0  0  0  0  0
   63.8327   31.8098   46.9244 H   0  0  0  0  0  0  0  0  0  0  0  0
   64.0602   33.5276   47.4943 H   0  0  0  0  0  0  0  0  0  0  0  0
  1  2  1  0
  2  3  1  0
  3  4  1  0
  4  5  1  0
  5  6  1  0
  6  7  2  0
  7  8  1  0
  8  9  1  0
  9 10  1  0
 10 11  2  0
 11 12  1  0
 12 13  2  0
 13 14  1  0
 14 15  2  0
 15 16  1  0
  8 17  2  0
 17 18  1  0
 18 19  1  0
 18 20  1  0
 20 21  2  0
  5 22  1  0
 22 23  1  0
 23  2  1  0
 20  6  1  0
 15 10  1  0
  1 24  1  0
  1 25  1  0
  1 26  1  0
  3 27  1  0
  3 28  1  0
  4 29  1  0
  4 30  1  0
  7 31  1  0
  9 32  1  0
  9 33  1  0
 11 34  1  0
 12 35  1  0
 13 36  1  0
 14 37  1  0
 17 38  1  0
 19 39  1  0
 19 40  1  0
 19 41  1  0
 22 42  1  0
 22 43  1  0
 23 44  1  0
 23 45  1  0
M  CHG  2   9   1  16  -1
M  END
>  <UniqueID>  (74) 
66

>  <SMILES>  (74) 
CN1CCN(c2cc([NH2+]c3ccccc3[O-])cn(C)c2=O)CC1

>  <Energy>  (74) 
63.119139247668706

>  <Genealogy>  (74) 
CN1CCN(c2cc([NH2+]c3ccccc3[O-])cn(C)c2=O)CC1 (protonated)
CN1CCN(c2cc([NH2+]c3ccccc3[O-])cn(C)c2=O)CC1 (3D coordinates assigned)
CN1CCN(c2cc([NH2+]c3ccccc3[O-])cn(C)c2=O)CC1 (nonaromatic ring conformer: 63.119139247668706 kcal/mol)

>  <smiles>  (74) 
CN1CCN(c2cc(Nc3ccccc3O)cn(C)c2=O)CC1

>  <score_type>  (74) 
oracle

>  <origin>  (74) 
adg

>  <m_score__min__energy>  (74) 
-9.3800000000000008

>  <m_primary>  (74) 
energy

$$$$
74:0
     RDKit          3D

 34 35  0  0  0  0  0  0  0  0999 V2000
   55.9570   21.4800   43.3500 O   0  0  0  0  0  0  0  0  0  0  0  0
   55.9210   21.7220   44.5850 C   0  0  0  0  0  0  0  0  0  0  0  0
   54.7100   21.6700   45.2620 O   0  0  0  0  0  0  0  0  0  0  0  0
   57.1700   22.1000   45.3160 C   0  0  0  0  0  0  0  0  0  0  0  0
   56.8380   22.7220   46.5910 N   0  0  0  0  0  0  0  0  0  0  0  0
   56.1050   23.9490   46.7110 C   0  0  0  0  0  0  0  0  0  0  0  0
   54.9230   23.9230   47.1500 O   0  0  0  0  0  0  0  0  0  0  0  0
   56.7380   25.2370   46.3190 C   0  0  0  0  0  0  0  0  0  0  0  0
   58.1410   25.3400   46.2910 C   0  0  0  0  0  0  0  0  0  0  0  0
   58.7600   26.5330   45.9160 C   0  0  0  0  0  0  0  0  0  0  0  0
   57.9940   27.6450   45.5730 C   0  0  0  0  0  0  0  0  0  0  0  0
   56.5920   27.5800   45.6170 C   0  0  0  0  0  0  0  0  0  0  0  0
   55.7730   28.6990   45.2490 N   0  0  0  0  0  0  0  0  0  0  0  0
   56.2220   30.0020   44.8520 C   0  0  0  0  0  0  0  0  0  0  0  0
   55.5090   30.7270   44.1080 O   0  0  0  0  0  0  0  0  0  0  0  0
   57.4880   30.5020   45.2970 N   0  0  0  0  0  0  0  0  0  0  0  0
   57.8120   31.8760   45.5550 C   0  0  0  0  0  0  0  0  0  0  0  0
   57.5700   32.8850   44.6040 C   0  0  0  0  0  0  0  0  0  0  0  0
   57.8740   34.2170   44.8970 C   0  0  0  0  0  0  0  0  0  0  0  0
   58.4050   34.5580   46.1440 C   0  0  0  0  0  0  0  0  0  0  0  0
   58.6230   33.5660   47.1030 C   0  0  0  0  0  0  0  0  0  0  0  0
   58.3210   32.2310   46.8150 C   0  0  0  0  0  0  0  0  0  0  0  0
   58.5350   31.2550   47.7820 O   0  0  0  0  0  0  0  0  0  0  0  0
   55.9660   26.3720   45.9710 C   0  0  0  0  0  0  0  0  0  0  0  0
   54.5750   26.3160   45.9750 O   0  0  0  0  0  0  0  0  0  0  0  0
   57.7719   21.1974   45.4978 H   0  0  0  0  0  0  0  0  0  0  0  0
   57.7407   22.8152   44.7055 H   0  0  0  0  0  0  0  0  0  0  0  0
   58.7562   24.4711   46.5676 H   0  0  0  0  0  0  0  0  0  0  0  0
   59.8579   26.5958   45.8911 H   0  0  0  0  0  0  0  0  0  0  0  0
   58.4896   28.5779   45.2664 H   0  0  0  0  0  0  0  0  0  0  0  0
   57.1397   32.6239   43.6259 H   0  0  0  0  0  0  0  0  0  0  0  0
   57.6950   34.9990   44.1444 H   0  0  0  0  0  0  0  0  0  0  0  0
   58.6509   35.6061   46.3700 H   0  0  0  0  0  0  0  0  0  0  0  0
   59.0333   33.8355   48.0874 H   0  0  0  0  0  0  0  0  0  0  0  0
  1  2  2  0
  2  3  1  0
  2  4  1  0
  4  5  1  0
  5  6  1  0
  6  7  2  0
  6  8  1  0
  8  9  2  0
  9 10  1  0
 10 11  2  0
 11 12  1  0
 12 13  1  0
 13 14  1  0
 14 15  2  0
 14 16  1  0
 16 17  1  0
 17 18  2  0
 18 19  1  0
 19 20  2  0
 20 21  1  0
 21 22  2  0
 22 23  1  0
 12 24  2  0
 24 25  1  0
 24  8  1  0
 22 17  1  0
  4 26  1  0
  4 27  1  0
  9 28  1  0
 10 29  1  0
 11 30  1  0
 18 31  1  0
 19 32  1  0
 20 33  1  0
 21 34  1  0
M  CHG  6   3  -1   5  -1  13  -1  16  -1  23  -1  25  -1
M  END
>  <UniqueID>  (75) 
67

>  <SMILES>  (75) 
O=C([O-])C[N-]C(=O)c1cccc([N-]C(=O)[N-]c2ccccc2[O-])c1[O-]

>  <Energy>  (75) 
42.18118633039218

>  <Genealogy>  (75) 
O=C([O-])C[N-]C(=O)c1cccc([N-]C(=O)[N-]c2ccccc2[O-])c1[O-] (protonated)
O=C([O-])C[N-]C(=O)c1cccc([N-]C(=O)[N-]c2ccccc2[O-])c1[O-] (3D coordinates assigned)
O=C([O-])C[N-]C(=O)c1cccc([N-]C(=O)[N-]c2ccccc2[O-])c1[O-] (optimized conformer: 42.18118633039218 kcal/mol)

>  <smiles>  (75) 
O=C(O)CNC(=O)c1cccc(NC(=O)Nc2ccccc2O)c1O

>  <score_type>  (75) 
oracle

>  <origin>  (75) 
adg

>  <m_score__min__energy>  (75) 
-19.02

>  <m_primary>  (75) 
energy

$$$$
75:0
     RDKit          3D

 54 56  0  0  0  0  0  0  0  0999 V2000
   59.6600   29.6480   45.2440 C   0  0  0  0  0  0  0  0  0  0  0  0
   58.9410   28.3500   45.5050 C   0  0  0  0  0  0  0  0  0  0  0  0
   59.2180   27.6540   46.6950 C   0  0  0  0  0  0  0  0  0  0  0  0
   58.6200   26.4240   46.9600 C   0  0  0  0  0  0  0  0  0  0  0  0
   57.7360   25.8570   46.0390 C   0  0  0  0  0  0  0  0  0  0  0  0
   56.9820   24.2960   46.3740 S   0  0  0  0  0  0  0  0  0  0  0  0
   55.4870   24.4580   46.3770 O   0  0  0  0  0  0  0  0  0  0  0  0
   57.4000   23.8250   47.7400 O   0  0  0  0  0  0  0  0  0  0  0  0
   57.4310   23.0940   45.1850 N   0  0  0  0  0  0  0  0  0  0  0  0
   57.1240   21.7230   45.6510 C   0  0  0  0  0  0  0  0  0  0  0  0
   55.8780   21.1430   44.9570 C   0  0  0  0  0  0  0  0  0  0  0  0
   55.9960   21.0930   43.5420 O   0  0  0  0  0  0  0  0  0  0  0  0
   56.7630   22.1570   42.9910 C   0  0  0  0  0  0  0  0  0  0  0  0
   56.8240   23.4110   43.8790 C   0  0  0  0  0  0  0  0  0  0  0  0
   57.4430   26.5390   44.8530 C   0  0  0  0  0  0  0  0  0  0  0  0
   58.0250   27.7910   44.5700 C   0  0  0  0  0  0  0  0  0  0  0  0
   57.6840   28.4530   43.3290 N   0  0  0  0  0  0  0  0  0  0  0  0
   57.0950   29.7400   43.6010 C   0  0  0  0  0  0  0  0  0  0  0  0
   55.5370   29.8250   44.1280 S   0  0  0  0  0  0  0  0  0  0  0  0
   57.8660   30.9340   43.3770 N   0  0  0  0  0  0  0  0  0  0  0  0
   57.4080   32.2900   43.6870 C   0  0  0  0  0  0  0  0  0  0  0  0
   57.0600   32.4390   45.1740 C   0  0  0  0  0  0  0  0  0  0  0  0
   58.0490   33.3190   45.8970 C   0  0  0  0  0  0  0  0  0  0  0  0
   58.3350   33.1000   47.2560 C   0  0  0  0  0  0  0  0  0  0  0  0
   59.2620   33.9090   47.9190 C   0  0  0  0  0  0  0  0  0  0  0  0
   59.9180   34.9340   47.2320 C   0  0  0  0  0  0  0  0  0  0  0  0
   59.6390   35.1580   45.8810 C   0  0  0  0  0  0  0  0  0  0  0  0
   58.7060   34.3570   45.2150 C   0  0  0  0  0  0  0  0  0  0  0  0
   59.9220   30.1211   46.2019 H   0  0  0  0  0  0  0  0  0  0  0  0
   60.5771   29.4501   44.6698 H   0  0  0  0  0  0  0  0  0  0  0  0
   59.0058   30.3205   44.6698 H   0  0  0  0  0  0  0  0  0  0  0  0
   59.9163   28.0866   47.4266 H   0  0  0  0  0  0  0  0  0  0  0  0
   58.8450   25.8968   47.8989 H   0  0  0  0  0  0  0  0  0  0  0  0
   57.9852   21.0735   45.4354 H   0  0  0  0  0  0  0  0  0  0  0  0
   56.9207   21.7690   46.7311 H   0  0  0  0  0  0  0  0  0  0  0  0
   55.7141   20.1213   45.3302 H   0  0  0  0  0  0  0  0  0  0  0  0
   55.0346   21.8094   45.1907 H   0  0  0  0  0  0  0  0  0  0  0  0
   57.7898   21.7963   42.8313 H   0  0  0  0  0  0  0  0  0  0  0  0
   56.2674   22.4543   42.0551 H   0  0  0  0  0  0  0  0  0  0  0  0
   57.4287   24.1804   43.3767 H   0  0  0  0  0  0  0  0  0  0  0  0
   55.8004   23.7785   44.0439 H   0  0  0  0  0  0  0  0  0  0  0  0
   56.7466   26.0904   44.1292 H   0  0  0  0  0  0  0  0  0  0  0  0
   57.0120   27.8460   42.8030 H   0  0  0  0  0  0  0  0  0  0  0  0
   58.5080   28.5960   42.7070 H   0  0  0  0  0  0  0  0  0  0  0  0
   58.8090   30.8390   42.9400 H   0  0  0  0  0  0  0  0  0  0  0  0
   58.2057   33.0036   43.4332 H   0  0  0  0  0  0  0  0  0  0  0  0
   56.5010   32.4914   43.0981 H   0  0  0  0  0  0  0  0  0  0  0  0
   56.0576   32.8834   45.2620 H   0  0  0  0  0  0  0  0  0  0  0  0
   57.0923   31.4402   45.6337 H   0  0  0  0  0  0  0  0  0  0  0  0
   57.8275   32.2893   47.7993 H   0  0  0  0  0  0  0  0  0  0  0  0
   59.4758   33.7384   48.9845 H   0  0  0  0  0  0  0  0  0  0  0  0
   60.6533   35.5639   47.7541 H   0  0  0  0  0  0  0  0  0  0  0  0
   60.1542   35.9658   45.3406 H   0  0  0  0  0  0  0  0  0  0  0  0
   58.4856   34.5403   44.1530 H   0  0  0  0  0  0  0  0  0  0  0  0
  1  2  1  0
  2  3  2  0
  3  4  1  0
  4  5  2  0
  5  6  1  0
  6  7  2  0
  6  8  2  0
  6  9  1  0
  9 10  1  0
 10 11  1  0
 11 12  1  0
 12 13  1  0
 13 14  1  0
  5 15  1  0
 15 16  2  0
 16 17  1  0
 17 18  1  0
 18 19  2  0
 18 20  1  0
 20 21  1  0
 21 22  1  0
 22 23  1  0
 23 24  2  0
 24 25  1  0
 25 26  2  0
 26 27  1  0
 27 28  2  0
 16  2  1  0
 28 23  1  0
 14  9  1  0
  1 29  1  0
  1 30  1  0
  1 31  1  0
  3 32  1  0
  4 33  1  0
 10 34  1  0
 10 35  1  0
 11 36  1  0
 11 37  1  0
 13 38  1  0
 13 39  1  0
 14 40  1  0
 14 41  1  0
 15 42  1  0
 17 43  1  0
 17 44  1  0
 20 45  1  0
 21 46  1  0
 21 47  1  0
 22 48  1  0
 22 49  1  0
 24 50  1  0
 25 51  1  0
 26 52  1  0
 27 53  1  0
 28 54  1  0
M  CHG  1  17   1
M  END
>  <UniqueID>  (76) 
68

>  <SMILES>  (76) 
Cc1ccc(S(=O)(=O)N2CCOCC2)cc1[NH2+]C(=S)NCCc1ccccc1

>  <Energy>  (76) 
61.815143848426004

>  <Genealogy>  (76) 
Cc1ccc(S(=O)(=O)N2CCOCC2)cc1[NH2+]C(=S)NCCc1ccccc1 (protonated)
Cc1ccc(S(=O)(=O)N2CCOCC2)cc1[NH2+]C(=S)NCCc1ccccc1 (3D coordinates assigned)
Cc1ccc(S(=O)(=O)N2CCOCC2)cc1[NH2+]C(=S)NCCc1ccccc1 (nonaromatic ring conformer: 61.815143848426004 kcal/mol)

>  <smiles>  (76) 
Cc1ccc(S(=O)(=O)N2CCOCC2)cc1NC(=S)NCCc1ccccc1

>  <score_type>  (76) 
oracle

>  <origin>  (76) 
adg

>  <m_score__min__energy>  (76) 
-9.4600000000000009

>  <m_primary>  (76) 
energy

$$$$
76:0
     RDKit          3D

 45 47  0  0  0  0  0  0  0  0999 V2000
   53.6040   26.3200   45.3900 H   0  0  0  0  0  0  0  0  0  0  0  0
   54.3940   25.9810   45.9830 N   0  0  0  0  0  0  0  0  0  0  0  0
   54.5500   24.2840   45.6920 S   0  0  0  0  0  0  0  0  0  0  0  0
   53.8080   23.9210   44.4380 O   0  0  0  0  0  0  0  0  0  0  0  0
   53.9580   23.5390   46.8560 O   0  0  0  0  0  0  0  0  0  0  0  0
   56.2500   23.8620   45.5110 C   0  0  0  0  0  0  0  0  0  0  0  0
   56.6130   22.5500   45.1810 C   0  0  0  0  0  0  0  0  0  0  0  0
   55.8353   21.7875   45.0271 H   0  0  0  0  0  0  0  0  0  0  0  0
   57.9610   22.2080   45.0470 C   0  0  0  0  0  0  0  0  0  0  0  0
   58.2425   21.1758   44.7913 H   0  0  0  0  0  0  0  0  0  0  0  0
   58.9520   23.1740   45.2370 C   0  0  0  0  0  0  0  0  0  0  0  0
   60.0118   22.8973   45.1357 H   0  0  0  0  0  0  0  0  0  0  0  0
   58.6030   24.4980   45.5570 C   0  0  0  0  0  0  0  0  0  0  0  0
   59.6470   25.5330   45.7500 C   0  0  0  0  0  0  0  0  0  0  0  0
   60.7640   25.2030   46.2290 O   0  0  0  0  0  0  0  0  0  0  0  0
   59.4390   26.9010   45.3690 N   0  0  0  0  0  0  0  0  0  0  0  0
   59.3740   28.0150   46.2700 C   0  0  0  0  0  0  0  0  0  0  0  0
   58.8160   27.8880   47.5530 C   0  0  0  0  0  0  0  0  0  0  0  0
   58.4572   26.9077   47.8996 H   0  0  0  0  0  0  0  0  0  0  0  0
   58.7150   29.0010   48.3900 C   0  0  0  0  0  0  0  0  0  0  0  0
   58.2708   28.8965   49.3909 H   0  0  0  0  0  0  0  0  0  0  0  0
   59.1780   30.2500   47.9580 C   0  0  0  0  0  0  0  0  0  0  0  0
   58.9320   31.6680   48.9710 S   0  0  0  0  0  0  0  0  0  0  0  0
   60.2480   32.3020   49.3250 O   0  0  0  0  0  0  0  0  0  0  0  0
   58.2290   31.2530   50.2330 O   0  0  0  0  0  0  0  0  0  0  0  0
   57.9550   32.8290   48.1260 N   0  0  0  0  0  0  0  0  0  0  0  0
   58.3680   33.5100   47.0980 C   0  0  0  0  0  0  0  0  0  0  0  0
   59.1560   34.6100   47.2570 N   0  0  0  0  0  0  0  0  0  0  0  0
   59.6130   35.3170   46.1920 C   0  0  0  0  0  0  0  0  0  0  0  0
   60.2483   36.2020   46.3439 H   0  0  0  0  0  0  0  0  0  0  0  0
   59.2690   34.9100   44.9040 C   0  0  0  0  0  0  0  0  0  0  0  0
   59.6345   35.4688   44.0298 H   0  0  0  0  0  0  0  0  0  0  0  0
   58.4790   33.8180   44.7370 N   0  0  0  0  0  0  0  0  0  0  0  0
   58.0180   33.1050   45.8030 C   0  0  0  0  0  0  0  0  0  0  0  0
   57.2080   31.9790   45.6130 O   0  0  0  0  0  0  0  0  0  0  0  0
   57.2010   31.2320   44.4020 C   0  0  0  0  0  0  0  0  0  0  0  0
   57.1909   30.1569   44.6344 H   0  0  0  0  0  0  0  0  0  0  0  0
   56.3052   31.4892   43.8177 H   0  0  0  0  0  0  0  0  0  0  0  0
   58.1014   31.4724   43.8177 H   0  0  0  0  0  0  0  0  0  0  0  0
   59.7850   30.3670   46.7000 C   0  0  0  0  0  0  0  0  0  0  0  0
   60.1795   31.3391   46.3692 H   0  0  0  0  0  0  0  0  0  0  0  0
   59.8900   29.2510   45.8650 C   0  0  0  0  0  0  0  0  0  0  0  0
   60.3806   29.3448   44.8849 H   0  0  0  0  0  0  0  0  0  0  0  0
   57.2450   24.8290   45.7100 C   0  0  0  0  0  0  0  0  0  0  0  0
   56.9613   25.8548   45.9880 H   0  0  0  0  0  0  0  0  0  0  0  0
  1  2  1  0
  2  3  1  0
  3  4  2  0
  3  5  2  0
  3  6  1  0
  6  7  2  0
  7  8  1  0
  7  9  1  0
  9 10  1  0
  9 11  2  0
 11 12  1  0
 11 13  1  0
 13 14  1  0
 14 15  2  0
 14 16  1  0
 16 17  1  0
 17 18  2  0
 18 19  1  0
 18 20  1  0
 20 21  1  0
 20 22  2  0
 22 23  1  0
 23 24  2  0
 23 25  2  0
 23 26  1  0
 26 27  2  0
 27 28  1  0
 28 29  1  0
 29 30  1  0
 29 31  2  0
 31 32  1  0
 31 33  1  0
 33 34  2  0
 34 35  1  0
 35 36  1  0
 36 37  1  0
 36 38  1  0
 36 39  1  0
 22 40  1  0
 40 41  1  0
 40 42  2  0
 42 43  1  0
 13 44  2  0
 44 45  1  0
 44  6  1  0
 42 17  1  0
 34 27  1  0
M  CHG  3   2  -1  16  -1  28  -1
M  END
>  <UniqueID>  (77) 
69

>  <SMILES>  (77) 
COc1ncc[n-]/c1=N\S(=O)(=O)c1ccc([N-]C(=O)c2cccc(S([NH-])(=O)=O)c2)cc1

>  <Energy>  (77) 
56.02715424006334

>  <Genealogy>  (77) 
COc1ncc[n-]c1=NS(=O)(=O)c1ccc([N-]C(=O)c2cccc(S([NH-])(=O)=O)c2)cc1 (protonated)
COc1ncc[n-]/c1=N\S(=O)(=O)c1ccc([N-]C(=O)c2cccc(S([NH-])(=O)=O)c2)cc1 (cis-trans isomerization)
COc1ncc[n-]/c1=N\S(=O)(=O)c1ccc([N-]C(=O)c2cccc(S([NH-])(=O)=O)c2)cc1 (3D coordinates assigned)
COc1ncc[n-]/c1=N\S(=O)(=O)c1ccc([N-]C(=O)c2cccc(S([NH-])(=O)=O)c2)cc1 (optimized conformer: 56.02715424006334 kcal/mol)

>  <smiles>  (77) 
COc1ncc[nH]c1=NS(=O)(=O)c1ccc(NC(=O)c2cccc(S(N)(=O)=O)c2)cc1

>  <score_type>  (77) 
oracle

>  <origin>  (77) 
adg

>  <m_score__min__energy>  (77) 
-13.130000000000001

>  <m_primary>  (77) 
energy

$$$$
77:0
     RDKit          3D

 44 46  0  0  0  0  0  0  0  0999 V2000
   58.6060   34.3820   45.0140 C   0  0  0  0  0  0  0  0  0  0  0  0
   58.5900   32.9700   46.1620 S   0  0  0  0  0  0  0  0  0  0  0  0
   57.9440   31.8280   44.9380 C   0  0  0  0  0  0  0  0  0  0  0  0
   57.6700   32.2740   43.6420 C   0  0  0  0  0  0  0  0  0  0  0  0
   57.1820   31.3810   42.6840 C   0  0  0  0  0  0  0  0  0  0  0  0
   56.9590   30.0420   43.0210 C   0  0  0  0  0  0  0  0  0  0  0  0
   57.2140   29.5900   44.3290 C   0  0  0  0  0  0  0  0  0  0  0  0
   57.0260   28.2200   44.7130 N   0  0  0  0  0  0  0  0  0  0  0  0
   57.8460   27.1040   44.3410 C   0  0  0  0  0  0  0  0  0  0  0  0
   57.7650   26.6050   43.1850 O   0  0  0  0  0  0  0  0  0  0  0  0
   58.7850   26.5060   45.3670 C   0  0  1  0  0  0  0  0  0  0  0  0
   59.8070   27.5400   45.8320 C   0  0  0  0  0  0  0  0  0  0  0  0
   59.2260   28.1200   47.1170 C   0  0  0  0  0  0  0  0  0  0  0  0
   58.0480   27.2200   47.4840 C   0  0  0  0  0  0  0  0  0  0  0  0
   58.1150   26.0590   46.5970 N   0  0  0  0  0  0  0  0  0  0  0  0
   56.5650   25.2780   46.3780 S   0  0  0  0  0  0  0  0  0  0  0  0
   55.5300   26.3010   45.9980 O   0  0  0  0  0  0  0  0  0  0  0  0
   56.1220   24.5910   47.6410 O   0  0  0  0  0  0  0  0  0  0  0  0
   56.7060   24.0890   45.0890 C   0  0  0  0  0  0  0  0  0  0  0  0
   55.7610   24.0570   44.0520 C   0  0  0  0  0  0  0  0  0  0  0  0
   55.8630   23.1000   43.0380 C   0  0  0  0  0  0  0  0  0  0  0  0
   56.9040   22.1680   43.0570 C   0  0  0  0  0  0  0  0  0  0  0  0
   57.8440   22.1910   44.0930 C   0  0  0  0  0  0  0  0  0  0  0  0
   57.7440   23.1470   45.1080 C   0  0  0  0  0  0  0  0  0  0  0  0
   57.7270   30.4870   45.2750 C   0  0  0  0  0  0  0  0  0  0  0  0
   58.6166   35.3207   45.5874 H   0  0  0  0  0  0  0  0  0  0  0  0
   59.5036   34.3292   44.3803 H   0  0  0  0  0  0  0  0  0  0  0  0
   57.7074   34.3496   44.3803 H   0  0  0  0  0  0  0  0  0  0  0  0
   57.8385   33.3280   43.3760 H   0  0  0  0  0  0  0  0  0  0  0  0
   56.9728   31.7320   41.6627 H   0  0  0  0  0  0  0  0  0  0  0  0
   56.5833   29.3404   42.2616 H   0  0  0  0  0  0  0  0  0  0  0  0
   59.2388   25.6480   44.8494 H   0  0  0  0  0  0  0  0  0  0  0  0
   60.7783   27.0623   46.0281 H   0  0  0  0  0  0  0  0  0  0  0  0
   59.9847   28.3155   45.0724 H   0  0  0  0  0  0  0  0  0  0  0  0
   59.9803   28.1092   47.9175 H   0  0  0  0  0  0  0  0  0  0  0  0
   58.9107   29.1653   46.9832 H   0  0  0  0  0  0  0  0  0  0  0  0
   58.1274   26.9005   48.5336 H   0  0  0  0  0  0  0  0  0  0  0  0
   57.0921   27.7520   47.3686 H   0  0  0  0  0  0  0  0  0  0  0  0
   54.9380   24.7867   44.0370 H   0  0  0  0  0  0  0  0  0  0  0  0
   55.1230   23.0806   42.2243 H   0  0  0  0  0  0  0  0  0  0  0  0
   56.9844   21.4165   42.2577 H   0  0  0  0  0  0  0  0  0  0  0  0
   58.6624   21.4562   44.1089 H   0  0  0  0  0  0  0  0  0  0  0  0
   58.4818   23.1601   45.9238 H   0  0  0  0  0  0  0  0  0  0  0  0
   57.9610   30.1347   46.2904 H   0  0  0  0  0  0  0  0  0  0  0  0
  1  2  1  0
  2  3  1  0
  3  4  2  0
  4  5  1  0
  5  6  2  0
  6  7  1  0
  7  8  1  0
  8  9  1  0
  9 10  2  0
  9 11  1  0
 11 12  1  0
 12 13  1  0
 13 14  1  0
 14 15  1  0
 15 16  1  0
 16 17  2  0
 16 18  2  0
 16 19  1  0
 19 20  2  0
 20 21  1  0
 21 22  2  0
 22 23  1  0
 23 24  2  0
  7 25  2  0
 25  3  1  0
 15 11  1  0
 24 19  1  0
  1 26  1  0
  1 27  1  0
  1 28  1  0
  4 29  1  0
  5 30  1  0
  6 31  1  0
 11 32  1  6
 12 33  1  0
 12 34  1  0
 13 35  1  0
 13 36  1  0
 14 37  1  0
 14 38  1  0
 20 39  1  0
 21 40  1  0
 22 41  1  0
 23 42  1  0
 24 43  1  0
 25 44  1  0
M  CHG  1   8  -1
M  END
>  <UniqueID>  (78) 
70

>  <SMILES>  (78) 
CSc1cccc([N-]C(=O)[C@H]2CCCN2S(=O)(=O)c2ccccc2)c1

>  <Energy>  (78) 
50.257395613252356

>  <Genealogy>  (78) 
CSc1cccc([N-]C(=O)C2CCCN2S(=O)(=O)c2ccccc2)c1 (protonated)
CSc1cccc([N-]C(=O)[C@H]2CCCN2S(=O)(=O)c2ccccc2)c1 (chirality)
CSc1cccc([N-]C(=O)[C@H]2CCCN2S(=O)(=O)c2ccccc2)c1 (3D coordinates assigned)
CSc1cccc([N-]C(=O)[C@H]2CCCN2S(=O)(=O)c2ccccc2)c1 (nonaromatic ring conformer: 50.257395613252356 kcal/mol)

>  <smiles>  (78) 
CSc1cccc(NC(=O)C2CCCN2S(=O)(=O)c2ccccc2)c1

>  <score_type>  (78) 
oracle

>  <origin>  (78) 
adg

>  <m_score__min__energy>  (78) 
-9.6500000000000004

>  <m_primary>  (78) 
energy

$$$$
78:0
     RDKit          3D

 98102  0  0  0  0  0  0  0  0999 V2000
   59.6910   35.4440   46.4770 C   0  0  0  0  0  0  0  0  0  0  0  0
   60.5200   34.5280   45.7670 O   0  0  0  0  0  0  0  0  0  0  0  0
   61.4850   33.7030   46.3640 C   0  0  0  0  0  0  0  0  0  0  0  0
   62.8570   34.0160   46.3540 C   0  0  0  0  0  0  0  0  0  0  0  0
   63.7800   33.1480   46.9450 C   0  0  0  0  0  0  0  0  0  0  0  0
   63.3470   31.9630   47.5470 C   0  0  0  0  0  0  0  0  0  0  0  0
   61.9810   31.6430   47.5740 C   0  0  0  0  0  0  0  0  0  0  0  0
   61.5160   30.3410   48.1740 C   0  0  0  0  0  0  0  0  0  0  0  0
   60.5470   29.6220   47.2670 C   0  0  0  0  0  0  0  0  0  0  0  0
   60.9550   29.2070   46.1480 O   0  0  0  0  0  0  0  0  0  0  0  0
   59.1850   29.3530   47.6860 N   0  0  0  0  0  0  0  0  0  0  0  0
   58.8790   29.3050   49.1400 C   0  0  0  0  0  0  0  0  0  0  0  0
   58.5200   30.7010   49.6800 C   0  0  0  0  0  0  0  0  0  0  0  0
   58.3210   30.6580   51.2040 C   0  0  0  0  0  0  0  0  0  0  0  0
   59.4370   30.0010   51.9430 N   0  0  0  0  0  0  0  0  0  0  0  0
   59.9540   30.8490   53.0390 C   0  0  0  0  0  0  0  0  0  0  0  0
   59.5040   32.3060   52.8610 C   0  0  0  0  0  0  0  0  0  0  0  0
   60.2940   32.9920   51.7770 C   0  0  0  0  0  0  0  0  0  0  0  0
   59.6320   33.6100   50.7040 C   0  0  0  0  0  0  0  0  0  0  0  0
   60.3650   34.2030   49.6720 C   0  0  0  0  0  0  0  0  0  0  0  0
   61.7620   34.1740   49.6970 C   0  0  0  0  0  0  0  0  0  0  0  0
   62.4290   33.5570   50.7600 C   0  0  0  0  0  0  0  0  0  0  0  0
   61.6990   32.9650   51.7950 C   0  0  0  0  0  0  0  0  0  0  0  0
   60.5420   29.5310   51.0830 C   0  0  0  0  0  0  0  0  0  0  0  0
   60.0110   28.6360   49.9570 C   0  0  0  0  0  0  0  0  0  0  0  0
   58.1680   28.9020   46.6960 C   0  0  1  0  0  0  0  0  0  0  0  0
   58.2490   29.6660   45.3340 C   0  0  0  0  0  0  0  0  0  0  0  0
   57.7370   31.1300   45.3010 C   0  0  0  0  0  0  0  0  0  0  0  0
   58.1110   31.9510   46.5520 C   0  0  0  0  0  0  0  0  0  0  0  0
   57.3670   33.3010   46.5820 C   0  0  0  0  0  0  0  0  0  0  0  0
   57.1020   33.8930   45.1820 C   0  0  0  0  0  0  0  0  0  0  0  0
   58.1180   33.4050   44.1460 C   0  0  0  0  0  0  0  0  0  0  0  0
   58.0700   31.8730   43.9850 C   0  0  0  0  0  0  0  0  0  0  0  0
   58.2600   27.4120   46.4570 C   0  0  0  0  0  0  0  0  0  0  0  0
   58.7490   26.6420   47.3300 O   0  0  0  0  0  0  0  0  0  0  0  0
   57.7610   26.8730   45.2260 N   0  0  0  0  0  0  0  0  0  0  0  0
   57.0570   25.5980   45.1200 C   0  0  1  0  0  0  0  0  0  0  0  0
   58.0620   24.4520   45.3330 C   0  0  0  0  0  0  0  0  0  0  0  0
   57.5910   23.1660   44.7010 C   0  0  0  0  0  0  0  0  0  0  0  0
   57.0020   23.1800   43.4250 C   0  0  0  0  0  0  0  0  0  0  0  0
   56.5520   21.9900   42.8420 C   0  0  0  0  0  0  0  0  0  0  0  0
   56.6830   20.7800   43.5300 C   0  0  0  0  0  0  0  0  0  0  0  0
   57.2560   20.7590   44.8060 C   0  0  0  0  0  0  0  0  0  0  0  0
   57.7080   21.9460   45.3920 C   0  0  0  0  0  0  0  0  0  0  0  0
   55.9520   25.5340   46.1400 C   0  0  0  0  0  0  0  0  0  0  0  0
   54.8010   26.3670   46.0080 N   0  0  0  0  0  0  0  0  0  0  0  0
   56.0470   24.7500   47.1220 O   0  0  0  0  0  0  0  0  0  0  0  0
   61.0580   32.5210   46.9820 C   0  0  0  0  0  0  0  0  0  0  0  0
   59.8244   35.2966   47.5589 H   0  0  0  0  0  0  0  0  0  0  0  0
   59.9702   36.4740   46.2101 H   0  0  0  0  0  0  0  0  0  0  0  0
   58.6384   35.2686   46.2101 H   0  0  0  0  0  0  0  0  0  0  0  0
   63.2041   34.9460   45.8800 H   0  0  0  0  0  0  0  0  0  0  0  0
   64.8511   33.3985   46.9362 H   0  0  0  0  0  0  0  0  0  0  0  0
   64.0794   31.2792   48.0010 H   0  0  0  0  0  0  0  0  0  0  0  0
   62.3899   29.6953   48.3452 H   0  0  0  0  0  0  0  0  0  0  0  0
   60.9993   30.5645   49.1190 H   0  0  0  0  0  0  0  0  0  0  0  0
   57.9923   28.6662   49.2653 H   0  0  0  0  0  0  0  0  0  0  0  0
   59.3343   31.4011   49.4415 H   0  0  0  0  0  0  0  0  0  0  0  0
   57.5826   31.0325   49.2096 H   0  0  0  0  0  0  0  0  0  0  0  0
   58.2249   31.6910   51.5696 H   0  0  0  0  0  0  0  0  0  0  0  0
   57.4187   30.0571   51.3903 H   0  0  0  0  0  0  0  0  0  0  0  0
   59.5739   30.4690   53.9987 H   0  0  0  0  0  0  0  0  0  0  0  0
   61.0533   30.8153   53.0217 H   0  0  0  0  0  0  0  0  0  0  0  0
   58.4374   32.3218   52.5923 H   0  0  0  0  0  0  0  0  0  0  0  0
   59.6737   32.8409   53.8071 H   0  0  0  0  0  0  0  0  0  0  0  0
   58.5325   33.6276   50.6754 H   0  0  0  0  0  0  0  0  0  0  0  0
   59.8411   34.6935   48.8384 H   0  0  0  0  0  0  0  0  0  0  0  0
   62.3367   34.6363   48.8809 H   0  0  0  0  0  0  0  0  0  0  0  0
   63.5286   33.5374   50.7818 H   0  0  0  0  0  0  0  0  0  0  0  0
   62.2267   32.4759   52.6271 H   0  0  0  0  0  0  0  0  0  0  0  0
   61.0516   30.4007   50.6427 H   0  0  0  0  0  0  0  0  0  0  0  0
   61.2436   28.9472   51.6970 H   0  0  0  0  0  0  0  0  0  0  0  0
   60.8417   28.3979   49.2764 H   0  0  0  0  0  0  0  0  0  0  0  0
   59.5922   27.7319   50.4231 H   0  0  0  0  0  0  0  0  0  0  0  0
   57.1916   29.1403   47.1431 H   0  0  0  0  0  0  0  0  0  0  0  0
   59.3050   29.6795   45.0264 H   0  0  0  0  0  0  0  0  0  0  0  0
   57.5702   29.1172   44.6647 H   0  0  0  0  0  0  0  0  0  0  0  0
   56.6414   31.0345   45.3261 H   0  0  0  0  0  0  0  0  0  0  0  0
   57.8444   31.3754   47.4507 H   0  0  0  0  0  0  0  0  0  0  0  0
   59.1921   32.1521   46.5237 H   0  0  0  0  0  0  0  0  0  0  0  0
   56.4003   33.1539   47.0858 H   0  0  0  0  0  0  0  0  0  0  0  0
   58.0135   34.0132   47.1156 H   0  0  0  0  0  0  0  0  0  0  0  0
   56.0940   33.5960   44.8568 H   0  0  0  0  0  0  0  0  0  0  0  0
   57.1931   34.9868   45.2551 H   0  0  0  0  0  0  0  0  0  0  0  0
   57.8928   33.8734   43.1765 H   0  0  0  0  0  0  0  0  0  0  0  0
   59.1243   33.6841   44.4918 H   0  0  0  0  0  0  0  0  0  0  0  0
   57.3007   31.6241   43.2391 H   0  0  0  0  0  0  0  0  0  0  0  0
   59.0724   31.5466   43.6709 H   0  0  0  0  0  0  0  0  0  0  0  0
   56.6064   25.5014   44.1212 H   0  0  0  0  0  0  0  0  0  0  0  0
   59.0256   24.7363   44.8851 H   0  0  0  0  0  0  0  0  0  0  0  0
   58.1621   24.2832   46.4154 H   0  0  0  0  0  0  0  0  0  0  0  0
   56.8942   24.1306   42.8821 H   0  0  0  0  0  0  0  0  0  0  0  0
   56.0949   22.0067   41.8416 H   0  0  0  0  0  0  0  0  0  0  0  0
   56.3354   19.8443   43.0679 H   0  0  0  0  0  0  0  0  0  0  0  0
   57.3513   19.8074   45.3495 H   0  0  0  0  0  0  0  0  0  0  0  0
   58.1564   21.9255   46.3963 H   0  0  0  0  0  0  0  0  0  0  0  0
   54.5620   27.0720   46.7400 H   0  0  0  0  0  0  0  0  0  0  0  0
   59.9856   32.2769   47.0041 H   0  0  0  0  0  0  0  0  0  0  0  0
  1  2  1  0
  2  3  1  0
  3  4  2  0
  4  5  1  0
  5  6  2  0
  6  7  1  0
  7  8  1  0
  8  9  1  0
  9 10  2  0
  9 11  1  0
 11 12  1  0
 12 13  1  0
 13 14  1  0
 14 15  1  0
 15 16  1  0
 16 17  1  0
 17 18  1  0
 18 19  2  0
 19 20  1  0
 20 21  2  0
 21 22  1  0
 22 23  2  0
 15 24  1  0
 24 25  1  0
 11 26  1  0
 26 27  1  0
 27 28  1  0
 28 29  1  0
 29 30  1  0
 30 31  1  0
 31 32  1  0
 32 33  1  0
 26 34  1  0
 34 35  2  0
 34 36  1  0
 36 37  1  0
 37 38  1  0
 38 39  1  0
 39 40  2  0
 40 41  1  0
 41 42  2  0
 42 43  1  0
 43 44  2  0
 37 45  1  0
 45 46  1  0
 45 47  2  0
  7 48  2  0
 48  3  1  0
 25 12  1  0
 33 28  1  0
 44 39  1  0
 23 18  1  0
  1 49  1  0
  1 50  1  0
  1 51  1  0
  4 52  1  0
  5 53  1  0
  6 54  1  0
  8 55  1  0
  8 56  1  0
 12 57  1  0
 13 58  1  0
 13 59  1  0
 14 60  1  0
 14 61  1  0
 16 62  1  0
 16 63  1  0
 17 64  1  0
 17 65  1  0
 19 66  1  0
 20 67  1  0
 21 68  1  0
 22 69  1  0
 23 70  1  0
 24 71  1  0
 24 72  1  0
 25 73  1  0
 25 74  1  0
 26 75  1  1
 27 76  1  0
 27 77  1  0
 28 78  1  0
 29 79  1  0
 29 80  1  0
 30 81  1  0
 30 82  1  0
 31 83  1  0
 31 84  1  0
 32 85  1  0
 32 86  1  0
 33 87  1  0
 33 88  1  0
 37 89  1  6
 38 90  1  0
 38 91  1  0
 40 92  1  0
 41 93  1  0
 42 94  1  0
 43 95  1  0
 44 96  1  0
 46 97  1  0
 48 98  1  0
M  CHG  2  36  -1  46  -1
M  END
>  <UniqueID>  (79) 
71

>  <SMILES>  (79) 
COc1cccc(CC(=O)N(C2CCN(CCc3ccccc3)CC2)[C@@H](CC2CCCCC2)C(=O)[N-][C@@H](Cc2ccccc2)C([NH-])=O)c1

>  <Energy>  (79) 
108.12728698327216

>  <Genealogy>  (79) 
COc1cccc(CC(=O)N(C2CCN(CCc3ccccc3)CC2)C(CC2CCCCC2)C(=O)[N-]C(Cc2ccccc2)C([NH-])=O)c1 (protonated)
COc1cccc(CC(=O)N(C2CCN(CCc3ccccc3)CC2)[C@@H](CC2CCCCC2)C(=O)[N-][C@@H](Cc2ccccc2)C([NH-])=O)c1 (chirality)
COc1cccc(CC(=O)N(C2CCN(CCc3ccccc3)CC2)[C@@H](CC2CCCCC2)C(=O)[N-][C@@H](Cc2ccccc2)C([NH-])=O)c1 (3D coordinates assigned)
COc1cccc(CC(=O)N(C2CCN(CCc3ccccc3)CC2)[C@@H](CC2CCCCC2)C(=O)[N-][C@@H](Cc2ccccc2)C([NH-])=O)c1 (nonaromatic ring conformer: 108.12728698327216 kcal/mol)

>  <smiles>  (79) 
COc1cccc(CC(=O)N(C2CCN(CCc3ccccc3)CC2)C(CC2CCCCC2)C(=O)NC(Cc2ccccc2)C(N)=O)c1

>  <score_type>  (79) 
oracle

>  <origin>  (79) 
adg

>  <m_score__min__energy>  (79) 
-16.18

>  <m_primary>  (79) 
energy

$$$$
79:0
     RDKit          3D

 60 63  0  0  0  0  0  0  0  0999 V2000
   54.8480   29.3410   45.8830 H   0  0  0  0  0  0  0  0  0  0  0  0
   55.1480   29.3460   44.8850 N   0  0  0  0  0  0  0  0  0  0  0  0
   56.8650   29.5510   44.8550 S   0  0  0  0  0  0  0  0  0  0  0  0
   57.3770   29.4180   43.4480 O   0  0  0  0  0  0  0  0  0  0  0  0
   57.1780   30.9370   45.3520 O   0  0  0  0  0  0  0  0  0  0  0  0
   57.6490   28.3490   45.8960 C   0  0  0  0  0  0  0  0  0  0  0  0
   57.2270   27.0110   45.8180 C   0  0  0  0  0  0  0  0  0  0  0  0
   56.3972   26.7397   45.1488 H   0  0  0  0  0  0  0  0  0  0  0  0
   57.8510   26.0220   46.5820 C   0  0  0  0  0  0  0  0  0  0  0  0
   57.5118   24.9781   46.5095 H   0  0  0  0  0  0  0  0  0  0  0  0
   58.9020   26.3530   47.4360 C   0  0  0  0  0  0  0  0  0  0  0  0
   59.3936   25.5710   48.0333 H   0  0  0  0  0  0  0  0  0  0  0  0
   59.3300   27.6800   47.5320 C   0  0  0  0  0  0  0  0  0  0  0  0
   60.1643   27.9367   48.2014 H   0  0  0  0  0  0  0  0  0  0  0  0
   58.7040   28.6890   46.7810 C   0  0  0  0  0  0  0  0  0  0  0  0
   59.1850   30.0760   46.9430 C   0  0  0  0  0  0  0  0  0  0  0  0
   58.4620   30.9950   47.7190 C   0  0  0  0  0  0  0  0  0  0  0  0
   57.5209   30.6867   48.1979 H   0  0  0  0  0  0  0  0  0  0  0  0
   58.9330   32.3010   47.8860 C   0  0  0  0  0  0  0  0  0  0  0  0
   58.3512   33.0216   48.4794 H   0  0  0  0  0  0  0  0  0  0  0  0
   60.1460   32.6960   47.2990 C   0  0  0  0  0  0  0  0  0  0  0  0
   60.6640   34.0980   47.4950 C   0  0  0  0  0  0  0  0  0  0  0  0
   59.8636   34.8127   47.2530 H   0  0  0  0  0  0  0  0  0  0  0  0
   61.5298   34.2439   46.8324 H   0  0  0  0  0  0  0  0  0  0  0  0
   61.0970   34.3170   48.8750 N   0  0  0  0  0  0  0  0  0  0  0  0
   62.2300   33.9180   49.3760 C   0  0  0  0  0  0  0  0  0  0  0  0
   62.4810   34.0280   50.7120 N   0  0  0  0  0  0  0  0  0  0  0  0
   63.6640   33.6350   51.2560 C   0  0  0  0  0  0  0  0  0  0  0  0
   63.8316   33.7417   52.3379 H   0  0  0  0  0  0  0  0  0  0  0  0
   64.6680   33.0960   50.4460 C   0  0  0  0  0  0  0  0  0  0  0  0
   65.9370   32.6540   51.0550 C   0  0  0  0  0  0  0  0  0  0  0  0
   66.8640   33.4980   51.1890 O   0  0  0  0  0  0  0  0  0  0  0  0
   66.1590   31.2800   51.4340 N   0  0  0  0  0  0  0  0  0  0  0  0
   65.0590   30.4610   51.9640 C   0  0  0  0  0  0  0  0  0  0  0  0
   64.3203   30.2980   51.1654 H   0  0  0  0  0  0  0  0  0  0  0  0
   64.6127   30.9986   52.8136 H   0  0  0  0  0  0  0  0  0  0  0  0
   65.5510   29.1000   52.4690 C   0  0  0  0  0  0  0  0  0  0  0  0
   64.6855   28.4433   52.6413 H   0  0  0  0  0  0  0  0  0  0  0  0
   66.1070   29.2479   53.4065 H   0  0  0  0  0  0  0  0  0  0  0  0
   66.4430   28.4760   51.4800 N   0  0  0  0  0  0  0  0  0  0  0  0
   66.3960   27.0490   51.2630 C   0  0  0  0  0  0  0  0  0  0  0  0
   65.7030   26.3160   52.0220 O   0  0  0  0  0  0  0  0  0  0  0  0
   67.1720   26.4020   50.1530 C   0  0  0  0  0  0  0  0  0  0  0  0
   67.9506   25.7528   50.5799 H   0  0  0  0  0  0  0  0  0  0  0  0
   66.4919   25.7997   49.5328 H   0  0  0  0  0  0  0  0  0  0  0  0
   67.6422   27.1793   49.5328 H   0  0  0  0  0  0  0  0  0  0  0  0
   67.4700   29.2920   50.8090 C   0  0  0  0  0  0  0  0  0  0  0  0
   67.2445   29.3333   49.7332 H   0  0  0  0  0  0  0  0  0  0  0  0
   68.4492   28.8251   50.9913 H   0  0  0  0  0  0  0  0  0  0  0  0
   67.5150   30.7210   51.3610 C   0  0  0  0  0  0  0  0  0  0  0  0
   68.1308   31.3471   50.6986 H   0  0  0  0  0  0  0  0  0  0  0  0
   67.9499   30.7018   52.3712 H   0  0  0  0  0  0  0  0  0  0  0  0
   64.4160   32.9380   49.0760 C   0  0  0  0  0  0  0  0  0  0  0  0
   65.1753   32.4773   48.4270 H   0  0  0  0  0  0  0  0  0  0  0  0
   63.2020   33.3650   48.5350 C   0  0  0  0  0  0  0  0  0  0  0  0
   63.0110   33.2675   47.4561 H   0  0  0  0  0  0  0  0  0  0  0  0
   60.8750   31.7710   46.5310 C   0  0  0  0  0  0  0  0  0  0  0  0
   61.8234   32.0743   46.0635 H   0  0  0  0  0  0  0  0  0  0  0  0
   60.4000   30.4680   46.3590 C   0  0  0  0  0  0  0  0  0  0  0  0
   60.9800   29.7471   45.7641 H   0  0  0  0  0  0  0  0  0  0  0  0
  1  2  1  0
  2  3  1  0
  3  4  2  0
  3  5  2  0
  3  6  1  0
  6  7  2  0
  7  8  1  0
  7  9  1  0
  9 10  1  0
  9 11  2  0
 11 12  1  0
 11 13  1  0
 13 14  1  0
 13 15  2  0
 15 16  1  0
 16 17  2  0
 17 18  1  0
 17 19  1  0
 19 20  1  0
 19 21  2  0
 21 22  1  0
 22 23  1  0
 22 24  1  0
 22 25  1  0
 25 26  2  0
 26 27  1  0
 27 28  1  0
 28 29  1  0
 28 30  2  0
 30 31  1  0
 31 32  2  0
 31 33  1  0
 33 34  1  0
 34 35  1  0
 34 36  1  0
 34 37  1  0
 37 38  1  0
 37 39  1  0
 37 40  1  0
 40 41  1  0
 41 42  2  0
 41 43  1  0
 43 44  1  0
 43 45  1  0
 43 46  1  0
 40 47  1  0
 47 48  1  0
 47 49  1  0
 47 50  1  0
 50 51  1  0
 50 52  1  0
 30 53  1  0
 53 54  1  0
 53 55  2  0
 55 56  1  0
 21 57  1  0
 57 58  1  0
 57 59  2  0
 59 60  1  0
 15  6  1  0
 59 16  1  0
 55 26  1  0
 50 33  1  0
M  CHG  2   2  -1  27  -1
M  END
>  <UniqueID>  (80) 
72

>  <SMILES>  (80) 
CC(=O)N1CCN(C(=O)c2cc/c(=N/Cc3ccc(-c4ccccc4S([NH-])(=O)=O)cc3)[n-]c2)CC1

>  <Energy>  (80) 
79.85964257786804

>  <Genealogy>  (80) 
CC(=O)N1CCN(C(=O)c2ccc(=NCc3ccc(-c4ccccc4S([NH-])(=O)=O)cc3)[n-]c2)CC1 (protonated)
CC(=O)N1CCN(C(=O)c2cc/c(=N/Cc3ccc(-c4ccccc4S([NH-])(=O)=O)cc3)[n-]c2)CC1 (cis-trans isomerization)
CC(=O)N1CCN(C(=O)c2cc/c(=N/Cc3ccc(-c4ccccc4S([NH-])(=O)=O)cc3)[n-]c2)CC1 (3D coordinates assigned)
CC(=O)N1CCN(C(=O)c2cc/c(=N/Cc3ccc(-c4ccccc4S([NH-])(=O)=O)cc3)[n-]c2)CC1 (nonaromatic ring conformer: 79.85964257786804 kcal/mol)

>  <smiles>  (80) 
CC(=O)N1CCN(C(=O)c2ccc(=NCc3ccc(-c4ccccc4S(N)(=O)=O)cc3)[nH]c2)CC1

>  <score_type>  (80) 
oracle

>  <origin>  (80) 
adg

>  <m_score__min__energy>  (80) 
-13.19

>  <m_primary>  (80) 
energy

$$$$
80:0
     RDKit          3D

 48 51  0  0  0  0  0  0  0  0999 V2000
   55.0310   28.5390   53.0300 O   0  0  0  0  0  0  0  0  0  0  0  0
   55.6900   29.5540   52.6810 C   0  0  0  0  0  0  0  0  0  0  0  0
   55.0130   30.9010   52.6660 C   0  0  0  0  0  0  0  0  0  0  0  0
   53.7560   30.8980   51.8340 C   0  0  0  0  0  0  0  0  0  0  0  0
   53.6160   30.0060   50.7570 C   0  0  0  0  0  0  0  0  0  0  0  0
   52.4470   30.0040   49.9900 C   0  0  0  0  0  0  0  0  0  0  0  0
   51.4150   30.8990   50.2820 C   0  0  0  0  0  0  0  0  0  0  0  0
   51.5540   31.8080   51.3350 C   0  0  0  0  0  0  0  0  0  0  0  0
   50.5290   32.7010   51.6210 O   0  0  0  0  0  0  0  0  0  0  0  0
   52.7240   31.8150   52.1030 C   0  0  0  0  0  0  0  0  0  0  0  0
   57.0360   29.3800   52.2200 N   0  0  0  0  0  0  0  0  0  0  0  0
   57.7710   30.3340   51.4470 C   0  0  0  0  0  0  0  0  0  0  0  0
   57.9610   31.6420   51.9140 C   0  0  0  0  0  0  0  0  0  0  0  0
   58.6960   32.5570   51.1570 C   0  0  0  0  0  0  0  0  0  0  0  0
   59.2590   32.1670   49.9400 C   0  0  0  0  0  0  0  0  0  0  0  0
   59.0960   30.8530   49.4710 C   0  0  0  0  0  0  0  0  0  0  0  0
   59.7180   30.4300   48.1640 C   0  0  0  0  0  0  0  0  0  0  0  0
   58.8010   30.7240   47.0040 C   0  0  0  0  0  0  0  0  0  0  0  0
   58.0470   29.7060   46.5110 N   0  0  0  0  0  0  0  0  0  0  0  0
   57.2250   29.8700   45.4770 N   0  0  0  0  0  0  0  0  0  0  0  0
   57.1020   31.0640   44.8470 C   0  0  0  0  0  0  0  0  0  0  0  0
   56.3010   31.1740   43.8800 O   0  0  0  0  0  0  0  0  0  0  0  0
   57.8660   32.1570   45.2790 C   0  0  0  0  0  0  0  0  0  0  0  0
   58.7160   31.9960   46.3920 C   0  0  0  0  0  0  0  0  0  0  0  0
   59.4950   33.1150   46.8570 N   0  0  0  0  0  0  0  0  0  0  0  0
   59.2770   34.4610   46.3330 C   0  0  0  0  0  0  0  0  0  0  0  0
   58.9490   34.3970   44.8430 C   0  0  0  0  0  0  0  0  0  0  0  0
   57.7220   33.5090   44.6110 C   0  0  0  0  0  0  0  0  0  0  0  0
   58.3700   29.9330   50.2480 C   0  0  0  0  0  0  0  0  0  0  0  0
   54.7537   31.1785   53.6983 H   0  0  0  0  0  0  0  0  0  0  0  0
   55.7112   31.6246   52.2199 H   0  0  0  0  0  0  0  0  0  0  0  0
   54.4299   29.3062   50.5164 H   0  0  0  0  0  0  0  0  0  0  0  0
   52.3397   29.2962   49.1549 H   0  0  0  0  0  0  0  0  0  0  0  0
   50.4924   30.8885   49.6830 H   0  0  0  0  0  0  0  0  0  0  0  0
   52.8371   32.5414   52.9212 H   0  0  0  0  0  0  0  0  0  0  0  0
   57.5303   31.9484   52.8787 H   0  0  0  0  0  0  0  0  0  0  0  0
   58.8316   33.5865   51.5200 H   0  0  0  0  0  0  0  0  0  0  0  0
   59.8332   32.8927   49.3454 H   0  0  0  0  0  0  0  0  0  0  0  0
   60.6622   30.9763   48.0225 H   0  0  0  0  0  0  0  0  0  0  0  0
   59.8991   29.3456   48.1990 H   0  0  0  0  0  0  0  0  0  0  0  0
   60.2200   33.0010   47.5970 H   0  0  0  0  0  0  0  0  0  0  0  0
   58.4391   34.9293   46.8702 H   0  0  0  0  0  0  0  0  0  0  0  0
   60.1916   35.0553   46.4752 H   0  0  0  0  0  0  0  0  0  0  0  0
   58.7391   35.4114   44.4729 H   0  0  0  0  0  0  0  0  0  0  0  0
   59.8081   33.9717   44.3034 H   0  0  0  0  0  0  0  0  0  0  0  0
   56.8350   34.0147   45.0203 H   0  0  0  0  0  0  0  0  0  0  0  0
   57.6215   33.3441   43.5281 H   0  0  0  0  0  0  0  0  0  0  0  0
   58.2723   28.8906   49.9107 H   0  0  0  0  0  0  0  0  0  0  0  0
  1  2  2  0
  2  3  1  0
  3  4  1  0
  4  5  2  0
  5  6  1  0
  6  7  2  0
  7  8  1  0
  8  9  1  0
  8 10  2  0
  2 11  1  0
 11 12  1  0
 12 13  2  0
 13 14  1  0
 14 15  2  0
 15 16  1  0
 16 17  1  0
 17 18  1  0
 18 19  2  0
 19 20  1  0
 20 21  1  0
 21 22  2  0
 21 23  1  0
 23 24  2  0
 24 25  1  0
 25 26  1  0
 26 27  1  0
 27 28  1  0
 16 29  2  0
 10  4  1  0
 29 12  1  0
 24 18  1  0
 28 23  1  0
  3 30  1  0
  3 31  1  0
  5 32  1  0
  6 33  1  0
  7 34  1  0
 10 35  1  0
 13 36  1  0
 14 37  1  0
 15 38  1  0
 17 39  1  0
 17 40  1  0
 25 41  1  0
 26 42  1  0
 26 43  1  0
 27 44  1  0
 27 45  1  0
 28 46  1  0
 28 47  1  0
 29 48  1  0
M  CHG  3   9  -1  11  -1  20  -1
M  END
>  <UniqueID>  (81) 
73

>  <SMILES>  (81) 
O=C(Cc1cccc([O-])c1)[N-]c1cccc(Cc2n[n-]c(=O)c3c2NCCC3)c1

>  <Energy>  (81) 
57.57824184364066

>  <Genealogy>  (81) 
O=C(Cc1cccc([O-])c1)[N-]c1cccc(Cc2n[n-]c(=O)c3c2NCCC3)c1 (protonated)
O=C(Cc1cccc([O-])c1)[N-]c1cccc(Cc2n[n-]c(=O)c3c2NCCC3)c1 (3D coordinates assigned)
O=C(Cc1cccc([O-])c1)[N-]c1cccc(Cc2n[n-]c(=O)c3c2NCCC3)c1 (nonaromatic ring conformer: 57.57824184364066 kcal/mol)

>  <smiles>  (81) 
O=C(Cc1cccc(O)c1)Nc1cccc(Cc2n[nH]c(=O)c3c2NCCC3)c1

>  <score_type>  (81) 
oracle

>  <origin>  (81) 
adg

>  <m_score__min__energy>  (81) 
-15.859999999999999

>  <m_primary>  (81) 
energy

$$$$
81:0
     RDKit          3D

 22 22  0  0  0  0  0  0  0  0999 V2000
   57.7470   31.9750   42.2080 C   0  0  0  0  0  0  0  0  0  0  0  0
   57.9710   32.4840   43.4230 C   0  0  0  0  0  0  0  0  0  0  0  0
   58.0350   31.6080   44.6420 C   0  0  0  0  0  0  0  0  0  0  0  0
   56.7260   31.0330   44.9280 N   0  0  0  0  0  0  0  0  0  0  0  0
   56.3320   29.7210   44.5110 C   0  0  0  0  0  0  0  0  0  0  0  0
   55.1480   29.3230   44.6880 O   0  0  0  0  0  0  0  0  0  0  0  0
   57.3470   28.8020   43.9110 C   0  0  0  0  0  0  0  0  0  0  0  0
   57.8410   27.8430   44.9500 C   0  0  0  0  0  0  0  0  0  0  0  0
   59.4650   27.5940   45.3260 S   0  0  0  0  0  0  0  0  0  0  0  0
   59.1000   26.5280   46.5730 C   0  0  0  0  0  0  0  0  0  0  0  0
   59.9610   25.9530   47.2870 O   0  0  0  0  0  0  0  0  0  0  0  0
   57.7730   26.3550   46.7370 N   0  0  0  0  0  0  0  0  0  0  0  0
   57.0650   27.0920   45.8400 C   0  0  0  0  0  0  0  0  0  0  0  0
   55.6720   27.0820   45.8420 O   0  0  0  0  0  0  0  0  0  0  0  0
   57.7051   32.6396   41.3324 H   0  0  0  0  0  0  0  0  0  0  0  0
   57.6045   30.8914   42.0833 H   0  0  0  0  0  0  0  0  0  0  0  0
   58.1118   33.5694   43.5333 H   0  0  0  0  0  0  0  0  0  0  0  0
   58.7563   30.7962   44.4667 H   0  0  0  0  0  0  0  0  0  0  0  0
   58.3509   32.2176   45.5015 H   0  0  0  0  0  0  0  0  0  0  0  0
   56.8874   28.2400   43.0846 H   0  0  0  0  0  0  0  0  0  0  0  0
   58.1931   29.3938   43.5317 H   0  0  0  0  0  0  0  0  0  0  0  0
   55.1300   27.9260   45.9780 H   0  0  0  0  0  0  0  0  0  0  0  0
  1  2  2  0
  2  3  1  0
  3  4  1  0
  4  5  1  0
  5  6  2  0
  5  7  1  0
  7  8  1  0
  8  9  1  0
  9 10  1  0
 10 11  2  0
 10 12  1  0
 12 13  1  0
 13 14  1  0
 13  8  2  0
  1 15  1  0
  1 16  1  0
  2 17  1  0
  3 18  1  0
  3 19  1  0
  7 20  1  0
  7 21  1  0
 14 22  1  0
M  CHG  2   4  -1  12  -1
M  END
>  <UniqueID>  (82) 
74

>  <SMILES>  (82) 
C=CC[N-]C(=O)Cc1sc(=O)[n-]c1O

>  <Energy>  (82) 
42.93348860031856

>  <Genealogy>  (82) 
C=CC[N-]C(=O)Cc1sc(=O)[n-]c1O (protonated)
C=CC[N-]C(=O)Cc1sc(=O)[n-]c1O (3D coordinates assigned)
C=CC[N-]C(=O)Cc1sc(=O)[n-]c1O (optimized conformer: 42.93348860031856 kcal/mol)

>  <smiles>  (82) 
C=CCNC(=O)Cc1sc(=O)[nH]c1O

>  <score_type>  (82) 
oracle

>  <origin>  (82) 
adg

>  <m_score__min__energy>  (82) 
-10.1

>  <m_primary>  (82) 
energy

$$$$
82:0
     RDKit          3D

 51 54  0  0  0  0  0  0  0  0999 V2000
   64.2000   33.4050   49.2060 C   0  0  0  0  0  0  0  0  0  0  0  0
   62.8890   33.6840   48.5510 C   0  0  0  0  0  0  0  0  0  0  0  0
   61.7980   33.9830   49.3050 N   0  0  0  0  0  0  0  0  0  0  0  0
   60.5920   34.2220   48.7280 C   0  0  0  0  0  0  0  0  0  0  0  0
   60.4590   34.1620   47.3320 C   0  0  0  0  0  0  0  0  0  0  0  0
   59.2370   34.3780   46.6810 O   0  0  0  0  0  0  0  0  0  0  0  0
   58.6370   33.4970   45.7690 C   0  0  0  0  0  0  0  0  0  0  0  0
   58.7090   33.7020   44.3800 C   0  0  0  0  0  0  0  0  0  0  0  0
   58.1160   32.7910   43.5010 C   0  0  0  0  0  0  0  0  0  0  0  0
   57.4480   31.6620   43.9960 C   0  0  0  0  0  0  0  0  0  0  0  0
   56.8380   30.6690   43.0430 C   0  0  0  0  0  0  0  0  0  0  0  0
   56.9090   29.3220   43.6040 N   0  0  0  0  0  0  0  0  0  0  0  0
   58.1330   28.7570   44.0970 C   0  0  0  0  0  0  0  0  0  0  0  0
   59.1820   29.4550   44.1190 O   0  0  0  0  0  0  0  0  0  0  0  0
   58.1630   27.3620   44.5770 C   0  0  0  0  0  0  0  0  0  0  0  0
   57.7800   26.3060   43.8360 N   0  0  0  0  0  0  0  0  0  0  0  0
   57.9360   25.2350   44.6010 N   0  0  0  0  0  0  0  0  0  0  0  0
   57.6300   23.8950   44.1760 C   0  0  0  0  0  0  0  0  0  0  0  0
   56.5650   23.6510   43.2890 C   0  0  0  0  0  0  0  0  0  0  0  0
   56.2730   22.3480   42.8760 C   0  0  0  0  0  0  0  0  0  0  0  0
   57.0370   21.2760   43.3420 C   0  0  0  0  0  0  0  0  0  0  0  0
   58.0970   21.5050   44.2230 C   0  0  0  0  0  0  0  0  0  0  0  0
   58.3940   22.8070   44.6380 C   0  0  0  0  0  0  0  0  0  0  0  0
   58.4000   25.5430   45.8040 N   0  0  0  0  0  0  0  0  0  0  0  0
   58.5630   26.8780   45.8140 C   0  0  0  0  0  0  0  0  0  0  0  0
   59.0210   27.6460   47.0180 C   0  0  0  0  0  0  0  0  0  0  0  0
   59.3740   26.7630   48.0470 O   0  0  0  0  0  0  0  0  0  0  0  0
   57.3960   31.4450   45.3830 C   0  0  0  0  0  0  0  0  0  0  0  0
   57.9920   32.3560   46.2590 C   0  0  0  0  0  0  0  0  0  0  0  0
   61.5870   33.8250   46.5810 C   0  0  0  0  0  0  0  0  0  0  0  0
   62.7750   33.5960   47.1990 N   0  0  0  0  0  0  0  0  0  0  0  0
   64.0768   33.4312   50.2988 H   0  0  0  0  0  0  0  0  0  0  0  0
   64.5580   32.4106   48.9011 H   0  0  0  0  0  0  0  0  0  0  0  0
   64.9319   34.1675   48.9011 H   0  0  0  0  0  0  0  0  0  0  0  0
   59.7202   34.4624   49.3542 H   0  0  0  0  0  0  0  0  0  0  0  0
   59.2343   34.5832   43.9831 H   0  0  0  0  0  0  0  0  0  0  0  0
   58.1737   32.9607   42.4157 H   0  0  0  0  0  0  0  0  0  0  0  0
   55.7851   30.9341   42.8667 H   0  0  0  0  0  0  0  0  0  0  0  0
   57.3951   30.6927   42.0948 H   0  0  0  0  0  0  0  0  0  0  0  0
   56.0300   28.7580   43.6410 H   0  0  0  0  0  0  0  0  0  0  0  0
   55.9587   24.4908   42.9185 H   0  0  0  0  0  0  0  0  0  0  0  0
   55.4391   22.1665   42.1820 H   0  0  0  0  0  0  0  0  0  0  0  0
   56.8044   20.2516   43.0156 H   0  0  0  0  0  0  0  0  0  0  0  0
   58.6984   20.6604   44.5905 H   0  0  0  0  0  0  0  0  0  0  0  0
   59.2306   22.9820   45.3304 H   0  0  0  0  0  0  0  0  0  0  0  0
   59.8942   28.2582   46.7484 H   0  0  0  0  0  0  0  0  0  0  0  0
   58.2023   28.2937   47.3646 H   0  0  0  0  0  0  0  0  0  0  0  0
   59.1750   25.8470   47.7190 H   0  0  0  0  0  0  0  0  0  0  0  0
   56.8848   30.5557   45.7804 H   0  0  0  0  0  0  0  0  0  0  0  0
   57.9538   32.1746   47.3433 H   0  0  0  0  0  0  0  0  0  0  0  0
   61.5135   33.7448   45.4864 H   0  0  0  0  0  0  0  0  0  0  0  0
  1  2  1  0
  2  3  2  0
  3  4  1  0
  4  5  2  0
  5  6  1  0
  6  7  1  0
  7  8  2  0
  8  9  1  0
  9 10  2  0
 10 11  1  0
 11 12  1  0
 12 13  1  0
 13 14  2  0
 13 15  1  0
 15 16  2  0
 16 17  1  0
 17 18  1  0
 18 19  2  0
 19 20  1  0
 20 21  2  0
 21 22  1  0
 22 23  2  0
 17 24  1  0
 24 25  2  0
 25 26  1  0
 26 27  1  0
 10 28  1  0
 28 29  2  0
  5 30  1  0
 30 31  2  0
 31  2  1  0
 29  7  1  0
 25 15  1  0
 23 18  1  0
  1 32  1  0
  1 33  1  0
  1 34  1  0
  4 35  1  0
  8 36  1  0
  9 37  1  0
 11 38  1  0
 11 39  1  0
 12 40  1  0
 19 41  1  0
 20 42  1  0
 21 43  1  0
 22 44  1  0
 23 45  1  0
 26 46  1  0
 26 47  1  0
 27 48  1  0
 28 49  1  0
 29 50  1  0
 30 51  1  0
M  END
>  <UniqueID>  (83) 
75

>  <SMILES>  (83) 
Cc1ncc(Oc2ccc(CNC(=O)c3nn(-c4ccccc4)nc3CO)cc2)cn1

>  <Energy>  (83) 
93.32401571218456

>  <Genealogy>  (83) 
Cc1ncc(Oc2ccc(CNC(=O)c3nn(-c4ccccc4)nc3CO)cc2)cn1 (3D coordinates assigned)
Cc1ncc(Oc2ccc(CNC(=O)c3nn(-c4ccccc4)nc3CO)cc2)cn1 (optimized conformer: 93.32401571218456 kcal/mol)

>  <smiles>  (83) 
Cc1ncc(Oc2ccc(CNC(=O)c3nn(-c4ccccc4)nc3CO)cc2)cn1

>  <score_type>  (83) 
oracle

>  <origin>  (83) 
adg

>  <m_score__min__energy>  (83) 
-8.3800000000000008

>  <m_primary>  (83) 
energy

$$$$
83:0
     RDKit          3D

 53 56  0  0  1  0  0  0  0  0999 V2000
   56.2750   21.9370   42.5960 N   0  0  0  0  0  0  0  0  0  0  0  0
   56.4090   22.8240   43.3380 C   0  0  0  0  0  0  0  0  0  0  0  0
   56.5560   23.9250   44.2500 C   0  0  0  0  0  0  0  0  0  0  0  0
   55.8780   23.9880   45.4500 C   0  0  0  0  0  0  0  0  0  0  0  0
   56.0640   25.0720   46.2800 C   0  0  0  0  0  0  0  0  0  0  0  0
   56.9050   26.1250   45.9770 C   0  0  0  0  0  0  0  0  0  0  0  0
   57.5830   26.0620   44.7770 C   0  0  0  0  0  0  0  0  0  0  0  0
   60.8320   29.7800   47.0920 N   0  0  0  0  0  0  0  0  0  0  0  0
   59.8290   29.5790   46.3130 C   0  0  0  0  0  0  0  0  0  0  0  0
   59.6980   28.3820   45.7220 N   0  0  0  0  0  0  0  0  0  0  0  0
   58.6460   28.1900   44.9110 C   0  0  0  0  0  0  0  0  0  0  0  0
   58.4790   27.0550   44.3220 N   0  0  0  0  0  0  0  0  0  0  0  0
   61.2710   31.3690   47.5240 S   0  0  0  0  0  0  0  0  0  0  0  0
   60.9990   32.3030   46.3780 O   0  0  0  0  0  0  0  0  0  0  0  0
   62.7300   31.5040   47.8740 O   0  0  0  0  0  0  0  0  0  0  0  0
   60.3300   31.9740   48.8720 C   0  0  0  0  0  0  0  0  0  0  0  0
   60.6190   33.2820   49.2780 C   0  0  0  0  0  0  0  0  0  0  0  0
   59.9430   33.8680   50.3300 C   0  0  0  0  0  0  0  0  0  0  0  0
   58.9730   33.1010   50.9580 C   0  0  0  0  0  0  0  0  0  0  0  0
   58.6810   31.8060   50.5640 C   0  0  0  0  0  0  0  0  0  0  0  0
   57.6520   31.0340   51.2520 C   0  0  0  0  0  0  0  0  0  0  0  0
   56.6400   31.5800   52.0360 C   0  0  0  0  0  0  0  0  0  0  0  0
   55.8740   30.5200   52.5090 C   0  0  0  0  0  0  0  0  0  0  0  0
   56.4470   29.4090   52.0010 N   0  0  0  0  0  0  0  0  0  0  0  0
   57.4640   29.7390   51.2850 O   0  0  0  0  0  0  0  0  0  0  0  0
   59.3660   31.2380   49.5120 C   0  0  0  0  0  0  0  0  0  0  0  0
   58.9620   30.5830   46.1290 N   0  0  0  0  0  0  0  0  0  0  0  0
   57.8620   30.4550   45.3130 C   0  0  0  0  0  0  0  0  0  0  0  0
   57.0620   31.5290   45.2090 O   0  0  0  0  0  0  0  0  0  0  0  0
   57.1340   32.8640   45.0300 C   0  0  0  0  0  0  0  0  0  0  0  0
   57.7240   33.7040   46.1390 C   0  0  0  0  0  0  0  0  0  0  0  0
   57.7430   32.9840   47.3520 O   0  0  0  0  0  0  0  0  0  0  0  0
   57.7290   29.2300   44.7080 C   0  0  0  0  0  0  0  0  0  0  0  0
   56.6870   28.9700   43.8700 O   0  0  0  0  0  0  0  0  0  0  0  0
   57.3930   24.9640   43.9430 C   0  0  0  0  0  0  0  0  0  0  0  0
   55.1934   23.1781   45.7422 H   0  0  0  0  0  0  0  0  0  0  0  0
   55.5147   25.1003   47.2326 H   0  0  0  0  0  0  0  0  0  0  0  0
   57.0288   26.9765   46.6623 H   0  0  0  0  0  0  0  0  0  0  0  0
   60.3580   27.5850   45.8490 H   0  0  0  0  0  0  0  0  0  0  0  0
   61.3975   33.8526   48.7504 H   0  0  0  0  0  0  0  0  0  0  0  0
   60.1636   34.8955   50.6548 H   0  0  0  0  0  0  0  0  0  0  0  0
   58.4153   33.5373   51.7998 H   0  0  0  0  0  0  0  0  0  0  0  0
   56.4769   32.6481   52.2425 H   0  0  0  0  0  0  0  0  0  0  0  0
   54.9886   30.5755   53.1594 H   0  0  0  0  0  0  0  0  0  0  0  0
   59.1430   30.2099   49.1905 H   0  0  0  0  0  0  0  0  0  0  0  0
   59.1350   31.4980   46.6300 H   0  0  0  0  0  0  0  0  0  0  0  0
   57.7413   33.0398   44.1298 H   0  0  0  0  0  0  0  0  0  0  0  0
   56.0842   33.1876   44.9730 H   0  0  0  0  0  0  0  0  0  0  0  0
   58.7526   33.9864   45.8703 H   0  0  0  0  0  0  0  0  0  0  0  0
   57.1041   34.6031   46.2704 H   0  0  0  0  0  0  0  0  0  0  0  0
   57.3970   32.0580   47.2340 H   0  0  0  0  0  0  0  0  0  0  0  0
   56.6430   28.0970   43.3640 H   0  0  0  0  0  0  0  0  0  0  0  0
   57.9422   24.9293   42.9906 H   0  0  0  0  0  0  0  0  0  0  0  0
  1  2  3  0
  2  3  1  0
  3  4  2  0
  4  5  1  0
  5  6  2  0
  6  7  1  0
  7  8  1  0
  8  9  2  0
  9 10  1  0
 10 11  1  0
 11 12  2  0
 12 13  1  0
 13 14  2  0
 13 15  2  0
 13 16  1  0
 16 17  2  0
 17 18  1  0
 18 19  2  0
 19 20  1  0
 20 21  1  0
 21 22  2  0
 22 23  1  0
 23 24  2  0
 24 25  1  0
 20 26  2  0
 11 27  1  0
 27 28  1  0
 28 29  1  0
 29 30  1  0
 30 31  1  0
 31 32  1  0
 28 33  2  0
 33 34  1  0
  7 35  2  0
 35  3  1  0
 33  9  1  0
 26 16  1  0
 25 21  1  0
  4 36  1  0
  5 37  1  0
  6 38  1  0
 10 39  1  0
 17 40  1  0
 18 41  1  0
 19 42  1  0
 22 43  1  0
 23 44  1  0
 26 45  1  0
 27 46  1  0
 30 47  1  0
 30 48  1  0
 31 49  1  0
 31 50  1  0
 32 51  1  0
 34 52  1  0
 35 53  1  0
M  END
>  <smiles>  (84) 
N#Cc1cccc(N=c2[nH]c(=NS(=O)(=O)c3cccc(-c4ccno4)c3)[nH]c(OCCO)c2O)c1

>  <score_type>  (84) 
oracle

>  <origin>  (84) 
adg

>  <m_score__min__energy>  (84) 
-10.25

>  <m_primary>  (84) 
energy

$$$$
84:0
     RDKit          3D

 42 44  0  0  0  0  0  0  0  0999 V2000
   55.2970   24.3180   46.8530 O   0  0  0  0  0  0  0  0  0  0  0  0
   55.4810   25.1180   45.8960 C   0  0  0  0  0  0  0  0  0  0  0  0
   54.8250   26.3420   45.8930 O   0  0  0  0  0  0  0  0  0  0  0  0
   56.3770   24.7780   44.7780 C   0  0  0  0  0  0  0  0  0  0  0  0
   57.6790   25.1000   44.7770 C   0  0  0  0  0  0  0  0  0  0  0  0
   58.2130   26.2220   45.5760 C   0  0  0  0  0  0  0  0  0  0  0  0
   58.9100   27.2610   44.9420 C   0  0  0  0  0  0  0  0  0  0  0  0
   59.4160   28.3150   45.7070 C   0  0  0  0  0  0  0  0  0  0  0  0
   59.2250   28.3290   47.0940 C   0  0  0  0  0  0  0  0  0  0  0  0
   59.9260   29.5970   48.0910 S   0  0  0  0  0  0  0  0  0  0  0  0
   61.0920   29.0560   48.8720 O   0  0  0  0  0  0  0  0  0  0  0  0
   58.8870   30.1180   49.0450 O   0  0  0  0  0  0  0  0  0  0  0  0
   60.4480   30.8650   47.0370 N   0  0  0  0  0  0  0  0  0  0  0  0
   59.9230   32.1960   47.0160 C   0  0  0  0  0  0  0  0  0  0  0  0
   60.7180   33.2970   47.3830 C   0  0  0  0  0  0  0  0  0  0  0  0
   60.2090   34.5960   47.2940 C   0  0  0  0  0  0  0  0  0  0  0  0
   58.9130   34.8070   46.8220 C   0  0  0  0  0  0  0  0  0  0  0  0
   58.1160   33.7220   46.4510 C   0  0  0  0  0  0  0  0  0  0  0  0
   58.6010   32.4130   46.5640 C   0  0  0  0  0  0  0  0  0  0  0  0
   57.7590   31.3530   46.1920 O   0  0  0  0  0  0  0  0  0  0  0  0
   57.3650   31.0650   44.8760 C   0  0  0  0  0  0  0  0  0  0  0  0
   57.7800   31.9160   43.8440 C   0  0  0  0  0  0  0  0  0  0  0  0
   57.4300   31.6420   42.5170 C   0  0  0  0  0  0  0  0  0  0  0  0
   56.6480   30.5230   42.2160 C   0  0  0  0  0  0  0  0  0  0  0  0
   56.2010   29.6880   43.2440 C   0  0  0  0  0  0  0  0  0  0  0  0
   56.5510   29.9570   44.5710 C   0  0  0  0  0  0  0  0  0  0  0  0
   58.5290   27.2730   47.6920 C   0  0  0  0  0  0  0  0  0  0  0  0
   58.0440   26.2570   46.9290 N   0  0  0  0  0  0  0  0  0  0  0  0
   55.9634   24.2403   43.9121 H   0  0  0  0  0  0  0  0  0  0  0  0
   58.3724   24.5089   44.1607 H   0  0  0  0  0  0  0  0  0  0  0  0
   59.0570   27.2462   43.8520 H   0  0  0  0  0  0  0  0  0  0  0  0
   59.9647   29.1342   45.2194 H   0  0  0  0  0  0  0  0  0  0  0  0
   61.7452   33.1350   47.7418 H   0  0  0  0  0  0  0  0  0  0  0  0
   60.8303   35.4520   47.5961 H   0  0  0  0  0  0  0  0  0  0  0  0
   58.5181   35.8306   46.7419 H   0  0  0  0  0  0  0  0  0  0  0  0
   57.1000   33.8967   46.0673 H   0  0  0  0  0  0  0  0  0  0  0  0
   58.3845   32.8048   44.0778 H   0  0  0  0  0  0  0  0  0  0  0  0
   57.7705   32.3077   41.7102 H   0  0  0  0  0  0  0  0  0  0  0  0
   56.3848   30.2999   41.1715 H   0  0  0  0  0  0  0  0  0  0  0  0
   55.5721   28.8168   43.0085 H   0  0  0  0  0  0  0  0  0  0  0  0
   56.1899   29.3022   45.3777 H   0  0  0  0  0  0  0  0  0  0  0  0
   58.3738   27.2644   48.7810 H   0  0  0  0  0  0  0  0  0  0  0  0
  1  2  2  0
  2  3  1  0
  2  4  1  0
  4  5  2  3
  5  6  1  0
  6  7  2  0
  7  8  1  0
  8  9  2  0
  9 10  1  0
 10 11  2  0
 10 12  2  0
 10 13  1  0
 13 14  1  0
 14 15  2  0
 15 16  1  0
 16 17  2  0
 17 18  1  0
 18 19  2  0
 19 20  1  0
 20 21  1  0
 21 22  2  0
 22 23  1  0
 23 24  2  0
 24 25  1  0
 25 26  2  0
  9 27  1  0
 27 28  2  0
 28  6  1  0
 19 14  1  0
 26 21  1  0
  4 29  1  0
  5 30  1  0
  7 31  1  0
  8 32  1  0
 15 33  1  0
 16 34  1  0
 17 35  1  0
 18 36  1  0
 22 37  1  0
 23 38  1  0
 24 39  1  0
 25 40  1  0
 26 41  1  0
 27 42  1  0
M  CHG  2   3  -1  13  -1
M  END
>  <UniqueID>  (85) 
76

>  <SMILES>  (85) 
O=C([O-])C=Cc1ccc(S(=O)(=O)[N-]c2ccccc2Oc2ccccc2)cn1

>  <Energy>  (85) 
53.967105340917385

>  <Genealogy>  (85) 
O=C([O-])C=Cc1ccc(S(=O)(=O)[N-]c2ccccc2Oc2ccccc2)cn1 (protonated)
O=C([O-])C=Cc1ccc(S(=O)(=O)[N-]c2ccccc2Oc2ccccc2)cn1 (3D coordinates assigned)
O=C([O-])C=Cc1ccc(S(=O)(=O)[N-]c2ccccc2Oc2ccccc2)cn1 (optimized conformer: 53.967105340917385 kcal/mol)

>  <smiles>  (85) 
O=C(O)C=Cc1ccc(S(=O)(=O)Nc2ccccc2Oc2ccccc2)cn1

>  <score_type>  (85) 
oracle

>  <origin>  (85) 
adg

>  <m_score__min__energy>  (85) 
-12.26

>  <m_primary>  (85) 
energy

$$$$
85:0
     RDKit          3D

 39 41  0  0  0  0  0  0  0  0999 V2000
   58.2450   34.3190   44.5580 C   0  0  0  0  0  0  0  0  0  0  0  0
   57.8930   32.8880   44.8280 C   0  0  0  0  0  0  0  0  0  0  0  0
   57.0970   32.1040   44.0180 C   0  0  0  0  0  0  0  0  0  0  0  0
   57.0110   30.8970   44.6880 C   0  0  0  0  0  0  0  0  0  0  0  0
   56.2340   29.7140   44.2750 C   0  0  0  0  0  0  0  0  0  0  0  0
   55.9780   29.5480   43.0540 O   0  0  0  0  0  0  0  0  0  0  0  0
   55.8120   28.7160   45.2130 N   0  0  0  0  0  0  0  0  0  0  0  0
   56.5820   27.5860   45.6470 C   0  0  0  0  0  0  0  0  0  0  0  0
   57.9840   27.6520   45.7530 C   0  0  0  0  0  0  0  0  0  0  0  0
   58.7100   26.5420   46.1980 C   0  0  0  0  0  0  0  0  0  0  0  0
   58.0430   25.3690   46.5560 C   0  0  0  0  0  0  0  0  0  0  0  0
   56.6490   25.3030   46.4770 C   0  0  0  0  0  0  0  0  0  0  0  0
   55.9190   26.4100   46.0300 C   0  0  0  0  0  0  0  0  0  0  0  0
   54.5320   26.3350   45.9620 O   0  0  0  0  0  0  0  0  0  0  0  0
   57.7100   30.9610   45.8390 N   0  0  0  0  0  0  0  0  0  0  0  0
   58.2600   32.1640   45.9110 N   0  0  0  0  0  0  0  0  0  0  0  0
   59.0780   32.5820   47.0180 C   0  0  0  0  0  0  0  0  0  0  0  0
   58.5030   32.7400   48.2880 C   0  0  0  0  0  0  0  0  0  0  0  0
   59.2910   33.1260   49.3770 C   0  0  0  0  0  0  0  0  0  0  0  0
   60.6590   33.3470   49.2080 C   0  0  0  0  0  0  0  0  0  0  0  0
   61.2500   33.1790   47.9480 C   0  0  0  0  0  0  0  0  0  0  0  0
   62.9800   33.4220   47.7370 S   0  0  0  0  0  0  0  0  0  0  0  0
   63.7680   31.8890   47.6190 N   0  0  0  0  0  0  0  0  0  0  0  0
   63.5370   34.1800   48.9100 O   0  0  0  0  0  0  0  0  0  0  0  0
   63.2320   34.2170   46.4870 O   0  0  0  0  0  0  0  0  0  0  0  0
   60.4600   32.7830   46.8590 C   0  0  0  0  0  0  0  0  0  0  0  0
   58.3758   34.8507   45.5120 H   0  0  0  0  0  0  0  0  0  0  0  0
   59.1810   34.3639   43.9819 H   0  0  0  0  0  0  0  0  0  0  0  0
   57.4367   34.7930   43.9819 H   0  0  0  0  0  0  0  0  0  0  0  0
   56.6356   32.3770   43.0575 H   0  0  0  0  0  0  0  0  0  0  0  0
   58.5108   28.5797   45.4850 H   0  0  0  0  0  0  0  0  0  0  0  0
   59.8067   26.5935   46.2658 H   0  0  0  0  0  0  0  0  0  0  0  0
   58.6154   24.4952   46.9008 H   0  0  0  0  0  0  0  0  0  0  0  0
   56.1253   24.3800   46.7665 H   0  0  0  0  0  0  0  0  0  0  0  0
   57.4270   32.5594   48.4279 H   0  0  0  0  0  0  0  0  0  0  0  0
   58.8321   33.2557   50.3683 H   0  0  0  0  0  0  0  0  0  0  0  0
   61.2750   33.6539   50.0661 H   0  0  0  0  0  0  0  0  0  0  0  0
   64.5110   31.9840   46.8900 H   0  0  0  0  0  0  0  0  0  0  0  0
   60.9249   32.6287   45.8741 H   0  0  0  0  0  0  0  0  0  0  0  0
  1  2  1  0
  2  3  2  0
  3  4  1  0
  4  5  1  0
  5  6  2  0
  5  7  1  0
  7  8  1  0
  8  9  2  0
  9 10  1  0
 10 11  2  0
 11 12  1  0
 12 13  2  0
 13 14  1  0
  4 15  2  0
 15 16  1  0
 16 17  1  0
 17 18  2  0
 18 19  1  0
 19 20  2  0
 20 21  1  0
 21 22  1  0
 22 23  1  0
 22 24  2  0
 22 25  2  0
 21 26  2  0
 16  2  1  0
 26 17  1  0
 13  8  1  0
  1 27  1  0
  1 28  1  0
  1 29  1  0
  3 30  1  0
  9 31  1  0
 10 32  1  0
 11 33  1  0
 12 34  1  0
 18 35  1  0
 19 36  1  0
 20 37  1  0
 23 38  1  0
 26 39  1  0
M  CHG  3   7  -1  14  -1  23  -1
M  END
>  <UniqueID>  (86) 
77

>  <SMILES>  (86) 
Cc1cc(C(=O)[N-]c2ccccc2[O-])nn1-c1cccc(S([NH-])(=O)=O)c1

>  <Energy>  (86) 
80.61729859574831

>  <Genealogy>  (86) 
Cc1cc(C(=O)[N-]c2ccccc2[O-])nn1-c1cccc(S([NH-])(=O)=O)c1 (protonated)
Cc1cc(C(=O)[N-]c2ccccc2[O-])nn1-c1cccc(S([NH-])(=O)=O)c1 (3D coordinates assigned)
Cc1cc(C(=O)[N-]c2ccccc2[O-])nn1-c1cccc(S([NH-])(=O)=O)c1 (optimized conformer: 80.61729859574831 kcal/mol)

>  <smiles>  (86) 
Cc1cc(C(=O)Nc2ccccc2O)nn1-c1cccc(S(N)(=O)=O)c1

>  <score_type>  (86) 
oracle

>  <origin>  (86) 
adg

>  <m_score__min__energy>  (86) 
-16.07

>  <m_primary>  (86) 
energy

$$$$
86:0
     RDKit          3D

 55 57  0  0  0  0  0  0  0  0999 V2000
   63.7710   33.5020   47.1090 C   0  0  0  0  0  0  0  0  0  0  0  0
   62.8430   33.5260   48.3190 C   0  0  0  0  0  0  0  0  0  0  0  0
   61.5240   32.9570   47.9600 N   0  0  0  0  0  0  0  0  0  0  0  0
   60.4240   33.8640   48.3530 C   0  0  0  0  0  0  0  0  0  0  0  0
   59.4370   33.9940   47.2240 C   0  0  0  0  0  0  0  0  0  0  0  0
   58.1450   33.4520   47.3340 C   0  0  0  0  0  0  0  0  0  0  0  0
   57.2430   33.5620   46.2700 C   0  0  0  0  0  0  0  0  0  0  0  0
   57.6240   34.2110   45.0920 C   0  0  0  0  0  0  0  0  0  0  0  0
   58.9080   34.7520   44.9760 C   0  0  0  0  0  0  0  0  0  0  0  0
   59.8120   34.6450   46.0370 C   0  0  0  0  0  0  0  0  0  0  0  0
   61.3400   31.6140   48.5530 C   0  0  0  0  0  0  0  0  0  0  0  0
   60.3400   30.8320   47.7450 C   0  0  0  0  0  0  0  0  0  0  0  0
   60.2320   31.0220   46.3580 C   0  0  0  0  0  0  0  0  0  0  0  0
   59.2760   30.3160   45.6230 C   0  0  0  0  0  0  0  0  0  0  0  0
   58.4150   29.4170   46.2650 C   0  0  0  0  0  0  0  0  0  0  0  0
   57.1890   28.5590   45.3400 S   0  0  0  0  0  0  0  0  0  0  0  0
   55.9560   29.4120   45.2440 O   0  0  0  0  0  0  0  0  0  0  0  0
   57.6850   28.2640   43.9510 O   0  0  0  0  0  0  0  0  0  0  0  0
   56.7910   27.0640   46.1270 N   0  0  0  0  0  0  0  0  0  0  0  0
   57.5270   25.8400   45.9310 C   0  0  0  0  0  0  0  0  0  0  0  0
   58.9370   25.8520   45.9200 C   0  0  0  0  0  0  0  0  0  0  0  0
   59.6590   24.6680   45.7740 C   0  0  0  0  0  0  0  0  0  0  0  0
   58.9910   23.4540   45.6410 C   0  0  0  0  0  0  0  0  0  0  0  0
   57.5960   23.4190   45.6460 C   0  0  0  0  0  0  0  0  0  0  0  0
   56.8510   24.6020   45.7820 C   0  0  0  0  0  0  0  0  0  0  0  0
   55.0840   24.5060   45.7360 S   0  0  0  0  0  0  0  0  0  0  0  0
   54.3760   26.0630   45.9910 N   0  0  0  0  0  0  0  0  0  0  0  0
   54.6470   23.9890   44.3950 O   0  0  0  0  0  0  0  0  0  0  0  0
   54.5990   23.5800   46.8170 O   0  0  0  0  0  0  0  0  0  0  0  0
   58.5270   29.2180   47.6480 C   0  0  0  0  0  0  0  0  0  0  0  0
   59.4830   29.9230   48.3840 C   0  0  0  0  0  0  0  0  0  0  0  0
   64.8167   33.4750   47.4494 H   0  0  0  0  0  0  0  0  0  0  0  0
   63.5596   32.6090   46.5024 H   0  0  0  0  0  0  0  0  0  0  0  0
   63.6061   34.4047   46.5024 H   0  0  0  0  0  0  0  0  0  0  0  0
   63.2874   32.9307   49.1302 H   0  0  0  0  0  0  0  0  0  0  0  0
   62.7084   34.5667   48.6489 H   0  0  0  0  0  0  0  0  0  0  0  0
   59.9138   33.4560   49.2380 H   0  0  0  0  0  0  0  0  0  0  0  0
   60.8390   34.8556   48.5863 H   0  0  0  0  0  0  0  0  0  0  0  0
   57.8420   32.9399   48.2592 H   0  0  0  0  0  0  0  0  0  0  0  0
   56.2324   33.1371   46.3607 H   0  0  0  0  0  0  0  0  0  0  0  0
   56.9137   34.2961   44.2564 H   0  0  0  0  0  0  0  0  0  0  0  0
   59.2073   35.2625   44.0487 H   0  0  0  0  0  0  0  0  0  0  0  0
   60.8211   35.0723   45.9420 H   0  0  0  0  0  0  0  0  0  0  0  0
   62.3026   31.0816   48.5568 H   0  0  0  0  0  0  0  0  0  0  0  0
   60.9706   31.7199   49.5837 H   0  0  0  0  0  0  0  0  0  0  0  0
   60.9025   31.7293   45.8480 H   0  0  0  0  0  0  0  0  0  0  0  0
   59.1994   30.4669   44.5361 H   0  0  0  0  0  0  0  0  0  0  0  0
   55.9640   27.0840   46.7620 H   0  0  0  0  0  0  0  0  0  0  0  0
   59.4735   26.8062   46.0278 H   0  0  0  0  0  0  0  0  0  0  0  0
   60.7587   24.6934   45.7639 H   0  0  0  0  0  0  0  0  0  0  0  0
   59.5635   22.5211   45.5318 H   0  0  0  0  0  0  0  0  0  0  0  0
   57.0748   22.4558   45.5425 H   0  0  0  0  0  0  0  0  0  0  0  0
   54.7840   26.7060   45.2760 H   0  0  0  0  0  0  0  0  0  0  0  0
   57.8605   28.5049   48.1553 H   0  0  0  0  0  0  0  0  0  0  0  0
   59.5641   29.7646   49.4695 H   0  0  0  0  0  0  0  0  0  0  0  0
  1  2  1  0
  2  3  1  0
  3  4  1  0
  4  5  1  0
  5  6  2  0
  6  7  1  0
  7  8  2  0
  8  9  1  0
  9 10  2  0
  3 11  1  0
 11 12  1  0
 12 13  2  0
 13 14  1  0
 14 15  2  0
 15 16  1  0
 16 17  2  0
 16 18  2  0
 16 19  1  0
 19 20  1  0
 20 21  2  0
 21 22  1  0
 22 23  2  0
 23 24  1  0
 24 25  2  0
 25 26  1  0
 26 27  1  0
 26 28  2  0
 26 29  2  0
 15 30  1  0
 30 31  2  0
 10  5  1  0
 31 12  1  0
 25 20  1  0
  1 32  1  0
  1 33  1  0
  1 34  1  0
  2 35  1  0
  2 36  1  0
  4 37  1  0
  4 38  1  0
  6 39  1  0
  7 40  1  0
  8 41  1  0
  9 42  1  0
 10 43  1  0
 11 44  1  0
 11 45  1  0
 13 46  1  0
 14 47  1  0
 19 48  1  0
 21 49  1  0
 22 50  1  0
 23 51  1  0
 24 52  1  0
 27 53  1  0
 30 54  1  0
 31 55  1  0
M  CHG  1  27  -1
M  END
>  <UniqueID>  (87) 
78

>  <SMILES>  (87) 
CCN(Cc1ccccc1)Cc1ccc(S(=O)(=O)Nc2ccccc2S([NH-])(=O)=O)cc1

>  <Energy>  (87) 
61.149200504671605

>  <Genealogy>  (87) 
CCN(Cc1ccccc1)Cc1ccc(S(=O)(=O)Nc2ccccc2S([NH-])(=O)=O)cc1 (protonated)
CCN(Cc1ccccc1)Cc1ccc(S(=O)(=O)Nc2ccccc2S([NH-])(=O)=O)cc1 (3D coordinates assigned)
CCN(Cc1ccccc1)Cc1ccc(S(=O)(=O)Nc2ccccc2S([NH-])(=O)=O)cc1 (optimized conformer: 61.149200504671605 kcal/mol)

>  <smiles>  (87) 
CCN(Cc1ccccc1)Cc1ccc(S(=O)(=O)Nc2ccccc2S(N)(=O)=O)cc1

>  <score_type>  (87) 
oracle

>  <origin>  (87) 
adg

>  <m_score__min__energy>  (87) 
-14.02

>  <m_primary>  (87) 
energy

$$$$
87:0
     RDKit          3D

 31 32  0  0  0  0  0  0  0  0999 V2000
   54.7700   27.1210   45.0280 H   0  0  0  0  0  0  0  0  0  0  0  0
   54.7640   26.3070   45.6320 O   0  0  0  0  0  0  0  0  0  0  0  0
   55.9390   25.7390   46.1280 C   0  0  0  0  0  0  0  0  0  0  0  0
   55.9690   24.3660   46.3950 C   0  0  0  0  0  0  0  0  0  0  0  0
   55.0748   23.7517   46.2132 H   0  0  0  0  0  0  0  0  0  0  0  0
   57.1300   23.7750   46.8910 C   0  0  0  0  0  0  0  0  0  0  0  0
   57.1579   22.6959   47.1026 H   0  0  0  0  0  0  0  0  0  0  0  0
   58.2560   24.5670   47.1160 C   0  0  0  0  0  0  0  0  0  0  0  0
   59.1783   24.1129   47.5073 H   0  0  0  0  0  0  0  0  0  0  0  0
   58.2140   25.8990   46.8520 N   0  0  0  0  0  0  0  0  0  0  0  0
   57.0940   26.5100   46.3670 C   0  0  0  0  0  0  0  0  0  0  0  0
   57.0790   27.7890   46.1220 N   0  0  0  0  0  0  0  0  0  0  0  0
   57.0060   28.4270   44.8360 C   0  0  0  0  0  0  0  0  0  0  0  0
   57.7960   28.1120   43.9050 O   0  0  0  0  0  0  0  0  0  0  0  0
   55.9930   29.4630   44.6020 C   0  0  0  0  0  0  0  0  0  0  0  0
   54.8530   29.1390   44.1720 O   0  0  0  0  0  0  0  0  0  0  0  0
   56.3060   30.8350   44.8600 N   0  0  0  0  0  0  0  0  0  0  0  0
   57.4130   31.5450   44.2260 C   0  0  0  0  0  0  0  0  0  0  0  0
   58.1021   30.8149   43.7764 H   0  0  0  0  0  0  0  0  0  0  0  0
   57.0112   32.2127   43.4496 H   0  0  0  0  0  0  0  0  0  0  0  0
   58.1570   32.3690   45.2420 C   0  0  0  0  0  0  0  0  0  0  0  0
   59.1190   31.7710   46.0740 C   0  0  0  0  0  0  0  0  0  0  0  0
   59.3174   30.6921   45.9927 H   0  0  0  0  0  0  0  0  0  0  0  0
   59.8250   32.5390   47.0040 C   0  0  0  0  0  0  0  0  0  0  0  0
   60.5747   32.0636   47.6536 H   0  0  0  0  0  0  0  0  0  0  0  0
   59.5790   33.9100   47.1090 C   0  0  0  0  0  0  0  0  0  0  0  0
   60.1342   34.5133   47.8424 H   0  0  0  0  0  0  0  0  0  0  0  0
   58.6280   34.5160   46.2830 C   0  0  0  0  0  0  0  0  0  0  0  0
   58.4361   35.5959   46.3667 H   0  0  0  0  0  0  0  0  0  0  0  0
   57.9200   33.7510   45.3500 C   0  0  0  0  0  0  0  0  0  0  0  0
   57.0040   34.3580   44.5520 F   0  0  0  0  0  0  0  0  0  0  0  0
  1  2  1  0
  2  3  1  0
  3  4  2  0
  4  5  1  0
  4  6  1  0
  6  7  1  0
  6  8  2  0
  8  9  1  0
  8 10  1  0
 10 11  1  0
 11 12  2  0
 12 13  1  0
 13 14  2  0
 13 15  1  0
 15 16  2  0
 15 17  1  0
 17 18  1  0
 18 19  1  0
 18 20  1  0
 18 21  1  0
 21 22  2  0
 22 23  1  0
 22 24  1  0
 24 25  1  0
 24 26  2  0
 26 27  1  0
 26 28  1  0
 28 29  1  0
 28 30  2  0
 30 31  1  0
 11  3  1  0
 30 21  1  0
M  CHG  2  10  -1  17  -1
M  END
>  <UniqueID>  (88) 
79

>  <SMILES>  (88) 
O=C(/N=c1/[n-]cccc1O)C(=O)[N-]Cc1ccccc1F

>  <Energy>  (88) 
32.151572732483416

>  <Genealogy>  (88) 
O=C(N=c1[n-]cccc1O)C(=O)[N-]Cc1ccccc1F (protonated)
O=C(/N=c1/[n-]cccc1O)C(=O)[N-]Cc1ccccc1F (cis-trans isomerization)
O=C(/N=c1/[n-]cccc1O)C(=O)[N-]Cc1ccccc1F (3D coordinates assigned)
O=C(/N=c1/[n-]cccc1O)C(=O)[N-]Cc1ccccc1F (optimized conformer: 32.151572732483416 kcal/mol)

>  <smiles>  (88) 
O=C(N=c1[nH]cccc1O)C(=O)NCc1ccccc1F

>  <score_type>  (88) 
oracle

>  <origin>  (88) 
adg

>  <m_score__min__energy>  (88) 
-11.15

>  <m_primary>  (88) 
energy

$$$$
88:0
     RDKit          3D

 45 47  0  0  1  0  0  0  0  0999 V2000
   63.6490   32.0080   47.5170 C   0  0  0  0  0  0  0  0  0  0  0  0
   63.4750   33.3370   48.1940 C   0  0  0  0  0  0  0  0  0  0  0  0
   62.1300   33.8560   47.8930 N   0  0  0  0  0  0  0  0  0  0  0  0
   61.1970   34.1460   48.9300 C   0  0  0  0  0  0  0  0  0  0  0  0
   61.4720   33.9740   50.1620 O   0  0  0  0  0  0  0  0  0  0  0  0
   59.9350   34.6410   48.5520 N   0  0  0  0  0  0  0  0  0  0  0  0
   59.4590   34.6230   47.3710 C   0  0  0  0  0  0  0  0  0  0  0  0
   59.5420   35.6550   46.5160 N   0  0  0  0  0  0  0  0  0  0  0  0
   58.9500   35.3270   45.3630 N   0  0  0  0  0  0  0  0  0  0  0  0
   58.4850   34.0640   45.4900 C   0  0  0  0  0  0  0  0  0  0  0  0
   57.8050   33.2450   44.6200 C   0  0  0  0  0  0  0  0  0  0  0  0
   57.4710   31.9860   45.0780 C   0  0  0  0  0  0  0  0  0  0  0  0
   56.8380   31.2180   44.2790 N   0  0  0  0  0  0  0  0  0  0  0  0
   56.9000   29.7950   44.3460 C   0  0  0  0  0  0  0  0  0  0  0  0
   56.2240   29.2550   45.2650 O   0  0  0  0  0  0  0  0  0  0  0  0
   57.6810   29.0560   43.4220 N   0  0  0  0  0  0  0  0  0  0  0  0
   57.8120   27.6340   43.3930 C   0  0  0  0  0  0  0  0  0  0  0  0
   58.2960   27.1640   44.7150 C   0  0  0  0  0  0  0  0  0  0  0  0
   59.4780   27.5650   45.2900 C   0  0  0  0  0  0  0  0  0  0  0  0
   59.8040   27.0520   46.5230 C   0  0  0  0  0  0  0  0  0  0  0  0
   59.0120   26.1700   47.1940 C   0  0  0  0  0  0  0  0  0  0  0  0
   57.8210   25.7530   46.6360 C   0  0  0  0  0  0  0  0  0  0  0  0
   57.5010   26.2720   45.3990 C   0  0  0  0  0  0  0  0  0  0  0  0
   57.7840   31.5570   46.3070 N   0  0  0  0  0  0  0  0  0  0  0  0
   58.4500   32.3340   47.1820 C   0  0  0  0  0  0  0  0  0  0  0  0
   58.7980   33.5920   46.7630 C   0  0  0  0  0  0  0  0  0  0  0  0
   63.7522   31.2199   48.2774 H   0  0  0  0  0  0  0  0  0  0  0  0
   62.7706   31.7987   46.8888 H   0  0  0  0  0  0  0  0  0  0  0  0
   64.5517   32.0319   46.8888 H   0  0  0  0  0  0  0  0  0  0  0  0
   63.5883   33.2147   49.2813 H   0  0  0  0  0  0  0  0  0  0  0  0
   64.2359   34.0425   47.8289 H   0  0  0  0  0  0  0  0  0  0  0  0
   61.8500   34.0160   46.8870 H   0  0  0  0  0  0  0  0  0  0  0  0
   59.9970   36.5720   46.7190 H   0  0  0  0  0  0  0  0  0  0  0  0
   58.8430   35.9060   44.4970 H   0  0  0  0  0  0  0  0  0  0  0  0
   57.5392   33.5774   43.6057 H   0  0  0  0  0  0  0  0  0  0  0  0
   58.2020   29.6140   42.7040 H   0  0  0  0  0  0  0  0  0  0  0  0
   56.8348   27.1784   43.1752 H   0  0  0  0  0  0  0  0  0  0  0  0
   58.5292   27.3437   42.6111 H   0  0  0  0  0  0  0  0  0  0  0  0
   60.1438   28.2757   44.7786 H   0  0  0  0  0  0  0  0  0  0  0  0
   60.7485   27.3685   46.9895 H   0  0  0  0  0  0  0  0  0  0  0  0
   59.3214   25.7908   48.1791 H   0  0  0  0  0  0  0  0  0  0  0  0
   57.1595   25.0418   47.1523 H   0  0  0  0  0  0  0  0  0  0  0  0
   56.5567   25.9552   44.9322 H   0  0  0  0  0  0  0  0  0  0  0  0
   57.4920   30.5790   46.5760 H   0  0  0  0  0  0  0  0  0  0  0  0
   58.7040   31.9746   48.1901 H   0  0  0  0  0  0  0  0  0  0  0  0
  1  2  1  0
  2  3  1  0
  3  4  1  0
  4  5  2  0
  4  6  1  0
  6  7  2  0
  7  8  1  0
  8  9  1  0
  9 10  1  0
 10 11  2  0
 11 12  1  0
 12 13  2  0
 13 14  1  0
 14 15  2  0
 14 16  1  0
 16 17  1  0
 17 18  1  0
 18 19  2  0
 19 20  1  0
 20 21  2  0
 21 22  1  0
 22 23  2  0
 12 24  1  0
 24 25  1  0
 25 26  2  0
 26  7  1  0
 26 10  1  0
 23 18  1  0
  1 27  1  0
  1 28  1  0
  1 29  1  0
  2 30  1  0
  2 31  1  0
  3 32  1  0
  8 33  1  0
  9 34  1  0
 11 35  1  0
 16 36  1  0
 17 37  1  0
 17 38  1  0
 19 39  1  0
 20 40  1  0
 21 41  1  0
 22 42  1  0
 23 43  1  0
 24 44  1  0
 25 45  1  0
M  END
>  <smiles>  (89) 
CCNC(=O)N=c1[nH][nH]c2cc(=NC(=O)NCc3ccccc3)[nH]cc12

>  <score_type>  (89) 
oracle

>  <origin>  (89) 
adg

>  <m_score__min__energy>  (89) 
-8.0399999999999991

>  <m_primary>  (89) 
energy

$$$$
89:0
     RDKit          3D

 61 64  0  0  0  0  0  0  0  0999 V2000
   55.4229   26.5246   46.4423 H   0  0  0  0  0  0  0  0  0  0  0  0
   56.2430   27.0740   45.9570 C   0  0  0  0  0  0  0  0  0  0  0  0
   55.9780   28.2000   45.2500 N   0  0  0  0  0  0  0  0  0  0  0  0
   56.9590   28.9340   44.6500 C   0  0  0  0  0  0  0  0  0  0  0  0
   56.5830   30.1470   43.7960 C   0  0  0  0  0  0  0  0  0  0  0  0
   57.7450   31.1610   43.7540 C   0  0  0  0  0  0  0  0  0  0  0  0
   58.0424   31.4206   44.7807 H   0  0  0  0  0  0  0  0  0  0  0  0
   58.6011   30.7160   43.2257 H   0  0  0  0  0  0  0  0  0  0  0  0
   57.4200   32.0694   43.2257 H   0  0  0  0  0  0  0  0  0  0  0  0
   56.2660   29.7290   42.3430 C   0  0  0  0  0  0  0  0  0  0  0  0
   55.6013   28.8526   42.3503 H   0  0  0  0  0  0  0  0  0  0  0  0
   55.7698   30.5611   41.8220 H   0  0  0  0  0  0  0  0  0  0  0  0
   57.2011   29.4757   41.8220 H   0  0  0  0  0  0  0  0  0  0  0  0
   55.3500   30.8330   44.4200 C   0  0  0  0  0  0  0  0  0  0  0  0
   55.4235   30.7921   45.5168 H   0  0  0  0  0  0  0  0  0  0  0  0
   55.3104   31.8829   44.0941 H   0  0  0  0  0  0  0  0  0  0  0  0
   54.4370   30.3132   44.0941 H   0  0  0  0  0  0  0  0  0  0  0  0
   58.2910   28.4810   44.7350 C   0  0  0  0  0  0  0  0  0  0  0  0
   59.0956   29.0508   44.2472 H   0  0  0  0  0  0  0  0  0  0  0  0
   58.5950   27.3050   45.4400 C   0  0  0  0  0  0  0  0  0  0  0  0
   59.8440   26.9310   45.5160 N   0  0  0  0  0  0  0  0  0  0  0  0
   60.4210   26.0280   46.4720 C   0  0  0  0  0  0  0  0  0  0  0  0
   60.4830   24.7960   46.2230 O   0  0  0  0  0  0  0  0  0  0  0  0
   61.0460   26.5170   47.6640 N   0  0  0  0  0  0  0  0  0  0  0  0
   60.5180   27.4670   48.6020 C   0  0  0  0  0  0  0  0  0  0  0  0
   60.8810   27.3430   49.9490 C   0  0  0  0  0  0  0  0  0  0  0  0
   61.5944   26.5624   50.2519 H   0  0  0  0  0  0  0  0  0  0  0  0
   60.3450   28.2020   50.9110 C   0  0  0  0  0  0  0  0  0  0  0  0
   60.6301   28.0861   51.9671 H   0  0  0  0  0  0  0  0  0  0  0  0
   59.4440   29.2130   50.5380 C   0  0  0  0  0  0  0  0  0  0  0  0
   58.8620   30.0800   51.4770 O   0  0  0  0  0  0  0  0  0  0  0  0
   58.8790   31.4820   51.4240 C   0  0  0  0  0  0  0  0  0  0  0  0
   58.1310   32.1980   52.3570 C   0  0  0  0  0  0  0  0  0  0  0  0
   57.5305   31.6662   53.1097 H   0  0  0  0  0  0  0  0  0  0  0  0
   58.1480   33.5950   52.3310 C   0  0  0  0  0  0  0  0  0  0  0  0
   57.5656   34.1631   53.0713 H   0  0  0  0  0  0  0  0  0  0  0  0
   58.8810   34.2560   51.3950 N   0  0  0  0  0  0  0  0  0  0  0  0
   58.9020   35.2950   51.4590 H   0  0  0  0  0  0  0  0  0  0  0  0
   59.5900   33.5820   50.4360 C   0  0  0  0  0  0  0  0  0  0  0  0
   60.2990   34.2040   49.5350 N   0  0  0  0  0  0  0  0  0  0  0  0
   60.5350   33.7760   48.1880 C   0  0  0  0  0  0  0  0  0  0  0  0
   61.6370   33.2290   47.9190 O   0  0  0  0  0  0  0  0  0  0  0  0
   59.4990   33.9040   47.1370 C   0  0  0  0  0  0  0  0  0  0  0  0
   58.2250   33.3460   47.3320 C   0  0  0  0  0  0  0  0  0  0  0  0
   58.0022   32.8049   48.2634 H   0  0  0  0  0  0  0  0  0  0  0  0
   57.2360   33.4740   46.3480 C   0  0  0  0  0  0  0  0  0  0  0  0
   56.2408   33.0338   46.5083 H   0  0  0  0  0  0  0  0  0  0  0  0
   57.5130   34.1600   45.1640 C   0  0  0  0  0  0  0  0  0  0  0  0
   56.7365   34.2596   44.3913 H   0  0  0  0  0  0  0  0  0  0  0  0
   58.7770   34.7200   44.9610 C   0  0  0  0  0  0  0  0  0  0  0  0
   58.9943   35.2617   44.0286 H   0  0  0  0  0  0  0  0  0  0  0  0
   59.7650   34.5930   45.9400 C   0  0  0  0  0  0  0  0  0  0  0  0
   60.7584   35.0351   45.7737 H   0  0  0  0  0  0  0  0  0  0  0  0
   59.5920   32.1820   50.4380 C   0  0  0  0  0  0  0  0  0  0  0  0
   60.1517   31.6311   49.6678 H   0  0  0  0  0  0  0  0  0  0  0  0
   59.0600   29.3230   49.1950 C   0  0  0  0  0  0  0  0  0  0  0  0
   58.1620   30.2650   48.8220 F   0  0  0  0  0  0  0  0  0  0  0  0
   59.5830   28.4520   48.2330 C   0  0  0  0  0  0  0  0  0  0  0  0
   59.2622   28.5374   47.1843 H   0  0  0  0  0  0  0  0  0  0  0  0
   57.5540   26.6110   46.0700 C   0  0  0  0  0  0  0  0  0  0  0  0
   57.7698   25.7031   46.6524 H   0  0  0  0  0  0  0  0  0  0  0  0
  1  2  1  0
  2  3  1  0
  3  4  1  0
  4  5  1  0
  5  6  1  0
  6  7  1  0
  6  8  1  0
  6  9  1  0
  5 10  1  0
 10 11  1  0
 10 12  1  0
 10 13  1  0
  5 14  1  0
 14 15  1  0
 14 16  1  0
 14 17  1  0
  4 18  2  0
 18 19  1  0
 18 20  1  0
 20 21  2  3
 21 22  1  0
 22 23  2  0
 22 24  1  0
 24 25  1  0
 25 26  2  0
 26 27  1  0
 26 28  1  0
 28 29  1  0
 28 30  2  0
 30 31  1  0
 31 32  1  0
 32 33  1  0
 33 34  1  0
 33 35  2  0
 35 36  1  0
 35 37  1  0
 37 38  1  0
 37 39  1  0
 39 40  2  0
 40 41  1  0
 41 42  2  0
 41 43  1  0
 43 44  2  0
 44 45  1  0
 44 46  1  0
 46 47  1  0
 46 48  2  0
 48 49  1  0
 48 50  1  0
 50 51  1  0
 50 52  2  0
 52 53  1  0
 39 54  1  0
 54 55  1  0
 30 56  1  0
 56 57  1  0
 56 58  2  0
 58 59  1  0
 20 60  1  0
 60 61  1  0
 60  2  2  0
 58 25  1  0
 54 32  2  0
 52 43  1  0
M  CHG  2   3  -1  24  -1
M  END
>  <UniqueID>  (90) 
80

>  <SMILES>  (90) 
CC(C)(C)c1cc(=NC(=O)[N-]c2ccc(Oc3cc[nH]/c(=N\C(=O)c4ccccc4)c3)c(F)c2)cc[n-]1

>  <Energy>  (90) 
92.91159477872796

>  <Genealogy>  (90) 
CC(C)(C)c1cc(=NC(=O)[N-]c2ccc(Oc3cc[nH]c(=NC(=O)c4ccccc4)c3)c(F)c2)cc[n-]1 (protonated)
CC(C)(C)c1cc(=NC(=O)[N-]c2ccc(Oc3cc[nH]/c(=N\C(=O)c4ccccc4)c3)c(F)c2)cc[n-]1 (cis-trans isomerization)
CC(C)(C)c1cc(=NC(=O)[N-]c2ccc(Oc3cc[nH]/c(=N\C(=O)c4ccccc4)c3)c(F)c2)cc[n-]1 (3D coordinates assigned)
CC(C)(C)c1cc(=NC(=O)[N-]c2ccc(Oc3cc[nH]/c(=N\C(=O)c4ccccc4)c3)c(F)c2)cc[n-]1 (optimized conformer: 92.91159477872796 kcal/mol)

>  <smiles>  (90) 
CC(C)(C)c1cc(=NC(=O)Nc2ccc(Oc3cc[nH]c(=NC(=O)c4ccccc4)c3)c(F)c2)cc[nH]1

>  <score_type>  (90) 
oracle

>  <origin>  (90) 
adg

>  <m_score__min__energy>  (90) 
-12.109999999999999

>  <m_primary>  (90) 
energy

$$$$
90:0
     RDKit          3D

 64 67  0  0  0  0  0  0  0  0999 V2000
   55.2020   26.5130   46.0390 O   0  0  0  0  0  0  0  0  0  0  0  0
   56.3660   26.9470   45.8350 C   0  0  0  0  0  0  0  0  0  0  0  0
   57.5560   26.0740   46.1130 C   0  0  0  0  0  0  0  0  0  0  0  0
   58.7920   26.8510   46.1590 N   0  0  0  0  0  0  0  0  0  0  0  0
   59.6060   26.9700   47.3320 C   0  0  0  0  0  0  0  0  0  0  0  0
   60.2750   25.9740   47.7170 O   0  0  0  0  0  0  0  0  0  0  0  0
   59.7370   28.2520   48.0500 C   0  0  0  0  0  0  0  0  0  0  0  0
   58.9110   29.3370   47.7250 C   0  0  0  0  0  0  0  0  0  0  0  0
   59.1310   30.5870   48.3070 C   0  0  0  0  0  0  0  0  0  0  0  0
   60.1780   30.7650   49.2210 C   0  0  0  0  0  0  0  0  0  0  0  0
   60.5190   32.3690   49.8770 S   0  0  0  0  0  0  0  0  0  0  0  0
   61.1290   32.2220   51.2440 O   0  0  0  0  0  0  0  0  0  0  0  0
   59.2270   33.1240   50.0210 O   0  0  0  0  0  0  0  0  0  0  0  0
   61.6080   33.2900   48.8650 N   0  0  0  0  0  0  0  0  0  0  0  0
   62.9610   33.3490   49.4180 C   0  0  0  0  0  0  0  0  0  0  0  0
   63.9090   33.5290   48.2390 C   0  0  0  0  0  0  0  0  0  0  0  0
   63.0860   33.2040   47.0020 C   0  0  0  0  0  0  0  0  0  0  0  0
   61.7560   32.7010   47.5370 C   0  0  0  0  0  0  0  0  0  0  0  0
   60.9610   29.6660   49.5960 C   0  0  0  0  0  0  0  0  0  0  0  0
   60.7400   28.4150   49.0150 C   0  0  0  0  0  0  0  0  0  0  0  0
   56.5280   28.2770   45.3240 N   0  0  0  0  0  0  0  0  0  0  0  0
   57.0620   28.6170   44.0010 C   0  0  0  0  0  0  0  0  0  0  0  0
   58.5050   29.1140   44.1570 C   0  0  0  0  0  0  0  0  0  0  0  0
   58.5320   30.5070   44.7960 C   0  0  0  0  0  0  0  0  0  0  0  0
   57.7010   31.4970   44.0710 N   0  0  0  0  0  0  0  0  0  0  0  0
   57.0400   32.5010   44.9370 C   0  0  0  0  0  0  0  0  0  0  0  0
   58.0000   33.4820   45.5760 C   0  0  0  0  0  0  0  0  0  0  0  0
   58.7450   34.3660   44.7750 C   0  0  0  0  0  0  0  0  0  0  0  0
   59.5950   35.3070   45.3610 C   0  0  0  0  0  0  0  0  0  0  0  0
   59.7240   35.3650   46.7500 C   0  0  0  0  0  0  0  0  0  0  0  0
   59.0170   34.4670   47.5540 C   0  0  0  0  0  0  0  0  0  0  0  0
   58.1670   33.5230   46.9730 C   0  0  0  0  0  0  0  0  0  0  0  0
   56.8850   30.9780   42.9510 C   0  0  0  0  0  0  0  0  0  0  0  0
   56.1590   29.6650   43.3000 C   0  0  0  0  0  0  0  0  0  0  0  0
   57.4129   25.5727   47.0816 H   0  0  0  0  0  0  0  0  0  0  0  0
   57.6414   25.3383   45.2997 H   0  0  0  0  0  0  0  0  0  0  0  0
   58.0867   29.2032   47.0090 H   0  0  0  0  0  0  0  0  0  0  0  0
   58.4802   31.4349   48.0471 H   0  0  0  0  0  0  0  0  0  0  0  0
   63.0509   34.1994   50.1099 H   0  0  0  0  0  0  0  0  0  0  0  0
   63.1986   32.4339   49.9803 H   0  0  0  0  0  0  0  0  0  0  0  0
   64.2757   34.5652   48.1954 H   0  0  0  0  0  0  0  0  0  0  0  0
   64.7927   32.8794   48.3233 H   0  0  0  0  0  0  0  0  0  0  0  0
   62.9400   34.1043   46.3870 H   0  0  0  0  0  0  0  0  0  0  0  0
   63.5810   32.4610   46.3593 H   0  0  0  0  0  0  0  0  0  0  0  0
   60.9336   33.0240   46.8818 H   0  0  0  0  0  0  0  0  0  0  0  0
   61.7277   31.6021   47.5781 H   0  0  0  0  0  0  0  0  0  0  0  0
   61.7523   29.7883   50.3502 H   0  0  0  0  0  0  0  0  0  0  0  0
   61.3556   27.5546   49.3161 H   0  0  0  0  0  0  0  0  0  0  0  0
   57.0687   27.7237   43.3592 H   0  0  0  0  0  0  0  0  0  0  0  0
   59.0614   28.4127   44.7962 H   0  0  0  0  0  0  0  0  0  0  0  0
   58.9685   29.1726   43.1612 H   0  0  0  0  0  0  0  0  0  0  0  0
   58.1591   30.4259   45.8277 H   0  0  0  0  0  0  0  0  0  0  0  0
   59.5720   30.8636   44.7600 H   0  0  0  0  0  0  0  0  0  0  0  0
   56.3212   33.0668   44.3261 H   0  0  0  0  0  0  0  0  0  0  0  0
   56.5538   31.9489   45.7548 H   0  0  0  0  0  0  0  0  0  0  0  0
   58.6577   34.3161   43.6796 H   0  0  0  0  0  0  0  0  0  0  0  0
   60.1636   36.0034   44.7271 H   0  0  0  0  0  0  0  0  0  0  0  0
   60.3815   36.1168   47.2110 H   0  0  0  0  0  0  0  0  0  0  0  0
   59.1301   34.5036   48.6476 H   0  0  0  0  0  0  0  0  0  0  0  0
   57.6256   32.8083   47.6102 H   0  0  0  0  0  0  0  0  0  0  0  0
   56.1331   31.7351   42.6836 H   0  0  0  0  0  0  0  0  0  0  0  0
   57.5670   30.7671   42.1141 H   0  0  0  0  0  0  0  0  0  0  0  0
   55.3182   29.9010   43.9689 H   0  0  0  0  0  0  0  0  0  0  0  0
   55.8294   29.2192   42.3499 H   0  0  0  0  0  0  0  0  0  0  0  0
  1  2  2  0
  2  3  1  0
  3  4  1  0
  4  5  1  0
  5  6  2  0
  5  7  1  0
  7  8  2  0
  8  9  1  0
  9 10  2  0
 10 11  1  0
 11 12  2  0
 11 13  2  0
 11 14  1  0
 14 15  1  0
 15 16  1  0
 16 17  1  0
 17 18  1  0
 10 19  1  0
 19 20  2  0
  2 21  1  0
 21 22  1  0
 22 23  1  0
 23 24  1  0
 24 25  1  0
 25 26  1  0
 26 27  1  0
 27 28  2  0
 28 29  1  0
 29 30  2  0
 30 31  1  0
 31 32  2  0
 25 33  1  0
 33 34  1  0
 20  7  1  0
 34 22  1  0
 18 14  1  0
 32 27  1  0
  3 35  1  0
  3 36  1  0
  8 37  1  0
  9 38  1  0
 15 39  1  0
 15 40  1  0
 16 41  1  0
 16 42  1  0
 17 43  1  0
 17 44  1  0
 18 45  1  0
 18 46  1  0
 19 47  1  0
 20 48  1  0
 22 49  1  0
 23 50  1  0
 23 51  1  0
 24 52  1  0
 24 53  1  0
 26 54  1  0
 26 55  1  0
 28 56  1  0
 29 57  1  0
 30 58  1  0
 31 59  1  0
 32 60  1  0
 33 61  1  0
 33 62  1  0
 34 63  1  0
 34 64  1  0
M  CHG  2   4  -1  21  -1
M  END
>  <UniqueID>  (91) 
81

>  <SMILES>  (91) 
O=C(C[N-]C(=O)c1ccc(S(=O)(=O)N2CCCC2)cc1)[N-]C1CCN(Cc2ccccc2)CC1

>  <Energy>  (91) 
78.40441803117442

>  <Genealogy>  (91) 
O=C(C[N-]C(=O)c1ccc(S(=O)(=O)N2CCCC2)cc1)[N-]C1CCN(Cc2ccccc2)CC1 (protonated)
O=C(C[N-]C(=O)c1ccc(S(=O)(=O)N2CCCC2)cc1)[N-]C1CCN(Cc2ccccc2)CC1 (3D coordinates assigned)
O=C(C[N-]C(=O)c1ccc(S(=O)(=O)N2CCCC2)cc1)[N-]C1CCN(Cc2ccccc2)CC1 (nonaromatic ring conformer: 78.40441803117442 kcal/mol)

>  <smiles>  (91) 
O=C(CNC(=O)c1ccc(S(=O)(=O)N2CCCC2)cc1)NC1CCN(Cc2ccccc2)CC1

>  <score_type>  (91) 
oracle

>  <origin>  (91) 
adg

>  <m_score__min__energy>  (91) 
-13.33

>  <m_primary>  (91) 
energy

$$$$
91:0
     RDKit          3D

 54 58  0  0  0  0  0  0  0  0999 V2000
   57.3680   25.3780   46.2870 C   0  0  0  0  0  0  0  0  0  0  0  0
   56.5380   26.5770   45.9800 C   0  0  0  0  0  0  0  0  0  0  0  0
   55.2810   26.4960   46.0370 O   0  0  0  0  0  0  0  0  0  0  0  0
   57.1600   27.7510   45.5380 O   0  0  0  0  0  0  0  0  0  0  0  0
   57.8110   28.6560   46.3850 C   0  0  0  0  0  0  0  0  0  0  0  0
   58.1300   28.2420   47.6760 C   0  0  0  0  0  0  0  0  0  0  0  0
   58.7870   29.0980   48.5580 C   0  0  0  0  0  0  0  0  0  0  0  0
   59.0460   30.4330   48.1920 C   0  0  0  0  0  0  0  0  0  0  0  0
   58.7390   30.8660   46.8730 C   0  0  0  0  0  0  0  0  0  0  0  0
   59.0380   32.2560   46.4460 C   0  0  0  0  0  0  0  0  0  0  0  0
   58.0170   33.0790   45.9390 C   0  0  0  0  0  0  0  0  0  0  0  0
   58.3010   34.3870   45.5380 C   0  0  0  0  0  0  0  0  0  0  0  0
   59.6030   34.8850   45.6420 C   0  0  0  0  0  0  0  0  0  0  0  0
   60.6230   34.0740   46.1480 C   0  0  0  0  0  0  0  0  0  0  0  0
   60.3440   32.7650   46.5470 C   0  0  0  0  0  0  0  0  0  0  0  0
   58.1320   29.9610   45.9660 C   0  0  0  0  0  0  0  0  0  0  0  0
   57.7900   30.3530   44.6630 O   0  0  0  0  0  0  0  0  0  0  0  0
   56.5290   30.1390   44.0930 C   0  0  0  0  0  0  0  0  0  0  0  0
   56.4170   29.9100   42.6240 C   0  0  0  0  0  0  0  0  0  0  0  0
   55.4890   30.1290   44.8070 O   0  0  0  0  0  0  0  0  0  0  0  0
   59.5480   31.3760   49.2380 C   0  0  0  0  0  0  0  0  0  0  0  0
   58.8200   32.5500   49.4950 C   0  0  0  0  0  0  0  0  0  0  0  0
   59.2440   33.4290   50.4840 C   0  0  0  0  0  0  0  0  0  0  0  0
   60.3740   33.1270   51.2340 C   0  0  0  0  0  0  0  0  0  0  0  0
   61.0690   31.9400   50.9920 C   0  0  0  0  0  0  0  0  0  0  0  0
   62.0780   31.6770   51.7030 O   0  0  0  0  0  0  0  0  0  0  0  0
   60.6560   31.0770   50.0020 N   0  0  0  0  0  0  0  0  0  0  0  0
   61.3730   29.8100   49.7740 C   0  0  0  0  0  0  0  0  0  0  0  0
   60.5190   28.6250   50.2740 C   0  0  0  0  0  0  0  0  0  0  0  0
   61.1830   27.2720   50.1440 C   0  0  0  0  0  0  0  0  0  0  0  0
   61.2280   27.0870   51.5390 O   0  0  0  0  0  0  0  0  0  0  0  0
   60.6160   28.3370   51.7560 C   0  0  0  0  0  0  0  0  0  0  0  0
   59.1640   28.6090   49.8120 O   0  0  0  0  0  0  0  0  0  0  0  0
   57.4506   25.2587   47.3774 H   0  0  0  0  0  0  0  0  0  0  0  0
   56.8946   24.4840   45.8551 H   0  0  0  0  0  0  0  0  0  0  0  0
   58.3715   25.5064   45.8551 H   0  0  0  0  0  0  0  0  0  0  0  0
   57.8601   27.2271   48.0034 H   0  0  0  0  0  0  0  0  0  0  0  0
   56.9907   32.6917   45.8577 H   0  0  0  0  0  0  0  0  0  0  0  0
   57.4988   35.0258   45.1399 H   0  0  0  0  0  0  0  0  0  0  0  0
   59.8249   35.9149   45.3257 H   0  0  0  0  0  0  0  0  0  0  0  0
   61.6468   34.4674   46.2320 H   0  0  0  0  0  0  0  0  0  0  0  0
   61.1502   32.1295   46.9421 H   0  0  0  0  0  0  0  0  0  0  0  0
   55.9405   28.9358   42.4401 H   0  0  0  0  0  0  0  0  0  0  0  0
   55.8071   30.7072   42.1741 H   0  0  0  0  0  0  0  0  0  0  0  0
   57.4207   29.9180   42.1741 H   0  0  0  0  0  0  0  0  0  0  0  0
   57.9138   32.7733   48.9128 H   0  0  0  0  0  0  0  0  0  0  0  0
   58.6879   34.3592   50.6723 H   0  0  0  0  0  0  0  0  0  0  0  0
   60.7198   33.8200   52.0152 H   0  0  0  0  0  0  0  0  0  0  0  0
   61.5686   29.6902   48.6982 H   0  0  0  0  0  0  0  0  0  0  0  0
   62.3246   29.8284   50.3254 H   0  0  0  0  0  0  0  0  0  0  0  0
   60.5632   26.5276   49.6227 H   0  0  0  0  0  0  0  0  0  0  0  0
   62.1147   27.1891   49.5652 H   0  0  0  0  0  0  0  0  0  0  0  0
   59.6378   28.2659   52.2540 H   0  0  0  0  0  0  0  0  0  0  0  0
   61.1142   29.0681   52.4097 H   0  0  0  0  0  0  0  0  0  0  0  0
  1  2  1  0
  2  3  2  0
  2  4  1  0
  4  5  1  0
  5  6  2  0
  6  7  1  0
  7  8  2  0
  8  9  1  0
  9 10  1  0
 10 11  2  0
 11 12  1  0
 12 13  2  0
 13 14  1  0
 14 15  2  0
  9 16  2  0
 16 17  1  0
 17 18  1  0
 18 19  1  0
 18 20  2  0
  8 21  1  0
 21 22  2  0
 22 23  1  0
 23 24  2  0
 24 25  1  0
 25 26  2  0
 25 27  1  0
 27 28  1  0
 28 29  1  0
 29 30  1  0
 30 31  1  0
 31 32  1  0
 29 33  1  0
 16  5  1  0
 27 21  1  0
 32 29  1  0
 33  7  1  0
 15 10  1  0
  1 34  1  0
  1 35  1  0
  1 36  1  0
  6 37  1  0
 11 38  1  0
 12 39  1  0
 13 40  1  0
 14 41  1  0
 15 42  1  0
 19 43  1  0
 19 44  1  0
 19 45  1  0
 22 46  1  0
 23 47  1  0
 24 48  1  0
 28 49  1  0
 28 50  1  0
 30 51  1  0
 30 52  1  0
 32 53  1  0
 32 54  1  0
M  END
>  <UniqueID>  (92) 
82

>  <SMILES>  (92) 
CC(=O)Oc1cc2c(c(-c3ccccc3)c1OC(C)=O)-c1cccc(=O)n1CC1(COC1)O2

>  <Energy>  (92) 
159.39383956578598

>  <Genealogy>  (92) 
CC(=O)Oc1cc2c(c(-c3ccccc3)c1OC(C)=O)-c1cccc(=O)n1CC1(COC1)O2 (3D coordinates assigned)
CC(=O)Oc1cc2c(c(-c3ccccc3)c1OC(C)=O)-c1cccc(=O)n1CC1(COC1)O2 (nonaromatic ring conformer: 159.39383956578598 kcal/mol)

>  <smiles>  (92) 
CC(=O)Oc1cc2c(c(-c3ccccc3)c1OC(C)=O)-c1cccc(=O)n1CC1(COC1)O2

>  <score_type>  (92) 
oracle

>  <origin>  (92) 
adg

>  <m_score__min__energy>  (92) 
-6.9000000000000004

>  <m_primary>  (92) 
energy

$$$$
92:0
     RDKit          3D

 55 58  0  0  1  0  0  0  0  0999 V2000
   56.6860   30.0850   43.5280 C   0  0  0  0  0  0  0  0  0  0  0  0
   56.7200   30.4940   44.8700 O   0  0  0  0  0  0  0  0  0  0  0  0
   57.7860   31.2160   45.3610 C   0  0  0  0  0  0  0  0  0  0  0  0
   58.9230   30.6410   45.8970 C   0  0  0  0  0  0  0  0  0  0  0  0
   59.9730   31.3900   46.3810 C   0  0  0  0  0  0  0  0  0  0  0  0
   59.9410   32.7430   46.3530 C   0  0  0  0  0  0  0  0  0  0  0  0
   60.8260   33.7140   46.7520 C   0  0  0  0  0  0  0  0  0  0  0  0
   62.1150   33.6850   47.3700 C   0  0  0  0  0  0  0  0  0  0  0  0
   63.0510   33.1030   46.6780 O   0  0  0  0  0  0  0  0  0  0  0  0
   62.5980   34.1890   48.6480 C   0  0  0  0  0  0  0  0  0  0  0  0
   62.6560   33.1240   49.6620 N   0  0  0  0  0  0  0  0  0  0  0  0
   61.6250   32.7980   50.4400 C   0  0  0  0  0  0  0  0  0  0  0  0
   60.0970   33.6290   50.3170 Cl  0  0  0  0  0  0  0  0  0  0  0  0
   61.7740   31.7730   51.3700 C   0  0  0  0  0  0  0  0  0  0  0  0
   62.9210   31.0940   51.5170 N   0  0  0  0  0  0  0  0  0  0  0  0
   63.9440   31.4450   50.7180 C   0  0  0  0  0  0  0  0  0  0  0  0
   65.0780   30.8380   50.8000 N   0  0  0  0  0  0  0  0  0  0  0  0
   65.6650   30.4000   52.0260 C   0  0  0  0  0  0  0  0  0  0  0  0
   65.3860   28.9280   52.2280 C   0  0  2  0  0  0  0  0  0  0  0  0
   64.0280   28.7360   51.9860 O   0  0  0  0  0  0  0  0  0  0  0  0
   65.5090   28.7240   53.6140 F   0  0  0  0  0  0  0  0  0  0  0  0
   66.2750   28.0300   51.4920 C   0  0  0  0  0  0  0  0  0  0  0  0
   67.3840   28.6150   50.8650 C   0  0  0  0  0  0  0  0  0  0  0  0
   68.2880   27.8650   50.1470 C   0  0  0  0  0  0  0  0  0  0  0  0
   68.0560   26.5080   50.0710 C   0  0  0  0  0  0  0  0  0  0  0  0
   66.9910   25.9610   50.6770 N   0  0  0  0  0  0  0  0  0  0  0  0
   66.1130   26.7010   51.3750 N   0  0  0  0  0  0  0  0  0  0  0  0
   65.0000   26.0620   52.0030 C   0  0  0  0  0  0  0  0  0  0  0  0
   63.8210   32.4550   49.7920 C   0  0  0  0  0  0  0  0  0  0  0  0
   64.8030   32.7650   49.0500 O   0  0  0  0  0  0  0  0  0  0  0  0
   60.1610   34.9090   46.4270 C   0  0  0  0  0  0  0  0  0  0  0  0
   58.9740   34.6400   45.8770 N   0  0  0  0  0  0  0  0  0  0  0  0
   58.7910   33.3270   45.8100 C   0  0  0  0  0  0  0  0  0  0  0  0
   57.7440   32.5900   45.3280 C   0  0  0  0  0  0  0  0  0  0  0  0
   56.5950   28.9898   43.4807 H   0  0  0  0  0  0  0  0  0  0  0  0
   55.8231   30.5467   43.0257 H   0  0  0  0  0  0  0  0  0  0  0  0
   57.6133   30.3979   43.0257 H   0  0  0  0  0  0  0  0  0  0  0  0
   58.9920   29.5440   45.9386 H   0  0  0  0  0  0  0  0  0  0  0  0
   60.8536   30.8793   46.7979 H   0  0  0  0  0  0  0  0  0  0  0  0
   63.6066   34.6057   48.5095 H   0  0  0  0  0  0  0  0  0  0  0  0
   61.8991   34.9621   48.9999 H   0  0  0  0  0  0  0  0  0  0  0  0
   60.9180   31.5099   52.0088 H   0  0  0  0  0  0  0  0  0  0  0  0
   63.0490   30.3400   52.1930 H   0  0  0  0  0  0  0  0  0  0  0  0
   66.7520   30.5644   51.9901 H   0  0  0  0  0  0  0  0  0  0  0  0
   65.2322   30.9705   52.8610 H   0  0  0  0  0  0  0  0  0  0  0  0
   63.8570   29.0810   51.0570 H   0  0  0  0  0  0  0  0  0  0  0  0
   67.5358   29.7012   50.9489 H   0  0  0  0  0  0  0  0  0  0  0  0
   69.1567   28.3277   49.6558 H   0  0  0  0  0  0  0  0  0  0  0  0
   68.7508   25.8674   49.5080 H   0  0  0  0  0  0  0  0  0  0  0  0
   65.1097   26.1250   53.0957 H   0  0  0  0  0  0  0  0  0  0  0  0
   64.0695   26.5634   51.6984 H   0  0  0  0  0  0  0  0  0  0  0  0
   64.9639   25.0056   51.6984 H   0  0  0  0  0  0  0  0  0  0  0  0
   60.5603   35.9192   46.6005 H   0  0  0  0  0  0  0  0  0  0  0  0
   58.2840   35.3450   45.5470 H   0  0  0  0  0  0  0  0  0  0  0  0
   56.8629   33.0999   44.9114 H   0  0  0  0  0  0  0  0  0  0  0  0
  1  2  1  0
  2  3  1  0
  3  4  2  0
  4  5  1  0
  5  6  2  0
  6  7  1  0
  7  8  1  0
  8  9  2  0
  8 10  1  0
 10 11  1  0
 11 12  1  0
 12 13  1  0
 12 14  2  0
 14 15  1  0
 15 16  1  0
 16 17  2  0
 17 18  1  0
 18 19  1  0
 19 20  1  0
 19 21  1  1
 19 22  1  0
 22 23  2  0
 23 24  1  0
 24 25  2  0
 25 26  1  0
 26 27  2  0
 27 28  1  0
 16 29  1  0
 29 30  2  0
  7 31  2  0
 31 32  1  0
 32 33  1  0
 33 34  2  0
 34  3  1  0
 33  6  1  0
 29 11  1  0
 27 22  1  0
  1 35  1  0
  1 36  1  0
  1 37  1  0
  4 38  1  0
  5 39  1  0
 10 40  1  0
 10 41  1  0
 14 42  1  0
 15 43  1  0
 18 44  1  0
 18 45  1  0
 20 46  1  0
 23 47  1  0
 24 48  1  0
 25 49  1  0
 28 50  1  0
 28 51  1  0
 28 52  1  0
 31 53  1  0
 32 54  1  0
 34 55  1  0
M  CHG  1  27   1
M  END
>  <smiles>  (93) 
COc1ccc2c(C(=O)Cn3c(Cl)c[nH]c(=NCC(O)(F)c4cccn[n+]4C)c3=O)c[nH]c2c1

>  <score_type>  (93) 
oracle

>  <origin>  (93) 
adg

>  <m_score__min__energy>  (93) 
-7.7199999999999998

>  <m_primary>  (93) 
energy

$$$$
93:0
     RDKit          3D

 67 70  0  0  0  0  0  0  0  0999 V2000
   58.2380   34.8890   52.3230 N   0  0  0  0  0  0  0  0  0  0  0  0
   58.4220   33.4850   52.1030 C   0  0  0  0  0  0  0  0  0  0  0  0
   57.3730   32.6050   52.4080 C   0  0  0  0  0  0  0  0  0  0  0  0
   57.5540   31.2240   52.3140 C   0  0  0  0  0  0  0  0  0  0  0  0
   58.7900   30.7090   51.9260 C   0  0  0  0  0  0  0  0  0  0  0  0
   59.8380   31.5720   51.6000 C   0  0  0  0  0  0  0  0  0  0  0  0
   59.6580   32.9600   51.6530 C   0  0  0  0  0  0  0  0  0  0  0  0
   60.7470   33.8010   51.2440 N   0  0  0  0  0  0  0  0  0  0  0  0
   61.0420   34.1950   49.8960 C   0  0  0  0  0  0  0  0  0  0  0  0
   62.1000   34.8420   49.6760 O   0  0  0  0  0  0  0  0  0  0  0  0
   60.1500   33.8560   48.7620 C   0  0  0  0  0  0  0  0  0  0  0  0
   59.0650   32.9870   48.9580 C   0  0  0  0  0  0  0  0  0  0  0  0
   58.2150   32.6600   47.8970 C   0  0  0  0  0  0  0  0  0  0  0  0
   58.4340   33.2040   46.6220 C   0  0  0  0  0  0  0  0  0  0  0  0
   57.5110   32.8790   45.4800 C   0  0  0  0  0  0  0  0  0  0  0  0
   57.9110   31.6250   44.8470 N   0  0  0  0  0  0  0  0  0  0  0  0
   56.9720   30.7550   44.2010 C   0  0  0  0  0  0  0  0  0  0  0  0
   55.7350   30.9850   44.2800 O   0  0  0  0  0  0  0  0  0  0  0  0
   57.4550   29.5470   43.4540 C   0  0  0  0  0  0  0  0  0  0  0  0
   57.7230   28.3660   44.3960 C   0  0  0  0  0  0  0  0  0  0  0  0
   58.6090   28.7580   45.5510 C   0  0  0  0  0  0  0  0  0  0  0  0
   58.0450   29.2840   46.7240 C   0  0  0  0  0  0  0  0  0  0  0  0
   58.8640   29.6780   47.7860 C   0  0  0  0  0  0  0  0  0  0  0  0
   60.2600   29.5450   47.6940 C   0  0  0  0  0  0  0  0  0  0  0  0
   61.1500   29.9850   48.8380 C   0  0  0  0  0  0  0  0  0  0  0  0
   62.0150   31.1420   48.5190 N   0  0  0  0  0  0  0  0  0  0  0  0
   63.1790   31.2750   49.4110 C   0  0  0  0  0  0  0  0  0  0  0  0
   63.8470   32.6520   49.2090 C   0  0  0  0  0  0  0  0  0  0  0  0
   63.4110   33.3180   47.9710 N   0  0  0  0  0  0  0  0  0  0  0  0
   63.3880   32.3770   46.8420 C   0  0  0  0  0  0  0  0  0  0  0  0
   62.4230   31.1970   47.1020 C   0  0  0  0  0  0  0  0  0  0  0  0
   60.8250   29.0290   46.5140 C   0  0  0  0  0  0  0  0  0  0  0  0
   60.0040   28.6400   45.4510 C   0  0  0  0  0  0  0  0  0  0  0  0
   59.5080   34.0850   46.4270 C   0  0  0  0  0  0  0  0  0  0  0  0
   60.3570   34.4120   47.4880 C   0  0  0  0  0  0  0  0  0  0  0  0
   59.0130   35.4700   52.7160 H   0  0  0  0  0  0  0  0  0  0  0  0
   57.3870   35.3890   51.9870 H   0  0  0  0  0  0  0  0  0  0  0  0
   56.3990   33.0068   52.7241 H   0  0  0  0  0  0  0  0  0  0  0  0
   56.7221   30.5427   52.5459 H   0  0  0  0  0  0  0  0  0  0  0  0
   58.9399   29.6204   51.8766 H   0  0  0  0  0  0  0  0  0  0  0  0
   60.8121   31.1588   51.2993 H   0  0  0  0  0  0  0  0  0  0  0  0
   58.8819   32.5596   49.9549 H   0  0  0  0  0  0  0  0  0  0  0  0
   57.3714   31.9737   48.0623 H   0  0  0  0  0  0  0  0  0  0  0  0
   56.4833   32.7821   45.8601 H   0  0  0  0  0  0  0  0  0  0  0  0
   57.5627   33.6880   44.7364 H   0  0  0  0  0  0  0  0  0  0  0  0
   58.9270   31.3790   44.8310 H   0  0  0  0  0  0  0  0  0  0  0  0
   56.6897   29.2517   42.7211 H   0  0  0  0  0  0  0  0  0  0  0  0
   58.3997   29.8081   42.9546 H   0  0  0  0  0  0  0  0  0  0  0  0
   56.7634   28.0018   44.7916 H   0  0  0  0  0  0  0  0  0  0  0  0
   58.2384   27.5820   43.8217 H   0  0  0  0  0  0  0  0  0  0  0  0
   56.9530   29.3866   46.8078 H   0  0  0  0  0  0  0  0  0  0  0  0
   58.4133   30.0945   48.6989 H   0  0  0  0  0  0  0  0  0  0  0  0
   60.5090   30.2571   49.6895 H   0  0  0  0  0  0  0  0  0  0  0  0
   61.8188   29.1410   49.0627 H   0  0  0  0  0  0  0  0  0  0  0  0
   62.8493   31.1803   50.4561 H   0  0  0  0  0  0  0  0  0  0  0  0
   63.9059   30.4839   49.1750 H   0  0  0  0  0  0  0  0  0  0  0  0
   63.5919   33.2958   50.0637 H   0  0  0  0  0  0  0  0  0  0  0  0
   64.9320   32.4874   49.1337 H   0  0  0  0  0  0  0  0  0  0  0  0
   62.4470   33.6990   48.1110 H   0  0  0  0  0  0  0  0  0  0  0  0
   63.0616   32.9122   45.9381 H   0  0  0  0  0  0  0  0  0  0  0  0
   64.4017   31.9697   46.7137 H   0  0  0  0  0  0  0  0  0  0  0  0
   61.5274   31.3215   46.4756 H   0  0  0  0  0  0  0  0  0  0  0  0
   62.9438   30.2605   46.8535 H   0  0  0  0  0  0  0  0  0  0  0  0
   61.9172   28.9310   46.4269 H   0  0  0  0  0  0  0  0  0  0  0  0
   60.4542   28.2391   44.5309 H   0  0  0  0  0  0  0  0  0  0  0  0
   59.6832   34.5214   45.4326 H   0  0  0  0  0  0  0  0  0  0  0  0
   61.1923   35.1088   47.3249 H   0  0  0  0  0  0  0  0  0  0  0  0
  1  2  1  0
  2  3  2  0
  3  4  1  0
  4  5  2  0
  5  6  1  0
  6  7  2  0
  7  8  1  0
  8  9  1  0
  9 10  2  0
  9 11  1  0
 11 12  2  0
 12 13  1  0
 13 14  2  0
 14 15  1  0
 15 16  1  0
 16 17  1  0
 17 18  2  0
 17 19  1  0
 19 20  1  0
 20 21  1  0
 21 22  2  0
 22 23  1  0
 23 24  2  0
 24 25  1  0
 25 26  1  0
 26 27  1  0
 27 28  1  0
 28 29  1  0
 29 30  1  0
 30 31  1  0
 24 32  1  0
 32 33  2  0
 14 34  1  0
 34 35  2  0
  7  2  1  0
 35 11  1  0
 33 21  1  0
 31 26  1  0
  1 36  1  0
  1 37  1  0
  3 38  1  0
  4 39  1  0
  5 40  1  0
  6 41  1  0
 12 42  1  0
 13 43  1  0
 15 44  1  0
 15 45  1  0
 16 46  1  0
 19 47  1  0
 19 48  1  0
 20 49  1  0
 20 50  1  0
 22 51  1  0
 23 52  1  0
 25 53  1  0
 25 54  1  0
 27 55  1  0
 27 56  1  0
 28 57  1  0
 28 58  1  0
 29 59  1  0
 30 60  1  0
 30 61  1  0
 31 62  1  0
 31 63  1  0
 32 64  1  0
 33 65  1  0
 34 66  1  0
 35 67  1  0
M  CHG  1   8  -1
M  END
>  <UniqueID>  (94) 
83

>  <SMILES>  (94) 
Nc1ccccc1[N-]C(=O)c1ccc(CNC(=O)CCc2ccc(CN3CCNCC3)cc2)cc1

>  <Energy>  (94) 
82.5774635291237

>  <Genealogy>  (94) 
Nc1ccccc1[N-]C(=O)c1ccc(CNC(=O)CCc2ccc(CN3CCNCC3)cc2)cc1 (protonated)
Nc1ccccc1[N-]C(=O)c1ccc(CNC(=O)CCc2ccc(CN3CCNCC3)cc2)cc1 (3D coordinates assigned)
Nc1ccccc1[N-]C(=O)c1ccc(CNC(=O)CCc2ccc(CN3CCNCC3)cc2)cc1 (nonaromatic ring conformer: 82.5774635291237 kcal/mol)

>  <smiles>  (94) 
Nc1ccccc1NC(=O)c1ccc(CNC(=O)CCc2ccc(CN3CCNCC3)cc2)cc1

>  <score_type>  (94) 
oracle

>  <origin>  (94) 
adg

>  <m_score__min__energy>  (94) 
-10.949999999999999

>  <m_primary>  (94) 
energy

$$$$
94:0
     RDKit          3D

 38 40  0  0  0  0  0  0  0  0999 V2000
   62.2530   34.5520   48.9270 O   0  0  0  0  0  0  0  0  0  0  0  0
   61.1830   33.9190   49.1310 C   0  0  0  0  0  0  0  0  0  0  0  0
   60.9460   33.3770   50.4380 N   0  0  0  0  0  0  0  0  0  0  0  0
   59.6720   32.9930   50.9750 C   0  0  0  0  0  0  0  0  0  0  0  0
   59.0110   31.8250   50.5510 C   0  0  0  0  0  0  0  0  0  0  0  0
   57.7650   31.4870   51.0880 C   0  0  0  0  0  0  0  0  0  0  0  0
   57.1650   32.3160   52.0380 C   0  0  0  0  0  0  0  0  0  0  0  0
   57.8050   33.4900   52.4470 C   0  0  0  0  0  0  0  0  0  0  0  0
   59.0510   33.8310   51.9110 C   0  0  0  0  0  0  0  0  0  0  0  0
   60.2350   33.7150   48.0120 C   0  0  0  0  0  0  0  0  0  0  0  0
   59.4570   34.7800   47.5250 C   0  0  0  0  0  0  0  0  0  0  0  0
   58.5790   34.5840   46.4560 C   0  0  0  0  0  0  0  0  0  0  0  0
   58.4550   33.3180   45.8640 C   0  0  0  0  0  0  0  0  0  0  0  0
   57.5500   33.1120   44.6800 C   0  0  0  0  0  0  0  0  0  0  0  0
   56.6690   31.9730   44.9130 N   0  0  0  0  0  0  0  0  0  0  0  0
   56.6820   30.7850   44.1140 C   0  0  0  0  0  0  0  0  0  0  0  0
   56.7090   30.8630   42.8560 O   0  0  0  0  0  0  0  0  0  0  0  0
   56.6620   29.4660   44.7580 C   0  0  0  0  0  0  0  0  0  0  0  0
   57.7800   28.7510   45.1540 C   0  0  0  0  0  0  0  0  0  0  0  0
   57.3110   27.5780   45.7020 C   0  0  0  0  0  0  0  0  0  0  0  0
   55.9390   27.6470   45.6080 C   0  0  0  0  0  0  0  0  0  0  0  0
   55.0690   26.6590   46.0490 O   0  0  0  0  0  0  0  0  0  0  0  0
   55.5270   28.7920   45.0340 N   0  0  0  0  0  0  0  0  0  0  0  0
   59.2170   32.2500   46.3600 C   0  0  0  0  0  0  0  0  0  0  0  0
   60.0950   32.4450   47.4300 C   0  0  0  0  0  0  0  0  0  0  0  0
   59.4762   31.1758   49.7946 H   0  0  0  0  0  0  0  0  0  0  0  0
   57.2571   30.5674   50.7618 H   0  0  0  0  0  0  0  0  0  0  0  0
   56.1881   32.0453   52.4650 H   0  0  0  0  0  0  0  0  0  0  0  0
   57.3283   34.1456   53.1906 H   0  0  0  0  0  0  0  0  0  0  0  0
   59.5460   34.7616   52.2257 H   0  0  0  0  0  0  0  0  0  0  0  0
   59.5401   35.7740   47.9886 H   0  0  0  0  0  0  0  0  0  0  0  0
   57.9820   35.4264   46.0766 H   0  0  0  0  0  0  0  0  0  0  0  0
   56.9425   34.0158   44.5251 H   0  0  0  0  0  0  0  0  0  0  0  0
   58.1636   32.9154   43.7885 H   0  0  0  0  0  0  0  0  0  0  0  0
   58.8312   29.0583   45.0514 H   0  0  0  0  0  0  0  0  0  0  0  0
   57.9078   26.7572   46.1263 H   0  0  0  0  0  0  0  0  0  0  0  0
   59.1231   31.2532   45.9043 H   0  0  0  0  0  0  0  0  0  0  0  0
   60.6799   31.5982   47.8185 H   0  0  0  0  0  0  0  0  0  0  0  0
  1  2  2  0
  2  3  1  0
  3  4  1  0
  4  5  2  0
  5  6  1  0
  6  7  2  0
  7  8  1  0
  8  9  2  0
  2 10  1  0
 10 11  2  0
 11 12  1  0
 12 13  2  0
 13 14  1  0
 14 15  1  0
 15 16  1  0
 16 17  2  0
 16 18  1  0
 18 19  2  0
 19 20  1  0
 20 21  2  0
 21 22  1  0
 21 23  1  0
 13 24  1  0
 24 25  2  0
  9  4  1  0
 25 10  1  0
 23 18  1  0
  5 26  1  0
  6 27  1  0
  7 28  1  0
  8 29  1  0
  9 30  1  0
 11 31  1  0
 12 32  1  0
 14 33  1  0
 14 34  1  0
 19 35  1  0
 20 36  1  0
 24 37  1  0
 25 38  1  0
M  CHG  4   3  -1  15  -1  22  -1  23  -1
M  END
>  <UniqueID>  (95) 
84

>  <SMILES>  (95) 
O=C([N-]c1ccccc1)c1ccc(C[N-]C(=O)c2ccc([O-])[n-]2)cc1

>  <Energy>  (95) 
69.03587188290007

>  <Genealogy>  (95) 
O=C([N-]c1ccccc1)c1ccc(C[N-]C(=O)c2ccc([O-])[n-]2)cc1 (protonated)
O=C([N-]c1ccccc1)c1ccc(C[N-]C(=O)c2ccc([O-])[n-]2)cc1 (3D coordinates assigned)
O=C([N-]c1ccccc1)c1ccc(C[N-]C(=O)c2ccc([O-])[n-]2)cc1 (optimized conformer: 69.03587188290007 kcal/mol)

>  <smiles>  (95) 
O=C(Nc1ccccc1)c1ccc(CNC(=O)c2ccc(O)[nH]2)cc1

>  <score_type>  (95) 
oracle

>  <origin>  (95) 
adg

>  <m_score__min__energy>  (95) 
-15.57

>  <m_primary>  (95) 
energy

$$$$
95:0
     RDKit          3D

 55 58  0  0  1  0  0  0  0  0999 V2000
   56.2560   22.2340   48.6720 C   0  0  0  0  0  0  0  0  0  0  0  0
   57.3530   22.5800   47.8770 O   0  0  0  0  0  0  0  0  0  0  0  0
   57.3950   23.7040   47.0660 C   0  0  0  0  0  0  0  0  0  0  0  0
   56.6810   24.8400   47.4470 C   0  0  0  0  0  0  0  0  0  0  0  0
   56.6840   25.9870   46.6840 C   0  0  0  0  0  0  0  0  0  0  0  0
   57.4230   26.0000   45.5050 C   0  0  0  0  0  0  0  0  0  0  0  0
   57.3820   27.2250   44.7640 N   0  0  0  0  0  0  0  0  0  0  0  0
   57.7940   28.3400   45.2660 C   0  0  0  0  0  0  0  0  0  0  0  0
   58.7390   28.2410   46.2470 N   0  0  0  0  0  0  0  0  0  0  0  0
   59.2010   29.3750   46.8020 C   0  0  0  0  0  0  0  0  0  0  0  0
   60.1860   29.3310   47.8310 N   0  0  0  0  0  0  0  0  0  0  0  0
   60.7980   30.6050   48.2050 C   0  0  0  0  0  0  0  0  0  0  0  0
   61.5930   30.3700   49.4870 C   0  0  0  0  0  0  0  0  0  0  0  0
   60.7130   29.6660   50.3750 N   0  0  0  0  0  0  0  0  0  0  0  0
   60.6950   28.2730   49.9880 C   0  0  0  0  0  0  0  0  0  0  0  0
   60.5800   28.0990   48.4930 C   0  0  0  0  0  0  0  0  0  0  0  0
   58.7420   30.5880   46.4000 N   0  0  0  0  0  0  0  0  0  0  0  0
   57.8080   30.7290   45.4320 C   0  0  0  0  0  0  0  0  0  0  0  0
   57.3700   32.0910   45.0620 C   0  0  0  0  0  0  0  0  0  0  0  0
   58.1390   33.1790   45.6700 C   0  0  0  0  0  0  0  0  0  0  0  0
   58.8490   34.0180   44.8480 C   0  0  0  0  0  0  0  0  0  0  0  0
   59.6060   35.0810   45.2850 C   0  0  0  0  0  0  0  0  0  0  0  0
   59.6440   35.3020   46.6470 C   0  0  0  0  0  0  0  0  0  0  0  0
   58.9350   34.4660   47.4780 C   0  0  0  0  0  0  0  0  0  0  0  0
   58.1780   33.4040   47.0360 C   0  0  0  0  0  0  0  0  0  0  0  0
   57.3330   29.5750   44.8610 C   0  0  0  0  0  0  0  0  0  0  0  0
   56.3570   29.6260   43.8330 N   0  0  0  0  0  0  0  0  0  0  0  0
   56.6420   29.9080   42.6450 O   0  0  0  0  0  0  0  0  0  0  0  0
   55.0320   29.3540   44.1520 O   0  0  0  0  0  0  0  0  0  0  0  0
   58.1420   24.9020   45.0930 C   0  0  0  0  0  0  0  0  0  0  0  0
   58.1070   23.7760   45.8910 C   0  0  0  0  0  0  0  0  0  0  0  0
   56.5307   22.3206   49.7336 H   0  0  0  0  0  0  0  0  0  0  0  0
   55.4170   22.9111   48.4539 H   0  0  0  0  0  0  0  0  0  0  0  0
   55.9573   21.1980   48.4539 H   0  0  0  0  0  0  0  0  0  0  0  0
   56.1004   24.8195   48.3811 H   0  0  0  0  0  0  0  0  0  0  0  0
   56.1145   26.8735   46.9999 H   0  0  0  0  0  0  0  0  0  0  0  0
   59.0950   27.3160   46.5620 H   0  0  0  0  0  0  0  0  0  0  0  0
   61.4689   30.9494   47.4042 H   0  0  0  0  0  0  0  0  0  0  0  0
   60.0281   31.3751   48.3608 H   0  0  0  0  0  0  0  0  0  0  0  0
   62.4875   29.7653   49.2766 H   0  0  0  0  0  0  0  0  0  0  0  0
   61.9361   31.3177   49.9276 H   0  0  0  0  0  0  0  0  0  0  0  0
   60.9580   29.7160   51.3760 H   0  0  0  0  0  0  0  0  0  0  0  0
   61.6267   27.7982   50.3295 H   0  0  0  0  0  0  0  0  0  0  0  0
   59.8143   27.8046   50.4517 H   0  0  0  0  0  0  0  0  0  0  0  0
   61.5548   27.7787   48.0966 H   0  0  0  0  0  0  0  0  0  0  0  0
   59.8039   27.3445   48.2972 H   0  0  0  0  0  0  0  0  0  0  0  0
   57.4477   32.1885   43.9691 H   0  0  0  0  0  0  0  0  0  0  0  0
   56.3422   32.1948   45.4399 H   0  0  0  0  0  0  0  0  0  0  0  0
   58.8103   33.8277   43.7653 H   0  0  0  0  0  0  0  0  0  0  0  0
   60.1551   35.7244   44.5818 H   0  0  0  0  0  0  0  0  0  0  0  0
   60.2323   36.1339   47.0615 H   0  0  0  0  0  0  0  0  0  0  0  0
   58.9751   34.6573   48.5605 H   0  0  0  0  0  0  0  0  0  0  0  0
   57.6273   32.7612   47.7385 H   0  0  0  0  0  0  0  0  0  0  0  0
   58.7246   24.9205   44.1601 H   0  0  0  0  0  0  0  0  0  0  0  0
   58.6773   22.8915   45.5711 H   0  0  0  0  0  0  0  0  0  0  0  0
  1  2  1  0
  2  3  1  0
  3  4  2  0
  4  5  1  0
  5  6  2  0
  6  7  1  0
  7  8  2  0
  8  9  1  0
  9 10  1  0
 10 11  1  0
 11 12  1  0
 12 13  1  0
 13 14  1  0
 14 15  1  0
 15 16  1  0
 10 17  2  0
 17 18  1  0
 18 19  1  0
 19 20  1  0
 20 21  2  0
 21 22  1  0
 22 23  2  0
 23 24  1  0
 24 25  2  0
 18 26  2  0
 26 27  1  0
 27 28  2  0
 27 29  1  0
  6 30  1  0
 30 31  2  0
 31  3  1  0
 26  8  1  0
 16 11  1  0
 25 20  1  0
  1 32  1  0
  1 33  1  0
  1 34  1  0
  4 35  1  0
  5 36  1  0
  9 37  1  0
 12 38  1  0
 12 39  1  0
 13 40  1  0
 13 41  1  0
 14 42  1  0
 15 43  1  0
 15 44  1  0
 16 45  1  0
 16 46  1  0
 19 47  1  0
 19 48  1  0
 21 49  1  0
 22 50  1  0
 23 51  1  0
 24 52  1  0
 25 53  1  0
 30 54  1  0
 31 55  1  0
M  CHG  2  27   1  29  -1
M  END
>  <smiles>  (96) 
COc1ccc(N=c2[nH]c(N3CCNCC3)nc(Cc3ccccc3)c2[N+](=O)[O-])cc1

>  <score_type>  (96) 
oracle

>  <origin>  (96) 
adg

>  <m_score__min__energy>  (96) 
-8.3499999999999996

>  <m_primary>  (96) 
energy

$$$$
