0:0
     RDKit          3D

 57 60  0  0  0  0  0  0  0  0999 V2000
   64.2200   35.0920   53.4760 C   0  0  0  0  0  0  0  0  0  0  0  0
   65.1010   35.3010   52.3760 O   0  0  0  0  0  0  0  0  0  0  0  0
   65.5990   34.2880   51.5390 C   0  0  0  0  0  0  0  0  0  0  0  0
   64.6920   33.5290   50.8640 N   0  0  0  0  0  0  0  0  0  0  0  0
   65.0770   32.5520   50.0040 C   0  0  0  0  0  0  0  0  0  0  0  0
   64.1020   31.8130   49.3230 O   0  0  0  0  0  0  0  0  0  0  0  0
   62.9530   32.3900   48.6930 C   0  0  2  0  0  0  0  0  0  0  0  0
   63.2590   33.8280   48.3250 C   0  0  0  0  0  0  0  0  0  0  0  0
   63.7690   34.1050   47.2070 O   0  0  0  0  0  0  0  0  0  0  0  0
   63.0460   34.8510   49.2430 O   0  0  0  0  0  0  0  0  0  0  0  0
   61.6630   32.1590   49.5890 C   0  0  1  0  0  0  0  0  0  0  0  0
   61.6390   30.7140   50.1630 C   0  0  0  0  0  0  0  0  0  0  0  0
   60.7970   29.7380   49.5860 C   0  0  0  0  0  0  0  0  0  0  0  0
   60.7780   28.4230   50.0590 C   0  0  0  0  0  0  0  0  0  0  0  0
   61.6360   28.0360   51.0870 C   0  0  0  0  0  0  0  0  0  0  0  0
   62.5380   28.9550   51.6170 C   0  0  0  0  0  0  0  0  0  0  0  0
   62.5600   30.2700   51.1480 C   0  0  0  0  0  0  0  0  0  0  0  0
   61.7250   33.0780   50.7500 N   0  0  0  0  0  0  0  0  0  0  0  0
   60.7620   32.7920   51.8240 C   0  0  0  0  0  0  0  0  0  0  0  0
   59.4240   33.3170   51.4540 C   0  0  0  0  0  0  0  0  0  0  0  0
   58.9800   34.3630   52.0020 O   0  0  0  0  0  0  0  0  0  0  0  0
   58.6680   32.6510   50.4410 N   0  0  0  0  0  0  0  0  0  0  0  0
   57.6390   31.6920   50.8520 C   0  0  0  0  0  0  0  0  0  0  0  0
   59.0980   32.7220   49.0660 C   0  0  0  0  0  0  0  0  0  0  0  0
   58.1240   33.0530   48.1010 C   0  0  0  0  0  0  0  0  0  0  0  0
   58.4400   33.1330   46.7500 C   0  0  0  0  0  0  0  0  0  0  0  0
   59.7350   32.8810   46.3280 C   0  0  0  0  0  0  0  0  0  0  0  0
   60.7180   32.5480   47.2530 C   0  0  0  0  0  0  0  0  0  0  0  0
   60.4420   32.4380   48.6430 C   0  0  0  0  0  0  0  0  0  0  0  0
   66.3970   32.3020   49.8130 N   0  0  0  0  0  0  0  0  0  0  0  0
   67.3460   33.0070   50.4760 C   0  0  0  0  0  0  0  0  0  0  0  0
   66.9790   34.0130   51.3810 C   0  0  0  0  0  0  0  0  0  0  0  0
   68.0520   34.7120   52.1690 C   0  0  0  0  0  0  0  0  0  0  0  0
   64.7724   35.2230   54.4182 H   0  0  0  0  0  0  0  0  0  0  0  0
   63.3964   35.8197   53.4296 H   0  0  0  0  0  0  0  0  0  0  0  0
   63.8110   34.0719   53.4296 H   0  0  0  0  0  0  0  0  0  0  0  0
   63.6710   33.7160   50.9950 H   0  0  0  0  0  0  0  0  0  0  0  0
   62.7136   31.8905   47.7427 H   0  0  0  0  0  0  0  0  0  0  0  0
   60.1429   30.0185   48.7473 H   0  0  0  0  0  0  0  0  0  0  0  0
   60.0842   27.6916   49.6189 H   0  0  0  0  0  0  0  0  0  0  0  0
   61.6007   27.0085   51.4782 H   0  0  0  0  0  0  0  0  0  0  0  0
   63.2359   28.6438   52.4082 H   0  0  0  0  0  0  0  0  0  0  0  0
   63.3039   30.9743   51.5487 H   0  0  0  0  0  0  0  0  0  0  0  0
   61.6530   34.0800   50.4470 H   0  0  0  0  0  0  0  0  0  0  0  0
   60.6979   31.7045   51.9767 H   0  0  0  0  0  0  0  0  0  0  0  0
   61.0985   33.2779   52.7517 H   0  0  0  0  0  0  0  0  0  0  0  0
   57.5943   31.6504   51.9503 H   0  0  0  0  0  0  0  0  0  0  0  0
   56.6628   32.0099   50.4571 H   0  0  0  0  0  0  0  0  0  0  0  0
   57.8875   30.6958   50.4571 H   0  0  0  0  0  0  0  0  0  0  0  0
   57.0918   33.2522   48.4248 H   0  0  0  0  0  0  0  0  0  0  0  0
   57.6630   33.3960   46.0171 H   0  0  0  0  0  0  0  0  0  0  0  0
   59.9861   32.9445   45.2589 H   0  0  0  0  0  0  0  0  0  0  0  0
   61.7426   32.3637   46.8977 H   0  0  0  0  0  0  0  0  0  0  0  0
   68.4101   32.7886   50.3030 H   0  0  0  0  0  0  0  0  0  0  0  0
   67.8583   34.5858   53.2444 H   0  0  0  0  0  0  0  0  0  0  0  0
   69.0316   34.2782   51.9195 H   0  0  0  0  0  0  0  0  0  0  0  0
   68.0511   35.7833   51.9195 H   0  0  0  0  0  0  0  0  0  0  0  0
  1  2  1  0
  2  3  1  0
  3  4  2  0
  4  5  1  0
  5  6  1  0
  6  7  1  0
  7  8  1  0
  8  9  2  0
  8 10  1  0
  7 11  1  0
 11 12  1  1
 12 13  2  0
 13 14  1  0
 14 15  2  0
 15 16  1  0
 16 17  2  0
 11 18  1  0
 18 19  1  0
 19 20  1  0
 20 21  2  0
 20 22  1  0
 22 23  1  0
 22 24  1  0
 24 25  2  0
 25 26  1  0
 26 27  2  0
 27 28  1  0
 28 29  2  0
  5 30  2  0
 30 31  1  0
 31 32  2  0
 32 33  1  0
 32  3  1  0
 29 11  1  0
 17 12  1  0
 29 24  1  0
  1 34  1  0
  1 35  1  0
  1 36  1  0
  4 37  1  0
  7 38  1  6
 13 39  1  0
 14 40  1  0
 15 41  1  0
 16 42  1  0
 17 43  1  0
 18 44  1  0
 19 45  1  0
 19 46  1  0
 23 47  1  0
 23 48  1  0
 23 49  1  0
 25 50  1  0
 26 51  1  0
 27 52  1  0
 28 53  1  0
 31 54  1  0
 33 55  1  0
 33 56  1  0
 33 57  1  0
M  CHG  2   4   1  10  -1
M  END
>  <UniqueID>  (1) 
1

>  <SMILES>  (1) 
COc1[nH+]c(O[C@H](C(=O)[O-])[C@@]2(c3ccccc3)NCC(=O)N(C)c3ccccc32)ncc1C

>  <Energy>  (1) 
103.0676287247276

>  <Genealogy>  (1) 
COc1[nH+]c(OC(C(=O)[O-])C2(c3ccccc3)NCC(=O)N(C)c3ccccc32)ncc1C (protonated)
COc1[nH+]c(O[C@H](C(=O)[O-])[C@@]2(c3ccccc3)NCC(=O)N(C)c3ccccc32)ncc1C (chirality)
COc1[nH+]c(O[C@H](C(=O)[O-])[C@@]2(c3ccccc3)NCC(=O)N(C)c3ccccc32)ncc1C (3D coordinates assigned)
COc1[nH+]c(O[C@H](C(=O)[O-])[C@@]2(c3ccccc3)NCC(=O)N(C)c3ccccc32)ncc1C (nonaromatic ring conformer: 103.0676287247276 kcal/mol)

>  <smiles>  (1) 
COc1nc(OC(C(=O)O)C2(c3ccccc3)NCC(=O)N(C)c3ccccc32)ncc1C

>  <score_type>  (1) 
oracle

>  <origin>  (1) 
adg

>  <m_score__min__energy>  (1) 
-5.7199999999999998

>  <m_primary>  (1) 
energy

$$$$
1:0
     RDKit          3D

 33 34  0  0  0  0  0  0  0  0999 V2000
   59.4600   27.8490   47.9200 C   0  0  0  0  0  0  0  0  0  0  0  0
   58.7450   27.4750   46.6240 C   0  0  0  0  0  0  0  0  0  0  0  0
   59.1900   28.3300   45.4220 C   0  0  0  0  0  0  0  0  0  0  0  0
   58.9290   29.8160   45.6300 C   0  0  0  0  0  0  0  0  0  0  0  0
   57.6740   30.4090   45.3250 C   0  0  0  0  0  0  0  0  0  0  0  0
   56.3600   29.5780   44.4810 S   0  0  0  0  0  0  0  0  0  0  0  0
   56.8330   29.0830   42.8390 C   0  0  0  0  0  0  0  0  0  0  0  0
   56.0090   28.3380   45.2550 O   0  0  0  0  0  0  0  0  0  0  0  0
   55.1430   30.4570   44.4290 O   0  0  0  0  0  0  0  0  0  0  0  0
   57.4780   31.7170   45.6180 N   0  0  0  0  0  0  0  0  0  0  0  0
   58.4370   32.4820   46.1860 C   0  0  0  0  0  0  0  0  0  0  0  0
   58.1610   33.8190   46.4960 C   0  0  0  0  0  0  0  0  0  0  0  0
   59.1400   34.6140   47.0910 C   0  0  0  0  0  0  0  0  0  0  0  0
   60.3920   34.0740   47.3860 C   0  0  0  0  0  0  0  0  0  0  0  0
   60.6780   32.7410   47.0760 C   0  0  0  0  0  0  0  0  0  0  0  0
   59.7070   31.9260   46.4480 C   0  0  0  0  0  0  0  0  0  0  0  0
   59.9430   30.6120   46.1120 N   0  0  0  0  0  0  0  0  0  0  0  0
   61.2120   30.0620   46.1900 O   0  0  0  0  0  0  0  0  0  0  0  0
   58.8516   27.5308   48.7794 H   0  0  0  0  0  0  0  0  0  0  0  0
   60.4381   27.3470   47.9572 H   0  0  0  0  0  0  0  0  0  0  0  0
   59.6055   28.9387   47.9572 H   0  0  0  0  0  0  0  0  0  0  0  0
   58.9555   26.4188   46.3999 H   0  0  0  0  0  0  0  0  0  0  0  0
   57.6709   27.6564   46.7769 H   0  0  0  0  0  0  0  0  0  0  0  0
   60.2683   28.1807   45.2637 H   0  0  0  0  0  0  0  0  0  0  0  0
   58.6028   28.0081   44.5493 H   0  0  0  0  0  0  0  0  0  0  0  0
   57.5918   28.2889   42.8997 H   0  0  0  0  0  0  0  0  0  0  0  0
   55.9505   28.7065   42.3010 H   0  0  0  0  0  0  0  0  0  0  0  0
   57.2492   29.9475   42.3010 H   0  0  0  0  0  0  0  0  0  0  0  0
   57.1713   34.2426   46.2701 H   0  0  0  0  0  0  0  0  0  0  0  0
   58.9251   35.6665   47.3277 H   0  0  0  0  0  0  0  0  0  0  0  0
   61.1586   34.7006   47.8653 H   0  0  0  0  0  0  0  0  0  0  0  0
   61.6652   32.3229   47.3222 H   0  0  0  0  0  0  0  0  0  0  0  0
   61.8020   30.1220   47.0070 H   0  0  0  0  0  0  0  0  0  0  0  0
  1  2  1  0
  2  3  1  0
  3  4  1  0
  4  5  2  0
  5  6  1  0
  6  7  1  0
  6  8  2  0
  6  9  2  0
  5 10  1  0
 10 11  2  0
 11 12  1  0
 12 13  2  0
 13 14  1  0
 14 15  2  0
 15 16  1  0
 16 17  2  0
 17 18  1  0
 17  4  1  0
 16 11  1  0
  1 19  1  0
  1 20  1  0
  1 21  1  0
  2 22  1  0
  2 23  1  0
  3 24  1  0
  3 25  1  0
  7 26  1  0
  7 27  1  0
  7 28  1  0
 12 29  1  0
 13 30  1  0
 14 31  1  0
 15 32  1  0
 18 33  1  0
M  CHG  1  17   1
M  END
>  <UniqueID>  (2) 
2

>  <SMILES>  (2) 
CCCc1c(S(C)(=O)=O)nc2ccccc2[n+]1O

>  <Energy>  (2) 
40.263495469996684

>  <Genealogy>  (2) 
CCCc1c(S(C)(=O)=O)nc2ccccc2[n+]1O (protonated)
CCCc1c(S(C)(=O)=O)nc2ccccc2[n+]1O (3D coordinates assigned)
CCCc1c(S(C)(=O)=O)nc2ccccc2[n+]1O (optimized conformer: 40.263495469996684 kcal/mol)

>  <smiles>  (2) 
CCCc1c(S(C)(=O)=O)nc2ccccc2[n+]1[O-]

>  <score_type>  (2) 
oracle

>  <origin>  (2) 
adg

>  <m_score__min__energy>  (2) 
-5.4199999999999999

>  <m_primary>  (2) 
energy

$$$$
2:0
     RDKit          3D

 19 20  0  0  0  0  0  0  0  0999 V2000
   55.1660   29.0690   44.5020 O   0  0  0  0  0  0  0  0  0  0  0  0
   56.1990   29.7820   44.6060 C   0  0  0  0  0  0  0  0  0  0  0  0
   56.0960   31.1720   44.4990 O   0  0  0  0  0  0  0  0  0  0  0  0
   57.1860   32.0220   44.8560 C   0  0  0  0  0  0  0  0  0  0  0  0
   58.5150   31.4540   44.3400 C   0  0  0  0  0  0  0  0  0  0  0  0
   58.6660   30.0000   44.7200 C   0  0  0  0  0  0  0  0  0  0  0  0
   59.9080   29.4590   44.8880 N   0  0  0  0  0  0  0  0  0  0  0  0
   60.0780   28.1370   45.1660 C   0  0  0  0  0  0  0  0  0  0  0  0
   58.9720   27.2920   45.2710 C   0  0  0  0  0  0  0  0  0  0  0  0
   57.6910   27.8130   45.0870 C   0  0  0  0  0  0  0  0  0  0  0  0
   57.5280   29.1760   44.8070 C   0  0  0  0  0  0  0  0  0  0  0  0
   57.0251   33.0176   44.4169 H   0  0  0  0  0  0  0  0  0  0  0  0
   57.2347   32.0892   45.9529 H   0  0  0  0  0  0  0  0  0  0  0  0
   58.5435   31.5442   43.2441 H   0  0  0  0  0  0  0  0  0  0  0  0
   59.3394   32.0226   44.7950 H   0  0  0  0  0  0  0  0  0  0  0  0
   60.7560   30.0640   44.7980 H   0  0  0  0  0  0  0  0  0  0  0  0
   61.0912   27.7332   45.3084 H   0  0  0  0  0  0  0  0  0  0  0  0
   59.1093   26.2242   45.4969 H   0  0  0  0  0  0  0  0  0  0  0  0
   56.8120   27.1559   45.1615 H   0  0  0  0  0  0  0  0  0  0  0  0
  1  2  2  0
  2  3  1  0
  3  4  1  0
  4  5  1  0
  5  6  1  0
  6  7  2  0
  7  8  1  0
  8  9  2  0
  9 10  1  0
 10 11  2  0
 11  2  1  0
 11  6  1  0
  4 12  1  0
  4 13  1  0
  5 14  1  0
  5 15  1  0
  7 16  1  0
  8 17  1  0
  9 18  1  0
 10 19  1  0
M  CHG  1   7   1
M  END
>  <UniqueID>  (3) 
3

>  <SMILES>  (3) 
O=C1OCCc2[nH+]cccc21

>  <Energy>  (3) 
19.972368684877775

>  <Genealogy>  (3) 
O=C1OCCc2[nH+]cccc21 (protonated)
O=C1OCCc2[nH+]cccc21 (3D coordinates assigned)
O=C1OCCc2[nH+]cccc21 (nonaromatic ring conformer: 19.972368684877775 kcal/mol)

>  <smiles>  (3) 
O=C1OCCc2ncccc21

>  <score_type>  (3) 
oracle

>  <origin>  (3) 
adg

>  <m_score__min__energy>  (3) 
-3.25

>  <m_primary>  (3) 
energy

$$$$
3:0
     RDKit          3D

 60 63  0  0  0  0  0  0  0  0999 V2000
   59.4750   32.0500   52.7890 C   0  0  0  0  0  0  0  0  0  0  0  0
   59.9740   30.7250   52.6330 O   0  0  0  0  0  0  0  0  0  0  0  0
   60.0080   30.0310   51.4160 C   0  0  0  0  0  0  0  0  0  0  0  0
   61.1590   29.3620   50.9590 C   0  0  0  0  0  0  0  0  0  0  0  0
   61.1430   28.6850   49.7350 C   0  0  0  0  0  0  0  0  0  0  0  0
   59.9720   28.6460   48.9580 C   0  0  0  0  0  0  0  0  0  0  0  0
   59.9370   27.9780   47.6390 C   0  0  0  0  0  0  0  0  0  0  0  0
   58.8100   27.6780   46.9720 C   0  0  0  0  0  0  0  0  0  0  0  0
   57.8970   26.1290   47.1360 S   0  0  0  0  0  0  0  0  0  0  0  0
   56.6080   26.8520   46.1160 C   0  0  0  0  0  0  0  0  0  0  0  0
   55.5350   26.2420   45.8690 O   0  0  0  0  0  0  0  0  0  0  0  0
   56.8650   28.1650   45.6230 N   0  0  0  0  0  0  0  0  0  0  0  0
   55.9030   28.9740   44.8710 C   0  0  0  0  0  0  0  0  0  0  0  0
   56.6190   29.9120   43.9000 C   0  0  0  0  0  0  0  0  0  0  0  0
   56.7130   31.2520   44.4700 N   0  0  0  0  0  0  0  0  0  0  0  0
   57.6130   32.2730   44.0230 C   0  0  0  0  0  0  0  0  0  0  0  0
   57.7740   32.4390   42.7840 O   0  0  0  0  0  0  0  0  0  0  0  0
   58.3210   33.1600   44.9630 C   0  0  0  0  0  0  0  0  0  0  0  0
   58.7840   34.4120   44.5280 C   0  0  0  0  0  0  0  0  0  0  0  0
   59.4370   35.2680   45.4180 C   0  0  0  0  0  0  0  0  0  0  0  0
   59.6420   34.8780   46.7440 C   0  0  0  0  0  0  0  0  0  0  0  0
   59.2100   33.6190   47.1820 C   0  0  0  0  0  0  0  0  0  0  0  0
   59.4220   33.1290   48.8620 S   0  0  0  0  0  0  0  0  0  0  0  0
   58.1780   32.4340   49.3450 O   0  0  0  0  0  0  0  0  0  0  0  0
   59.6240   34.3660   49.6940 O   0  0  0  0  0  0  0  0  0  0  0  0
   60.8210   32.0860   49.0440 N   0  0  0  0  0  0  0  0  0  0  0  0
   61.8870   32.7190   49.8410 C   0  0  0  0  0  0  0  0  0  0  0  0
   62.6000   33.8550   49.0670 C   0  0  0  0  0  0  0  0  0  0  0  0
   62.4010   33.7920   47.6640 O   0  0  0  0  0  0  0  0  0  0  0  0
   62.5080   32.4610   47.2120 C   0  0  0  0  0  0  0  0  0  0  0  0
   61.3250   31.6170   47.7330 C   0  0  0  0  0  0  0  0  0  0  0  0
   58.5590   32.7590   46.2880 C   0  0  0  0  0  0  0  0  0  0  0  0
   58.1070   28.6420   46.1260 C   0  0  0  0  0  0  0  0  0  0  0  0
   58.5440   29.7970   45.8680 O   0  0  0  0  0  0  0  0  0  0  0  0
   58.8360   29.3360   49.4020 C   0  0  0  0  0  0  0  0  0  0  0  0
   58.8520   30.0140   50.6250 C   0  0  0  0  0  0  0  0  0  0  0  0
   59.3866   32.2848   53.8600 H   0  0  0  0  0  0  0  0  0  0  0  0
   60.1670   32.7608   52.3137 H   0  0  0  0  0  0  0  0  0  0  0  0
   58.4860   32.1277   52.3137 H   0  0  0  0  0  0  0  0  0  0  0  0
   62.0755   29.3716   51.5673 H   0  0  0  0  0  0  0  0  0  0  0  0
   62.0526   28.1798   49.3781 H   0  0  0  0  0  0  0  0  0  0  0  0
   60.8967   27.7091   47.1735 H   0  0  0  0  0  0  0  0  0  0  0  0
   55.2381   28.3069   44.3028 H   0  0  0  0  0  0  0  0  0  0  0  0
   55.3231   29.5808   45.5820 H   0  0  0  0  0  0  0  0  0  0  0  0
   57.6313   29.5286   43.7044 H   0  0  0  0  0  0  0  0  0  0  0  0
   56.0477   29.9607   42.9612 H   0  0  0  0  0  0  0  0  0  0  0  0
   58.6320   34.7199   43.4829 H   0  0  0  0  0  0  0  0  0  0  0  0
   59.7906   36.2512   45.0742 H   0  0  0  0  0  0  0  0  0  0  0  0
   60.1436   35.5608   47.4456 H   0  0  0  0  0  0  0  0  0  0  0  0
   61.4436   33.1381   50.7563 H   0  0  0  0  0  0  0  0  0  0  0  0
   62.6361   31.9484   50.0755 H   0  0  0  0  0  0  0  0  0  0  0  0
   62.2156   34.8193   49.4307 H   0  0  0  0  0  0  0  0  0  0  0  0
   63.6793   33.7429   49.2472 H   0  0  0  0  0  0  0  0  0  0  0  0
   62.5035   32.4506   46.1121 H   0  0  0  0  0  0  0  0  0  0  0  0
   63.4466   32.0306   47.5911 H   0  0  0  0  0  0  0  0  0  0  0  0
   60.5054   31.6708   47.0014 H   0  0  0  0  0  0  0  0  0  0  0  0
   61.6856   30.5863   47.8655 H   0  0  0  0  0  0  0  0  0  0  0  0
   58.2324   31.7643   46.6255 H   0  0  0  0  0  0  0  0  0  0  0  0
   57.9257   29.3444   48.7845 H   0  0  0  0  0  0  0  0  0  0  0  0
   57.9485   30.5388   50.9690 H   0  0  0  0  0  0  0  0  0  0  0  0
  1  2  1  0
  2  3  1  0
  3  4  2  0
  4  5  1  0
  5  6  2  0
  6  7  1  0
  7  8  2  3
  8  9  1  0
  9 10  1  0
 10 11  2  0
 10 12  1  0
 12 13  1  0
 13 14  1  0
 14 15  1  0
 15 16  1  0
 16 17  2  0
 16 18  1  0
 18 19  2  0
 19 20  1  0
 20 21  2  0
 21 22  1  0
 22 23  1  0
 23 24  2  0
 23 25  2  0
 23 26  1  0
 26 27  1  0
 27 28  1  0
 28 29  1  0
 29 30  1  0
 30 31  1  0
 22 32  2  0
 12 33  1  0
 33 34  2  0
  6 35  1  0
 35 36  2  0
 36  3  1  0
 33  8  1  0
 32 18  1  0
 31 26  1  0
  1 37  1  0
  1 38  1  0
  1 39  1  0
  4 40  1  0
  5 41  1  0
  7 42  1  0
 13 43  1  0
 13 44  1  0
 14 45  1  0
 14 46  1  0
 19 47  1  0
 20 48  1  0
 21 49  1  0
 27 50  1  0
 27 51  1  0
 28 52  1  0
 28 53  1  0
 30 54  1  0
 30 55  1  0
 31 56  1  0
 31 57  1  0
 32 58  1  0
 35 59  1  0
 36 60  1  0
M  CHG  1  15  -1
M  END
>  <UniqueID>  (4) 
4

>  <SMILES>  (4) 
COc1ccc(C=C2SC(=O)N(CC[N-]C(=O)c3cccc(S(=O)(=O)N4CCOCC4)c3)C2=O)cc1

>  <Energy>  (4) 
98.4214081648919

>  <Genealogy>  (4) 
COc1ccc(C=C2SC(=O)N(CC[N-]C(=O)c3cccc(S(=O)(=O)N4CCOCC4)c3)C2=O)cc1 (protonated)
COc1ccc(C=C2SC(=O)N(CC[N-]C(=O)c3cccc(S(=O)(=O)N4CCOCC4)c3)C2=O)cc1 (3D coordinates assigned)
COc1ccc(C=C2SC(=O)N(CC[N-]C(=O)c3cccc(S(=O)(=O)N4CCOCC4)c3)C2=O)cc1 (nonaromatic ring conformer: 98.4214081648919 kcal/mol)

>  <smiles>  (4) 
COc1ccc(C=C2SC(=O)N(CCNC(=O)c3cccc(S(=O)(=O)N4CCOCC4)c3)C2=O)cc1

>  <score_type>  (4) 
oracle

>  <origin>  (4) 
adg

>  <m_score__min__energy>  (4) 
-11.9

>  <m_primary>  (4) 
energy

$$$$
4:0
     RDKit          3D

 43 45  0  0  0  0  0  0  0  0999 V2000
   60.1170   34.6750   47.2720 C   0  0  0  0  0  0  0  0  0  0  0  0
   59.7250   33.2840   47.5250 N   0  0  0  0  0  0  0  0  0  0  0  0
   60.2520   32.6090   48.7200 C   0  0  0  0  0  0  0  0  0  0  0  0
   61.7510   32.7630   48.8250 C   0  0  0  0  0  0  0  0  0  0  0  0
   62.3400   33.4630   49.8900 C   0  0  0  0  0  0  0  0  0  0  0  0
   63.7250   33.6190   49.9430 C   0  0  0  0  0  0  0  0  0  0  0  0
   64.5140   33.0860   48.9250 C   0  0  0  0  0  0  0  0  0  0  0  0
   63.9350   32.4220   47.8880 N   0  0  0  0  0  0  0  0  0  0  0  0
   62.5850   32.2570   47.8150 C   0  0  0  0  0  0  0  0  0  0  0  0
   58.7890   32.6470   46.6240 C   0  0  0  0  0  0  0  0  0  0  0  0
   58.7890   31.2570   46.4170 C   0  0  0  0  0  0  0  0  0  0  0  0
   57.8620   30.6980   45.5200 C   0  0  0  0  0  0  0  0  0  0  0  0
   57.8200   29.2760   45.2720 N   0  0  0  0  0  0  0  0  0  0  0  0
   58.0950   28.3180   46.3580 C   0  0  0  0  0  0  0  0  0  0  0  0
   57.4980   26.9390   46.0520 C   0  0  0  0  0  0  0  0  0  0  0  0
   57.9730   26.3960   44.6940 C   0  0  0  0  0  0  0  0  0  0  0  0
   58.1350   27.4830   43.6130 C   0  0  0  0  0  0  0  0  0  0  0  0
   57.3920   28.7770   43.9560 C   0  0  0  0  0  0  0  0  0  0  0  0
   56.9990   31.5230   44.8670 N   0  0  0  0  0  0  0  0  0  0  0  0
   57.0140   32.8640   45.0650 C   0  0  0  0  0  0  0  0  0  0  0  0
   57.9020   33.4130   45.9310 N   0  0  0  0  0  0  0  0  0  0  0  0
   60.2635   35.1948   48.2303 H   0  0  0  0  0  0  0  0  0  0  0  0
   61.0552   34.6929   46.6980 H   0  0  0  0  0  0  0  0  0  0  0  0
   59.3262   35.1802   46.6980 H   0  0  0  0  0  0  0  0  0  0  0  0
   59.7839   33.0469   49.6139 H   0  0  0  0  0  0  0  0  0  0  0  0
   60.0191   31.5367   48.6425 H   0  0  0  0  0  0  0  0  0  0  0  0
   61.7084   33.8889   50.6835 H   0  0  0  0  0  0  0  0  0  0  0  0
   64.1907   34.1581   50.7811 H   0  0  0  0  0  0  0  0  0  0  0  0
   65.6073   33.2024   48.9600 H   0  0  0  0  0  0  0  0  0  0  0  0
   64.5380   32.0330   47.1290 H   0  0  0  0  0  0  0  0  0  0  0  0
   62.1452   31.7239   46.9592 H   0  0  0  0  0  0  0  0  0  0  0  0
   59.5053   30.6145   46.9501 H   0  0  0  0  0  0  0  0  0  0  0  0
   59.1836   28.2177   46.4797 H   0  0  0  0  0  0  0  0  0  0  0  0
   57.6326   28.6985   47.2807 H   0  0  0  0  0  0  0  0  0  0  0  0
   57.8025   26.2366   46.8419 H   0  0  0  0  0  0  0  0  0  0  0  0
   56.4036   27.0427   46.0133 H   0  0  0  0  0  0  0  0  0  0  0  0
   58.9454   25.9026   44.8385 H   0  0  0  0  0  0  0  0  0  0  0  0
   57.1981   25.7015   44.3372 H   0  0  0  0  0  0  0  0  0  0  0  0
   59.2053   27.7113   43.5019 H   0  0  0  0  0  0  0  0  0  0  0  0
   57.7024   27.0901   42.6811 H   0  0  0  0  0  0  0  0  0  0  0  0
   57.6120   29.5359   43.1907 H   0  0  0  0  0  0  0  0  0  0  0  0
   56.3114   28.5734   43.9839 H   0  0  0  0  0  0  0  0  0  0  0  0
   56.3054   33.5075   44.5229 H   0  0  0  0  0  0  0  0  0  0  0  0
  1  2  1  0
  2  3  1  0
  3  4  1  0
  4  5  2  0
  5  6  1  0
  6  7  2  0
  7  8  1  0
  8  9  2  0
  2 10  1  0
 10 11  2  0
 11 12  1  0
 12 13  1  0
 13 14  1  0
 14 15  1  0
 15 16  1  0
 16 17  1  0
 17 18  1  0
 12 19  2  0
 19 20  1  0
 20 21  2  0
  9  4  1  0
 21 10  1  0
 18 13  1  0
  1 22  1  0
  1 23  1  0
  1 24  1  0
  3 25  1  0
  3 26  1  0
  5 27  1  0
  6 28  1  0
  7 29  1  0
  8 30  1  0
  9 31  1  0
 11 32  1  0
 14 33  1  0
 14 34  1  0
 15 35  1  0
 15 36  1  0
 16 37  1  0
 16 38  1  0
 17 39  1  0
 17 40  1  0
 18 41  1  0
 18 42  1  0
 20 43  1  0
M  CHG  1   8   1
M  END
>  <UniqueID>  (5) 
5

>  <SMILES>  (5) 
CN(Cc1ccc[nH+]c1)c1cc(N2CCCCC2)ncn1

>  <Energy>  (5) 
48.79611301425008

>  <Genealogy>  (5) 
CN(Cc1ccc[nH+]c1)c1cc(N2CCCCC2)ncn1 (protonated)
CN(Cc1ccc[nH+]c1)c1cc(N2CCCCC2)ncn1 (3D coordinates assigned)
CN(Cc1ccc[nH+]c1)c1cc(N2CCCCC2)ncn1 (nonaromatic ring conformer: 48.79611301425008 kcal/mol)

>  <smiles>  (5) 
CN(Cc1cccnc1)c1cc(N2CCCCC2)ncn1

>  <score_type>  (5) 
oracle

>  <origin>  (5) 
adg

>  <m_score__min__energy>  (5) 
-5.9199999999999999

>  <m_primary>  (5) 
energy

$$$$
5:0
     RDKit          3D

 45 47  0  0  0  0  0  0  0  0999 V2000
   55.8610   30.0420   43.8530 C   0  0  0  0  0  0  0  0  0  0  0  0
   56.7350   30.5540   42.9820 C   0  0  0  0  0  0  0  0  0  0  0  0
   57.8410   31.4780   43.4120 C   0  0  0  0  0  0  0  0  0  0  0  0
   58.1980   31.2180   44.8200 N   0  0  0  0  0  0  0  0  0  0  0  0
   57.9300   32.1630   45.8060 C   0  0  0  0  0  0  0  0  0  0  0  0
   57.1290   33.7310   45.4310 S   0  0  0  0  0  0  0  0  0  0  0  0
   58.6950   34.5810   45.0510 C   0  0  0  0  0  0  0  0  0  0  0  0
   59.6430   34.4100   46.2020 C   0  0  0  0  0  0  0  0  0  0  0  0
   60.9020   33.8250   45.9970 C   0  0  0  0  0  0  0  0  0  0  0  0
   61.7750   33.6320   47.0720 C   0  0  0  0  0  0  0  0  0  0  0  0
   61.3940   34.0130   48.3730 C   0  0  0  0  0  0  0  0  0  0  0  0
   62.2330   33.8400   49.4840 O   0  0  0  0  0  0  0  0  0  0  0  0
   63.3910   33.0120   49.4950 C   0  0  0  0  0  0  0  0  0  0  0  0
   60.1310   34.5830   48.5750 C   0  0  0  0  0  0  0  0  0  0  0  0
   59.2580   34.7760   47.5010 C   0  0  0  0  0  0  0  0  0  0  0  0
   58.2890   31.9350   47.1060 N   0  0  0  0  0  0  0  0  0  0  0  0
   58.9060   30.7750   47.4090 C   0  0  0  0  0  0  0  0  0  0  0  0
   59.3840   30.3040   48.6040 C   0  0  0  0  0  0  0  0  0  0  0  0
   59.9370   29.0940   48.3390 N   0  0  0  0  0  0  0  0  0  0  0  0
   60.6270   28.2470   49.3080 C   0  0  0  0  0  0  0  0  0  0  0  0
   61.1610   29.0910   50.4580 C   0  0  0  0  0  0  0  0  0  0  0  0
   59.8420   28.8040   47.0430 N   0  0  0  0  0  0  0  0  0  0  0  0
   59.1970   29.8410   46.4790 C   0  0  0  0  0  0  0  0  0  0  0  0
   58.8550   30.0500   45.1530 C   0  0  0  0  0  0  0  0  0  0  0  0
   59.1520   29.1870   44.2810 O   0  0  0  0  0  0  0  0  0  0  0  0
   55.0646   29.3692   43.5020 H   0  0  0  0  0  0  0  0  0  0  0  0
   55.9377   30.2932   44.9212 H   0  0  0  0  0  0  0  0  0  0  0  0
   56.6429   30.2917   41.9177 H   0  0  0  0  0  0  0  0  0  0  0  0
   58.7228   31.3112   42.7760 H   0  0  0  0  0  0  0  0  0  0  0  0
   57.5004   32.5192   43.3125 H   0  0  0  0  0  0  0  0  0  0  0  0
   59.1378   34.1470   44.1424 H   0  0  0  0  0  0  0  0  0  0  0  0
   58.5033   35.6517   44.8869 H   0  0  0  0  0  0  0  0  0  0  0  0
   61.2037   33.5166   44.9851 H   0  0  0  0  0  0  0  0  0  0  0  0
   62.7634   33.1807   46.9007 H   0  0  0  0  0  0  0  0  0  0  0  0
   63.6827   32.8034   50.5349 H   0  0  0  0  0  0  0  0  0  0  0  0
   63.1701   32.0658   48.9793 H   0  0  0  0  0  0  0  0  0  0  0  0
   64.2149   33.5270   48.9793 H   0  0  0  0  0  0  0  0  0  0  0  0
   59.8233   34.8815   49.5880 H   0  0  0  0  0  0  0  0  0  0  0  0
   58.2651   35.2165   47.6744 H   0  0  0  0  0  0  0  0  0  0  0  0
   59.3301   30.8061   49.5812 H   0  0  0  0  0  0  0  0  0  0  0  0
   59.9237   27.4988   49.7024 H   0  0  0  0  0  0  0  0  0  0  0  0
   61.4694   27.7447   48.8100 H   0  0  0  0  0  0  0  0  0  0  0  0
   60.8709   28.6325   51.4149 H   0  0  0  0  0  0  0  0  0  0  0  0
   62.2579   29.1448   50.3948 H   0  0  0  0  0  0  0  0  0  0  0  0
   60.7399   30.1052   50.3948 H   0  0  0  0  0  0  0  0  0  0  0  0
  1  2  2  0
  2  3  1  0
  3  4  1  0
  4  5  1  0
  5  6  1  0
  6  7  1  0
  7  8  1  0
  8  9  2  0
  9 10  1  0
 10 11  2  0
 11 12  1  0
 12 13  1  0
 11 14  1  0
 14 15  2  0
  5 16  2  0
 16 17  1  0
 17 18  2  0
 18 19  1  0
 19 20  1  0
 20 21  1  0
 19 22  1  0
 22 23  2  0
 23 24  1  0
 24 25  2  0
 24  4  1  0
 15  8  1  0
 23 17  1  0
  1 26  1  0
  1 27  1  0
  2 28  1  0
  3 29  1  0
  3 30  1  0
  7 31  1  0
  7 32  1  0
  9 33  1  0
 10 34  1  0
 13 35  1  0
 13 36  1  0
 13 37  1  0
 14 38  1  0
 15 39  1  0
 18 40  1  0
 20 41  1  0
 20 42  1  0
 21 43  1  0
 21 44  1  0
 21 45  1  0
M  END
>  <UniqueID>  (6) 
6

>  <SMILES>  (6) 
C=CCn1c(SCc2ccc(OC)cc2)nc2cn(CC)nc2c1=O

>  <Energy>  (6) 
81.01254085827867

>  <Genealogy>  (6) 
C=CCn1c(SCc2ccc(OC)cc2)nc2cn(CC)nc2c1=O (3D coordinates assigned)
C=CCn1c(SCc2ccc(OC)cc2)nc2cn(CC)nc2c1=O (optimized conformer: 81.01254085827867 kcal/mol)

>  <smiles>  (6) 
C=CCn1c(SCc2ccc(OC)cc2)nc2cn(CC)nc2c1=O

>  <score_type>  (6) 
oracle

>  <origin>  (6) 
adg

>  <m_score__min__energy>  (6) 
-6.7400000000000002

>  <m_primary>  (6) 
energy

$$$$
6:0
     RDKit          3D

 45 47  0  0  0  0  0  0  0  0999 V2000
   55.3460   20.7310   45.8850 C   0  0  0  0  0  0  0  0  0  0  0  0
   55.9010   21.6390   44.8360 C   0  0  0  0  0  0  0  0  0  0  0  0
   56.2560   21.2350   43.6020 N   0  0  0  0  0  0  0  0  0  0  0  0
   56.7060   22.2830   42.9730 O   0  0  0  0  0  0  0  0  0  0  0  0
   56.6660   23.3520   43.7350 C   0  0  0  0  0  0  0  0  0  0  0  0
   57.1040   24.7100   43.2940 C   0  0  0  0  0  0  0  0  0  0  0  0
   56.1580   22.9890   44.9670 C   0  0  0  0  0  0  0  0  0  0  0  0
   55.8820   23.9970   46.3870 S   0  0  0  0  0  0  0  0  0  0  0  0
   54.7820   23.4190   47.2320 O   0  0  0  0  0  0  0  0  0  0  0  0
   57.1430   24.0300   47.2030 O   0  0  0  0  0  0  0  0  0  0  0  0
   55.4610   25.6250   45.9310 N   0  0  0  0  0  0  0  0  0  0  0  0
   56.1590   26.6200   46.7480 C   0  0  0  0  0  0  0  0  0  0  0  0
   57.4000   27.1380   46.0620 C   0  0  0  0  0  0  0  0  0  0  0  0
   58.6260   26.4760   46.2510 C   0  0  0  0  0  0  0  0  0  0  0  0
   59.7760   26.9190   45.5970 C   0  0  0  0  0  0  0  0  0  0  0  0
   59.7180   28.0280   44.7540 C   0  0  0  0  0  0  0  0  0  0  0  0
   58.5090   28.7020   44.5640 C   0  0  0  0  0  0  0  0  0  0  0  0
   57.3390   28.2640   45.2150 C   0  0  0  0  0  0  0  0  0  0  0  0
   56.1050   28.9150   45.0410 O   0  0  0  0  0  0  0  0  0  0  0  0
   55.7390   29.6960   43.9040 C   0  0  0  0  0  0  0  0  0  0  0  0
   56.6750   30.8660   43.7530 C   0  0  0  0  0  0  0  0  0  0  0  0
   57.1780   31.2270   42.4910 C   0  0  0  0  0  0  0  0  0  0  0  0
   58.0210   32.3340   42.3620 C   0  0  0  0  0  0  0  0  0  0  0  0
   58.3690   33.0860   43.4870 C   0  0  0  0  0  0  0  0  0  0  0  0
   57.8790   32.7290   44.7460 C   0  0  0  0  0  0  0  0  0  0  0  0
   57.0370   31.6210   44.8800 C   0  0  0  0  0  0  0  0  0  0  0  0
   55.5895   21.1294   46.8810 H   0  0  0  0  0  0  0  0  0  0  0  0
   54.2536   20.6660   45.7731 H   0  0  0  0  0  0  0  0  0  0  0  0
   55.7863   19.7292   45.7731 H   0  0  0  0  0  0  0  0  0  0  0  0
   57.3055   25.3349   44.1766 H   0  0  0  0  0  0  0  0  0  0  0  0
   58.0193   24.6220   42.6903 H   0  0  0  0  0  0  0  0  0  0  0  0
   56.3097   25.1734   42.6903 H   0  0  0  0  0  0  0  0  0  0  0  0
   55.4795   27.4636   46.9393 H   0  0  0  0  0  0  0  0  0  0  0  0
   56.4643   26.1372   47.6880 H   0  0  0  0  0  0  0  0  0  0  0  0
   58.6787   25.6034   46.9187 H   0  0  0  0  0  0  0  0  0  0  0  0
   60.7301   26.3924   45.7467 H   0  0  0  0  0  0  0  0  0  0  0  0
   60.6259   28.3730   44.2375 H   0  0  0  0  0  0  0  0  0  0  0  0
   58.4705   29.5798   43.9022 H   0  0  0  0  0  0  0  0  0  0  0  0
   55.7915   29.0699   43.0011 H   0  0  0  0  0  0  0  0  0  0  0  0
   54.7144   30.0718   44.0417 H   0  0  0  0  0  0  0  0  0  0  0  0
   56.9074   30.6368   41.6030 H   0  0  0  0  0  0  0  0  0  0  0  0
   58.4115   32.6140   41.3725 H   0  0  0  0  0  0  0  0  0  0  0  0
   59.0291   33.9596   43.3815 H   0  0  0  0  0  0  0  0  0  0  0  0
   58.1558   33.3198   45.6317 H   0  0  0  0  0  0  0  0  0  0  0  0
   56.6564   31.3395   45.8729 H   0  0  0  0  0  0  0  0  0  0  0  0
  1  2  1  0
  2  3  2  0
  3  4  1  0
  4  5  1  0
  5  6  1  0
  5  7  2  0
  7  8  1  0
  8  9  2  0
  8 10  2  0
  8 11  1  0
 11 12  1  0
 12 13  1  0
 13 14  2  0
 14 15  1  0
 15 16  2  0
 16 17  1  0
 17 18  2  0
 18 19  1  0
 19 20  1  0
 20 21  1  0
 21 22  2  0
 22 23  1  0
 23 24  2  0
 24 25  1  0
 25 26  2  0
  7  2  1  0
 18 13  1  0
 26 21  1  0
  1 27  1  0
  1 28  1  0
  1 29  1  0
  6 30  1  0
  6 31  1  0
  6 32  1  0
 12 33  1  0
 12 34  1  0
 14 35  1  0
 15 36  1  0
 16 37  1  0
 17 38  1  0
 20 39  1  0
 20 40  1  0
 22 41  1  0
 23 42  1  0
 24 43  1  0
 25 44  1  0
 26 45  1  0
M  CHG  1  11  -1
M  END
>  <UniqueID>  (7) 
7

>  <SMILES>  (7) 
Cc1noc(C)c1S(=O)(=O)[N-]Cc1ccccc1OCc1ccccc1

>  <Energy>  (7) 
72.6501893692619

>  <Genealogy>  (7) 
Cc1noc(C)c1S(=O)(=O)[N-]Cc1ccccc1OCc1ccccc1 (protonated)
Cc1noc(C)c1S(=O)(=O)[N-]Cc1ccccc1OCc1ccccc1 (3D coordinates assigned)
Cc1noc(C)c1S(=O)(=O)[N-]Cc1ccccc1OCc1ccccc1 (optimized conformer: 72.6501893692619 kcal/mol)

>  <smiles>  (7) 
Cc1noc(C)c1S(=O)(=O)NCc1ccccc1OCc1ccccc1

>  <score_type>  (7) 
oracle

>  <origin>  (7) 
adg

>  <m_score__min__energy>  (7) 
-10.460000000000001

>  <m_primary>  (7) 
energy

$$$$
7:0
     RDKit          3D

 31 32  0  0  0  0  0  0  0  0999 V2000
   59.2299   26.9697   46.6168 H   0  0  0  0  0  0  0  0  0  0  0  0
   58.1900   26.6510   46.4520 C   0  0  0  0  0  0  0  0  0  0  0  0
   57.2720   27.5200   45.8430 C   0  0  0  0  0  0  0  0  0  0  0  0
   57.6630   28.8330   45.4030 N   0  0  0  0  0  0  0  0  0  0  0  0
   56.8090   29.8470   44.8960 C   0  0  0  0  0  0  0  0  0  0  0  0
   55.5660   29.6980   44.7480 O   0  0  0  0  0  0  0  0  0  0  0  0
   57.5470   31.0610   44.4570 C   0  0  1  0  0  0  0  0  0  0  0  0
   57.4170   31.2220   43.0040 N   0  0  0  0  0  0  0  0  0  0  0  0
   56.4740   30.8850   42.6980 H   0  0  0  0  0  0  0  0  0  0  0  0
   58.1250   30.6170   42.5290 H   0  0  0  0  0  0  0  0  0  0  0  0
   57.0130   32.3080   45.1770 C   0  0  0  0  0  0  0  0  0  0  0  0
   57.0769   32.1588   46.2650 H   0  0  0  0  0  0  0  0  0  0  0  0
   57.6154   33.1828   44.8909 H   0  0  0  0  0  0  0  0  0  0  0  0
   55.9642   32.4756   44.8909 H   0  0  0  0  0  0  0  0  0  0  0  0
   59.0100   30.7360   44.8620 C   0  0  0  0  0  0  0  0  0  0  0  0
   59.3105   31.3525   45.7220 H   0  0  0  0  0  0  0  0  0  0  0  0
   59.7045   30.9503   44.0363 H   0  0  0  0  0  0  0  0  0  0  0  0
   59.0470   29.2440   45.2410 C   0  0  0  0  0  0  0  0  0  0  0  0
   59.5993   29.1030   46.1818 H   0  0  0  0  0  0  0  0  0  0  0  0
   59.5550   28.6467   44.4695 H   0  0  0  0  0  0  0  0  0  0  0  0
   55.9970   27.0920   45.6240 N   0  0  0  0  0  0  0  0  0  0  0  0
   55.5580   25.8600   45.9950 C   0  0  0  0  0  0  0  0  0  0  0  0
   54.3200   25.5400   45.7510 N   0  0  0  0  0  0  0  0  0  0  0  0
   53.8380   24.2330   45.3130 C   0  0  0  0  0  0  0  0  0  0  0  0
   53.6093   23.6130   46.1924 H   0  0  0  0  0  0  0  0  0  0  0  0
   52.9281   24.3615   44.7083 H   0  0  0  0  0  0  0  0  0  0  0  0
   54.6135   23.7400   44.7083 H   0  0  0  0  0  0  0  0  0  0  0  0
   56.4560   24.9750   46.6270 C   0  0  0  0  0  0  0  0  0  0  0  0
   56.1212   23.9761   46.9433 H   0  0  0  0  0  0  0  0  0  0  0  0
   57.7730   25.3790   46.8470 C   0  0  0  0  0  0  0  0  0  0  0  0
   58.4838   24.6941   47.3325 H   0  0  0  0  0  0  0  0  0  0  0  0
  1  2  1  0
  2  3  2  0
  3  4  1  0
  4  5  1  0
  5  6  2  0
  5  7  1  0
  7  8  1  6
  8  9  1  0
  8 10  1  0
  7 11  1  0
 11 12  1  0
 11 13  1  0
 11 14  1  0
  7 15  1  0
 15 16  1  0
 15 17  1  0
 15 18  1  0
 18 19  1  0
 18 20  1  0
  3 21  1  0
 21 22  1  0
 22 23  2  0
 23 24  1  0
 24 25  1  0
 24 26  1  0
 24 27  1  0
 22 28  1  0
 28 29  1  0
 28 30  2  0
 30 31  1  0
 30  2  1  0
 18  4  1  0
M  CHG  1  21  -1
M  END
>  <UniqueID>  (8) 
8

>  <SMILES>  (8) 
C/N=c1\cccc(N2CC[C@@](C)(N)C2=O)[n-]1

>  <Energy>  (8) 
40.652382352381146

>  <Genealogy>  (8) 
CN=c1cccc(N2CCC(C)(N)C2=O)[n-]1 (protonated)
CN=c1cccc(N2CC[C@@](C)(N)C2=O)[n-]1 (chirality)
C/N=c1\cccc(N2CC[C@@](C)(N)C2=O)[n-]1 (cis-trans isomerization)
C/N=c1\cccc(N2CC[C@@](C)(N)C2=O)[n-]1 (3D coordinates assigned)
C/N=c1\cccc(N2CC[C@@](C)(N)C2=O)[n-]1 (nonaromatic ring conformer: 40.652382352381146 kcal/mol)

>  <smiles>  (8) 
CN=c1cccc(N2CCC(C)(N)C2=O)[nH]1

>  <score_type>  (8) 
oracle

>  <origin>  (8) 
adg

>  <m_score__min__energy>  (8) 
-8.1899999999999995

>  <m_primary>  (8) 
energy

$$$$
8:0
     RDKit          3D

 49 52  0  0  0  0  0  0  0  0999 V2000
   66.3980   31.7110   53.2820 C   0  0  0  0  0  0  0  0  0  0  0  0
   65.4280   32.1520   52.2480 N   0  0  0  0  0  0  0  0  0  0  0  0
   64.1330   31.4770   52.5300 C   0  0  0  0  0  0  0  0  0  0  0  0
   65.2760   33.6310   52.3590 C   0  0  0  0  0  0  0  0  0  0  0  0
   64.2730   34.1970   51.3340 C   0  0  0  0  0  0  0  0  0  0  0  0
   64.3590   33.4660   50.0660 N   0  0  0  0  0  0  0  0  0  0  0  0
   63.2570   33.4890   49.1380 C   0  0  0  0  0  0  0  0  0  0  0  0
   63.4790   33.3010   47.7640 C   0  0  0  0  0  0  0  0  0  0  0  0
   62.4110   33.3370   46.8620 C   0  0  0  0  0  0  0  0  0  0  0  0
   61.1050   33.5610   47.3210 C   0  0  0  0  0  0  0  0  0  0  0  0
   59.9750   33.6240   46.3650 C   0  0  0  0  0  0  0  0  0  0  0  0
   59.6330   34.8680   45.8200 C   0  0  0  0  0  0  0  0  0  0  0  0
   58.6050   34.9630   44.8850 C   0  0  0  0  0  0  0  0  0  0  0  0
   57.9240   33.8550   44.4950 N   0  0  0  0  0  0  0  0  0  0  0  0
   58.2100   32.6240   45.0100 C   0  0  0  0  0  0  0  0  0  0  0  0
   57.4730   31.5010   44.5980 C   0  0  0  0  0  0  0  0  0  0  0  0
   57.7450   30.2430   45.1380 C   0  0  0  0  0  0  0  0  0  0  0  0
   58.7450   30.0940   46.0980 C   0  0  0  0  0  0  0  0  0  0  0  0
   59.4890   31.1980   46.5190 C   0  0  0  0  0  0  0  0  0  0  0  0
   59.2450   32.4750   45.9710 C   0  0  0  0  0  0  0  0  0  0  0  0
   60.8830   33.7740   48.6890 C   0  0  0  0  0  0  0  0  0  0  0  0
   61.9500   33.7360   49.5900 C   0  0  0  0  0  0  0  0  0  0  0  0
   65.5930   32.7400   49.7640 C   0  0  0  0  0  0  0  0  0  0  0  0
   65.9380   31.7480   50.8950 C   0  0  0  0  0  0  0  0  0  0  0  0
   65.9801   31.9010   54.2816 H   0  0  0  0  0  0  0  0  0  0  0  0
   66.5946   30.6350   53.1652 H   0  0  0  0  0  0  0  0  0  0  0  0
   67.3380   32.2702   53.1652 H   0  0  0  0  0  0  0  0  0  0  0  0
   63.9881   31.4015   53.6178 H   0  0  0  0  0  0  0  0  0  0  0  0
   63.3114   32.0616   52.0904 H   0  0  0  0  0  0  0  0  0  0  0  0
   64.1417   30.4687   52.0904 H   0  0  0  0  0  0  0  0  0  0  0  0
   64.9219   33.8748   53.3715 H   0  0  0  0  0  0  0  0  0  0  0  0
   66.2568   34.0853   52.1549 H   0  0  0  0  0  0  0  0  0  0  0  0
   63.2536   34.1029   51.7365 H   0  0  0  0  0  0  0  0  0  0  0  0
   64.5147   35.2542   51.1496 H   0  0  0  0  0  0  0  0  0  0  0  0
   64.5000   33.1242   47.3948 H   0  0  0  0  0  0  0  0  0  0  0  0
   62.5961   33.1890   45.7878 H   0  0  0  0  0  0  0  0  0  0  0  0
   60.1774   35.7719   46.1310 H   0  0  0  0  0  0  0  0  0  0  0  0
   58.3429   35.9429   44.4594 H   0  0  0  0  0  0  0  0  0  0  0  0
   57.1620   33.9650   43.7890 H   0  0  0  0  0  0  0  0  0  0  0  0
   56.6779   31.6137   43.8463 H   0  0  0  0  0  0  0  0  0  0  0  0
   57.1689   29.3669   44.8053 H   0  0  0  0  0  0  0  0  0  0  0  0
   58.9489   29.1014   46.5260 H   0  0  0  0  0  0  0  0  0  0  0  0
   60.2704   31.0713   47.2828 H   0  0  0  0  0  0  0  0  0  0  0  0
   59.8645   33.9718   49.0543 H   0  0  0  0  0  0  0  0  0  0  0  0
   61.7653   33.9008   50.6618 H   0  0  0  0  0  0  0  0  0  0  0  0
   65.4629   32.1837   48.8240 H   0  0  0  0  0  0  0  0  0  0  0  0
   66.4142   33.4658   49.6698 H   0  0  0  0  0  0  0  0  0  0  0  0
   65.5026   30.7704   50.6405 H   0  0  0  0  0  0  0  0  0  0  0  0
   67.0353   31.7216   50.9670 H   0  0  0  0  0  0  0  0  0  0  0  0
  1  2  1  0
  2  3  1  0
  2  4  1  0
  4  5  1  0
  5  6  1  0
  6  7  1  0
  7  8  2  0
  8  9  1  0
  9 10  2  0
 10 11  1  0
 11 12  2  0
 12 13  1  0
 13 14  2  0
 14 15  1  0
 15 16  2  0
 16 17  1  0
 17 18  2  0
 18 19  1  0
 19 20  2  0
 10 21  1  0
 21 22  2  0
  6 23  1  0
 23 24  1  0
 24  2  1  0
 22  7  1  0
 20 11  1  0
 20 15  1  0
  1 25  1  0
  1 26  1  0
  1 27  1  0
  3 28  1  0
  3 29  1  0
  3 30  1  0
  4 31  1  0
  4 32  1  0
  5 33  1  0
  5 34  1  0
  8 35  1  0
  9 36  1  0
 12 37  1  0
 13 38  1  0
 14 39  1  0
 16 40  1  0
 17 41  1  0
 18 42  1  0
 19 43  1  0
 21 44  1  0
 22 45  1  0
 23 46  1  0
 23 47  1  0
 24 48  1  0
 24 49  1  0
M  CHG  2   2   1  14   1
M  END
>  <UniqueID>  (9) 
9

>  <SMILES>  (9) 
C[N+]1(C)CCN(c2ccc(-c3cc[nH+]c4ccccc34)cc2)CC1

>  <Energy>  (9) 
79.78310773194411

>  <Genealogy>  (9) 
C[N+]1(C)CCN(c2ccc(-c3cc[nH+]c4ccccc34)cc2)CC1 (protonated)
C[N+]1(C)CCN(c2ccc(-c3cc[nH+]c4ccccc34)cc2)CC1 (3D coordinates assigned)
C[N+]1(C)CCN(c2ccc(-c3cc[nH+]c4ccccc34)cc2)CC1 (nonaromatic ring conformer: 79.78310773194411 kcal/mol)

>  <smiles>  (9) 
C[N+]1(C)CCN(c2ccc(-c3ccnc4ccccc34)cc2)CC1

>  <score_type>  (9) 
oracle

>  <origin>  (9) 
adg

>  <m_score__min__energy>  (9) 
-5.0300000000000002

>  <m_primary>  (9) 
energy

$$$$
9:0
     RDKit          3D

 60 64  0  0  0  0  0  0  0  0999 V2000
   55.7090   26.3920   45.7180 O   0  0  0  0  0  0  0  0  0  0  0  0
   56.6660   25.7220   45.2480 C   0  0  0  0  0  0  0  0  0  0  0  0
   57.9620   26.3330   45.1830 N   0  0  0  0  0  0  0  0  0  0  0  0
   58.6640   26.9610   46.2680 C   0  0  0  0  0  0  0  0  0  0  0  0
   59.3060   26.1800   47.2480 C   0  0  0  0  0  0  0  0  0  0  0  0
   59.9540   26.7860   48.3230 C   0  0  0  0  0  0  0  0  0  0  0  0
   59.9590   28.1740   48.4440 C   0  0  0  0  0  0  0  0  0  0  0  0
   59.3100   28.9630   47.4930 C   0  0  0  0  0  0  0  0  0  0  0  0
   58.6500   28.3700   46.4000 C   0  0  0  0  0  0  0  0  0  0  0  0
   57.9750   29.2240   45.3900 C   0  0  0  0  0  0  0  0  0  0  0  0
   57.0520   28.8050   44.5010 N   0  0  0  0  0  0  0  0  0  0  0  0
   56.7030   29.8460   43.7640 N   0  0  0  0  0  0  0  0  0  0  0  0
   57.4290   30.8790   44.2380 C   0  0  0  0  0  0  0  0  0  0  0  0
   57.3820   32.2730   43.6790 C   0  0  0  0  0  0  0  0  0  0  0  0
   57.7970   33.3000   44.6570 N   0  0  0  0  0  0  0  0  0  0  0  0
   57.1750   33.1110   45.9890 C   0  0  0  0  0  0  0  0  0  0  0  0
   57.8890   33.9600   47.0450 C   0  0  0  0  0  0  0  0  0  0  0  0
   59.3000   33.5390   47.1920 N   0  0  0  0  0  0  0  0  0  0  0  0
   60.1390   34.5100   47.9330 C   0  0  0  0  0  0  0  0  0  0  0  0
   61.5340   34.0050   48.2470 C   0  0  0  0  0  0  0  0  0  0  0  0
   61.8820   33.6520   49.5640 C   0  0  0  0  0  0  0  0  0  0  0  0
   63.1700   33.1920   49.8560 C   0  0  0  0  0  0  0  0  0  0  0  0
   64.1150   33.0620   48.8370 C   0  0  0  0  0  0  0  0  0  0  0  0
   63.7710   33.3810   47.5200 C   0  0  0  0  0  0  0  0  0  0  0  0
   62.4850   33.8410   47.2240 C   0  0  0  0  0  0  0  0  0  0  0  0
   59.9200   32.9950   45.9610 C   0  0  0  0  0  0  0  0  0  0  0  0
   59.2600   33.5480   44.6860 C   0  0  0  0  0  0  0  0  0  0  0  0
   58.2040   30.5070   45.2290 O   0  0  0  0  0  0  0  0  0  0  0  0
   56.4100   24.3560   44.7310 C   0  0  0  0  0  0  0  0  0  0  0  0
   55.9440   23.3510   45.5940 C   0  0  0  0  0  0  0  0  0  0  0  0
   55.6950   22.0700   45.0930 C   0  0  0  0  0  0  0  0  0  0  0  0
   55.8940   21.8020   43.7750 N   0  0  0  0  0  0  0  0  0  0  0  0
   56.3340   22.7560   42.9140 C   0  0  0  0  0  0  0  0  0  0  0  0
   56.5920   24.0510   43.3720 C   0  0  0  0  0  0  0  0  0  0  0  0
   59.2961   25.0832   47.1646 H   0  0  0  0  0  0  0  0  0  0  0  0
   60.4623   26.1673   49.0772 H   0  0  0  0  0  0  0  0  0  0  0  0
   60.4756   28.6491   49.2910 H   0  0  0  0  0  0  0  0  0  0  0  0
   59.3143   30.0579   47.5985 H   0  0  0  0  0  0  0  0  0  0  0  0
   56.6790   27.8410   44.3660 H   0  0  0  0  0  0  0  0  0  0  0  0
   58.0536   32.3251   42.8093 H   0  0  0  0  0  0  0  0  0  0  0  0
   56.3379   32.4828   43.4037 H   0  0  0  0  0  0  0  0  0  0  0  0
   56.1176   33.4102   45.9396 H   0  0  0  0  0  0  0  0  0  0  0  0
   57.2588   32.0512   46.2714 H   0  0  0  0  0  0  0  0  0  0  0  0
   57.8578   35.0163   46.7398 H   0  0  0  0  0  0  0  0  0  0  0  0
   57.3785   33.8249   48.0100 H   0  0  0  0  0  0  0  0  0  0  0  0
   60.2299   35.4228   47.3260 H   0  0  0  0  0  0  0  0  0  0  0  0
   59.6411   34.6908   48.8970 H   0  0  0  0  0  0  0  0  0  0  0  0
   61.1367   33.7384   50.3684 H   0  0  0  0  0  0  0  0  0  0  0  0
   63.4388   32.9322   50.8905 H   0  0  0  0  0  0  0  0  0  0  0  0
   65.1303   32.7086   49.0701 H   0  0  0  0  0  0  0  0  0  0  0  0
   64.5134   33.2698   46.7159 H   0  0  0  0  0  0  0  0  0  0  0  0
   62.2148   34.0764   46.1840 H   0  0  0  0  0  0  0  0  0  0  0  0
   60.9867   33.2634   45.9530 H   0  0  0  0  0  0  0  0  0  0  0  0
   59.7824   31.9037   45.9669 H   0  0  0  0  0  0  0  0  0  0  0  0
   59.4361   34.6328   44.6383 H   0  0  0  0  0  0  0  0  0  0  0  0
   59.7065   33.0307   43.8240 H   0  0  0  0  0  0  0  0  0  0  0  0
   55.7758   23.5706   46.6586 H   0  0  0  0  0  0  0  0  0  0  0  0
   55.3373   21.2772   45.7664 H   0  0  0  0  0  0  0  0  0  0  0  0
   56.4877   22.5086   41.8533 H   0  0  0  0  0  0  0  0  0  0  0  0
   56.9356   24.8270   42.6722 H   0  0  0  0  0  0  0  0  0  0  0  0
  1  2  2  0
  2  3  1  0
  3  4  1  0
  4  5  2  0
  5  6  1  0
  6  7  2  0
  7  8  1  0
  8  9  2  0
  9 10  1  0
 10 11  2  0
 11 12  1  0
 12 13  2  0
 13 14  1  0
 14 15  1  0
 15 16  1  0
 16 17  1  0
 17 18  1  0
 18 19  1  0
 19 20  1  0
 20 21  2  0
 21 22  1  0
 22 23  2  0
 23 24  1  0
 24 25  2  0
 18 26  1  0
 26 27  1  0
 13 28  1  0
  2 29  1  0
 29 30  2  0
 30 31  1  0
 31 32  2  0
 32 33  1  0
 33 34  2  0
  9  4  1  0
 28 10  1  0
 34 29  1  0
 27 15  1  0
 25 20  1  0
  5 35  1  0
  6 36  1  0
  7 37  1  0
  8 38  1  0
 11 39  1  0
 14 40  1  0
 14 41  1  0
 16 42  1  0
 16 43  1  0
 17 44  1  0
 17 45  1  0
 19 46  1  0
 19 47  1  0
 21 48  1  0
 22 49  1  0
 23 50  1  0
 24 51  1  0
 25 52  1  0
 26 53  1  0
 26 54  1  0
 27 55  1  0
 27 56  1  0
 30 57  1  0
 31 58  1  0
 33 59  1  0
 34 60  1  0
M  CHG  2   3  -1  11   1
M  END
>  <UniqueID>  (10) 
10

>  <SMILES>  (10) 
O=C([N-]c1ccccc1-c1[nH+]nc(CN2CCN(Cc3ccccc3)CC2)o1)c1ccncc1

>  <Energy>  (10) 
126.8032100392891

>  <Genealogy>  (10) 
O=C([N-]c1ccccc1-c1[nH+]nc(CN2CCN(Cc3ccccc3)CC2)o1)c1ccncc1 (protonated)
O=C([N-]c1ccccc1-c1[nH+]nc(CN2CCN(Cc3ccccc3)CC2)o1)c1ccncc1 (3D coordinates assigned)
O=C([N-]c1ccccc1-c1[nH+]nc(CN2CCN(Cc3ccccc3)CC2)o1)c1ccncc1 (nonaromatic ring conformer: 126.8032100392891 kcal/mol)

>  <smiles>  (10) 
O=C(Nc1ccccc1-c1nnc(CN2CCN(Cc3ccccc3)CC2)o1)c1ccncc1

>  <score_type>  (10) 
oracle

>  <origin>  (10) 
adg

>  <m_score__min__energy>  (10) 
-10.84

>  <m_primary>  (10) 
energy

$$$$
10:0
     RDKit          3D

 52 54  0  0  0  0  0  0  0  0999 V2000
   67.5290   28.5070   50.8730 C   0  0  0  0  0  0  0  0  0  0  0  0
   66.2130   28.7060   51.6180 C   0  0  0  0  0  0  0  0  0  0  0  0
   66.0580   30.0710   52.0040 O   0  0  0  0  0  0  0  0  0  0  0  0
   65.3980   31.0600   51.2550 C   0  0  0  0  0  0  0  0  0  0  0  0
   63.9980   31.0650   51.2590 C   0  0  0  0  0  0  0  0  0  0  0  0
   63.2850   32.0220   50.5270 C   0  0  0  0  0  0  0  0  0  0  0  0
   63.9620   32.9950   49.7690 C   0  0  0  0  0  0  0  0  0  0  0  0
   63.2050   33.9330   48.9040 C   0  0  0  0  0  0  0  0  0  0  0  0
   62.1620   34.4930   49.3430 O   0  0  0  0  0  0  0  0  0  0  0  0
   63.6210   34.1700   47.5550 N   0  0  0  0  0  0  0  0  0  0  0  0
   62.7990   33.8100   46.4030 C   0  0  0  0  0  0  0  0  0  0  0  0
   61.4490   33.3400   46.8940 C   0  0  0  0  0  0  0  0  0  0  0  0
   61.1380   32.1830   46.6580 O   0  0  0  0  0  0  0  0  0  0  0  0
   60.4410   34.2480   47.4430 N   0  0  0  0  0  0  0  0  0  0  0  0
   59.2810   33.5900   48.0840 C   0  0  0  0  0  0  0  0  0  0  0  0
   58.2410   33.0340   47.0810 C   0  0  0  0  0  0  0  0  0  0  0  0
   58.6090   33.2590   45.6750 N   0  0  0  0  0  0  0  0  0  0  0  0
   58.0560   32.3980   44.6560 C   0  0  0  0  0  0  0  0  0  0  0  0
   58.1310   32.7610   43.2970 C   0  0  0  0  0  0  0  0  0  0  0  0
   57.5990   31.9260   42.3110 C   0  0  0  0  0  0  0  0  0  0  0  0
   56.9790   30.7250   42.6670 C   0  0  0  0  0  0  0  0  0  0  0  0
   56.8900   30.3590   44.0110 C   0  0  0  0  0  0  0  0  0  0  0  0
   57.4320   31.1840   45.0030 C   0  0  0  0  0  0  0  0  0  0  0  0
   59.2720   34.5070   45.2580 C   0  0  0  0  0  0  0  0  0  0  0  0
   59.9580   35.2140   46.4320 C   0  0  0  0  0  0  0  0  0  0  0  0
   65.3670   33.0100   49.7870 C   0  0  0  0  0  0  0  0  0  0  0  0
   66.0820   32.0470   50.5150 C   0  0  0  0  0  0  0  0  0  0  0  0
   68.3462   28.3834   51.5989 H   0  0  0  0  0  0  0  0  0  0  0  0
   67.4606   27.6090   50.2414 H   0  0  0  0  0  0  0  0  0  0  0  0
   67.7292   29.3851   50.2414 H   0  0  0  0  0  0  0  0  0  0  0  0
   65.3785   28.4186   50.9615 H   0  0  0  0  0  0  0  0  0  0  0  0
   66.2180   28.0793   52.5220 H   0  0  0  0  0  0  0  0  0  0  0  0
   63.4526   30.3092   51.8433 H   0  0  0  0  0  0  0  0  0  0  0  0
   62.1852   32.0131   50.5446 H   0  0  0  0  0  0  0  0  0  0  0  0
   62.6705   34.6875   45.7522 H   0  0  0  0  0  0  0  0  0  0  0  0
   63.2884   33.0075   45.8316 H   0  0  0  0  0  0  0  0  0  0  0  0
   60.9220   34.8020   48.1880 H   0  0  0  0  0  0  0  0  0  0  0  0
   59.6516   32.7551   48.6969 H   0  0  0  0  0  0  0  0  0  0  0  0
   58.7686   34.3583   48.6817 H   0  0  0  0  0  0  0  0  0  0  0  0
   58.1409   31.9511   47.2465 H   0  0  0  0  0  0  0  0  0  0  0  0
   57.2974   33.5703   47.2601 H   0  0  0  0  0  0  0  0  0  0  0  0
   58.6115   33.7080   43.0101 H   0  0  0  0  0  0  0  0  0  0  0  0
   57.6683   32.2146   41.2518 H   0  0  0  0  0  0  0  0  0  0  0  0
   56.5617   30.0690   41.8889 H   0  0  0  0  0  0  0  0  0  0  0  0
   56.3922   29.4190   44.2914 H   0  0  0  0  0  0  0  0  0  0  0  0
   57.3703   30.8828   46.0591 H   0  0  0  0  0  0  0  0  0  0  0  0
   60.0286   34.2694   44.4957 H   0  0  0  0  0  0  0  0  0  0  0  0
   58.5019   35.1830   44.8580 H   0  0  0  0  0  0  0  0  0  0  0  0
   60.8143   35.7898   46.0508 H   0  0  0  0  0  0  0  0  0  0  0  0
   59.2221   35.8755   46.9125 H   0  0  0  0  0  0  0  0  0  0  0  0
   65.9111   33.7836   49.2253 H   0  0  0  0  0  0  0  0  0  0  0  0
   67.1819   32.0618   50.5086 H   0  0  0  0  0  0  0  0  0  0  0  0
  1  2  1  0
  2  3  1  0
  3  4  1  0
  4  5  2  0
  5  6  1  0
  6  7  2  0
  7  8  1  0
  8  9  2  0
  8 10  1  0
 10 11  1  0
 11 12  1  0
 12 13  2  0
 12 14  1  0
 14 15  1  0
 15 16  1  0
 16 17  1  0
 17 18  1  0
 18 19  2  0
 19 20  1  0
 20 21  2  0
 21 22  1  0
 22 23  2  0
 17 24  1  0
 24 25  1  0
  7 26  1  0
 26 27  2  0
 27  4  1  0
 25 14  1  0
 23 18  1  0
  1 28  1  0
  1 29  1  0
  1 30  1  0
  2 31  1  0
  2 32  1  0
  5 33  1  0
  6 34  1  0
 11 35  1  0
 11 36  1  0
 14 37  1  0
 15 38  1  0
 15 39  1  0
 16 40  1  0
 16 41  1  0
 19 42  1  0
 20 43  1  0
 21 44  1  0
 22 45  1  0
 23 46  1  0
 24 47  1  0
 24 48  1  0
 25 49  1  0
 25 50  1  0
 26 51  1  0
 27 52  1  0
M  CHG  2  10  -1  14   1
M  END
>  <UniqueID>  (11) 
11

>  <SMILES>  (11) 
CCOc1ccc(C(=O)[N-]CC(=O)[NH+]2CCN(c3ccccc3)CC2)cc1

>  <Energy>  (11) 
69.25917767069629

>  <Genealogy>  (11) 
CCOc1ccc(C(=O)[N-]CC(=O)[NH+]2CCN(c3ccccc3)CC2)cc1 (protonated)
CCOc1ccc(C(=O)[N-]CC(=O)[NH+]2CCN(c3ccccc3)CC2)cc1 (3D coordinates assigned)
CCOc1ccc(C(=O)[N-]CC(=O)[NH+]2CCN(c3ccccc3)CC2)cc1 (nonaromatic ring conformer: 69.25917767069629 kcal/mol)

>  <smiles>  (11) 
CCOc1ccc(C(=O)NCC(=O)N2CCN(c3ccccc3)CC2)cc1

>  <score_type>  (11) 
oracle

>  <origin>  (11) 
adg

>  <m_score__min__energy>  (11) 
-7.75

>  <m_primary>  (11) 
energy

$$$$
11:0
     RDKit          3D

 38 39  0  0  0  0  0  0  0  0999 V2000
   59.2050   28.9450   44.5180 C   0  0  0  0  0  0  0  0  0  0  0  0
   57.9880   29.6260   44.9700 N   0  0  0  0  0  0  0  0  0  0  0  0
   56.8260   28.8540   45.3270 C   0  0  0  0  0  0  0  0  0  0  0  0
   55.6930   29.1760   44.8750 O   0  0  0  0  0  0  0  0  0  0  0  0
   56.9680   27.6800   46.1410 N   0  0  0  0  0  0  0  0  0  0  0  0
   57.2220   26.3450   45.6810 C   0  0  0  0  0  0  0  0  0  0  0  0
   57.4290   26.0500   44.3210 C   0  0  0  0  0  0  0  0  0  0  0  0
   57.6460   24.7320   43.9110 C   0  0  0  0  0  0  0  0  0  0  0  0
   57.6530   23.6890   44.8510 C   0  0  0  0  0  0  0  0  0  0  0  0
   57.8500   22.2660   44.4050 C   0  0  0  0  0  0  0  0  0  0  0  0
   56.3300   21.5930   43.7600 S   0  0  0  0  0  0  0  0  0  0  0  0
   56.2580   19.8920   44.0670 N   0  0  0  0  0  0  0  0  0  0  0  0
   56.2510   21.8400   42.2790 O   0  0  0  0  0  0  0  0  0  0  0  0
   55.1680   22.2660   44.4350 O   0  0  0  0  0  0  0  0  0  0  0  0
   57.4140   23.9800   46.2010 C   0  0  0  0  0  0  0  0  0  0  0  0
   57.1960   25.2990   46.6110 C   0  0  0  0  0  0  0  0  0  0  0  0
   57.9830   31.0580   45.1160 C   0  0  0  0  0  0  0  0  0  0  0  0
   58.1580   31.6360   46.3850 C   0  0  0  0  0  0  0  0  0  0  0  0
   58.1480   33.0260   46.5350 C   0  0  0  0  0  0  0  0  0  0  0  0
   57.9620   33.8500   45.4230 C   0  0  0  0  0  0  0  0  0  0  0  0
   57.7860   33.2840   44.1570 C   0  0  0  0  0  0  0  0  0  0  0  0
   57.7940   31.8950   43.9990 C   0  0  0  0  0  0  0  0  0  0  0  0
   57.6450   31.3650   42.7590 F   0  0  0  0  0  0  0  0  0  0  0  0
   59.7884   28.6185   45.3915 H   0  0  0  0  0  0  0  0  0  0  0  0
   58.9313   28.0690   43.9117 H   0  0  0  0  0  0  0  0  0  0  0  0
   59.8085   29.6365   43.9117 H   0  0  0  0  0  0  0  0  0  0  0  0
   57.4200   26.8604   43.5773 H   0  0  0  0  0  0  0  0  0  0  0  0
   57.8122   24.5104   42.8464 H   0  0  0  0  0  0  0  0  0  0  0  0
   58.6199   22.2367   43.6199 H   0  0  0  0  0  0  0  0  0  0  0  0
   58.1649   21.6640   45.2702 H   0  0  0  0  0  0  0  0  0  0  0  0
   56.2760   19.4130   43.1390 H   0  0  0  0  0  0  0  0  0  0  0  0
   57.1450   19.6300   44.5540 H   0  0  0  0  0  0  0  0  0  0  0  0
   57.3978   23.1669   46.9416 H   0  0  0  0  0  0  0  0  0  0  0  0
   57.0027   25.5162   47.6719 H   0  0  0  0  0  0  0  0  0  0  0  0
   58.3036   30.9916   47.2645 H   0  0  0  0  0  0  0  0  0  0  0  0
   58.2869   33.4715   47.5311 H   0  0  0  0  0  0  0  0  0  0  0  0
   57.9540   34.9434   45.5432 H   0  0  0  0  0  0  0  0  0  0  0  0
   57.6406   33.9341   43.2817 H   0  0  0  0  0  0  0  0  0  0  0  0
  1  2  1  0
  2  3  1  0
  3  4  2  0
  3  5  1  0
  5  6  1  0
  6  7  2  0
  7  8  1  0
  8  9  2  0
  9 10  1  0
 10 11  1  0
 11 12  1  0
 11 13  2  0
 11 14  2  0
  9 15  1  0
 15 16  2  0
  2 17  1  0
 17 18  2  0
 18 19  1  0
 19 20  2  0
 20 21  1  0
 21 22  2  0
 22 23  1  0
 16  6  1  0
 22 17  1  0
  1 24  1  0
  1 25  1  0
  1 26  1  0
  7 27  1  0
  8 28  1  0
 10 29  1  0
 10 30  1  0
 12 31  1  0
 12 32  1  0
 15 33  1  0
 16 34  1  0
 18 35  1  0
 19 36  1  0
 20 37  1  0
 21 38  1  0
M  CHG  1   5  -1
M  END
>  <UniqueID>  (12) 
12

>  <SMILES>  (12) 
CN(C(=O)[N-]c1ccc(CS(N)(=O)=O)cc1)c1ccccc1F

>  <Energy>  (12) 
39.94034369901308

>  <Genealogy>  (12) 
CN(C(=O)[N-]c1ccc(CS(N)(=O)=O)cc1)c1ccccc1F (protonated)
CN(C(=O)[N-]c1ccc(CS(N)(=O)=O)cc1)c1ccccc1F (3D coordinates assigned)
CN(C(=O)[N-]c1ccc(CS(N)(=O)=O)cc1)c1ccccc1F (optimized conformer: 39.94034369901308 kcal/mol)

>  <smiles>  (12) 
CN(C(=O)Nc1ccc(CS(N)(=O)=O)cc1)c1ccccc1F

>  <score_type>  (12) 
oracle

>  <origin>  (12) 
adg

>  <m_score__min__energy>  (12) 
-9.3800000000000008

>  <m_primary>  (12) 
energy

$$$$
12:0
     RDKit          3D

 18 18  0  0  0  0  0  0  0  0999 V2000
   55.5590   29.7260   44.3220 C   0  0  0  0  0  0  0  0  0  0  0  0
   55.8080   28.6340   45.2010 O   0  0  0  0  0  0  0  0  0  0  0  0
   57.0750   28.0790   45.4500 C   0  0  0  0  0  0  0  0  0  0  0  0
   58.2570   28.7820   45.1390 C   0  0  0  0  0  0  0  0  0  0  0  0
   59.5060   28.2280   45.4180 C   0  0  0  0  0  0  0  0  0  0  0  0
   60.6330   28.9180   45.1140 F   0  0  0  0  0  0  0  0  0  0  0  0
   59.5970   26.9690   46.0080 C   0  0  0  0  0  0  0  0  0  0  0  0
   60.8140   26.4320   46.2740 F   0  0  0  0  0  0  0  0  0  0  0  0
   58.4370   26.2530   46.3180 C   0  0  0  0  0  0  0  0  0  0  0  0
   58.5610   25.0170   46.8670 F   0  0  0  0  0  0  0  0  0  0  0  0
   57.1640   26.7970   46.0400 C   0  0  0  0  0  0  0  0  0  0  0  0
   55.9720   26.0490   46.3570 N   0  0  0  0  0  0  0  0  0  0  0  0
   56.0130   25.1000   47.1680 O   0  0  0  0  0  0  0  0  0  0  0  0
   54.7730   26.3420   45.7480 O   0  0  0  0  0  0  0  0  0  0  0  0
   55.3525   30.6315   44.9115 H   0  0  0  0  0  0  0  0  0  0  0  0
   56.4417   29.8948   43.6877 H   0  0  0  0  0  0  0  0  0  0  0  0
   54.6904   29.4954   43.6877 H   0  0  0  0  0  0  0  0  0  0  0  0
   58.1934   29.7760   44.6723 H   0  0  0  0  0  0  0  0  0  0  0  0
  1  2  1  0
  2  3  1  0
  3  4  2  0
  4  5  1  0
  5  6  1  0
  5  7  2  0
  7  8  1  0
  7  9  1  0
  9 10  1  0
  9 11  2  0
 11 12  1  0
 12 13  2  0
 12 14  1  0
 11  3  1  0
  1 15  1  0
  1 16  1  0
  1 17  1  0
  4 18  1  0
M  CHG  2  12   1  14  -1
M  END
>  <UniqueID>  (13) 
13

>  <SMILES>  (13) 
COc1cc(F)c(F)c(F)c1[N+](=O)[O-]

>  <Energy>  (13) 
20.686081772278293

>  <Genealogy>  (13) 
COc1cc(F)c(F)c(F)c1[N+](=O)[O-] (3D coordinates assigned)
COc1cc(F)c(F)c(F)c1[N+](=O)[O-] (optimized conformer: 20.686081772278293 kcal/mol)

>  <smiles>  (13) 
COc1cc(F)c(F)c(F)c1[N+](=O)[O-]

>  <score_type>  (13) 
oracle

>  <origin>  (13) 
adg

>  <m_score__min__energy>  (13) 
-5.0800000000000001

>  <m_primary>  (13) 
energy

$$$$
13:0
     RDKit          3D

 47 49  0  0  0  0  0  0  0  0999 V2000
   57.7780   31.9650   42.2620 C   0  0  0  0  0  0  0  0  0  0  0  0
   56.9000   30.9400   42.8220 N   0  0  0  0  0  0  0  0  0  0  0  0
   56.2960   30.0620   41.9830 O   0  0  0  0  0  0  0  0  0  0  0  0
   56.6350   30.8960   44.2360 C   0  0  0  0  0  0  0  0  0  0  0  0
   55.7710   30.0920   44.6810 O   0  0  0  0  0  0  0  0  0  0  0  0
   57.3690   31.7600   45.1880 C   0  0  0  0  0  0  0  0  0  0  0  0
   57.1950   33.1560   45.1800 C   0  0  0  0  0  0  0  0  0  0  0  0
   57.8870   33.9590   46.0900 C   0  0  0  0  0  0  0  0  0  0  0  0
   58.7500   33.3820   47.0220 C   0  0  0  0  0  0  0  0  0  0  0  0
   58.9210   31.9900   47.0590 C   0  0  0  0  0  0  0  0  0  0  0  0
   59.8660   31.3770   48.0560 C   0  0  0  0  0  0  0  0  0  0  0  0
   59.4770   29.9790   48.3490 N   0  0  0  0  0  0  0  0  0  0  0  0
   60.2910   29.0110   47.5840 C   0  0  0  0  0  0  0  0  0  0  0  0
   59.4750   28.4200   46.4640 C   0  0  0  0  0  0  0  0  0  0  0  0
   59.9270   28.5260   45.1380 C   0  0  0  0  0  0  0  0  0  0  0  0
   59.1880   27.9600   44.0950 C   0  0  0  0  0  0  0  0  0  0  0  0
   57.9940   27.2850   44.3680 C   0  0  0  0  0  0  0  0  0  0  0  0
   57.5380   27.1740   45.6860 C   0  0  0  0  0  0  0  0  0  0  0  0
   56.0430   26.3220   46.0260 Cl  0  0  0  0  0  0  0  0  0  0  0  0
   58.2760   27.7400   46.7320 C   0  0  0  0  0  0  0  0  0  0  0  0
   59.4620   29.6740   49.8000 C   0  0  0  0  0  0  0  0  0  0  0  0
   58.4380   30.4670   50.5670 C   0  0  0  0  0  0  0  0  0  0  0  0
   57.4250   29.8970   51.2530 N   0  0  0  0  0  0  0  0  0  0  0  0
   56.7740   30.9410   51.7910 C   0  0  0  0  0  0  0  0  0  0  0  0
   57.4020   32.1070   51.4230 C   0  0  0  0  0  0  0  0  0  0  0  0
   58.4590   31.8140   50.6470 N   0  0  0  0  0  0  0  0  0  0  0  0
   58.2250   31.1840   46.1420 C   0  0  0  0  0  0  0  0  0  0  0  0
   58.2569   32.5241   43.0794 H   0  0  0  0  0  0  0  0  0  0  0  0
   58.5511   31.4870   41.6425 H   0  0  0  0  0  0  0  0  0  0  0  0
   57.1869   32.6556   41.6425 H   0  0  0  0  0  0  0  0  0  0  0  0
   55.5250   29.7080   42.4950 H   0  0  0  0  0  0  0  0  0  0  0  0
   56.5104   33.6178   44.4533 H   0  0  0  0  0  0  0  0  0  0  0  0
   57.7509   35.0504   46.0716 H   0  0  0  0  0  0  0  0  0  0  0  0
   59.2982   34.0206   47.7302 H   0  0  0  0  0  0  0  0  0  0  0  0
   60.8856   31.3899   47.6434 H   0  0  0  0  0  0  0  0  0  0  0  0
   59.8261   31.9597   48.9881 H   0  0  0  0  0  0  0  0  0  0  0  0
   61.1678   29.5251   47.1634 H   0  0  0  0  0  0  0  0  0  0  0  0
   60.6174   28.2040   48.2565 H   0  0  0  0  0  0  0  0  0  0  0  0
   60.8657   29.0562   44.9197 H   0  0  0  0  0  0  0  0  0  0  0  0
   59.5461   28.0457   43.0584 H   0  0  0  0  0  0  0  0  0  0  0  0
   57.4131   26.8411   43.5461 H   0  0  0  0  0  0  0  0  0  0  0  0
   57.9155   27.6518   47.7675 H   0  0  0  0  0  0  0  0  0  0  0  0
   59.2425   28.6039   49.9291 H   0  0  0  0  0  0  0  0  0  0  0  0
   60.4499   29.9470   50.1994 H   0  0  0  0  0  0  0  0  0  0  0  0
   55.8787   30.8737   52.4265 H   0  0  0  0  0  0  0  0  0  0  0  0
   57.0888   33.1196   51.7172 H   0  0  0  0  0  0  0  0  0  0  0  0
   58.3515   30.0917   46.1713 H   0  0  0  0  0  0  0  0  0  0  0  0
  1  2  1  0
  2  3  1  0
  2  4  1  0
  4  5  2  0
  4  6  1  0
  6  7  2  0
  7  8  1  0
  8  9  2  0
  9 10  1  0
 10 11  1  0
 11 12  1  0
 12 13  1  0
 13 14  1  0
 14 15  2  0
 15 16  1  0
 16 17  2  0
 17 18  1  0
 18 19  1  0
 18 20  2  0
 12 21  1  0
 21 22  1  0
 22 23  2  0
 23 24  1  0
 24 25  2  0
 25 26  1  0
 10 27  2  0
 27  6  1  0
 20 14  1  0
 26 22  1  0
  1 28  1  0
  1 29  1  0
  1 30  1  0
  3 31  1  0
  7 32  1  0
  8 33  1  0
  9 34  1  0
 11 35  1  0
 11 36  1  0
 13 37  1  0
 13 38  1  0
 15 39  1  0
 16 40  1  0
 17 41  1  0
 20 42  1  0
 21 43  1  0
 21 44  1  0
 24 45  1  0
 25 46  1  0
 27 47  1  0
M  CHG  1  26  -1
M  END
>  <UniqueID>  (14) 
14

>  <SMILES>  (14) 
CN(O)C(=O)c1cccc(CN(Cc2cccc(Cl)c2)Cc2ncc[n-]2)c1

>  <Energy>  (14) 
78.5660291438665

>  <Genealogy>  (14) 
CN(O)C(=O)c1cccc(CN(Cc2cccc(Cl)c2)Cc2ncc[n-]2)c1 (protonated)
CN(O)C(=O)c1cccc(CN(Cc2cccc(Cl)c2)Cc2ncc[n-]2)c1 (3D coordinates assigned)
CN(O)C(=O)c1cccc(CN(Cc2cccc(Cl)c2)Cc2ncc[n-]2)c1 (optimized conformer: 78.5660291438665 kcal/mol)

>  <smiles>  (14) 
CN(O)C(=O)c1cccc(CN(Cc2cccc(Cl)c2)Cc2ncc[nH]2)c1

>  <score_type>  (14) 
oracle

>  <origin>  (14) 
adg

>  <m_score__min__energy>  (14) 
-10.16

>  <m_primary>  (14) 
energy

$$$$
14:0
     RDKit          3D

 47 49  0  0  0  0  0  0  0  0999 V2000
   55.5420   25.3120   45.6710 C   0  0  0  0  0  0  0  0  0  0  0  0
   55.9960   26.6170   46.0130 O   0  0  0  0  0  0  0  0  0  0  0  0
   57.3440   26.9690   46.1980 C   0  0  0  0  0  0  0  0  0  0  0  0
   58.1310   26.3860   47.2120 C   0  0  0  0  0  0  0  0  0  0  0  0
   59.4650   26.7670   47.3800 C   0  0  0  0  0  0  0  0  0  0  0  0
   60.0260   27.7340   46.5460 C   0  0  0  0  0  0  0  0  0  0  0  0
   59.2590   28.3190   45.5370 C   0  0  0  0  0  0  0  0  0  0  0  0
   57.9220   27.9340   45.3460 C   0  0  0  0  0  0  0  0  0  0  0  0
   57.1030   28.6000   44.2670 C   0  0  0  0  0  0  0  0  0  0  0  0
   55.8990   29.3240   44.8740 C   0  0  0  0  0  0  0  0  0  0  0  0
   55.8470   30.7050   44.4080 N   0  0  0  0  0  0  0  0  0  0  0  0
   57.0010   31.4500   44.0030 C   0  0  0  0  0  0  0  0  0  0  0  0
   57.3960   31.3900   42.8060 O   0  0  0  0  0  0  0  0  0  0  0  0
   57.7260   32.2930   44.9800 C   0  0  0  0  0  0  0  0  0  0  0  0
   57.8520   33.6900   44.7730 C   0  0  0  0  0  0  0  0  0  0  0  0
   58.5360   34.4920   45.6990 C   0  0  0  0  0  0  0  0  0  0  0  0
   59.0870   33.8870   46.8270 C   0  0  0  0  0  0  0  0  0  0  0  0
   58.9720   32.5430   47.0380 C   0  0  0  0  0  0  0  0  0  0  0  0
   58.2990   31.7160   46.1360 C   0  0  0  0  0  0  0  0  0  0  0  0
   59.6080   32.1630   48.2450 N   0  0  0  0  0  0  0  0  0  0  0  0
   59.5860   30.5850   48.9610 S   0  0  0  0  0  0  0  0  0  0  0  0
   59.2910   30.7250   50.7090 C   0  0  0  0  0  0  0  0  0  0  0  0
   58.5100   29.7530   48.3200 O   0  0  0  0  0  0  0  0  0  0  0  0
   60.9140   29.9170   48.7390 O   0  0  0  0  0  0  0  0  0  0  0  0
   60.1570   33.3510   48.8900 C   0  0  0  0  0  0  0  0  0  0  0  0
   59.8460   34.5310   47.9370 C   0  0  0  0  0  0  0  0  0  0  0  0
   55.3432   24.7405   46.5896 H   0  0  0  0  0  0  0  0  0  0  0  0
   54.6177   25.3886   45.0795 H   0  0  0  0  0  0  0  0  0  0  0  0
   56.3143   24.7984   45.0795 H   0  0  0  0  0  0  0  0  0  0  0  0
   57.6921   25.6262   47.8754 H   0  0  0  0  0  0  0  0  0  0  0  0
   60.0733   26.3038   48.1708 H   0  0  0  0  0  0  0  0  0  0  0  0
   61.0747   28.0362   46.6836 H   0  0  0  0  0  0  0  0  0  0  0  0
   59.7047   29.0866   44.8873 H   0  0  0  0  0  0  0  0  0  0  0  0
   57.7316   29.3283   43.7337 H   0  0  0  0  0  0  0  0  0  0  0  0
   56.7396   27.8294   43.5712 H   0  0  0  0  0  0  0  0  0  0  0  0
   54.9760   28.8057   44.5748 H   0  0  0  0  0  0  0  0  0  0  0  0
   55.9966   29.3210   45.9697 H   0  0  0  0  0  0  0  0  0  0  0  0
   57.4090   34.1497   43.8773 H   0  0  0  0  0  0  0  0  0  0  0  0
   58.6352   35.5756   45.5380 H   0  0  0  0  0  0  0  0  0  0  0  0
   58.2164   30.6350   46.3219 H   0  0  0  0  0  0  0  0  0  0  0  0
   60.1512   30.3168   51.2599 H   0  0  0  0  0  0  0  0  0  0  0  0
   59.1548   31.7838   50.9742 H   0  0  0  0  0  0  0  0  0  0  0  0
   58.3846   30.1610   50.9742 H   0  0  0  0  0  0  0  0  0  0  0  0
   59.6785   33.5118   49.8674 H   0  0  0  0  0  0  0  0  0  0  0  0
   61.2374   33.2506   49.0705 H   0  0  0  0  0  0  0  0  0  0  0  0
   59.2346   35.2938   48.4413 H   0  0  0  0  0  0  0  0  0  0  0  0
   60.7499   35.0547   47.5923 H   0  0  0  0  0  0  0  0  0  0  0  0
  1  2  1  0
  2  3  1  0
  3  4  2  0
  4  5  1  0
  5  6  2  0
  6  7  1  0
  7  8  2  0
  8  9  1  0
  9 10  1  0
 10 11  1  0
 11 12  1  0
 12 13  2  0
 12 14  1  0
 14 15  2  0
 15 16  1  0
 16 17  2  0
 17 18  1  0
 18 19  2  0
 18 20  1  0
 20 21  1  0
 21 22  1  0
 21 23  2  0
 21 24  2  0
 20 25  1  0
 25 26  1  0
  8  3  1  0
 19 14  1  0
 26 17  1  0
  1 27  1  0
  1 28  1  0
  1 29  1  0
  4 30  1  0
  5 31  1  0
  6 32  1  0
  7 33  1  0
  9 34  1  0
  9 35  1  0
 10 36  1  0
 10 37  1  0
 15 38  1  0
 16 39  1  0
 19 40  1  0
 22 41  1  0
 22 42  1  0
 22 43  1  0
 25 44  1  0
 25 45  1  0
 26 46  1  0
 26 47  1  0
M  CHG  1  11  -1
M  END
>  <UniqueID>  (15) 
15

>  <SMILES>  (15) 
COc1ccccc1CC[N-]C(=O)c1ccc2c(c1)N(S(C)(=O)=O)CC2

>  <Energy>  (15) 
55.68732645257245

>  <Genealogy>  (15) 
COc1ccccc1CC[N-]C(=O)c1ccc2c(c1)N(S(C)(=O)=O)CC2 (protonated)
COc1ccccc1CC[N-]C(=O)c1ccc2c(c1)N(S(C)(=O)=O)CC2 (3D coordinates assigned)
COc1ccccc1CC[N-]C(=O)c1ccc2c(c1)N(S(C)(=O)=O)CC2 (nonaromatic ring conformer: 55.68732645257245 kcal/mol)

>  <smiles>  (15) 
COc1ccccc1CCNC(=O)c1ccc2c(c1)N(S(C)(=O)=O)CC2

>  <score_type>  (15) 
oracle

>  <origin>  (15) 
adg

>  <m_score__min__energy>  (15) 
-9.9299999999999997

>  <m_primary>  (15) 
energy

$$$$
15:0
     RDKit          3D

 41 45  0  0  0  0  0  0  0  0999 V2000
   56.0550   25.6060   46.0150 O   0  0  0  0  0  0  0  0  0  0  0  0
   56.5000   26.7840   46.0130 C   0  0  0  0  0  0  0  0  0  0  0  0
   55.8960   27.7480   45.2640 N   0  0  0  0  0  0  0  0  0  0  0  0
   56.3750   29.0290   45.2410 C   0  0  0  0  0  0  0  0  0  0  0  0
   55.5820   30.2540   44.2030 S   0  0  0  0  0  0  0  0  0  0  0  0
   57.1450   30.9060   43.5160 C   0  0  0  0  0  0  0  0  0  0  0  0
   57.6570   32.0480   44.3380 C   0  0  0  0  0  0  0  0  0  0  0  0
   58.4170   33.1070   43.8500 C   0  0  0  0  0  0  0  0  0  0  0  0
   58.7440   33.8480   44.9650 C   0  0  0  0  0  0  0  0  0  0  0  0
   59.5060   35.0080   45.0920 C   0  0  0  0  0  0  0  0  0  0  0  0
   59.6930   35.5320   46.3840 C   0  0  0  0  0  0  0  0  0  0  0  0
   59.1240   34.8880   47.5070 C   0  0  0  0  0  0  0  0  0  0  0  0
   58.3620   33.7160   47.3460 C   0  0  0  0  0  0  0  0  0  0  0  0
   58.1890   33.2250   46.0530 C   0  0  0  0  0  0  0  0  0  0  0  0
   57.5210   32.1210   45.6840 N   0  0  0  0  0  0  0  0  0  0  0  0
   57.4700   29.3710   45.9800 N   0  0  0  0  0  0  0  0  0  0  0  0
   58.0830   28.4320   46.7460 C   0  0  0  0  0  0  0  0  0  0  0  0
   59.2310   28.6330   47.5320 C   0  0  0  0  0  0  0  0  0  0  0  0
   59.9400   29.9270   47.6850 C   0  0  0  0  0  0  0  0  0  0  0  0
   60.6140   30.5130   46.5990 C   0  0  0  0  0  0  0  0  0  0  0  0
   61.2760   31.7340   46.7520 C   0  0  0  0  0  0  0  0  0  0  0  0
   61.2670   32.3860   47.9870 C   0  0  0  0  0  0  0  0  0  0  0  0
   60.5930   31.8190   49.0710 C   0  0  0  0  0  0  0  0  0  0  0  0
   59.9290   30.5970   48.9220 C   0  0  0  0  0  0  0  0  0  0  0  0
   59.6480   27.4510   48.1590 C   0  0  0  0  0  0  0  0  0  0  0  0
   58.5960   26.1910   47.7430 S   0  0  0  0  0  0  0  0  0  0  0  0
   57.6140   27.1350   46.7620 C   0  0  0  0  0  0  0  0  0  0  0  0
   57.8969   30.1032   43.5077 H   0  0  0  0  0  0  0  0  0  0  0  0
   56.9554   31.2668   42.4943 H   0  0  0  0  0  0  0  0  0  0  0  0
   58.6952   33.3081   42.8049 H   0  0  0  0  0  0  0  0  0  0  0  0
   59.9466   35.4976   44.2110 H   0  0  0  0  0  0  0  0  0  0  0  0
   60.2856   36.4485   46.5216 H   0  0  0  0  0  0  0  0  0  0  0  0
   59.2780   35.3059   48.5128 H   0  0  0  0  0  0  0  0  0  0  0  0
   57.9174   33.2041   48.2122 H   0  0  0  0  0  0  0  0  0  0  0  0
   57.0280   31.4430   46.3070 H   0  0  0  0  0  0  0  0  0  0  0  0
   60.6202   30.0068   45.6224 H   0  0  0  0  0  0  0  0  0  0  0  0
   61.8051   32.1824   45.8982 H   0  0  0  0  0  0  0  0  0  0  0  0
   61.7907   33.3460   48.1060 H   0  0  0  0  0  0  0  0  0  0  0  0
   60.5844   32.3340   50.0429 H   0  0  0  0  0  0  0  0  0  0  0  0
   59.3950   30.1572   49.7772 H   0  0  0  0  0  0  0  0  0  0  0  0
   60.5229   27.3564   48.8190 H   0  0  0  0  0  0  0  0  0  0  0  0
  1  2  2  0
  2  3  1  0
  3  4  2  0
  4  5  1  0
  5  6  1  0
  6  7  1  0
  7  8  2  0
  8  9  1  0
  9 10  2  0
 10 11  1  0
 11 12  2  0
 12 13  1  0
 13 14  2  0
 14 15  1  0
  4 16  1  0
 16 17  1  0
 17 18  1  0
 18 19  1  0
 19 20  2  0
 20 21  1  0
 21 22  2  0
 22 23  1  0
 23 24  2  0
 18 25  2  0
 25 26  1  0
 26 27  1  0
 27  2  1  0
 15  7  1  0
 27 17  2  0
 14  9  1  0
 24 19  1  0
  6 28  1  0
  6 29  1  0
  8 30  1  0
 10 31  1  0
 11 32  1  0
 12 33  1  0
 13 34  1  0
 15 35  1  0
 20 36  1  0
 21 37  1  0
 22 38  1  0
 23 39  1  0
 24 40  1  0
 25 41  1  0
M  CHG  1  16  -1
M  END
>  <UniqueID>  (16) 
16

>  <SMILES>  (16) 
O=c1nc(SCc2cc3ccccc3[nH]2)[n-]c2c(-c3ccccc3)csc12

>  <Energy>  (16) 
112.15959360065632

>  <Genealogy>  (16) 
O=c1nc(SCc2cc3ccccc3[nH]2)[n-]c2c(-c3ccccc3)csc12 (protonated)
O=c1nc(SCc2cc3ccccc3[nH]2)[n-]c2c(-c3ccccc3)csc12 (3D coordinates assigned)
O=c1nc(SCc2cc3ccccc3[nH]2)[n-]c2c(-c3ccccc3)csc12 (optimized conformer: 112.15959360065632 kcal/mol)

>  <smiles>  (16) 
O=c1nc(SCc2cc3ccccc3[nH]2)[nH]c2c(-c3ccccc3)csc12

>  <score_type>  (16) 
oracle

>  <origin>  (16) 
adg

>  <m_score__min__energy>  (16) 
-10.33

>  <m_primary>  (16) 
energy

$$$$
16:0
     RDKit          3D

 75 77  0  0  0  0  0  0  0  0999 V2000
   62.2962   29.9943   51.9782 H   0  0  0  0  0  0  0  0  0  0  0  0
   61.9270   29.0720   51.5060 C   0  0  0  0  0  0  0  0  0  0  0  0
   61.2150   29.1410   50.3040 C   0  0  0  0  0  0  0  0  0  0  0  0
   61.0390   30.1162   49.8264 H   0  0  0  0  0  0  0  0  0  0  0  0
   60.7250   27.9720   49.7060 C   0  0  0  0  0  0  0  0  0  0  0  0
   59.8360   28.0770   48.1910 S   0  0  0  0  0  0  0  0  0  0  0  0
   58.8640   26.9350   48.1080 O   0  0  0  0  0  0  0  0  0  0  0  0
   60.7720   27.9830   47.0170 O   0  0  0  0  0  0  0  0  0  0  0  0
   58.9580   29.5730   48.1360 N   0  0  0  0  0  0  0  0  0  0  0  0
   59.4700   30.7130   47.7900 C   0  0  0  0  0  0  0  0  0  0  0  0
   60.6300   31.1220   48.3590 N   0  0  0  0  0  0  0  0  0  0  0  0
   61.1840   32.3180   48.0270 C   0  0  0  0  0  0  0  0  0  0  0  0
   62.4220   32.7460   48.6390 N   0  0  0  0  0  0  0  0  0  0  0  0
   63.6740   32.0210   48.3850 C   0  0  0  0  0  0  0  0  0  0  0  0
   63.4397   30.9942   48.0674 H   0  0  0  0  0  0  0  0  0  0  0  0
   64.2339   32.5437   47.5955 H   0  0  0  0  0  0  0  0  0  0  0  0
   64.5330   31.9730   49.6530 C   0  0  0  0  0  0  0  0  0  0  0  0
   64.0766   31.2767   50.3719 H   0  0  0  0  0  0  0  0  0  0  0  0
   65.5439   31.6345   49.3821 H   0  0  0  0  0  0  0  0  0  0  0  0
   64.6300   33.3030   50.2660 N   0  0  0  0  0  0  0  0  0  0  0  0
   65.8380   33.6960   50.9470 C   0  0  0  0  0  0  0  0  0  0  0  0
   65.8740   34.7820   51.5900 O   0  0  0  0  0  0  0  0  0  0  0  0
   66.9720   32.8690   50.8870 O   0  0  0  0  0  0  0  0  0  0  0  0
   67.2490   31.7430   51.7320 C   0  0  0  0  0  0  0  0  0  0  0  0
   67.1740   30.4280   50.9310 C   0  0  0  0  0  0  0  0  0  0  0  0
   67.1255   29.5772   51.6266 H   0  0  0  0  0  0  0  0  0  0  0  0
   66.2748   30.4354   50.2974 H   0  0  0  0  0  0  0  0  0  0  0  0
   68.0682   30.3331   50.2974 H   0  0  0  0  0  0  0  0  0  0  0  0
   68.6310   31.8950   52.4000 C   0  0  0  0  0  0  0  0  0  0  0  0
   68.5131   31.8820   53.4936 H   0  0  0  0  0  0  0  0  0  0  0  0
   69.2809   31.0629   52.0914 H   0  0  0  0  0  0  0  0  0  0  0  0
   69.0845   32.8484   52.0914 H   0  0  0  0  0  0  0  0  0  0  0  0
   66.1690   31.7190   52.8260 C   0  0  0  0  0  0  0  0  0  0  0  0
   66.6492   31.7297   53.8156 H   0  0  0  0  0  0  0  0  0  0  0  0
   65.5226   32.6030   52.7226 H   0  0  0  0  0  0  0  0  0  0  0  0
   65.5625   30.8072   52.7226 H   0  0  0  0  0  0  0  0  0  0  0  0
   63.3780   34.0340   50.5050 C   0  0  0  0  0  0  0  0  0  0  0  0
   62.8069   33.5246   51.2951 H   0  0  0  0  0  0  0  0  0  0  0  0
   63.6201   35.0617   50.8137 H   0  0  0  0  0  0  0  0  0  0  0  0
   62.5360   34.0870   49.2310 C   0  0  0  0  0  0  0  0  0  0  0  0
   61.5313   34.4625   49.4753 H   0  0  0  0  0  0  0  0  0  0  0  0
   63.0231   34.7574   48.5076 H   0  0  0  0  0  0  0  0  0  0  0  0
   60.5550   33.1100   47.1190 N   0  0  0  0  0  0  0  0  0  0  0  0
   59.3870   32.7150   46.5430 C   0  0  0  0  0  0  0  0  0  0  0  0
   58.7070   33.5820   45.6110 N   0  0  0  0  0  0  0  0  0  0  0  0
   59.1790   34.9580   45.4270 C   0  0  0  0  0  0  0  0  0  0  0  0
   59.3393   35.4252   46.4099 H   0  0  0  0  0  0  0  0  0  0  0  0
   60.1255   34.9491   44.8665 H   0  0  0  0  0  0  0  0  0  0  0  0
   58.4264   35.5320   44.8665 H   0  0  0  0  0  0  0  0  0  0  0  0
   57.5390   33.1000   44.8590 C   0  0  0  0  0  0  0  0  0  0  0  0
   56.7619   32.7746   45.5662 H   0  0  0  0  0  0  0  0  0  0  0  0
   57.1588   33.9174   44.2287 H   0  0  0  0  0  0  0  0  0  0  0  0
   57.9300   31.9210   43.9610 C   0  0  0  0  0  0  0  0  0  0  0  0
   58.3350   32.3101   43.0152 H   0  0  0  0  0  0  0  0  0  0  0  0
   58.6836   31.3181   44.4888 H   0  0  0  0  0  0  0  0  0  0  0  0
   56.7240   31.0280   43.6570 C   0  0  0  0  0  0  0  0  0  0  0  0
   55.8716   31.6567   43.3600 H   0  0  0  0  0  0  0  0  0  0  0  0
   56.9838   30.3387   42.8401 H   0  0  0  0  0  0  0  0  0  0  0  0
   56.3610   30.2490   44.8440 N   0  0  0  0  0  0  0  0  0  0  0  0
   57.1450   28.6980   44.8450 S   0  0  0  0  0  0  0  0  0  0  0  0
   57.3120   28.2150   43.4320 O   0  0  0  0  0  0  0  0  0  0  0  0
   56.3300   27.7010   45.6210 O   0  0  0  0  0  0  0  0  0  0  0  0
   58.7010   28.8570   45.5810 N   0  0  0  0  0  0  0  0  0  0  0  0
   58.7110   28.2200   46.4070 H   0  0  0  0  0  0  0  0  0  0  0  0
   58.7640   29.8310   45.9540 H   0  0  0  0  0  0  0  0  0  0  0  0
   58.8550   31.5110   46.8780 N   0  0  0  0  0  0  0  0  0  0  0  0
   60.9530   26.7310   50.3180 C   0  0  0  0  0  0  0  0  0  0  0  0
   60.5660   25.8116   49.8545 H   0  0  0  0  0  0  0  0  0  0  0  0
   61.6710   26.6590   51.5160 C   0  0  0  0  0  0  0  0  0  0  0  0
   61.8442   25.6833   51.9934 H   0  0  0  0  0  0  0  0  0  0  0  0
   62.1720   27.8290   52.1120 C   0  0  0  0  0  0  0  0  0  0  0  0
   62.9030   27.7520   53.4200 C   0  0  0  0  0  0  0  0  0  0  0  0
   62.1825   27.8279   54.2477 H   0  0  0  0  0  0  0  0  0  0  0  0
   63.4371   26.7926   53.4856 H   0  0  0  0  0  0  0  0  0  0  0  0
   63.6253   28.5790   53.4856 H   0  0  0  0  0  0  0  0  0  0  0  0
  1  2  1  0
  2  3  2  0
  3  4  1  0
  3  5  1  0
  5  6  1  0
  6  7  2  0
  6  8  2  0
  6  9  1  0
  9 10  2  0
 10 11  1  0
 11 12  2  0
 12 13  1  0
 13 14  1  0
 14 15  1  0
 14 16  1  0
 14 17  1  0
 17 18  1  0
 17 19  1  0
 17 20  1  0
 20 21  1  0
 21 22  2  0
 21 23  1  0
 23 24  1  0
 24 25  1  0
 25 26  1  0
 25 27  1  0
 25 28  1  0
 24 29  1  0
 29 30  1  0
 29 31  1  0
 29 32  1  0
 24 33  1  0
 33 34  1  0
 33 35  1  0
 33 36  1  0
 20 37  1  0
 37 38  1  0
 37 39  1  0
 37 40  1  0
 40 41  1  0
 40 42  1  0
 12 43  1  0
 43 44  1  0
 44 45  1  0
 45 46  1  0
 46 47  1  0
 46 48  1  0
 46 49  1  0
 45 50  1  0
 50 51  1  0
 50 52  1  0
 50 53  1  0
 53 54  1  0
 53 55  1  0
 53 56  1  0
 56 57  1  0
 56 58  1  0
 56 59  1  0
 59 60  1  0
 60 61  2  0
 60 62  2  0
 60 63  1  0
 63 64  1  0
 63 65  1  0
 44 66  2  0
  5 67  2  0
 67 68  1  0
 67 69  1  0
 69 70  1  0
 69 71  2  0
 71 72  1  0
 72 73  1  0
 72 74  1  0
 72 75  1  0
 71  2  1  0
 66 10  1  0
 40 13  1  0
M  CHG  2  43  -1  59  -1
M  END
>  <UniqueID>  (17) 
17

>  <SMILES>  (17) 
Cc1ccc(S(=O)(=O)/N=c2\nc(N(C)CCC[N-]S(N)(=O)=O)[n-]c(N3CCN(C(=O)OC(C)(C)C)CC3)n2)cc1

>  <Energy>  (17) 
62.22901724648067

>  <Genealogy>  (17) 
Cc1ccc(S(=O)(=O)N=c2nc(N(C)CCC[N-]S(N)(=O)=O)[n-]c(N3CCN(C(=O)OC(C)(C)C)CC3)n2)cc1 (protonated)
Cc1ccc(S(=O)(=O)/N=c2\nc(N(C)CCC[N-]S(N)(=O)=O)[n-]c(N3CCN(C(=O)OC(C)(C)C)CC3)n2)cc1 (cis-trans isomerization)
Cc1ccc(S(=O)(=O)/N=c2\nc(N(C)CCC[N-]S(N)(=O)=O)[n-]c(N3CCN(C(=O)OC(C)(C)C)CC3)n2)cc1 (3D coordinates assigned)
Cc1ccc(S(=O)(=O)/N=c2\nc(N(C)CCC[N-]S(N)(=O)=O)[n-]c(N3CCN(C(=O)OC(C)(C)C)CC3)n2)cc1 (nonaromatic ring conformer: 62.22901724648067 kcal/mol)

>  <smiles>  (17) 
Cc1ccc(S(=O)(=O)N=c2nc(N(C)CCCNS(N)(=O)=O)[nH]c(N3CCN(C(=O)OC(C)(C)C)CC3)n2)cc1

>  <score_type>  (17) 
oracle

>  <origin>  (17) 
adg

>  <m_score__min__energy>  (17) 
-12.279999999999999

>  <m_primary>  (17) 
energy

$$$$
17:0
     RDKit          3D

 42 44  0  0  0  0  0  0  0  0999 V2000
   56.6190   29.3400   42.6320 C   0  0  0  0  0  0  0  0  0  0  0  0
   56.9650   30.4650   43.5480 C   0  0  0  0  0  0  0  0  0  0  0  0
   57.5040   31.6770   43.1720 C   0  0  0  0  0  0  0  0  0  0  0  0
   57.5550   32.3820   44.3550 C   0  0  0  0  0  0  0  0  0  0  0  0
   58.0690   33.7750   44.5390 C   0  0  0  0  0  0  0  0  0  0  0  0
   58.7160   33.9050   45.8050 O   0  0  0  0  0  0  0  0  0  0  0  0
   59.6910   33.0290   46.3140 C   0  0  0  0  0  0  0  0  0  0  0  0
   60.9940   33.4570   46.6320 C   0  0  0  0  0  0  0  0  0  0  0  0
   61.9260   32.5390   47.1340 C   0  0  0  0  0  0  0  0  0  0  0  0
   63.2920   32.9810   47.4820 C   0  0  0  0  0  0  0  0  0  0  0  0
   64.1460   33.1010   46.5600 O   0  0  0  0  0  0  0  0  0  0  0  0
   63.6700   33.2710   48.8430 N   0  0  0  0  0  0  0  0  0  0  0  0
   64.6680   32.4220   49.4980 C   0  0  0  0  0  0  0  0  0  0  0  0
   62.9710   34.3050   49.6190 C   0  0  0  0  0  0  0  0  0  0  0  0
   61.6380   33.8100   50.0890 C   0  0  0  0  0  0  0  0  0  0  0  0
   61.4140   33.0550   51.2230 C   0  0  0  0  0  0  0  0  0  0  0  0
   60.0520   32.8430   51.2630 C   0  0  0  0  0  0  0  0  0  0  0  0
   59.5320   33.4850   50.1590 C   0  0  0  0  0  0  0  0  0  0  0  0
   60.5010   34.0560   49.4810 O   0  0  0  0  0  0  0  0  0  0  0  0
   61.5330   31.2130   47.3390 C   0  0  0  0  0  0  0  0  0  0  0  0
   60.2370   30.8180   47.0070 C   0  0  0  0  0  0  0  0  0  0  0  0
   59.3550   31.7230   46.5030 N   0  0  0  0  0  0  0  0  0  0  0  0
   57.0800   31.6310   45.3220 O   0  0  0  0  0  0  0  0  0  0  0  0
   56.7050   30.4700   44.8700 N   0  0  0  0  0  0  0  0  0  0  0  0
   56.3467   28.4546   43.2253 H   0  0  0  0  0  0  0  0  0  0  0  0
   55.7691   29.6318   41.9976 H   0  0  0  0  0  0  0  0  0  0  0  0
   57.4860   29.1038   41.9976 H   0  0  0  0  0  0  0  0  0  0  0  0
   57.8178   32.0028   42.1693 H   0  0  0  0  0  0  0  0  0  0  0  0
   58.7887   34.0041   43.7392 H   0  0  0  0  0  0  0  0  0  0  0  0
   57.2219   34.4755   44.4983 H   0  0  0  0  0  0  0  0  0  0  0  0
   61.2796   34.5093   46.4868 H   0  0  0  0  0  0  0  0  0  0  0  0
   64.5646   32.5100   50.5896 H   0  0  0  0  0  0  0  0  0  0  0  0
   64.5125   31.3752   49.1981 H   0  0  0  0  0  0  0  0  0  0  0  0
   65.6764   32.7433   49.1981 H   0  0  0  0  0  0  0  0  0  0  0  0
   63.5831   34.5756   50.4920 H   0  0  0  0  0  0  0  0  0  0  0  0
   62.8130   35.1820   48.9741 H   0  0  0  0  0  0  0  0  0  0  0  0
   62.1645   32.6976   51.9434 H   0  0  0  0  0  0  0  0  0  0  0  0
   59.4932   32.2762   52.0223 H   0  0  0  0  0  0  0  0  0  0  0  0
   58.4665   33.5144   49.8872 H   0  0  0  0  0  0  0  0  0  0  0  0
   62.2421   30.4850   47.7599 H   0  0  0  0  0  0  0  0  0  0  0  0
   59.9275   29.7726   47.1530 H   0  0  0  0  0  0  0  0  0  0  0  0
   58.3880   31.4040   46.2650 H   0  0  0  0  0  0  0  0  0  0  0  0
  1  2  1  0
  2  3  1  0
  3  4  2  0
  4  5  1  0
  5  6  1  0
  6  7  1  0
  7  8  2  0
  8  9  1  0
  9 10  1  0
 10 11  2  0
 10 12  1  0
 12 13  1  0
 12 14  1  0
 14 15  1  0
 15 16  2  0
 16 17  1  0
 17 18  2  0
 18 19  1  0
  9 20  2  0
 20 21  1  0
 21 22  2  0
  4 23  1  0
 23 24  1  0
 24  2  2  0
 22  7  1  0
 19 15  1  0
  1 25  1  0
  1 26  1  0
  1 27  1  0
  3 28  1  0
  5 29  1  0
  5 30  1  0
  8 31  1  0
 13 32  1  0
 13 33  1  0
 13 34  1  0
 14 35  1  0
 14 36  1  0
 16 37  1  0
 17 38  1  0
 18 39  1  0
 20 40  1  0
 21 41  1  0
 22 42  1  0
M  CHG  1  22   1
M  END
>  <UniqueID>  (18) 
18

>  <SMILES>  (18) 
Cc1cc(COc2cc(C(=O)N(C)Cc3ccco3)cc[nH+]2)on1

>  <Energy>  (18) 
99.91704889133247

>  <Genealogy>  (18) 
Cc1cc(COc2cc(C(=O)N(C)Cc3ccco3)cc[nH+]2)on1 (protonated)
Cc1cc(COc2cc(C(=O)N(C)Cc3ccco3)cc[nH+]2)on1 (3D coordinates assigned)
Cc1cc(COc2cc(C(=O)N(C)Cc3ccco3)cc[nH+]2)on1 (optimized conformer: 99.91704889133247 kcal/mol)

>  <smiles>  (18) 
Cc1cc(COc2cc(C(=O)N(C)Cc3ccco3)ccn2)on1

>  <score_type>  (18) 
oracle

>  <origin>  (18) 
adg

>  <m_score__min__energy>  (18) 
-6.21

>  <m_primary>  (18) 
energy

$$$$
18:0
     RDKit          3D

 35 37  0  0  0  0  0  0  0  0999 V2000
   56.6420   30.9800   44.8840 O   0  0  0  0  0  0  0  0  0  0  0  0
   57.8040   31.0870   45.3620 C   0  0  0  0  0  0  0  0  0  0  0  0
   58.5920   29.9130   45.6220 N   0  0  0  0  0  0  0  0  0  0  0  0
   58.2610   28.6010   45.1340 C   0  0  0  0  0  0  0  0  0  0  0  0
   58.4390   28.2660   43.7800 C   0  0  0  0  0  0  0  0  0  0  0  0
   58.1470   26.9770   43.3280 C   0  0  0  0  0  0  0  0  0  0  0  0
   57.6820   26.0090   44.2190 C   0  0  0  0  0  0  0  0  0  0  0  0
   57.5010   26.3230   45.5750 C   0  0  0  0  0  0  0  0  0  0  0  0
   57.0410   25.2640   46.5370 C   0  0  0  0  0  0  0  0  0  0  0  0
   55.6600   25.3850   46.7340 O   0  0  0  0  0  0  0  0  0  0  0  0
   57.8130   27.6160   46.0330 C   0  0  0  0  0  0  0  0  0  0  0  0
   57.6690   27.9230   47.3490 F   0  0  0  0  0  0  0  0  0  0  0  0
   58.3540   32.4280   45.6610 C   0  0  0  0  0  0  0  0  0  0  0  0
   58.4350   33.3670   44.6180 C   0  0  0  0  0  0  0  0  0  0  0  0
   58.0290   33.0530   43.3620 F   0  0  0  0  0  0  0  0  0  0  0  0
   58.9030   34.6560   44.8750 C   0  0  0  0  0  0  0  0  0  0  0  0
   59.2820   35.0090   46.1290 N   0  0  0  0  0  0  0  0  0  0  0  0
   59.2350   34.1340   47.1670 C   0  0  0  0  0  0  0  0  0  0  0  0
   59.6530   34.5480   48.4360 C   0  0  0  0  0  0  0  0  0  0  0  0
   59.6380   33.6540   49.5070 C   0  0  0  0  0  0  0  0  0  0  0  0
   59.2130   32.3380   49.3150 C   0  0  0  0  0  0  0  0  0  0  0  0
   59.2190   31.4690   50.3570 F   0  0  0  0  0  0  0  0  0  0  0  0
   58.7900   31.9120   48.0530 C   0  0  0  0  0  0  0  0  0  0  0  0
   58.7760   32.8070   46.9620 C   0  0  0  0  0  0  0  0  0  0  0  0
   59.4030   30.0090   46.2730 H   0  0  0  0  0  0  0  0  0  0  0  0
   58.8100   29.0228   43.0732 H   0  0  0  0  0  0  0  0  0  0  0  0
   58.2841   26.7242   42.2663 H   0  0  0  0  0  0  0  0  0  0  0  0
   57.4562   24.9951   43.8570 H   0  0  0  0  0  0  0  0  0  0  0  0
   57.2675   24.2697   46.1245 H   0  0  0  0  0  0  0  0  0  0  0  0
   57.5622   25.3879   47.4977 H   0  0  0  0  0  0  0  0  0  0  0  0
   55.5050   25.2290   47.7010 H   0  0  0  0  0  0  0  0  0  0  0  0
   58.9650   35.3892   44.0574 H   0  0  0  0  0  0  0  0  0  0  0  0
   59.9948   35.5821   48.5901 H   0  0  0  0  0  0  0  0  0  0  0  0
   59.9616   33.9865   50.5044 H   0  0  0  0  0  0  0  0  0  0  0  0
   58.4654   30.8709   47.9089 H   0  0  0  0  0  0  0  0  0  0  0  0
  1  2  2  0
  2  3  1  0
  3  4  1  0
  4  5  2  0
  5  6  1  0
  6  7  2  0
  7  8  1  0
  8  9  1  0
  9 10  1  0
  8 11  2  0
 11 12  1  0
  2 13  1  0
 13 14  2  0
 14 15  1  0
 14 16  1  0
 16 17  2  0
 17 18  1  0
 18 19  2  0
 19 20  1  0
 20 21  2  0
 21 22  1  0
 21 23  1  0
 23 24  2  0
 11  4  1  0
 24 13  1  0
 24 18  1  0
  3 25  1  0
  5 26  1  0
  6 27  1  0
  7 28  1  0
  9 29  1  0
  9 30  1  0
 10 31  1  0
 16 32  1  0
 19 33  1  0
 20 34  1  0
 23 35  1  0
M  END
>  <UniqueID>  (19) 
19

>  <SMILES>  (19) 
O=C(Nc1cccc(CO)c1F)c1c(F)cnc2ccc(F)cc12

>  <Energy>  (19) 
52.213511255814325

>  <Genealogy>  (19) 
O=C(Nc1cccc(CO)c1F)c1c(F)cnc2ccc(F)cc12 (3D coordinates assigned)
O=C(Nc1cccc(CO)c1F)c1c(F)cnc2ccc(F)cc12 (optimized conformer: 52.213511255814325 kcal/mol)

>  <smiles>  (19) 
O=C(Nc1cccc(CO)c1F)c1c(F)cnc2ccc(F)cc12

>  <score_type>  (19) 
oracle

>  <origin>  (19) 
adg

>  <m_score__min__energy>  (19) 
-8.0199999999999996

>  <m_primary>  (19) 
energy

$$$$
19:0
     RDKit          3D

 53 56  0  0  0  0  0  0  0  0999 V2000
   56.3050   29.7420   42.5730 C   0  0  0  0  0  0  0  0  0  0  0  0
   56.9920   31.0680   42.2690 C   0  0  0  0  0  0  0  0  0  0  0  0
   58.1870   31.2060   43.0380 O   0  0  0  0  0  0  0  0  0  0  0  0
   58.3900   32.1130   44.0960 C   0  0  0  0  0  0  0  0  0  0  0  0
   58.4010   33.5040   43.8910 C   0  0  0  0  0  0  0  0  0  0  0  0
   58.6240   34.3780   44.9510 C   0  0  0  0  0  0  0  0  0  0  0  0
   58.8510   33.8840   46.2410 C   0  0  0  0  0  0  0  0  0  0  0  0
   59.0700   34.7770   47.3020 C   0  0  0  0  0  0  0  0  0  0  0  0
   59.2830   34.2940   48.5940 C   0  0  0  0  0  0  0  0  0  0  0  0
   59.2770   32.9210   48.8380 C   0  0  0  0  0  0  0  0  0  0  0  0
   59.0620   32.0210   47.7910 C   0  0  0  0  0  0  0  0  0  0  0  0
   58.8490   32.4860   46.4750 C   0  0  0  0  0  0  0  0  0  0  0  0
   58.6040   31.5990   45.3930 C   0  0  0  0  0  0  0  0  0  0  0  0
   58.5490   30.1280   45.5890 C   0  0  0  0  0  0  0  0  0  0  0  0
   57.3090   29.4750   45.5020 C   0  0  0  0  0  0  0  0  0  0  0  0
   57.2060   28.0960   45.7510 C   0  0  0  0  0  0  0  0  0  0  0  0
   55.9630   27.3890   45.6400 N   0  0  0  0  0  0  0  0  0  0  0  0
   55.7610   25.6730   45.7810 S   0  0  0  0  0  0  0  0  0  0  0  0
   56.7230   24.8360   44.5380 C   0  0  0  0  0  0  0  0  0  0  0  0
   56.2470   25.2400   47.1350 O   0  0  0  0  0  0  0  0  0  0  0  0
   54.3080   25.3120   45.6500 O   0  0  0  0  0  0  0  0  0  0  0  0
   58.3480   27.3830   46.1300 C   0  0  0  0  0  0  0  0  0  0  0  0
   59.5830   28.0260   46.2360 C   0  0  0  0  0  0  0  0  0  0  0  0
   59.7020   29.3880   45.9470 C   0  0  0  0  0  0  0  0  0  0  0  0
   60.9660   29.9860   46.0560 O   0  0  0  0  0  0  0  0  0  0  0  0
   61.5020   30.4920   47.2490 C   0  0  0  0  0  0  0  0  0  0  0  0
   61.1530   29.9520   48.5000 C   0  0  0  0  0  0  0  0  0  0  0  0
   61.7360   30.4530   49.6680 C   0  0  0  0  0  0  0  0  0  0  0  0
   62.6510   31.5050   49.5970 C   0  0  0  0  0  0  0  0  0  0  0  0
   62.9760   32.0680   48.3590 C   0  0  0  0  0  0  0  0  0  0  0  0
   63.8570   33.0960   48.2920 F   0  0  0  0  0  0  0  0  0  0  0  0
   62.3950   31.5670   47.1890 C   0  0  0  0  0  0  0  0  0  0  0  0
   56.2349   29.6067   43.6624 H   0  0  0  0  0  0  0  0  0  0  0  0
   55.2947   29.7443   42.1380 H   0  0  0  0  0  0  0  0  0  0  0  0
   56.8896   28.9180   42.1380 H   0  0  0  0  0  0  0  0  0  0  0  0
   57.2448   31.1066   41.1991 H   0  0  0  0  0  0  0  0  0  0  0  0
   56.3074   31.8886   42.5297 H   0  0  0  0  0  0  0  0  0  0  0  0
   58.2314   33.9061   42.8813 H   0  0  0  0  0  0  0  0  0  0  0  0
   58.6219   35.4637   44.7740 H   0  0  0  0  0  0  0  0  0  0  0  0
   59.0737   35.8609   47.1144 H   0  0  0  0  0  0  0  0  0  0  0  0
   59.4560   34.9978   49.4215 H   0  0  0  0  0  0  0  0  0  0  0  0
   59.4421   32.5451   49.8585 H   0  0  0  0  0  0  0  0  0  0  0  0
   59.0587   30.9399   47.9940 H   0  0  0  0  0  0  0  0  0  0  0  0
   56.4090   30.0489   45.2362 H   0  0  0  0  0  0  0  0  0  0  0  0
   57.4672   24.1885   45.0247 H   0  0  0  0  0  0  0  0  0  0  0  0
   56.0585   24.2237   43.9107 H   0  0  0  0  0  0  0  0  0  0  0  0
   57.2376   25.5788   43.9107 H   0  0  0  0  0  0  0  0  0  0  0  0
   58.2727   26.3071   46.3463 H   0  0  0  0  0  0  0  0  0  0  0  0
   60.4697   27.4556   46.5496 H   0  0  0  0  0  0  0  0  0  0  0  0
   60.4200   29.1340   48.5596 H   0  0  0  0  0  0  0  0  0  0  0  0
   61.4735   30.0179   50.6436 H   0  0  0  0  0  0  0  0  0  0  0  0
   63.1167   31.8913   50.5157 H   0  0  0  0  0  0  0  0  0  0  0  0
   62.6415   32.0205   46.2176 H   0  0  0  0  0  0  0  0  0  0  0  0
  1  2  1  0
  2  3  1  0
  3  4  1  0
  4  5  2  0
  5  6  1  0
  6  7  2  0
  7  8  1  0
  8  9  2  0
  9 10  1  0
 10 11  2  0
 11 12  1  0
 12 13  2  0
 13 14  1  0
 14 15  2  0
 15 16  1  0
 16 17  1  0
 17 18  1  0
 18 19  1  0
 18 20  2  0
 18 21  2  0
 16 22  2  0
 22 23  1  0
 23 24  2  0
 24 25  1  0
 25 26  1  0
 26 27  2  0
 27 28  1  0
 28 29  2  0
 29 30  1  0
 30 31  1  0
 30 32  2  0
 13  4  1  0
 24 14  1  0
 32 26  1  0
 12  7  1  0
  1 33  1  0
  1 34  1  0
  1 35  1  0
  2 36  1  0
  2 37  1  0
  5 38  1  0
  6 39  1  0
  8 40  1  0
  9 41  1  0
 10 42  1  0
 11 43  1  0
 15 44  1  0
 19 45  1  0
 19 46  1  0
 19 47  1  0
 22 48  1  0
 23 49  1  0
 27 50  1  0
 28 51  1  0
 29 52  1  0
 32 53  1  0
M  CHG  1  17  -1
M  END
>  <UniqueID>  (20) 
20

>  <SMILES>  (20) 
CCOc1ccc2ccccc2c1-c1cc([N-]S(C)(=O)=O)ccc1Oc1cccc(F)c1

>  <Energy>  (20) 
69.9871573894612

>  <Genealogy>  (20) 
CCOc1ccc2ccccc2c1-c1cc([N-]S(C)(=O)=O)ccc1Oc1cccc(F)c1 (protonated)
CCOc1ccc2ccccc2c1-c1cc([N-]S(C)(=O)=O)ccc1Oc1cccc(F)c1 (3D coordinates assigned)
CCOc1ccc2ccccc2c1-c1cc([N-]S(C)(=O)=O)ccc1Oc1cccc(F)c1 (optimized conformer: 69.9871573894612 kcal/mol)

>  <smiles>  (20) 
CCOc1ccc2ccccc2c1-c1cc(NS(C)(=O)=O)ccc1Oc1cccc(F)c1

>  <score_type>  (20) 
oracle

>  <origin>  (20) 
adg

>  <m_score__min__energy>  (20) 
-11.15

>  <m_primary>  (20) 
energy

$$$$
20:0
     RDKit          3D

 44 47  0  0  1  0  0  0  0  0999 V2000
   58.7050   34.3710   45.1160 O   0  0  0  0  0  0  0  0  0  0  0  0
   58.9980   33.3740   45.7950 C   0  0  0  0  0  0  0  0  0  0  0  0
   59.8100   33.5250   46.9420 N   0  0  0  0  0  0  0  0  0  0  0  0
   61.0670   33.2690   46.9510 C   0  0  0  0  0  0  0  0  0  0  0  0
   61.5160   32.1020   47.5350 C   0  0  0  0  0  0  0  0  0  0  0  0
   62.8720   31.8650   47.5230 C   0  0  0  0  0  0  0  0  0  0  0  0
   63.7290   32.7590   46.9530 N   0  0  0  0  0  0  0  0  0  0  0  0
   63.2310   33.8810   46.4000 C   0  0  0  0  0  0  0  0  0  0  0  0
   61.9110   34.1620   46.3840 N   0  0  0  0  0  0  0  0  0  0  0  0
   58.5460   32.0180   45.4810 C   0  0  0  0  0  0  0  0  0  0  0  0
   58.1320   31.6110   44.2420 C   0  0  0  0  0  0  0  0  0  0  0  0
   57.7150   30.2950   44.0320 C   0  0  0  0  0  0  0  0  0  0  0  0
   57.7320   29.4200   45.1000 C   0  0  0  0  0  0  0  0  0  0  0  0
   57.3020   28.0600   44.9920 N   0  0  0  0  0  0  0  0  0  0  0  0
   58.0360   26.9790   45.5290 C   0  0  0  0  0  0  0  0  0  0  0  0
   59.1360   27.1800   46.1360 O   0  0  0  0  0  0  0  0  0  0  0  0
   57.6380   25.6160   45.4400 N   0  0  0  0  0  0  0  0  0  0  0  0
   58.4480   24.5110   45.9240 C   0  0  0  0  0  0  0  0  0  0  0  0
   58.0900   23.4430   44.9190 C   0  0  0  0  0  0  0  0  0  0  0  0
   58.7400   22.2650   44.5310 C   0  0  0  0  0  0  0  0  0  0  0  0
   58.1150   21.4750   43.5790 C   0  0  0  0  0  0  0  0  0  0  0  0
   56.9070   21.7950   43.0120 C   0  0  0  0  0  0  0  0  0  0  0  0
   56.2740   22.9620   43.4010 C   0  0  0  0  0  0  0  0  0  0  0  0
   56.8550   23.7810   44.3430 C   0  0  0  0  0  0  0  0  0  0  0  0
   56.3840   25.0750   44.8960 C   0  0  0  0  0  0  0  0  0  0  0  0
   58.1550   29.8190   46.3780 C   0  0  0  0  0  0  0  0  0  0  0  0
   58.5600   31.1260   46.5570 C   0  0  0  0  0  0  0  0  0  0  0  0
   60.8162   31.3876   47.9932 H   0  0  0  0  0  0  0  0  0  0  0  0
   63.2680   30.9451   47.9779 H   0  0  0  0  0  0  0  0  0  0  0  0
   64.7570   32.5640   46.9550 H   0  0  0  0  0  0  0  0  0  0  0  0
   63.9285   34.5980   45.9425 H   0  0  0  0  0  0  0  0  0  0  0  0
   58.1276   32.3254   43.4056 H   0  0  0  0  0  0  0  0  0  0  0  0
   57.3805   29.9629   43.0381 H   0  0  0  0  0  0  0  0  0  0  0  0
   56.4080   27.8230   44.4950 H   0  0  0  0  0  0  0  0  0  0  0  0
   59.5210   24.7516   45.8954 H   0  0  0  0  0  0  0  0  0  0  0  0
   58.2630   24.2331   46.9721 H   0  0  0  0  0  0  0  0  0  0  0  0
   59.7091   21.9777   44.9649 H   0  0  0  0  0  0  0  0  0  0  0  0
   58.6116   20.5460   43.2624 H   0  0  0  0  0  0  0  0  0  0  0  0
   56.4496   21.1345   42.2606 H   0  0  0  0  0  0  0  0  0  0  0  0
   55.3055   23.2359   42.9572 H   0  0  0  0  0  0  0  0  0  0  0  0
   55.9704   25.7243   44.1103 H   0  0  0  0  0  0  0  0  0  0  0  0
   55.5700   24.9866   45.6306 H   0  0  0  0  0  0  0  0  0  0  0  0
   58.1634   29.1069   47.2164 H   0  0  0  0  0  0  0  0  0  0  0  0
   58.8944   31.4664   47.5481 H   0  0  0  0  0  0  0  0  0  0  0  0
  1  2  2  0
  2  3  1  0
  3  4  2  0
  4  5  1  0
  5  6  2  0
  6  7  1  0
  7  8  1  0
  8  9  2  0
  2 10  1  0
 10 11  2  0
 11 12  1  0
 12 13  2  0
 13 14  1  0
 14 15  1  0
 15 16  2  0
 15 17  1  0
 17 18  1  0
 18 19  1  0
 19 20  2  0
 20 21  1  0
 21 22  2  0
 22 23  1  0
 23 24  2  0
 24 25  1  0
 13 26  1  0
 26 27  2  0
  9  4  1  0
 27 10  1  0
 25 17  1  0
 24 19  1  0
  5 28  1  0
  6 29  1  0
  7 30  1  0
  8 31  1  0
 11 32  1  0
 12 33  1  0
 14 34  1  0
 18 35  1  0
 18 36  1  0
 20 37  1  0
 21 38  1  0
 22 39  1  0
 23 40  1  0
 25 41  1  0
 25 42  1  0
 26 43  1  0
 27 44  1  0
M  END
>  <smiles>  (21) 
O=C(N=c1cc[nH]cn1)c1ccc(NC(=O)N2Cc3ccccc3C2)cc1

>  <score_type>  (21) 
oracle

>  <origin>  (21) 
adg

>  <m_score__min__energy>  (21) 
-8.5999999999999996

>  <m_primary>  (21) 
energy

$$$$
21:0
     RDKit          3D

 59 63  0  0  0  0  0  0  0  0999 V2000
   58.8910   32.3960   49.6510 N   0  0  0  0  0  0  0  0  0  0  0  0
   59.9850   33.7220   49.8300 S   0  0  0  0  0  0  0  0  0  0  0  0
   59.2800   34.9750   49.3910 O   0  0  0  0  0  0  0  0  0  0  0  0
   60.3740   33.8640   51.2740 O   0  0  0  0  0  0  0  0  0  0  0  0
   61.4330   33.4770   48.8420 C   0  0  0  0  0  0  0  0  0  0  0  0
   62.6830   33.7750   49.4140 C   0  0  0  0  0  0  0  0  0  0  0  0
   63.8550   33.6600   48.6670 C   0  0  0  0  0  0  0  0  0  0  0  0
   63.7970   33.2440   47.3390 C   0  0  0  0  0  0  0  0  0  0  0  0
   62.5680   32.9310   46.7570 C   0  0  0  0  0  0  0  0  0  0  0  0
   61.3770   33.0310   47.4970 C   0  0  0  0  0  0  0  0  0  0  0  0
   60.1100   32.6570   46.8270 C   0  0  0  0  0  0  0  0  0  0  0  0
   59.4510   33.5740   45.9990 C   0  0  0  0  0  0  0  0  0  0  0  0
   58.2910   33.2040   45.3190 C   0  0  0  0  0  0  0  0  0  0  0  0
   57.7890   31.8970   45.4640 C   0  0  0  0  0  0  0  0  0  0  0  0
   56.7060   31.4870   44.8660 N   0  0  0  0  0  0  0  0  0  0  0  0
   56.3400   30.1350   44.5420 C   0  0  0  0  0  0  0  0  0  0  0  0
   55.2120   29.8850   44.0360 O   0  0  0  0  0  0  0  0  0  0  0  0
   57.3050   29.0380   44.7370 C   0  0  0  0  0  0  0  0  0  0  0  0
   56.9770   27.9190   45.5150 C   0  0  0  0  0  0  0  0  0  0  0  0
   57.8760   26.8400   45.5990 C   0  0  0  0  0  0  0  0  0  0  0  0
   57.5580   25.6590   46.2890 O   0  0  0  0  0  0  0  0  0  0  0  0
   56.6260   24.7160   45.8380 C   0  0  0  0  0  0  0  0  0  0  0  0
   55.2720   25.0690   45.8290 C   0  0  0  0  0  0  0  0  0  0  0  0
   54.3150   24.1970   45.3060 C   0  0  0  0  0  0  0  0  0  0  0  0
   54.7020   22.9640   44.7780 C   0  0  0  0  0  0  0  0  0  0  0  0
   56.0520   22.5860   44.8000 C   0  0  0  0  0  0  0  0  0  0  0  0
   57.0130   23.4360   45.3750 C   0  0  0  0  0  0  0  0  0  0  0  0
   58.4130   22.8870   45.5290 C   0  0  0  0  0  0  0  0  0  0  0  0
   58.9080   22.2390   44.2220 C   0  0  0  0  0  0  0  0  0  0  0  0
   57.8140   21.4750   43.4350 C   0  0  0  0  0  0  0  0  0  0  0  0
   56.5060   21.2720   44.2200 C   0  0  0  0  0  0  0  0  0  0  0  0
   59.1150   26.9370   44.9660 C   0  0  0  0  0  0  0  0  0  0  0  0
   59.4220   28.0800   44.2240 C   0  0  0  0  0  0  0  0  0  0  0  0
   58.5150   29.0870   44.1160 N   0  0  0  0  0  0  0  0  0  0  0  0
   58.4440   31.0280   46.2810 N   0  0  0  0  0  0  0  0  0  0  0  0
   59.5810   31.3660   46.9460 C   0  0  0  0  0  0  0  0  0  0  0  0
   58.4600   32.4900   48.7050 H   0  0  0  0  0  0  0  0  0  0  0  0
   59.4650   31.5240   49.6340 H   0  0  0  0  0  0  0  0  0  0  0  0
   62.7367   34.1026   50.4627 H   0  0  0  0  0  0  0  0  0  0  0  0
   64.8256   33.8979   49.1267 H   0  0  0  0  0  0  0  0  0  0  0  0
   64.7213   33.1621   46.7482 H   0  0  0  0  0  0  0  0  0  0  0  0
   62.5307   32.6025   45.7079 H   0  0  0  0  0  0  0  0  0  0  0  0
   59.8507   34.5924   45.8842 H   0  0  0  0  0  0  0  0  0  0  0  0
   57.7721   33.9283   44.6740 H   0  0  0  0  0  0  0  0  0  0  0  0
   56.0207   27.8847   46.0576 H   0  0  0  0  0  0  0  0  0  0  0  0
   54.9590   26.0413   46.2372 H   0  0  0  0  0  0  0  0  0  0  0  0
   53.2527   24.4825   45.3101 H   0  0  0  0  0  0  0  0  0  0  0  0
   53.9485   22.2896   44.3451 H   0  0  0  0  0  0  0  0  0  0  0  0
   59.0920   23.7086   45.8010 H   0  0  0  0  0  0  0  0  0  0  0  0
   58.3991   22.1169   46.3143 H   0  0  0  0  0  0  0  0  0  0  0  0
   59.3078   23.0328   43.5738 H   0  0  0  0  0  0  0  0  0  0  0  0
   59.6679   21.4963   44.5067 H   0  0  0  0  0  0  0  0  0  0  0  0
   57.5847   22.0429   42.5213 H   0  0  0  0  0  0  0  0  0  0  0  0
   58.2159   20.4737   43.2211 H   0  0  0  0  0  0  0  0  0  0  0  0
   55.7303   20.8835   43.5437 H   0  0  0  0  0  0  0  0  0  0  0  0
   56.6786   20.5544   45.0356 H   0  0  0  0  0  0  0  0  0  0  0  0
   59.8455   26.1189   45.0505 H   0  0  0  0  0  0  0  0  0  0  0  0
   60.3992   28.1655   43.7263 H   0  0  0  0  0  0  0  0  0  0  0  0
   60.0869   30.6226   47.5796 H   0  0  0  0  0  0  0  0  0  0  0  0
  1  2  1  0
  2  3  2  0
  2  4  2  0
  2  5  1  0
  5  6  2  0
  6  7  1  0
  7  8  2  0
  8  9  1  0
  9 10  2  0
 10 11  1  0
 11 12  1  0
 12 13  2  0
 13 14  1  0
 14 15  2  3
 15 16  1  0
 16 17  2  0
 16 18  1  0
 18 19  2  0
 19 20  1  0
 20 21  1  0
 21 22  1  0
 22 23  2  0
 23 24  1  0
 24 25  2  0
 25 26  1  0
 26 27  2  0
 27 28  1  0
 28 29  1  0
 29 30  1  0
 30 31  1  0
 20 32  2  0
 32 33  1  0
 33 34  2  0
 14 35  1  0
 35 36  1  0
 10  5  1  0
 36 11  2  0
 34 18  1  0
 27 22  1  0
 31 26  1  0
  1 37  1  0
  1 38  1  0
  6 39  1  0
  7 40  1  0
  8 41  1  0
  9 42  1  0
 12 43  1  0
 13 44  1  0
 19 45  1  0
 23 46  1  0
 24 47  1  0
 25 48  1  0
 28 49  1  0
 28 50  1  0
 29 51  1  0
 29 52  1  0
 30 53  1  0
 30 54  1  0
 31 55  1  0
 31 56  1  0
 32 57  1  0
 33 58  1  0
 36 59  1  0
M  CHG  1  35  -1
M  END
>  <UniqueID>  (22) 
21

>  <SMILES>  (22) 
NS(=O)(=O)c1ccccc1-c1ccc(=NC(=O)c2cc(Oc3cccc4c3CCCC4)ccn2)[n-]c1

>  <Energy>  (22) 
92.38529637303118

>  <Genealogy>  (22) 
NS(=O)(=O)c1ccccc1-c1ccc(=NC(=O)c2cc(Oc3cccc4c3CCCC4)ccn2)[n-]c1 (protonated)
NS(=O)(=O)c1ccccc1-c1ccc(=NC(=O)c2cc(Oc3cccc4c3CCCC4)ccn2)[n-]c1 (3D coordinates assigned)
NS(=O)(=O)c1ccccc1-c1ccc(=NC(=O)c2cc(Oc3cccc4c3CCCC4)ccn2)[n-]c1 (nonaromatic ring conformer: 92.38529637303118 kcal/mol)

>  <smiles>  (22) 
NS(=O)(=O)c1ccccc1-c1ccc(=NC(=O)c2cc(Oc3cccc4c3CCCC4)ccn2)[nH]c1

>  <score_type>  (22) 
oracle

>  <origin>  (22) 
adg

>  <m_score__min__energy>  (22) 
-12.81

>  <m_primary>  (22) 
energy

$$$$
22:0
     RDKit          3D

 48 50  0  0  0  0  0  0  0  0999 V2000
   54.1860   24.8430   45.5900 C   0  0  0  0  0  0  0  0  0  0  0  0
   54.7530   26.1400   45.7300 O   0  0  0  0  0  0  0  0  0  0  0  0
   56.0940   26.3880   46.0600 C   0  0  0  0  0  0  0  0  0  0  0  0
   56.8940   25.4280   46.7060 C   0  0  0  0  0  0  0  0  0  0  0  0
   58.2230   25.7140   47.0230 C   0  0  0  0  0  0  0  0  0  0  0  0
   58.7780   26.9580   46.6920 C   0  0  0  0  0  0  0  0  0  0  0  0
   60.4640   27.2970   47.0790 S   0  0  0  0  0  0  0  0  0  0  0  0
   60.7910   26.6810   48.4110 O   0  0  0  0  0  0  0  0  0  0  0  0
   61.3810   26.6890   46.0540 O   0  0  0  0  0  0  0  0  0  0  0  0
   60.7130   29.0120   47.1900 N   0  0  0  0  0  0  0  0  0  0  0  0
   60.2160   29.8960   48.2090 C   0  0  0  0  0  0  0  0  0  0  0  0
   59.0700   29.5940   48.9720 C   0  0  0  0  0  0  0  0  0  0  0  0
   58.5980   30.4990   49.9300 C   0  0  0  0  0  0  0  0  0  0  0  0
   59.2630   31.7110   50.1370 C   0  0  0  0  0  0  0  0  0  0  0  0
   60.4000   32.0190   49.3870 C   0  0  0  0  0  0  0  0  0  0  0  0
   60.8770   31.1200   48.4240 C   0  0  0  0  0  0  0  0  0  0  0  0
   62.3200   31.5400   47.5050 Cl  0  0  0  0  0  0  0  0  0  0  0  0
   57.9830   27.9210   46.0580 C   0  0  0  0  0  0  0  0  0  0  0  0
   56.6510   27.6390   45.7360 C   0  0  0  0  0  0  0  0  0  0  0  0
   55.8740   28.6230   45.0440 N   0  0  0  0  0  0  0  0  0  0  0  0
   56.4000   29.4400   43.9910 C   0  0  0  0  0  0  0  0  0  0  0  0
   55.9010   29.3530   42.8390 O   0  0  0  0  0  0  0  0  0  0  0  0
   57.5100   30.4240   44.2440 C   0  0  0  0  0  0  0  0  0  0  0  0
   56.9970   31.5950   44.9600 N   0  0  0  0  0  0  0  0  0  0  0  0
   57.8320   32.6910   45.3720 C   0  0  0  0  0  0  0  0  0  0  0  0
   58.4720   33.5240   44.4330 C   0  0  0  0  0  0  0  0  0  0  0  0
   59.2690   34.5920   44.8620 C   0  0  0  0  0  0  0  0  0  0  0  0
   59.4360   34.8390   46.2290 C   0  0  0  0  0  0  0  0  0  0  0  0
   58.8030   34.0180   47.1680 C   0  0  0  0  0  0  0  0  0  0  0  0
   58.9590   34.2610   48.4930 F   0  0  0  0  0  0  0  0  0  0  0  0
   58.0030   32.9490   46.7430 C   0  0  0  0  0  0  0  0  0  0  0  0
   53.9990   24.4151   46.5860 H   0  0  0  0  0  0  0  0  0  0  0  0
   53.2373   24.9152   45.0379 H   0  0  0  0  0  0  0  0  0  0  0  0
   54.8832   24.1957   45.0379 H   0  0  0  0  0  0  0  0  0  0  0  0
   56.4698   24.4461   46.9629 H   0  0  0  0  0  0  0  0  0  0  0  0
   58.8379   24.9593   47.5352 H   0  0  0  0  0  0  0  0  0  0  0  0
   58.5433   28.6413   48.8137 H   0  0  0  0  0  0  0  0  0  0  0  0
   57.7025   30.2560   50.5208 H   0  0  0  0  0  0  0  0  0  0  0  0
   58.8910   32.4214   50.8899 H   0  0  0  0  0  0  0  0  0  0  0  0
   60.9237   32.9720   49.5531 H   0  0  0  0  0  0  0  0  0  0  0  0
   58.4084   28.9051   45.8117 H   0  0  0  0  0  0  0  0  0  0  0  0
   58.2915   29.9418   44.8496 H   0  0  0  0  0  0  0  0  0  0  0  0
   57.9277   30.7485   43.2795 H   0  0  0  0  0  0  0  0  0  0  0  0
   55.9910   31.6050   45.2500 H   0  0  0  0  0  0  0  0  0  0  0  0
   58.3447   33.3341   43.3570 H   0  0  0  0  0  0  0  0  0  0  0  0
   59.7649   35.2383   44.1228 H   0  0  0  0  0  0  0  0  0  0  0  0
   60.0640   35.6774   46.5647 H   0  0  0  0  0  0  0  0  0  0  0  0
   57.5061   32.3083   47.4864 H   0  0  0  0  0  0  0  0  0  0  0  0
  1  2  1  0
  2  3  1  0
  3  4  2  0
  4  5  1  0
  5  6  2  0
  6  7  1  0
  7  8  2  0
  7  9  2  0
  7 10  1  0
 10 11  1  0
 11 12  2  0
 12 13  1  0
 13 14  2  0
 14 15  1  0
 15 16  2  0
 16 17  1  0
  6 18  1  0
 18 19  2  0
 19 20  1  0
 20 21  1  0
 21 22  2  0
 21 23  1  0
 23 24  1  0
 24 25  1  0
 25 26  2  0
 26 27  1  0
 27 28  2  0
 28 29  1  0
 29 30  1  0
 29 31  2  0
 19  3  1  0
 31 25  1  0
 16 11  1  0
  1 32  1  0
  1 33  1  0
  1 34  1  0
  4 35  1  0
  5 36  1  0
 12 37  1  0
 13 38  1  0
 14 39  1  0
 15 40  1  0
 18 41  1  0
 23 42  1  0
 23 43  1  0
 24 44  1  0
 26 45  1  0
 27 46  1  0
 28 47  1  0
 31 48  1  0
M  CHG  2  10  -1  20  -1
M  END
>  <UniqueID>  (23) 
22

>  <SMILES>  (23) 
COc1ccc(S(=O)(=O)[N-]c2ccccc2Cl)cc1[N-]C(=O)CNc1cccc(F)c1

>  <Energy>  (23) 
59.2476018818103

>  <Genealogy>  (23) 
COc1ccc(S(=O)(=O)[N-]c2ccccc2Cl)cc1[N-]C(=O)CNc1cccc(F)c1 (protonated)
COc1ccc(S(=O)(=O)[N-]c2ccccc2Cl)cc1[N-]C(=O)CNc1cccc(F)c1 (3D coordinates assigned)
COc1ccc(S(=O)(=O)[N-]c2ccccc2Cl)cc1[N-]C(=O)CNc1cccc(F)c1 (optimized conformer: 59.2476018818103 kcal/mol)

>  <smiles>  (23) 
COc1ccc(S(=O)(=O)Nc2ccccc2Cl)cc1NC(=O)CNc1cccc(F)c1

>  <score_type>  (23) 
oracle

>  <origin>  (23) 
adg

>  <m_score__min__energy>  (23) 
-12.369999999999999

>  <m_primary>  (23) 
energy

$$$$
23:0
     RDKit          3D

 54 56  0  0  0  0  0  0  0  0999 V2000
   55.2928   24.0030   46.7227 H   0  0  0  0  0  0  0  0  0  0  0  0
   55.9570   24.8760   46.6410 C   0  0  0  0  0  0  0  0  0  0  0  0
   55.5260   26.0030   46.0090 N   0  0  0  0  0  0  0  0  0  0  0  0
   56.3130   27.1090   45.8920 C   0  0  0  0  0  0  0  0  0  0  0  0
   55.8920   28.1790   45.2790 N   0  0  0  0  0  0  0  0  0  0  0  0
   56.7000   29.2160   44.6940 C   0  0  0  0  0  0  0  0  0  0  0  0
   56.3280   30.4230   44.7000 O   0  0  0  0  0  0  0  0  0  0  0  0
   58.0220   28.8550   44.0900 C   0  0  0  0  0  0  0  0  0  0  0  0
   58.3573   27.8960   44.5117 H   0  0  0  0  0  0  0  0  0  0  0  0
   57.8940   28.7811   43.0000 H   0  0  0  0  0  0  0  0  0  0  0  0
   59.0860   29.9260   44.3780 C   0  0  0  0  0  0  0  0  0  0  0  0
   59.9685   29.7214   43.7541 H   0  0  0  0  0  0  0  0  0  0  0  0
   58.6413   30.9052   44.1471 H   0  0  0  0  0  0  0  0  0  0  0  0
   59.5140   29.9510   45.8260 C   0  0  0  0  0  0  0  0  0  0  0  0
   60.3730   29.1190   46.2340 O   0  0  0  0  0  0  0  0  0  0  0  0
   58.9730   30.9130   46.7560 N   0  0  0  0  0  0  0  0  0  0  0  0
   59.1260   32.3110   46.4510 C   0  0  0  0  0  0  0  0  0  0  0  0
   60.3630   32.9420   46.6710 C   0  0  0  0  0  0  0  0  0  0  0  0
   61.2049   32.3664   47.0832 H   0  0  0  0  0  0  0  0  0  0  0  0
   60.5290   34.2960   46.3690 C   0  0  0  0  0  0  0  0  0  0  0  0
   61.5000   34.7828   46.5425 H   0  0  0  0  0  0  0  0  0  0  0  0
   59.4610   35.0330   45.8460 C   0  0  0  0  0  0  0  0  0  0  0  0
   59.5915   36.1003   45.6140 H   0  0  0  0  0  0  0  0  0  0  0  0
   58.2290   34.4150   45.6180 C   0  0  0  0  0  0  0  0  0  0  0  0
   57.3918   34.9958   45.2036 H   0  0  0  0  0  0  0  0  0  0  0  0
   58.0580   33.0580   45.9160 C   0  0  0  0  0  0  0  0  0  0  0  0
   56.8630   32.4690   45.6580 F   0  0  0  0  0  0  0  0  0  0  0  0
   58.5240   30.5200   48.1040 C   0  0  0  0  0  0  0  0  0  0  0  0
   57.6483   31.1253   48.3808 H   0  0  0  0  0  0  0  0  0  0  0  0
   58.2675   29.4505   48.0869 H   0  0  0  0  0  0  0  0  0  0  0  0
   59.6070   30.7320   49.1220 C   0  0  0  0  0  0  0  0  0  0  0  0
   59.3940   31.4880   50.1090 O   0  0  0  0  0  0  0  0  0  0  0  0
   60.8820   30.0990   48.9650 N   0  0  0  0  0  0  0  0  0  0  0  0
   60.9830   29.3010   48.2990 H   0  0  0  0  0  0  0  0  0  0  0  0
   62.0830   30.6090   49.6180 C   0  0  0  0  0  0  0  0  0  0  0  0
   61.8364   30.9179   50.6445 H   0  0  0  0  0  0  0  0  0  0  0  0
   62.8462   29.8172   49.6402 H   0  0  0  0  0  0  0  0  0  0  0  0
   62.6190   31.7910   48.8570 C   0  0  0  0  0  0  0  0  0  0  0  0
   62.5640   33.0730   49.4250 C   0  0  0  0  0  0  0  0  0  0  0  0
   62.0922   33.2165   50.4082 H   0  0  0  0  0  0  0  0  0  0  0  0
   63.1060   34.1680   48.7470 C   0  0  0  0  0  0  0  0  0  0  0  0
   63.0631   35.1703   49.1982 H   0  0  0  0  0  0  0  0  0  0  0  0
   63.7030   33.9900   47.4950 C   0  0  0  0  0  0  0  0  0  0  0  0
   64.1373   34.8508   46.9655 H   0  0  0  0  0  0  0  0  0  0  0  0
   63.7480   32.7180   46.9160 C   0  0  0  0  0  0  0  0  0  0  0  0
   64.2082   32.5811   45.9263 H   0  0  0  0  0  0  0  0  0  0  0  0
   63.2090   31.6200   47.5930 C   0  0  0  0  0  0  0  0  0  0  0  0
   63.2468   30.6204   47.1355 H   0  0  0  0  0  0  0  0  0  0  0  0
   57.6050   27.0980   46.4400 C   0  0  0  0  0  0  0  0  0  0  0  0
   58.2454   27.9892   46.3653 H   0  0  0  0  0  0  0  0  0  0  0  0
   58.0720   25.9500   47.0800 C   0  0  0  0  0  0  0  0  0  0  0  0
   59.0885   25.9270   47.4999 H   0  0  0  0  0  0  0  0  0  0  0  0
   57.2440   24.8290   47.1860 C   0  0  0  0  0  0  0  0  0  0  0  0
   57.6007   23.9200   47.6924 H   0  0  0  0  0  0  0  0  0  0  0  0
  1  2  1  0
  2  3  1  0
  3  4  1  0
  4  5  2  0
  5  6  1  0
  6  7  2  0
  6  8  1  0
  8  9  1  0
  8 10  1  0
  8 11  1  0
 11 12  1  0
 11 13  1  0
 11 14  1  0
 14 15  2  0
 14 16  1  0
 16 17  1  0
 17 18  2  0
 18 19  1  0
 18 20  1  0
 20 21  1  0
 20 22  2  0
 22 23  1  0
 22 24  1  0
 24 25  1  0
 24 26  2  0
 26 27  1  0
 16 28  1  0
 28 29  1  0
 28 30  1  0
 28 31  1  0
 31 32  2  0
 31 33  1  0
 33 34  1  0
 33 35  1  0
 35 36  1  0
 35 37  1  0
 35 38  1  0
 38 39  2  0
 39 40  1  0
 39 41  1  0
 41 42  1  0
 41 43  2  0
 43 44  1  0
 43 45  1  0
 45 46  1  0
 45 47  2  0
 47 48  1  0
  4 49  1  0
 49 50  1  0
 49 51  2  0
 51 52  1  0
 51 53  1  0
 53 54  1  0
 53  2  2  0
 26 17  1  0
 47 38  1  0
M  CHG  1   3  -1
M  END
>  <UniqueID>  (24) 
23

>  <SMILES>  (24) 
O=C(CCC(=O)N(CC(=O)NCc1ccccc1)c1ccccc1F)/N=c1/cccc[n-]1

>  <Energy>  (24) 
57.211492875405725

>  <Genealogy>  (24) 
O=C(CCC(=O)N(CC(=O)NCc1ccccc1)c1ccccc1F)N=c1cccc[n-]1 (protonated)
O=C(CCC(=O)N(CC(=O)NCc1ccccc1)c1ccccc1F)/N=c1/cccc[n-]1 (cis-trans isomerization)
O=C(CCC(=O)N(CC(=O)NCc1ccccc1)c1ccccc1F)/N=c1/cccc[n-]1 (3D coordinates assigned)
O=C(CCC(=O)N(CC(=O)NCc1ccccc1)c1ccccc1F)/N=c1/cccc[n-]1 (optimized conformer: 57.211492875405725 kcal/mol)

>  <smiles>  (24) 
O=C(CCC(=O)N(CC(=O)NCc1ccccc1)c1ccccc1F)N=c1cccc[nH]1

>  <score_type>  (24) 
oracle

>  <origin>  (24) 
adg

>  <m_score__min__energy>  (24) 
-10.960000000000001

>  <m_primary>  (24) 
energy

$$$$
24:0
     RDKit          3D

 31 33  0  0  1  0  0  0  0  0999 V2000
   58.7240   26.1600   46.1740 C   0  0  0  0  0  0  0  0  0  0  0  0
   57.3670   25.9490   46.4300 C   0  0  0  0  0  0  0  0  0  0  0  0
   56.4520   26.8910   46.0080 C   0  0  0  0  0  0  0  0  0  0  0  0
   56.8910   28.0310   45.3390 C   0  0  0  0  0  0  0  0  0  0  0  0
   55.9890   29.0340   44.8840 N   0  0  0  0  0  0  0  0  0  0  0  0
   56.5020   30.0380   44.2320 C   0  0  0  0  0  0  0  0  0  0  0  0
   57.0840   30.9900   44.9870 N   0  0  0  0  0  0  0  0  0  0  0  0
   57.6600   32.0970   44.4290 C   0  0  0  0  0  0  0  0  0  0  0  0
   58.2790   33.1030   45.2840 C   0  0  0  0  0  0  0  0  0  0  0  0
   58.9760   34.1860   44.8030 C   0  0  0  0  0  0  0  0  0  0  0  0
   59.5370   35.1020   45.6760 C   0  0  0  0  0  0  0  0  0  0  0  0
   59.4100   34.9500   47.0470 C   0  0  0  0  0  0  0  0  0  0  0  0
   58.7030   33.8500   47.5060 C   0  0  0  0  0  0  0  0  0  0  0  0
   58.1770   32.9890   46.6210 N   0  0  0  0  0  0  0  0  0  0  0  0
   57.6160   32.1900   43.0740 C   0  0  0  0  0  0  0  0  0  0  0  0
   57.0140   31.2040   42.2990 C   0  0  0  0  0  0  0  0  0  0  0  0
   56.4510   30.1160   42.8820 N   0  0  0  0  0  0  0  0  0  0  0  0
   58.2520   28.2350   45.0880 C   0  0  0  0  0  0  0  0  0  0  0  0
   59.1560   27.2950   45.5080 C   0  0  0  0  0  0  0  0  0  0  0  0
   59.4605   25.4136   46.5063 H   0  0  0  0  0  0  0  0  0  0  0  0
   57.0331   25.0450   46.9603 H   0  0  0  0  0  0  0  0  0  0  0  0
   55.3790   26.7423   46.1992 H   0  0  0  0  0  0  0  0  0  0  0  0
   59.0886   34.3254   43.7177 H   0  0  0  0  0  0  0  0  0  0  0  0
   60.0918   35.9632   45.2752 H   0  0  0  0  0  0  0  0  0  0  0  0
   59.8536   35.6751   47.7451 H   0  0  0  0  0  0  0  0  0  0  0  0
   58.5741   33.6841   48.5858 H   0  0  0  0  0  0  0  0  0  0  0  0
   58.0660   33.0635   42.5795 H   0  0  0  0  0  0  0  0  0  0  0  0
   56.9943   31.3074   41.2040 H   0  0  0  0  0  0  0  0  0  0  0  0
   55.9920   29.3630   42.3250 H   0  0  0  0  0  0  0  0  0  0  0  0
   58.5920   29.1383   44.5603 H   0  0  0  0  0  0  0  0  0  0  0  0
   60.2290   27.4423   45.3155 H   0  0  0  0  0  0  0  0  0  0  0  0
  1  2  2  0
  2  3  1  0
  3  4  2  0
  4  5  1  0
  5  6  2  0
  6  7  1  0
  7  8  2  0
  8  9  1  0
  9 10  2  0
 10 11  1  0
 11 12  2  0
 12 13  1  0
 13 14  2  0
  8 15  1  0
 15 16  2  0
 16 17  1  0
  4 18  1  0
 18 19  2  0
 19  1  1  0
 17  6  1  0
 14  9  1  0
  1 20  1  0
  2 21  1  0
  3 22  1  0
 10 23  1  0
 11 24  1  0
 12 25  1  0
 13 26  1  0
 15 27  1  0
 16 28  1  0
 17 29  1  0
 18 30  1  0
 19 31  1  0
M  END
>  <smiles>  (25) 
c1ccc(N=c2nc(-c3ccccn3)cc[nH]2)cc1

>  <score_type>  (25) 
oracle

>  <origin>  (25) 
adg

>  <m_score__min__energy>  (25) 
-7.6299999999999999

>  <m_primary>  (25) 
energy

$$$$
25:0
     RDKit          3D

 42 45  0  0  0  0  0  0  0  0999 V2000
   57.0170   33.9620   45.6290 C   0  0  0  0  0  0  0  0  0  0  0  0
   58.2150   33.2790   46.2230 C   0  0  0  0  0  0  0  0  0  0  0  0
   59.0570   34.0170   46.8900 N   0  0  0  0  0  0  0  0  0  0  0  0
   60.1640   33.4290   47.5650 C   0  0  0  0  0  0  0  0  0  0  0  0
   61.0730   34.0890   48.2950 N   0  0  0  0  0  0  0  0  0  0  0  0
   61.9550   33.1100   48.6200 C   0  0  0  0  0  0  0  0  0  0  0  0
   63.1880   33.3060   49.4210 C   0  0  0  0  0  0  0  0  0  0  0  0
   63.1850   34.0920   50.5900 C   0  0  0  0  0  0  0  0  0  0  0  0
   64.3580   34.2620   51.3330 C   0  0  0  0  0  0  0  0  0  0  0  0
   65.5440   33.6530   50.9190 C   0  0  0  0  0  0  0  0  0  0  0  0
   65.5600   32.8710   49.7640 C   0  0  0  0  0  0  0  0  0  0  0  0
   64.3910   32.6960   49.0180 C   0  0  0  0  0  0  0  0  0  0  0  0
   61.5940   31.9140   48.0920 N   0  0  0  0  0  0  0  0  0  0  0  0
   60.4510   32.1340   47.4640 N   0  0  0  0  0  0  0  0  0  0  0  0
   59.7610   31.2220   46.5580 C   0  0  1  0  0  0  0  0  0  0  0  0
   59.7210   29.8030   47.1280 C   0  0  0  0  0  0  0  0  0  0  0  0
   60.0240   28.6860   46.3040 C   0  0  0  0  0  0  0  0  0  0  0  0
   60.4580   28.8430   44.6030 Cl  0  0  0  0  0  0  0  0  0  0  0  0
   59.9760   27.3900   46.8280 C   0  0  0  0  0  0  0  0  0  0  0  0
   59.6210   27.1760   48.1570 C   0  0  0  0  0  0  0  0  0  0  0  0
   59.3030   28.2550   48.9760 C   0  0  0  0  0  0  0  0  0  0  0  0
   59.3410   29.5620   48.4780 C   0  0  0  0  0  0  0  0  0  0  0  0
   58.8900   30.8520   49.5930 Cl  0  0  0  0  0  0  0  0  0  0  0  0
   58.3220   31.7450   46.2270 C   0  0  2  0  0  0  0  0  0  0  0  0
   57.8690   31.1570   44.9150 C   0  0  0  0  0  0  0  0  0  0  0  0
   56.7230   30.3100   44.8750 N   0  0  0  0  0  0  0  0  0  0  0  0
   58.5170   31.3820   43.8580 O   0  0  0  0  0  0  0  0  0  0  0  0
   56.3680   34.3320   46.4364 H   0  0  0  0  0  0  0  0  0  0  0  0
   57.3475   34.8074   45.0077 H   0  0  0  0  0  0  0  0  0  0  0  0
   56.4578   33.2469   45.0077 H   0  0  0  0  0  0  0  0  0  0  0  0
   61.0940   35.1090   48.5120 H   0  0  0  0  0  0  0  0  0  0  0  0
   62.2539   34.5754   50.9208 H   0  0  0  0  0  0  0  0  0  0  0  0
   64.3458   34.8767   52.2452 H   0  0  0  0  0  0  0  0  0  0  0  0
   66.4658   33.7898   51.5035 H   0  0  0  0  0  0  0  0  0  0  0  0
   66.4949   32.3908   49.4395 H   0  0  0  0  0  0  0  0  0  0  0  0
   64.4112   32.0769   48.1090 H   0  0  0  0  0  0  0  0  0  0  0  0
   60.3288   31.1843   45.6166 H   0  0  0  0  0  0  0  0  0  0  0  0
   60.2209   26.5323   46.1843 H   0  0  0  0  0  0  0  0  0  0  0  0
   59.5919   26.1529   48.5600 H   0  0  0  0  0  0  0  0  0  0  0  0
   59.0193   28.0789   50.0241 H   0  0  0  0  0  0  0  0  0  0  0  0
   57.6530   31.4113   47.0339 H   0  0  0  0  0  0  0  0  0  0  0  0
   56.4720   29.7100   45.6920 H   0  0  0  0  0  0  0  0  0  0  0  0
  1  2  1  0
  2  3  2  0
  3  4  1  0
  4  5  2  0
  5  6  1  0
  6  7  1  0
  7  8  2  0
  8  9  1  0
  9 10  2  0
 10 11  1  0
 11 12  2  0
  6 13  2  0
 13 14  1  0
 14 15  1  0
 15 16  1  0
 16 17  2  0
 17 18  1  0
 17 19  1  0
 19 20  2  0
 20 21  1  0
 21 22  2  0
 22 23  1  0
 15 24  1  0
 24 25  1  0
 25 26  1  0
 25 27  2  0
 24  2  1  0
 14  4  1  0
 22 16  1  0
 12  7  1  0
  1 28  1  0
  1 29  1  0
  1 30  1  0
  5 31  1  0
  8 32  1  0
  9 33  1  0
 10 34  1  0
 11 35  1  0
 12 36  1  0
 15 37  1  6
 19 38  1  0
 20 39  1  0
 21 40  1  0
 24 41  1  1
 26 42  1  0
M  CHG  2   5   1  26  -1
M  END
>  <UniqueID>  (26) 
24

>  <SMILES>  (26) 
CC1=Nc2[nH+]c(-c3ccccc3)nn2[C@@H](c2c(Cl)cccc2Cl)[C@@H]1C([NH-])=O

>  <Energy>  (26) 
90.53187723728577

>  <Genealogy>  (26) 
CC1=Nc2[nH+]c(-c3ccccc3)nn2C(c2c(Cl)cccc2Cl)C1C([NH-])=O (protonated)
CC1=Nc2[nH+]c(-c3ccccc3)nn2[C@@H](c2c(Cl)cccc2Cl)[C@@H]1C([NH-])=O (chirality)
CC1=Nc2[nH+]c(-c3ccccc3)nn2[C@@H](c2c(Cl)cccc2Cl)[C@@H]1C([NH-])=O (3D coordinates assigned)
CC1=Nc2[nH+]c(-c3ccccc3)nn2[C@@H](c2c(Cl)cccc2Cl)[C@@H]1C([NH-])=O (nonaromatic ring conformer: 90.53187723728577 kcal/mol)

>  <smiles>  (26) 
CC1=Nc2nc(-c3ccccc3)nn2C(c2c(Cl)cccc2Cl)C1C(N)=O

>  <score_type>  (26) 
oracle

>  <origin>  (26) 
adg

>  <m_score__min__energy>  (26) 
-8

>  <m_primary>  (26) 
energy

$$$$
26:0
     RDKit          3D

 35 37  0  0  0  0  0  0  0  0999 V2000
   57.3110   24.1090   44.1830 C   0  0  0  0  0  0  0  0  0  0  0  0
   57.0410   23.7000   45.4260 C   0  0  0  0  0  0  0  0  0  0  0  0
   57.3510   24.5530   46.6250 C   0  0  0  0  0  0  0  0  0  0  0  0
   57.5560   25.9640   46.2290 N   0  0  0  0  0  0  0  0  0  0  0  0
   58.8390   26.4890   46.0810 C   0  0  0  0  0  0  0  0  0  0  0  0
   60.1870   25.5880   46.3470 S   0  0  0  0  0  0  0  0  0  0  0  0
   59.0190   27.7880   45.6950 N   0  0  0  0  0  0  0  0  0  0  0  0
   57.9320   28.5530   45.4630 C   0  0  0  0  0  0  0  0  0  0  0  0
   56.6750   28.0760   45.5840 C   0  0  0  0  0  0  0  0  0  0  0  0
   55.7890   29.0330   45.2480 N   0  0  0  0  0  0  0  0  0  0  0  0
   56.5770   30.0880   44.9180 C   0  0  0  0  0  0  0  0  0  0  0  0
   56.1170   31.1900   44.5160 O   0  0  0  0  0  0  0  0  0  0  0  0
   57.9050   29.8320   45.0510 N   0  0  0  0  0  0  0  0  0  0  0  0
   59.0340   30.6880   44.6940 C   0  0  0  0  0  0  0  0  0  0  0  0
   58.8920   32.0290   45.3600 C   0  0  0  0  0  0  0  0  0  0  0  0
   58.4550   33.1440   44.6240 C   0  0  0  0  0  0  0  0  0  0  0  0
   58.2820   34.3790   45.2540 C   0  0  0  0  0  0  0  0  0  0  0  0
   58.5340   34.5100   46.6220 C   0  0  0  0  0  0  0  0  0  0  0  0
   58.9570   33.4020   47.3640 C   0  0  0  0  0  0  0  0  0  0  0  0
   59.1310   32.1650   46.7380 C   0  0  0  0  0  0  0  0  0  0  0  0
   56.4580   26.7630   45.9680 C   0  0  0  0  0  0  0  0  0  0  0  0
   55.2800   26.3230   46.0670 O   0  0  0  0  0  0  0  0  0  0  0  0
   57.0720   23.4612   43.3267 H   0  0  0  0  0  0  0  0  0  0  0  0
   57.7723   25.0935   44.0159 H   0  0  0  0  0  0  0  0  0  0  0  0
   56.5796   22.7128   45.5763 H   0  0  0  0  0  0  0  0  0  0  0  0
   56.5122   24.4960   47.3344 H   0  0  0  0  0  0  0  0  0  0  0  0
   58.2746   24.1809   47.0924 H   0  0  0  0  0  0  0  0  0  0  0  0
   54.7480   28.9710   45.2210 H   0  0  0  0  0  0  0  0  0  0  0  0
   59.9698   30.2139   45.0250 H   0  0  0  0  0  0  0  0  0  0  0  0
   59.0521   30.8263   43.6029 H   0  0  0  0  0  0  0  0  0  0  0  0
   58.2485   33.0439   43.5482 H   0  0  0  0  0  0  0  0  0  0  0  0
   57.9467   35.2500   44.6718 H   0  0  0  0  0  0  0  0  0  0  0  0
   58.3999   35.4839   47.1154 H   0  0  0  0  0  0  0  0  0  0  0  0
   59.1529   33.5048   48.4415 H   0  0  0  0  0  0  0  0  0  0  0  0
   59.4563   31.2943   47.3262 H   0  0  0  0  0  0  0  0  0  0  0  0
  1  2  2  0
  2  3  1  0
  3  4  1  0
  4  5  1  0
  5  6  2  0
  5  7  1  0
  7  8  1  0
  8  9  2  0
  9 10  1  0
 10 11  1  0
 11 12  2  0
 11 13  1  0
 13 14  1  0
 14 15  1  0
 15 16  2  0
 16 17  1  0
 17 18  2  0
 18 19  1  0
 19 20  2  0
  9 21  1  0
 21 22  2  0
 21  4  1  0
 13  8  1  0
 20 15  1  0
  1 23  1  0
  1 24  1  0
  2 25  1  0
  3 26  1  0
  3 27  1  0
 10 28  1  0
 14 29  1  0
 14 30  1  0
 16 31  1  0
 17 32  1  0
 18 33  1  0
 19 34  1  0
 20 35  1  0
M  CHG  1   7  -1
M  END
>  <UniqueID>  (27) 
25

>  <SMILES>  (27) 
C=CCn1c(=S)[n-]c2c([nH]c(=O)n2Cc2ccccc2)c1=O

>  <Energy>  (27) 
81.61920154656006

>  <Genealogy>  (27) 
C=CCn1c(=S)[n-]c2c([nH]c(=O)n2Cc2ccccc2)c1=O (protonated)
C=CCn1c(=S)[n-]c2c([nH]c(=O)n2Cc2ccccc2)c1=O (3D coordinates assigned)
C=CCn1c(=S)[n-]c2c([nH]c(=O)n2Cc2ccccc2)c1=O (optimized conformer: 81.61920154656006 kcal/mol)

>  <smiles>  (27) 
C=CCn1c(=S)[nH]c2c([nH]c(=O)n2Cc2ccccc2)c1=O

>  <score_type>  (27) 
oracle

>  <origin>  (27) 
adg

>  <m_score__min__energy>  (27) 
-8.8599999999999994

>  <m_primary>  (27) 
energy

$$$$
27:0
     RDKit          3D

 41 43  0  0  0  0  0  0  0  0999 V2000
   65.0630   33.0900   49.5180 C   0  0  0  0  0  0  0  0  0  0  0  0
   63.7080   33.3190   48.9500 C   0  0  0  0  0  0  0  0  0  0  0  0
   63.5810   33.2590   47.5840 C   0  0  0  0  0  0  0  0  0  0  0  0
   62.3510   33.4630   47.0210 C   0  0  0  0  0  0  0  0  0  0  0  0
   61.2040   33.7330   47.7570 C   0  0  0  0  0  0  0  0  0  0  0  0
   59.9540   33.9170   47.1060 N   0  0  0  0  0  0  0  0  0  0  0  0
   59.6180   33.3180   45.8340 C   0  0  0  0  0  0  0  0  0  0  0  0
   59.2370   31.8840   45.9410 C   0  0  0  0  0  0  0  0  0  0  0  0
   60.0580   30.9320   46.5100 C   0  0  0  0  0  0  0  0  0  0  0  0
   59.7100   29.6020   46.6280 C   0  0  0  0  0  0  0  0  0  0  0  0
   58.4620   29.2320   46.1360 C   0  0  0  0  0  0  0  0  0  0  0  0
   58.1190   27.9280   46.2540 N   0  0  0  0  0  0  0  0  0  0  0  0
   56.9110   27.5040   45.7950 C   0  0  0  0  0  0  0  0  0  0  0  0
   56.5350   26.2680   45.8870 N   0  0  0  0  0  0  0  0  0  0  0  0
   56.0710   28.3880   45.2300 N   0  0  0  0  0  0  0  0  0  0  0  0
   56.3900   29.7090   45.0980 C   0  0  0  0  0  0  0  0  0  0  0  0
   55.5500   30.5160   44.5450 N   0  0  0  0  0  0  0  0  0  0  0  0
   57.6280   30.1710   45.5620 C   0  0  0  0  0  0  0  0  0  0  0  0
   57.9850   31.5110   45.4480 C   0  0  0  0  0  0  0  0  0  0  0  0
   57.0520   32.4760   44.8280 C   0  0  0  0  0  0  0  0  0  0  0  0
   61.3550   33.7890   49.1330 C   0  0  0  0  0  0  0  0  0  0  0  0
   62.5950   33.5840   49.7100 C   0  0  0  0  0  0  0  0  0  0  0  0
   65.0065   33.0995   50.6165 H   0  0  0  0  0  0  0  0  0  0  0  0
   65.4428   32.1149   49.1788 H   0  0  0  0  0  0  0  0  0  0  0  0
   65.7421   33.8861   49.1788 H   0  0  0  0  0  0  0  0  0  0  0  0
   64.4561   33.0498   46.9513 H   0  0  0  0  0  0  0  0  0  0  0  0
   62.2654   33.4104   45.9256 H   0  0  0  0  0  0  0  0  0  0  0  0
   59.2370   34.5160   47.5700 H   0  0  0  0  0  0  0  0  0  0  0  0
   58.7730   33.8722   45.3995 H   0  0  0  0  0  0  0  0  0  0  0  0
   60.5168   33.3699   45.2020 H   0  0  0  0  0  0  0  0  0  0  0  0
   61.0405   31.2497   46.8890 H   0  0  0  0  0  0  0  0  0  0  0  0
   60.3875   28.8684   47.0894 H   0  0  0  0  0  0  0  0  0  0  0  0
   58.7350   27.2130   46.6820 H   0  0  0  0  0  0  0  0  0  0  0  0
   56.1260   25.7540   45.0680 H   0  0  0  0  0  0  0  0  0  0  0  0
   55.1410   28.0490   44.8800 H   0  0  0  0  0  0  0  0  0  0  0  0
   54.5670   30.4740   44.9030 H   0  0  0  0  0  0  0  0  0  0  0  0
   56.5183   33.0280   45.6158 H   0  0  0  0  0  0  0  0  0  0  0  0
   57.6175   33.1833   44.2035 H   0  0  0  0  0  0  0  0  0  0  0  0
   56.3261   31.9347   44.2035 H   0  0  0  0  0  0  0  0  0  0  0  0
   60.4832   33.9978   49.7705 H   0  0  0  0  0  0  0  0  0  0  0  0
   62.6923   33.6344   50.8045 H   0  0  0  0  0  0  0  0  0  0  0  0
  1  2  1  0
  2  3  2  0
  3  4  1  0
  4  5  2  0
  5  6  1  0
  6  7  1  0
  7  8  1  0
  8  9  2  0
  9 10  1  0
 10 11  2  0
 11 12  1  0
 12 13  1  0
 13 14  2  3
 13 15  1  0
 15 16  1  0
 16 17  2  3
 16 18  1  0
 18 19  2  0
 19 20  1  0
  5 21  1  0
 21 22  2  0
 22  2  1  0
 19  8  1  0
 18 11  1  0
  1 23  1  0
  1 24  1  0
  1 25  1  0
  3 26  1  0
  4 27  1  0
  6 28  1  0
  7 29  1  0
  7 30  1  0
  9 31  1  0
 10 32  1  0
 12 33  1  0
 14 34  1  0
 15 35  1  0
 17 36  1  0
 20 37  1  0
 20 38  1  0
 20 39  1  0
 21 40  1  0
 22 41  1  0
M  END
>  <smiles>  (28) 
Cc1ccc(NCc2ccc3[nH]c(=N)[nH]c(=N)c3c2C)cc1

>  <score_type>  (28) 
oracle

>  <origin>  (28) 
adg

>  <m_score__min__energy>  (28) 
-7.5700000000000003

>  <m_primary>  (28) 
energy

$$$$
28:0
     RDKit          3D

 47 49  0  0  0  0  0  0  0  0999 V2000
   55.1310   26.3220   46.8320 H   0  0  0  0  0  0  0  0  0  0  0  0
   55.4540   26.7340   45.9640 O   0  0  0  0  0  0  0  0  0  0  0  0
   56.6380   27.4660   45.9020 C   0  0  0  0  0  0  0  0  0  0  0  0
   57.6690   27.1870   46.8030 C   0  0  0  0  0  0  0  0  0  0  0  0
   57.5412   26.3929   47.5534 H   0  0  0  0  0  0  0  0  0  0  0  0
   58.8630   27.9140   46.7540 C   0  0  0  0  0  0  0  0  0  0  0  0
   59.6691   27.6908   47.4684 H   0  0  0  0  0  0  0  0  0  0  0  0
   59.0380   28.9270   45.7980 C   0  0  0  0  0  0  0  0  0  0  0  0
   60.3090   29.6780   45.7590 C   0  0  0  0  0  0  0  0  0  0  0  0
   61.0850   29.3996   45.0308 H   0  0  0  0  0  0  0  0  0  0  0  0
   60.5180   30.6650   46.5780 N   0  0  0  0  0  0  0  0  0  0  0  0
   60.0710   32.0270   46.4330 C   0  0  0  0  0  0  0  0  0  0  0  0
   58.8720   32.3590   45.7660 C   0  0  0  0  0  0  0  0  0  0  0  0
   58.2526   31.5628   45.3275 H   0  0  0  0  0  0  0  0  0  0  0  0
   58.4670   33.6900   45.6590 C   0  0  0  0  0  0  0  0  0  0  0  0
   57.5344   33.9386   45.1313 H   0  0  0  0  0  0  0  0  0  0  0  0
   59.2410   34.7060   46.2190 C   0  0  0  0  0  0  0  0  0  0  0  0
   58.9192   35.7542   46.1307 H   0  0  0  0  0  0  0  0  0  0  0  0
   60.4230   34.3940   46.8910 C   0  0  0  0  0  0  0  0  0  0  0  0
   61.0290   35.1984   47.3335 H   0  0  0  0  0  0  0  0  0  0  0  0
   60.8440   33.0590   47.0060 C   0  0  0  0  0  0  0  0  0  0  0  0
   62.3440   32.6830   47.8620 S   0  0  0  0  0  0  0  0  0  0  0  0
   62.8400   33.9270   48.5450 O   0  0  0  0  0  0  0  0  0  0  0  0
   63.3630   32.1980   46.8710 O   0  0  0  0  0  0  0  0  0  0  0  0
   62.0680   31.4510   49.0500 N   0  0  0  0  0  0  0  0  0  0  0  0
   60.8000   31.1400   49.6400 C   0  0  0  0  0  0  0  0  0  0  0  0
   60.3330   29.8220   49.5720 C   0  0  0  0  0  0  0  0  0  0  0  0
   60.9418   29.0528   49.0743 H   0  0  0  0  0  0  0  0  0  0  0  0
   59.1000   29.4750   50.1310 C   0  0  0  0  0  0  0  0  0  0  0  0
   58.7441   28.4359   50.0715 H   0  0  0  0  0  0  0  0  0  0  0  0
   58.3120   30.4510   50.7700 C   0  0  0  0  0  0  0  0  0  0  0  0
   57.0680   30.1540   51.3470 O   0  0  0  0  0  0  0  0  0  0  0  0
   56.2230   31.1160   51.9760 C   0  0  0  0  0  0  0  0  0  0  0  0
   56.2827   32.0692   51.4302 H   0  0  0  0  0  0  0  0  0  0  0  0
   56.5499   31.2678   53.0153 H   0  0  0  0  0  0  0  0  0  0  0  0
   54.7880   30.6140   51.9640 C   0  0  0  0  0  0  0  0  0  0  0  0
   54.4342   30.4902   52.9982 H   0  0  0  0  0  0  0  0  0  0  0  0
   54.1492   31.3420   51.4426 H   0  0  0  0  0  0  0  0  0  0  0  0
   54.7423   29.6465   51.4426 H   0  0  0  0  0  0  0  0  0  0  0  0
   58.7790   31.7680   50.8380 C   0  0  0  0  0  0  0  0  0  0  0  0
   58.1709   32.5374   51.3362 H   0  0  0  0  0  0  0  0  0  0  0  0
   60.0120   32.1140   50.2780 C   0  0  0  0  0  0  0  0  0  0  0  0
   60.3675   33.1533   50.3367 H   0  0  0  0  0  0  0  0  0  0  0  0
   57.9950   29.2050   44.8940 C   0  0  0  0  0  0  0  0  0  0  0  0
   58.1190   29.9986   44.1424 H   0  0  0  0  0  0  0  0  0  0  0  0
   56.8020   28.4770   44.9470 C   0  0  0  0  0  0  0  0  0  0  0  0
   55.9913   28.6989   44.2374 H   0  0  0  0  0  0  0  0  0  0  0  0
  1  2  1  0
  2  3  1  0
  3  4  2  0
  4  5  1  0
  4  6  1  0
  6  7  1  0
  6  8  2  0
  8  9  1  0
  9 10  1  0
  9 11  2  0
 11 12  1  0
 12 13  2  0
 13 14  1  0
 13 15  1  0
 15 16  1  0
 15 17  2  0
 17 18  1  0
 17 19  1  0
 19 20  1  0
 19 21  2  0
 21 22  1  0
 22 23  2  0
 22 24  2  0
 22 25  1  0
 25 26  1  0
 26 27  2  0
 27 28  1  0
 27 29  1  0
 29 30  1  0
 29 31  2  0
 31 32  1  0
 32 33  1  0
 33 34  1  0
 33 35  1  0
 33 36  1  0
 36 37  1  0
 36 38  1  0
 36 39  1  0
 31 40  1  0
 40 41  1  0
 40 42  2  0
 42 43  1  0
  8 44  1  0
 44 45  1  0
 44 46  2  0
 46 47  1  0
 46  3  1  0
 21 12  1  0
 42 26  1  0
M  CHG  1  25  -1
M  END
>  <UniqueID>  (29) 
26

>  <SMILES>  (29) 
CCOc1ccc([N-]S(=O)(=O)c2ccccc2/N=C/c2ccc(O)cc2)cc1

>  <Energy>  (29) 
53.14528644008415

>  <Genealogy>  (29) 
CCOc1ccc([N-]S(=O)(=O)c2ccccc2N=Cc2ccc(O)cc2)cc1 (protonated)
CCOc1ccc([N-]S(=O)(=O)c2ccccc2/N=C/c2ccc(O)cc2)cc1 (cis-trans isomerization)
CCOc1ccc([N-]S(=O)(=O)c2ccccc2/N=C/c2ccc(O)cc2)cc1 (3D coordinates assigned)
CCOc1ccc([N-]S(=O)(=O)c2ccccc2/N=C/c2ccc(O)cc2)cc1 (optimized conformer: 53.14528644008415 kcal/mol)

>  <smiles>  (29) 
CCOc1ccc(NS(=O)(=O)c2ccccc2N=Cc2ccc(O)cc2)cc1

>  <score_type>  (29) 
oracle

>  <origin>  (29) 
adg

>  <m_score__min__energy>  (29) 
-10.92

>  <m_primary>  (29) 
energy

$$$$
29:0
     RDKit          3D

 44 46  0  0  0  0  0  0  0  0999 V2000
   57.1430   31.3660   52.0330 C   0  0  0  0  0  0  0  0  0  0  0  0
   57.3910   30.3780   51.0580 O   0  0  0  0  0  0  0  0  0  0  0  0
   58.5130   30.7520   50.2870 C   0  0  0  0  0  0  0  0  0  0  0  0
   58.3690   32.2030   49.8240 C   0  0  0  0  0  0  0  0  0  0  0  0
   59.4440   32.5910   48.8860 N   0  0  0  0  0  0  0  0  0  0  0  0
   59.1580   33.2370   47.6980 C   0  0  0  0  0  0  0  0  0  0  0  0
   57.4700   33.5610   47.1450 S   0  0  0  0  0  0  0  0  0  0  0  0
   57.7070   32.9910   45.4160 C   0  0  0  0  0  0  0  0  0  0  0  0
   57.9860   31.5190   45.3460 C   0  0  0  0  0  0  0  0  0  0  0  0
   57.0610   30.7380   44.9950 O   0  0  0  0  0  0  0  0  0  0  0  0
   59.2720   31.0060   45.7310 N   0  0  0  0  0  0  0  0  0  0  0  0
   59.4990   29.6220   46.0400 C   0  0  0  0  0  0  0  0  0  0  0  0
   59.3530   28.6580   45.0320 C   0  0  0  0  0  0  0  0  0  0  0  0
   59.5870   27.3080   45.3060 C   0  0  0  0  0  0  0  0  0  0  0  0
   59.9510   26.9080   46.5940 C   0  0  0  0  0  0  0  0  0  0  0  0
   60.1770   25.5980   46.8590 F   0  0  0  0  0  0  0  0  0  0  0  0
   60.0760   27.8580   47.6110 C   0  0  0  0  0  0  0  0  0  0  0  0
   59.8460   29.2110   47.3400 C   0  0  0  0  0  0  0  0  0  0  0  0
   60.1690   33.6800   46.9000 N   0  0  0  0  0  0  0  0  0  0  0  0
   61.4600   33.4460   47.2250 C   0  0  0  0  0  0  0  0  0  0  0  0
   61.7780   32.7830   48.3750 C   0  0  0  0  0  0  0  0  0  0  0  0
   60.7590   32.3430   49.2160 C   0  0  0  0  0  0  0  0  0  0  0  0
   61.0570   31.7290   50.2780 O   0  0  0  0  0  0  0  0  0  0  0  0
   63.5230   32.5530   48.6360 S   0  0  0  0  0  0  0  0  0  0  0  0
   63.8130   33.0470   46.8930 C   0  0  0  0  0  0  0  0  0  0  0  0
   62.6080   33.8470   46.3800 C   0  0  0  0  0  0  0  0  0  0  0  0
   57.2531   30.9274   53.0357 H   0  0  0  0  0  0  0  0  0  0  0  0
   57.8623   32.1893   51.9119 H   0  0  0  0  0  0  0  0  0  0  0  0
   56.1201   31.7520   51.9119 H   0  0  0  0  0  0  0  0  0  0  0  0
   59.4234   30.6526   50.8964 H   0  0  0  0  0  0  0  0  0  0  0  0
   58.5807   30.0967   49.4061 H   0  0  0  0  0  0  0  0  0  0  0  0
   57.3980   32.3212   49.3208 H   0  0  0  0  0  0  0  0  0  0  0  0
   58.4380   32.8521   50.7094 H   0  0  0  0  0  0  0  0  0  0  0  0
   56.7942   33.2077   44.8418 H   0  0  0  0  0  0  0  0  0  0  0  0
   58.5742   33.5228   44.9974 H   0  0  0  0  0  0  0  0  0  0  0  0
   59.9980   31.6950   46.0330 H   0  0  0  0  0  0  0  0  0  0  0  0
   59.0525   28.9664   44.0198 H   0  0  0  0  0  0  0  0  0  0  0  0
   59.4845   26.5594   44.5066 H   0  0  0  0  0  0  0  0  0  0  0  0
   60.3558   27.5414   48.6266 H   0  0  0  0  0  0  0  0  0  0  0  0
   59.9366   29.9551   48.1450 H   0  0  0  0  0  0  0  0  0  0  0  0
   64.7181   33.6694   46.8342 H   0  0  0  0  0  0  0  0  0  0  0  0
   63.9455   32.1471   46.2744 H   0  0  0  0  0  0  0  0  0  0  0  0
   62.7962   34.9263   46.4786 H   0  0  0  0  0  0  0  0  0  0  0  0
   62.4144   33.6448   45.3162 H   0  0  0  0  0  0  0  0  0  0  0  0
  1  2  1  0
  2  3  1  0
  3  4  1  0
  4  5  1  0
  5  6  1  0
  6  7  1  0
  7  8  1  0
  8  9  1  0
  9 10  2  0
  9 11  1  0
 11 12  1  0
 12 13  2  0
 13 14  1  0
 14 15  2  0
 15 16  1  0
 15 17  1  0
 17 18  2  0
  6 19  2  0
 19 20  1  0
 20 21  2  0
 21 22  1  0
 22 23  2  0
 21 24  1  0
 24 25  1  0
 25 26  1  0
 22  5  1  0
 18 12  1  0
 26 20  1  0
  1 27  1  0
  1 28  1  0
  1 29  1  0
  3 30  1  0
  3 31  1  0
  4 32  1  0
  4 33  1  0
  8 34  1  0
  8 35  1  0
 11 36  1  0
 13 37  1  0
 14 38  1  0
 17 39  1  0
 18 40  1  0
 25 41  1  0
 25 42  1  0
 26 43  1  0
 26 44  1  0
M  END
>  <UniqueID>  (30) 
27

>  <SMILES>  (30) 
COCCn1c(SCC(=O)Nc2ccc(F)cc2)nc2c(c1=O)SCC2

>  <Energy>  (30) 
56.06941775510125

>  <Genealogy>  (30) 
COCCn1c(SCC(=O)Nc2ccc(F)cc2)nc2c(c1=O)SCC2 (3D coordinates assigned)
COCCn1c(SCC(=O)Nc2ccc(F)cc2)nc2c(c1=O)SCC2 (nonaromatic ring conformer: 56.06941775510125 kcal/mol)

>  <smiles>  (30) 
COCCn1c(SCC(=O)Nc2ccc(F)cc2)nc2c(c1=O)SCC2

>  <score_type>  (30) 
oracle

>  <origin>  (30) 
adg

>  <m_score__min__energy>  (30) 
-7.2199999999999998

>  <m_primary>  (30) 
energy

$$$$
30:0
     RDKit          3D

 56 60  0  0  1  0  0  0  0  0999 V2000
   59.5960   28.9820   50.0210 C   0  0  0  0  0  0  0  0  0  0  0  0
   58.5860   29.9240   50.5900 C   0  0  0  0  0  0  0  0  0  0  0  0
   57.5060   29.5820   51.2510 O   0  0  0  0  0  0  0  0  0  0  0  0
   56.8440   30.6410   51.6080 N   0  0  0  0  0  0  0  0  0  0  0  0
   57.4970   31.7320   51.1730 C   0  0  0  0  0  0  0  0  0  0  0  0
   58.6450   31.2990   50.5010 C   0  0  0  0  0  0  0  0  0  0  0  0
   59.6820   32.1510   49.8470 C   0  0  1  0  0  0  0  0  0  0  0  0
   59.7480   33.4260   50.7060 C   0  0  0  0  0  0  0  0  0  0  0  0
   60.9060   31.5370   49.7350 O   0  0  0  0  0  0  0  0  0  0  0  0
   62.0500   32.1630   49.3400 C   0  0  0  0  0  0  0  0  0  0  0  0
   63.0820   32.5800   50.1350 C   0  0  0  0  0  0  0  0  0  0  0  0
   64.2190   33.2160   49.6360 C   0  0  0  0  0  0  0  0  0  0  0  0
   65.2190   33.6090   50.4850 F   0  0  0  0  0  0  0  0  0  0  0  0
   64.3470   33.4530   48.2830 C   0  0  0  0  0  0  0  0  0  0  0  0
   63.3170   33.0410   47.4630 C   0  0  0  0  0  0  0  0  0  0  0  0
   62.1940   32.4120   47.9680 C   0  0  0  0  0  0  0  0  0  0  0  0
   61.1930   32.0270   47.0330 N   0  0  0  0  0  0  0  0  0  0  0  0
   60.2930   32.8920   46.7120 C   0  0  0  0  0  0  0  0  0  0  0  0
   60.4100   34.2100   46.9330 N   0  0  0  0  0  0  0  0  0  0  0  0
   59.4040   35.0150   46.5530 C   0  0  0  0  0  0  0  0  0  0  0  0
   58.2810   34.5760   45.9580 N   0  0  0  0  0  0  0  0  0  0  0  0
   58.1560   33.2570   45.7320 C   0  0  0  0  0  0  0  0  0  0  0  0
   57.0220   32.7150   45.1200 C   0  0  0  0  0  0  0  0  0  0  0  0
   56.9240   31.3710   44.9040 N   0  0  0  0  0  0  0  0  0  0  0  0
   57.8820   30.5050   45.2550 C   0  0  0  0  0  0  0  0  0  0  0  0
   57.7250   29.1160   45.0020 N   0  0  0  0  0  0  0  0  0  0  0  0
   57.7800   28.1660   46.0950 C   0  0  0  0  0  0  0  0  0  0  0  0
   58.8450   27.1440   45.8260 C   0  0  0  0  0  0  0  0  0  0  0  0
   59.2410   27.1710   44.4860 O   0  0  0  0  0  0  0  0  0  0  0  0
   58.1460   27.2050   43.6290 C   0  0  0  0  0  0  0  0  0  0  0  0
   57.5120   28.6000   43.6640 C   0  0  0  0  0  0  0  0  0  0  0  0
   59.0120   31.0110   45.8610 C   0  0  0  0  0  0  0  0  0  0  0  0
   59.1480   32.3720   46.0980 C   0  0  0  0  0  0  0  0  0  0  0  0
   60.1328   28.4813   50.8402 H   0  0  0  0  0  0  0  0  0  0  0  0
   59.0869   28.2287   49.4019 H   0  0  0  0  0  0  0  0  0  0  0  0
   60.3121   29.5423   49.4019 H   0  0  0  0  0  0  0  0  0  0  0  0
   57.1852   32.7767   51.3190 H   0  0  0  0  0  0  0  0  0  0  0  0
   59.4091   32.3666   48.8034 H   0  0  0  0  0  0  0  0  0  0  0  0
   59.7338   33.1516   51.7711 H   0  0  0  0  0  0  0  0  0  0  0  0
   60.6756   33.9725   50.4805 H   0  0  0  0  0  0  0  0  0  0  0  0
   58.8817   34.0653   50.4805 H   0  0  0  0  0  0  0  0  0  0  0  0
   63.0121   32.4057   51.2188 H   0  0  0  0  0  0  0  0  0  0  0  0
   65.2375   33.9521   47.8732 H   0  0  0  0  0  0  0  0  0  0  0  0
   63.3910   33.2174   46.3798 H   0  0  0  0  0  0  0  0  0  0  0  0
   61.2660   34.5870   47.3930 H   0  0  0  0  0  0  0  0  0  0  0  0
   59.5046   36.0945   46.7391 H   0  0  0  0  0  0  0  0  0  0  0  0
   56.2010   33.3780   44.8096 H   0  0  0  0  0  0  0  0  0  0  0  0
   58.0116   28.6976   47.0298 H   0  0  0  0  0  0  0  0  0  0  0  0
   56.8070   27.6614   46.1873 H   0  0  0  0  0  0  0  0  0  0  0  0
   59.7164   27.3571   46.4625 H   0  0  0  0  0  0  0  0  0  0  0  0
   58.4373   26.1472   46.0499 H   0  0  0  0  0  0  0  0  0  0  0  0
   58.4753   26.9776   42.6044 H   0  0  0  0  0  0  0  0  0  0  0  0
   57.4056   26.4579   43.9508 H   0  0  0  0  0  0  0  0  0  0  0  0
   57.9937   29.2550   42.9231 H   0  0  0  0  0  0  0  0  0  0  0  0
   56.4401   28.5558   43.4209 H   0  0  0  0  0  0  0  0  0  0  0  0
   59.8184   30.3258   46.1614 H   0  0  0  0  0  0  0  0  0  0  0  0
  1  2  1  0
  2  3  1  0
  3  4  1  0
  4  5  2  0
  5  6  1  0
  6  7  1  0
  7  8  1  0
  7  9  1  0
  9 10  1  0
 10 11  2  0
 11 12  1  0
 12 13  1  0
 12 14  2  0
 14 15  1  0
 15 16  2  0
 16 17  1  0
 17 18  2  0
 18 19  1  0
 19 20  1  0
 20 21  2  0
 21 22  1  0
 22 23  2  0
 23 24  1  0
 24 25  2  0
 25 26  1  0
 26 27  1  0
 27 28  1  0
 28 29  1  0
 29 30  1  0
 30 31  1  0
 25 32  1  0
 32 33  2  0
  6  2  2  0
 16 10  1  0
 33 18  1  0
 33 22  1  0
 31 26  1  0
  1 34  1  0
  1 35  1  0
  1 36  1  0
  5 37  1  0
  7 38  1  6
  8 39  1  0
  8 40  1  0
  8 41  1  0
 11 42  1  0
 14 43  1  0
 15 44  1  0
 19 45  1  0
 20 46  1  0
 23 47  1  0
 27 48  1  0
 27 49  1  0
 28 50  1  0
 28 51  1  0
 30 52  1  0
 30 53  1  0
 31 54  1  0
 31 55  1  0
 32 56  1  0
M  END
>  <smiles>  (31) 
Cc1oncc1C(C)Oc1cc(F)ccc1N=c1[nH]cnc2cnc(N3CCOCC3)cc12

>  <score_type>  (31) 
oracle

>  <origin>  (31) 
adg

>  <m_score__min__energy>  (31) 
-8.9000000000000004

>  <m_primary>  (31) 
energy

$$$$
31:0
     RDKit          3D

 36 37  0  0  0  0  0  0  0  0999 V2000
   55.5970   26.8480   46.0760 N   0  0  0  0  0  0  0  0  0  0  0  0
   57.0190   26.7490   46.1580 C   0  0  0  0  0  0  0  0  0  0  0  0
   57.5440   25.9990   47.0240 O   0  0  0  0  0  0  0  0  0  0  0  0
   57.8940   27.5290   45.2210 C   0  0  0  0  0  0  0  0  0  0  0  0
   57.1020   28.2730   44.2980 O   0  0  0  0  0  0  0  0  0  0  0  0
   56.4340   29.4570   44.6370 C   0  0  0  0  0  0  0  0  0  0  0  0
   55.1720   29.4870   44.6640 O   0  0  0  0  0  0  0  0  0  0  0  0
   57.2120   30.6730   44.9630 C   0  0  0  0  0  0  0  0  0  0  0  0
   58.1450   30.6570   46.0140 C   0  0  0  0  0  0  0  0  0  0  0  0
   58.8820   31.8030   46.3250 C   0  0  0  0  0  0  0  0  0  0  0  0
   58.6970   32.9810   45.5900 C   0  0  0  0  0  0  0  0  0  0  0  0
   59.6120   34.4340   45.9810 S   0  0  0  0  0  0  0  0  0  0  0  0
   59.1580   34.9500   47.3170 O   0  0  0  0  0  0  0  0  0  0  0  0
   59.3900   35.5020   44.9440 O   0  0  0  0  0  0  0  0  0  0  0  0
   61.3040   34.0620   46.0580 N   0  0  0  0  0  0  0  0  0  0  0  0
   61.9960   33.6000   47.2260 C   0  0  0  0  0  0  0  0  0  0  0  0
   61.5380   34.0130   48.4850 C   0  0  0  0  0  0  0  0  0  0  0  0
   62.1790   33.5800   49.6490 C   0  0  0  0  0  0  0  0  0  0  0  0
   63.2860   32.7300   49.5650 C   0  0  0  0  0  0  0  0  0  0  0  0
   63.9030   32.3060   50.6960 F   0  0  0  0  0  0  0  0  0  0  0  0
   63.7550   32.3180   48.3150 C   0  0  0  0  0  0  0  0  0  0  0  0
   63.1160   32.7500   47.1470 C   0  0  0  0  0  0  0  0  0  0  0  0
   57.7720   33.0040   44.5400 C   0  0  0  0  0  0  0  0  0  0  0  0
   57.0340   31.8580   44.2280 C   0  0  0  0  0  0  0  0  0  0  0  0
   55.1440   27.4610   45.3620 H   0  0  0  0  0  0  0  0  0  0  0  0
   54.9910   26.2980   46.7260 H   0  0  0  0  0  0  0  0  0  0  0  0
   58.5187   28.2228   45.8027 H   0  0  0  0  0  0  0  0  0  0  0  0
   58.5275   26.8266   44.6594 H   0  0  0  0  0  0  0  0  0  0  0  0
   58.2962   29.7359   46.5960 H   0  0  0  0  0  0  0  0  0  0  0  0
   59.6097   31.7799   47.1496 H   0  0  0  0  0  0  0  0  0  0  0  0
   60.6682   34.6824   48.5572 H   0  0  0  0  0  0  0  0  0  0  0  0
   61.8121   33.9084   50.6326 H   0  0  0  0  0  0  0  0  0  0  0  0
   64.6284   31.6526   48.2487 H   0  0  0  0  0  0  0  0  0  0  0  0
   63.4896   32.4247   46.1649 H   0  0  0  0  0  0  0  0  0  0  0  0
   57.6251   33.9261   43.9585 H   0  0  0  0  0  0  0  0  0  0  0  0
   56.3088   31.8839   43.4013 H   0  0  0  0  0  0  0  0  0  0  0  0
  1  2  1  0
  2  3  2  0
  2  4  1  0
  4  5  1  0
  5  6  1  0
  6  7  2  0
  6  8  1  0
  8  9  2  0
  9 10  1  0
 10 11  2  0
 11 12  1  0
 12 13  2  0
 12 14  2  0
 12 15  1  0
 15 16  1  0
 16 17  2  0
 17 18  1  0
 18 19  2  0
 19 20  1  0
 19 21  1  0
 21 22  2  0
 11 23  1  0
 23 24  2  0
 24  8  1  0
 22 16  1  0
  1 25  1  0
  1 26  1  0
  4 27  1  0
  4 28  1  0
  9 29  1  0
 10 30  1  0
 17 31  1  0
 18 32  1  0
 21 33  1  0
 22 34  1  0
 23 35  1  0
 24 36  1  0
M  CHG  1  15  -1
M  END
>  <UniqueID>  (32) 
28

>  <SMILES>  (32) 
NC(=O)COC(=O)c1ccc(S(=O)(=O)[N-]c2ccc(F)cc2)cc1

>  <Energy>  (32) 
36.37711532546903

>  <Genealogy>  (32) 
NC(=O)COC(=O)c1ccc(S(=O)(=O)[N-]c2ccc(F)cc2)cc1 (protonated)
NC(=O)COC(=O)c1ccc(S(=O)(=O)[N-]c2ccc(F)cc2)cc1 (3D coordinates assigned)
NC(=O)COC(=O)c1ccc(S(=O)(=O)[N-]c2ccc(F)cc2)cc1 (optimized conformer: 36.37711532546903 kcal/mol)

>  <smiles>  (32) 
NC(=O)COC(=O)c1ccc(S(=O)(=O)Nc2ccc(F)cc2)cc1

>  <score_type>  (32) 
oracle

>  <origin>  (32) 
adg

>  <m_score__min__energy>  (32) 
-8.8900000000000006

>  <m_primary>  (32) 
energy

$$$$
32:0
     RDKit          3D

 36 37  0  0  0  0  0  0  0  0999 V2000
   57.7650   28.0530   44.1920 O   0  0  0  0  0  0  0  0  0  0  0  0
   57.1160   28.2030   45.2620 C   0  0  0  0  0  0  0  0  0  0  0  0
   57.7180   27.7940   46.5850 C   0  0  0  0  0  0  0  0  0  0  0  0
   57.6700   26.2830   46.8240 C   0  0  0  0  0  0  0  0  0  0  0  0
   56.2850   25.8550   46.9670 N   0  0  0  0  0  0  0  0  0  0  0  0
   55.5230   25.3100   45.8850 C   0  0  0  0  0  0  0  0  0  0  0  0
   54.3840   25.7850   45.6220 O   0  0  0  0  0  0  0  0  0  0  0  0
   56.0690   24.1960   45.0750 C   0  0  0  0  0  0  0  0  0  0  0  0
   55.6100   23.9710   43.7640 C   0  0  0  0  0  0  0  0  0  0  0  0
   56.1290   22.9170   43.0030 C   0  0  0  0  0  0  0  0  0  0  0  0
   57.1090   22.0800   43.5400 C   0  0  0  0  0  0  0  0  0  0  0  0
   57.5720   22.2940   44.8400 C   0  0  0  0  0  0  0  0  0  0  0  0
   57.0580   23.3450   45.6060 C   0  0  0  0  0  0  0  0  0  0  0  0
   55.8000   28.7610   45.1930 N   0  0  0  0  0  0  0  0  0  0  0  0
   55.3360   29.6210   44.1110 C   0  0  0  0  0  0  0  0  0  0  0  0
   56.3180   30.7310   43.9030 C   0  0  0  0  0  0  0  0  0  0  0  0
   56.9160   30.9310   42.6510 C   0  0  0  0  0  0  0  0  0  0  0  0
   57.8530   31.9550   42.4950 C   0  0  0  0  0  0  0  0  0  0  0  0
   58.1910   32.7590   43.5850 C   0  0  0  0  0  0  0  0  0  0  0  0
   57.5850   32.5230   44.8220 C   0  0  0  0  0  0  0  0  0  0  0  0
   56.6740   31.5220   44.9540 N   0  0  0  0  0  0  0  0  0  0  0  0
   58.7687   28.1189   46.6071 H   0  0  0  0  0  0  0  0  0  0  0  0
   57.1231   28.2709   47.3779 H   0  0  0  0  0  0  0  0  0  0  0  0
   58.1278   25.7625   45.9699 H   0  0  0  0  0  0  0  0  0  0  0  0
   58.2241   26.0405   47.7428 H   0  0  0  0  0  0  0  0  0  0  0  0
   54.8387   24.6273   43.3346 H   0  0  0  0  0  0  0  0  0  0  0  0
   55.7638   22.7477   41.9793 H   0  0  0  0  0  0  0  0  0  0  0  0
   57.5160   21.2529   42.9397 H   0  0  0  0  0  0  0  0  0  0  0  0
   58.3435   21.6337   45.2628 H   0  0  0  0  0  0  0  0  0  0  0  0
   57.4281   23.5081   46.6290 H   0  0  0  0  0  0  0  0  0  0  0  0
   55.2467   29.0318   43.1864 H   0  0  0  0  0  0  0  0  0  0  0  0
   54.3542   30.0428   44.3719 H   0  0  0  0  0  0  0  0  0  0  0  0
   56.6498   30.2876   41.7995 H   0  0  0  0  0  0  0  0  0  0  0  0
   58.3234   32.1275   41.5157 H   0  0  0  0  0  0  0  0  0  0  0  0
   58.9262   33.5693   43.4715 H   0  0  0  0  0  0  0  0  0  0  0  0
   57.8451   33.1474   45.6895 H   0  0  0  0  0  0  0  0  0  0  0  0
  1  2  2  0
  2  3  1  0
  3  4  1  0
  4  5  1  0
  5  6  1  0
  6  7  2  0
  6  8  1  0
  8  9  2  0
  9 10  1  0
 10 11  2  0
 11 12  1  0
 12 13  2  0
  2 14  1  0
 14 15  1  0
 15 16  1  0
 16 17  2  0
 17 18  1  0
 18 19  2  0
 19 20  1  0
 20 21  2  0
 13  8  1  0
 21 16  1  0
  3 22  1  0
  3 23  1  0
  4 24  1  0
  4 25  1  0
  9 26  1  0
 10 27  1  0
 11 28  1  0
 12 29  1  0
 13 30  1  0
 15 31  1  0
 15 32  1  0
 17 33  1  0
 18 34  1  0
 19 35  1  0
 20 36  1  0
M  CHG  2   5  -1  14  -1
M  END
>  <UniqueID>  (33) 
29

>  <SMILES>  (33) 
O=C(CC[N-]C(=O)c1ccccc1)[N-]Cc1ccccn1

>  <Energy>  (33) 
30.964990067779066

>  <Genealogy>  (33) 
O=C(CC[N-]C(=O)c1ccccc1)[N-]Cc1ccccn1 (protonated)
O=C(CC[N-]C(=O)c1ccccc1)[N-]Cc1ccccn1 (3D coordinates assigned)
O=C(CC[N-]C(=O)c1ccccc1)[N-]Cc1ccccn1 (optimized conformer: 30.964990067779066 kcal/mol)

>  <smiles>  (33) 
O=C(CCNC(=O)c1ccccc1)NCc1ccccn1

>  <score_type>  (33) 
oracle

>  <origin>  (33) 
adg

>  <m_score__min__energy>  (33) 
-11.74

>  <m_primary>  (33) 
energy

$$$$
33:0
     RDKit          3D

 48 50  0  0  0  0  0  0  0  0999 V2000
   56.5060   30.3420   52.9360 C   0  0  0  0  0  0  0  0  0  0  0  0
   56.9480   29.9870   51.6290 O   0  0  0  0  0  0  0  0  0  0  0  0
   57.9890   30.6330   50.9450 C   0  0  0  0  0  0  0  0  0  0  0  0
   58.9780   29.8450   50.3450 C   0  0  0  0  0  0  0  0  0  0  0  0
   60.0330   30.4390   49.6460 C   0  0  0  0  0  0  0  0  0  0  0  0
   60.1090   31.8350   49.5300 C   0  0  0  0  0  0  0  0  0  0  0  0
   61.2250   32.4650   48.7840 C   0  0  0  0  0  0  0  0  0  0  0  0
   62.3300   32.9580   49.5010 C   0  0  0  0  0  0  0  0  0  0  0  0
   63.3600   33.6330   48.8410 C   0  0  0  0  0  0  0  0  0  0  0  0
   63.2970   33.8270   47.4610 C   0  0  0  0  0  0  0  0  0  0  0  0
   62.2130   33.3330   46.7340 C   0  0  0  0  0  0  0  0  0  0  0  0
   61.1840   32.6300   47.3780 C   0  0  0  0  0  0  0  0  0  0  0  0
   60.1210   32.0850   46.5850 N   0  0  0  0  0  0  0  0  0  0  0  0
   59.0740   33.1050   45.6480 S   0  0  0  0  0  0  0  0  0  0  0  0
   59.9120   34.1490   44.9660 O   0  0  0  0  0  0  0  0  0  0  0  0
   58.0670   33.7730   46.5410 O   0  0  0  0  0  0  0  0  0  0  0  0
   58.2040   32.1400   44.4520 C   0  0  0  0  0  0  0  0  0  0  0  0
   58.0990   32.6080   43.1330 C   0  0  0  0  0  0  0  0  0  0  0  0
   57.4120   31.8650   42.1640 C   0  0  0  0  0  0  0  0  0  0  0  0
   57.3330   32.3600   40.7500 C   0  0  0  0  0  0  0  0  0  0  0  0
   56.8630   30.6240   42.5100 C   0  0  0  0  0  0  0  0  0  0  0  0
   56.9780   30.1400   43.8140 C   0  0  0  0  0  0  0  0  0  0  0  0
   57.6520   30.8900   44.7970 C   0  0  0  0  0  0  0  0  0  0  0  0
   57.7990   30.4190   46.1120 O   0  0  0  0  0  0  0  0  0  0  0  0
   58.4420   29.2000   46.4690 C   0  0  0  0  0  0  0  0  0  0  0  0
   59.1260   32.6290   50.1430 C   0  0  0  0  0  0  0  0  0  0  0  0
   58.0720   32.0340   50.8420 C   0  0  0  0  0  0  0  0  0  0  0  0
   57.1340   29.8376   53.6851 H   0  0  0  0  0  0  0  0  0  0  0  0
   56.5838   31.4315   53.0660 H   0  0  0  0  0  0  0  0  0  0  0  0
   55.4589   30.0310   53.0660 H   0  0  0  0  0  0  0  0  0  0  0  0
   58.9247   28.7491   50.4241 H   0  0  0  0  0  0  0  0  0  0  0  0
   60.8074   29.8086   49.1846 H   0  0  0  0  0  0  0  0  0  0  0  0
   62.3837   32.8110   50.5898 H   0  0  0  0  0  0  0  0  0  0  0  0
   64.2216   34.0119   49.4102 H   0  0  0  0  0  0  0  0  0  0  0  0
   64.1027   34.3700   46.9452 H   0  0  0  0  0  0  0  0  0  0  0  0
   62.1651   33.4962   45.6472 H   0  0  0  0  0  0  0  0  0  0  0  0
   59.7720   31.1270   46.8130 H   0  0  0  0  0  0  0  0  0  0  0  0
   58.5606   33.5676   42.8573 H   0  0  0  0  0  0  0  0  0  0  0  0
   57.1596   33.4463   40.7509 H   0  0  0  0  0  0  0  0  0  0  0  0
   58.2776   32.1399   40.2311 H   0  0  0  0  0  0  0  0  0  0  0  0
   56.5038   31.8568   40.2311 H   0  0  0  0  0  0  0  0  0  0  0  0
   56.3381   30.0272   41.7496 H   0  0  0  0  0  0  0  0  0  0  0  0
   56.5391   29.1659   44.0757 H   0  0  0  0  0  0  0  0  0  0  0  0
   58.4863   29.1161   47.5649 H   0  0  0  0  0  0  0  0  0  0  0  0
   57.8739   28.3520   46.0590 H   0  0  0  0  0  0  0  0  0  0  0  0
   59.4627   29.1901   46.0590 H   0  0  0  0  0  0  0  0  0  0  0  0
   59.1859   33.7251   50.0726 H   0  0  0  0  0  0  0  0  0  0  0  0
   57.3036   32.6640   51.3139 H   0  0  0  0  0  0  0  0  0  0  0  0
  1  2  1  0
  2  3  1  0
  3  4  2  0
  4  5  1  0
  5  6  2  0
  6  7  1  0
  7  8  2  0
  8  9  1  0
  9 10  2  0
 10 11  1  0
 11 12  2  0
 12 13  1  0
 13 14  1  0
 14 15  2  0
 14 16  2  0
 14 17  1  0
 17 18  2  0
 18 19  1  0
 19 20  1  0
 19 21  2  0
 21 22  1  0
 22 23  2  0
 23 24  1  0
 24 25  1  0
  6 26  1  0
 26 27  2  0
 27  3  1  0
 12  7  1  0
 23 17  1  0
  1 28  1  0
  1 29  1  0
  1 30  1  0
  4 31  1  0
  5 32  1  0
  8 33  1  0
  9 34  1  0
 10 35  1  0
 11 36  1  0
 13 37  1  0
 18 38  1  0
 20 39  1  0
 20 40  1  0
 20 41  1  0
 21 42  1  0
 22 43  1  0
 25 44  1  0
 25 45  1  0
 25 46  1  0
 26 47  1  0
 27 48  1  0
M  END
>  <UniqueID>  (34) 
30

>  <SMILES>  (34) 
COc1ccc(-c2ccccc2NS(=O)(=O)c2cc(C)ccc2OC)cc1

>  <Energy>  (34) 
61.61131058608645

>  <Genealogy>  (34) 
COc1ccc(-c2ccccc2NS(=O)(=O)c2cc(C)ccc2OC)cc1 (3D coordinates assigned)
COc1ccc(-c2ccccc2NS(=O)(=O)c2cc(C)ccc2OC)cc1 (optimized conformer: 61.61131058608645 kcal/mol)

>  <smiles>  (34) 
COc1ccc(-c2ccccc2NS(=O)(=O)c2cc(C)ccc2OC)cc1

>  <score_type>  (34) 
oracle

>  <origin>  (34) 
adg

>  <m_score__min__energy>  (34) 
-8.75

>  <m_primary>  (34) 
energy

$$$$
34:0
     RDKit          3D

 49 52  0  0  0  0  0  0  0  0999 V2000
   56.2820   25.6080   45.7310 C   0  0  0  0  0  0  0  0  0  0  0  0
   56.9580   26.9270   46.0960 C   0  0  0  0  0  0  0  0  0  0  0  0
   57.2060   27.8190   44.8720 C   0  0  0  0  0  0  0  0  0  0  0  0
   57.9540   29.0410   45.2330 N   0  0  0  0  0  0  0  0  0  0  0  0
   59.2050   28.9280   45.7970 C   0  0  0  0  0  0  0  0  0  0  0  0
   59.7430   27.8030   45.9890 O   0  0  0  0  0  0  0  0  0  0  0  0
   59.8700   30.0850   46.1620 C   0  0  0  0  0  0  0  0  0  0  0  0
   61.0700   30.2160   46.7490 N   0  0  0  0  0  0  0  0  0  0  0  0
   61.1760   31.5660   46.8830 C   0  0  0  0  0  0  0  0  0  0  0  0
   62.3390   32.2080   47.5020 C   0  0  0  0  0  0  0  0  0  0  0  0
   62.4560   32.6180   48.8160 C   0  0  0  0  0  0  0  0  0  0  0  0
   63.6930   33.1280   48.9360 N   0  0  0  0  0  0  0  0  0  0  0  0
   64.2780   33.7390   50.1260 C   0  0  0  0  0  0  0  0  0  0  0  0
   65.4070   32.8870   50.6350 C   0  0  0  0  0  0  0  0  0  0  0  0
   66.6840   33.4420   50.8190 C   0  0  0  0  0  0  0  0  0  0  0  0
   67.7410   32.6440   51.2650 C   0  0  0  0  0  0  0  0  0  0  0  0
   67.5340   31.2840   51.5200 C   0  0  0  0  0  0  0  0  0  0  0  0
   66.2700   30.7220   51.3230 C   0  0  0  0  0  0  0  0  0  0  0  0
   65.2100   31.5170   50.8770 C   0  0  0  0  0  0  0  0  0  0  0  0
   64.2880   33.0460   47.7560 N   0  0  0  0  0  0  0  0  0  0  0  0
   63.4930   32.4850   46.8570 N   0  0  0  0  0  0  0  0  0  0  0  0
   60.1080   32.2670   46.4170 N   0  0  0  0  0  0  0  0  0  0  0  0
   59.3040   31.2920   45.9660 C   0  0  0  0  0  0  0  0  0  0  0  0
   58.0750   31.4380   45.4010 N   0  0  0  0  0  0  0  0  0  0  0  0
   57.4780   32.7750   45.2470 C   0  0  0  0  0  0  0  0  0  0  0  0
   57.3810   33.4730   46.5990 C   0  0  0  0  0  0  0  0  0  0  0  0
   57.3910   30.2950   45.0420 C   0  0  0  0  0  0  0  0  0  0  0  0
   56.2340   30.3940   44.5410 O   0  0  0  0  0  0  0  0  0  0  0  0
   56.0065   25.0705   46.6503 H   0  0  0  0  0  0  0  0  0  0  0  0
   55.3769   25.8111   45.1398 H   0  0  0  0  0  0  0  0  0  0  0  0
   56.9755   24.9919   45.1398 H   0  0  0  0  0  0  0  0  0  0  0  0
   56.3136   27.4697   46.8032 H   0  0  0  0  0  0  0  0  0  0  0  0
   57.9360   26.6896   46.5401 H   0  0  0  0  0  0  0  0  0  0  0  0
   57.7856   27.2521   44.1285 H   0  0  0  0  0  0  0  0  0  0  0  0
   56.2307   28.1206   44.4624 H   0  0  0  0  0  0  0  0  0  0  0  0
   61.6919   32.5423   49.6036 H   0  0  0  0  0  0  0  0  0  0  0  0
   64.6608   34.7385   49.8723 H   0  0  0  0  0  0  0  0  0  0  0  0
   63.5073   33.8235   50.9063 H   0  0  0  0  0  0  0  0  0  0  0  0
   66.8528   34.5089   50.6112 H   0  0  0  0  0  0  0  0  0  0  0  0
   68.7371   33.0857   51.4158 H   0  0  0  0  0  0  0  0  0  0  0  0
   68.3656   30.6577   51.8753 H   0  0  0  0  0  0  0  0  0  0  0  0
   66.1086   29.6518   51.5193 H   0  0  0  0  0  0  0  0  0  0  0  0
   64.2187   31.0686   50.7150 H   0  0  0  0  0  0  0  0  0  0  0  0
   65.2560   33.3800   47.5520 H   0  0  0  0  0  0  0  0  0  0  0  0
   58.1054   33.3765   44.5728 H   0  0  0  0  0  0  0  0  0  0  0  0
   56.4668   32.6679   44.8275 H   0  0  0  0  0  0  0  0  0  0  0  0
   57.4843   32.7300   47.4035 H   0  0  0  0  0  0  0  0  0  0  0  0
   58.1840   34.2199   46.6845 H   0  0  0  0  0  0  0  0  0  0  0  0
   56.4048   33.9727   46.6845 H   0  0  0  0  0  0  0  0  0  0  0  0
  1  2  1  0
  2  3  1  0
  3  4  1  0
  4  5  1  0
  5  6  2  0
  5  7  1  0
  7  8  1  0
  8  9  1  0
  9 10  1  0
 10 11  2  0
 11 12  1  0
 12 13  1  0
 13 14  1  0
 14 15  2  0
 15 16  1  0
 16 17  2  0
 17 18  1  0
 18 19  2  0
 12 20  1  0
 20 21  2  0
  9 22  2  0
 22 23  1  0
 23 24  1  0
 24 25  1  0
 25 26  1  0
 24 27  1  0
 27 28  2  0
 27  4  1  0
 23  7  2  0
 21 10  1  0
 19 14  1  0
  1 29  1  0
  1 30  1  0
  1 31  1  0
  2 32  1  0
  2 33  1  0
  3 34  1  0
  3 35  1  0
 11 36  1  0
 13 37  1  0
 13 38  1  0
 15 39  1  0
 16 40  1  0
 17 41  1  0
 18 42  1  0
 19 43  1  0
 20 44  1  0
 25 45  1  0
 25 46  1  0
 26 47  1  0
 26 48  1  0
 26 49  1  0
M  CHG  2   8  -1  20   1
M  END
>  <UniqueID>  (35) 
31

>  <SMILES>  (35) 
CCCn1c(=O)c2[n-]c(-c3cn(Cc4ccccc4)[nH+]n3)nc2n(CC)c1=O

>  <Energy>  (35) 
120.1919182680028

>  <Genealogy>  (35) 
CCCn1c(=O)c2[n-]c(-c3cn(Cc4ccccc4)[nH+]n3)nc2n(CC)c1=O (protonated)
CCCn1c(=O)c2[n-]c(-c3cn(Cc4ccccc4)[nH+]n3)nc2n(CC)c1=O (3D coordinates assigned)
CCCn1c(=O)c2[n-]c(-c3cn(Cc4ccccc4)[nH+]n3)nc2n(CC)c1=O (optimized conformer: 120.1919182680028 kcal/mol)

>  <smiles>  (35) 
CCCn1c(=O)c2[nH]c(-c3cn(Cc4ccccc4)nn3)nc2n(CC)c1=O

>  <score_type>  (35) 
oracle

>  <origin>  (35) 
adg

>  <m_score__min__energy>  (35) 
-8.6899999999999995

>  <m_primary>  (35) 
energy

$$$$
35:0
     RDKit          3D

 58 61  0  0  0  0  0  0  0  0999 V2000
   59.3770   26.3610   47.5110 C   0  0  0  0  0  0  0  0  0  0  0  0
   59.5640   27.7440   48.0610 C   0  0  0  0  0  0  0  0  0  0  0  0
   60.7300   28.0700   48.7730 C   0  0  0  0  0  0  0  0  0  0  0  0
   60.8850   29.3440   49.3250 C   0  0  0  0  0  0  0  0  0  0  0  0
   59.8680   30.3010   49.1900 C   0  0  0  0  0  0  0  0  0  0  0  0
   60.0530   31.9030   49.9020 S   0  0  0  0  0  0  0  0  0  0  0  0
   60.4440   31.7480   51.3460 O   0  0  0  0  0  0  0  0  0  0  0  0
   58.7280   32.6130   49.8650 O   0  0  0  0  0  0  0  0  0  0  0  0
   61.2360   32.8770   49.0460 N   0  0  0  0  0  0  0  0  0  0  0  0
   60.5880   33.8630   48.1380 C   0  0  0  0  0  0  0  0  0  0  0  0
   59.5240   33.3020   47.2130 C   0  0  0  0  0  0  0  0  0  0  0  0
   58.2940   33.9610   47.0490 C   0  0  0  0  0  0  0  0  0  0  0  0
   57.3060   33.4230   46.2190 C   0  0  0  0  0  0  0  0  0  0  0  0
   57.5430   32.2290   45.5340 C   0  0  0  0  0  0  0  0  0  0  0  0
   58.7650   31.5630   45.6880 C   0  0  0  0  0  0  0  0  0  0  0  0
   59.7530   32.0970   46.5230 C   0  0  0  0  0  0  0  0  0  0  0  0
   58.9590   30.2790   44.9980 C   0  0  0  0  0  0  0  0  0  0  0  0
   58.0340   29.8120   44.1530 C   0  0  0  0  0  0  0  0  0  0  0  0
   56.8130   30.6290   43.7680 C   0  0  0  0  0  0  0  0  0  0  0  0
   55.5840   29.7150   43.7210 C   0  0  0  0  0  0  0  0  0  0  0  0
   57.0500   31.2570   42.3880 C   0  0  0  0  0  0  0  0  0  0  0  0
   56.5550   31.6820   44.7110 O   0  0  0  0  0  0  0  0  0  0  0  0
   62.3270   32.0690   48.4580 C   0  0  0  0  0  0  0  0  0  0  0  0
   63.4760   31.9100   49.4210 C   0  0  0  0  0  0  0  0  0  0  0  0
   63.3780   31.0120   50.4980 C   0  0  0  0  0  0  0  0  0  0  0  0
   64.4440   30.8570   51.3880 C   0  0  0  0  0  0  0  0  0  0  0  0
   65.6210   31.5870   51.2040 C   0  0  0  0  0  0  0  0  0  0  0  0
   65.7360   32.4710   50.1280 C   0  0  0  0  0  0  0  0  0  0  0  0
   66.8830   33.1710   49.9490 F   0  0  0  0  0  0  0  0  0  0  0  0
   64.6710   32.6300   49.2340 C   0  0  0  0  0  0  0  0  0  0  0  0
   64.8040   33.4840   48.1870 F   0  0  0  0  0  0  0  0  0  0  0  0
   58.7060   29.9770   48.4790 C   0  0  0  0  0  0  0  0  0  0  0  0
   58.5490   28.7020   47.9280 C   0  0  0  0  0  0  0  0  0  0  0  0
   59.2803   25.6461   48.3414 H   0  0  0  0  0  0  0  0  0  0  0  0
   58.4667   26.3317   46.8941 H   0  0  0  0  0  0  0  0  0  0  0  0
   60.2468   26.0910   46.8941 H   0  0  0  0  0  0  0  0  0  0  0  0
   61.5244   27.3192   48.8965 H   0  0  0  0  0  0  0  0  0  0  0  0
   61.8077   29.5977   49.8674 H   0  0  0  0  0  0  0  0  0  0  0  0
   60.1198   34.6397   48.7606 H   0  0  0  0  0  0  0  0  0  0  0  0
   61.3876   34.2398   47.4833 H   0  0  0  0  0  0  0  0  0  0  0  0
   58.1070   34.9073   47.5776 H   0  0  0  0  0  0  0  0  0  0  0  0
   56.3418   33.9401   46.1054 H   0  0  0  0  0  0  0  0  0  0  0  0
   60.7128   31.5726   46.6405 H   0  0  0  0  0  0  0  0  0  0  0  0
   59.8745   29.6967   45.1789 H   0  0  0  0  0  0  0  0  0  0  0  0
   58.1610   28.8070   43.7243 H   0  0  0  0  0  0  0  0  0  0  0  0
   55.2644   29.4773   44.7464 H   0  0  0  0  0  0  0  0  0  0  0  0
   54.7667   30.2265   43.1915 H   0  0  0  0  0  0  0  0  0  0  0  0
   55.8387   28.7851   43.1915 H   0  0  0  0  0  0  0  0  0  0  0  0
   57.4359   32.2796   42.5119 H   0  0  0  0  0  0  0  0  0  0  0  0
   57.7823   30.6537   41.8315 H   0  0  0  0  0  0  0  0  0  0  0  0
   56.1017   31.2879   41.8315 H   0  0  0  0  0  0  0  0  0  0  0  0
   61.9360   31.0737   48.2003 H   0  0  0  0  0  0  0  0  0  0  0  0
   62.6968   32.5880   47.5614 H   0  0  0  0  0  0  0  0  0  0  0  0
   62.4569   30.4280   50.6410 H   0  0  0  0  0  0  0  0  0  0  0  0
   64.3565   30.1597   52.2342 H   0  0  0  0  0  0  0  0  0  0  0  0
   66.4582   31.4657   51.9071 H   0  0  0  0  0  0  0  0  0  0  0  0
   57.9132   30.7292   48.3535 H   0  0  0  0  0  0  0  0  0  0  0  0
   57.6249   28.4491   47.3876 H   0  0  0  0  0  0  0  0  0  0  0  0
  1  2  1  0
  2  3  2  0
  3  4  1  0
  4  5  2  0
  5  6  1  0
  6  7  2  0
  6  8  2  0
  6  9  1  0
  9 10  1  0
 10 11  1  0
 11 12  2  0
 12 13  1  0
 13 14  2  0
 14 15  1  0
 15 16  2  0
 15 17  1  0
 17 18  2  0
 18 19  1  0
 19 20  1  0
 19 21  1  0
 19 22  1  0
  9 23  1  0
 23 24  1  0
 24 25  2  0
 25 26  1  0
 26 27  2  0
 27 28  1  0
 28 29  1  0
 28 30  2  0
 30 31  1  0
  5 32  1  0
 32 33  2  0
 33  2  1  0
 16 11  1  0
 30 24  1  0
 22 14  1  0
  1 34  1  0
  1 35  1  0
  1 36  1  0
  3 37  1  0
  4 38  1  0
 10 39  1  0
 10 40  1  0
 12 41  1  0
 13 42  1  0
 16 43  1  0
 17 44  1  0
 18 45  1  0
 20 46  1  0
 20 47  1  0
 20 48  1  0
 21 49  1  0
 21 50  1  0
 21 51  1  0
 23 52  1  0
 23 53  1  0
 25 54  1  0
 26 55  1  0
 27 56  1  0
 32 57  1  0
 33 58  1  0
M  END
>  <UniqueID>  (36) 
32

>  <SMILES>  (36) 
Cc1ccc(S(=O)(=O)N(Cc2ccc3c(c2)C=CC(C)(C)O3)Cc2cccc(F)c2F)cc1

>  <Energy>  (36) 
66.60748385548506

>  <Genealogy>  (36) 
Cc1ccc(S(=O)(=O)N(Cc2ccc3c(c2)C=CC(C)(C)O3)Cc2cccc(F)c2F)cc1 (3D coordinates assigned)
Cc1ccc(S(=O)(=O)N(Cc2ccc3c(c2)C=CC(C)(C)O3)Cc2cccc(F)c2F)cc1 (nonaromatic ring conformer: 66.60748385548506 kcal/mol)

>  <smiles>  (36) 
Cc1ccc(S(=O)(=O)N(Cc2ccc3c(c2)C=CC(C)(C)O3)Cc2cccc(F)c2F)cc1

>  <score_type>  (36) 
oracle

>  <origin>  (36) 
adg

>  <m_score__min__energy>  (36) 
-9.8100000000000005

>  <m_primary>  (36) 
energy

$$$$
36:0
     RDKit          3D

 38 40  0  0  0  0  0  0  0  0999 V2000
   57.4520   31.9650   42.1240 C   0  0  0  0  0  0  0  0  0  0  0  0
   57.1350   31.4880   43.3270 C   0  0  0  0  0  0  0  0  0  0  0  0
   56.3120   30.2820   43.5080 C   0  0  0  0  0  0  0  0  0  0  0  0
   55.8730   29.6470   42.5100 O   0  0  0  0  0  0  0  0  0  0  0  0
   56.0580   29.8090   44.8350 N   0  0  0  0  0  0  0  0  0  0  0  0
   56.9760   29.0510   45.6370 C   0  0  0  0  0  0  0  0  0  0  0  0
   56.7110   27.7150   46.0020 C   0  0  0  0  0  0  0  0  0  0  0  0
   55.5300   27.0910   45.6200 O   0  0  0  0  0  0  0  0  0  0  0  0
   57.6260   27.0080   46.7870 C   0  0  0  0  0  0  0  0  0  0  0  0
   58.7920   27.6250   47.2450 C   0  0  0  0  0  0  0  0  0  0  0  0
   59.0520   28.9680   46.9240 C   0  0  0  0  0  0  0  0  0  0  0  0
   60.2020   29.6350   47.3820 C   0  0  0  0  0  0  0  0  0  0  0  0
   61.0310   29.0390   48.1240 O   0  0  0  0  0  0  0  0  0  0  0  0
   60.4110   30.9810   47.0240 C   0  0  0  0  0  0  0  0  0  0  0  0
   61.6110   31.7340   47.4680 C   0  0  0  0  0  0  0  0  0  0  0  0
   62.0230   32.8820   46.7700 C   0  0  0  0  0  0  0  0  0  0  0  0
   63.1560   33.5880   47.1810 C   0  0  0  0  0  0  0  0  0  0  0  0
   63.8930   33.1540   48.2860 C   0  0  0  0  0  0  0  0  0  0  0  0
   63.4990   32.0010   48.9910 C   0  0  0  0  0  0  0  0  0  0  0  0
   64.2090   31.5210   50.1020 O   0  0  0  0  0  0  0  0  0  0  0  0
   65.4980   31.9810   50.4930 C   0  0  0  0  0  0  0  0  0  0  0  0
   62.3610   31.2990   48.5740 C   0  0  0  0  0  0  0  0  0  0  0  0
   59.4410   31.6130   46.2300 C   0  0  0  0  0  0  0  0  0  0  0  0
   58.3640   30.9560   45.8160 O   0  0  0  0  0  0  0  0  0  0  0  0
   58.1330   29.6820   46.1220 C   0  0  0  0  0  0  0  0  0  0  0  0
   58.0703   32.8706   42.0369 H   0  0  0  0  0  0  0  0  0  0  0  0
   57.0954   31.4532   41.2180 H   0  0  0  0  0  0  0  0  0  0  0  0
   57.5027   32.0162   44.2191 H   0  0  0  0  0  0  0  0  0  0  0  0
   57.4262   25.9578   47.0460 H   0  0  0  0  0  0  0  0  0  0  0  0
   59.5083   27.0586   47.8582 H   0  0  0  0  0  0  0  0  0  0  0  0
   61.4506   33.2262   45.8960 H   0  0  0  0  0  0  0  0  0  0  0  0
   63.4692   34.4888   46.6329 H   0  0  0  0  0  0  0  0  0  0  0  0
   64.7836   33.7149   48.6059 H   0  0  0  0  0  0  0  0  0  0  0  0
   65.5617   32.0037   51.5909 H   0  0  0  0  0  0  0  0  0  0  0  0
   66.2661   31.3015   50.0951 H   0  0  0  0  0  0  0  0  0  0  0  0
   65.6623   32.9933   50.0951 H   0  0  0  0  0  0  0  0  0  0  0  0
   62.0503   30.3956   49.1192 H   0  0  0  0  0  0  0  0  0  0  0  0
   59.5751   32.6674   45.9468 H   0  0  0  0  0  0  0  0  0  0  0  0
  1  2  2  0
  2  3  1  0
  3  4  2  0
  3  5  1  0
  5  6  1  0
  6  7  2  0
  7  8  1  0
  7  9  1  0
  9 10  2  0
 10 11  1  0
 11 12  1  0
 12 13  2  0
 12 14  1  0
 14 15  1  0
 15 16  2  0
 16 17  1  0
 17 18  2  0
 18 19  1  0
 19 20  1  0
 20 21  1  0
 19 22  2  0
 14 23  2  0
 23 24  1  0
 24 25  1  0
 25  6  1  0
 25 11  2  0
 22 15  1  0
  1 26  1  0
  1 27  1  0
  2 28  1  0
  9 29  1  0
 10 30  1  0
 16 31  1  0
 17 32  1  0
 18 33  1  0
 21 34  1  0
 21 35  1  0
 21 36  1  0
 22 37  1  0
 23 38  1  0
M  CHG  2   5  -1   8  -1
M  END
>  <UniqueID>  (37) 
33

>  <SMILES>  (37) 
C=CC(=O)[N-]c1c([O-])ccc2c(=O)c(-c3cccc(OC)c3)coc12

>  <Energy>  (37) 
56.173475799509426

>  <Genealogy>  (37) 
C=CC(=O)[N-]c1c([O-])ccc2c(=O)c(-c3cccc(OC)c3)coc12 (protonated)
C=CC(=O)[N-]c1c([O-])ccc2c(=O)c(-c3cccc(OC)c3)coc12 (3D coordinates assigned)
C=CC(=O)[N-]c1c([O-])ccc2c(=O)c(-c3cccc(OC)c3)coc12 (optimized conformer: 56.173475799509426 kcal/mol)

>  <smiles>  (37) 
C=CC(=O)Nc1c(O)ccc2c(=O)c(-c3cccc(OC)c3)coc12

>  <score_type>  (37) 
oracle

>  <origin>  (37) 
adg

>  <m_score__min__energy>  (37) 
-12.199999999999999

>  <m_primary>  (37) 
energy

$$$$
37:0
     RDKit          3D

 32 34  0  0  0  0  0  0  0  0999 V2000
   57.2975   22.9194   45.5799 H   0  0  0  0  0  0  0  0  0  0  0  0
   57.2640   24.0020   45.7720 C   0  0  0  0  0  0  0  0  0  0  0  0
   56.0370   24.6730   45.7760 C   0  0  0  0  0  0  0  0  0  0  0  0
   55.1063   24.1184   45.5855 H   0  0  0  0  0  0  0  0  0  0  0  0
   55.9930   26.0480   46.0220 C   0  0  0  0  0  0  0  0  0  0  0  0
   54.7730   26.7130   46.0310 O   0  0  0  0  0  0  0  0  0  0  0  0
   57.1760   26.7550   46.2620 C   0  0  0  0  0  0  0  0  0  0  0  0
   57.1383   27.8364   46.4598 H   0  0  0  0  0  0  0  0  0  0  0  0
   58.4110   26.0880   46.2510 C   0  0  0  0  0  0  0  0  0  0  0  0
   59.8980   26.9730   46.5700 S   0  0  0  0  0  0  0  0  0  0  0  0
   61.0770   26.1000   46.2410 O   0  0  0  0  0  0  0  0  0  0  0  0
   59.9510   27.3530   48.0240 O   0  0  0  0  0  0  0  0  0  0  0  0
   59.9200   28.3990   45.5810 N   0  0  0  0  0  0  0  0  0  0  0  0
   59.4840   29.5790   45.9190 C   0  0  0  0  0  0  0  0  0  0  0  0
   58.9120   30.3850   44.9270 C   0  0  0  0  0  0  0  0  0  0  0  0
   58.8385   30.0179   43.8927 H   0  0  0  0  0  0  0  0  0  0  0  0
   58.4340   31.6590   45.2550 C   0  0  0  0  0  0  0  0  0  0  0  0
   57.8580   32.4860   44.2780 C   0  0  0  0  0  0  0  0  0  0  0  0
   57.7785   32.1351   43.2385 H   0  0  0  0  0  0  0  0  0  0  0  0
   57.3850   33.7560   44.6250 C   0  0  0  0  0  0  0  0  0  0  0  0
   56.9314   34.4007   43.8578 H   0  0  0  0  0  0  0  0  0  0  0  0
   57.4870   34.2080   45.9430 C   0  0  0  0  0  0  0  0  0  0  0  0
   57.1154   35.2084   46.2095 H   0  0  0  0  0  0  0  0  0  0  0  0
   58.0600   33.3930   46.9250 C   0  0  0  0  0  0  0  0  0  0  0  0
   58.1374   33.7519   47.9619 H   0  0  0  0  0  0  0  0  0  0  0  0
   58.5360   32.1170   46.5860 C   0  0  0  0  0  0  0  0  0  0  0  0
   59.1150   31.2810   47.5490 C   0  0  0  0  0  0  0  0  0  0  0  0
   59.2017   31.6246   48.5903 H   0  0  0  0  0  0  0  0  0  0  0  0
   59.5710   30.0460   47.2040 N   0  0  0  0  0  0  0  0  0  0  0  0
   59.9910   29.4690   47.9640 H   0  0  0  0  0  0  0  0  0  0  0  0
   58.4490   24.7060   46.0120 C   0  0  0  0  0  0  0  0  0  0  0  0
   59.4123   24.1750   46.0133 H   0  0  0  0  0  0  0  0  0  0  0  0
  1  2  1  0
  2  3  2  0
  3  4  1  0
  3  5  1  0
  5  6  1  0
  5  7  2  0
  7  8  1  0
  7  9  1  0
  9 10  1  0
 10 11  2  0
 10 12  2  0
 10 13  1  0
 13 14  2  0
 14 15  1  0
 15 16  1  0
 15 17  2  0
 17 18  1  0
 18 19  1  0
 18 20  2  0
 20 21  1  0
 20 22  1  0
 22 23  1  0
 22 24  2  0
 24 25  1  0
 24 26  1  0
 26 27  2  0
 27 28  1  0
 27 29  1  0
 29 30  1  0
  9 31  2  0
 31 32  1  0
 31  2  1  0
 29 14  1  0
 26 17  1  0
M  CHG  1   6  -1
M  END
>  <UniqueID>  (38) 
34

>  <SMILES>  (38) 
O=S(=O)(/N=c1/cc2ccccc2c[nH]1)c1cccc([O-])c1

>  <Energy>  (38) 
44.16051971474536

>  <Genealogy>  (38) 
O=S(=O)(N=c1cc2ccccc2c[nH]1)c1cccc([O-])c1 (protonated)
O=S(=O)(/N=c1/cc2ccccc2c[nH]1)c1cccc([O-])c1 (cis-trans isomerization)
O=S(=O)(/N=c1/cc2ccccc2c[nH]1)c1cccc([O-])c1 (3D coordinates assigned)
O=S(=O)(/N=c1/cc2ccccc2c[nH]1)c1cccc([O-])c1 (optimized conformer: 44.16051971474536 kcal/mol)

>  <smiles>  (38) 
O=S(=O)(N=c1cc2ccccc2c[nH]1)c1cccc(O)c1

>  <score_type>  (38) 
oracle

>  <origin>  (38) 
adg

>  <m_score__min__energy>  (38) 
-11.630000000000001

>  <m_primary>  (38) 
energy

$$$$
38:0
     RDKit          3D

 35 37  0  0  0  0  0  0  0  0999 V2000
   55.3470   26.3360   46.0160 O   0  0  0  0  0  0  0  0  0  0  0  0
   56.2920   27.1410   45.8100 C   0  0  0  0  0  0  0  0  0  0  0  0
   55.9970   28.4250   45.2440 N   0  0  0  0  0  0  0  0  0  0  0  0
   56.6640   29.0320   44.0930 C   0  0  0  0  0  0  0  0  0  0  0  0
   57.2570   30.3690   44.4520 C   0  0  0  0  0  0  0  0  0  0  0  0
   57.2890   31.4050   43.5040 C   0  0  0  0  0  0  0  0  0  0  0  0
   57.8160   32.6550   43.8440 C   0  0  0  0  0  0  0  0  0  0  0  0
   58.3180   32.8790   45.1290 C   0  0  0  0  0  0  0  0  0  0  0  0
   58.8250   34.0920   45.4580 F   0  0  0  0  0  0  0  0  0  0  0  0
   58.2980   31.8490   46.0750 C   0  0  0  0  0  0  0  0  0  0  0  0
   57.7760   30.5980   45.7380 C   0  0  0  0  0  0  0  0  0  0  0  0
   57.6540   26.7540   46.2150 C   0  0  0  0  0  0  0  0  0  0  0  0
   58.6270   27.7010   47.2040 S   0  0  0  0  0  0  0  0  0  0  0  0
   59.9830   26.7140   47.1430 C   0  0  0  0  0  0  0  0  0  0  0  0
   59.6870   25.6170   46.3470 C   0  0  0  0  0  0  0  0  0  0  0  0
   58.3800   25.6210   45.8280 C   0  0  0  0  0  0  0  0  0  0  0  0
   57.8500   24.5070   45.0060 C   0  0  0  0  0  0  0  0  0  0  0  0
   57.0710   24.7790   43.8660 C   0  0  0  0  0  0  0  0  0  0  0  0
   56.5610   23.7330   43.0910 C   0  0  0  0  0  0  0  0  0  0  0  0
   56.8300   22.4070   43.4400 C   0  0  0  0  0  0  0  0  0  0  0  0
   56.3350   21.3940   42.6880 F   0  0  0  0  0  0  0  0  0  0  0  0
   57.6130   22.1260   44.5630 C   0  0  0  0  0  0  0  0  0  0  0  0
   58.1250   23.1680   45.3410 C   0  0  0  0  0  0  0  0  0  0  0  0
   57.4672   28.3634   43.7496 H   0  0  0  0  0  0  0  0  0  0  0  0
   55.9194   29.1827   43.2975 H   0  0  0  0  0  0  0  0  0  0  0  0
   56.8981   31.2325   42.4904 H   0  0  0  0  0  0  0  0  0  0  0  0
   57.8355   33.4636   43.0985 H   0  0  0  0  0  0  0  0  0  0  0  0
   58.6940   32.0244   47.0861 H   0  0  0  0  0  0  0  0  0  0  0  0
   57.7711   29.7883   46.4825 H   0  0  0  0  0  0  0  0  0  0  0  0
   60.9418   26.9042   47.6475 H   0  0  0  0  0  0  0  0  0  0  0  0
   60.4107   24.8149   46.1401 H   0  0  0  0  0  0  0  0  0  0  0  0
   56.8620   25.8212   43.5828 H   0  0  0  0  0  0  0  0  0  0  0  0
   55.9472   23.9542   42.2054 H   0  0  0  0  0  0  0  0  0  0  0  0
   57.8269   21.0819   44.8353 H   0  0  0  0  0  0  0  0  0  0  0  0
   58.7462   22.9404   46.2198 H   0  0  0  0  0  0  0  0  0  0  0  0
  1  2  2  0
  2  3  1  0
  3  4  1  0
  4  5  1  0
  5  6  2  0
  6  7  1  0
  7  8  2  0
  8  9  1  0
  8 10  1  0
 10 11  2  0
  2 12  1  0
 12 13  1  0
 13 14  1  0
 14 15  2  0
 15 16  1  0
 16 17  1  0
 17 18  2  0
 18 19  1  0
 19 20  2  0
 20 21  1  0
 20 22  1  0
 22 23  2  0
 11  5  1  0
 16 12  2  0
 23 17  1  0
  4 24  1  0
  4 25  1  0
  6 26  1  0
  7 27  1  0
 10 28  1  0
 11 29  1  0
 14 30  1  0
 15 31  1  0
 18 32  1  0
 19 33  1  0
 22 34  1  0
 23 35  1  0
M  CHG  1   3  -1
M  END
>  <UniqueID>  (39) 
35

>  <SMILES>  (39) 
O=C([N-]Cc1ccc(F)cc1)c1sccc1-c1ccc(F)cc1

>  <Energy>  (39) 
69.8014618075071

>  <Genealogy>  (39) 
O=C([N-]Cc1ccc(F)cc1)c1sccc1-c1ccc(F)cc1 (protonated)
O=C([N-]Cc1ccc(F)cc1)c1sccc1-c1ccc(F)cc1 (3D coordinates assigned)
O=C([N-]Cc1ccc(F)cc1)c1sccc1-c1ccc(F)cc1 (optimized conformer: 69.8014618075071 kcal/mol)

>  <smiles>  (39) 
O=C(NCc1ccc(F)cc1)c1sccc1-c1ccc(F)cc1

>  <score_type>  (39) 
oracle

>  <origin>  (39) 
adg

>  <m_score__min__energy>  (39) 
-9.5600000000000005

>  <m_primary>  (39) 
energy

$$$$
39:0
     RDKit          3D

 43 45  0  0  1  0  0  0  0  0999 V2000
   54.8040   26.2420   45.9500 O   0  0  0  0  0  0  0  0  0  0  0  0
   55.4220   25.1060   45.4100 C   0  0  0  0  0  0  0  0  0  0  0  0
   56.7250   24.8200   46.0990 C   0  0  0  0  0  0  0  0  0  0  0  0
   56.8970   25.7440   47.1470 O   0  0  0  0  0  0  0  0  0  0  0  0
   57.5940   26.9340   46.9150 C   0  0  0  0  0  0  0  0  0  0  0  0
   58.5600   27.2710   47.7860 N   0  0  0  0  0  0  0  0  0  0  0  0
   59.2430   28.4310   47.5620 C   0  0  0  0  0  0  0  0  0  0  0  0
   60.1570   28.7120   48.4190 N   0  0  0  0  0  0  0  0  0  0  0  0
   60.1750   30.0340   49.0620 C   0  0  0  0  0  0  0  0  0  0  0  0
   60.9860   30.9100   48.1380 C   0  0  0  0  0  0  0  0  0  0  0  0
   60.2250   31.9850   47.5060 C   0  0  0  0  0  0  0  0  0  0  0  0
   60.7840   32.9870   46.7480 C   0  0  0  0  0  0  0  0  0  0  0  0
   60.0120   33.9710   46.1790 C   0  0  0  0  0  0  0  0  0  0  0  0
   58.6290   33.9800   46.3550 C   0  0  0  0  0  0  0  0  0  0  0  0
   58.1090   32.9540   47.1220 C   0  0  0  0  0  0  0  0  0  0  0  0
   58.8780   31.9940   47.6770 N   0  0  0  0  0  0  0  0  0  0  0  0
   58.9700   29.2240   46.5100 N   0  0  0  0  0  0  0  0  0  0  0  0
   57.9890   28.8320   45.6740 C   0  0  0  0  0  0  0  0  0  0  0  0
   57.6510   29.6660   44.5050 C   0  0  0  0  0  0  0  0  0  0  0  0
   58.3460   30.8330   44.2580 C   0  0  0  0  0  0  0  0  0  0  0  0
   57.9910   31.5820   43.1490 C   0  0  0  0  0  0  0  0  0  0  0  0
   56.9800   31.1810   42.3140 C   0  0  0  0  0  0  0  0  0  0  0  0
   56.3290   29.9980   42.6280 C   0  0  0  0  0  0  0  0  0  0  0  0
   56.6540   29.2510   43.7010 N   0  0  0  0  0  0  0  0  0  0  0  0
   57.2870   27.6960   45.8500 N   0  0  0  0  0  0  0  0  0  0  0  0
   55.1330   26.3410   46.8720 H   0  0  0  0  0  0  0  0  0  0  0  0
   54.7535   24.2410   45.5324 H   0  0  0  0  0  0  0  0  0  0  0  0
   55.6236   25.2913   44.3446 H   0  0  0  0  0  0  0  0  0  0  0  0
   56.7115   23.7981   46.5058 H   0  0  0  0  0  0  0  0  0  0  0  0
   57.5543   24.9099   45.3819 H   0  0  0  0  0  0  0  0  0  0  0  0
   59.1527   30.4261   49.1673 H   0  0  0  0  0  0  0  0  0  0  0  0
   60.6041   29.9941   50.0741 H   0  0  0  0  0  0  0  0  0  0  0  0
   61.8022   31.3623   48.7205 H   0  0  0  0  0  0  0  0  0  0  0  0
   61.3478   30.2614   47.3266 H   0  0  0  0  0  0  0  0  0  0  0  0
   61.8730   33.0011   46.5938 H   0  0  0  0  0  0  0  0  0  0  0  0
   60.4898   34.7593   45.5788 H   0  0  0  0  0  0  0  0  0  0  0  0
   57.9898   34.7569   45.9102 H   0  0  0  0  0  0  0  0  0  0  0  0
   57.0220   32.9187   47.2869 H   0  0  0  0  0  0  0  0  0  0  0  0
   59.1590   31.1586   44.9236 H   0  0  0  0  0  0  0  0  0  0  0  0
   58.5301   32.5163   42.9337 H   0  0  0  0  0  0  0  0  0  0  0  0
   56.6972   31.7735   41.4314 H   0  0  0  0  0  0  0  0  0  0  0  0
   55.5136   29.6552   41.9742 H   0  0  0  0  0  0  0  0  0  0  0  0
   56.5260   27.3800   45.2100 H   0  0  0  0  0  0  0  0  0  0  0  0
  1  2  1  0
  2  3  1  0
  3  4  1  0
  4  5  1  0
  5  6  2  0
  6  7  1  0
  7  8  2  0
  8  9  1  0
  9 10  1  0
 10 11  1  0
 11 12  2  0
 12 13  1  0
 13 14  2  0
 14 15  1  0
 15 16  2  0
  7 17  1  0
 17 18  2  0
 18 19  1  0
 19 20  2  0
 20 21  1  0
 21 22  2  0
 22 23  1  0
 23 24  2  0
 18 25  1  0
 25  5  1  0
 16 11  1  0
 24 19  1  0
  1 26  1  0
  2 27  1  0
  2 28  1  0
  3 29  1  0
  3 30  1  0
  9 31  1  0
  9 32  1  0
 10 33  1  0
 10 34  1  0
 12 35  1  0
 13 36  1  0
 14 37  1  0
 15 38  1  0
 20 39  1  0
 21 40  1  0
 22 41  1  0
 23 42  1  0
 25 43  1  0
M  END
>  <smiles>  (40) 
OCCOc1nc(=NCCc2ccccn2)nc(-c2ccccn2)[nH]1

>  <score_type>  (40) 
oracle

>  <origin>  (40) 
adg

>  <m_score__min__energy>  (40) 
-7.21

>  <m_primary>  (40) 
energy

$$$$
40:0
     RDKit          3D

 42 45  0  0  0  0  0  0  0  0999 V2000
   68.3090   32.5940   52.3600 C   0  0  0  0  0  0  0  0  0  0  0  0
   67.0080   33.1420   51.9620 N   0  0  0  0  0  0  0  0  0  0  0  0
   66.4820   32.6870   50.7940 C   0  0  0  0  0  0  0  0  0  0  0  0
   67.0920   31.8390   50.0990 O   0  0  0  0  0  0  0  0  0  0  0  0
   65.2570   33.2040   50.4240 C   0  0  0  0  0  0  0  0  0  0  0  0
   64.4580   32.9820   49.3470 N   0  0  0  0  0  0  0  0  0  0  0  0
   63.3650   33.7550   49.4790 C   0  0  0  0  0  0  0  0  0  0  0  0
   62.2370   33.8440   48.5610 C   0  0  0  0  0  0  0  0  0  0  0  0
   62.4000   33.7010   47.2220 C   0  0  0  0  0  0  0  0  0  0  0  0
   61.2960   33.7910   46.3650 C   0  0  0  0  0  0  0  0  0  0  0  0
   60.0260   34.0220   46.7940 C   0  0  0  0  0  0  0  0  0  0  0  0
   58.5730   34.2100   45.8670 S   0  0  0  0  0  0  0  0  0  0  0  0
   58.0920   32.9860   44.7290 C   0  0  0  0  0  0  0  0  0  0  0  0
   57.4560   31.8420   45.2640 C   0  0  0  0  0  0  0  0  0  0  0  0
   57.0020   30.8300   44.4630 C   0  0  0  0  0  0  0  0  0  0  0  0
   57.1340   30.8590   43.0960 C   0  0  0  0  0  0  0  0  0  0  0  0
   57.7500   31.9620   42.5500 C   0  0  0  0  0  0  0  0  0  0  0  0
   58.2110   32.9920   43.3680 C   0  0  0  0  0  0  0  0  0  0  0  0
   59.8930   34.1650   48.1990 C   0  0  0  0  0  0  0  0  0  0  0  0
   60.9670   34.0770   49.0380 C   0  0  0  0  0  0  0  0  0  0  0  0
   63.4830   34.4540   50.6310 N   0  0  0  0  0  0  0  0  0  0  0  0
   64.6410   34.1290   51.2270 C   0  0  0  0  0  0  0  0  0  0  0  0
   65.1970   34.5640   52.3920 N   0  0  0  0  0  0  0  0  0  0  0  0
   64.5170   35.5460   53.2230 C   0  0  0  0  0  0  0  0  0  0  0  0
   66.3790   34.0500   52.7300 C   0  0  0  0  0  0  0  0  0  0  0  0
   66.9350   34.4080   53.7820 O   0  0  0  0  0  0  0  0  0  0  0  0
   68.3749   32.5663   53.4577 H   0  0  0  0  0  0  0  0  0  0  0  0
   68.4153   31.5747   51.9604 H   0  0  0  0  0  0  0  0  0  0  0  0
   69.1126   33.2301   51.9604 H   0  0  0  0  0  0  0  0  0  0  0  0
   64.6930   32.3200   48.5780 H   0  0  0  0  0  0  0  0  0  0  0  0
   63.4019   33.5139   46.8082 H   0  0  0  0  0  0  0  0  0  0  0  0
   61.4653   33.6681   45.2851 H   0  0  0  0  0  0  0  0  0  0  0  0
   57.3227   31.7636   46.3531 H   0  0  0  0  0  0  0  0  0  0  0  0
   56.5138   29.9621   44.9304 H   0  0  0  0  0  0  0  0  0  0  0  0
   56.7638   30.0371   42.4657 H   0  0  0  0  0  0  0  0  0  0  0  0
   57.8795   32.0312   41.4598 H   0  0  0  0  0  0  0  0  0  0  0  0
   58.6969   33.8565   42.8921 H   0  0  0  0  0  0  0  0  0  0  0  0
   58.8962   34.3521   48.6250 H   0  0  0  0  0  0  0  0  0  0  0  0
   60.8135   34.1951   50.1208 H   0  0  0  0  0  0  0  0  0  0  0  0
   64.6828   35.3065   54.2837 H   0  0  0  0  0  0  0  0  0  0  0  0
   64.9154   36.5482   53.0067 H   0  0  0  0  0  0  0  0  0  0  0  0
   63.4387   35.5256   53.0067 H   0  0  0  0  0  0  0  0  0  0  0  0
  1  2  1  0
  2  3  1  0
  3  4  2  0
  3  5  1  0
  5  6  1  0
  6  7  1  0
  7  8  1  0
  8  9  2  0
  9 10  1  0
 10 11  2  0
 11 12  1  0
 12 13  1  0
 13 14  2  0
 14 15  1  0
 15 16  2  0
 16 17  1  0
 17 18  2  0
 11 19  1  0
 19 20  2  0
  7 21  2  0
 21 22  1  0
 22 23  1  0
 23 24  1  0
 23 25  1  0
 25 26  2  0
 25  2  1  0
 22  5  2  0
 20  8  1  0
 18 13  1  0
  1 27  1  0
  1 28  1  0
  1 29  1  0
  6 30  1  0
  9 31  1  0
 10 32  1  0
 14 33  1  0
 15 34  1  0
 16 35  1  0
 17 36  1  0
 18 37  1  0
 19 38  1  0
 20 39  1  0
 24 40  1  0
 24 41  1  0
 24 42  1  0
M  END
>  <smiles>  (41) 
Cn1c(=O)c2[nH]c(-c3ccc(Sc4ccccc4)cc3)nc2n(C)c1=O

>  <score_type>  (41) 
oracle

>  <origin>  (41) 
adg

>  <m_score__min__energy>  (41) 
-7.9299999999999997

>  <m_primary>  (41) 
energy

$$$$
41:0
     RDKit          3D

 39 41  0  0  0  0  0  0  0  0999 V2000
   60.0930   30.3740   50.4860 C   0  0  0  0  0  0  0  0  0  0  0  0
   59.8590   30.4360   48.7220 S   0  0  0  0  0  0  0  0  0  0  0  0
   61.1640   30.1150   48.0470 O   0  0  0  0  0  0  0  0  0  0  0  0
   58.8290   29.4260   48.3000 O   0  0  0  0  0  0  0  0  0  0  0  0
   59.3650   32.0040   48.2530 O   0  0  0  0  0  0  0  0  0  0  0  0
   58.6830   32.2920   47.0640 C   0  0  0  0  0  0  0  0  0  0  0  0
   57.8910   31.3950   46.4100 N   0  0  0  0  0  0  0  0  0  0  0  0
   57.3710   31.9030   45.2710 C   0  0  0  0  0  0  0  0  0  0  0  0
   56.6070   31.1990   44.4840 N   0  0  0  0  0  0  0  0  0  0  0  0
   56.3130   29.7940   44.5730 C   0  0  0  0  0  0  0  0  0  0  0  0
   55.1370   29.3600   44.4360 O   0  0  0  0  0  0  0  0  0  0  0  0
   57.4050   28.8450   44.8270 C   0  0  0  0  0  0  0  0  0  0  0  0
   58.7310   28.9950   44.4310 C   0  0  0  0  0  0  0  0  0  0  0  0
   59.5450   27.9200   44.8130 C   0  0  0  0  0  0  0  0  0  0  0  0
   58.8680   26.9270   45.5130 C   0  0  0  0  0  0  0  0  0  0  0  0
   57.2550   27.3860   45.6540 S   0  0  0  0  0  0  0  0  0  0  0  0
   57.8730   33.4970   45.0260 S   0  0  0  0  0  0  0  0  0  0  0  0
   58.7810   33.5360   46.4430 C   0  0  0  0  0  0  0  0  0  0  0  0
   59.6170   34.6940   46.8940 C   0  0  0  0  0  0  0  0  0  0  0  0
   60.9790   34.2140   47.3180 C   0  0  0  0  0  0  0  0  0  0  0  0
   61.9030   33.7700   46.3570 C   0  0  0  0  0  0  0  0  0  0  0  0
   63.1570   33.2920   46.7530 C   0  0  0  0  0  0  0  0  0  0  0  0
   63.4920   33.2440   48.1100 C   0  0  0  0  0  0  0  0  0  0  0  0
   62.5720   33.6700   49.0730 C   0  0  0  0  0  0  0  0  0  0  0  0
   61.3170   34.1490   48.6810 C   0  0  0  0  0  0  0  0  0  0  0  0
   59.1480   30.6244   50.9903 H   0  0  0  0  0  0  0  0  0  0  0  0
   60.4077   29.3615   50.7788 H   0  0  0  0  0  0  0  0  0  0  0  0
   60.8678   31.0978   50.7788 H   0  0  0  0  0  0  0  0  0  0  0  0
   57.7100   30.4170   46.7240 H   0  0  0  0  0  0  0  0  0  0  0  0
   59.1022   29.8684   43.8748 H   0  0  0  0  0  0  0  0  0  0  0  0
   60.6189   27.8666   44.5809 H   0  0  0  0  0  0  0  0  0  0  0  0
   59.3109   26.0004   45.9070 H   0  0  0  0  0  0  0  0  0  0  0  0
   59.7249   35.4094   46.0654 H   0  0  0  0  0  0  0  0  0  0  0  0
   59.1251   35.1823   47.7482 H   0  0  0  0  0  0  0  0  0  0  0  0
   61.6395   33.7983   45.2894 H   0  0  0  0  0  0  0  0  0  0  0  0
   63.8801   32.9536   45.9962 H   0  0  0  0  0  0  0  0  0  0  0  0
   64.4794   32.8711   48.4198 H   0  0  0  0  0  0  0  0  0  0  0  0
   62.8352   33.6285   50.1402 H   0  0  0  0  0  0  0  0  0  0  0  0
   60.5927   34.4757   49.4417 H   0  0  0  0  0  0  0  0  0  0  0  0
  1  2  1  0
  2  3  2  0
  2  4  2  0
  2  5  1  0
  5  6  1  0
  6  7  1  0
  7  8  1  0
  8  9  2  3
  9 10  1  0
 10 11  2  0
 10 12  1  0
 12 13  2  0
 13 14  1  0
 14 15  2  0
 15 16  1  0
  8 17  1  0
 17 18  1  0
 18 19  1  0
 19 20  1  0
 20 21  2  0
 21 22  1  0
 22 23  2  0
 23 24  1  0
 24 25  2  0
 18  6  2  0
 25 20  1  0
 16 12  1  0
  1 26  1  0
  1 27  1  0
  1 28  1  0
  7 29  1  0
 13 30  1  0
 14 31  1  0
 15 32  1  0
 19 33  1  0
 19 34  1  0
 21 35  1  0
 22 36  1  0
 23 37  1  0
 24 38  1  0
 25 39  1  0
M  END
>  <UniqueID>  (42) 
36

>  <SMILES>  (42) 
CS(=O)(=O)Oc1[nH]c(=NC(=O)c2cccs2)sc1Cc1ccccc1

>  <Energy>  (42) 
92.05404535964267

>  <Genealogy>  (42) 
CS(=O)(=O)Oc1[nH]c(=NC(=O)c2cccs2)sc1Cc1ccccc1 (3D coordinates assigned)
CS(=O)(=O)Oc1[nH]c(=NC(=O)c2cccs2)sc1Cc1ccccc1 (optimized conformer: 92.05404535964267 kcal/mol)

>  <smiles>  (42) 
CS(=O)(=O)Oc1[nH]c(=NC(=O)c2cccs2)sc1Cc1ccccc1

>  <score_type>  (42) 
oracle

>  <origin>  (42) 
adg

>  <m_score__min__energy>  (42) 
-8.7899999999999991

>  <m_primary>  (42) 
energy

$$$$
42:0
     RDKit          3D

 32 33  0  0  0  0  0  0  0  0999 V2000
   56.1942   26.7228   46.3342 H   0  0  0  0  0  0  0  0  0  0  0  0
   56.6980   27.3960   45.6250 C   0  0  0  0  0  0  0  0  0  0  0  0
   56.3890   28.7210   45.6090 N   0  0  0  0  0  0  0  0  0  0  0  0
   56.9960   29.5930   44.7530 C   0  0  0  0  0  0  0  0  0  0  0  0
   56.6720   30.8540   44.7320 N   0  0  0  0  0  0  0  0  0  0  0  0
   57.4830   31.9600   45.1650 C   0  0  0  0  0  0  0  0  0  0  0  0
   57.3930   33.2180   44.5360 C   0  0  0  0  0  0  0  0  0  0  0  0
   56.6755   33.3694   43.7161 H   0  0  0  0  0  0  0  0  0  0  0  0
   58.2100   34.2740   44.9480 C   0  0  0  0  0  0  0  0  0  0  0  0
   58.1387   35.2510   44.4477 H   0  0  0  0  0  0  0  0  0  0  0  0
   59.1160   34.0910   45.9930 C   0  0  0  0  0  0  0  0  0  0  0  0
   59.7705   34.9186   46.3039 H   0  0  0  0  0  0  0  0  0  0  0  0
   59.1930   32.8580   46.6450 C   0  0  0  0  0  0  0  0  0  0  0  0
   59.9129   32.7173   47.4647 H   0  0  0  0  0  0  0  0  0  0  0  0
   58.3580   31.7980   46.2610 C   0  0  0  0  0  0  0  0  0  0  0  0
   58.4700   30.5430   46.9470 N   0  0  0  0  0  0  0  0  0  0  0  0
   57.6350   29.9140   46.9590 H   0  0  0  0  0  0  0  0  0  0  0  0
   59.7170   30.0360   47.4530 C   0  0  0  0  0  0  0  0  0  0  0  0
   60.7990   30.6190   47.1700 O   0  0  0  0  0  0  0  0  0  0  0  0
   59.7380   28.8210   48.3410 C   0  0  0  0  0  0  0  0  0  0  0  0
   58.5270   28.7090   49.0050 F   0  0  0  0  0  0  0  0  0  0  0  0
   60.7400   28.9550   49.2870 F   0  0  0  0  0  0  0  0  0  0  0  0
   59.9800   27.5520   47.5190 C   0  0  0  0  0  0  0  0  0  0  0  0
   61.0370   26.8440   48.0610 F   0  0  0  0  0  0  0  0  0  0  0  0
   58.8520   26.7500   47.5350 F   0  0  0  0  0  0  0  0  0  0  0  0
   60.2860   27.8770   46.2090 F   0  0  0  0  0  0  0  0  0  0  0  0
   57.9520   29.1160   43.8480 C   0  0  0  0  0  0  0  0  0  0  0  0
   58.4392   29.8046   43.1419 H   0  0  0  0  0  0  0  0  0  0  0  0
   58.2820   27.7590   43.8490 C   0  0  0  0  0  0  0  0  0  0  0  0
   59.0364   27.3755   43.1463 H   0  0  0  0  0  0  0  0  0  0  0  0
   57.6540   26.8900   44.7420 C   0  0  0  0  0  0  0  0  0  0  0  0
   57.9088   25.8200   44.7503 H   0  0  0  0  0  0  0  0  0  0  0  0
  1  2  1  0
  2  3  1  0
  3  4  1  0
  4  5  2  0
  5  6  1  0
  6  7  2  0
  7  8  1  0
  7  9  1  0
  9 10  1  0
  9 11  2  0
 11 12  1  0
 11 13  1  0
 13 14  1  0
 13 15  2  0
 15 16  1  0
 16 17  1  0
 16 18  1  0
 18 19  2  0
 18 20  1  0
 20 21  1  0
 20 22  1  0
 20 23  1  0
 23 24  1  0
 23 25  1  0
 23 26  1  0
  4 27  1  0
 27 28  1  0
 27 29  2  0
 29 30  1  0
 29 31  1  0
 31 32  1  0
 31  2  2  0
 15  6  1  0
M  CHG  1   3  -1
M  END
>  <UniqueID>  (43) 
37

>  <SMILES>  (43) 
O=C(Nc1ccccc1/N=c1/cccc[n-]1)C(F)(F)C(F)(F)F

>  <Energy>  (43) 
41.80593170466416

>  <Genealogy>  (43) 
O=C(Nc1ccccc1N=c1cccc[n-]1)C(F)(F)C(F)(F)F (protonated)
O=C(Nc1ccccc1/N=c1/cccc[n-]1)C(F)(F)C(F)(F)F (cis-trans isomerization)
O=C(Nc1ccccc1/N=c1/cccc[n-]1)C(F)(F)C(F)(F)F (3D coordinates assigned)
O=C(Nc1ccccc1/N=c1/cccc[n-]1)C(F)(F)C(F)(F)F (optimized conformer: 41.80593170466416 kcal/mol)

>  <smiles>  (43) 
O=C(Nc1ccccc1N=c1cccc[nH]1)C(F)(F)C(F)(F)F

>  <score_type>  (43) 
oracle

>  <origin>  (43) 
adg

>  <m_score__min__energy>  (43) 
-6.96

>  <m_primary>  (43) 
energy

$$$$
43:0
     RDKit          3D

 47 50  0  0  0  0  0  0  0  0999 V2000
   59.2190   35.3490   44.8820 C   0  0  0  0  0  0  0  0  0  0  0  0
   59.6240   34.3900   45.9050 N   0  0  0  0  0  0  0  0  0  0  0  0
   60.5950   34.5700   46.8300 C   0  0  0  0  0  0  0  0  0  0  0  0
   60.7220   33.4330   47.6230 C   0  0  0  0  0  0  0  0  0  0  0  0
   61.6720   33.2650   48.7370 C   0  0  0  0  0  0  0  0  0  0  0  0
   61.6550   34.0930   49.6870 O   0  0  0  0  0  0  0  0  0  0  0  0
   62.5510   32.1310   48.7880 N   0  0  0  0  0  0  0  0  0  0  0  0
   63.7680   32.0960   49.5540 C   0  0  0  0  0  0  0  0  0  0  0  0
   63.9570   31.1620   50.5890 C   0  0  0  0  0  0  0  0  0  0  0  0
   65.1410   31.1640   51.3340 C   0  0  0  0  0  0  0  0  0  0  0  0
   66.1380   32.1050   51.0620 C   0  0  0  0  0  0  0  0  0  0  0  0
   65.9500   33.0490   50.0490 C   0  0  0  0  0  0  0  0  0  0  0  0
   64.7680   33.0500   49.3030 C   0  0  0  0  0  0  0  0  0  0  0  0
   59.7980   32.5230   47.1260 C   0  0  0  0  0  0  0  0  0  0  0  0
   59.5240   31.1980   47.4680 C   0  0  0  0  0  0  0  0  0  0  0  0
   58.5330   30.5170   46.7410 C   0  0  0  0  0  0  0  0  0  0  0  0
   57.8400   31.1600   45.6800 C   0  0  0  0  0  0  0  0  0  0  0  0
   56.8380   30.5180   44.9340 O   0  0  0  0  0  0  0  0  0  0  0  0
   57.0380   29.3850   44.0870 C   0  0  0  0  0  0  0  0  0  0  0  0
   57.6090   28.2290   44.8660 C   0  0  0  0  0  0  0  0  0  0  0  0
   56.7620   27.3990   45.6180 C   0  0  0  0  0  0  0  0  0  0  0  0
   57.2870   26.3190   46.3340 C   0  0  0  0  0  0  0  0  0  0  0  0
   58.6590   26.0550   46.2980 C   0  0  0  0  0  0  0  0  0  0  0  0
   59.5070   26.8680   45.5410 C   0  0  0  0  0  0  0  0  0  0  0  0
   58.9860   27.9490   44.8230 C   0  0  0  0  0  0  0  0  0  0  0  0
   58.1620   32.4880   45.3450 C   0  0  0  0  0  0  0  0  0  0  0  0
   59.1490   33.1420   46.0860 C   0  0  0  0  0  0  0  0  0  0  0  0
   58.8345   36.2596   45.3647 H   0  0  0  0  0  0  0  0  0  0  0  0
   60.0860   35.6045   44.2551 H   0  0  0  0  0  0  0  0  0  0  0  0
   58.4313   34.9057   44.2551 H   0  0  0  0  0  0  0  0  0  0  0  0
   61.1976   35.4837   46.9396 H   0  0  0  0  0  0  0  0  0  0  0  0
   62.2300   31.2490   48.3290 H   0  0  0  0  0  0  0  0  0  0  0  0
   63.1702   30.4268   50.8134 H   0  0  0  0  0  0  0  0  0  0  0  0
   65.2875   30.4242   52.1348 H   0  0  0  0  0  0  0  0  0  0  0  0
   67.0706   32.1025   51.6453 H   0  0  0  0  0  0  0  0  0  0  0  0
   66.7331   33.7922   49.8384 H   0  0  0  0  0  0  0  0  0  0  0  0
   64.6200   33.8025   48.5145 H   0  0  0  0  0  0  0  0  0  0  0  0
   60.0687   30.7006   48.2840 H   0  0  0  0  0  0  0  0  0  0  0  0
   58.2910   29.4747   46.9960 H   0  0  0  0  0  0  0  0  0  0  0  0
   56.0732   29.0852   43.6519 H   0  0  0  0  0  0  0  0  0  0  0  0
   57.7475   29.6596   43.2925 H   0  0  0  0  0  0  0  0  0  0  0  0
   55.6807   27.5994   45.6439 H   0  0  0  0  0  0  0  0  0  0  0  0
   56.6193   25.6762   46.9265 H   0  0  0  0  0  0  0  0  0  0  0  0
   59.0713   25.2075   46.8653 H   0  0  0  0  0  0  0  0  0  0  0  0
   60.5862   26.6572   45.5099 H   0  0  0  0  0  0  0  0  0  0  0  0
   59.6557   28.5823   44.2227 H   0  0  0  0  0  0  0  0  0  0  0  0
   57.6480   32.9998   44.5180 H   0  0  0  0  0  0  0  0  0  0  0  0
  1  2  1  0
  2  3  1  0
  3  4  2  0
  4  5  1  0
  5  6  2  0
  5  7  1  0
  7  8  1  0
  8  9  2  0
  9 10  1  0
 10 11  2  0
 11 12  1  0
 12 13  2  0
  4 14  1  0
 14 15  2  0
 15 16  1  0
 16 17  2  0
 17 18  1  0
 18 19  1  0
 19 20  1  0
 20 21  2  0
 21 22  1  0
 22 23  2  0
 23 24  1  0
 24 25  2  0
 17 26  1  0
 26 27  2  0
 27  2  1  0
 13  8  1  0
 27 14  1  0
 25 20  1  0
  1 28  1  0
  1 29  1  0
  1 30  1  0
  3 31  1  0
  7 32  1  0
  9 33  1  0
 10 34  1  0
 11 35  1  0
 12 36  1  0
 13 37  1  0
 15 38  1  0
 16 39  1  0
 19 40  1  0
 19 41  1  0
 21 42  1  0
 22 43  1  0
 23 44  1  0
 24 45  1  0
 25 46  1  0
 26 47  1  0
M  END
>  <UniqueID>  (44) 
38

>  <SMILES>  (44) 
Cn1cc(C(=O)Nc2ccccc2)c2ccc(OCc3ccccc3)cc21

>  <Energy>  (44) 
89.75237720827862

>  <Genealogy>  (44) 
Cn1cc(C(=O)Nc2ccccc2)c2ccc(OCc3ccccc3)cc21 (3D coordinates assigned)
Cn1cc(C(=O)Nc2ccccc2)c2ccc(OCc3ccccc3)cc21 (optimized conformer: 89.75237720827862 kcal/mol)

>  <smiles>  (44) 
Cn1cc(C(=O)Nc2ccccc2)c2ccc(OCc3ccccc3)cc21

>  <score_type>  (44) 
oracle

>  <origin>  (44) 
adg

>  <m_score__min__energy>  (44) 
-8.8599999999999994

>  <m_primary>  (44) 
energy

$$$$
44:0
     RDKit          3D

 62 64  0  0  0  0  0  0  0  0999 V2000
   55.3020   22.5870   44.6000 C   0  0  0  0  0  0  0  0  0  0  0  0
   56.4120   22.6330   43.5440 C   0  0  1  0  0  0  0  0  0  0  0  0
   55.9100   22.2320   42.2300 N   0  0  0  0  0  0  0  0  0  0  0  0
   56.9760   23.9880   43.4630 C   0  0  0  0  0  0  0  0  0  0  0  0
   57.4390   25.0980   43.3880 C   0  0  0  0  0  0  0  0  0  0  0  0
   57.9850   26.4270   43.2890 C   0  0  0  0  0  0  0  0  0  0  0  0
   58.1490   26.9350   42.1450 O   0  0  0  0  0  0  0  0  0  0  0  0
   58.3320   27.1670   44.4810 N   0  0  0  0  0  0  0  0  0  0  0  0
   57.1120   27.4840   45.2650 C   0  0  0  0  0  0  0  0  0  0  0  0
   57.4240   27.8650   46.7300 C   0  0  0  0  0  0  0  0  0  0  0  0
   58.8340   28.2360   46.8830 N   0  0  0  0  0  0  0  0  0  0  0  0
   59.1950   29.5900   47.2000 C   0  0  0  0  0  0  0  0  0  0  0  0
   59.8640   29.8510   48.4050 C   0  0  0  0  0  0  0  0  0  0  0  0
   60.1370   31.1610   48.7980 C   0  0  0  0  0  0  0  0  0  0  0  0
   59.7390   32.2320   47.9930 C   0  0  0  0  0  0  0  0  0  0  0  0
   60.0370   33.8920   48.5060 S   0  0  0  0  0  0  0  0  0  0  0  0
   59.3580   34.8490   47.5660 O   0  0  0  0  0  0  0  0  0  0  0  0
   59.4690   34.0870   49.8840 O   0  0  0  0  0  0  0  0  0  0  0  0
   61.8040   34.2120   48.5290 C   0  0  0  0  0  0  0  0  0  0  0  0
   62.3900   34.0770   49.9570 C   0  0  0  0  0  0  0  0  0  0  0  0
   63.0400   32.7040   50.1790 C   0  0  0  0  0  0  0  0  0  0  0  0
   64.1320   32.4190   49.2100 N   0  0  0  0  0  0  0  0  0  0  0  0
   65.4530   32.6830   49.8000 C   0  0  0  0  0  0  0  0  0  0  0  0
   63.9970   33.1190   47.9090 C   0  0  0  0  0  0  0  0  0  0  0  0
   62.5270   33.3010   47.5150 C   0  0  0  0  0  0  0  0  0  0  0  0
   59.0760   31.9840   46.7850 C   0  0  0  0  0  0  0  0  0  0  0  0
   58.8100   30.6680   46.3660 C   0  0  0  0  0  0  0  0  0  0  0  0
   58.1790   30.4450   45.0940 N   0  0  0  0  0  0  0  0  0  0  0  0
   58.8390   30.0370   44.1160 O   0  0  0  0  0  0  0  0  0  0  0  0
   56.8680   30.8180   44.8980 O   0  0  0  0  0  0  0  0  0  0  0  0
   59.8660   27.3000   46.4170 C   0  0  0  0  0  0  0  0  0  0  0  0
   59.3170   26.4150   45.2850 C   0  0  0  0  0  0  0  0  0  0  0  0
   55.7504   22.6056   45.6043 H   0  0  0  0  0  0  0  0  0  0  0  0
   54.6423   23.4586   44.4768 H   0  0  0  0  0  0  0  0  0  0  0  0
   54.7167   21.6638   44.4768 H   0  0  0  0  0  0  0  0  0  0  0  0
   57.1966   21.9242   43.8475 H   0  0  0  0  0  0  0  0  0  0  0  0
   56.7040   22.1990   41.5490 H   0  0  0  0  0  0  0  0  0  0  0  0
   55.2410   22.9600   41.8900 H   0  0  0  0  0  0  0  0  0  0  0  0
   58.7760   28.0730   44.1900 H   0  0  0  0  0  0  0  0  0  0  0  0
   56.5950   28.3279   44.7848 H   0  0  0  0  0  0  0  0  0  0  0  0
   56.4861   26.5796   45.2840 H   0  0  0  0  0  0  0  0  0  0  0  0
   56.7931   28.7171   47.0231 H   0  0  0  0  0  0  0  0  0  0  0  0
   57.2166   26.9961   47.3719 H   0  0  0  0  0  0  0  0  0  0  0  0
   60.1765   29.0139   49.0465 H   0  0  0  0  0  0  0  0  0  0  0  0
   60.6665   31.3516   49.7432 H   0  0  0  0  0  0  0  0  0  0  0  0
   61.9712   35.2551   48.2223 H   0  0  0  0  0  0  0  0  0  0  0  0
   63.1495   34.8587   50.1056 H   0  0  0  0  0  0  0  0  0  0  0  0
   61.5652   34.1852   50.6767 H   0  0  0  0  0  0  0  0  0  0  0  0
   63.4564   32.6728   51.1967 H   0  0  0  0  0  0  0  0  0  0  0  0
   62.2607   31.9415   50.0330 H   0  0  0  0  0  0  0  0  0  0  0  0
   65.3744   32.6673   50.8971 H   0  0  0  0  0  0  0  0  0  0  0  0
   66.1624   31.9089   49.4721 H   0  0  0  0  0  0  0  0  0  0  0  0
   65.8103   33.6703   49.4721 H   0  0  0  0  0  0  0  0  0  0  0  0
   64.4711   34.1087   47.9854 H   0  0  0  0  0  0  0  0  0  0  0  0
   64.4864   32.5070   47.1371 H   0  0  0  0  0  0  0  0  0  0  0  0
   62.4740   33.7581   46.5159 H   0  0  0  0  0  0  0  0  0  0  0  0
   62.0362   32.3166   47.5084 H   0  0  0  0  0  0  0  0  0  0  0  0
   58.7592   32.8289   46.1558 H   0  0  0  0  0  0  0  0  0  0  0  0
   60.7303   27.8696   46.0447 H   0  0  0  0  0  0  0  0  0  0  0  0
   60.1695   26.6573   47.2565 H   0  0  0  0  0  0  0  0  0  0  0  0
   60.1473   26.0967   44.6375 H   0  0  0  0  0  0  0  0  0  0  0  0
   58.8245   25.5350   45.7244 H   0  0  0  0  0  0  0  0  0  0  0  0
  1  2  1  0
  2  3  1  0
  2  4  1  0
  4  5  3  0
  5  6  1  0
  6  7  2  0
  6  8  1  0
  8  9  1  0
  9 10  1  0
 10 11  1  0
 11 12  1  0
 12 13  2  0
 13 14  1  0
 14 15  2  0
 15 16  1  0
 16 17  2  0
 16 18  2  0
 16 19  1  0
 19 20  1  0
 20 21  1  0
 21 22  1  0
 22 23  1  0
 22 24  1  0
 24 25  1  0
 15 26  1  0
 26 27  2  0
 27 28  1  0
 28 29  2  0
 28 30  1  0
 11 31  1  0
 31 32  1  0
 32  8  1  0
 27 12  1  0
 25 19  1  0
  1 33  1  0
  1 34  1  0
  1 35  1  0
  2 36  1  1
  3 37  1  0
  3 38  1  0
  8 39  1  0
  9 40  1  0
  9 41  1  0
 10 42  1  0
 10 43  1  0
 13 44  1  0
 14 45  1  0
 19 46  1  0
 20 47  1  0
 20 48  1  0
 21 49  1  0
 21 50  1  0
 23 51  1  0
 23 52  1  0
 23 53  1  0
 24 54  1  0
 24 55  1  0
 25 56  1  0
 25 57  1  0
 26 58  1  0
 31 59  1  0
 31 60  1  0
 32 61  1  0
 32 62  1  0
M  CHG  3   8   1  28   1  30  -1
M  END
>  <UniqueID>  (45) 
39

>  <SMILES>  (45) 
C[C@@H](N)C#CC(=O)[NH+]1CCN(c2ccc(S(=O)(=O)C3CCN(C)CC3)cc2[N+](=O)[O-])CC1

>  <Energy>  (45) 
74.52147074242431

>  <Genealogy>  (45) 
CC(N)C#CC(=O)[NH+]1CCN(c2ccc(S(=O)(=O)C3CCN(C)CC3)cc2[N+](=O)[O-])CC1 (protonated)
C[C@@H](N)C#CC(=O)[NH+]1CCN(c2ccc(S(=O)(=O)C3CCN(C)CC3)cc2[N+](=O)[O-])CC1 (chirality)
C[C@@H](N)C#CC(=O)[NH+]1CCN(c2ccc(S(=O)(=O)C3CCN(C)CC3)cc2[N+](=O)[O-])CC1 (3D coordinates assigned)
C[C@@H](N)C#CC(=O)[NH+]1CCN(c2ccc(S(=O)(=O)C3CCN(C)CC3)cc2[N+](=O)[O-])CC1 (nonaromatic ring conformer: 74.52147074242431 kcal/mol)

>  <smiles>  (45) 
CC(N)C#CC(=O)N1CCN(c2ccc(S(=O)(=O)C3CCN(C)CC3)cc2[N+](=O)[O-])CC1

>  <score_type>  (45) 
oracle

>  <origin>  (45) 
adg

>  <m_score__min__energy>  (45) 
-8.8699999999999992

>  <m_primary>  (45) 
energy

$$$$
45:0
     RDKit          3D

 48 51  0  0  0  0  0  0  0  0999 V2000
   60.4410   35.6480   46.0440 O   0  0  0  0  0  0  0  0  0  0  0  0
   59.8870   34.6430   46.5660 C   0  0  0  0  0  0  0  0  0  0  0  0
   60.3000   34.2370   47.9560 C   0  0  0  0  0  0  0  0  0  0  0  0
   61.6910   33.7810   47.9650 N   0  0  0  0  0  0  0  0  0  0  0  0
   62.3860   33.2990   46.9030 C   0  0  0  0  0  0  0  0  0  0  0  0
   63.6580   32.9620   47.2250 N   0  0  0  0  0  0  0  0  0  0  0  0
   63.7580   33.2510   48.5340 C   0  0  0  0  0  0  0  0  0  0  0  0
   64.8610   33.0850   49.3690 C   0  0  0  0  0  0  0  0  0  0  0  0
   64.7180   33.4570   50.7180 C   0  0  0  0  0  0  0  0  0  0  0  0
   63.4930   33.9780   51.1920 C   0  0  0  0  0  0  0  0  0  0  0  0
   62.3980   34.1330   50.3220 C   0  0  0  0  0  0  0  0  0  0  0  0
   62.5710   33.7540   48.9880 C   0  0  0  0  0  0  0  0  0  0  0  0
   58.9070   33.8970   45.8150 N   0  0  0  0  0  0  0  0  0  0  0  0
   57.9600   32.9910   46.4790 C   0  0  0  0  0  0  0  0  0  0  0  0
   56.7080   32.7900   45.6140 C   0  0  0  0  0  0  0  0  0  0  0  0
   57.0140   32.3400   44.2340 N   0  0  0  0  0  0  0  0  0  0  0  0
   56.7920   30.6140   44.0750 S   0  0  0  0  0  0  0  0  0  0  0  0
   56.5940   30.2590   42.6270 O   0  0  0  0  0  0  0  0  0  0  0  0
   55.5800   30.1790   44.8520 O   0  0  0  0  0  0  0  0  0  0  0  0
   58.2020   29.7780   44.7200 C   0  0  0  0  0  0  0  0  0  0  0  0
   59.0400   30.4370   45.6300 C   0  0  0  0  0  0  0  0  0  0  0  0
   60.1700   29.7900   46.1410 C   0  0  0  0  0  0  0  0  0  0  0  0
   60.4670   28.4830   45.7430 C   0  0  0  0  0  0  0  0  0  0  0  0
   59.6350   27.8210   44.8350 C   0  0  0  0  0  0  0  0  0  0  0  0
   58.5050   28.4660   44.3230 C   0  0  0  0  0  0  0  0  0  0  0  0
   58.3540   32.7250   43.7350 C   0  0  0  0  0  0  0  0  0  0  0  0
   58.8490   34.0350   44.3550 C   0  0  0  0  0  0  0  0  0  0  0  0
   60.1975   35.0998   48.6306 H   0  0  0  0  0  0  0  0  0  0  0  0
   59.6534   33.4133   48.2929 H   0  0  0  0  0  0  0  0  0  0  0  0
   61.9631   33.1938   45.8930 H   0  0  0  0  0  0  0  0  0  0  0  0
   64.3920   32.5660   46.5970 H   0  0  0  0  0  0  0  0  0  0  0  0
   65.8089   32.6779   48.9873 H   0  0  0  0  0  0  0  0  0  0  0  0
   65.5660   33.3415   51.4090 H   0  0  0  0  0  0  0  0  0  0  0  0
   63.3946   34.2647   52.2494 H   0  0  0  0  0  0  0  0  0  0  0  0
   61.4397   34.5381   50.6792 H   0  0  0  0  0  0  0  0  0  0  0  0
   58.4456   32.0179   46.6438 H   0  0  0  0  0  0  0  0  0  0  0  0
   57.6598   33.4339   47.4401 H   0  0  0  0  0  0  0  0  0  0  0  0
   56.0696   32.0338   46.0943 H   0  0  0  0  0  0  0  0  0  0  0  0
   56.2068   33.7660   45.5347 H   0  0  0  0  0  0  0  0  0  0  0  0
   58.8084   31.4657   45.9432 H   0  0  0  0  0  0  0  0  0  0  0  0
   60.8250   30.3095   46.8560 H   0  0  0  0  0  0  0  0  0  0  0  0
   61.3562   27.9750   46.1447 H   0  0  0  0  0  0  0  0  0  0  0  0
   59.8695   26.7925   44.5233 H   0  0  0  0  0  0  0  0  0  0  0  0
   57.8521   27.9443   43.6077 H   0  0  0  0  0  0  0  0  0  0  0  0
   59.0671   31.9247   43.9820 H   0  0  0  0  0  0  0  0  0  0  0  0
   58.2790   32.8737   42.6477 H   0  0  0  0  0  0  0  0  0  0  0  0
   59.8526   34.2666   43.9689 H   0  0  0  0  0  0  0  0  0  0  0  0
   58.1568   34.8484   44.0919 H   0  0  0  0  0  0  0  0  0  0  0  0
  1  2  2  0
  2  3  1  0
  3  4  1  0
  4  5  1  0
  5  6  2  0
  6  7  1  0
  7  8  2  0
  8  9  1  0
  9 10  2  0
 10 11  1  0
 11 12  2  0
  2 13  1  0
 13 14  1  0
 14 15  1  0
 15 16  1  0
 16 17  1  0
 17 18  2  0
 17 19  2  0
 17 20  1  0
 20 21  2  0
 21 22  1  0
 22 23  2  0
 23 24  1  0
 24 25  2  0
 16 26  1  0
 26 27  1  0
 12  4  1  0
 27 13  1  0
 12  7  1  0
 25 20  1  0
  3 28  1  0
  3 29  1  0
  5 30  1  0
  6 31  1  0
  8 32  1  0
  9 33  1  0
 10 34  1  0
 11 35  1  0
 14 36  1  0
 14 37  1  0
 15 38  1  0
 15 39  1  0
 21 40  1  0
 22 41  1  0
 23 42  1  0
 24 43  1  0
 25 44  1  0
 26 45  1  0
 26 46  1  0
 27 47  1  0
 27 48  1  0
M  CHG  1   6   1
M  END
>  <UniqueID>  (46) 
40

>  <SMILES>  (46) 
O=C(Cn1c[nH+]c2ccccc21)N1CCN(S(=O)(=O)c2ccccc2)CC1

>  <Energy>  (46) 
94.12842864369715

>  <Genealogy>  (46) 
O=C(Cn1c[nH+]c2ccccc21)N1CCN(S(=O)(=O)c2ccccc2)CC1 (protonated)
O=C(Cn1c[nH+]c2ccccc21)N1CCN(S(=O)(=O)c2ccccc2)CC1 (3D coordinates assigned)
O=C(Cn1c[nH+]c2ccccc21)N1CCN(S(=O)(=O)c2ccccc2)CC1 (nonaromatic ring conformer: 94.12842864369715 kcal/mol)

>  <smiles>  (46) 
O=C(Cn1cnc2ccccc21)N1CCN(S(=O)(=O)c2ccccc2)CC1

>  <score_type>  (46) 
oracle

>  <origin>  (46) 
adg

>  <m_score__min__energy>  (46) 
-8.0800000000000001

>  <m_primary>  (46) 
energy

$$$$
46:0
     RDKit          3D

 56 58  0  0  0  0  0  0  0  0999 V2000
   58.0250   33.8140   45.4970 C   0  0  0  0  0  0  0  0  0  0  0  0
   58.6750   32.5480   46.0650 C   0  0  1  0  0  0  0  0  0  0  0  0
   58.5460   32.5120   47.5350 N   0  0  0  0  0  0  0  0  0  0  0  0
   59.4490   33.7950   48.2930 S   0  0  0  0  0  0  0  0  0  0  0  0
   59.2680   33.7110   49.7820 O   0  0  0  0  0  0  0  0  0  0  0  0
   58.9380   35.1290   47.8250 O   0  0  0  0  0  0  0  0  0  0  0  0
   61.1650   33.6290   47.9220 C   0  0  0  0  0  0  0  0  0  0  0  0
   61.6630   33.9750   46.6590 C   0  0  0  0  0  0  0  0  0  0  0  0
   63.0190   33.8120   46.3710 C   0  0  0  0  0  0  0  0  0  0  0  0
   63.8860   33.2980   47.3390 C   0  0  0  0  0  0  0  0  0  0  0  0
   63.4020   32.9390   48.6100 C   0  0  0  0  0  0  0  0  0  0  0  0
   64.3240   32.3840   49.6330 C   0  0  0  0  0  0  0  0  0  0  0  0
   65.5770   32.7280   49.6620 N   0  0  0  0  0  0  0  0  0  0  0  0
   63.8380   31.4660   50.6160 N   0  0  0  0  0  0  0  0  0  0  0  0
   62.0350   33.1140   48.8940 C   0  0  0  0  0  0  0  0  0  0  0  0
   58.0660   31.3120   45.4300 C   0  0  0  0  0  0  0  0  0  0  0  0
   56.8980   31.3970   44.9610 O   0  0  0  0  0  0  0  0  0  0  0  0
   58.7740   30.0580   45.3390 N   0  0  0  0  0  0  0  0  0  0  0  0
   59.5900   29.5710   46.4640 C   0  0  0  0  0  0  0  0  0  0  0  0
   60.1430   28.1640   46.2020 C   0  0  0  0  0  0  0  0  0  0  0  0
   59.0960   27.2980   45.6460 N   0  0  0  0  0  0  0  0  0  0  0  0
   59.1210   25.8900   45.9380 C   0  0  0  0  0  0  0  0  0  0  0  0
   60.2300   25.2990   46.0410 O   0  0  0  0  0  0  0  0  0  0  0  0
   57.8710   25.1200   46.1200 C   0  0  0  0  0  0  0  0  0  0  0  0
   57.1240   24.6960   45.0080 C   0  0  0  0  0  0  0  0  0  0  0  0
   55.9310   23.9860   45.1860 C   0  0  0  0  0  0  0  0  0  0  0  0
   55.4710   23.7000   46.4750 C   0  0  0  0  0  0  0  0  0  0  0  0
   53.9740   22.8140   46.6960 Cl  0  0  0  0  0  0  0  0  0  0  0  0
   56.2010   24.1320   47.5880 C   0  0  0  0  0  0  0  0  0  0  0  0
   57.3930   24.8410   47.4130 C   0  0  0  0  0  0  0  0  0  0  0  0
   58.2260   27.7930   44.5660 C   0  0  0  0  0  0  0  0  0  0  0  0
   58.6080   29.2150   44.1480 C   0  0  0  0  0  0  0  0  0  0  0  0
   57.6939   34.4589   46.3243 H   0  0  0  0  0  0  0  0  0  0  0  0
   58.7562   34.3562   44.8795 H   0  0  0  0  0  0  0  0  0  0  0  0
   57.1583   33.5357   44.8795 H   0  0  0  0  0  0  0  0  0  0  0  0
   59.7478   32.5631   45.8222 H   0  0  0  0  0  0  0  0  0  0  0  0
   58.9660   31.6250   47.9010 H   0  0  0  0  0  0  0  0  0  0  0  0
   60.9837   34.3761   45.8924 H   0  0  0  0  0  0  0  0  0  0  0  0
   63.4063   34.0889   45.3794 H   0  0  0  0  0  0  0  0  0  0  0  0
   64.9537   33.1734   47.1055 H   0  0  0  0  0  0  0  0  0  0  0  0
   66.1480   32.8660   48.7980 H   0  0  0  0  0  0  0  0  0  0  0  0
   64.4760   31.1090   51.3620 H   0  0  0  0  0  0  0  0  0  0  0  0
   62.8600   31.0970   50.5780 H   0  0  0  0  0  0  0  0  0  0  0  0
   61.6454   32.8446   49.8868 H   0  0  0  0  0  0  0  0  0  0  0  0
   60.4325   30.2614   46.6175 H   0  0  0  0  0  0  0  0  0  0  0  0
   58.9481   29.5246   47.3561 H   0  0  0  0  0  0  0  0  0  0  0  0
   60.9766   28.2295   45.4873 H   0  0  0  0  0  0  0  0  0  0  0  0
   60.4930   27.7354   47.1527 H   0  0  0  0  0  0  0  0  0  0  0  0
   57.4788   24.9233   43.9919 H   0  0  0  0  0  0  0  0  0  0  0  0
   55.3545   23.6525   44.3105 H   0  0  0  0  0  0  0  0  0  0  0  0
   55.8362   23.9133   48.6024 H   0  0  0  0  0  0  0  0  0  0  0  0
   57.9603   25.1826   48.2914 H   0  0  0  0  0  0  0  0  0  0  0  0
   58.3212   27.1266   43.6960 H   0  0  0  0  0  0  0  0  0  0  0  0
   57.1900   27.8075   44.9354 H   0  0  0  0  0  0  0  0  0  0  0  0
   59.5528   29.1885   43.5853 H   0  0  0  0  0  0  0  0  0  0  0  0
   57.8107   29.6335   43.5161 H   0  0  0  0  0  0  0  0  0  0  0  0
  1  2  1  0
  2  3  1  0
  3  4  1  0
  4  5  2  0
  4  6  2  0
  4  7  1  0
  7  8  2  0
  8  9  1  0
  9 10  2  0
 10 11  1  0
 11 12  1  0
 12 13  2  3
 12 14  1  0
 11 15  2  0
  2 16  1  0
 16 17  2  0
 16 18  1  0
 18 19  1  0
 19 20  1  0
 20 21  1  0
 21 22  1  0
 22 23  2  0
 22 24  1  0
 24 25  2  0
 25 26  1  0
 26 27  2  0
 27 28  1  0
 27 29  1  0
 29 30  2  0
 21 31  1  0
 31 32  1  0
 15  7  1  0
 32 18  1  0
 30 24  1  0
  1 33  1  0
  1 34  1  0
  1 35  1  0
  2 36  1  1
  3 37  1  0
  8 38  1  0
  9 39  1  0
 10 40  1  0
 13 41  1  0
 14 42  1  0
 14 43  1  0
 15 44  1  0
 19 45  1  0
 19 46  1  0
 20 47  1  0
 20 48  1  0
 25 49  1  0
 26 50  1  0
 29 51  1  0
 30 52  1  0
 31 53  1  0
 31 54  1  0
 32 55  1  0
 32 56  1  0
M  END
>  <UniqueID>  (47) 
41

>  <SMILES>  (47) 
C[C@@H](NS(=O)(=O)c1cccc(C(=N)N)c1)C(=O)N1CCN(C(=O)c2ccc(Cl)cc2)CC1

>  <Energy>  (47) 
65.57063189711367

>  <Genealogy>  (47) 
C[C@@H](NS(=O)(=O)c1cccc(C(=N)N)c1)C(=O)N1CCN(C(=O)c2ccc(Cl)cc2)CC1 (chirality)
C[C@@H](NS(=O)(=O)c1cccc(C(=N)N)c1)C(=O)N1CCN(C(=O)c2ccc(Cl)cc2)CC1 (3D coordinates assigned)
C[C@@H](NS(=O)(=O)c1cccc(C(=N)N)c1)C(=O)N1CCN(C(=O)c2ccc(Cl)cc2)CC1 (nonaromatic ring conformer: 65.57063189711367 kcal/mol)

>  <smiles>  (47) 
CC(NS(=O)(=O)c1cccc(C(=N)N)c1)C(=O)N1CCN(C(=O)c2ccc(Cl)cc2)CC1

>  <score_type>  (47) 
oracle

>  <origin>  (47) 
adg

>  <m_score__min__energy>  (47) 
-9.5299999999999994

>  <m_primary>  (47) 
energy

$$$$
47:0
     RDKit          3D

 45 47  0  0  0  0  0  0  0  0999 V2000
   64.1380   32.5140   47.3570 N   0  0  0  0  0  0  0  0  0  0  0  0
   63.1180   33.4960   47.5350 C   0  0  0  0  0  0  0  0  0  0  0  0
   62.6390   34.0880   46.5310 O   0  0  0  0  0  0  0  0  0  0  0  0
   62.6440   33.8610   48.9120 C   0  0  0  0  0  0  0  0  0  0  0  0
   62.3510   32.6170   49.7590 C   0  0  0  0  0  0  0  0  0  0  0  0
   61.4190   31.6660   49.0520 C   0  0  0  0  0  0  0  0  0  0  0  0
   60.4330   32.1560   48.1820 C   0  0  0  0  0  0  0  0  0  0  0  0
   59.5510   31.2760   47.5490 C   0  0  0  0  0  0  0  0  0  0  0  0
   59.6390   29.8920   47.7810 C   0  0  0  0  0  0  0  0  0  0  0  0
   58.7540   28.9900   47.1690 O   0  0  0  0  0  0  0  0  0  0  0  0
   57.9550   29.2850   46.0570 C   0  0  0  0  0  0  0  0  0  0  0  0
   58.3980   30.1350   45.0370 C   0  0  0  0  0  0  0  0  0  0  0  0
   57.5520   30.4180   43.9540 C   0  0  0  0  0  0  0  0  0  0  0  0
   57.9210   31.2850   42.9110 O   0  0  0  0  0  0  0  0  0  0  0  0
   57.7220   32.7000   42.9050 C   0  0  0  0  0  0  0  0  0  0  0  0
   58.0740   33.3040   44.2400 C   0  0  0  0  0  0  0  0  0  0  0  0
   57.1780   33.2010   45.3180 C   0  0  0  0  0  0  0  0  0  0  0  0
   57.4950   33.7710   46.5550 C   0  0  0  0  0  0  0  0  0  0  0  0
   58.7030   34.4560   46.7220 C   0  0  0  0  0  0  0  0  0  0  0  0
   59.0100   35.0060   47.9220 F   0  0  0  0  0  0  0  0  0  0  0  0
   59.5920   34.5760   45.6500 C   0  0  0  0  0  0  0  0  0  0  0  0
   59.2790   34.0050   44.4120 C   0  0  0  0  0  0  0  0  0  0  0  0
   56.2950   29.8070   43.9190 C   0  0  0  0  0  0  0  0  0  0  0  0
   55.5030   30.0320   42.9670 O   0  0  0  0  0  0  0  0  0  0  0  0
   55.9270   28.9620   44.9160 N   0  0  0  0  0  0  0  0  0  0  0  0
   56.7300   28.7080   45.9490 N   0  0  0  0  0  0  0  0  0  0  0  0
   60.6040   29.4050   48.6760 C   0  0  0  0  0  0  0  0  0  0  0  0
   60.7220   27.6840   49.0110 Cl  0  0  0  0  0  0  0  0  0  0  0  0
   61.4920   30.2870   49.3030 C   0  0  0  0  0  0  0  0  0  0  0  0
   64.5620   32.0310   48.1800 H   0  0  0  0  0  0  0  0  0  0  0  0
   64.4870   32.2850   46.4000 H   0  0  0  0  0  0  0  0  0  0  0  0
   63.4227   34.4567   49.4109 H   0  0  0  0  0  0  0  0  0  0  0  0
   61.7113   34.4357   48.8126 H   0  0  0  0  0  0  0  0  0  0  0  0
   63.2978   32.0978   49.9688 H   0  0  0  0  0  0  0  0  0  0  0  0
   61.8649   32.9437   50.6901 H   0  0  0  0  0  0  0  0  0  0  0  0
   60.3540   33.2375   47.9975 H   0  0  0  0  0  0  0  0  0  0  0  0
   58.7836   31.6683   46.8654 H   0  0  0  0  0  0  0  0  0  0  0  0
   59.4035   30.5785   45.0842 H   0  0  0  0  0  0  0  0  0  0  0  0
   58.3590   33.1489   42.1286 H   0  0  0  0  0  0  0  0  0  0  0  0
   56.6605   32.9022   42.6995 H   0  0  0  0  0  0  0  0  0  0  0  0
   56.2235   32.6699   45.1881 H   0  0  0  0  0  0  0  0  0  0  0  0
   56.7936   33.6806   47.3975 H   0  0  0  0  0  0  0  0  0  0  0  0
   60.5390   35.1202   45.7801 H   0  0  0  0  0  0  0  0  0  0  0  0
   59.9794   34.1054   43.5697 H   0  0  0  0  0  0  0  0  0  0  0  0
   62.2515   29.8970   49.9965 H   0  0  0  0  0  0  0  0  0  0  0  0
  1  2  1  0
  2  3  2  0
  2  4  1  0
  4  5  1  0
  5  6  1  0
  6  7  2  0
  7  8  1  0
  8  9  2  0
  9 10  1  0
 10 11  1  0
 11 12  1  0
 12 13  2  0
 13 14  1  0
 14 15  1  0
 15 16  1  0
 16 17  2  0
 17 18  1  0
 18 19  2  0
 19 20  1  0
 19 21  1  0
 21 22  2  0
 13 23  1  0
 23 24  2  0
 23 25  1  0
 25 26  1  0
  9 27  1  0
 27 28  1  0
 27 29  2  0
 29  6  1  0
 26 11  2  0
 22 16  1  0
  1 30  1  0
  1 31  1  0
  4 32  1  0
  4 33  1  0
  5 34  1  0
  5 35  1  0
  7 36  1  0
  8 37  1  0
 12 38  1  0
 15 39  1  0
 15 40  1  0
 17 41  1  0
 18 42  1  0
 21 43  1  0
 22 44  1  0
 29 45  1  0
M  CHG  1  25  -1
M  END
>  <UniqueID>  (48) 
42

>  <SMILES>  (48) 
NC(=O)CCc1ccc(Oc2cc(OCc3ccc(F)cc3)c(=O)[n-]n2)c(Cl)c1

>  <Energy>  (48) 
47.42850216802435

>  <Genealogy>  (48) 
NC(=O)CCc1ccc(Oc2cc(OCc3ccc(F)cc3)c(=O)[n-]n2)c(Cl)c1 (protonated)
NC(=O)CCc1ccc(Oc2cc(OCc3ccc(F)cc3)c(=O)[n-]n2)c(Cl)c1 (3D coordinates assigned)
NC(=O)CCc1ccc(Oc2cc(OCc3ccc(F)cc3)c(=O)[n-]n2)c(Cl)c1 (optimized conformer: 47.42850216802435 kcal/mol)

>  <smiles>  (48) 
NC(=O)CCc1ccc(Oc2cc(OCc3ccc(F)cc3)c(=O)[nH]n2)c(Cl)c1

>  <score_type>  (48) 
oracle

>  <origin>  (48) 
adg

>  <m_score__min__energy>  (48) 
-10.710000000000001

>  <m_primary>  (48) 
energy

$$$$
48:0
     RDKit          3D

 41 43  0  0  0  0  0  0  0  0999 V2000
   58.4520   27.4960   43.3210 O   0  0  0  0  0  0  0  0  0  0  0  0
   57.8160   27.0230   44.2990 C   0  0  0  0  0  0  0  0  0  0  0  0
   57.0760   27.9160   45.1430 N   0  0  0  0  0  0  0  0  0  0  0  0
   57.2490   29.3400   45.2000 C   0  0  0  0  0  0  0  0  0  0  0  0
   56.6910   30.1850   44.2270 C   0  0  0  0  0  0  0  0  0  0  0  0
   56.9440   31.5580   44.2610 C   0  0  0  0  0  0  0  0  0  0  0  0
   57.7470   32.1010   45.2710 C   0  0  0  0  0  0  0  0  0  0  0  0
   58.1910   33.8030   45.2080 S   0  0  0  0  0  0  0  0  0  0  0  0
   59.2760   33.9870   44.1850 O   0  0  0  0  0  0  0  0  0  0  0  0
   57.0060   34.6490   44.8330 O   0  0  0  0  0  0  0  0  0  0  0  0
   58.7760   34.3030   46.7620 N   0  0  0  0  0  0  0  0  0  0  0  0
   60.1180   34.1060   47.2320 C   0  0  0  0  0  0  0  0  0  0  0  0
   60.3740   34.2210   48.6050 C   0  0  0  0  0  0  0  0  0  0  0  0
   61.6750   34.0760   49.0970 C   0  0  0  0  0  0  0  0  0  0  0  0
   62.7300   33.8070   48.2210 C   0  0  0  0  0  0  0  0  0  0  0  0
   62.4820   33.6720   46.8530 C   0  0  0  0  0  0  0  0  0  0  0  0
   61.1820   33.8170   46.3570 C   0  0  0  0  0  0  0  0  0  0  0  0
   58.2480   31.2690   46.2800 C   0  0  0  0  0  0  0  0  0  0  0  0
   57.9900   29.8950   46.2500 C   0  0  0  0  0  0  0  0  0  0  0  0
   57.8450   25.5610   44.5390 C   0  0  0  0  0  0  0  0  0  0  0  0
   57.0150   24.7310   43.7680 C   0  0  0  0  0  0  0  0  0  0  0  0
   57.0460   23.3330   43.9220 C   0  0  0  0  0  0  0  0  0  0  0  0
   56.2090   22.4860   43.1130 N   0  0  0  0  0  0  0  0  0  0  0  0
   56.4590   21.2690   42.9960 O   0  0  0  0  0  0  0  0  0  0  0  0
   55.1180   23.0060   42.4550 O   0  0  0  0  0  0  0  0  0  0  0  0
   57.9110   22.7740   44.8770 C   0  0  0  0  0  0  0  0  0  0  0  0
   58.7160   23.5920   45.6680 C   0  0  0  0  0  0  0  0  0  0  0  0
   58.6900   24.9820   45.5120 C   0  0  0  0  0  0  0  0  0  0  0  0
   59.6720   25.9560   46.6000 Cl  0  0  0  0  0  0  0  0  0  0  0  0
   56.0529   29.7643   43.4359 H   0  0  0  0  0  0  0  0  0  0  0  0
   56.5111   32.2147   43.4920 H   0  0  0  0  0  0  0  0  0  0  0  0
   59.5465   34.4266   49.3000 H   0  0  0  0  0  0  0  0  0  0  0  0
   61.8682   34.1739   50.1755 H   0  0  0  0  0  0  0  0  0  0  0  0
   63.7542   33.7017   48.6081 H   0  0  0  0  0  0  0  0  0  0  0  0
   63.3107   33.4512   46.1642 H   0  0  0  0  0  0  0  0  0  0  0  0
   60.9907   33.7048   45.2796 H   0  0  0  0  0  0  0  0  0  0  0  0
   58.8458   31.6973   47.0980 H   0  0  0  0  0  0  0  0  0  0  0  0
   58.3706   29.2481   47.0542 H   0  0  0  0  0  0  0  0  0  0  0  0
   56.3309   25.1804   43.0332 H   0  0  0  0  0  0  0  0  0  0  0  0
   57.9535   21.6819   45.0017 H   0  0  0  0  0  0  0  0  0  0  0  0
   59.3778   23.1405   46.4218 H   0  0  0  0  0  0  0  0  0  0  0  0
  1  2  2  0
  2  3  1  0
  3  4  1  0
  4  5  2  0
  5  6  1  0
  6  7  2  0
  7  8  1  0
  8  9  2  0
  8 10  2  0
  8 11  1  0
 11 12  1  0
 12 13  2  0
 13 14  1  0
 14 15  2  0
 15 16  1  0
 16 17  2  0
  7 18  1  0
 18 19  2  0
  2 20  1  0
 20 21  2  0
 21 22  1  0
 22 23  1  0
 23 24  2  0
 23 25  1  0
 22 26  2  0
 26 27  1  0
 27 28  2  0
 28 29  1  0
 19  4  1  0
 28 20  1  0
 17 12  1  0
  5 30  1  0
  6 31  1  0
 13 32  1  0
 14 33  1  0
 15 34  1  0
 16 35  1  0
 17 36  1  0
 18 37  1  0
 19 38  1  0
 21 39  1  0
 26 40  1  0
 27 41  1  0
M  CHG  4   3  -1  11  -1  23   1  25  -1
M  END
>  <UniqueID>  (49) 
43

>  <SMILES>  (49) 
O=C([N-]c1ccc(S(=O)(=O)[N-]c2ccccc2)cc1)c1cc([N+](=O)[O-])ccc1Cl

>  <Energy>  (49) 
56.00969534389029

>  <Genealogy>  (49) 
O=C([N-]c1ccc(S(=O)(=O)[N-]c2ccccc2)cc1)c1cc([N+](=O)[O-])ccc1Cl (protonated)
O=C([N-]c1ccc(S(=O)(=O)[N-]c2ccccc2)cc1)c1cc([N+](=O)[O-])ccc1Cl (3D coordinates assigned)
O=C([N-]c1ccc(S(=O)(=O)[N-]c2ccccc2)cc1)c1cc([N+](=O)[O-])ccc1Cl (optimized conformer: 56.00969534389029 kcal/mol)

>  <smiles>  (49) 
O=C(Nc1ccc(S(=O)(=O)Nc2ccccc2)cc1)c1cc([N+](=O)[O-])ccc1Cl

>  <score_type>  (49) 
oracle

>  <origin>  (49) 
adg

>  <m_score__min__energy>  (49) 
-11.44

>  <m_primary>  (49) 
energy

$$$$
49:0
     RDKit          3D

 45 48  0  0  0  0  0  0  0  0999 V2000
   57.6340   26.0510   44.6460 C   0  0  0  0  0  0  0  0  0  0  0  0
   56.5370   26.7490   45.8580 S   0  0  0  0  0  0  0  0  0  0  0  0
   57.3030   26.9990   47.1260 O   0  0  0  0  0  0  0  0  0  0  0  0
   55.4140   25.7850   46.1170 O   0  0  0  0  0  0  0  0  0  0  0  0
   55.9030   28.2430   45.2490 N   0  0  0  0  0  0  0  0  0  0  0  0
   56.6780   29.4160   44.9640 C   0  0  0  0  0  0  0  0  0  0  0  0
   56.4210   30.1150   43.7800 C   0  0  0  0  0  0  0  0  0  0  0  0
   57.1520   31.2620   43.4630 C   0  0  0  0  0  0  0  0  0  0  0  0
   58.1480   31.7210   44.3280 C   0  0  0  0  0  0  0  0  0  0  0  0
   58.4230   31.0350   45.5240 C   0  0  0  0  0  0  0  0  0  0  0  0
   59.4810   31.5230   46.4460 C   0  0  0  0  0  0  0  0  0  0  0  0
   60.0850   30.6510   47.3680 C   0  0  0  0  0  0  0  0  0  0  0  0
   61.0790   31.1110   48.2360 C   0  0  0  0  0  0  0  0  0  0  0  0
   61.4920   32.4540   48.2000 C   0  0  0  0  0  0  0  0  0  0  0  0
   62.5460   32.9480   49.1220 C   0  0  0  0  0  0  0  0  0  0  0  0
   62.2440   33.9270   50.0840 C   0  0  0  0  0  0  0  0  0  0  0  0
   63.2370   34.3790   50.9510 C   0  0  0  0  0  0  0  0  0  0  0  0
   64.5310   33.8550   50.8630 C   0  0  0  0  0  0  0  0  0  0  0  0
   65.5480   34.2930   51.7240 C   0  0  0  0  0  0  0  0  0  0  0  0
   66.8350   33.7560   51.6150 C   0  0  0  0  0  0  0  0  0  0  0  0
   67.1120   32.7850   50.6500 C   0  0  0  0  0  0  0  0  0  0  0  0
   66.1040   32.3430   49.7870 C   0  0  0  0  0  0  0  0  0  0  0  0
   64.8060   32.8720   49.8860 C   0  0  0  0  0  0  0  0  0  0  0  0
   63.8160   32.4470   49.0480 N   0  0  0  0  0  0  0  0  0  0  0  0
   60.8890   33.3270   47.2790 C   0  0  0  0  0  0  0  0  0  0  0  0
   59.8950   32.8670   46.4110 C   0  0  0  0  0  0  0  0  0  0  0  0
   57.6820   29.8790   45.8350 C   0  0  0  0  0  0  0  0  0  0  0  0
   58.4569   25.5274   45.1546 H   0  0  0  0  0  0  0  0  0  0  0  0
   57.0798   25.3391   44.0167 H   0  0  0  0  0  0  0  0  0  0  0  0
   58.0441   26.8546   44.0167 H   0  0  0  0  0  0  0  0  0  0  0  0
   55.6381   29.7590   43.0942 H   0  0  0  0  0  0  0  0  0  0  0  0
   56.9428   31.8053   42.5297 H   0  0  0  0  0  0  0  0  0  0  0  0
   58.7206   32.6246   44.0719 H   0  0  0  0  0  0  0  0  0  0  0  0
   59.7726   29.5970   47.4068 H   0  0  0  0  0  0  0  0  0  0  0  0
   61.5417   30.4167   48.9529 H   0  0  0  0  0  0  0  0  0  0  0  0
   61.2251   34.3359   50.1525 H   0  0  0  0  0  0  0  0  0  0  0  0
   63.0036   35.1467   51.7034 H   0  0  0  0  0  0  0  0  0  0  0  0
   65.3336   35.0583   52.4845 H   0  0  0  0  0  0  0  0  0  0  0  0
   67.6315   34.0995   52.2915 H   0  0  0  0  0  0  0  0  0  0  0  0
   68.1261   32.3666   50.5685 H   0  0  0  0  0  0  0  0  0  0  0  0
   66.3281   31.5787   49.0283 H   0  0  0  0  0  0  0  0  0  0  0  0
   64.0430   31.7330   48.3180 H   0  0  0  0  0  0  0  0  0  0  0  0
   61.2018   34.3809   47.2408 H   0  0  0  0  0  0  0  0  0  0  0  0
   59.4325   33.5617   45.6944 H   0  0  0  0  0  0  0  0  0  0  0  0
   57.8895   29.3328   46.7670 H   0  0  0  0  0  0  0  0  0  0  0  0
  1  2  1  0
  2  3  2  0
  2  4  2  0
  2  5  1  0
  5  6  1  0
  6  7  2  0
  7  8  1  0
  8  9  2  0
  9 10  1  0
 10 11  1  0
 11 12  2  0
 12 13  1  0
 13 14  2  0
 14 15  1  0
 15 16  2  0
 16 17  1  0
 17 18  2  0
 18 19  1  0
 19 20  2  0
 20 21  1  0
 21 22  2  0
 22 23  1  0
 23 24  2  0
 14 25  1  0
 25 26  2  0
 10 27  2  0
 27  6  1  0
 26 11  1  0
 24 15  1  0
 23 18  1  0
  1 28  1  0
  1 29  1  0
  1 30  1  0
  7 31  1  0
  8 32  1  0
  9 33  1  0
 12 34  1  0
 13 35  1  0
 16 36  1  0
 17 37  1  0
 19 38  1  0
 20 39  1  0
 21 40  1  0
 22 41  1  0
 24 42  1  0
 25 43  1  0
 26 44  1  0
 27 45  1  0
M  CHG  2   5  -1  24   1
M  END
>  <UniqueID>  (50) 
44

>  <SMILES>  (50) 
CS(=O)(=O)[N-]c1cccc(-c2ccc(-c3ccc4ccccc4[nH+]3)cc2)c1

>  <Energy>  (50) 
61.9559391023107

>  <Genealogy>  (50) 
CS(=O)(=O)[N-]c1cccc(-c2ccc(-c3ccc4ccccc4[nH+]3)cc2)c1 (protonated)
CS(=O)(=O)[N-]c1cccc(-c2ccc(-c3ccc4ccccc4[nH+]3)cc2)c1 (3D coordinates assigned)
CS(=O)(=O)[N-]c1cccc(-c2ccc(-c3ccc4ccccc4[nH+]3)cc2)c1 (optimized conformer: 61.9559391023107 kcal/mol)

>  <smiles>  (50) 
CS(=O)(=O)Nc1cccc(-c2ccc(-c3ccc4ccccc4n3)cc2)c1

>  <score_type>  (50) 
oracle

>  <origin>  (50) 
adg

>  <m_score__min__energy>  (50) 
-10.01

>  <m_primary>  (50) 
energy

$$$$
50:0
     RDKit          3D

 43 45  0  0  0  0  0  0  0  0999 V2000
   60.9480   31.9460   51.0740 C   0  0  0  0  0  0  0  0  0  0  0  0
   61.1440   31.4720   49.7460 O   0  0  0  0  0  0  0  0  0  0  0  0
   61.6110   32.2580   48.6810 C   0  0  0  0  0  0  0  0  0  0  0  0
   62.9820   32.3530   48.3680 C   0  0  0  0  0  0  0  0  0  0  0  0
   63.4080   33.1390   47.2940 C   0  0  0  0  0  0  0  0  0  0  0  0
   62.4760   33.8340   46.5220 C   0  0  0  0  0  0  0  0  0  0  0  0
   61.1150   33.7480   46.8230 C   0  0  0  0  0  0  0  0  0  0  0  0
   60.6790   32.9690   47.9030 C   0  0  0  0  0  0  0  0  0  0  0  0
   58.9230   32.8820   48.2870 S   0  0  0  0  0  0  0  0  0  0  0  0
   58.4480   32.7440   46.5600 C   0  0  0  0  0  0  0  0  0  0  0  0
   58.0550   33.9120   45.8740 C   0  0  0  0  0  0  0  0  0  0  0  0
   57.7560   33.8750   44.4990 C   0  0  0  0  0  0  0  0  0  0  0  0
   57.8370   32.6700   43.7880 C   0  0  0  0  0  0  0  0  0  0  0  0
   58.2050   31.5200   44.4840 C   0  0  0  0  0  0  0  0  0  0  0  0
   58.2890   30.2800   43.9770 N   0  0  0  0  0  0  0  0  0  0  0  0
   58.6160   29.4750   45.0060 C   0  0  0  0  0  0  0  0  0  0  0  0
   58.7510   30.2080   46.1820 C   0  0  0  0  0  0  0  0  0  0  0  0
   58.9460   29.5770   47.5350 C   0  0  0  0  0  0  0  0  0  0  0  0
   60.3510   28.9480   47.6850 C   0  0  2  0  0  0  0  0  0  0  0  0
   60.3730   27.4880   47.2070 C   0  0  0  0  0  0  0  0  0  0  0  0
   60.7930   29.0260   49.0830 N   0  0  0  0  0  0  0  0  0  0  0  0
   58.4900   31.5370   45.8330 C   0  0  0  0  0  0  0  0  0  0  0  0
   61.2672   31.1741   51.7897 H   0  0  0  0  0  0  0  0  0  0  0  0
   61.5427   32.8583   51.2292 H   0  0  0  0  0  0  0  0  0  0  0  0
   59.8827   32.1719   51.2292 H   0  0  0  0  0  0  0  0  0  0  0  0
   63.7204   31.8056   48.9722 H   0  0  0  0  0  0  0  0  0  0  0  0
   64.4797   33.2100   47.0567 H   0  0  0  0  0  0  0  0  0  0  0  0
   62.8137   34.4501   45.6756 H   0  0  0  0  0  0  0  0  0  0  0  0
   60.3826   34.2938   46.2100 H   0  0  0  0  0  0  0  0  0  0  0  0
   57.9812   34.8639   46.4204 H   0  0  0  0  0  0  0  0  0  0  0  0
   57.4570   34.7973   43.9795 H   0  0  0  0  0  0  0  0  0  0  0  0
   57.6164   32.6329   42.7110 H   0  0  0  0  0  0  0  0  0  0  0  0
   58.1050   29.9880   42.9910 H   0  0  0  0  0  0  0  0  0  0  0  0
   58.7572   28.3869   44.9280 H   0  0  0  0  0  0  0  0  0  0  0  0
   58.8182   30.3488   48.3083 H   0  0  0  0  0  0  0  0  0  0  0  0
   58.2015   28.7749   47.6458 H   0  0  0  0  0  0  0  0  0  0  0  0
   61.0432   29.5204   47.0500 H   0  0  0  0  0  0  0  0  0  0  0  0
   60.3831   26.8170   48.0785 H   0  0  0  0  0  0  0  0  0  0  0  0
   59.4778   27.2873   46.6001 H   0  0  0  0  0  0  0  0  0  0  0  0
   61.2739   27.3144   46.6001 H   0  0  0  0  0  0  0  0  0  0  0  0
   60.8700   28.0680   49.4970 H   0  0  0  0  0  0  0  0  0  0  0  0
   60.1120   29.5890   49.6420 H   0  0  0  0  0  0  0  0  0  0  0  0
   61.7250   29.4990   49.1370 H   0  0  0  0  0  0  0  0  0  0  0  0
  1  2  1  0
  2  3  1  0
  3  4  2  0
  4  5  1  0
  5  6  2  0
  6  7  1  0
  7  8  2  0
  8  9  1  0
  9 10  1  0
 10 11  2  0
 11 12  1  0
 12 13  2  0
 13 14  1  0
 14 15  1  0
 15 16  1  0
 16 17  2  0
 17 18  1  0
 18 19  1  0
 19 20  1  0
 19 21  1  0
 17 22  1  0
  8  3  1  0
 22 10  1  0
 22 14  2  0
  1 23  1  0
  1 24  1  0
  1 25  1  0
  4 26  1  0
  5 27  1  0
  6 28  1  0
  7 29  1  0
 11 30  1  0
 12 31  1  0
 13 32  1  0
 15 33  1  0
 16 34  1  0
 18 35  1  0
 18 36  1  0
 19 37  1  6
 20 38  1  0
 20 39  1  0
 20 40  1  0
 21 41  1  0
 21 42  1  0
 21 43  1  0
M  CHG  1  21   1
M  END
>  <UniqueID>  (51) 
45

>  <SMILES>  (51) 
COc1ccccc1Sc1cccc2[nH]cc(C[C@H](C)[NH3+])c12

>  <Energy>  (51) 
70.57458878867823

>  <Genealogy>  (51) 
COc1ccccc1Sc1cccc2[nH]cc(CC(C)[NH3+])c12 (protonated)
COc1ccccc1Sc1cccc2[nH]cc(C[C@H](C)[NH3+])c12 (chirality)
COc1ccccc1Sc1cccc2[nH]cc(C[C@H](C)[NH3+])c12 (3D coordinates assigned)
COc1ccccc1Sc1cccc2[nH]cc(C[C@H](C)[NH3+])c12 (optimized conformer: 70.57458878867823 kcal/mol)

>  <smiles>  (51) 
COc1ccccc1Sc1cccc2[nH]cc(CC(C)N)c12

>  <score_type>  (51) 
oracle

>  <origin>  (51) 
adg

>  <m_score__min__energy>  (51) 
-5.5999999999999996

>  <m_primary>  (51) 
energy

$$$$
51:0
     RDKit          3D

 41 42  0  0  0  0  0  0  0  0999 V2000
   59.2930   34.9450   47.8040 C   0  0  0  0  0  0  0  0  0  0  0  0
   58.8010   34.1920   46.6050 C   0  0  0  0  0  0  0  0  0  0  0  0
   59.3070   34.4820   45.3280 C   0  0  0  0  0  0  0  0  0  0  0  0
   58.8740   33.7510   44.2170 C   0  0  0  0  0  0  0  0  0  0  0  0
   57.9410   32.7210   44.3730 C   0  0  0  0  0  0  0  0  0  0  0  0
   57.3900   31.7810   42.9460 S   0  0  0  0  0  0  0  0  0  0  0  0
   57.4710   30.1600   43.7820 C   0  0  0  0  0  0  0  0  0  0  0  0
   56.1770   29.8610   44.4670 C   0  0  0  0  0  0  0  0  0  0  0  0
   55.2630   30.7290   44.4890 O   0  0  0  0  0  0  0  0  0  0  0  0
   55.9920   28.6090   45.0650 O   0  0  0  0  0  0  0  0  0  0  0  0
   57.0220   27.6300   45.1780 C   0  0  0  0  0  0  0  0  0  0  0  0
   56.7620   26.7110   46.3380 C   0  0  0  0  0  0  0  0  0  0  0  0
   55.6330   26.1650   46.4510 O   0  0  0  0  0  0  0  0  0  0  0  0
   57.7660   26.4320   47.3210 N   0  0  0  0  0  0  0  0  0  0  0  0
   59.1830   26.7370   47.1600 C   0  0  0  0  0  0  0  0  0  0  0  0
   59.4180   28.1890   47.4760 C   0  0  0  0  0  0  0  0  0  0  0  0
   59.0620   28.6890   48.7410 C   0  0  0  0  0  0  0  0  0  0  0  0
   59.2480   30.0400   49.0470 C   0  0  0  0  0  0  0  0  0  0  0  0
   59.7860   30.9060   48.0940 C   0  0  0  0  0  0  0  0  0  0  0  0
   60.1320   30.4260   46.8290 C   0  0  0  0  0  0  0  0  0  0  0  0
   59.9460   29.0740   46.5100 C   0  0  0  0  0  0  0  0  0  0  0  0
   60.3770   28.5280   44.8910 Cl  0  0  0  0  0  0  0  0  0  0  0  0
   57.4530   32.4110   45.6470 C   0  0  0  0  0  0  0  0  0  0  0  0
   57.8830   33.1410   46.7600 C   0  0  0  0  0  0  0  0  0  0  0  0
   58.9596   34.4347   48.7197 H   0  0  0  0  0  0  0  0  0  0  0  0
   60.3921   34.9852   47.7861 H   0  0  0  0  0  0  0  0  0  0  0  0
   58.8884   35.9677   47.7861 H   0  0  0  0  0  0  0  0  0  0  0  0
   60.0462   35.2866   45.2008 H   0  0  0  0  0  0  0  0  0  0  0  0
   59.2685   33.9869   43.2176 H   0  0  0  0  0  0  0  0  0  0  0  0
   57.6754   29.3776   43.0363 H   0  0  0  0  0  0  0  0  0  0  0  0
   58.2742   30.1860   44.5331 H   0  0  0  0  0  0  0  0  0  0  0  0
   57.0602   27.0386   44.2513 H   0  0  0  0  0  0  0  0  0  0  0  0
   57.9798   28.1446   45.3446 H   0  0  0  0  0  0  0  0  0  0  0  0
   59.7737   26.1115   47.8454 H   0  0  0  0  0  0  0  0  0  0  0  0
   59.4888   26.5312   46.1236 H   0  0  0  0  0  0  0  0  0  0  0  0
   58.6341   28.0121   49.4951 H   0  0  0  0  0  0  0  0  0  0  0  0
   58.9699   30.4213   50.0406 H   0  0  0  0  0  0  0  0  0  0  0  0
   59.9376   31.9675   48.3394 H   0  0  0  0  0  0  0  0  0  0  0  0
   60.5526   31.1124   46.0793 H   0  0  0  0  0  0  0  0  0  0  0  0
   56.7299   31.5918   45.7736 H   0  0  0  0  0  0  0  0  0  0  0  0
   57.5005   32.8907   47.7605 H   0  0  0  0  0  0  0  0  0  0  0  0
  1  2  1  0
  2  3  2  0
  3  4  1  0
  4  5  2  0
  5  6  1  0
  6  7  1  0
  7  8  1  0
  8  9  2  0
  8 10  1  0
 10 11  1  0
 11 12  1  0
 12 13  2  0
 12 14  1  0
 14 15  1  0
 15 16  1  0
 16 17  2  0
 17 18  1  0
 18 19  2  0
 19 20  1  0
 20 21  2  0
 21 22  1  0
  5 23  1  0
 23 24  2  0
 24  2  1  0
 21 16  1  0
  1 25  1  0
  1 26  1  0
  1 27  1  0
  3 28  1  0
  4 29  1  0
  7 30  1  0
  7 31  1  0
 11 32  1  0
 11 33  1  0
 15 34  1  0
 15 35  1  0
 17 36  1  0
 18 37  1  0
 19 38  1  0
 20 39  1  0
 23 40  1  0
 24 41  1  0
M  CHG  1  14  -1
M  END
>  <UniqueID>  (52) 
46

>  <SMILES>  (52) 
Cc1ccc(SCC(=O)OCC(=O)[N-]Cc2ccccc2Cl)cc1

>  <Energy>  (52) 
28.678879718973484

>  <Genealogy>  (52) 
Cc1ccc(SCC(=O)OCC(=O)[N-]Cc2ccccc2Cl)cc1 (protonated)
Cc1ccc(SCC(=O)OCC(=O)[N-]Cc2ccccc2Cl)cc1 (3D coordinates assigned)
Cc1ccc(SCC(=O)OCC(=O)[N-]Cc2ccccc2Cl)cc1 (optimized conformer: 28.678879718973484 kcal/mol)

>  <smiles>  (52) 
Cc1ccc(SCC(=O)OCC(=O)NCc2ccccc2Cl)cc1

>  <score_type>  (52) 
oracle

>  <origin>  (52) 
adg

>  <m_score__min__energy>  (52) 
-10.67

>  <m_primary>  (52) 
energy

$$$$
52:0
     RDKit          3D

 36 37  0  0  0  0  0  0  0  0999 V2000
   59.4169   30.7086   44.4096 H   0  0  0  0  0  0  0  0  0  0  0  0
   58.9630   30.4130   45.3670 C   0  0  0  0  0  0  0  0  0  0  0  0
   58.1940   29.2990   45.3720 C   0  0  0  0  0  0  0  0  0  0  0  0
   56.7660   29.3950   44.9940 C   0  0  0  0  0  0  0  0  0  0  0  0
   56.2950   30.4490   44.4910 O   0  0  0  0  0  0  0  0  0  0  0  0
   55.8950   28.2890   45.2230 N   0  0  0  0  0  0  0  0  0  0  0  0
   56.3730   27.0640   45.7770 C   0  0  0  0  0  0  0  0  0  0  0  0
   55.5460   26.1550   46.0530 O   0  0  0  0  0  0  0  0  0  0  0  0
   57.7810   26.8700   46.0060 N   0  0  0  0  0  0  0  0  0  0  0  0
   58.2630   25.6290   46.6220 C   0  0  0  0  0  0  0  0  0  0  0  0
   58.2258   25.7248   47.7172 H   0  0  0  0  0  0  0  0  0  0  0  0
   57.6251   24.7907   46.3054 H   0  0  0  0  0  0  0  0  0  0  0  0
   59.2995   25.4410   46.3054 H   0  0  0  0  0  0  0  0  0  0  0  0
   58.7030   27.9490   45.7410 C   0  0  0  0  0  0  0  0  0  0  0  0
   59.9440   27.7250   45.7730 O   0  0  0  0  0  0  0  0  0  0  0  0
   59.2430   31.2650   46.5420 C   0  0  0  0  0  0  0  0  0  0  0  0
   60.3150   30.9180   47.3800 C   0  0  0  0  0  0  0  0  0  0  0  0
   60.9276   30.0350   47.1456 H   0  0  0  0  0  0  0  0  0  0  0  0
   60.6090   31.6860   48.5090 C   0  0  0  0  0  0  0  0  0  0  0  0
   61.4454   31.4020   49.1646 H   0  0  0  0  0  0  0  0  0  0  0  0
   59.8410   32.8150   48.8060 C   0  0  0  0  0  0  0  0  0  0  0  0
   60.0641   33.4110   49.7032 H   0  0  0  0  0  0  0  0  0  0  0  0
   58.7910   33.1870   47.9650 C   0  0  0  0  0  0  0  0  0  0  0  0
   58.1872   34.0746   48.2049 H   0  0  0  0  0  0  0  0  0  0  0  0
   58.5010   32.4380   46.8180 C   0  0  0  0  0  0  0  0  0  0  0  0
   57.4600   32.8660   45.9860 O   0  0  0  0  0  0  0  0  0  0  0  0
   57.6680   33.6830   44.8340 C   0  0  0  0  0  0  0  0  0  0  0  0
   56.7974   34.3357   44.6726 H   0  0  0  0  0  0  0  0  0  0  0  0
   57.8390   32.8010   43.5950 C   0  0  0  0  0  0  0  0  0  0  0  0
   58.0398   31.7654   43.9070 H   0  0  0  0  0  0  0  0  0  0  0  0
   56.9183   32.8309   42.9938 H   0  0  0  0  0  0  0  0  0  0  0  0
   58.6818   33.1728   42.9938 H   0  0  0  0  0  0  0  0  0  0  0  0
   58.9070   34.5470   45.0580 C   0  0  0  0  0  0  0  0  0  0  0  0
   59.0797   34.6674   46.1377 H   0  0  0  0  0  0  0  0  0  0  0  0
   59.7806   34.0613   44.5988 H   0  0  0  0  0  0  0  0  0  0  0  0
   58.7532   35.5347   44.5988 H   0  0  0  0  0  0  0  0  0  0  0  0
  1  2  1  0
  2  3  2  0
  3  4  1  0
  4  5  2  0
  4  6  1  0
  6  7  1  0
  7  8  2  0
  7  9  1  0
  9 10  1  0
 10 11  1  0
 10 12  1  0
 10 13  1  0
  9 14  1  0
 14 15  2  0
  2 16  1  0
 16 17  2  0
 17 18  1  0
 17 19  1  0
 19 20  1  0
 19 21  2  0
 21 22  1  0
 21 23  1  0
 23 24  1  0
 23 25  2  0
 25 26  1  0
 26 27  1  0
 27 28  1  0
 27 29  1  0
 29 30  1  0
 29 31  1  0
 29 32  1  0
 27 33  1  0
 33 34  1  0
 33 35  1  0
 33 36  1  0
 14  3  1  0
 25 16  1  0
M  CHG  1   6  -1
M  END
>  <UniqueID>  (53) 
47

>  <SMILES>  (53) 
CC(C)Oc1ccccc1/C=C1/C(=O)[N-]C(=O)N(C)C1=O

>  <Energy>  (53) 
45.47149832476576

>  <Genealogy>  (53) 
CC(C)Oc1ccccc1C=C1C(=O)[N-]C(=O)N(C)C1=O (protonated)
CC(C)Oc1ccccc1/C=C1/C(=O)[N-]C(=O)N(C)C1=O (cis-trans isomerization)
CC(C)Oc1ccccc1/C=C1/C(=O)[N-]C(=O)N(C)C1=O (3D coordinates assigned)
CC(C)Oc1ccccc1/C=C1/C(=O)[N-]C(=O)N(C)C1=O (nonaromatic ring conformer: 45.47149832476576 kcal/mol)

>  <smiles>  (53) 
CC(C)Oc1ccccc1C=C1C(=O)NC(=O)N(C)C1=O

>  <score_type>  (53) 
oracle

>  <origin>  (53) 
adg

>  <m_score__min__energy>  (53) 
-9.0500000000000007

>  <m_primary>  (53) 
energy

$$$$
53:0
     RDKit          3D

 30 31  0  0  0  0  0  0  0  0999 V2000
   55.0280   26.6690   45.9900 O   0  0  0  0  0  0  0  0  0  0  0  0
   56.1850   26.3640   46.3840 C   0  0  0  0  0  0  0  0  0  0  0  0
   56.3840   25.1830   47.0870 O   0  0  0  0  0  0  0  0  0  0  0  0
   57.3380   27.2800   46.1190 C   0  0  0  0  0  0  0  0  0  0  0  0
   57.1020   28.0620   44.9070 N   0  0  0  0  0  0  0  0  0  0  0  0
   56.4490   29.3370   44.8450 C   0  0  0  0  0  0  0  0  0  0  0  0
   55.1900   29.3760   44.8830 O   0  0  0  0  0  0  0  0  0  0  0  0
   57.1990   30.6010   44.7090 C   0  0  0  0  0  0  0  0  0  0  0  0
   57.0970   31.3470   43.5290 C   0  0  0  0  0  0  0  0  0  0  0  0
   57.8020   32.5450   43.3900 C   0  0  0  0  0  0  0  0  0  0  0  0
   58.6070   33.0150   44.4310 C   0  0  0  0  0  0  0  0  0  0  0  0
   59.2770   34.2230   44.2740 O   0  0  0  0  0  0  0  0  0  0  0  0
   58.7120   32.2810   45.6310 C   0  0  0  0  0  0  0  0  0  0  0  0
   59.5610   32.7550   46.7500 C   0  0  0  0  0  0  0  0  0  0  0  0
   58.9780   33.1210   47.9750 C   0  0  0  0  0  0  0  0  0  0  0  0
   59.7770   33.5580   49.0340 C   0  0  0  0  0  0  0  0  0  0  0  0
   61.1660   33.6310   48.8890 C   0  0  0  0  0  0  0  0  0  0  0  0
   62.1370   34.1860   50.2450 Cl  0  0  0  0  0  0  0  0  0  0  0  0
   61.7590   33.2600   47.6700 C   0  0  0  0  0  0  0  0  0  0  0  0
   63.5020   33.3260   47.4480 Cl  0  0  0  0  0  0  0  0  0  0  0  0
   60.9570   32.8220   46.6090 C   0  0  0  0  0  0  0  0  0  0  0  0
   57.9890   31.0820   45.7640 C   0  0  0  0  0  0  0  0  0  0  0  0
   57.4613   27.9631   46.9723 H   0  0  0  0  0  0  0  0  0  0  0  0
   58.2476   26.6768   45.9819 H   0  0  0  0  0  0  0  0  0  0  0  0
   56.4591   30.9884   42.7077 H   0  0  0  0  0  0  0  0  0  0  0  0
   57.7230   33.1212   42.4564 H   0  0  0  0  0  0  0  0  0  0  0  0
   57.8867   33.0631   48.1006 H   0  0  0  0  0  0  0  0  0  0  0  0
   59.3109   33.8464   49.9877 H   0  0  0  0  0  0  0  0  0  0  0  0
   61.4239   32.5280   45.6574 H   0  0  0  0  0  0  0  0  0  0  0  0
   58.0435   30.5153   46.7052 H   0  0  0  0  0  0  0  0  0  0  0  0
  1  2  2  0
  2  3  1  0
  2  4  1  0
  4  5  1  0
  5  6  1  0
  6  7  2  0
  6  8  1  0
  8  9  2  0
  9 10  1  0
 10 11  2  0
 11 12  1  0
 11 13  1  0
 13 14  1  0
 14 15  2  0
 15 16  1  0
 16 17  2  0
 17 18  1  0
 17 19  1  0
 19 20  1  0
 19 21  2  0
 13 22  2  0
 22  8  1  0
 21 14  1  0
  4 23  1  0
  4 24  1  0
  9 25  1  0
 10 26  1  0
 15 27  1  0
 16 28  1  0
 21 29  1  0
 22 30  1  0
M  CHG  3   3  -1   5  -1  12  -1
M  END
>  <UniqueID>  (54) 
48

>  <SMILES>  (54) 
O=C([O-])C[N-]C(=O)c1ccc([O-])c(-c2ccc(Cl)c(Cl)c2)c1

>  <Energy>  (54) 
41.04260599541017

>  <Genealogy>  (54) 
O=C([O-])C[N-]C(=O)c1ccc([O-])c(-c2ccc(Cl)c(Cl)c2)c1 (protonated)
O=C([O-])C[N-]C(=O)c1ccc([O-])c(-c2ccc(Cl)c(Cl)c2)c1 (3D coordinates assigned)
O=C([O-])C[N-]C(=O)c1ccc([O-])c(-c2ccc(Cl)c(Cl)c2)c1 (optimized conformer: 41.04260599541017 kcal/mol)

>  <smiles>  (54) 
O=C(O)CNC(=O)c1ccc(O)c(-c2ccc(Cl)c(Cl)c2)c1

>  <score_type>  (54) 
oracle

>  <origin>  (54) 
adg

>  <m_score__min__energy>  (54) 
-13.34

>  <m_primary>  (54) 
energy

$$$$
54:0
     RDKit          3D

 31 32  0  0  0  0  0  0  0  0999 V2000
   56.6820   22.3500   42.9910 C   0  0  0  0  0  0  0  0  0  0  0  0
   56.1900   23.6100   43.6940 C   0  0  0  0  0  0  0  0  0  0  0  0
   55.6010   23.2750   44.9990 N   0  0  0  0  0  0  0  0  0  0  0  0
   55.1770   24.4790   45.7230 C   0  0  0  0  0  0  0  0  0  0  0  0
   56.3920   25.2610   46.1580 C   0  0  0  0  0  0  0  0  0  0  0  0
   56.5130   26.6110   45.7990 C   0  0  0  0  0  0  0  0  0  0  0  0
   57.6150   27.3750   46.2320 C   0  0  0  0  0  0  0  0  0  0  0  0
   57.7840   28.7450   45.8960 C   0  0  0  0  0  0  0  0  0  0  0  0
   56.7600   29.5340   45.1750 C   0  0  0  0  0  0  0  0  0  0  0  0
   55.4750   28.9790   44.9020 N   0  0  0  0  0  0  0  0  0  0  0  0
   56.9990   30.7300   44.8550 O   0  0  0  0  0  0  0  0  0  0  0  0
   58.9640   29.4040   46.2870 C   0  0  0  0  0  0  0  0  0  0  0  0
   59.9390   28.7430   47.0340 C   0  0  0  0  0  0  0  0  0  0  0  0
   59.7570   27.4110   47.4020 C   0  0  0  0  0  0  0  0  0  0  0  0
   58.6090   26.7230   47.0030 C   0  0  0  0  0  0  0  0  0  0  0  0
   58.4590   25.4180   47.3530 N   0  0  0  0  0  0  0  0  0  0  0  0
   57.3840   24.6840   46.9690 C   0  0  0  0  0  0  0  0  0  0  0  0
   57.2930   23.4830   47.3410 O   0  0  0  0  0  0  0  0  0  0  0  0
   56.9743   21.6014   43.7421 H   0  0  0  0  0  0  0  0  0  0  0  0
   55.8767   21.9430   42.3618 H   0  0  0  0  0  0  0  0  0  0  0  0
   57.5500   22.5964   42.3618 H   0  0  0  0  0  0  0  0  0  0  0  0
   57.0375   24.2949   43.8445 H   0  0  0  0  0  0  0  0  0  0  0  0
   55.4216   24.0889   43.0693 H   0  0  0  0  0  0  0  0  0  0  0  0
   56.3420   22.8070   45.5730 H   0  0  0  0  0  0  0  0  0  0  0  0
   54.5563   25.1034   45.0635 H   0  0  0  0  0  0  0  0  0  0  0  0
   54.5937   24.1868   46.6087 H   0  0  0  0  0  0  0  0  0  0  0  0
   55.7392   27.0788   45.1725 H   0  0  0  0  0  0  0  0  0  0  0  0
   54.6210   29.3410   45.3810 H   0  0  0  0  0  0  0  0  0  0  0  0
   59.1197   30.4544   45.9998 H   0  0  0  0  0  0  0  0  0  0  0  0
   60.8543   29.2745   47.3336 H   0  0  0  0  0  0  0  0  0  0  0  0
   60.5196   26.9003   48.0083 H   0  0  0  0  0  0  0  0  0  0  0  0
  1  2  1  0
  2  3  1  0
  3  4  1  0
  4  5  1  0
  5  6  2  0
  6  7  1  0
  7  8  2  0
  8  9  1  0
  9 10  1  0
  9 11  2  0
  8 12  1  0
 12 13  2  0
 13 14  1  0
 14 15  2  0
 15 16  1  0
 16 17  1  0
 17 18  2  0
 17  5  1  0
 15  7  1  0
  1 19  1  0
  1 20  1  0
  1 21  1  0
  2 22  1  0
  2 23  1  0
  3 24  1  0
  4 25  1  0
  4 26  1  0
  6 27  1  0
 10 28  1  0
 12 29  1  0
 13 30  1  0
 14 31  1  0
M  CHG  2  10  -1  16  -1
M  END
>  <UniqueID>  (55) 
49

>  <SMILES>  (55) 
CCNCc1cc2c(C([NH-])=O)cccc2[n-]c1=O

>  <Energy>  (55) 
38.722820105774375

>  <Genealogy>  (55) 
CCNCc1cc2c(C([NH-])=O)cccc2[n-]c1=O (protonated)
CCNCc1cc2c(C([NH-])=O)cccc2[n-]c1=O (3D coordinates assigned)
CCNCc1cc2c(C([NH-])=O)cccc2[n-]c1=O (optimized conformer: 38.722820105774375 kcal/mol)

>  <smiles>  (55) 
CCNCc1cc2c(C(N)=O)cccc2[nH]c1=O

>  <score_type>  (55) 
oracle

>  <origin>  (55) 
adg

>  <m_score__min__energy>  (55) 
-10.380000000000001

>  <m_primary>  (55) 
energy

$$$$
55:0
     RDKit          3D

 50 52  0  0  0  0  0  0  0  0999 V2000
   56.7787   31.0820   43.5040 H   0  0  0  0  0  0  0  0  0  0  0  0
   57.6580   30.5070   43.8300 C   0  0  0  0  0  0  0  0  0  0  0  0
   58.6654   30.8165   43.5147 H   0  0  0  0  0  0  0  0  0  0  0  0
   57.5020   29.4300   44.6110 C   0  0  0  0  0  0  0  0  0  0  0  0
   56.1480   28.9710   45.0040 C   0  0  0  0  0  0  0  0  0  0  0  0
   55.1420   29.7110   44.8380 O   0  0  0  0  0  0  0  0  0  0  0  0
   55.9730   27.7130   45.5680 O   0  0  0  0  0  0  0  0  0  0  0  0
   58.7160   28.6490   45.0520 C   0  0  0  0  0  0  0  0  0  0  0  0
   58.4339   27.5965   45.2023 H   0  0  0  0  0  0  0  0  0  0  0  0
   59.4903   28.7278   44.2747 H   0  0  0  0  0  0  0  0  0  0  0  0
   59.2630   29.2040   46.3410 C   0  0  0  0  0  0  0  0  0  0  0  0
   60.3480   30.0940   46.3310 C   0  0  0  0  0  0  0  0  0  0  0  0
   60.8150   30.3774   45.3762 H   0  0  0  0  0  0  0  0  0  0  0  0
   60.8380   30.6220   47.5290 C   0  0  0  0  0  0  0  0  0  0  0  0
   61.6909   31.3164   47.5100 H   0  0  0  0  0  0  0  0  0  0  0  0
   60.2530   30.2750   48.7530 C   0  0  0  0  0  0  0  0  0  0  0  0
   60.7910   30.8310   49.9260 O   0  0  0  0  0  0  0  0  0  0  0  0
   60.1300   31.7680   50.7740 C   0  0  0  0  0  0  0  0  0  0  0  0
   59.5049   32.4315   50.1583 H   0  0  0  0  0  0  0  0  0  0  0  0
   59.5107   31.2125   51.4936 H   0  0  0  0  0  0  0  0  0  0  0  0
   61.1250   32.6000   51.5400 C   0  0  0  0  0  0  0  0  0  0  0  0
   61.0459   32.6176   52.6370 H   0  0  0  0  0  0  0  0  0  0  0  0
   62.0990   33.3190   50.9700 C   0  0  0  0  0  0  0  0  0  0  0  0
   62.7340   33.9367   51.6221 H   0  0  0  0  0  0  0  0  0  0  0  0
   62.3730   33.3340   49.5220 C   0  0  0  0  0  0  0  0  0  0  0  0
   63.5100   32.6820   49.0300 C   0  0  0  0  0  0  0  0  0  0  0  0
   64.1933   32.1715   49.7246 H   0  0  0  0  0  0  0  0  0  0  0  0
   63.7790   32.6780   47.6590 C   0  0  0  0  0  0  0  0  0  0  0  0
   64.6840   32.1817   47.2787 H   0  0  0  0  0  0  0  0  0  0  0  0
   62.9010   33.3030   46.7700 C   0  0  0  0  0  0  0  0  0  0  0  0
   63.1258   33.3125   45.6932 H   0  0  0  0  0  0  0  0  0  0  0  0
   61.7310   33.9200   47.2470 C   0  0  0  0  0  0  0  0  0  0  0  0
   60.8230   34.5540   46.3860 O   0  0  0  0  0  0  0  0  0  0  0  0
   59.5160   34.1160   46.1230 C   0  0  0  0  0  0  0  0  0  0  0  0
   58.7850   33.5120   47.1540 C   0  0  0  0  0  0  0  0  0  0  0  0
   59.2387   33.3920   48.1489 H   0  0  0  0  0  0  0  0  0  0  0  0
   57.4820   33.0610   46.9250 C   0  0  0  0  0  0  0  0  0  0  0  0
   56.9100   32.5968   47.7419 H   0  0  0  0  0  0  0  0  0  0  0  0
   56.9050   33.1990   45.6600 C   0  0  0  0  0  0  0  0  0  0  0  0
   55.8761   32.8520   45.4841 H   0  0  0  0  0  0  0  0  0  0  0  0
   57.6350   33.7780   44.6180 C   0  0  0  0  0  0  0  0  0  0  0  0
   57.1843   33.8772   43.6195 H   0  0  0  0  0  0  0  0  0  0  0  0
   58.9380   34.2310   44.8450 C   0  0  0  0  0  0  0  0  0  0  0  0
   59.5136   34.6790   44.0216 H   0  0  0  0  0  0  0  0  0  0  0  0
   61.4770   33.9390   48.6240 C   0  0  0  0  0  0  0  0  0  0  0  0
   60.5700   34.4308   49.0054 H   0  0  0  0  0  0  0  0  0  0  0  0
   59.1550   29.3950   48.7630 C   0  0  0  0  0  0  0  0  0  0  0  0
   58.6801   29.1229   49.7172 H   0  0  0  0  0  0  0  0  0  0  0  0
   58.6650   28.8650   47.5660 C   0  0  0  0  0  0  0  0  0  0  0  0
   57.8059   28.1783   47.5834 H   0  0  0  0  0  0  0  0  0  0  0  0
  1  2  1  0
  2  3  1  0
  2  4  2  0
  4  5  1  0
  5  6  2  0
  5  7  1  0
  4  8  1  0
  8  9  1  0
  8 10  1  0
  8 11  1  0
 11 12  2  0
 12 13  1  0
 12 14  1  0
 14 15  1  0
 14 16  2  0
 16 17  1  0
 17 18  1  0
 18 19  1  0
 18 20  1  0
 18 21  1  0
 21 22  1  0
 21 23  2  0
 23 24  1  0
 23 25  1  0
 25 26  2  0
 26 27  1  0
 26 28  1  0
 28 29  1  0
 28 30  2  0
 30 31  1  0
 30 32  1  0
 32 33  1  0
 33 34  1  0
 34 35  2  0
 35 36  1  0
 35 37  1  0
 37 38  1  0
 37 39  2  0
 39 40  1  0
 39 41  1  0
 41 42  1  0
 41 43  2  0
 43 44  1  0
 32 45  2  0
 45 46  1  0
 16 47  1  0
 47 48  1  0
 47 49  2  0
 49 50  1  0
 49 11  1  0
 45 25  1  0
 43 34  1  0
M  CHG  1   7  -1
M  END
>  <UniqueID>  (56) 
50

>  <SMILES>  (56) 
C=C(Cc1ccc(OC/C=C\c2cccc(Oc3ccccc3)c2)cc1)C(=O)[O-]

>  <Energy>  (56) 
62.343096873298464

>  <Genealogy>  (56) 
C=C(Cc1ccc(OCC=Cc2cccc(Oc3ccccc3)c2)cc1)C(=O)[O-] (protonated)
C=C(Cc1ccc(OC/C=C\c2cccc(Oc3ccccc3)c2)cc1)C(=O)[O-] (cis-trans isomerization)
C=C(Cc1ccc(OC/C=C\c2cccc(Oc3ccccc3)c2)cc1)C(=O)[O-] (3D coordinates assigned)
C=C(Cc1ccc(OC/C=C\c2cccc(Oc3ccccc3)c2)cc1)C(=O)[O-] (optimized conformer: 62.343096873298464 kcal/mol)

>  <smiles>  (56) 
C=C(Cc1ccc(OCC=Cc2cccc(Oc3ccccc3)c2)cc1)C(=O)O

>  <score_type>  (56) 
oracle

>  <origin>  (56) 
adg

>  <m_score__min__energy>  (56) 
-11.81

>  <m_primary>  (56) 
energy

$$$$
56:0
     RDKit          3D

 26 27  0  0  0  0  0  0  0  0999 V2000
   58.1110   27.7420   43.4610 C   0  0  0  0  0  0  0  0  0  0  0  0
   57.4400   28.4560   44.6580 C   0  0  1  0  0  0  0  0  0  0  0  0
   57.0420   27.4460   45.7610 C   0  0  0  0  0  0  0  0  0  0  0  0
   58.2610   26.7290   46.3640 C   0  0  0  0  0  0  0  0  0  0  0  0
   59.4200   27.6550   46.6770 C   0  0  0  0  0  0  0  0  0  0  0  0
   60.3360   27.2230   47.3590 O   0  0  0  0  0  0  0  0  0  0  0  0
   59.5120   29.0790   46.1750 C   0  0  0  0  0  0  0  0  0  0  0  0
   58.3890   29.4490   45.2450 C   0  0  0  0  0  0  0  0  0  0  0  0
   58.1040   30.6970   44.8940 C   0  0  0  0  0  0  0  0  0  0  0  0
   56.8850   30.7730   44.0440 C   0  0  1  0  0  0  0  0  0  0  0  0
   57.2510   31.0540   42.7390 F   0  0  0  0  0  0  0  0  0  0  0  0
   56.2750   29.3590   44.1460 C   0  0  2  0  0  0  0  0  0  0  0  0
   55.1600   29.3520   45.0070 O   0  0  0  0  0  0  0  0  0  0  0  0
   58.8196   26.9880   43.8342 H   0  0  0  0  0  0  0  0  0  0  0  0
   57.3408   27.2501   42.8488 H   0  0  0  0  0  0  0  0  0  0  0  0
   58.6497   28.4802   42.8488 H   0  0  0  0  0  0  0  0  0  0  0  0
   56.5173   27.9864   46.5627 H   0  0  0  0  0  0  0  0  0  0  0  0
   56.3966   26.6830   45.3012 H   0  0  0  0  0  0  0  0  0  0  0  0
   57.9481   26.2369   47.2967 H   0  0  0  0  0  0  0  0  0  0  0  0
   58.6174   26.0118   45.6099 H   0  0  0  0  0  0  0  0  0  0  0  0
   59.4884   29.7578   47.0403 H   0  0  0  0  0  0  0  0  0  0  0  0
   60.4507   29.1677   45.6084 H   0  0  0  0  0  0  0  0  0  0  0  0
   58.6987   31.5718   45.1958 H   0  0  0  0  0  0  0  0  0  0  0  0
   56.1793   31.5565   44.3572 H   0  0  0  0  0  0  0  0  0  0  0  0
   55.8888   28.9925   43.1835 H   0  0  0  0  0  0  0  0  0  0  0  0
   55.2680   30.0910   45.6610 H   0  0  0  0  0  0  0  0  0  0  0  0
  2  1  1  6
  2  3  1  0
  3  4  1  0
  4  5  1  0
  5  6  2  0
  5  7  1  0
  7  8  1  0
  8  9  2  0
  9 10  1  0
 10 11  1  0
 10 12  1  0
 12 13  1  0
  8  2  1  0
 12  2  1  0
  1 14  1  0
  1 15  1  0
  1 16  1  0
  3 17  1  0
  3 18  1  0
  4 19  1  0
  4 20  1  0
  7 21  1  0
  7 22  1  0
  9 23  1  0
 10 24  1  1
 12 25  1  6
 13 26  1  0
M  END
>  <UniqueID>  (57) 
51

>  <SMILES>  (57) 
C[C@@]12CCC(=O)CC1=C[C@@H](F)C2O

>  <Energy>  (57) 
32.70012066920864

>  <Genealogy>  (57) 
C[C@@]12CCC(=O)CC1=C[C@@H](F)C2O (chirality)
C[C@@]12CCC(=O)CC1=C[C@@H](F)C2O (3D coordinates assigned)
C[C@@]12CCC(=O)CC1=C[C@@H](F)C2O (nonaromatic ring conformer: 32.70012066920864 kcal/mol)

>  <smiles>  (57) 
CC12CCC(=O)CC1=CC(F)C2O

>  <score_type>  (57) 
oracle

>  <origin>  (57) 
adg

>  <m_score__min__energy>  (57) 
-6.3200000000000003

>  <m_primary>  (57) 
energy

$$$$
57:0
     RDKit          3D

 77 82  0  0  0  0  0  0  0  0999 V2000
   59.2990   33.4830   50.0890 C   0  0  0  0  0  0  0  0  0  0  0  0
   59.7420   32.2340   49.9390 C   0  0  0  0  0  0  0  0  0  0  0  0
   60.1520   31.7270   48.7590 N   0  0  0  0  0  0  0  0  0  0  0  0
   60.4880   30.4350   48.9740 C   0  0  0  0  0  0  0  0  0  0  0  0
   60.8490   29.5680   48.0140 C   0  0  0  0  0  0  0  0  0  0  0  0
   60.0500   28.4000   47.6030 C   0  0  0  0  0  0  0  0  0  0  0  0
   60.2240   27.1000   48.0640 C   0  0  0  0  0  0  0  0  0  0  0  0
   61.1280   26.7250   49.0550 O   0  0  0  0  0  0  0  0  0  0  0  0
   59.3860   26.2270   47.4600 N   0  0  0  0  0  0  0  0  0  0  0  0
   58.6970   26.9870   46.5870 C   0  0  0  0  0  0  0  0  0  0  0  0
   57.6920   26.5470   45.7320 C   0  0  0  0  0  0  0  0  0  0  0  0
   57.0500   27.4980   44.9210 C   0  0  0  0  0  0  0  0  0  0  0  0
   57.4450   28.8560   44.9420 C   0  0  0  0  0  0  0  0  0  0  0  0
   56.5200   30.0480   44.0300 S   0  0  0  0  0  0  0  0  0  0  0  0
   57.2430   30.2870   42.7330 O   0  0  0  0  0  0  0  0  0  0  0  0
   55.1480   29.5270   43.7020 O   0  0  0  0  0  0  0  0  0  0  0  0
   56.4130   31.5740   44.8770 N   0  0  0  0  0  0  0  0  0  0  0  0
   57.6460   32.2760   45.2880 C   0  0  0  0  0  0  0  0  0  0  0  0
   57.4430   32.8160   46.7200 C   0  0  0  0  0  0  0  0  0  0  0  0
   58.4580   33.9100   47.0950 C   0  0  0  0  0  0  0  0  0  0  0  0
   59.7100   33.7280   46.3410 N   0  0  0  0  0  0  0  0  0  0  0  0
   60.7840   34.5930   46.8710 C   0  0  0  0  0  0  0  0  0  0  0  0
   61.8670   33.7650   47.5180 C   0  0  0  0  0  0  0  0  0  0  0  0
   62.3560   34.0990   48.7950 C   0  0  0  0  0  0  0  0  0  0  0  0
   63.3480   33.3210   49.4000 C   0  0  0  0  0  0  0  0  0  0  0  0
   63.8630   32.2030   48.7410 C   0  0  0  0  0  0  0  0  0  0  0  0
   63.3800   31.8640   47.4710 C   0  0  0  0  0  0  0  0  0  0  0  0
   62.3840   32.6370   46.8610 C   0  0  0  0  0  0  0  0  0  0  0  0
   59.4890   33.9970   44.9030 C   0  0  0  0  0  0  0  0  0  0  0  0
   58.1610   33.3960   44.3620 C   0  0  0  0  0  0  0  0  0  0  0  0
   58.4880   29.2690   45.8000 C   0  0  0  0  0  0  0  0  0  0  0  0
   59.0680   28.3090   46.6350 C   0  0  0  0  0  0  0  0  0  0  0  0
   60.3100   30.1160   50.3170 C   0  0  0  0  0  0  0  0  0  0  0  0
   60.3590   28.7450   50.9230 C   0  0  0  0  0  0  0  0  0  0  0  0
   59.8270   31.2670   50.9280 C   0  0  0  0  0  0  0  0  0  0  0  0
   59.3240   31.3740   52.3100 C   0  0  0  0  0  0  0  0  0  0  0  0
   59.9950   32.0100   53.1670 O   0  0  0  0  0  0  0  0  0  0  0  0
   58.0670   30.7960   52.6730 N   0  0  0  0  0  0  0  0  0  0  0  0
   57.0230   31.6100   53.2840 C   0  0  0  0  0  0  0  0  0  0  0  0
   55.6740   31.1830   52.6940 C   0  0  0  0  0  0  0  0  0  0  0  0
   55.3620   29.8020   52.8440 O   0  0  0  0  0  0  0  0  0  0  0  0
   56.4840   28.9540   53.0650 C   0  0  0  0  0  0  0  0  0  0  0  0
   57.7690   29.4020   52.3410 C   0  0  0  0  0  0  0  0  0  0  0  0
   58.9782   33.8376   51.0797 H   0  0  0  0  0  0  0  0  0  0  0  0
   59.2544   34.1586   49.2221 H   0  0  0  0  0  0  0  0  0  0  0  0
   60.1800   32.2470   47.8510 H   0  0  0  0  0  0  0  0  0  0  0  0
   61.8058   29.7415   47.4997 H   0  0  0  0  0  0  0  0  0  0  0  0
   57.4080   25.4851   45.6919 H   0  0  0  0  0  0  0  0  0  0  0  0
   56.2289   27.1821   44.2607 H   0  0  0  0  0  0  0  0  0  0  0  0
   58.4420   31.5193   45.2266 H   0  0  0  0  0  0  0  0  0  0  0  0
   56.4293   33.2361   46.7966 H   0  0  0  0  0  0  0  0  0  0  0  0
   57.5905   31.9758   47.4145 H   0  0  0  0  0  0  0  0  0  0  0  0
   58.0322   34.8962   46.8582 H   0  0  0  0  0  0  0  0  0  0  0  0
   58.6759   33.8413   48.1710 H   0  0  0  0  0  0  0  0  0  0  0  0
   61.2194   35.1748   46.0452 H   0  0  0  0  0  0  0  0  0  0  0  0
   60.3544   35.2659   47.6277 H   0  0  0  0  0  0  0  0  0  0  0  0
   61.9550   34.9781   49.3207 H   0  0  0  0  0  0  0  0  0  0  0  0
   63.7237   33.5906   50.3981 H   0  0  0  0  0  0  0  0  0  0  0  0
   64.6440   31.5917   49.2169 H   0  0  0  0  0  0  0  0  0  0  0  0
   63.7856   30.9848   46.9490 H   0  0  0  0  0  0  0  0  0  0  0  0
   62.0062   32.3600   45.8657 H   0  0  0  0  0  0  0  0  0  0  0  0
   59.4668   35.0862   44.7509 H   0  0  0  0  0  0  0  0  0  0  0  0
   60.3117   33.5182   44.3517 H   0  0  0  0  0  0  0  0  0  0  0  0
   57.4034   34.1914   44.3032 H   0  0  0  0  0  0  0  0  0  0  0  0
   58.3487   32.9694   43.3656 H   0  0  0  0  0  0  0  0  0  0  0  0
   58.8333   30.3133   45.8111 H   0  0  0  0  0  0  0  0  0  0  0  0
   60.3560   28.8286   52.0198 H   0  0  0  0  0  0  0  0  0  0  0  0
   59.4809   28.1683   50.5968 H   0  0  0  0  0  0  0  0  0  0  0  0
   61.2760   28.2325   50.5968 H   0  0  0  0  0  0  0  0  0  0  0  0
   57.0190   31.4541   54.3729 H   0  0  0  0  0  0  0  0  0  0  0  0
   57.2055   32.6757   53.0814 H   0  0  0  0  0  0  0  0  0  0  0  0
   54.8845   31.7670   53.1896 H   0  0  0  0  0  0  0  0  0  0  0  0
   55.7395   31.3677   51.6116 H   0  0  0  0  0  0  0  0  0  0  0  0
   56.6885   28.9276   54.1455 H   0  0  0  0  0  0  0  0  0  0  0  0
   56.2192   27.9677   52.6562 H   0  0  0  0  0  0  0  0  0  0  0  0
   58.6074   28.7643   52.6577 H   0  0  0  0  0  0  0  0  0  0  0  0
   57.6231   29.3115   51.2545 H   0  0  0  0  0  0  0  0  0  0  0  0
  1  2  2  0
  2  3  1  0
  3  4  1  0
  4  5  2  3
  5  6  1  0
  6  7  2  0
  7  8  1  0
  7  9  1  0
  9 10  1  0
 10 11  2  0
 11 12  1  0
 12 13  2  0
 13 14  1  0
 14 15  2  0
 14 16  2  0
 14 17  1  0
 17 18  1  0
 18 19  1  0
 19 20  1  0
 20 21  1  0
 21 22  1  0
 22 23  1  0
 23 24  2  0
 24 25  1  0
 25 26  2  0
 26 27  1  0
 27 28  2  0
 21 29  1  0
 29 30  1  0
 13 31  1  0
 31 32  2  0
  4 33  1  0
 33 34  1  0
 33 35  2  0
 35 36  1  0
 36 37  2  0
 36 38  1  0
 38 39  1  0
 39 40  1  0
 40 41  1  0
 41 42  1  0
 42 43  1  0
 35  2  1  0
 43 38  1  0
 32  6  1  0
 32 10  1  0
 30 18  1  0
 28 23  1  0
  1 44  1  0
  1 45  1  0
  3 46  1  0
  5 47  1  0
 11 48  1  0
 12 49  1  0
 18 50  1  0
 19 51  1  0
 19 52  1  0
 20 53  1  0
 20 54  1  0
 22 55  1  0
 22 56  1  0
 24 57  1  0
 25 58  1  0
 26 59  1  0
 27 60  1  0
 28 61  1  0
 29 62  1  0
 29 63  1  0
 30 64  1  0
 30 65  1  0
 31 66  1  0
 34 67  1  0
 34 68  1  0
 34 69  1  0
 39 70  1  0
 39 71  1  0
 40 72  1  0
 40 73  1  0
 42 74  1  0
 42 75  1  0
 43 76  1  0
 43 77  1  0
M  CHG  3   8  -1   9  -1  17  -1
M  END
>  <UniqueID>  (58) 
52

>  <SMILES>  (58) 
C=c1[nH]c(=Cc2c([O-])[n-]c3ccc(S(=O)(=O)[N-]C4CCN(Cc5ccccc5)CC4)cc23)c(C)c1C(=O)N1CCOCC1

>  <Energy>  (58) 
183.34180154431

>  <Genealogy>  (58) 
C=c1[nH]c(=Cc2c([O-])[n-]c3ccc(S(=O)(=O)[N-]C4CCN(Cc5ccccc5)CC4)cc23)c(C)c1C(=O)N1CCOCC1 (protonated)
C=c1[nH]c(=Cc2c([O-])[n-]c3ccc(S(=O)(=O)[N-]C4CCN(Cc5ccccc5)CC4)cc23)c(C)c1C(=O)N1CCOCC1 (3D coordinates assigned)
C=c1[nH]c(=Cc2c([O-])[n-]c3ccc(S(=O)(=O)[N-]C4CCN(Cc5ccccc5)CC4)cc23)c(C)c1C(=O)N1CCOCC1 (nonaromatic ring conformer: 183.34180154431 kcal/mol)

>  <smiles>  (58) 
C=c1[nH]c(=Cc2c(O)[nH]c3ccc(S(=O)(=O)NC4CCN(Cc5ccccc5)CC4)cc23)c(C)c1C(=O)N1CCOCC1

>  <score_type>  (58) 
oracle

>  <origin>  (58) 
adg

>  <m_score__min__energy>  (58) 
-17.870000000000001

>  <m_primary>  (58) 
energy

$$$$
58:0
     RDKit          3D

 25 26  0  0  0  0  0  0  0  0999 V2000
   54.8100   26.3430   45.9510 N   0  0  0  0  0  0  0  0  0  0  0  0
   55.3340   25.0180   45.9910 C   0  0  0  0  0  0  0  0  0  0  0  0
   55.7450   24.5390   47.0820 O   0  0  0  0  0  0  0  0  0  0  0  0
   55.4240   24.2090   44.7370 C   0  0  0  0  0  0  0  0  0  0  0  0
   57.1670   23.9590   44.2590 S   0  0  0  0  0  0  0  0  0  0  0  0
   57.7390   25.4920   44.9860 C   0  0  0  0  0  0  0  0  0  0  0  0
   57.4080   26.7100   44.5130 N   0  0  0  0  0  0  0  0  0  0  0  0
   57.9810   27.7150   45.2330 C   0  0  0  0  0  0  0  0  0  0  0  0
   57.7690   29.1400   44.8730 C   0  0  0  0  0  0  0  0  0  0  0  0
   58.3960   30.1820   45.5870 C   0  0  0  0  0  0  0  0  0  0  0  0
   58.1810   31.5160   45.2290 C   0  0  0  0  0  0  0  0  0  0  0  0
   57.3410   31.8300   44.1600 C   0  0  0  0  0  0  0  0  0  0  0  0
   56.7090   30.8100   43.4460 C   0  0  0  0  0  0  0  0  0  0  0  0
   56.9200   29.4730   43.8000 C   0  0  0  0  0  0  0  0  0  0  0  0
   58.7780   27.2790   46.2970 C   0  0  0  0  0  0  0  0  0  0  0  0
   58.7520   25.5970   46.3170 S   0  0  0  0  0  0  0  0  0  0  0  0
   55.1840   27.0480   45.2780 H   0  0  0  0  0  0  0  0  0  0  0  0
   54.9506   23.2301   44.9034 H   0  0  0  0  0  0  0  0  0  0  0  0
   54.9081   24.7482   43.9289 H   0  0  0  0  0  0  0  0  0  0  0  0
   59.0590   29.9433   46.4317 H   0  0  0  0  0  0  0  0  0  0  0  0
   58.6758   32.3211   45.7920 H   0  0  0  0  0  0  0  0  0  0  0  0
   57.1767   32.8809   43.8798 H   0  0  0  0  0  0  0  0  0  0  0  0
   56.0449   31.0577   42.6048 H   0  0  0  0  0  0  0  0  0  0  0  0
   56.4178   28.6741   43.2347 H   0  0  0  0  0  0  0  0  0  0  0  0
   59.3266   27.9242   46.9989 H   0  0  0  0  0  0  0  0  0  0  0  0
  1  2  1  0
  2  3  2  0
  2  4  1  0
  4  5  1  0
  5  6  1  0
  6  7  2  0
  7  8  1  0
  8  9  1  0
  9 10  2  0
 10 11  1  0
 11 12  2  0
 12 13  1  0
 13 14  2  0
  8 15  2  0
 15 16  1  0
 16  6  1  0
 14  9  1  0
  1 17  1  0
  4 18  1  0
  4 19  1  0
 10 20  1  0
 11 21  1  0
 12 22  1  0
 13 23  1  0
 14 24  1  0
 15 25  1  0
M  CHG  1   1  -1
M  END
>  <UniqueID>  (59) 
53

>  <SMILES>  (59) 
[NH-]C(=O)CSc1nc(-c2ccccc2)cs1

>  <Energy>  (59) 
51.68448562892246

>  <Genealogy>  (59) 
[NH-]C(=O)CSc1nc(-c2ccccc2)cs1 (protonated)
[NH-]C(=O)CSc1nc(-c2ccccc2)cs1 (3D coordinates assigned)
[NH-]C(=O)CSc1nc(-c2ccccc2)cs1 (optimized conformer: 51.68448562892246 kcal/mol)

>  <smiles>  (59) 
NC(=O)CSc1nc(-c2ccccc2)cs1

>  <score_type>  (59) 
oracle

>  <origin>  (59) 
adg

>  <m_score__min__energy>  (59) 
-10.140000000000001

>  <m_primary>  (59) 
energy

$$$$
59:0
     RDKit          3D

 54 57  0  0  0  0  0  0  0  0999 V2000
   56.1455   30.3962   44.0835 H   0  0  0  0  0  0  0  0  0  0  0  0
   56.7770   29.8440   44.7950 C   0  0  0  0  0  0  0  0  0  0  0  0
   57.5890   30.5130   45.6490 N   0  0  0  0  0  0  0  0  0  0  0  0
   58.3780   29.8560   46.5420 C   0  0  0  0  0  0  0  0  0  0  0  0
   59.1450   30.5120   47.3650 N   0  0  0  0  0  0  0  0  0  0  0  0
   60.5610   30.8200   47.1500 C   0  0  0  0  0  0  0  0  0  0  0  0
   61.1581   29.9206   47.3612 H   0  0  0  0  0  0  0  0  0  0  0  0
   60.6889   31.1398   46.1053 H   0  0  0  0  0  0  0  0  0  0  0  0
   61.0310   31.9470   48.0530 C   0  0  0  0  0  0  0  0  0  0  0  0
   61.9900   31.6850   49.0530 C   0  0  0  0  0  0  0  0  0  0  0  0
   62.3740   30.6624   49.1828 H   0  0  0  0  0  0  0  0  0  0  0  0
   62.4580   32.7070   49.8800 C   0  0  0  0  0  0  0  0  0  0  0  0
   63.2157   32.4884   50.6469 H   0  0  0  0  0  0  0  0  0  0  0  0
   61.9680   34.0040   49.7370 C   0  0  0  0  0  0  0  0  0  0  0  0
   62.3517   34.8107   50.3789 H   0  0  0  0  0  0  0  0  0  0  0  0
   60.9920   34.2790   48.7810 C   0  0  0  0  0  0  0  0  0  0  0  0
   60.6056   35.3037   48.6774 H   0  0  0  0  0  0  0  0  0  0  0  0
   60.4960   33.2620   47.9480 C   0  0  0  0  0  0  0  0  0  0  0  0
   59.4090   33.6010   47.0020 C   0  0  0  0  0  0  0  0  0  0  0  0
   59.6980   34.2320   45.7810 C   0  0  0  0  0  0  0  0  0  0  0  0
   60.7376   34.4888   45.5294 H   0  0  0  0  0  0  0  0  0  0  0  0
   58.6690   34.5350   44.8840 C   0  0  0  0  0  0  0  0  0  0  0  0
   58.8997   35.0371   43.9328 H   0  0  0  0  0  0  0  0  0  0  0  0
   57.3480   34.2010   45.1940 C   0  0  0  0  0  0  0  0  0  0  0  0
   56.5393   34.4418   44.4883 H   0  0  0  0  0  0  0  0  0  0  0  0
   57.0550   33.5610   46.4010 C   0  0  0  0  0  0  0  0  0  0  0  0
   56.0153   33.2957   46.6430 H   0  0  0  0  0  0  0  0  0  0  0  0
   58.0800   33.2570   47.3020 C   0  0  0  0  0  0  0  0  0  0  0  0
   57.8455   32.7472   48.2481 H   0  0  0  0  0  0  0  0  0  0  0  0
   58.3520   28.4510   46.5730 C   0  0  0  0  0  0  0  0  0  0  0  0
   59.0700   27.8310   47.4070 O   0  0  0  0  0  0  0  0  0  0  0  0
   57.5410   27.7660   45.7020 N   0  0  0  0  0  0  0  0  0  0  0  0
   57.4660   26.2950   45.7250 C   0  0  0  0  0  0  0  0  0  0  0  0
   58.1291   25.9105   46.5140 H   0  0  0  0  0  0  0  0  0  0  0  0
   57.7798   25.9061   44.7451 H   0  0  0  0  0  0  0  0  0  0  0  0
   56.0550   25.8460   46.0000 C   0  0  0  0  0  0  0  0  0  0  0  0
   55.1450   26.7100   46.1100 O   0  0  0  0  0  0  0  0  0  0  0  0
   55.7070   24.4590   46.0940 N   0  0  0  0  0  0  0  0  0  0  0  0
   56.0300   23.4340   45.1430 C   0  0  0  0  0  0  0  0  0  0  0  0
   55.9780   23.6900   43.7610 C   0  0  0  0  0  0  0  0  0  0  0  0
   55.6640   24.6807   43.4005 H   0  0  0  0  0  0  0  0  0  0  0  0
   56.3220   22.6960   42.8440 C   0  0  0  0  0  0  0  0  0  0  0  0
   56.2667   22.9015   41.7648 H   0  0  0  0  0  0  0  0  0  0  0  0
   56.7360   21.4420   43.2940 C   0  0  0  0  0  0  0  0  0  0  0  0
   56.9981   20.6572   42.5691 H   0  0  0  0  0  0  0  0  0  0  0  0
   56.8180   21.1820   44.6630 C   0  0  0  0  0  0  0  0  0  0  0  0
   57.1506   20.1935   45.0127 H   0  0  0  0  0  0  0  0  0  0  0  0
   56.4780   22.1760   45.5980 C   0  0  0  0  0  0  0  0  0  0  0  0
   56.5680   21.8860   47.0700 C   0  0  0  0  0  0  0  0  0  0  0  0
   56.2889   22.7853   47.6386 H   0  0  0  0  0  0  0  0  0  0  0  0
   55.8827   21.0640   47.3243 H   0  0  0  0  0  0  0  0  0  0  0  0
   57.5983   21.5964   47.3243 H   0  0  0  0  0  0  0  0  0  0  0  0
   56.7480   28.4500   44.8250 C   0  0  0  0  0  0  0  0  0  0  0  0
   56.0850   27.9001   44.1409 H   0  0  0  0  0  0  0  0  0  0  0  0
  1  2  1  0
  2  3  1  0
  3  4  1  0
  4  5  2  0
  5  6  1  0
  6  7  1  0
  6  8  1  0
  6  9  1  0
  9 10  2  0
 10 11  1  0
 10 12  1  0
 12 13  1  0
 12 14  2  0
 14 15  1  0
 14 16  1  0
 16 17  1  0
 16 18  2  0
 18 19  1  0
 19 20  2  0
 20 21  1  0
 20 22  1  0
 22 23  1  0
 22 24  2  0
 24 25  1  0
 24 26  1  0
 26 27  1  0
 26 28  2  0
 28 29  1  0
  4 30  1  0
 30 31  2  0
 30 32  1  0
 32 33  1  0
 33 34  1  0
 33 35  1  0
 33 36  1  0
 36 37  2  0
 36 38  1  0
 38 39  1  0
 39 40  2  0
 40 41  1  0
 40 42  1  0
 42 43  1  0
 42 44  2  0
 44 45  1  0
 44 46  1  0
 46 47  1  0
 46 48  2  0
 48 49  1  0
 49 50  1  0
 49 51  1  0
 49 52  1  0
 32 53  1  0
 53 54  1  0
 53  2  2  0
 18  9  1  0
 28 19  1  0
 48 39  1  0
M  CHG  2   3  -1  38  -1
M  END
>  <UniqueID>  (60) 
54

>  <SMILES>  (60) 
Cc1ccccc1[N-]C(=O)Cn1cc[n-]/c(=N\Cc2ccccc2-c2ccccc2)c1=O

>  <Energy>  (60) 
77.97957684440725

>  <Genealogy>  (60) 
Cc1ccccc1[N-]C(=O)Cn1cc[n-]c(=NCc2ccccc2-c2ccccc2)c1=O (protonated)
Cc1ccccc1[N-]C(=O)Cn1cc[n-]/c(=N\Cc2ccccc2-c2ccccc2)c1=O (cis-trans isomerization)
Cc1ccccc1[N-]C(=O)Cn1cc[n-]/c(=N\Cc2ccccc2-c2ccccc2)c1=O (3D coordinates assigned)
Cc1ccccc1[N-]C(=O)Cn1cc[n-]/c(=N\Cc2ccccc2-c2ccccc2)c1=O (optimized conformer: 77.97957684440725 kcal/mol)

>  <smiles>  (60) 
Cc1ccccc1NC(=O)Cn1cc[nH]c(=NCc2ccccc2-c2ccccc2)c1=O

>  <score_type>  (60) 
oracle

>  <origin>  (60) 
adg

>  <m_score__min__energy>  (60) 
-12.35

>  <m_primary>  (60) 
energy

$$$$
60:0
     RDKit          3D

 46 49  0  0  0  0  0  0  0  0999 V2000
   56.3940   19.3020   43.1620 H   0  0  0  0  0  0  0  0  0  0  0  0
   55.8600   19.9800   43.7500 N   0  0  0  0  0  0  0  0  0  0  0  0
   56.5890   21.5300   43.5200 S   0  0  0  0  0  0  0  0  0  0  0  0
   55.9510   22.2170   42.3460 O   0  0  0  0  0  0  0  0  0  0  0  0
   58.0550   21.3550   43.2380 O   0  0  0  0  0  0  0  0  0  0  0  0
   56.3740   22.5020   44.9720 C   0  0  0  0  0  0  0  0  0  0  0  0
   56.6340   21.9520   46.2330 C   0  0  0  0  0  0  0  0  0  0  0  0
   56.9469   20.9010   46.3193 H   0  0  0  0  0  0  0  0  0  0  0  0
   56.4970   22.7350   47.3820 C   0  0  0  0  0  0  0  0  0  0  0  0
   56.7099   22.3015   48.3703 H   0  0  0  0  0  0  0  0  0  0  0  0
   56.0900   24.0680   47.2780 C   0  0  0  0  0  0  0  0  0  0  0  0
   55.9959   24.6831   48.1851 H   0  0  0  0  0  0  0  0  0  0  0  0
   55.8010   24.6260   46.0250 C   0  0  0  0  0  0  0  0  0  0  0  0
   55.4190   26.0110   45.9580 N   0  0  0  0  0  0  0  0  0  0  0  0
   56.2160   27.0400   45.9470 C   0  0  0  0  0  0  0  0  0  0  0  0
   55.8950   28.1770   45.2710 N   0  0  0  0  0  0  0  0  0  0  0  0
   56.7300   29.2440   45.2840 C   0  0  0  0  0  0  0  0  0  0  0  0
   56.3910   30.3280   44.6480 N   0  0  0  0  0  0  0  0  0  0  0  0
   57.1870   31.5160   44.4900 C   0  0  0  0  0  0  0  0  0  0  0  0
   57.3990   32.3360   45.6060 C   0  0  0  0  0  0  0  0  0  0  0  0
   56.9643   32.0590   46.5778 H   0  0  0  0  0  0  0  0  0  0  0  0
   58.1600   33.5050   45.4930 C   0  0  0  0  0  0  0  0  0  0  0  0
   58.3338   34.1353   46.3776 H   0  0  0  0  0  0  0  0  0  0  0  0
   58.6990   33.8720   44.2580 C   0  0  0  0  0  0  0  0  0  0  0  0
   59.3070   34.7847   44.1726 H   0  0  0  0  0  0  0  0  0  0  0  0
   58.4660   33.0800   43.1310 C   0  0  0  0  0  0  0  0  0  0  0  0
   58.8831   33.3746   42.1567 H   0  0  0  0  0  0  0  0  0  0  0  0
   57.7030   31.9130   43.2400 C   0  0  0  0  0  0  0  0  0  0  0  0
   57.5048   31.3026   42.3466 H   0  0  0  0  0  0  0  0  0  0  0  0
   57.8830   29.1790   45.9990 N   0  0  0  0  0  0  0  0  0  0  0  0
   58.2060   28.0580   46.6940 C   0  0  0  0  0  0  0  0  0  0  0  0
   59.3240   27.9740   47.3540 N   0  0  0  0  0  0  0  0  0  0  0  0
   60.1520   29.0690   47.7850 C   0  0  0  0  0  0  0  0  0  0  0  0
   60.7010   29.9180   46.8150 C   0  0  0  0  0  0  0  0  0  0  0  0
   60.4900   29.7392   45.7503 H   0  0  0  0  0  0  0  0  0  0  0  0
   61.5160   30.9920   47.1910 C   0  0  0  0  0  0  0  0  0  0  0  0
   61.9293   31.6633   46.4239 H   0  0  0  0  0  0  0  0  0  0  0  0
   61.8050   31.2120   48.5410 C   0  0  0  0  0  0  0  0  0  0  0  0
   62.6110   32.2810   48.9140 O   0  0  0  0  0  0  0  0  0  0  0  0
   61.2890   30.3520   49.5140 C   0  0  0  0  0  0  0  0  0  0  0  0
   61.5225   30.5207   50.5756 H   0  0  0  0  0  0  0  0  0  0  0  0
   60.4760   29.2770   49.1400 C   0  0  0  0  0  0  0  0  0  0  0  0
   60.0879   28.5910   49.9074 H   0  0  0  0  0  0  0  0  0  0  0  0
   57.3700   26.9900   46.6610 N   0  0  0  0  0  0  0  0  0  0  0  0
   55.9760   23.8430   44.8670 C   0  0  0  0  0  0  0  0  0  0  0  0
   55.7997   24.2854   43.8755 H   0  0  0  0  0  0  0  0  0  0  0  0
  1  2  1  0
  2  3  1  0
  3  4  2  0
  3  5  2  0
  3  6  1  0
  6  7  2  0
  7  8  1  0
  7  9  1  0
  9 10  1  0
  9 11  2  0
 11 12  1  0
 11 13  1  0
 13 14  1  0
 14 15  2  3
 15 16  1  0
 16 17  1  0
 17 18  2  0
 18 19  1  0
 19 20  2  0
 20 21  1  0
 20 22  1  0
 22 23  1  0
 22 24  2  0
 24 25  1  0
 24 26  1  0
 26 27  1  0
 26 28  2  0
 28 29  1  0
 17 30  1  0
 30 31  1  0
 31 32  2  0
 32 33  1  0
 33 34  2  0
 34 35  1  0
 34 36  1  0
 36 37  1  0
 36 38  2  0
 38 39  1  0
 38 40  1  0
 40 41  1  0
 40 42  2  0
 42 43  1  0
 31 44  1  0
 13 45  2  0
 45 46  1  0
 45  6  1  0
 44 15  1  0
 28 19  1  0
 42 33  1  0
M  CHG  5   2  -1  16  -1  30  -1  39  -1  44  -1
M  END
>  <UniqueID>  (61) 
55

>  <SMILES>  (61) 
[NH-]S(=O)(=O)c1cccc(N=c2[n-]/c(=N/c3ccccc3)[n-]/c(=N\c3ccc([O-])cc3)[n-]2)c1

>  <Energy>  (61) 
68.59119222601963

>  <Genealogy>  (61) 
[NH-]S(=O)(=O)c1cccc(N=c2[n-]c(=Nc3ccccc3)[n-]c(=Nc3ccc([O-])cc3)[n-]2)c1 (protonated)
[NH-]S(=O)(=O)c1cccc(N=c2[n-]/c(=N/c3ccccc3)[n-]/c(=N\c3ccc([O-])cc3)[n-]2)c1 (cis-trans isomerization)
[NH-]S(=O)(=O)c1cccc(N=c2[n-]/c(=N/c3ccccc3)[n-]/c(=N\c3ccc([O-])cc3)[n-]2)c1 (3D coordinates assigned)
[NH-]S(=O)(=O)c1cccc(N=c2[n-]/c(=N/c3ccccc3)[n-]/c(=N\c3ccc([O-])cc3)[n-]2)c1 (optimized conformer: 68.59119222601963 kcal/mol)

>  <smiles>  (61) 
NS(=O)(=O)c1cccc(N=c2[nH]c(=Nc3ccccc3)[nH]c(=Nc3ccc(O)cc3)[nH]2)c1

>  <score_type>  (61) 
oracle

>  <origin>  (61) 
adg

>  <m_score__min__energy>  (61) 
-16.98

>  <m_primary>  (61) 
energy

$$$$
61:0
     RDKit          3D

 30 32  0  0  0  0  0  0  0  0999 V2000
   58.4630   32.8290   47.9070 O   0  0  0  0  0  0  0  0  0  0  0  0
   58.3270   32.7230   46.6620 C   0  0  0  0  0  0  0  0  0  0  0  0
   57.5370   31.7690   46.1280 N   0  0  0  0  0  0  0  0  0  0  0  0
   57.3580   31.6130   44.8120 C   0  0  0  0  0  0  0  0  0  0  0  0
   56.5610   30.6480   44.3130 N   0  0  0  0  0  0  0  0  0  0  0  0
   56.3730   30.4820   42.9800 C   0  0  0  0  0  0  0  0  0  0  0  0
   57.0200   31.3310   42.0810 C   0  0  0  0  0  0  0  0  0  0  0  0
   57.8410   32.3260   42.5680 C   0  0  0  0  0  0  0  0  0  0  0  0
   58.0130   32.4710   43.9340 C   0  0  0  0  0  0  0  0  0  0  0  0
   58.8250   33.4520   44.4700 C   0  0  0  0  0  0  0  0  0  0  0  0
   58.9950   33.5950   45.8330 C   0  0  0  0  0  0  0  0  0  0  0  0
   59.8830   34.6760   46.3030 C   0  0  0  0  0  0  0  0  0  0  0  0
   61.0890   34.2280   47.0110 C   0  0  0  0  0  0  0  0  0  0  0  0
   62.2530   33.8070   46.3770 C   0  0  0  0  0  0  0  0  0  0  0  0
   63.3380   33.3990   47.1160 C   0  0  0  0  0  0  0  0  0  0  0  0
   63.3100   33.3940   48.4910 C   0  0  0  0  0  0  0  0  0  0  0  0
   64.7250   32.8610   49.3720 Cl  0  0  0  0  0  0  0  0  0  0  0  0
   62.1600   33.8090   49.1210 C   0  0  0  0  0  0  0  0  0  0  0  0
   61.0610   34.2210   48.3910 C   0  0  0  0  0  0  0  0  0  0  0  0
   57.0360   31.1140   46.7640 H   0  0  0  0  0  0  0  0  0  0  0  0
   55.7143   29.6827   42.6096 H   0  0  0  0  0  0  0  0  0  0  0  0
   56.8768   31.2079   40.9973 H   0  0  0  0  0  0  0  0  0  0  0  0
   58.3583   33.0032   41.8725 H   0  0  0  0  0  0  0  0  0  0  0  0
   59.3514   34.1392   43.7913 H   0  0  0  0  0  0  0  0  0  0  0  0
   60.1997   35.2617   45.4274 H   0  0  0  0  0  0  0  0  0  0  0  0
   59.2986   35.2576   47.0312 H   0  0  0  0  0  0  0  0  0  0  0  0
   62.3058   33.8004   45.2783 H   0  0  0  0  0  0  0  0  0  0  0  0
   64.2493   33.0690   46.5957 H   0  0  0  0  0  0  0  0  0  0  0  0
   62.1143   33.8131   50.2200 H   0  0  0  0  0  0  0  0  0  0  0  0
   60.1518   34.5477   48.9169 H   0  0  0  0  0  0  0  0  0  0  0  0
  1  2  2  0
  2  3  1  0
  3  4  1  0
  4  5  2  0
  5  6  1  0
  6  7  2  0
  7  8  1  0
  8  9  2  0
  9 10  1  0
 10 11  2  0
 11 12  1  0
 12 13  1  0
 13 14  2  0
 14 15  1  0
 15 16  2  0
 16 17  1  0
 16 18  1  0
 18 19  2  0
 11  2  1  0
 19 13  1  0
  9  4  1  0
  3 20  1  0
  6 21  1  0
  7 22  1  0
  8 23  1  0
 10 24  1  0
 12 25  1  0
 12 26  1  0
 14 27  1  0
 15 28  1  0
 18 29  1  0
 19 30  1  0
M  END
>  <smiles>  (62) 
O=c1[nH]c2ncccc2cc1Cc1ccc(Cl)cc1

>  <score_type>  (62) 
oracle

>  <origin>  (62) 
adg

>  <m_score__min__energy>  (62) 
-7.8799999999999999

>  <m_primary>  (62) 
energy

$$$$
62:0
     RDKit          3D

 54 57  0  0  0  0  0  0  0  0999 V2000
   54.7720   27.0920   46.4000 H   0  0  0  0  0  0  0  0  0  0  0  0
   55.2740   26.1820   46.2990 N   0  0  0  0  0  0  0  0  0  0  0  0
   56.6990   26.1260   46.3040 C   0  0  0  0  0  0  0  0  0  0  0  0
   57.2720   25.1310   46.8250 O   0  0  0  0  0  0  0  0  0  0  0  0
   57.4980   27.2220   45.7070 C   0  0  0  0  0  0  0  0  0  0  0  0
   58.8920   27.2690   45.8930 C   0  0  0  0  0  0  0  0  0  0  0  0
   59.3902   26.4884   46.4867 H   0  0  0  0  0  0  0  0  0  0  0  0
   59.6480   28.3000   45.3290 C   0  0  0  0  0  0  0  0  0  0  0  0
   60.7376   28.3261   45.4779 H   0  0  0  0  0  0  0  0  0  0  0  0
   59.0240   29.2970   44.5770 C   0  0  0  0  0  0  0  0  0  0  0  0
   59.6249   30.1027   44.1300 H   0  0  0  0  0  0  0  0  0  0  0  0
   57.6350   29.2760   44.3890 C   0  0  0  0  0  0  0  0  0  0  0  0
   56.9680   30.3530   43.5710 C   0  0  0  0  0  0  0  0  0  0  0  0
   56.1245   29.9146   43.0175 H   0  0  0  0  0  0  0  0  0  0  0  0
   57.7075   30.7738   42.8738 H   0  0  0  0  0  0  0  0  0  0  0  0
   56.4700   31.4290   44.4310 N   0  0  0  0  0  0  0  0  0  0  0  0
   57.1650   32.1720   45.2470 C   0  0  0  0  0  0  0  0  0  0  0  0
   57.7960   31.5700   46.2910 N   0  0  0  0  0  0  0  0  0  0  0  0
   58.5390   32.2560   47.2050 C   0  0  0  0  0  0  0  0  0  0  0  0
   59.1900   31.4990   48.3010 C   0  0  0  0  0  0  0  0  0  0  0  0
   59.8700   32.1940   49.2560 N   0  0  0  0  0  0  0  0  0  0  0  0
   60.5080   31.5920   50.2970 C   0  0  0  0  0  0  0  0  0  0  0  0
   61.1280   32.3430   51.1630 N   0  0  0  0  0  0  0  0  0  0  0  0
   61.8580   33.5740   50.8720 C   0  0  0  0  0  0  0  0  0  0  0  0
   62.6960   33.6793   51.5768 H   0  0  0  0  0  0  0  0  0  0  0  0
   61.1825   34.4358   50.9764 H   0  0  0  0  0  0  0  0  0  0  0  0
   62.3900   33.5180   49.4620 C   0  0  0  0  0  0  0  0  0  0  0  0
   61.6680   34.1550   48.4380 C   0  0  0  0  0  0  0  0  0  0  0  0
   60.7239   34.6674   48.6751 H   0  0  0  0  0  0  0  0  0  0  0  0
   62.1370   34.1440   47.1230 C   0  0  0  0  0  0  0  0  0  0  0  0
   61.5587   34.6395   46.3293 H   0  0  0  0  0  0  0  0  0  0  0  0
   63.3370   33.5060   46.8150 C   0  0  0  0  0  0  0  0  0  0  0  0
   63.7014   33.4938   45.7772 H   0  0  0  0  0  0  0  0  0  0  0  0
   64.0780   32.8820   47.8210 C   0  0  0  0  0  0  0  0  0  0  0  0
   65.0236   32.3793   47.5699 H   0  0  0  0  0  0  0  0  0  0  0  0
   63.6250   32.8910   49.1530 C   0  0  0  0  0  0  0  0  0  0  0  0
   64.4490   32.2070   50.2120 C   0  0  0  0  0  0  0  0  0  0  0  0
   64.0885   32.5062   51.2072 H   0  0  0  0  0  0  0  0  0  0  0  0
   64.3565   31.1165   50.1011 H   0  0  0  0  0  0  0  0  0  0  0  0
   65.5038   32.4987   50.1011 H   0  0  0  0  0  0  0  0  0  0  0  0
   60.4750   30.1890   50.4000 C   0  0  0  0  0  0  0  0  0  0  0  0
   60.9780   29.6815   51.2363 H   0  0  0  0  0  0  0  0  0  0  0  0
   59.7980   29.4480   49.4310 C   0  0  0  0  0  0  0  0  0  0  0  0
   59.7705   28.3505   49.4992 H   0  0  0  0  0  0  0  0  0  0  0  0
   59.1560   30.0960   48.3760 C   0  0  0  0  0  0  0  0  0  0  0  0
   58.6267   29.5130   47.6079 H   0  0  0  0  0  0  0  0  0  0  0  0
   58.6830   33.6470   47.0580 C   0  0  0  0  0  0  0  0  0  0  0  0
   59.2905   34.2201   47.7739 H   0  0  0  0  0  0  0  0  0  0  0  0
   58.0500   34.2940   45.9980 C   0  0  0  0  0  0  0  0  0  0  0  0
   58.1533   35.3827   45.8797 H   0  0  0  0  0  0  0  0  0  0  0  0
   57.2860   33.5650   45.0870 C   0  0  0  0  0  0  0  0  0  0  0  0
   56.7829   34.0738   44.2516 H   0  0  0  0  0  0  0  0  0  0  0  0
   56.8790   28.2310   44.9460 C   0  0  0  0  0  0  0  0  0  0  0  0
   55.7912   28.2012   44.7855 H   0  0  0  0  0  0  0  0  0  0  0  0
  1  2  1  0
  2  3  1  0
  3  4  2  0
  3  5  1  0
  5  6  2  0
  6  7  1  0
  6  8  1  0
  8  9  1  0
  8 10  2  0
 10 11  1  0
 10 12  1  0
 12 13  1  0
 13 14  1  0
 13 15  1  0
 13 16  1  0
 16 17  2  0
 17 18  1  0
 18 19  1  0
 19 20  1  0
 20 21  1  0
 21 22  1  0
 22 23  2  3
 23 24  1  0
 24 25  1  0
 24 26  1  0
 24 27  1  0
 27 28  2  0
 28 29  1  0
 28 30  1  0
 30 31  1  0
 30 32  2  0
 32 33  1  0
 32 34  1  0
 34 35  1  0
 34 36  2  0
 36 37  1  0
 37 38  1  0
 37 39  1  0
 37 40  1  0
 22 41  1  0
 41 42  1  0
 41 43  2  0
 43 44  1  0
 43 45  1  0
 45 46  1  0
 19 47  2  0
 47 48  1  0
 47 49  1  0
 49 50  1  0
 49 51  2  0
 51 52  1  0
 12 53  2  0
 53 54  1  0
 53  5  1  0
 51 17  1  0
 45 20  2  0
 36 27  1  0
M  CHG  3   2  -1  18  -1  21  -1
M  END
>  <UniqueID>  (63) 
56

>  <SMILES>  (63) 
Cc1ccccc1CN=c1cccc(-c2ccc/c(=N\Cc3cccc(C([NH-])=O)c3)[n-]2)[n-]1

>  <Energy>  (63) 
66.21094961665531

>  <Genealogy>  (63) 
Cc1ccccc1CN=c1cccc(-c2cccc(=NCc3cccc(C([NH-])=O)c3)[n-]2)[n-]1 (protonated)
Cc1ccccc1CN=c1cccc(-c2ccc/c(=N\Cc3cccc(C([NH-])=O)c3)[n-]2)[n-]1 (cis-trans isomerization)
Cc1ccccc1CN=c1cccc(-c2ccc/c(=N\Cc3cccc(C([NH-])=O)c3)[n-]2)[n-]1 (3D coordinates assigned)
Cc1ccccc1CN=c1cccc(-c2ccc/c(=N\Cc3cccc(C([NH-])=O)c3)[n-]2)[n-]1 (optimized conformer: 66.21094961665531 kcal/mol)

>  <smiles>  (63) 
Cc1ccccc1CN=c1cccc(-c2cccc(=NCc3cccc(C(N)=O)c3)[nH]2)[nH]1

>  <score_type>  (63) 
oracle

>  <origin>  (63) 
adg

>  <m_score__min__energy>  (63) 
-15.85

>  <m_primary>  (63) 
energy

$$$$
63:0
     RDKit          3D

 69 72  0  0  0  0  0  0  0  0999 V2000
   56.2870   29.6280   52.7840 C   0  0  0  0  0  0  0  0  0  0  0  0
   57.0780   30.0970   51.6350 N   0  0  0  0  0  0  0  0  0  0  0  0
   57.0510   31.5700   51.5950 C   0  0  0  0  0  0  0  0  0  0  0  0
   58.4650   29.5920   51.7380 C   0  0  0  0  0  0  0  0  0  0  0  0
   59.4650   30.7470   51.9050 C   0  0  0  0  0  0  0  0  0  0  0  0
   60.7880   30.4500   51.1930 C   0  0  0  0  0  0  0  0  0  0  0  0
   60.5940   29.3970   50.1920 N   0  0  0  0  0  0  0  0  0  0  0  0
   60.1220   30.0560   48.6540 S   0  0  0  0  0  0  0  0  0  0  0  0
   61.3020   30.6920   47.9720 O   0  0  0  0  0  0  0  0  0  0  0  0
   59.0780   31.1150   48.8740 O   0  0  0  0  0  0  0  0  0  0  0  0
   59.4500   28.7820   47.6360 C   0  0  0  0  0  0  0  0  0  0  0  0
   59.7560   27.4440   47.8940 C   0  0  0  0  0  0  0  0  0  0  0  0
   59.2110   26.4310   47.1030 C   0  0  0  0  0  0  0  0  0  0  0  0
   58.3450   26.7300   46.0300 C   0  0  0  0  0  0  0  0  0  0  0  0
   57.7850   25.6500   45.2380 N   0  0  0  0  0  0  0  0  0  0  0  0
   57.7620   25.6510   43.7790 C   0  0  0  0  0  0  0  0  0  0  0  0
   57.0160   24.3900   43.3740 C   0  0  0  0  0  0  0  0  0  0  0  0
   57.1220   23.4660   44.5770 C   0  0  0  0  0  0  0  0  0  0  0  0
   57.2830   24.3920   45.7750 C   0  0  0  0  0  0  0  0  0  0  0  0
   58.0810   28.0950   45.7430 C   0  0  0  0  0  0  0  0  0  0  0  0
   57.2470   28.4790   44.6480 N   0  0  0  0  0  0  0  0  0  0  0  0
   56.4290   29.6480   44.6930 C   0  0  0  0  0  0  0  0  0  0  0  0
   55.1800   29.5360   44.8010 O   0  0  0  0  0  0  0  0  0  0  0  0
   57.0430   30.9720   44.5740 C   0  0  0  0  0  0  0  0  0  0  0  0
   57.6480   31.4910   43.4440 C   0  0  0  0  0  0  0  0  0  0  0  0
   58.1360   32.7260   43.8160 C   0  0  0  0  0  0  0  0  0  0  0  0
   57.8100   32.8700   45.1510 C   0  0  0  0  0  0  0  0  0  0  0  0
   58.1870   34.0230   46.0270 C   0  0  0  0  0  0  0  0  0  0  0  0
   58.8770   33.5570   47.1870 O   0  0  0  0  0  0  0  0  0  0  0  0
   60.2680   33.6320   47.3890 C   0  0  0  0  0  0  0  0  0  0  0  0
   61.1880   33.5750   46.3220 C   0  0  0  0  0  0  0  0  0  0  0  0
   62.5630   33.6230   46.5700 C   0  0  0  0  0  0  0  0  0  0  0  0
   63.0350   33.7430   47.8790 C   0  0  0  0  0  0  0  0  0  0  0  0
   62.1330   33.8170   48.9430 C   0  0  0  0  0  0  0  0  0  0  0  0
   60.7540   33.7590   48.7030 C   0  0  0  0  0  0  0  0  0  0  0  0
   59.6430   33.8330   50.0610 Cl  0  0  0  0  0  0  0  0  0  0  0  0
   57.1440   31.8200   45.5710 O   0  0  0  0  0  0  0  0  0  0  0  0
   58.6260   29.1020   46.5560 C   0  0  0  0  0  0  0  0  0  0  0  0
   56.7864   29.9241   53.7183 H   0  0  0  0  0  0  0  0  0  0  0  0
   55.2836   30.0772   52.7463 H   0  0  0  0  0  0  0  0  0  0  0  0
   56.1997   28.5321   52.7463 H   0  0  0  0  0  0  0  0  0  0  0  0
   57.0438   31.9646   52.6218 H   0  0  0  0  0  0  0  0  0  0  0  0
   57.9425   31.9389   51.0667 H   0  0  0  0  0  0  0  0  0  0  0  0
   56.1465   31.9059   51.0667 H   0  0  0  0  0  0  0  0  0  0  0  0
   58.5400   28.9236   52.6084 H   0  0  0  0  0  0  0  0  0  0  0  0
   58.7088   29.0508   50.8119 H   0  0  0  0  0  0  0  0  0  0  0  0
   59.0279   31.6627   51.4801 H   0  0  0  0  0  0  0  0  0  0  0  0
   59.6709   30.8734   52.9781 H   0  0  0  0  0  0  0  0  0  0  0  0
   61.1470   31.3632   50.6959 H   0  0  0  0  0  0  0  0  0  0  0  0
   61.5282   30.1121   51.9333 H   0  0  0  0  0  0  0  0  0  0  0  0
   60.4298   27.1871   48.7246 H   0  0  0  0  0  0  0  0  0  0  0  0
   59.4609   25.3820   47.3199 H   0  0  0  0  0  0  0  0  0  0  0  0
   57.2376   26.5427   43.4051 H   0  0  0  0  0  0  0  0  0  0  0  0
   58.7784   25.6719   43.3588 H   0  0  0  0  0  0  0  0  0  0  0  0
   55.9628   24.6180   43.1533 H   0  0  0  0  0  0  0  0  0  0  0  0
   57.4370   23.9349   42.4653 H   0  0  0  0  0  0  0  0  0  0  0  0
   56.2109   22.8580   44.6785 H   0  0  0  0  0  0  0  0  0  0  0  0
   57.9625   22.7625   44.4838 H   0  0  0  0  0  0  0  0  0  0  0  0
   56.3143   24.5470   46.2725 H   0  0  0  0  0  0  0  0  0  0  0  0
   57.9677   23.9693   46.5250 H   0  0  0  0  0  0  0  0  0  0  0  0
   57.7242   31.0172   42.4542 H   0  0  0  0  0  0  0  0  0  0  0  0
   58.6731   33.4466   43.1818 H   0  0  0  0  0  0  0  0  0  0  0  0
   58.8407   34.7069   45.4658 H   0  0  0  0  0  0  0  0  0  0  0  0
   57.2732   34.5490   46.3405 H   0  0  0  0  0  0  0  0  0  0  0  0
   60.8216   33.4923   45.2881 H   0  0  0  0  0  0  0  0  0  0  0  0
   63.2743   33.5662   45.7328 H   0  0  0  0  0  0  0  0  0  0  0  0
   64.1173   33.7792   48.0721 H   0  0  0  0  0  0  0  0  0  0  0  0
   62.5066   33.9211   49.9724 H   0  0  0  0  0  0  0  0  0  0  0  0
   58.4006   30.1565   46.3388 H   0  0  0  0  0  0  0  0  0  0  0  0
  1  2  1  0
  2  3  1  0
  2  4  1  0
  4  5  1  0
  5  6  1  0
  6  7  1  0
  7  8  1  0
  8  9  2  0
  8 10  2  0
  8 11  1  0
 11 12  2  0
 12 13  1  0
 13 14  2  0
 14 15  1  0
 15 16  1  0
 16 17  1  0
 17 18  1  0
 18 19  1  0
 14 20  1  0
 20 21  1  0
 21 22  1  0
 22 23  2  0
 22 24  1  0
 24 25  2  0
 25 26  1  0
 26 27  2  0
 27 28  1  0
 28 29  1  0
 29 30  1  0
 30 31  2  0
 31 32  1  0
 32 33  2  0
 33 34  1  0
 34 35  2  0
 35 36  1  0
 27 37  1  0
 20 38  2  0
 38 11  1  0
 19 15  1  0
 37 24  1  0
 35 30  1  0
  1 39  1  0
  1 40  1  0
  1 41  1  0
  3 42  1  0
  3 43  1  0
  3 44  1  0
  4 45  1  0
  4 46  1  0
  5 47  1  0
  5 48  1  0
  6 49  1  0
  6 50  1  0
 12 51  1  0
 13 52  1  0
 16 53  1  0
 16 54  1  0
 17 55  1  0
 17 56  1  0
 18 57  1  0
 18 58  1  0
 19 59  1  0
 19 60  1  0
 25 61  1  0
 26 62  1  0
 28 63  1  0
 28 64  1  0
 31 65  1  0
 32 66  1  0
 33 67  1  0
 34 68  1  0
 38 69  1  0
M  CHG  2   7  -1  21  -1
M  END
>  <UniqueID>  (64) 
57

>  <SMILES>  (64) 
CN(C)CCC[N-]S(=O)(=O)c1ccc(N2CCCC2)c([N-]C(=O)c2ccc(COc3ccccc3Cl)o2)c1

>  <Energy>  (64) 
103.49963266694253

>  <Genealogy>  (64) 
CN(C)CCC[N-]S(=O)(=O)c1ccc(N2CCCC2)c([N-]C(=O)c2ccc(COc3ccccc3Cl)o2)c1 (protonated)
CN(C)CCC[N-]S(=O)(=O)c1ccc(N2CCCC2)c([N-]C(=O)c2ccc(COc3ccccc3Cl)o2)c1 (3D coordinates assigned)
CN(C)CCC[N-]S(=O)(=O)c1ccc(N2CCCC2)c([N-]C(=O)c2ccc(COc3ccccc3Cl)o2)c1 (nonaromatic ring conformer: 103.49963266694253 kcal/mol)

>  <smiles>  (64) 
CN(C)CCCNS(=O)(=O)c1ccc(N2CCCC2)c(NC(=O)c2ccc(COc3ccccc3Cl)o2)c1

>  <score_type>  (64) 
oracle

>  <origin>  (64) 
adg

>  <m_score__min__energy>  (64) 
-12.199999999999999

>  <m_primary>  (64) 
energy

$$$$
64:0
     RDKit          3D

 42 44  0  0  0  0  0  0  0  0999 V2000
   55.5380   28.7470   44.9190 N   0  0  0  0  0  0  0  0  0  0  0  0
   56.8990   29.7780   44.6510 S   0  0  0  0  0  0  0  0  0  0  0  0
   57.4630   29.5140   43.2820 O   0  0  0  0  0  0  0  0  0  0  0  0
   56.4640   31.2150   44.7260 O   0  0  0  0  0  0  0  0  0  0  0  0
   58.1200   29.4700   45.8840 C   0  0  0  0  0  0  0  0  0  0  0  0
   57.7970   28.7520   47.0420 C   0  0  0  0  0  0  0  0  0  0  0  0
   58.7650   28.5280   48.0260 C   0  0  0  0  0  0  0  0  0  0  0  0
   60.0730   29.0210   47.8600 C   0  0  0  0  0  0  0  0  0  0  0  0
   61.0730   28.8560   48.8800 N   0  0  0  0  0  0  0  0  0  0  0  0
   61.0650   27.8030   49.8570 C   0  0  0  0  0  0  0  0  0  0  0  0
   60.4200   26.7410   49.6500 O   0  0  0  0  0  0  0  0  0  0  0  0
   61.8290   27.9630   51.1360 C   0  0  0  0  0  0  0  0  0  0  0  0
   61.1290   29.3130   52.1480 S   0  0  0  0  0  0  0  0  0  0  0  0
   61.6930   30.6280   51.0700 C   0  0  0  0  0  0  0  0  0  0  0  0
   62.9200   31.1770   51.2580 N   0  0  0  0  0  0  0  0  0  0  0  0
   63.3530   32.1980   50.4760 C   0  0  0  0  0  0  0  0  0  0  0  0
   62.5330   32.6980   49.4650 C   0  0  0  0  0  0  0  0  0  0  0  0
   61.2680   32.1190   49.2720 C   0  0  0  0  0  0  0  0  0  0  0  0
   60.3300   32.6170   48.2350 C   0  0  0  0  0  0  0  0  0  0  0  0
   58.9370   32.4420   48.3570 C   0  0  0  0  0  0  0  0  0  0  0  0
   58.0730   32.9150   47.3650 C   0  0  0  0  0  0  0  0  0  0  0  0
   58.5830   33.5720   46.2430 C   0  0  0  0  0  0  0  0  0  0  0  0
   57.3980   34.2170   44.8900 Br  0  0  0  0  0  0  0  0  0  0  0  0
   59.9610   33.7610   46.1140 C   0  0  0  0  0  0  0  0  0  0  0  0
   60.8290   33.2910   47.1050 C   0  0  0  0  0  0  0  0  0  0  0  0
   60.8810   31.0970   50.0870 N   0  0  0  0  0  0  0  0  0  0  0  0
   60.3810   29.7660   46.7110 C   0  0  0  0  0  0  0  0  0  0  0  0
   59.4130   29.9810   45.7250 C   0  0  0  0  0  0  0  0  0  0  0  0
   54.7500   29.3610   45.2220 H   0  0  0  0  0  0  0  0  0  0  0  0
   56.7773   28.3625   47.1782 H   0  0  0  0  0  0  0  0  0  0  0  0
   58.5032   27.9642   48.9335 H   0  0  0  0  0  0  0  0  0  0  0  0
   61.8610   29.5410   48.9100 H   0  0  0  0  0  0  0  0  0  0  0  0
   61.7794   27.0231   51.7053 H   0  0  0  0  0  0  0  0  0  0  0  0
   62.8730   28.2103   50.8935 H   0  0  0  0  0  0  0  0  0  0  0  0
   64.3508   32.6312   50.6396 H   0  0  0  0  0  0  0  0  0  0  0  0
   62.8707   33.5306   48.8303 H   0  0  0  0  0  0  0  0  0  0  0  0
   58.5264   31.9294   49.2394 H   0  0  0  0  0  0  0  0  0  0  0  0
   56.9876   32.7692   47.4685 H   0  0  0  0  0  0  0  0  0  0  0  0
   60.3640   34.2801   45.2319 H   0  0  0  0  0  0  0  0  0  0  0  0
   61.9124   33.4498   47.0000 H   0  0  0  0  0  0  0  0  0  0  0  0
   61.3908   30.1836   46.5853 H   0  0  0  0  0  0  0  0  0  0  0  0
   59.6688   30.5537   44.8214 H   0  0  0  0  0  0  0  0  0  0  0  0
  1  2  1  0
  2  3  2  0
  2  4  2  0
  2  5  1  0
  5  6  2  0
  6  7  1  0
  7  8  2  0
  8  9  1  0
  9 10  1  0
 10 11  2  0
 10 12  1  0
 12 13  1  0
 13 14  1  0
 14 15  2  0
 15 16  1  0
 16 17  2  0
 17 18  1  0
 18 19  1  0
 19 20  2  0
 20 21  1  0
 21 22  2  0
 22 23  1  0
 22 24  1  0
 24 25  2  0
 18 26  2  0
  8 27  1  0
 27 28  2  0
 28  5  1  0
 26 14  1  0
 25 19  1  0
  1 29  1  0
  6 30  1  0
  7 31  1  0
  9 32  1  0
 12 33  1  0
 12 34  1  0
 16 35  1  0
 17 36  1  0
 20 37  1  0
 21 38  1  0
 24 39  1  0
 25 40  1  0
 27 41  1  0
 28 42  1  0
M  CHG  1   1  -1
M  END
>  <UniqueID>  (65) 
58

>  <SMILES>  (65) 
[NH-]S(=O)(=O)c1ccc(NC(=O)CSc2nccc(-c3ccc(Br)cc3)n2)cc1

>  <Energy>  (65) 
45.94421698315254

>  <Genealogy>  (65) 
[NH-]S(=O)(=O)c1ccc(NC(=O)CSc2nccc(-c3ccc(Br)cc3)n2)cc1 (protonated)
[NH-]S(=O)(=O)c1ccc(NC(=O)CSc2nccc(-c3ccc(Br)cc3)n2)cc1 (3D coordinates assigned)
[NH-]S(=O)(=O)c1ccc(NC(=O)CSc2nccc(-c3ccc(Br)cc3)n2)cc1 (optimized conformer: 45.94421698315254 kcal/mol)

>  <smiles>  (65) 
NS(=O)(=O)c1ccc(NC(=O)CSc2nccc(-c3ccc(Br)cc3)n2)cc1

>  <score_type>  (65) 
oracle

>  <origin>  (65) 
adg

>  <m_score__min__energy>  (65) 
-11.31

>  <m_primary>  (65) 
energy

$$$$
65:0
     RDKit          3D

 34 35  0  0  0  0  0  0  0  0999 V2000
   57.9750   32.0160   42.9730 C   0  0  0  0  0  0  0  0  0  0  0  0
   57.1660   31.6630   44.1450 N   0  0  0  0  0  0  0  0  0  0  0  0
   57.0130   32.6420   45.2330 C   0  0  0  0  0  0  0  0  0  0  0  0
   58.3310   33.2480   45.6090 C   0  0  0  0  0  0  0  0  0  0  0  0
   58.7020   34.5760   45.4670 C   0  0  0  0  0  0  0  0  0  0  0  0
   59.9670   34.6400   46.0110 C   0  0  0  0  0  0  0  0  0  0  0  0
   60.3030   33.4110   46.4460 N   0  0  0  0  0  0  0  0  0  0  0  0
   61.5360   33.0600   47.1370 C   0  0  0  0  0  0  0  0  0  0  0  0
   59.3110   32.5640   46.2310 N   0  0  0  0  0  0  0  0  0  0  0  0
   56.5880   30.3380   44.2110 C   0  0  0  0  0  0  0  0  0  0  0  0
   55.3990   30.1990   44.6080 O   0  0  0  0  0  0  0  0  0  0  0  0
   57.3570   29.0930   43.8320 C   0  0  0  0  0  0  0  0  0  0  0  0
   57.9230   28.4100   45.0120 N   0  0  0  0  0  0  0  0  0  0  0  0
   59.2700   28.4800   45.2450 C   0  0  0  0  0  0  0  0  0  0  0  0
   59.8380   27.8270   46.3370 C   0  0  0  0  0  0  0  0  0  0  0  0
   59.0120   27.0770   47.1670 C   0  0  0  0  0  0  0  0  0  0  0  0
   59.4890   26.4770   48.1650 O   0  0  0  0  0  0  0  0  0  0  0  0
   57.6870   26.9890   46.8950 N   0  0  0  0  0  0  0  0  0  0  0  0
   57.1380   27.6340   45.8320 C   0  0  0  0  0  0  0  0  0  0  0  0
   55.9020   27.5110   45.6200 O   0  0  0  0  0  0  0  0  0  0  0  0
   58.9365   32.4355   43.3040 H   0  0  0  0  0  0  0  0  0  0  0  0
   58.1567   31.1154   42.3681 H   0  0  0  0  0  0  0  0  0  0  0  0
   57.4383   32.7618   42.3681 H   0  0  0  0  0  0  0  0  0  0  0  0
   56.3323   33.4407   44.9033 H   0  0  0  0  0  0  0  0  0  0  0  0
   56.6058   32.1225   46.1130 H   0  0  0  0  0  0  0  0  0  0  0  0
   58.1183   35.3946   45.0207 H   0  0  0  0  0  0  0  0  0  0  0  0
   60.5945   35.5410   46.0782 H   0  0  0  0  0  0  0  0  0  0  0  0
   61.3732   33.1064   48.2239 H   0  0  0  0  0  0  0  0  0  0  0  0
   61.8372   32.0404   46.8545 H   0  0  0  0  0  0  0  0  0  0  0  0
   62.3290   33.7681   46.8545 H   0  0  0  0  0  0  0  0  0  0  0  0
   56.6778   28.4006   43.3131 H   0  0  0  0  0  0  0  0  0  0  0  0
   58.1916   29.3947   43.1821 H   0  0  0  0  0  0  0  0  0  0  0  0
   59.9109   29.0579   44.5629 H   0  0  0  0  0  0  0  0  0  0  0  0
   60.9168   27.9031   46.5382 H   0  0  0  0  0  0  0  0  0  0  0  0
  1  2  1  0
  2  3  1  0
  3  4  1  0
  4  5  1  0
  5  6  2  0
  6  7  1  0
  7  8  1  0
  7  9  1  0
  2 10  1  0
 10 11  2  0
 10 12  1  0
 12 13  1  0
 13 14  1  0
 14 15  2  0
 15 16  1  0
 16 17  2  0
 16 18  1  0
 18 19  1  0
 19 20  2  0
  9  4  2  0
 19 13  1  0
  1 21  1  0
  1 22  1  0
  1 23  1  0
  3 24  1  0
  3 25  1  0
  5 26  1  0
  6 27  1  0
  8 28  1  0
  8 29  1  0
  8 30  1  0
 12 31  1  0
 12 32  1  0
 14 33  1  0
 15 34  1  0
M  CHG  1  18  -1
M  END
>  <UniqueID>  (66) 
59

>  <SMILES>  (66) 
CN(Cc1ccn(C)n1)C(=O)Cn1ccc(=O)[n-]c1=O

>  <Energy>  (66) 
60.49372478608405

>  <Genealogy>  (66) 
CN(Cc1ccn(C)n1)C(=O)Cn1ccc(=O)[n-]c1=O (protonated)
CN(Cc1ccn(C)n1)C(=O)Cn1ccc(=O)[n-]c1=O (3D coordinates assigned)
CN(Cc1ccn(C)n1)C(=O)Cn1ccc(=O)[n-]c1=O (optimized conformer: 60.49372478608405 kcal/mol)

>  <smiles>  (66) 
CN(Cc1ccn(C)n1)C(=O)Cn1ccc(=O)[nH]c1=O

>  <score_type>  (66) 
oracle

>  <origin>  (66) 
adg

>  <m_score__min__energy>  (66) 
-8.5500000000000007

>  <m_primary>  (66) 
energy

$$$$
66:0
     RDKit          3D

 36 37  0  0  0  0  0  0  0  0999 V2000
   57.3740   28.1990   43.9210 N   0  0  0  0  0  0  0  0  0  0  0  0
   56.6080   29.3710   43.5140 C   0  0  0  0  0  0  0  0  0  0  0  0
   57.3020   30.6360   43.9650 C   0  0  0  0  0  0  0  0  0  0  0  0
   57.5200   31.6540   43.0180 C   0  0  0  0  0  0  0  0  0  0  0  0
   58.1390   32.8490   43.3850 C   0  0  0  0  0  0  0  0  0  0  0  0
   58.5500   33.0470   44.7010 C   0  0  0  0  0  0  0  0  0  0  0  0
   58.3530   32.0480   45.6530 C   0  0  0  0  0  0  0  0  0  0  0  0
   57.7350   30.8340   45.3060 C   0  0  0  0  0  0  0  0  0  0  0  0
   57.6510   29.7500   46.3560 C   0  0  0  0  0  0  0  0  0  0  0  0
   58.9760   29.1610   46.5540 N   0  0  0  0  0  0  0  0  0  0  0  0
   59.4780   28.0960   45.9900 C   0  0  0  0  0  0  0  0  0  0  0  0
   60.7690   28.0930   45.3680 N   0  0  0  0  0  0  0  0  0  0  0  0
   58.7540   26.8590   46.0530 N   0  0  0  0  0  0  0  0  0  0  0  0
   57.8170   26.5550   46.9060 C   0  0  0  0  0  0  0  0  0  0  0  0
   56.6250   25.7380   46.5690 C   0  0  0  0  0  0  0  0  0  0  0  0
   55.5120   26.3390   45.9630 C   0  0  0  0  0  0  0  0  0  0  0  0
   55.5310   27.6860   45.6240 O   0  0  0  0  0  0  0  0  0  0  0  0
   54.4050   25.6000   45.6920 N   0  0  0  0  0  0  0  0  0  0  0  0
   54.3470   24.2800   46.0070 C   0  0  0  0  0  0  0  0  0  0  0  0
   53.3170   23.6130   45.7330 O   0  0  0  0  0  0  0  0  0  0  0  0
   55.3980   23.6820   46.6230 N   0  0  0  0  0  0  0  0  0  0  0  0
   56.5250   24.3790   46.9230 C   0  0  0  0  0  0  0  0  0  0  0  0
   57.4580   23.8010   47.5400 O   0  0  0  0  0  0  0  0  0  0  0  0
   56.7600   27.3600   43.8090 H   0  0  0  0  0  0  0  0  0  0  0  0
   57.5700   28.2850   44.9450 H   0  0  0  0  0  0  0  0  0  0  0  0
   56.5140   29.3800   42.4181 H   0  0  0  0  0  0  0  0  0  0  0  0
   55.6118   29.3253   43.9782 H   0  0  0  0  0  0  0  0  0  0  0  0
   57.1986   31.5056   41.9765 H   0  0  0  0  0  0  0  0  0  0  0  0
   58.3027   33.6360   42.6341 H   0  0  0  0  0  0  0  0  0  0  0  0
   59.0309   33.9933   44.9896 H   0  0  0  0  0  0  0  0  0  0  0  0
   58.6853   32.2117   46.6888 H   0  0  0  0  0  0  0  0  0  0  0  0
   57.2967   30.1831   47.3030 H   0  0  0  0  0  0  0  0  0  0  0  0
   56.9486   28.9711   46.0244 H   0  0  0  0  0  0  0  0  0  0  0  0
   61.3630   28.9410   45.2600 H   0  0  0  0  0  0  0  0  0  0  0  0
   61.1380   27.2030   44.9690 H   0  0  0  0  0  0  0  0  0  0  0  0
   57.9155   26.9260   47.9369 H   0  0  0  0  0  0  0  0  0  0  0  0
  1  2  1  0
  2  3  1  0
  3  4  2  0
  4  5  1  0
  5  6  2  0
  6  7  1  0
  7  8  2  0
  8  9  1  0
  9 10  1  0
 10 11  2  3
 11 12  1  0
 11 13  1  0
 13 14  2  3
 14 15  1  0
 15 16  2  0
 16 17  1  0
 16 18  1  0
 18 19  1  0
 19 20  2  0
 19 21  1  0
 21 22  1  0
 22 23  2  0
  8  3  1  0
 22 15  1  0
  1 24  1  0
  1 25  1  0
  2 26  1  0
  2 27  1  0
  4 28  1  0
  5 29  1  0
  6 30  1  0
  7 31  1  0
  9 32  1  0
  9 33  1  0
 12 34  1  0
 12 35  1  0
 14 36  1  0
M  CHG  3  17  -1  18  -1  21  -1
M  END
>  <UniqueID>  (67) 
60

>  <SMILES>  (67) 
NCc1ccccc1CN=C(N)N=Cc1c([O-])[n-]c(=O)[n-]c1=O

>  <Energy>  (67) 
48.76361374708424

>  <Genealogy>  (67) 
NCc1ccccc1CN=C(N)N=Cc1c([O-])[n-]c(=O)[n-]c1=O (protonated)
NCc1ccccc1CN=C(N)N=Cc1c([O-])[n-]c(=O)[n-]c1=O (3D coordinates assigned)
NCc1ccccc1CN=C(N)N=Cc1c([O-])[n-]c(=O)[n-]c1=O (optimized conformer: 48.76361374708424 kcal/mol)

>  <smiles>  (67) 
NCc1ccccc1CN=C(N)N=Cc1c(O)[nH]c(=O)[nH]c1=O

>  <score_type>  (67) 
oracle

>  <origin>  (67) 
adg

>  <m_score__min__energy>  (67) 
-14.94

>  <m_primary>  (67) 
energy

$$$$
67:0
     RDKit          3D

 32 33  0  0  0  0  0  0  0  0999 V2000
   58.0870   32.2540   42.8410 C   0  0  0  0  0  0  0  0  0  0  0  0
   58.0060   32.2610   44.3710 C   0  0  0  0  0  0  0  0  0  0  0  0
   57.3790   33.5650   44.8730 C   0  0  0  0  0  0  0  0  0  0  0  0
   57.2680   31.0430   44.8820 C   0  0  0  0  0  0  0  0  0  0  0  0
   56.0600   30.8780   44.5640 O   0  0  0  0  0  0  0  0  0  0  0  0
   57.8920   30.0850   45.8150 C   0  0  0  0  0  0  0  0  0  0  0  0
   58.8020   30.4330   46.8430 C   0  0  0  0  0  0  0  0  0  0  0  0
   59.3470   31.7890   47.0720 C   0  0  0  0  0  0  0  0  0  0  0  0
   58.5430   32.7820   47.6590 C   0  0  0  0  0  0  0  0  0  0  0  0
   59.0530   34.0660   47.8740 C   0  0  0  0  0  0  0  0  0  0  0  0
   60.3690   34.3670   47.5170 C   0  0  0  0  0  0  0  0  0  0  0  0
   61.1810   33.3820   46.9500 C   0  0  0  0  0  0  0  0  0  0  0  0
   60.6770   32.0970   46.7310 C   0  0  0  0  0  0  0  0  0  0  0  0
   59.1760   29.3460   47.6350 C   0  0  0  0  0  0  0  0  0  0  0  0
   58.4240   27.9600   47.0510 S   0  0  0  0  0  0  0  0  0  0  0  0
   57.6080   28.7220   45.8000 C   0  0  0  0  0  0  0  0  0  0  0  0
   56.7600   28.0510   44.8680 N   0  0  0  0  0  0  0  0  0  0  0  0
   59.1382   32.1632   42.5299 H   0  0  0  0  0  0  0  0  0  0  0  0
   57.5132   31.4021   42.4473 H   0  0  0  0  0  0  0  0  0  0  0  0
   57.6678   33.1917   42.4473 H   0  0  0  0  0  0  0  0  0  0  0  0
   59.0282   32.2103   44.7742 H   0  0  0  0  0  0  0  0  0  0  0  0
   57.3762   33.5708   45.9730 H   0  0  0  0  0  0  0  0  0  0  0  0
   57.9647   34.4196   44.5033 H   0  0  0  0  0  0  0  0  0  0  0  0
   56.3458   33.6412   44.5033 H   0  0  0  0  0  0  0  0  0  0  0  0
   57.5085   32.5477   47.9503 H   0  0  0  0  0  0  0  0  0  0  0  0
   58.4160   34.8409   48.3255 H   0  0  0  0  0  0  0  0  0  0  0  0
   60.7661   35.3794   47.6822 H   0  0  0  0  0  0  0  0  0  0  0  0
   62.2196   33.6183   46.6752 H   0  0  0  0  0  0  0  0  0  0  0  0
   61.3227   31.3232   46.2902 H   0  0  0  0  0  0  0  0  0  0  0  0
   59.8530   29.3891   48.5009 H   0  0  0  0  0  0  0  0  0  0  0  0
   56.6510   27.0140   44.8860 H   0  0  0  0  0  0  0  0  0  0  0  0
   56.2080   28.6020   44.1730 H   0  0  0  0  0  0  0  0  0  0  0  0
  1  2  1  0
  2  3  1  0
  2  4  1  0
  4  5  2  0
  4  6  1  0
  6  7  1  0
  7  8  1  0
  8  9  2  0
  9 10  1  0
 10 11  2  0
 11 12  1  0
 12 13  2  0
  7 14  2  0
 14 15  1  0
 15 16  1  0
 16 17  1  0
 16  6  2  0
 13  8  1  0
  1 18  1  0
  1 19  1  0
  1 20  1  0
  2 21  1  0
  3 22  1  0
  3 23  1  0
  3 24  1  0
  9 25  1  0
 10 26  1  0
 11 27  1  0
 12 28  1  0
 13 29  1  0
 14 30  1  0
 17 31  1  0
 17 32  1  0
M  END
>  <UniqueID>  (68) 
61

>  <SMILES>  (68) 
CC(C)C(=O)c1c(-c2ccccc2)csc1N

>  <Energy>  (68) 
64.9238139265753

>  <Genealogy>  (68) 
CC(C)C(=O)c1c(-c2ccccc2)csc1N (3D coordinates assigned)
CC(C)C(=O)c1c(-c2ccccc2)csc1N (optimized conformer: 64.9238139265753 kcal/mol)

>  <smiles>  (68) 
CC(C)C(=O)c1c(-c2ccccc2)csc1N

>  <score_type>  (68) 
oracle

>  <origin>  (68) 
adg

>  <m_score__min__energy>  (68) 
-7.2000000000000002

>  <m_primary>  (68) 
energy

$$$$
68:0
     RDKit          3D

 52 53  0  0  0  0  0  0  0  0999 V2000
   55.5660   24.8510   45.6660 C   0  0  0  0  0  0  0  0  0  0  0  0
   55.4710   26.2370   45.9810 O   0  0  0  0  0  0  0  0  0  0  0  0
   56.5670   27.1050   46.0710 C   0  0  0  0  0  0  0  0  0  0  0  0
   57.5370   26.8520   47.0450 C   0  0  0  0  0  0  0  0  0  0  0  0
   58.6500   27.6870   47.1760 C   0  0  0  0  0  0  0  0  0  0  0  0
   58.8210   28.7950   46.3240 C   0  0  0  0  0  0  0  0  0  0  0  0
   60.0180   29.6660   46.4850 C   0  0  0  0  0  0  0  0  0  0  0  0
   60.7480   29.8790   45.4760 O   0  0  0  0  0  0  0  0  0  0  0  0
   60.3570   30.2780   47.7600 N   0  0  1  0  0  0  0  0  0  0  0  0
   61.7460   30.8080   47.7630 C   0  0  0  0  0  0  0  0  0  0  0  0
   62.0660   31.7780   48.9390 C   0  0  0  0  0  0  0  0  0  0  0  0
   63.0940   32.8230   48.6360 N   0  0  0  0  0  0  0  0  0  0  0  0
   62.6670   34.1610   49.1170 C   0  0  0  0  0  0  0  0  0  0  0  0
   64.3420   32.4530   49.3480 C   0  0  0  0  0  0  0  0  0  0  0  0
   63.3900   32.8860   47.1840 C   0  0  0  0  0  0  0  0  0  0  0  0
   59.3570   31.2940   48.1750 C   0  0  0  0  0  0  0  0  0  0  0  0
   59.1200   32.3130   47.0830 C   0  0  0  0  0  0  0  0  0  0  0  0
   58.0160   32.1950   46.2220 C   0  0  0  0  0  0  0  0  0  0  0  0
   57.7810   33.1640   45.2420 C   0  0  0  0  0  0  0  0  0  0  0  0
   58.6410   34.2570   45.1170 C   0  0  0  0  0  0  0  0  0  0  0  0
   59.7390   34.3840   45.9710 C   0  0  0  0  0  0  0  0  0  0  0  0
   59.9780   33.4180   46.9520 C   0  0  0  0  0  0  0  0  0  0  0  0
   57.8390   29.0510   45.3470 C   0  0  0  0  0  0  0  0  0  0  0  0
   56.7250   28.2160   45.2210 C   0  0  0  0  0  0  0  0  0  0  0  0
   55.6061   24.2655   46.5963 H   0  0  0  0  0  0  0  0  0  0  0  0
   54.6866   24.5472   45.0792 H   0  0  0  0  0  0  0  0  0  0  0  0
   56.4787   24.6701   45.0792 H   0  0  0  0  0  0  0  0  0  0  0  0
   57.4232   25.9871   47.7151 H   0  0  0  0  0  0  0  0  0  0  0  0
   59.4001   27.4765   47.9526 H   0  0  0  0  0  0  0  0  0  0  0  0
   60.3330   29.5370   48.4990 H   0  0  0  0  0  0  0  0  0  0  0  0
   62.4386   29.9555   47.8229 H   0  0  0  0  0  0  0  0  0  0  0  0
   61.8597   31.3912   46.8373 H   0  0  0  0  0  0  0  0  0  0  0  0
   61.1341   32.2886   49.2233 H   0  0  0  0  0  0  0  0  0  0  0  0
   62.4871   31.1570   49.7434 H   0  0  0  0  0  0  0  0  0  0  0  0
   62.6637   34.1714   50.2169 H   0  0  0  0  0  0  0  0  0  0  0  0
   63.3661   34.9246   48.7452 H   0  0  0  0  0  0  0  0  0  0  0  0
   61.6548   34.3785   48.7452 H   0  0  0  0  0  0  0  0  0  0  0  0
   64.1733   32.5030   50.4338 H   0  0  0  0  0  0  0  0  0  0  0  0
   64.6337   31.4297   49.0690 H   0  0  0  0  0  0  0  0  0  0  0  0
   65.1443   33.1519   49.0690 H   0  0  0  0  0  0  0  0  0  0  0  0
   64.4562   33.1129   47.0367 H   0  0  0  0  0  0  0  0  0  0  0  0
   63.1536   31.9174   46.7192 H   0  0  0  0  0  0  0  0  0  0  0  0
   62.7797   33.6744   46.7192 H   0  0  0  0  0  0  0  0  0  0  0  0
   58.4075   30.7885   48.4050 H   0  0  0  0  0  0  0  0  0  0  0  0
   59.7441   31.8192   49.0606 H   0  0  0  0  0  0  0  0  0  0  0  0
   57.3342   31.3373   46.3193 H   0  0  0  0  0  0  0  0  0  0  0  0
   56.9171   33.0652   44.5682 H   0  0  0  0  0  0  0  0  0  0  0  0
   58.4537   35.0184   44.3456 H   0  0  0  0  0  0  0  0  0  0  0  0
   60.4161   35.2451   45.8712 H   0  0  0  0  0  0  0  0  0  0  0  0
   60.8419   33.5231   47.6248 H   0  0  0  0  0  0  0  0  0  0  0  0
   57.9499   29.9162   44.6768 H   0  0  0  0  0  0  0  0  0  0  0  0
   55.9670   28.4284   44.4527 H   0  0  0  0  0  0  0  0  0  0  0  0
  1  2  1  0
  2  3  1  0
  3  4  2  0
  4  5  1  0
  5  6  2  0
  6  7  1  0
  7  8  2  0
  7  9  1  0
  9 10  1  0
 10 11  1  0
 11 12  1  0
 12 13  1  0
 12 14  1  0
 12 15  1  0
  9 16  1  0
 16 17  1  0
 17 18  2  0
 18 19  1  0
 19 20  2  0
 20 21  1  0
 21 22  2  0
  6 23  1  0
 23 24  2  0
 24  3  1  0
 22 17  1  0
  1 25  1  0
  1 26  1  0
  1 27  1  0
  4 28  1  0
  5 29  1  0
  9 30  1  1
 10 31  1  0
 10 32  1  0
 11 33  1  0
 11 34  1  0
 13 35  1  0
 13 36  1  0
 13 37  1  0
 14 38  1  0
 14 39  1  0
 14 40  1  0
 15 41  1  0
 15 42  1  0
 15 43  1  0
 16 44  1  0
 16 45  1  0
 18 46  1  0
 19 47  1  0
 20 48  1  0
 21 49  1  0
 22 50  1  0
 23 51  1  0
 24 52  1  0
M  CHG  2   9   1  12   1
M  END
>  <UniqueID>  (69) 
62

>  <SMILES>  (69) 
COc1ccc(C(=O)[N@@H+](CC[N+](C)(C)C)Cc2ccccc2)cc1

>  <Energy>  (69) 
65.4846949687296

>  <Genealogy>  (69) 
COc1ccc(C(=O)[NH+](CC[N+](C)(C)C)Cc2ccccc2)cc1 (protonated)
COc1ccc(C(=O)[N@@H+](CC[N+](C)(C)C)Cc2ccccc2)cc1 (chirality)
COc1ccc(C(=O)[N@@H+](CC[N+](C)(C)C)Cc2ccccc2)cc1 (3D coordinates assigned)
COc1ccc(C(=O)[N@@H+](CC[N+](C)(C)C)Cc2ccccc2)cc1 (optimized conformer: 65.4846949687296 kcal/mol)

>  <smiles>  (69) 
COc1ccc(C(=O)N(CC[N+](C)(C)C)Cc2ccccc2)cc1

>  <score_type>  (69) 
oracle

>  <origin>  (69) 
adg

>  <m_score__min__energy>  (69) 
-4.5

>  <m_primary>  (69) 
energy

$$$$
69:0
     RDKit          3D

 52 55  0  0  0  0  0  0  0  0999 V2000
   58.6751   25.9299   44.6320 H   0  0  0  0  0  0  0  0  0  0  0  0
   58.4760   27.0040   44.7610 C   0  0  0  0  0  0  0  0  0  0  0  0
   57.8020   28.0260   43.6100 S   0  0  0  0  0  0  0  0  0  0  0  0
   57.8430   29.4190   44.5510 C   0  0  0  0  0  0  0  0  0  0  0  0
   57.3420   30.7610   44.1190 C   0  0  0  0  0  0  0  0  0  0  0  0
   58.1132   31.2580   43.5122 H   0  0  0  0  0  0  0  0  0  0  0  0
   56.4248   30.6266   43.5269 H   0  0  0  0  0  0  0  0  0  0  0  0
   57.0450   31.5700   45.2580 O   0  0  0  0  0  0  0  0  0  0  0  0
   57.8370   32.6250   45.7400 C   0  0  0  0  0  0  0  0  0  0  0  0
   58.0670   32.8410   47.1140 C   0  0  0  0  0  0  0  0  0  0  0  0
   57.6093   32.1726   47.8581 H   0  0  0  0  0  0  0  0  0  0  0  0
   58.8750   33.9020   47.5340 C   0  0  0  0  0  0  0  0  0  0  0  0
   59.0507   34.0666   48.6073 H   0  0  0  0  0  0  0  0  0  0  0  0
   59.4600   34.7540   46.5930 C   0  0  0  0  0  0  0  0  0  0  0  0
   60.0970   35.5868   46.9255 H   0  0  0  0  0  0  0  0  0  0  0  0
   59.2350   34.5470   45.2300 C   0  0  0  0  0  0  0  0  0  0  0  0
   59.6937   35.2182   44.4890 H   0  0  0  0  0  0  0  0  0  0  0  0
   58.4270   33.4870   44.8070 C   0  0  0  0  0  0  0  0  0  0  0  0
   58.2533   33.3288   43.7324 H   0  0  0  0  0  0  0  0  0  0  0  0
   58.3810   29.1030   45.7910 C   0  0  0  0  0  0  0  0  0  0  0  0
   58.5131   29.8366   46.5999 H   0  0  0  0  0  0  0  0  0  0  0  0
   58.7390   27.7510   45.9060 C   0  0  0  0  0  0  0  0  0  0  0  0
   59.2570   27.1430   47.1700 C   0  0  0  0  0  0  0  0  0  0  0  0
   60.3248   26.9048   47.0559 H   0  0  0  0  0  0  0  0  0  0  0  0
   58.7067   26.2173   47.3941 H   0  0  0  0  0  0  0  0  0  0  0  0
   59.0860   28.0740   48.2240 O   0  0  0  0  0  0  0  0  0  0  0  0
   60.0180   28.1870   49.2310 N   0  0  0  0  0  0  0  0  0  0  0  0
   60.2760   29.3290   49.7970 C   0  0  0  0  0  0  0  0  0  0  0  0
   60.9510   30.3880   48.9980 C   0  0  0  0  0  0  0  0  0  0  0  0
   61.9630   31.1740   49.5830 C   0  0  0  0  0  0  0  0  0  0  0  0
   62.2439   31.0061   50.6332 H   0  0  0  0  0  0  0  0  0  0  0  0
   62.6140   32.1650   48.8430 C   0  0  0  0  0  0  0  0  0  0  0  0
   63.4015   32.7722   49.3132 H   0  0  0  0  0  0  0  0  0  0  0  0
   62.2670   32.3870   47.5060 C   0  0  0  0  0  0  0  0  0  0  0  0
   62.9370   33.4060   46.7450 C   0  0  0  0  0  0  0  0  0  0  0  0
   63.4760   34.2250   46.1320 N   0  0  0  0  0  0  0  0  0  0  0  0
   61.2720   31.6040   46.9080 C   0  0  0  0  0  0  0  0  0  0  0  0
   61.0016   31.7711   45.8549 H   0  0  0  0  0  0  0  0  0  0  0  0
   60.6210   30.6100   47.6460 C   0  0  0  0  0  0  0  0  0  0  0  0
   59.8443   29.9959   47.1667 H   0  0  0  0  0  0  0  0  0  0  0  0
   59.9230   29.5420   51.2550 C   0  0  0  0  0  0  0  0  0  0  0  0
   59.4326   28.6371   51.6431 H   0  0  0  0  0  0  0  0  0  0  0  0
   60.8473   29.7471   51.8150 H   0  0  0  0  0  0  0  0  0  0  0  0
   59.0190   30.6810   51.4100 N   0  0  0  0  0  0  0  0  0  0  0  0
   59.2570   31.8130   52.1010 C   0  0  0  0  0  0  0  0  0  0  0  0
   60.1789   32.0514   52.6517 H   0  0  0  0  0  0  0  0  0  0  0  0
   58.1450   32.6200   51.9980 C   0  0  0  0  0  0  0  0  0  0  0  0
   58.0286   33.6137   52.4552 H   0  0  0  0  0  0  0  0  0  0  0  0
   57.2240   31.9890   51.2440 N   0  0  0  0  0  0  0  0  0  0  0  0
   56.2780   32.3410   50.9790 H   0  0  0  0  0  0  0  0  0  0  0  0
   57.7780   30.8120   50.8990 C   0  0  0  0  0  0  0  0  0  0  0  0
   57.2809   30.0522   50.2781 H   0  0  0  0  0  0  0  0  0  0  0  0
  1  2  1  0
  2  3  1  0
  3  4  1  0
  4  5  1  0
  5  6  1  0
  5  7  1  0
  5  8  1  0
  8  9  1  0
  9 10  2  0
 10 11  1  0
 10 12  1  0
 12 13  1  0
 12 14  2  0
 14 15  1  0
 14 16  1  0
 16 17  1  0
 16 18  2  0
 18 19  1  0
  4 20  2  0
 20 21  1  0
 20 22  1  0
 22 23  1  0
 23 24  1  0
 23 25  1  0
 23 26  1  0
 26 27  1  0
 27 28  2  0
 28 29  1  0
 29 30  2  0
 30 31  1  0
 30 32  1  0
 32 33  1  0
 32 34  2  0
 34 35  1  0
 35 36  3  0
 34 37  1  0
 37 38  1  0
 37 39  2  0
 39 40  1  0
 28 41  1  0
 41 42  1  0
 41 43  1  0
 41 44  1  0
 44 45  1  0
 45 46  1  0
 45 47  2  0
 47 48  1  0
 47 49  1  0
 49 50  1  0
 49 51  2  0
 51 52  1  0
 22  2  2  0
 39 29  1  0
 51 44  1  0
 18  9  1  0
M  CHG  1  49   1
M  END
>  <UniqueID>  (70) 
63

>  <SMILES>  (70) 
N#Cc1ccc(/C(Cn2cc[nH+]c2)=N/OCc2csc(COc3ccccc3)c2)cc1

>  <Energy>  (70) 
104.8106882550736

>  <Genealogy>  (70) 
N#Cc1ccc(C(Cn2cc[nH+]c2)=NOCc2csc(COc3ccccc3)c2)cc1 (protonated)
N#Cc1ccc(/C(Cn2cc[nH+]c2)=N/OCc2csc(COc3ccccc3)c2)cc1 (cis-trans isomerization)
N#Cc1ccc(/C(Cn2cc[nH+]c2)=N/OCc2csc(COc3ccccc3)c2)cc1 (3D coordinates assigned)
N#Cc1ccc(/C(Cn2cc[nH+]c2)=N/OCc2csc(COc3ccccc3)c2)cc1 (optimized conformer: 104.8106882550736 kcal/mol)

>  <smiles>  (70) 
N#Cc1ccc(C(Cn2ccnc2)=NOCc2csc(COc3ccccc3)c2)cc1

>  <score_type>  (70) 
oracle

>  <origin>  (70) 
adg

>  <m_score__min__energy>  (70) 
-7.0599999999999996

>  <m_primary>  (70) 
energy

$$$$
70:0
     RDKit          3D

 45 48  0  0  0  0  0  0  0  0999 V2000
   57.6761   30.7238   46.2680 H   0  0  0  0  0  0  0  0  0  0  0  0
   58.3900   31.0910   47.0200 C   0  0  0  0  0  0  0  0  0  0  0  0
   58.5490   30.3970   48.1110 N   0  0  0  0  0  0  0  0  0  0  0  0
   59.2210   29.1330   48.2370 C   0  0  0  0  0  0  0  0  0  0  0  0
   59.7250   28.7090   49.4800 C   0  0  0  0  0  0  0  0  0  0  0  0
   59.5663   29.3290   50.3746 H   0  0  0  0  0  0  0  0  0  0  0  0
   60.4260   27.5050   49.5850 C   0  0  0  0  0  0  0  0  0  0  0  0
   60.8237   27.1838   50.5590 H   0  0  0  0  0  0  0  0  0  0  0  0
   60.6220   26.7100   48.4560 C   0  0  0  0  0  0  0  0  0  0  0  0
   61.1895   25.7712   48.5372 H   0  0  0  0  0  0  0  0  0  0  0  0
   60.0990   27.1040   47.2230 C   0  0  0  0  0  0  0  0  0  0  0  0
   60.2612   26.4752   46.3351 H   0  0  0  0  0  0  0  0  0  0  0  0
   59.3680   28.2960   47.1080 C   0  0  0  0  0  0  0  0  0  0  0  0
   58.8510   28.6700   45.8190 N   0  0  0  0  0  0  0  0  0  0  0  0
   59.3300   29.4460   45.3080 H   0  0  0  0  0  0  0  0  0  0  0  0
   57.7740   27.9850   45.1580 C   0  0  0  0  0  0  0  0  0  0  0  0
   57.0140   28.7320   43.9120 S   0  0  0  0  0  0  0  0  0  0  0  0
   57.4920   26.5550   45.4320 C   0  0  0  0  0  0  0  0  0  0  0  0
   58.5230   25.6070   45.3070 C   0  0  0  0  0  0  0  0  0  0  0  0
   59.5285   25.9313   45.0006 H   0  0  0  0  0  0  0  0  0  0  0  0
   58.2800   24.2560   45.5690 C   0  0  0  0  0  0  0  0  0  0  0  0
   59.0936   23.5221   45.4711 H   0  0  0  0  0  0  0  0  0  0  0  0
   57.0050   23.8370   45.9550 C   0  0  0  0  0  0  0  0  0  0  0  0
   56.8145   22.7728   46.1577 H   0  0  0  0  0  0  0  0  0  0  0  0
   55.9720   24.7670   46.0840 C   0  0  0  0  0  0  0  0  0  0  0  0
   54.9691   24.4329   46.3881 H   0  0  0  0  0  0  0  0  0  0  0  0
   56.2070   26.1230   45.8280 C   0  0  0  0  0  0  0  0  0  0  0  0
   55.1690   27.0330   45.9930 O   0  0  0  0  0  0  0  0  0  0  0  0
   59.1210   32.3500   46.7390 C   0  0  0  0  0  0  0  0  0  0  0  0
   58.3850   33.4610   46.2900 C   0  0  0  0  0  0  0  0  0  0  0  0
   57.0120   33.3600   46.0800 O   0  0  0  0  0  0  0  0  0  0  0  0
   59.0170   34.6860   46.0700 C   0  0  0  0  0  0  0  0  0  0  0  0
   58.4296   35.5483   45.7217 H   0  0  0  0  0  0  0  0  0  0  0  0
   60.3850   34.8250   46.2880 C   0  0  0  0  0  0  0  0  0  0  0  0
   60.8678   35.8013   46.1337 H   0  0  0  0  0  0  0  0  0  0  0  0
   61.1490   33.7270   46.7030 C   0  0  0  0  0  0  0  0  0  0  0  0
   62.5320   33.8680   46.8990 C   0  0  0  0  0  0  0  0  0  0  0  0
   63.0094   34.8475   46.7487 H   0  0  0  0  0  0  0  0  0  0  0  0
   63.3040   32.7700   47.2840 C   0  0  0  0  0  0  0  0  0  0  0  0
   64.3852   32.8895   47.4473 H   0  0  0  0  0  0  0  0  0  0  0  0
   62.7070   31.5220   47.4620 C   0  0  0  0  0  0  0  0  0  0  0  0
   63.3213   30.6578   47.7549 H   0  0  0  0  0  0  0  0  0  0  0  0
   61.3330   31.3650   47.2700 C   0  0  0  0  0  0  0  0  0  0  0  0
   60.8745   30.3732   47.3972 H   0  0  0  0  0  0  0  0  0  0  0  0
   60.5270   32.4680   46.9140 C   0  0  0  0  0  0  0  0  0  0  0  0
  1  2  1  0
  2  3  2  0
  3  4  1  0
  4  5  2  0
  5  6  1  0
  5  7  1  0
  7  8  1  0
  7  9  2  0
  9 10  1  0
  9 11  1  0
 11 12  1  0
 11 13  2  0
 13 14  1  0
 14 15  1  0
 14 16  1  0
 16 17  2  0
 16 18  1  0
 18 19  2  0
 19 20  1  0
 19 21  1  0
 21 22  1  0
 21 23  2  0
 23 24  1  0
 23 25  1  0
 25 26  1  0
 25 27  2  0
 27 28  1  0
  2 29  1  0
 29 30  2  0
 30 31  1  0
 30 32  1  0
 32 33  1  0
 32 34  2  0
 34 35  1  0
 34 36  1  0
 36 37  2  0
 37 38  1  0
 37 39  1  0
 39 40  1  0
 39 41  2  0
 41 42  1  0
 41 43  1  0
 43 44  1  0
 43 45  2  0
 13  4  1  0
 27 18  1  0
 45 29  1  0
 45 36  1  0
M  CHG  2  28  -1  31  -1
M  END
>  <UniqueID>  (71) 
64

>  <SMILES>  (71) 
[O-]c1ccccc1C(=S)Nc1ccccc1/N=C\c1c([O-])ccc2ccccc12

>  <Energy>  (71) 
77.00672605545849

>  <Genealogy>  (71) 
[O-]c1ccccc1C(=S)Nc1ccccc1N=Cc1c([O-])ccc2ccccc12 (protonated)
[O-]c1ccccc1C(=S)Nc1ccccc1/N=C\c1c([O-])ccc2ccccc12 (cis-trans isomerization)
[O-]c1ccccc1C(=S)Nc1ccccc1/N=C\c1c([O-])ccc2ccccc12 (3D coordinates assigned)
[O-]c1ccccc1C(=S)Nc1ccccc1/N=C\c1c([O-])ccc2ccccc12 (optimized conformer: 77.00672605545849 kcal/mol)

>  <smiles>  (71) 
Oc1ccccc1C(=S)Nc1ccccc1N=Cc1c(O)ccc2ccccc12

>  <score_type>  (71) 
oracle

>  <origin>  (71) 
adg

>  <m_score__min__energy>  (71) 
-13.380000000000001

>  <m_primary>  (71) 
energy

$$$$
71:0
     RDKit          3D

 31 34  0  0  0  0  0  0  0  0999 V2000
   58.0070   26.5590   44.1830 C   0  0  0  0  0  0  0  0  0  0  0  0
   57.6510   26.5160   45.5250 C   0  0  0  0  0  0  0  0  0  0  0  0
   57.3880   28.0910   46.0510 S   0  0  0  0  0  0  0  0  0  0  0  0
   57.7240   28.8350   44.5820 C   0  0  0  0  0  0  0  0  0  0  0  0
   57.6780   30.2830   44.3440 C   0  0  0  0  0  0  0  0  0  0  0  0
   57.8660   30.8810   43.1530 N   0  0  0  0  0  0  0  0  0  0  0  0
   57.7530   32.1840   43.3400 N   0  0  0  0  0  0  0  0  0  0  0  0
   57.4950   32.3360   44.6550 C   0  0  0  0  0  0  0  0  0  0  0  0
   57.3170   33.6570   45.3270 C   0  0  0  0  0  0  0  0  0  0  0  0
   57.3880   33.4670   47.1390 S   0  0  0  0  0  0  0  0  0  0  0  0
   59.1520   33.1580   47.1780 C   0  0  0  0  0  0  0  0  0  0  0  0
   60.0760   34.0860   46.8140 N   0  0  0  0  0  0  0  0  0  0  0  0
   61.2240   33.4120   46.9910 C   0  0  0  0  0  0  0  0  0  0  0  0
   62.5240   33.8620   46.7680 C   0  0  0  0  0  0  0  0  0  0  0  0
   63.5780   32.9630   47.0230 C   0  0  0  0  0  0  0  0  0  0  0  0
   63.3070   31.6530   47.4880 C   0  0  0  0  0  0  0  0  0  0  0  0
   61.9790   31.2340   47.7010 C   0  0  0  0  0  0  0  0  0  0  0  0
   60.9660   32.1510   47.4370 C   0  0  0  0  0  0  0  0  0  0  0  0
   59.6760   32.0040   47.5530 O   0  0  0  0  0  0  0  0  0  0  0  0
   57.4480   31.1780   45.2760 O   0  0  0  0  0  0  0  0  0  0  0  0
   58.0490   27.8540   43.6520 C   0  0  0  0  0  0  0  0  0  0  0  0
   58.2347   25.6594   43.5923 H   0  0  0  0  0  0  0  0  0  0  0  0
   57.5573   25.6076   46.1382 H   0  0  0  0  0  0  0  0  0  0  0  0
   58.0690   30.4280   42.2350 H   0  0  0  0  0  0  0  0  0  0  0  0
   58.1172   34.3386   45.0029 H   0  0  0  0  0  0  0  0  0  0  0  0
   56.3343   34.0669   45.0507 H   0  0  0  0  0  0  0  0  0  0  0  0
   62.7199   34.8821   46.4060 H   0  0  0  0  0  0  0  0  0  0  0  0
   64.6185   33.2805   46.8599 H   0  0  0  0  0  0  0  0  0  0  0  0
   64.1378   30.9591   47.6839 H   0  0  0  0  0  0  0  0  0  0  0  0
   61.7513   30.2203   48.0623 H   0  0  0  0  0  0  0  0  0  0  0  0
   58.3121   28.0727   42.6065 H   0  0  0  0  0  0  0  0  0  0  0  0
  1  2  2  0
  2  3  1  0
  3  4  1  0
  4  5  1  0
  5  6  2  0
  6  7  1  0
  7  8  2  0
  8  9  1  0
  9 10  1  0
 10 11  1  0
 11 12  2  0
 12 13  1  0
 13 14  2  0
 14 15  1  0
 15 16  2  0
 16 17  1  0
 17 18  2  0
 18 19  1  0
  8 20  1  0
  4 21  2  0
 21  1  1  0
 20  5  1  0
 19 11  1  0
 18 13  1  0
  1 22  1  0
  2 23  1  0
  6 24  1  0
  9 25  1  0
  9 26  1  0
 14 27  1  0
 15 28  1  0
 16 29  1  0
 17 30  1  0
 21 31  1  0
M  CHG  1   6   1
M  END
>  <UniqueID>  (72) 
65

>  <SMILES>  (72) 
c1csc(-c2[nH+]nc(CSc3nc4ccccc4o3)o2)c1

>  <Energy>  (72) 
128.197564616552

>  <Genealogy>  (72) 
c1csc(-c2[nH+]nc(CSc3nc4ccccc4o3)o2)c1 (protonated)
c1csc(-c2[nH+]nc(CSc3nc4ccccc4o3)o2)c1 (3D coordinates assigned)
c1csc(-c2[nH+]nc(CSc3nc4ccccc4o3)o2)c1 (optimized conformer: 128.197564616552 kcal/mol)

>  <smiles>  (72) 
c1csc(-c2nnc(CSc3nc4ccccc4o3)o2)c1

>  <score_type>  (72) 
oracle

>  <origin>  (72) 
adg

>  <m_score__min__energy>  (72) 
-6.5999999999999996

>  <m_primary>  (72) 
energy

$$$$
72:0
     RDKit          3D

 65 69  0  0  1  0  0  0  0  0999 V2000
   65.2930   33.3410   50.5700 C   0  0  0  0  0  0  0  0  0  0  0  0
   64.6340   32.3410   49.6580 C   0  0  0  0  0  0  0  0  0  0  0  0
   63.9670   31.2270   50.4350 C   0  0  0  0  0  0  0  0  0  0  0  0
   63.6550   32.9850   48.8010 N   0  0  0  0  0  0  0  0  0  0  0  0
   63.8690   33.3930   47.5330 C   0  0  0  0  0  0  0  0  0  0  0  0
   62.6970   33.9250   47.1380 N   0  0  0  0  0  0  0  0  0  0  0  0
   61.7780   33.8620   48.1010 C   0  0  0  0  0  0  0  0  0  0  0  0
   60.3800   33.4650   50.3670 C   0  0  0  0  0  0  0  0  0  0  0  0
   59.7580   33.2600   51.4480 N   0  0  0  0  0  0  0  0  0  0  0  0
   59.1560   33.9690   46.3080 C   0  0  0  0  0  0  0  0  0  0  0  0
   58.4230   32.8900   46.7740 C   0  0  0  0  0  0  0  0  0  0  0  0
   57.7420   32.0860   45.8630 C   0  0  0  0  0  0  0  0  0  0  0  0
   57.8010   32.3700   44.4990 C   0  0  0  0  0  0  0  0  0  0  0  0
   57.1060   31.5560   43.5410 N   0  0  0  0  0  0  0  0  0  0  0  0
   56.6250   29.9500   43.8540 S   0  0  0  0  0  0  0  0  0  0  0  0
   56.4070   29.2700   42.5330 O   0  0  0  0  0  0  0  0  0  0  0  0
   55.3460   29.8440   44.6130 O   0  0  0  0  0  0  0  0  0  0  0  0
   57.8900   29.0320   44.6800 C   0  0  0  0  0  0  0  0  0  0  0  0
   59.2200   29.3450   44.5160 C   0  0  0  0  0  0  0  0  0  0  0  0
   60.1430   28.5840   45.1940 C   0  0  0  0  0  0  0  0  0  0  0  0
   59.7930   27.5400   46.0140 C   0  0  0  0  0  0  0  0  0  0  0  0
   58.4560   27.2150   46.1890 C   0  0  0  0  0  0  0  0  0  0  0  0
   57.5360   27.9720   45.5150 C   0  0  0  0  0  0  0  0  0  0  0  0
   58.5360   33.4530   44.0390 C   0  0  0  0  0  0  0  0  0  0  0  0
   59.2150   34.2530   44.9440 C   0  0  0  0  0  0  0  0  0  0  0  0
   59.7450   34.0580   49.3420 N   0  0  0  0  0  0  0  0  0  0  0  0
   60.4430   34.2560   48.2140 C   0  0  0  0  0  0  0  0  0  0  0  0
   59.8720   34.8210   47.2100 N   0  0  0  0  0  0  0  0  0  0  0  0
   58.7850   32.2330   51.7080 C   0  0  0  0  0  0  0  0  0  0  0  0
   59.2880   30.9200   52.1960 C   0  0  0  0  0  0  0  0  0  0  0  0
   58.3020   29.8520   51.6920 C   0  0  0  0  0  0  0  0  0  0  0  0
   57.0560   30.4260   51.3990 O   0  0  0  0  0  0  0  0  0  0  0  0
   56.6700   31.3360   52.3760 C   0  0  0  0  0  0  0  0  0  0  0  0
   57.4360   32.6450   52.1280 C   0  0  0  0  0  0  0  0  0  0  0  0
   61.6650   33.0760   50.2830 N   0  0  0  0  0  0  0  0  0  0  0  0
   62.3910   33.2570   49.1750 C   0  0  0  0  0  0  0  0  0  0  0  0
   65.1078   33.0599   51.6172 H   0  0  0  0  0  0  0  0  0  0  0  0
   66.3763   33.3527   50.3796 H   0  0  0  0  0  0  0  0  0  0  0  0
   64.8764   34.3411   50.3796 H   0  0  0  0  0  0  0  0  0  0  0  0
   65.4297   31.9044   49.0366 H   0  0  0  0  0  0  0  0  0  0  0  0
   64.0789   31.4140   51.5132 H   0  0  0  0  0  0  0  0  0  0  0  0
   62.8980   31.1900   50.1783 H   0  0  0  0  0  0  0  0  0  0  0  0
   64.4392   30.2672   50.1783 H   0  0  0  0  0  0  0  0  0  0  0  0
   64.7978   33.3093   46.9496 H   0  0  0  0  0  0  0  0  0  0  0  0
   58.3792   32.6706   47.8510 H   0  0  0  0  0  0  0  0  0  0  0  0
   57.1568   31.2257   46.2200 H   0  0  0  0  0  0  0  0  0  0  0  0
   56.9200   32.0460   42.6170 H   0  0  0  0  0  0  0  0  0  0  0  0
   59.5337   30.1747   43.8655 H   0  0  0  0  0  0  0  0  0  0  0  0
   61.2101   28.8225   45.0739 H   0  0  0  0  0  0  0  0  0  0  0  0
   60.5723   26.9617   46.5319 H   0  0  0  0  0  0  0  0  0  0  0  0
   58.1482   26.3846   46.8414 H   0  0  0  0  0  0  0  0  0  0  0  0
   56.4691   27.7337   45.6373 H   0  0  0  0  0  0  0  0  0  0  0  0
   58.5795   33.6752   42.9626 H   0  0  0  0  0  0  0  0  0  0  0  0
   59.8009   35.1125   44.5863 H   0  0  0  0  0  0  0  0  0  0  0  0
   58.7520   34.3300   49.4810 H   0  0  0  0  0  0  0  0  0  0  0  0
   58.5498   31.9643   50.6676 H   0  0  0  0  0  0  0  0  0  0  0  0
   60.2937   30.7267   51.7945 H   0  0  0  0  0  0  0  0  0  0  0  0
   59.3575   30.9068   53.2937 H   0  0  0  0  0  0  0  0  0  0  0  0
   58.7081   29.3865   50.7818 H   0  0  0  0  0  0  0  0  0  0  0  0
   58.1666   29.0961   52.4796 H   0  0  0  0  0  0  0  0  0  0  0  0
   55.5871   31.5181   52.3108 H   0  0  0  0  0  0  0  0  0  0  0  0
   56.8960   30.9426   53.3781 H   0  0  0  0  0  0  0  0  0  0  0  0
   56.9486   33.2323   51.3359 H   0  0  0  0  0  0  0  0  0  0  0  0
   57.4625   33.2805   53.0254 H   0  0  0  0  0  0  0  0  0  0  0  0
   62.1150   32.6250   51.0890 H   0  0  0  0  0  0  0  0  0  0  0  0
  1  2  1  0
  2  3  1  0
  2  4  1  0
  4  5  1  0
  5  6  2  0
  6  7  1  0
  7  8  1  0
  8  9  2  0
  9 10  1  0
 10 11  2  0
 11 12  1  0
 12 13  2  0
 13 14  1  0
 14 15  1  0
 15 16  2  0
 15 17  2  0
 15 18  1  0
 18 19  2  0
 19 20  1  0
 20 21  2  0
 21 22  1  0
 22 23  2  0
 13 24  1  0
 24 25  2  0
  8 26  1  0
 26 27  1  0
 27 28  2  0
 28 29  1  0
 29 30  1  0
 30 31  1  0
 31 32  1  0
 32 33  1  0
 33 34  1  0
 27 35  1  0
 35 36  1  0
 36  4  1  0
 36  7  2  0
 25 10  1  0
 34 29  1  0
 23 18  1  0
  1 37  1  0
  1 38  1  0
  1 39  1  0
  2 40  1  0
  3 41  1  0
  3 42  1  0
  3 43  1  0
  5 44  1  0
 11 45  1  0
 12 46  1  0
 14 47  1  0
 19 48  1  0
 20 49  1  0
 21 50  1  0
 22 51  1  0
 23 52  1  0
 24 53  1  0
 25 54  1  0
 26 55  1  0
 29 56  1  0
 30 57  1  0
 30 58  1  0
 31 59  1  0
 31 60  1  0
 33 61  1  0
 33 62  1  0
 34 63  1  0
 34 64  1  0
 35 65  1  0
M  END
>  <smiles>  (73) 
CC(C)n1cnc2c(=Nc3ccc(NS(=O)(=O)c4ccccc4)cc3)[nH]c(=NC3CCOCC3)[nH]c21

>  <score_type>  (73) 
oracle

>  <origin>  (73) 
adg

>  <m_score__min__energy>  (73) 
-10.630000000000001

>  <m_primary>  (73) 
energy

$$$$
73:0
     RDKit          3D

 58 61  0  0  0  0  0  0  0  0999 V2000
   59.4970   35.2300   47.1640 C   0  0  0  0  0  0  0  0  0  0  0  0
   58.8570   34.2670   46.2060 C   0  0  0  0  0  0  0  0  0  0  0  0
   59.1500   34.3440   44.8360 C   0  0  0  0  0  0  0  0  0  0  0  0
   58.5630   33.4500   43.9370 C   0  0  0  0  0  0  0  0  0  0  0  0
   57.6590   32.4730   44.3920 C   0  0  0  0  0  0  0  0  0  0  0  0
   57.0150   31.5100   43.4270 C   0  0  0  0  0  0  0  0  0  0  0  0
   57.3820   30.1410   43.7640 N   0  0  0  0  0  0  0  0  0  0  0  0
   56.6970   29.3610   44.7460 C   0  0  0  0  0  0  0  0  0  0  0  0
   55.4350   29.3760   44.7900 O   0  0  0  0  0  0  0  0  0  0  0  0
   57.4660   28.5380   45.7070 C   0  0  0  0  0  0  0  0  0  0  0  0
   58.6420   29.0370   46.2910 C   0  0  0  0  0  0  0  0  0  0  0  0
   59.3510   28.2810   47.2310 C   0  0  0  0  0  0  0  0  0  0  0  0
   60.5730   28.8040   47.7890 N   0  0  0  0  0  0  0  0  0  0  0  0
   60.8240   30.2040   47.9970 C   0  0  0  0  0  0  0  0  0  0  0  0
   61.7050   30.8860   47.1440 C   0  0  0  0  0  0  0  0  0  0  0  0
   61.9630   32.2480   47.3400 C   0  0  0  0  0  0  0  0  0  0  0  0
   61.3300   32.9390   48.3750 C   0  0  0  0  0  0  0  0  0  0  0  0
   60.4320   32.2730   49.2130 C   0  0  0  0  0  0  0  0  0  0  0  0
   60.1760   30.9110   49.0250 C   0  0  0  0  0  0  0  0  0  0  0  0
   58.8970   26.9950   47.5610 C   0  0  0  0  0  0  0  0  0  0  0  0
   57.7380   26.4640   46.9730 C   0  0  0  0  0  0  0  0  0  0  0  0
   57.2870   25.1290   47.2620 N   0  0  0  0  0  0  0  0  0  0  0  0
   55.8840   24.3980   46.5420 S   0  0  0  0  0  0  0  0  0  0  0  0
   55.1330   23.6380   47.6000 O   0  0  0  0  0  0  0  0  0  0  0  0
   54.9900   25.4760   45.9940 O   0  0  0  0  0  0  0  0  0  0  0  0
   56.3610   23.3330   45.2240 C   0  0  0  0  0  0  0  0  0  0  0  0
   57.3560   22.3600   45.4140 C   0  0  0  0  0  0  0  0  0  0  0  0
   57.7650   21.5570   44.3440 C   0  0  0  0  0  0  0  0  0  0  0  0
   57.1840   21.7210   43.0830 C   0  0  0  0  0  0  0  0  0  0  0  0
   56.1910   22.6860   42.8920 C   0  0  0  0  0  0  0  0  0  0  0  0
   55.7810   23.4920   43.9590 C   0  0  0  0  0  0  0  0  0  0  0  0
   57.0240   27.2480   46.0540 C   0  0  0  0  0  0  0  0  0  0  0  0
   57.4000   32.3720   45.7680 C   0  0  0  0  0  0  0  0  0  0  0  0
   57.9940   33.2600   46.6690 C   0  0  0  0  0  0  0  0  0  0  0  0
   59.2870   34.9141   48.1965 H   0  0  0  0  0  0  0  0  0  0  0  0
   60.5844   35.2436   46.9986 H   0  0  0  0  0  0  0  0  0  0  0  0
   59.0884   36.2378   46.9986 H   0  0  0  0  0  0  0  0  0  0  0  0
   59.8457   35.1124   44.4677 H   0  0  0  0  0  0  0  0  0  0  0  0
   58.8093   33.5105   42.8666 H   0  0  0  0  0  0  0  0  0  0  0  0
   55.9216   31.6172   43.4816 H   0  0  0  0  0  0  0  0  0  0  0  0
   57.3634   31.7351   42.4082 H   0  0  0  0  0  0  0  0  0  0  0  0
   59.0098   30.0337   46.0060 H   0  0  0  0  0  0  0  0  0  0  0  0
   61.2980   28.1260   48.1160 H   0  0  0  0  0  0  0  0  0  0  0  0
   62.1946   30.3487   46.3185 H   0  0  0  0  0  0  0  0  0  0  0  0
   62.6656   32.7746   46.6774 H   0  0  0  0  0  0  0  0  0  0  0  0
   61.5383   34.0078   48.5307 H   0  0  0  0  0  0  0  0  0  0  0  0
   59.9257   32.8206   50.0216 H   0  0  0  0  0  0  0  0  0  0  0  0
   59.4650   30.3910   49.6839 H   0  0  0  0  0  0  0  0  0  0  0  0
   59.4578   26.3936   48.2917 H   0  0  0  0  0  0  0  0  0  0  0  0
   57.8380   24.5380   47.9280 H   0  0  0  0  0  0  0  0  0  0  0  0
   57.8142   22.2292   46.4054 H   0  0  0  0  0  0  0  0  0  0  0  0
   58.5446   20.7957   44.4950 H   0  0  0  0  0  0  0  0  0  0  0  0
   57.5082   21.0909   42.2416 H   0  0  0  0  0  0  0  0  0  0  0  0
   55.7311   22.8118   41.9007 H   0  0  0  0  0  0  0  0  0  0  0  0
   55.0013   24.2524   43.8044 H   0  0  0  0  0  0  0  0  0  0  0  0
   56.1059   26.8485   45.5985 H   0  0  0  0  0  0  0  0  0  0  0  0
   56.7242   31.5878   46.1400 H   0  0  0  0  0  0  0  0  0  0  0  0
   57.7849   33.1700   47.7452 H   0  0  0  0  0  0  0  0  0  0  0  0
  1  2  1  0
  2  3  2  0
  3  4  1  0
  4  5  2  0
  5  6  1  0
  6  7  1  0
  7  8  1  0
  8  9  2  0
  8 10  1  0
 10 11  2  0
 11 12  1  0
 12 13  1  0
 13 14  1  0
 14 15  2  0
 15 16  1  0
 16 17  2  0
 17 18  1  0
 18 19  2  0
 12 20  2  0
 20 21  1  0
 21 22  1  0
 22 23  1  0
 23 24  2  0
 23 25  2  0
 23 26  1  0
 26 27  2  0
 27 28  1  0
 28 29  2  0
 29 30  1  0
 30 31  2  0
 21 32  2  0
  5 33  1  0
 33 34  2  0
 34  2  1  0
 32 10  1  0
 19 14  1  0
 31 26  1  0
  1 35  1  0
  1 36  1  0
  1 37  1  0
  3 38  1  0
  4 39  1  0
  6 40  1  0
  6 41  1  0
 11 42  1  0
 13 43  1  0
 15 44  1  0
 16 45  1  0
 17 46  1  0
 18 47  1  0
 19 48  1  0
 20 49  1  0
 22 50  1  0
 27 51  1  0
 28 52  1  0
 29 53  1  0
 30 54  1  0
 31 55  1  0
 32 56  1  0
 33 57  1  0
 34 58  1  0
M  CHG  1   7  -1
M  END
>  <UniqueID>  (74) 
66

>  <SMILES>  (74) 
Cc1ccc(C[N-]C(=O)c2cc(Nc3ccccc3)cc(NS(=O)(=O)c3ccccc3)c2)cc1

>  <Energy>  (74) 
67.89892508522327

>  <Genealogy>  (74) 
Cc1ccc(C[N-]C(=O)c2cc(Nc3ccccc3)cc(NS(=O)(=O)c3ccccc3)c2)cc1 (protonated)
Cc1ccc(C[N-]C(=O)c2cc(Nc3ccccc3)cc(NS(=O)(=O)c3ccccc3)c2)cc1 (3D coordinates assigned)
Cc1ccc(C[N-]C(=O)c2cc(Nc3ccccc3)cc(NS(=O)(=O)c3ccccc3)c2)cc1 (optimized conformer: 67.89892508522327 kcal/mol)

>  <smiles>  (74) 
Cc1ccc(CNC(=O)c2cc(Nc3ccccc3)cc(NS(=O)(=O)c3ccccc3)c2)cc1

>  <score_type>  (74) 
oracle

>  <origin>  (74) 
adg

>  <m_score__min__energy>  (74) 
-12.050000000000001

>  <m_primary>  (74) 
energy

$$$$
74:0
     RDKit          3D

 34 34  0  0  0  0  0  0  0  0999 V2000
   53.3490   23.6440   45.5370 C   0  0  0  0  0  0  0  0  0  0  0  0
   54.8460   23.3670   45.7060 C   0  0  0  0  0  0  0  0  0  0  0  0
   55.5240   23.0130   44.3810 C   0  0  0  0  0  0  0  0  0  0  0  0
   55.5500   24.4600   46.3860 N   0  0  0  0  0  0  0  0  0  0  0  0
   55.9510   25.7480   45.8920 C   0  0  0  0  0  0  0  0  0  0  0  0
   55.1420   26.7050   46.0180 O   0  0  0  0  0  0  0  0  0  0  0  0
   57.2800   25.9760   45.2090 C   0  0  0  0  0  0  0  0  0  0  0  0
   58.1250   27.0920   45.8460 C   0  0  0  0  0  0  0  0  0  0  0  0
   57.3150   28.2480   46.2460 N   0  0  0  0  0  0  0  0  0  0  0  0
   56.8510   29.2340   44.8850 S   0  0  0  0  0  0  0  0  0  0  0  0
   55.3530   29.3450   44.8030 O   0  0  0  0  0  0  0  0  0  0  0  0
   57.3590   28.5950   43.6240 O   0  0  0  0  0  0  0  0  0  0  0  0
   57.5720   30.8350   45.0340 C   0  0  0  0  0  0  0  0  0  0  0  0
   57.4920   31.7550   43.9800 C   0  0  0  0  0  0  0  0  0  0  0  0
   58.0490   33.0300   44.1170 C   0  0  0  0  0  0  0  0  0  0  0  0
   58.6900   33.3920   45.3070 C   0  0  0  0  0  0  0  0  0  0  0  0
   59.3750   34.9970   45.4840 Cl  0  0  0  0  0  0  0  0  0  0  0  0
   58.7770   32.4730   46.3590 C   0  0  0  0  0  0  0  0  0  0  0  0
   58.2240   31.1960   46.2210 C   0  0  0  0  0  0  0  0  0  0  0  0
   52.8781   23.7311   46.5273 H   0  0  0  0  0  0  0  0  0  0  0  0
   53.2103   24.5830   44.9812 H   0  0  0  0  0  0  0  0  0  0  0  0
   52.8835   22.8167   44.9812 H   0  0  0  0  0  0  0  0  0  0  0  0
   54.9151   22.4840   46.3583 H   0  0  0  0  0  0  0  0  0  0  0  0
   56.4827   22.5124   44.5819 H   0  0  0  0  0  0  0  0  0  0  0  0
   54.8727   22.3399   43.8042 H   0  0  0  0  0  0  0  0  0  0  0  0
   55.7041   23.9322   43.8042 H   0  0  0  0  0  0  0  0  0  0  0  0
   57.8556   25.0395   45.2501 H   0  0  0  0  0  0  0  0  0  0  0  0
   57.0593   26.2914   44.1786 H   0  0  0  0  0  0  0  0  0  0  0  0
   58.6291   26.6887   46.7367 H   0  0  0  0  0  0  0  0  0  0  0  0
   58.8499   27.4349   45.0931 H   0  0  0  0  0  0  0  0  0  0  0  0
   56.9898   31.4734   43.0427 H   0  0  0  0  0  0  0  0  0  0  0  0
   57.9832   33.7499   43.2879 H   0  0  0  0  0  0  0  0  0  0  0  0
   59.2808   32.7554   47.2952 H   0  0  0  0  0  0  0  0  0  0  0  0
   58.3009   30.4729   47.0463 H   0  0  0  0  0  0  0  0  0  0  0  0
  1  2  1  0
  2  3  1  0
  2  4  1  0
  4  5  1  0
  5  6  2  0
  5  7  1  0
  7  8  1  0
  8  9  1  0
  9 10  1  0
 10 11  2  0
 10 12  2  0
 10 13  1  0
 13 14  2  0
 14 15  1  0
 15 16  2  0
 16 17  1  0
 16 18  1  0
 18 19  2  0
 19 13  1  0
  1 20  1  0
  1 21  1  0
  1 22  1  0
  2 23  1  0
  3 24  1  0
  3 25  1  0
  3 26  1  0
  7 27  1  0
  7 28  1  0
  8 29  1  0
  8 30  1  0
 14 31  1  0
 15 32  1  0
 18 33  1  0
 19 34  1  0
M  CHG  2   4  -1   9  -1
M  END
>  <UniqueID>  (75) 
67

>  <SMILES>  (75) 
CC(C)[N-]C(=O)CC[N-]S(=O)(=O)c1ccc(Cl)cc1

>  <Energy>  (75) 
27.385844651382886

>  <Genealogy>  (75) 
CC(C)[N-]C(=O)CC[N-]S(=O)(=O)c1ccc(Cl)cc1 (protonated)
CC(C)[N-]C(=O)CC[N-]S(=O)(=O)c1ccc(Cl)cc1 (3D coordinates assigned)
CC(C)[N-]C(=O)CC[N-]S(=O)(=O)c1ccc(Cl)cc1 (optimized conformer: 27.385844651382886 kcal/mol)

>  <smiles>  (75) 
CC(C)NC(=O)CCNS(=O)(=O)c1ccc(Cl)cc1

>  <score_type>  (75) 
oracle

>  <origin>  (75) 
adg

>  <m_score__min__energy>  (75) 
-10.800000000000001

>  <m_primary>  (75) 
energy

$$$$
75:0
     RDKit          3D

 35 37  0  0  0  0  0  0  0  0999 V2000
   59.8859   26.8223   44.6572 H   0  0  0  0  0  0  0  0  0  0  0  0
   58.8970   27.2930   44.7600 C   0  0  0  0  0  0  0  0  0  0  0  0
   58.6300   28.5030   44.1240 C   0  0  0  0  0  0  0  0  0  0  0  0
   59.4093   28.9940   43.5226 H   0  0  0  0  0  0  0  0  0  0  0  0
   57.3630   29.0940   44.2530 C   0  0  0  0  0  0  0  0  0  0  0  0
   57.0890   30.3910   43.5850 C   0  0  0  0  0  0  0  0  0  0  0  0
   56.9540   30.4260   42.3340 O   0  0  0  0  0  0  0  0  0  0  0  0
   56.8790   31.5990   44.3310 N   0  0  0  0  0  0  0  0  0  0  0  0
   57.6410   32.0520   45.2850 C   0  0  0  0  0  0  0  0  0  0  0  0
   58.4180   31.1150   46.4730 S   0  0  0  0  0  0  0  0  0  0  0  0
   59.1530   32.4640   47.1560 C   0  0  0  0  0  0  0  0  0  0  0  0
   60.0060   32.5230   48.2540 C   0  0  0  0  0  0  0  0  0  0  0  0
   60.2808   31.6110   48.8042 H   0  0  0  0  0  0  0  0  0  0  0  0
   60.5110   33.7860   48.6450 C   0  0  0  0  0  0  0  0  0  0  0  0
   61.3760   33.9490   49.7390 O   0  0  0  0  0  0  0  0  0  0  0  0
   62.7960   34.0740   49.6620 C   0  0  0  0  0  0  0  0  0  0  0  0
   63.2525   33.5179   50.4941 H   0  0  0  0  0  0  0  0  0  0  0  0
   63.0597   35.1402   49.7233 H   0  0  0  0  0  0  0  0  0  0  0  0
   63.3180   33.5170   48.3430 C   0  0  0  0  0  0  0  0  0  0  0  0
   64.0574   32.7280   48.5451 H   0  0  0  0  0  0  0  0  0  0  0  0
   62.4814   33.0963   47.7659 H   0  0  0  0  0  0  0  0  0  0  0  0
   63.7920   34.3246   47.7659 H   0  0  0  0  0  0  0  0  0  0  0  0
   60.1340   34.9380   47.9210 C   0  0  0  0  0  0  0  0  0  0  0  0
   60.5218   35.9209   48.2267 H   0  0  0  0  0  0  0  0  0  0  0  0
   59.2710   34.8480   46.8160 C   0  0  0  0  0  0  0  0  0  0  0  0
   58.9834   35.7493   46.2549 H   0  0  0  0  0  0  0  0  0  0  0  0
   58.7860   33.5950   46.4440 C   0  0  0  0  0  0  0  0  0  0  0  0
   57.9490   33.3660   45.3990 N   0  0  0  0  0  0  0  0  0  0  0  0
   57.5870   34.1100   44.7610 H   0  0  0  0  0  0  0  0  0  0  0  0
   56.4050   28.4770   45.0180 N   0  0  0  0  0  0  0  0  0  0  0  0
   55.1500   29.0360   45.1370 O   0  0  0  0  0  0  0  0  0  0  0  0
   56.6580   27.2920   45.6470 C   0  0  0  0  0  0  0  0  0  0  0  0
   55.7620   26.7370   46.3380 O   0  0  0  0  0  0  0  0  0  0  0  0
   57.9090   26.6810   45.5260 C   0  0  0  0  0  0  0  0  0  0  0  0
   58.1111   25.7251   46.0315 H   0  0  0  0  0  0  0  0  0  0  0  0
  1  2  1  0
  2  3  1  0
  3  4  1  0
  3  5  2  0
  5  6  1  0
  6  7  2  0
  6  8  1  0
  8  9  2  0
  9 10  1  0
 10 11  1  0
 11 12  2  0
 12 13  1  0
 12 14  1  0
 14 15  1  0
 15 16  1  0
 16 17  1  0
 16 18  1  0
 16 19  1  0
 19 20  1  0
 19 21  1  0
 19 22  1  0
 14 23  2  0
 23 24  1  0
 23 25  1  0
 25 26  1  0
 25 27  2  0
 27 28  1  0
 28 29  1  0
  5 30  1  0
 30 31  1  0
 30 32  1  0
 32 33  2  0
 32 34  1  0
 34 35  1  0
 34  2  2  0
 28  9  1  0
 27 11  1  0
M  CHG  1  31  -1
M  END
>  <UniqueID>  (76) 
68

>  <SMILES>  (76) 
CCOc1ccc2[nH]/c(=N/C(=O)c3cccc(=O)n3[O-])sc2c1

>  <Energy>  (76) 
81.08882042741753

>  <Genealogy>  (76) 
CCOc1ccc2[nH]c(=NC(=O)c3cccc(=O)n3[O-])sc2c1 (protonated)
CCOc1ccc2[nH]/c(=N/C(=O)c3cccc(=O)n3[O-])sc2c1 (cis-trans isomerization)
CCOc1ccc2[nH]/c(=N/C(=O)c3cccc(=O)n3[O-])sc2c1 (3D coordinates assigned)
CCOc1ccc2[nH]/c(=N/C(=O)c3cccc(=O)n3[O-])sc2c1 (optimized conformer: 81.08882042741753 kcal/mol)

>  <smiles>  (76) 
CCOc1ccc2[nH]c(=NC(=O)c3cccc(=O)n3O)sc2c1

>  <score_type>  (76) 
oracle

>  <origin>  (76) 
adg

>  <m_score__min__energy>  (76) 
-11.23

>  <m_primary>  (76) 
energy

$$$$
76:0
     RDKit          3D

 33 35  0  0  0  0  0  0  0  0999 V2000
   63.5790   33.2990   46.8240 C   0  0  0  0  0  0  0  0  0  0  0  0
   63.7110   33.4310   48.1460 C   0  0  0  0  0  0  0  0  0  0  0  0
   64.8390   33.1120   48.8140 N   0  0  0  0  0  0  0  0  0  0  0  0
   64.6480   33.3500   50.0780 O   0  0  0  0  0  0  0  0  0  0  0  0
   63.4390   33.8180   50.2720 C   0  0  0  0  0  0  0  0  0  0  0  0
   62.9750   34.0890   51.4110 O   0  0  0  0  0  0  0  0  0  0  0  0
   62.7670   33.9080   49.0570 C   0  0  0  0  0  0  0  0  0  0  0  0
   61.5050   34.3070   48.8060 C   0  0  0  0  0  0  0  0  0  0  0  0
   60.6040   33.6570   47.8360 C   0  0  0  0  0  0  0  0  0  0  0  0
   59.8310   34.4510   46.9790 C   0  0  0  0  0  0  0  0  0  0  0  0
   58.9360   33.8630   46.0800 C   0  0  0  0  0  0  0  0  0  0  0  0
   58.7880   32.4680   46.0440 C   0  0  0  0  0  0  0  0  0  0  0  0
   57.8930   31.8670   45.1460 C   0  0  0  0  0  0  0  0  0  0  0  0
   57.7470   30.4730   45.1200 C   0  0  0  0  0  0  0  0  0  0  0  0
   56.6110   29.7270   44.0000 S   0  0  0  0  0  0  0  0  0  0  0  0
   55.1500   29.3360   44.8360 N   0  0  0  0  0  0  0  0  0  0  0  0
   57.2070   28.4740   43.4250 O   0  0  0  0  0  0  0  0  0  0  0  0
   56.3070   30.6770   42.8750 O   0  0  0  0  0  0  0  0  0  0  0  0
   58.4890   29.6790   46.0060 C   0  0  0  0  0  0  0  0  0  0  0  0
   59.3820   30.2680   46.9040 C   0  0  0  0  0  0  0  0  0  0  0  0
   59.5420   31.6600   46.9290 C   0  0  0  0  0  0  0  0  0  0  0  0
   60.4360   32.2620   47.8280 C   0  0  0  0  0  0  0  0  0  0  0  0
   62.6333   33.5762   46.3353 H   0  0  0  0  0  0  0  0  0  0  0  0
   64.4159   32.9131   46.2235 H   0  0  0  0  0  0  0  0  0  0  0  0
   65.7240   32.7330   48.4100 H   0  0  0  0  0  0  0  0  0  0  0  0
   61.1210   35.1753   49.3615 H   0  0  0  0  0  0  0  0  0  0  0  0
   59.9289   35.5461   47.0136 H   0  0  0  0  0  0  0  0  0  0  0  0
   58.3467   34.4952   45.3996 H   0  0  0  0  0  0  0  0  0  0  0  0
   57.3034   32.4923   44.4595 H   0  0  0  0  0  0  0  0  0  0  0  0
   55.4110   28.7110   45.6310 H   0  0  0  0  0  0  0  0  0  0  0  0
   58.3671   28.5858   45.9938 H   0  0  0  0  0  0  0  0  0  0  0  0
   59.9617   29.6371   47.5939 H   0  0  0  0  0  0  0  0  0  0  0  0
   61.0084   31.6382   48.5303 H   0  0  0  0  0  0  0  0  0  0  0  0
  1  2  2  0
  2  3  1  0
  3  4  1  0
  4  5  1  0
  5  6  2  0
  5  7  1  0
  7  8  2  3
  8  9  1  0
  9 10  2  0
 10 11  1  0
 11 12  2  0
 12 13  1  0
 13 14  2  0
 14 15  1  0
 15 16  1  0
 15 17  2  0
 15 18  2  0
 14 19  1  0
 19 20  2  0
 20 21  1  0
 21 22  2  0
  7  2  1  0
 22  9  1  0
 21 12  1  0
  1 23  1  0
  1 24  1  0
  3 25  1  0
  8 26  1  0
 10 27  1  0
 11 28  1  0
 13 29  1  0
 16 30  1  0
 19 31  1  0
 20 32  1  0
 22 33  1  0
M  CHG  1  16  -1
M  END
>  <UniqueID>  (77) 
69

>  <SMILES>  (77) 
C=c1[nH]oc(=O)c1=Cc1ccc2cc(S([NH-])(=O)=O)ccc2c1

>  <Energy>  (77) 
81.41389970274982

>  <Genealogy>  (77) 
C=c1[nH]oc(=O)c1=Cc1ccc2cc(S([NH-])(=O)=O)ccc2c1 (protonated)
C=c1[nH]oc(=O)c1=Cc1ccc2cc(S([NH-])(=O)=O)ccc2c1 (3D coordinates assigned)
C=c1[nH]oc(=O)c1=Cc1ccc2cc(S([NH-])(=O)=O)ccc2c1 (optimized conformer: 81.41389970274982 kcal/mol)

>  <smiles>  (77) 
C=c1[nH]oc(=O)c1=Cc1ccc2cc(S(N)(=O)=O)ccc2c1

>  <score_type>  (77) 
oracle

>  <origin>  (77) 
adg

>  <m_score__min__energy>  (77) 
-11.01

>  <m_primary>  (77) 
energy

$$$$
77:0
     RDKit          3D

 59 62  0  0  0  0  0  0  0  0999 V2000
   53.2610   22.4100   47.2640 C   0  0  0  0  0  0  0  0  0  0  0  0
   53.7020   23.1780   45.7210 S   0  0  0  0  0  0  0  0  0  0  0  0
   54.2250   24.5640   45.9840 O   0  0  0  0  0  0  0  0  0  0  0  0
   52.4750   23.2520   44.8560 O   0  0  0  0  0  0  0  0  0  0  0  0
   54.9280   22.2190   44.9520 N   0  0  0  0  0  0  0  0  0  0  0  0
   55.9940   22.7320   44.1430 C   0  0  0  0  0  0  0  0  0  0  0  0
   56.2720   22.1390   43.0650 O   0  0  0  0  0  0  0  0  0  0  0  0
   56.7680   23.9310   44.5190 C   0  0  0  0  0  0  0  0  0  0  0  0
   57.0590   24.9060   43.5540 C   0  0  0  0  0  0  0  0  0  0  0  0
   57.7970   26.0430   43.8970 C   0  0  0  0  0  0  0  0  0  0  0  0
   58.2790   26.2120   45.2070 C   0  0  0  0  0  0  0  0  0  0  0  0
   59.0530   27.3790   45.5560 N   0  0  0  0  0  0  0  0  0  0  0  0
   59.6400   28.2300   44.5130 C   0  0  0  0  0  0  0  0  0  0  0  0
   59.4940   29.7010   44.9240 C   0  0  0  0  0  0  0  0  0  0  0  0
   60.0370   30.0050   46.2860 N   0  0  0  0  0  0  0  0  0  0  0  0
   59.1110   30.8820   47.0550 C   0  0  0  0  0  0  0  0  0  0  0  0
   58.8590   32.2090   46.3540 C   0  0  0  0  0  0  0  0  0  0  0  0
   57.6900   32.3520   45.5800 C   0  0  0  0  0  0  0  0  0  0  0  0
   57.4400   33.5330   44.8770 C   0  0  0  0  0  0  0  0  0  0  0  0
   58.3540   34.5880   44.9320 C   0  0  0  0  0  0  0  0  0  0  0  0
   59.5180   34.4680   45.6950 C   0  0  0  0  0  0  0  0  0  0  0  0
   59.7800   33.2920   46.4190 C   0  0  0  0  0  0  0  0  0  0  0  0
   61.0290   33.2230   47.2110 C   0  0  0  0  0  0  0  0  0  0  0  0
   62.2790   33.4170   46.5970 C   0  0  0  0  0  0  0  0  0  0  0  0
   63.4520   33.3650   47.3590 C   0  0  0  0  0  0  0  0  0  0  0  0
   63.3850   33.1010   48.7330 C   0  0  0  0  0  0  0  0  0  0  0  0
   64.8560   33.0370   49.6880 Cl  0  0  0  0  0  0  0  0  0  0  0  0
   62.1440   32.8800   49.3430 C   0  0  0  0  0  0  0  0  0  0  0  0
   60.9690   32.9380   48.5850 C   0  0  0  0  0  0  0  0  0  0  0  0
   60.3880   28.7940   47.0800 C   0  0  0  0  0  0  0  0  0  0  0  0
   59.3250   27.6920   46.9650 C   0  0  0  0  0  0  0  0  0  0  0  0
   58.0120   25.2180   46.1660 C   0  0  0  0  0  0  0  0  0  0  0  0
   57.2670   24.0850   45.8220 C   0  0  0  0  0  0  0  0  0  0  0  0
   53.6180   23.0317   48.0983 H   0  0  0  0  0  0  0  0  0  0  0  0
   52.1673   22.3089   47.3239 H   0  0  0  0  0  0  0  0  0  0  0  0
   53.7250   21.4145   47.3239 H   0  0  0  0  0  0  0  0  0  0  0  0
   56.7045   24.7755   42.5209 H   0  0  0  0  0  0  0  0  0  0  0  0
   58.0020   26.8108   43.1365 H   0  0  0  0  0  0  0  0  0  0  0  0
   60.7057   27.9848   44.3941 H   0  0  0  0  0  0  0  0  0  0  0  0
   59.1202   28.0585   43.5588 H   0  0  0  0  0  0  0  0  0  0  0  0
   60.0305   30.3209   44.1905 H   0  0  0  0  0  0  0  0  0  0  0  0
   58.4164   29.9201   44.9526 H   0  0  0  0  0  0  0  0  0  0  0  0
   60.9360   30.5270   46.1550 H   0  0  0  0  0  0  0  0  0  0  0  0
   58.1510   30.3598   47.1801 H   0  0  0  0  0  0  0  0  0  0  0  0
   59.5798   31.0976   48.0265 H   0  0  0  0  0  0  0  0  0  0  0  0
   56.9667   31.5248   45.5289 H   0  0  0  0  0  0  0  0  0  0  0  0
   56.5220   33.6324   44.2792 H   0  0  0  0  0  0  0  0  0  0  0  0
   58.1568   35.5149   44.3735 H   0  0  0  0  0  0  0  0  0  0  0  0
   60.2357   35.3009   45.7295 H   0  0  0  0  0  0  0  0  0  0  0  0
   62.3352   33.6100   45.5155 H   0  0  0  0  0  0  0  0  0  0  0  0
   64.4273   33.5316   46.8784 H   0  0  0  0  0  0  0  0  0  0  0  0
   62.0927   32.6605   50.4196 H   0  0  0  0  0  0  0  0  0  0  0  0
   59.9961   32.7600   49.0665 H   0  0  0  0  0  0  0  0  0  0  0  0
   61.3478   28.3987   46.7161 H   0  0  0  0  0  0  0  0  0  0  0  0
   60.4503   29.0918   48.1371 H   0  0  0  0  0  0  0  0  0  0  0  0
   59.6875   26.7861   47.4728 H   0  0  0  0  0  0  0  0  0  0  0  0
   58.3956   28.0464   47.4347 H   0  0  0  0  0  0  0  0  0  0  0  0
   58.3912   25.3323   47.1922 H   0  0  0  0  0  0  0  0  0  0  0  0
   57.0710   23.3098   46.5774 H   0  0  0  0  0  0  0  0  0  0  0  0
  1  2  1  0
  2  3  2  0
  2  4  2  0
  2  5  1  0
  5  6  1  0
  6  7  2  0
  6  8  1  0
  8  9  2  0
  9 10  1  0
 10 11  2  0
 11 12  1  0
 12 13  1  0
 13 14  1  0
 14 15  1  0
 15 16  1  0
 16 17  1  0
 17 18  2  0
 18 19  1  0
 19 20  2  0
 20 21  1  0
 21 22  2  0
 22 23  1  0
 23 24  2  0
 24 25  1  0
 25 26  2  0
 26 27  1  0
 26 28  1  0
 28 29  2  0
 15 30  1  0
 30 31  1  0
 11 32  1  0
 32 33  2  0
 33  8  1  0
 31 12  1  0
 22 17  1  0
 29 23  1  0
  1 34  1  0
  1 35  1  0
  1 36  1  0
  9 37  1  0
 10 38  1  0
 13 39  1  0
 13 40  1  0
 14 41  1  0
 14 42  1  0
 15 43  1  0
 16 44  1  0
 16 45  1  0
 18 46  1  0
 19 47  1  0
 20 48  1  0
 21 49  1  0
 24 50  1  0
 25 51  1  0
 28 52  1  0
 29 53  1  0
 30 54  1  0
 30 55  1  0
 31 56  1  0
 31 57  1  0
 32 58  1  0
 33 59  1  0
M  CHG  2   5  -1  15   1
M  END
>  <UniqueID>  (78) 
70

>  <SMILES>  (78) 
CS(=O)(=O)[N-]C(=O)c1ccc(N2CC[NH+](Cc3ccccc3-c3ccc(Cl)cc3)CC2)cc1

>  <Energy>  (78) 
86.08590915639718

>  <Genealogy>  (78) 
CS(=O)(=O)[N-]C(=O)c1ccc(N2CC[NH+](Cc3ccccc3-c3ccc(Cl)cc3)CC2)cc1 (protonated)
CS(=O)(=O)[N-]C(=O)c1ccc(N2CC[NH+](Cc3ccccc3-c3ccc(Cl)cc3)CC2)cc1 (3D coordinates assigned)
CS(=O)(=O)[N-]C(=O)c1ccc(N2CC[NH+](Cc3ccccc3-c3ccc(Cl)cc3)CC2)cc1 (nonaromatic ring conformer: 86.08590915639718 kcal/mol)

>  <smiles>  (78) 
CS(=O)(=O)NC(=O)c1ccc(N2CCN(Cc3ccccc3-c3ccc(Cl)cc3)CC2)cc1

>  <score_type>  (78) 
oracle

>  <origin>  (78) 
adg

>  <m_score__min__energy>  (78) 
-10.74

>  <m_primary>  (78) 
energy

$$$$
78:0
     RDKit          3D

 51 52  0  0  0  0  0  0  0  0999 V2000
   58.4040   27.0930   45.3420 C   0  0  0  0  0  0  0  0  0  0  0  0
   58.7330   28.1460   46.3640 C   0  0  0  0  0  0  0  0  0  0  0  0
   59.0500   27.7690   47.6690 C   0  0  0  0  0  0  0  0  0  0  0  0
   59.2950   28.7310   48.6430 C   0  0  0  0  0  0  0  0  0  0  0  0
   59.2700   30.0990   48.3330 C   0  0  0  0  0  0  0  0  0  0  0  0
   59.4420   31.2650   49.6670 S   0  0  0  0  0  0  0  0  0  0  0  0
   58.5190   30.8000   51.1190 C   0  0  0  0  0  0  0  0  0  0  0  0
   60.8870   31.3950   50.0540 O   0  0  0  0  0  0  0  0  0  0  0  0
   58.9200   32.6020   49.2220 O   0  0  0  0  0  0  0  0  0  0  0  0
   59.0280   30.5030   46.9850 C   0  0  0  0  0  0  0  0  0  0  0  0
   59.1080   31.8970   46.5790 N   0  0  0  0  0  0  0  0  0  0  0  0
   57.8010   32.5890   46.5600 C   0  0  0  0  0  0  0  0  0  0  0  0
   57.8580   34.0080   45.9650 C   0  0  0  0  0  0  0  0  0  0  0  0
   59.5890   34.5200   45.6660 S   0  0  0  0  0  0  0  0  0  0  0  0
   60.0090   34.8180   47.4170 C   0  0  0  0  0  0  0  0  0  0  0  0
   61.3050   34.1400   47.7630 C   0  0  0  0  0  0  0  0  0  0  0  0
   62.0480   33.4690   46.7780 C   0  0  0  0  0  0  0  0  0  0  0  0
   63.2530   32.8440   47.1100 C   0  0  0  0  0  0  0  0  0  0  0  0
   63.7270   32.8880   48.4240 C   0  0  0  0  0  0  0  0  0  0  0  0
   62.9970   33.5580   49.4080 C   0  0  0  0  0  0  0  0  0  0  0  0
   61.7910   34.1850   49.0810 C   0  0  0  0  0  0  0  0  0  0  0  0
   58.6830   29.5120   46.0300 C   0  0  0  0  0  0  0  0  0  0  0  0
   58.2700   29.8900   44.7140 N   0  0  0  0  0  0  0  0  0  0  0  0
   56.6030   30.1340   44.3200 S   0  0  0  0  0  0  0  0  0  0  0  0
   56.2850   29.6700   42.6290 C   0  0  0  0  0  0  0  0  0  0  0  0
   56.2590   31.5850   44.5000 O   0  0  0  0  0  0  0  0  0  0  0  0
   55.7480   29.2980   45.2280 O   0  0  0  0  0  0  0  0  0  0  0  0
   58.1136   26.1635   45.8536 H   0  0  0  0  0  0  0  0  0  0  0  0
   57.5716   27.4405   44.7124 H   0  0  0  0  0  0  0  0  0  0  0  0
   59.2862   26.9048   44.7124 H   0  0  0  0  0  0  0  0  0  0  0  0
   59.1067   26.7019   47.9299 H   0  0  0  0  0  0  0  0  0  0  0  0
   59.5120   28.4140   49.6737 H   0  0  0  0  0  0  0  0  0  0  0  0
   59.0837   31.0845   52.0191 H   0  0  0  0  0  0  0  0  0  0  0  0
   57.5477   31.3164   51.1170 H   0  0  0  0  0  0  0  0  0  0  0  0
   58.3559   29.7122   51.1170 H   0  0  0  0  0  0  0  0  0  0  0  0
   59.7410   32.4020   47.2390 H   0  0  0  0  0  0  0  0  0  0  0  0
   59.5310   32.0130   45.6340 H   0  0  0  0  0  0  0  0  0  0  0  0
   57.0998   31.9896   45.9608 H   0  0  0  0  0  0  0  0  0  0  0  0
   57.4782   32.6930   47.6064 H   0  0  0  0  0  0  0  0  0  0  0  0
   57.3085   34.0216   45.0122 H   0  0  0  0  0  0  0  0  0  0  0  0
   57.4024   34.7083   46.6806 H   0  0  0  0  0  0  0  0  0  0  0  0
   60.1083   35.9001   47.5877 H   0  0  0  0  0  0  0  0  0  0  0  0
   59.2095   34.4092   48.0523 H   0  0  0  0  0  0  0  0  0  0  0  0
   61.6802   33.4353   45.7418 H   0  0  0  0  0  0  0  0  0  0  0  0
   63.8294   32.3165   46.3358 H   0  0  0  0  0  0  0  0  0  0  0  0
   64.6754   32.3947   48.6832 H   0  0  0  0  0  0  0  0  0  0  0  0
   63.3714   33.5925   50.4418 H   0  0  0  0  0  0  0  0  0  0  0  0
   61.2206   34.7153   49.8578 H   0  0  0  0  0  0  0  0  0  0  0  0
   55.6633   28.7628   42.6084 H   0  0  0  0  0  0  0  0  0  0  0  0
   55.7569   30.4881   42.1174 H   0  0  0  0  0  0  0  0  0  0  0  0
   57.2386   29.4727   42.1174 H   0  0  0  0  0  0  0  0  0  0  0  0
  1  2  1  0
  2  3  2  0
  3  4  1  0
  4  5  2  0
  5  6  1  0
  6  7  1  0
  6  8  2  0
  6  9  2  0
  5 10  1  0
 10 11  1  0
 11 12  1  0
 12 13  1  0
 13 14  1  0
 14 15  1  0
 15 16  1  0
 16 17  2  0
 17 18  1  0
 18 19  2  0
 19 20  1  0
 20 21  2  0
 10 22  2  0
 22 23  1  0
 23 24  1  0
 24 25  1  0
 24 26  2  0
 24 27  2  0
 22  2  1  0
 21 16  1  0
  1 28  1  0
  1 29  1  0
  1 30  1  0
  3 31  1  0
  4 32  1  0
  7 33  1  0
  7 34  1  0
  7 35  1  0
 11 36  1  0
 11 37  1  0
 12 38  1  0
 12 39  1  0
 13 40  1  0
 13 41  1  0
 15 42  1  0
 15 43  1  0
 17 44  1  0
 18 45  1  0
 19 46  1  0
 20 47  1  0
 21 48  1  0
 25 49  1  0
 25 50  1  0
 25 51  1  0
M  CHG  2  11   1  23  -1
M  END
>  <UniqueID>  (79) 
71

>  <SMILES>  (79) 
Cc1ccc(S(C)(=O)=O)c([NH2+]CCSCc2ccccc2)c1[N-]S(C)(=O)=O

>  <Energy>  (79) 
51.825585503887815

>  <Genealogy>  (79) 
Cc1ccc(S(C)(=O)=O)c([NH2+]CCSCc2ccccc2)c1[N-]S(C)(=O)=O (protonated)
Cc1ccc(S(C)(=O)=O)c([NH2+]CCSCc2ccccc2)c1[N-]S(C)(=O)=O (3D coordinates assigned)
Cc1ccc(S(C)(=O)=O)c([NH2+]CCSCc2ccccc2)c1[N-]S(C)(=O)=O (optimized conformer: 51.825585503887815 kcal/mol)

>  <smiles>  (79) 
Cc1ccc(S(C)(=O)=O)c(NCCSCc2ccccc2)c1NS(C)(=O)=O

>  <score_type>  (79) 
oracle

>  <origin>  (79) 
adg

>  <m_score__min__energy>  (79) 
-8.2799999999999994

>  <m_primary>  (79) 
energy

$$$$
79:0
     RDKit          3D

 41 43  0  0  0  0  0  0  0  0999 V2000
   57.0390   27.5510   45.5130 C   0  0  0  0  0  0  0  0  0  0  0  0
   55.8820   28.3370   45.2510 O   0  0  0  0  0  0  0  0  0  0  0  0
   55.8680   29.3650   44.3040 C   0  0  0  0  0  0  0  0  0  0  0  0
   54.7830   29.7500   43.7930 O   0  0  0  0  0  0  0  0  0  0  0  0
   57.0930   29.9560   43.8630 N   0  0  0  0  0  0  0  0  0  0  0  0
   57.8120   30.9670   44.5780 C   0  0  0  0  0  0  0  0  0  0  0  0
   57.1970   32.5060   44.8680 S   0  0  0  0  0  0  0  0  0  0  0  0
   58.4890   33.0190   45.8130 C   0  0  0  0  0  0  0  0  0  0  0  0
   59.4280   31.9960   45.9100 C   0  0  0  0  0  0  0  0  0  0  0  0
   59.0340   30.8220   45.2430 C   0  0  0  0  0  0  0  0  0  0  0  0
   59.7610   29.5820   45.3410 C   0  0  0  0  0  0  0  0  0  0  0  0
   60.3470   28.5870   45.4220 N   0  0  0  0  0  0  0  0  0  0  0  0
   60.6550   32.1230   46.7760 C   0  0  0  0  0  0  0  0  0  0  0  0
   60.9770   33.5950   47.0940 C   0  0  0  0  0  0  0  0  0  0  0  0
   59.7220   34.3910   47.5130 C   0  0  2  0  0  0  0  0  0  0  0  0
   59.1530   33.8380   48.7470 N   0  0  0  0  0  0  0  0  0  0  0  0
   59.8840   33.8040   49.9820 C   0  0  0  0  0  0  0  0  0  0  0  0
   61.0940   34.1590   50.0100 O   0  0  0  0  0  0  0  0  0  0  0  0
   59.2480   33.3020   51.2200 C   0  0  0  0  0  0  0  0  0  0  0  0
   59.1100   34.1760   52.3120 C   0  0  0  0  0  0  0  0  0  0  0  0
   58.5350   33.7340   53.5070 C   0  0  0  0  0  0  0  0  0  0  0  0
   58.0840   32.4180   53.6210 C   0  0  0  0  0  0  0  0  0  0  0  0
   58.1960   31.5460   52.5370 C   0  0  0  0  0  0  0  0  0  0  0  0
   58.7680   31.9770   51.3340 C   0  0  0  0  0  0  0  0  0  0  0  0
   58.7790   30.8520   49.9780 Cl  0  0  0  0  0  0  0  0  0  0  0  0
   58.6680   34.3910   46.3870 C   0  0  0  0  0  0  0  0  0  0  0  0
   57.1792   27.4558   46.5999 H   0  0  0  0  0  0  0  0  0  0  0  0
   56.9114   26.5519   45.0708 H   0  0  0  0  0  0  0  0  0  0  0  0
   57.9208   28.0378   45.0708 H   0  0  0  0  0  0  0  0  0  0  0  0
   60.4831   31.5837   47.7192 H   0  0  0  0  0  0  0  0  0  0  0  0
   61.5077   31.6958   46.2278 H   0  0  0  0  0  0  0  0  0  0  0  0
   61.7077   33.6280   47.9156 H   0  0  0  0  0  0  0  0  0  0  0  0
   61.3795   34.0569   46.1804 H   0  0  0  0  0  0  0  0  0  0  0  0
   60.0235   35.4322   47.7000 H   0  0  0  0  0  0  0  0  0  0  0  0
   58.2410   33.3290   48.6960 H   0  0  0  0  0  0  0  0  0  0  0  0
   59.4572   35.2162   52.2256 H   0  0  0  0  0  0  0  0  0  0  0  0
   58.4379   34.4239   54.3582 H   0  0  0  0  0  0  0  0  0  0  0  0
   57.6404   32.0682   54.5649 H   0  0  0  0  0  0  0  0  0  0  0  0
   57.8320   30.5120   52.6286 H   0  0  0  0  0  0  0  0  0  0  0  0
   57.7070   34.7375   46.7950 H   0  0  0  0  0  0  0  0  0  0  0  0
   59.0135   35.0614   45.5863 H   0  0  0  0  0  0  0  0  0  0  0  0
  1  2  1  0
  2  3  1  0
  3  4  2  0
  3  5  1  0
  5  6  1  0
  6  7  1  0
  7  8  1  0
  8  9  2  0
  9 10  1  0
 10 11  1  0
 11 12  3  0
  9 13  1  0
 13 14  1  0
 14 15  1  0
 15 16  1  0
 16 17  1  0
 17 18  2  0
 17 19  1  0
 19 20  2  0
 20 21  1  0
 21 22  2  0
 22 23  1  0
 23 24  2  0
 24 25  1  0
 15 26  1  0
 10  6  2  0
 24 19  1  0
 26  8  1  0
  1 27  1  0
  1 28  1  0
  1 29  1  0
 13 30  1  0
 13 31  1  0
 14 32  1  0
 14 33  1  0
 15 34  1  1
 16 35  1  0
 20 36  1  0
 21 37  1  0
 22 38  1  0
 23 39  1  0
 26 40  1  0
 26 41  1  0
M  CHG  1   5  -1
M  END
>  <UniqueID>  (80) 
72

>  <SMILES>  (80) 
COC(=O)[N-]c1sc2c(c1C#N)CC[C@H](NC(=O)c1ccccc1Cl)C2

>  <Energy>  (80) 
74.36401621053028

>  <Genealogy>  (80) 
COC(=O)[N-]c1sc2c(c1C#N)CCC(NC(=O)c1ccccc1Cl)C2 (protonated)
COC(=O)[N-]c1sc2c(c1C#N)CC[C@H](NC(=O)c1ccccc1Cl)C2 (chirality)
COC(=O)[N-]c1sc2c(c1C#N)CC[C@H](NC(=O)c1ccccc1Cl)C2 (3D coordinates assigned)
COC(=O)[N-]c1sc2c(c1C#N)CC[C@H](NC(=O)c1ccccc1Cl)C2 (nonaromatic ring conformer: 74.36401621053028 kcal/mol)

>  <smiles>  (80) 
COC(=O)Nc1sc2c(c1C#N)CCC(NC(=O)c1ccccc1Cl)C2

>  <score_type>  (80) 
oracle

>  <origin>  (80) 
adg

>  <m_score__min__energy>  (80) 
-8.9000000000000004

>  <m_primary>  (80) 
energy

$$$$
80:0
     RDKit          3D

 27 28  0  0  0  0  0  0  0  0999 V2000
   54.5980   23.7350   46.0390 C   0  0  0  0  0  0  0  0  0  0  0  0
   55.8350   24.4320   46.3760 N   0  0  0  0  0  0  0  0  0  0  0  0
   56.0470   25.7560   46.3920 C   0  0  0  0  0  0  0  0  0  0  0  0
   55.1190   26.7130   45.9970 O   0  0  0  0  0  0  0  0  0  0  0  0
   57.3210   25.9990   46.8620 C   0  0  0  0  0  0  0  0  0  0  0  0
   57.9890   27.3340   46.9740 C   0  0  0  0  0  0  0  0  0  0  0  0
   57.8040   28.1130   45.7030 C   0  0  0  0  0  0  0  0  0  0  0  0
   57.5960   27.4500   44.4850 C   0  0  0  0  0  0  0  0  0  0  0  0
   57.3940   28.1600   43.3430 N   0  0  0  0  0  0  0  0  0  0  0  0
   57.3760   29.5200   43.3420 C   0  0  0  0  0  0  0  0  0  0  0  0
   57.5660   30.2320   44.5370 C   0  0  0  0  0  0  0  0  0  0  0  0
   57.5420   31.7060   44.5660 C   0  0  0  0  0  0  0  0  0  0  0  0
   56.6260   32.3290   45.1670 O   0  0  0  0  0  0  0  0  0  0  0  0
   57.7760   29.5140   45.7210 C   0  0  0  0  0  0  0  0  0  0  0  0
   57.9240   24.8250   47.1480 N   0  0  0  0  0  0  0  0  0  0  0  0
   56.9810   23.9030   46.8520 C   0  0  0  0  0  0  0  0  0  0  0  0
   57.1610   22.6660   47.0130 O   0  0  0  0  0  0  0  0  0  0  0  0
   54.0785   23.4423   46.9634 H   0  0  0  0  0  0  0  0  0  0  0  0
   53.9506   24.4011   45.4498 H   0  0  0  0  0  0  0  0  0  0  0  0
   54.8324   22.8362   45.4498 H   0  0  0  0  0  0  0  0  0  0  0  0
   57.5458   27.8933   47.8111 H   0  0  0  0  0  0  0  0  0  0  0  0
   59.0643   27.1844   47.1509 H   0  0  0  0  0  0  0  0  0  0  0  0
   57.5962   26.3505   44.4532 H   0  0  0  0  0  0  0  0  0  0  0  0
   57.2450   27.6470   42.4450 H   0  0  0  0  0  0  0  0  0  0  0  0
   57.2118   30.0646   42.4005 H   0  0  0  0  0  0  0  0  0  0  0  0
   58.3359   32.2706   44.0552 H   0  0  0  0  0  0  0  0  0  0  0  0
   57.9196   30.0523   46.6695 H   0  0  0  0  0  0  0  0  0  0  0  0
  1  2  1  0
  2  3  1  0
  3  4  1  0
  3  5  2  0
  5  6  1  0
  6  7  1  0
  7  8  2  0
  8  9  1  0
  9 10  2  0
 10 11  1  0
 11 12  1  0
 12 13  2  0
 11 14  2  0
  5 15  1  0
 15 16  1  0
 16 17  2  0
 16  2  1  0
 14  7  1  0
  1 18  1  0
  1 19  1  0
  1 20  1  0
  6 21  1  0
  6 22  1  0
  8 23  1  0
  9 24  1  0
 10 25  1  0
 12 26  1  0
 14 27  1  0
M  CHG  3   4  -1   9   1  15  -1
M  END
>  <UniqueID>  (81) 
73

>  <SMILES>  (81) 
Cn1c([O-])c(Cc2c[nH+]cc(C=O)c2)[n-]c1=O

>  <Energy>  (81) 
56.98295887193368

>  <Genealogy>  (81) 
Cn1c([O-])c(Cc2c[nH+]cc(C=O)c2)[n-]c1=O (protonated)
Cn1c([O-])c(Cc2c[nH+]cc(C=O)c2)[n-]c1=O (3D coordinates assigned)
Cn1c([O-])c(Cc2c[nH+]cc(C=O)c2)[n-]c1=O (optimized conformer: 56.98295887193368 kcal/mol)

>  <smiles>  (81) 
Cn1c(O)c(Cc2cncc(C=O)c2)[nH]c1=O

>  <score_type>  (81) 
oracle

>  <origin>  (81) 
adg

>  <m_score__min__energy>  (81) 
-11.390000000000001

>  <m_primary>  (81) 
energy

$$$$
81:0
     RDKit          3D

 54 57  0  0  0  0  0  0  0  0999 V2000
   60.0650   33.8290   51.3420 C   0  0  0  0  0  0  0  0  0  0  0  0
   61.0780   32.7940   50.9510 C   0  0  0  0  0  0  0  0  0  0  0  0
   62.3450   33.1840   50.4910 C   0  0  0  0  0  0  0  0  0  0  0  0
   63.2800   32.2210   50.1010 C   0  0  0  0  0  0  0  0  0  0  0  0
   62.9500   30.8640   50.1510 C   0  0  0  0  0  0  0  0  0  0  0  0
   61.6760   30.4610   50.5770 C   0  0  0  0  0  0  0  0  0  0  0  0
   61.3300   28.9970   50.6560 C   0  0  0  0  0  0  0  0  0  0  0  0
   59.8230   28.7910   50.4780 C   0  0  0  0  0  0  0  0  0  0  0  0
   59.4380   28.9300   49.0200 C   0  0  0  0  0  0  0  0  0  0  0  0
   59.6960   27.8910   48.1180 C   0  0  0  0  0  0  0  0  0  0  0  0
   60.3780   26.7530   48.5480 O   0  0  0  0  0  0  0  0  0  0  0  0
   59.2370   27.9810   46.7970 C   0  0  0  0  0  0  0  0  0  0  0  0
   59.4720   26.9340   45.8900 C   0  0  0  0  0  0  0  0  0  0  0  0
   58.9350   26.9790   44.6090 C   0  0  0  0  0  0  0  0  0  0  0  0
   58.0850   28.0180   44.2470 C   0  0  0  0  0  0  0  0  0  0  0  0
   57.8110   29.0690   45.1390 C   0  0  0  0  0  0  0  0  0  0  0  0
   56.6320   29.9160   44.8380 C   0  0  0  0  0  0  0  0  0  0  0  0
   55.3050   29.4110   45.0010 N   0  0  0  0  0  0  0  0  0  0  0  0
   56.7980   31.1030   44.4490 O   0  0  0  0  0  0  0  0  0  0  0  0
   58.5050   29.1280   46.3890 C   0  0  0  0  0  0  0  0  0  0  0  0
   58.4800   30.2350   47.2210 N   0  0  0  0  0  0  0  0  0  0  0  0
   58.2850   31.6110   46.6980 C   0  0  0  0  0  0  0  0  0  0  0  0
   59.5570   32.4210   46.7940 C   0  0  0  0  0  0  0  0  0  0  0  0
   59.5050   33.8230   46.7060 C   0  0  0  0  0  0  0  0  0  0  0  0
   60.6770   34.5780   46.7940 C   0  0  0  0  0  0  0  0  0  0  0  0
   61.9090   33.9420   46.9750 C   0  0  0  0  0  0  0  0  0  0  0  0
   61.9680   32.5490   47.0700 C   0  0  0  0  0  0  0  0  0  0  0  0
   60.7970   31.7890   46.9830 C   0  0  0  0  0  0  0  0  0  0  0  0
   58.8070   30.0960   48.5510 C   0  0  0  0  0  0  0  0  0  0  0  0
   58.5700   31.0360   49.3600 O   0  0  0  0  0  0  0  0  0  0  0  0
   60.7440   31.4310   50.9830 C   0  0  0  0  0  0  0  0  0  0  0  0
   60.0065   33.8888   52.4388 H   0  0  0  0  0  0  0  0  0  0  0  0
   60.3647   34.8068   50.9369 H   0  0  0  0  0  0  0  0  0  0  0  0
   59.0810   33.5504   50.9369 H   0  0  0  0  0  0  0  0  0  0  0  0
   62.6034   34.2519   50.4371 H   0  0  0  0  0  0  0  0  0  0  0  0
   64.2767   32.5316   49.7543 H   0  0  0  0  0  0  0  0  0  0  0  0
   63.6928   30.1086   49.8549 H   0  0  0  0  0  0  0  0  0  0  0  0
   61.8655   28.4553   49.8624 H   0  0  0  0  0  0  0  0  0  0  0  0
   61.6269   28.6144   51.6436 H   0  0  0  0  0  0  0  0  0  0  0  0
   59.5509   27.7850   50.8301 H   0  0  0  0  0  0  0  0  0  0  0  0
   59.2879   29.5543   51.0619 H   0  0  0  0  0  0  0  0  0  0  0  0
   60.0849   26.0733   46.1958 H   0  0  0  0  0  0  0  0  0  0  0  0
   59.1826   26.1923   43.8812 H   0  0  0  0  0  0  0  0  0  0  0  0
   57.6210   28.0174   43.2497 H   0  0  0  0  0  0  0  0  0  0  0  0
   55.1360   28.4110   45.2480 H   0  0  0  0  0  0  0  0  0  0  0  0
   54.4830   30.0290   44.8210 H   0  0  0  0  0  0  0  0  0  0  0  0
   57.9759   31.5531   45.6439 H   0  0  0  0  0  0  0  0  0  0  0  0
   57.5119   32.1061   47.3040 H   0  0  0  0  0  0  0  0  0  0  0  0
   58.5375   34.3276   46.5673 H   0  0  0  0  0  0  0  0  0  0  0  0
   60.6306   35.6746   46.7208 H   0  0  0  0  0  0  0  0  0  0  0  0
   62.8312   34.5378   47.0426 H   0  0  0  0  0  0  0  0  0  0  0  0
   62.9373   32.0492   47.2135 H   0  0  0  0  0  0  0  0  0  0  0  0
   60.8474   30.6931   47.0628 H   0  0  0  0  0  0  0  0  0  0  0  0
   59.7467   31.1204   51.3280 H   0  0  0  0  0  0  0  0  0  0  0  0
  1  2  1  0
  2  3  2  0
  3  4  1  0
  4  5  2  0
  5  6  1  0
  6  7  1  0
  7  8  1  0
  8  9  1  0
  9 10  2  0
 10 11  1  0
 10 12  1  0
 12 13  2  0
 13 14  1  0
 14 15  2  0
 15 16  1  0
 16 17  1  0
 17 18  1  0
 17 19  2  0
 16 20  2  0
 20 21  1  0
 21 22  1  0
 22 23  1  0
 23 24  2  0
 24 25  1  0
 25 26  2  0
 26 27  1  0
 27 28  2  0
 21 29  1  0
 29 30  2  0
  6 31  2  0
 31  2  1  0
 29  9  1  0
 20 12  1  0
 28 23  1  0
  1 32  1  0
  1 33  1  0
  1 34  1  0
  3 35  1  0
  4 36  1  0
  5 37  1  0
  7 38  1  0
  7 39  1  0
  8 40  1  0
  8 41  1  0
 13 42  1  0
 14 43  1  0
 15 44  1  0
 18 45  1  0
 18 46  1  0
 22 47  1  0
 22 48  1  0
 24 49  1  0
 25 50  1  0
 26 51  1  0
 27 52  1  0
 28 53  1  0
 31 54  1  0
M  CHG  1  11  -1
M  END
>  <UniqueID>  (82) 
74

>  <SMILES>  (82) 
Cc1cccc(CCc2c([O-])c3cccc(C(N)=O)c3n(Cc3ccccc3)c2=O)c1

>  <Energy>  (82) 
83.96939519261011

>  <Genealogy>  (82) 
Cc1cccc(CCc2c([O-])c3cccc(C(N)=O)c3n(Cc3ccccc3)c2=O)c1 (protonated)
Cc1cccc(CCc2c([O-])c3cccc(C(N)=O)c3n(Cc3ccccc3)c2=O)c1 (3D coordinates assigned)
Cc1cccc(CCc2c([O-])c3cccc(C(N)=O)c3n(Cc3ccccc3)c2=O)c1 (optimized conformer: 83.96939519261011 kcal/mol)

>  <smiles>  (82) 
Cc1cccc(CCc2c(O)c3cccc(C(N)=O)c3n(Cc3ccccc3)c2=O)c1

>  <score_type>  (82) 
oracle

>  <origin>  (82) 
adg

>  <m_score__min__energy>  (82) 
-11.19

>  <m_primary>  (82) 
energy

$$$$
82:0
     RDKit          3D

 43 45  0  0  0  0  0  0  0  0999 V2000
   55.2407   30.1957   43.6312 H   0  0  0  0  0  0  0  0  0  0  0  0
   55.9950   29.8450   44.3510 C   0  0  0  0  0  0  0  0  0  0  0  0
   55.9080   28.5930   44.8680 N   0  0  0  0  0  0  0  0  0  0  0  0
   56.8300   28.1360   45.7550 C   0  0  0  0  0  0  0  0  0  0  0  0
   56.6960   26.9400   46.2510 N   0  0  0  0  0  0  0  0  0  0  0  0
   56.5500   25.7140   45.5150 C   0  0  0  0  0  0  0  0  0  0  0  0
   57.5420   25.2520   44.6330 C   0  0  0  0  0  0  0  0  0  0  0  0
   58.4722   25.8255   44.5069 H   0  0  0  0  0  0  0  0  0  0  0  0
   57.3530   24.0690   43.9160 C   0  0  0  0  0  0  0  0  0  0  0  0
   58.1422   23.7074   43.2405 H   0  0  0  0  0  0  0  0  0  0  0  0
   56.1590   23.3360   44.0520 C   0  0  0  0  0  0  0  0  0  0  0  0
   55.9340   22.1390   43.3520 O   0  0  0  0  0  0  0  0  0  0  0  0
   56.9390   21.1680   43.0750 C   0  0  0  0  0  0  0  0  0  0  0  0
   57.3427   20.7780   44.0210 H   0  0  0  0  0  0  0  0  0  0  0  0
   56.5011   20.3422   42.4951 H   0  0  0  0  0  0  0  0  0  0  0  0
   57.7492   21.6341   42.4951 H   0  0  0  0  0  0  0  0  0  0  0  0
   55.1510   23.8080   44.9070 C   0  0  0  0  0  0  0  0  0  0  0  0
   53.9650   23.0630   45.0140 O   0  0  0  0  0  0  0  0  0  0  0  0
   52.6810   23.6210   45.2740 C   0  0  0  0  0  0  0  0  0  0  0  0
   52.5240   23.6892   46.3606 H   0  0  0  0  0  0  0  0  0  0  0  0
   52.6215   24.6261   44.8311 H   0  0  0  0  0  0  0  0  0  0  0  0
   51.9056   22.9787   44.8311 H   0  0  0  0  0  0  0  0  0  0  0  0
   55.3500   25.0030   45.6260 C   0  0  0  0  0  0  0  0  0  0  0  0
   54.5526   25.3816   46.2824 H   0  0  0  0  0  0  0  0  0  0  0  0
   57.8480   28.9520   46.1420 N   0  0  0  0  0  0  0  0  0  0  0  0
   57.9900   30.2120   45.6480 C   0  0  0  0  0  0  0  0  0  0  0  0
   59.1290   31.0480   46.1090 C   0  0  0  0  0  0  0  0  0  0  0  0
   59.0520   32.4490   46.0090 C   0  0  0  0  0  0  0  0  0  0  0  0
   58.1517   32.9153   45.5823 H   0  0  0  0  0  0  0  0  0  0  0  0
   60.1070   33.2550   46.4460 C   0  0  0  0  0  0  0  0  0  0  0  0
   60.0339   34.3488   46.3556 H   0  0  0  0  0  0  0  0  0  0  0  0
   61.2620   32.6740   47.0010 C   0  0  0  0  0  0  0  0  0  0  0  0
   62.3470   33.4390   47.4540 O   0  0  0  0  0  0  0  0  0  0  0  0
   63.7120   33.1200   47.2130 C   0  0  0  0  0  0  0  0  0  0  0  0
   64.2350   32.9978   48.1730 H   0  0  0  0  0  0  0  0  0  0  0  0
   63.7739   32.1832   46.6398 H   0  0  0  0  0  0  0  0  0  0  0  0
   64.1827   33.9323   46.6398 H   0  0  0  0  0  0  0  0  0  0  0  0
   61.3360   31.2820   47.1130 C   0  0  0  0  0  0  0  0  0  0  0  0
   62.2327   30.8182   47.5498 H   0  0  0  0  0  0  0  0  0  0  0  0
   60.2830   30.4740   46.6760 C   0  0  0  0  0  0  0  0  0  0  0  0
   60.3562   29.3810   46.7757 H   0  0  0  0  0  0  0  0  0  0  0  0
   57.0390   30.6870   44.7310 C   0  0  0  0  0  0  0  0  0  0  0  0
   57.1162   31.7044   44.3201 H   0  0  0  0  0  0  0  0  0  0  0  0
  1  2  1  0
  2  3  1  0
  3  4  1  0
  4  5  2  0
  5  6  1  0
  6  7  2  0
  7  8  1  0
  7  9  1  0
  9 10  1  0
  9 11  2  0
 11 12  1  0
 12 13  1  0
 13 14  1  0
 13 15  1  0
 13 16  1  0
 11 17  1  0
 17 18  1  0
 18 19  1  0
 19 20  1  0
 19 21  1  0
 19 22  1  0
 17 23  2  0
 23 24  1  0
  4 25  1  0
 25 26  2  0
 26 27  1  0
 27 28  2  0
 28 29  1  0
 28 30  1  0
 30 31  1  0
 30 32  2  0
 32 33  1  0
 33 34  1  0
 34 35  1  0
 34 36  1  0
 34 37  1  0
 32 38  1  0
 38 39  1  0
 38 40  2  0
 40 41  1  0
 26 42  1  0
 42 43  1  0
 42  2  2  0
 23  6  1  0
 40 27  1  0
M  CHG  1   3  -1
M  END
>  <UniqueID>  (83) 
75

>  <SMILES>  (83) 
COc1ccc(-c2cc[n-]/c(=N/c3ccc(OC)c(OC)c3)n2)cc1

>  <Energy>  (83) 
54.461123671279864

>  <Genealogy>  (83) 
COc1ccc(-c2cc[n-]c(=Nc3ccc(OC)c(OC)c3)n2)cc1 (protonated)
COc1ccc(-c2cc[n-]/c(=N/c3ccc(OC)c(OC)c3)n2)cc1 (cis-trans isomerization)
COc1ccc(-c2cc[n-]/c(=N/c3ccc(OC)c(OC)c3)n2)cc1 (3D coordinates assigned)
COc1ccc(-c2cc[n-]/c(=N/c3ccc(OC)c(OC)c3)n2)cc1 (optimized conformer: 54.461123671279864 kcal/mol)

>  <smiles>  (83) 
COc1ccc(-c2cc[nH]c(=Nc3ccc(OC)c(OC)c3)n2)cc1

>  <score_type>  (83) 
oracle

>  <origin>  (83) 
adg

>  <m_score__min__energy>  (83) 
-8.5

>  <m_primary>  (83) 
energy

$$$$
83:0
     RDKit          3D

 47 50  0  0  0  0  0  0  0  0999 V2000
   57.4780   28.7150   53.5210 O   0  0  0  0  0  0  0  0  0  0  0  0
   56.3750   28.9550   52.9590 C   0  0  0  0  0  0  0  0  0  0  0  0
   55.2080   28.2140   53.3190 N   0  0  0  0  0  0  0  0  0  0  0  0
   54.1890   28.7080   54.2390 C   0  0  0  0  0  0  0  0  0  0  0  0
   53.2830   29.6830   53.5390 C   0  0  0  0  0  0  0  0  0  0  0  0
   52.5390   30.6240   54.2950 C   0  0  0  0  0  0  0  0  0  0  0  0
   51.7080   31.5620   53.6560 C   0  0  0  0  0  0  0  0  0  0  0  0
   51.6430   31.5390   52.2660 C   0  0  0  0  0  0  0  0  0  0  0  0
   50.9140   32.3550   51.4820 N   0  0  0  0  0  0  0  0  0  0  0  0
   51.1980   31.9330   50.2250 C   0  0  0  0  0  0  0  0  0  0  0  0
   50.6490   32.5100   49.0860 O   0  0  0  0  0  0  0  0  0  0  0  0
   52.0910   30.8710   50.2060 C   0  0  0  0  0  0  0  0  0  0  0  0
   52.3640   30.6350   51.5300 C   0  0  0  0  0  0  0  0  0  0  0  0
   53.1950   29.6910   52.1280 C   0  0  0  0  0  0  0  0  0  0  0  0
   56.2620   30.0040   51.9920 N   0  0  0  0  0  0  0  0  0  0  0  0
   57.2700   30.9740   51.6690 C   0  0  0  0  0  0  0  0  0  0  0  0
   57.3010   32.1760   52.3860 C   0  0  0  0  0  0  0  0  0  0  0  0
   58.2520   33.1550   52.0890 C   0  0  0  0  0  0  0  0  0  0  0  0
   59.1810   32.9560   51.0610 C   0  0  0  0  0  0  0  0  0  0  0  0
   60.1200   33.9700   50.8090 O   0  0  0  0  0  0  0  0  0  0  0  0
   61.5370   33.7950   50.7880 C   0  0  0  0  0  0  0  0  0  0  0  0
   62.0340   33.6140   49.3790 C   0  0  0  0  0  0  0  0  0  0  0  0
   63.2960   33.0430   49.1450 C   0  0  0  0  0  0  0  0  0  0  0  0
   63.7650   32.8810   47.8380 C   0  0  0  0  0  0  0  0  0  0  0  0
   62.9820   33.2930   46.7570 C   0  0  0  0  0  0  0  0  0  0  0  0
   61.7300   33.8710   46.9810 C   0  0  0  0  0  0  0  0  0  0  0  0
   61.2570   34.0360   48.2860 C   0  0  0  0  0  0  0  0  0  0  0  0
   59.1340   31.7600   50.3190 C   0  0  0  0  0  0  0  0  0  0  0  0
   58.1830   30.7800   50.6180 C   0  0  0  0  0  0  0  0  0  0  0  0
   53.5933   27.8608   54.6097 H   0  0  0  0  0  0  0  0  0  0  0  0
   54.6825   29.2179   55.0796 H   0  0  0  0  0  0  0  0  0  0  0  0
   52.6124   30.6205   55.3925 H   0  0  0  0  0  0  0  0  0  0  0  0
   51.1266   32.2923   54.2379 H   0  0  0  0  0  0  0  0  0  0  0  0
   51.1790   32.5530   48.2240 H   0  0  0  0  0  0  0  0  0  0  0  0
   52.4894   30.3394   49.3293 H   0  0  0  0  0  0  0  0  0  0  0  0
   53.7658   28.9731   51.5207 H   0  0  0  0  0  0  0  0  0  0  0  0
   56.5706   32.3509   53.1897 H   0  0  0  0  0  0  0  0  0  0  0  0
   58.2710   34.0902   52.6678 H   0  0  0  0  0  0  0  0  0  0  0  0
   62.0162   34.6820   51.2279 H   0  0  0  0  0  0  0  0  0  0  0  0
   61.7890   32.8952   51.3683 H   0  0  0  0  0  0  0  0  0  0  0  0
   63.9178   32.7220   49.9937 H   0  0  0  0  0  0  0  0  0  0  0  0
   64.7518   32.4285   47.6606 H   0  0  0  0  0  0  0  0  0  0  0  0
   63.3513   33.1623   45.7291 H   0  0  0  0  0  0  0  0  0  0  0  0
   61.1153   34.1968   46.1289 H   0  0  0  0  0  0  0  0  0  0  0  0
   60.2735   34.4976   48.4583 H   0  0  0  0  0  0  0  0  0  0  0  0
   59.8495   31.5961   49.4997 H   0  0  0  0  0  0  0  0  0  0  0  0
   58.1490   29.8524   50.0278 H   0  0  0  0  0  0  0  0  0  0  0  0
  1  2  2  0
  2  3  1  0
  3  4  1  0
  4  5  1  0
  5  6  2  0
  6  7  1  0
  7  8  2  0
  8  9  1  0
  9 10  1  0
 10 11  1  0
 10 12  2  0
 12 13  1  0
 13 14  2  0
  2 15  1  0
 15 16  1  0
 16 17  2  0
 17 18  1  0
 18 19  2  0
 19 20  1  0
 20 21  1  0
 21 22  1  0
 22 23  2  0
 23 24  1  0
 24 25  2  0
 25 26  1  0
 26 27  2  0
 19 28  1  0
 28 29  2  0
 14  5  1  0
 29 16  1  0
 13  8  1  0
 27 22  1  0
  4 30  1  0
  4 31  1  0
  6 32  1  0
  7 33  1  0
 11 34  1  0
 12 35  1  0
 14 36  1  0
 17 37  1  0
 18 38  1  0
 21 39  1  0
 21 40  1  0
 23 41  1  0
 24 42  1  0
 25 43  1  0
 26 44  1  0
 27 45  1  0
 28 46  1  0
 29 47  1  0
M  CHG  3   3  -1   9  -1  15  -1
M  END
>  <UniqueID>  (84) 
76

>  <SMILES>  (84) 
O=C([N-]Cc1ccc2[n-]c(O)cc2c1)[N-]c1ccc(OCc2ccccc2)cc1

>  <Energy>  (84) 
83.33883135095412

>  <Genealogy>  (84) 
O=C([N-]Cc1ccc2[n-]c(O)cc2c1)[N-]c1ccc(OCc2ccccc2)cc1 (protonated)
O=C([N-]Cc1ccc2[n-]c(O)cc2c1)[N-]c1ccc(OCc2ccccc2)cc1 (3D coordinates assigned)
O=C([N-]Cc1ccc2[n-]c(O)cc2c1)[N-]c1ccc(OCc2ccccc2)cc1 (optimized conformer: 83.33883135095412 kcal/mol)

>  <smiles>  (84) 
O=C(NCc1ccc2[nH]c(O)cc2c1)Nc1ccc(OCc2ccccc2)cc1

>  <score_type>  (84) 
oracle

>  <origin>  (84) 
adg

>  <m_score__min__energy>  (84) 
-13.390000000000001

>  <m_primary>  (84) 
energy

$$$$
84:0
     RDKit          3D

 50 52  0  0  0  0  0  0  0  0999 V2000
   54.9250   29.3410   44.2330 O   0  0  0  0  0  0  0  0  0  0  0  0
   55.6520   30.3010   44.0360 C   0  0  0  0  0  0  0  0  0  0  0  0
   57.0870   30.2820   44.4920 C   0  0  2  0  0  0  0  0  0  0  0  0
   57.8890   31.4400   43.8660 C   0  0  0  0  0  0  0  0  0  0  0  0
   58.2110   32.5130   44.8750 C   0  0  0  0  0  0  0  0  0  0  0  0
   57.7840   32.3840   46.2060 C   0  0  0  0  0  0  0  0  0  0  0  0
   58.0670   33.3870   47.1380 C   0  0  0  0  0  0  0  0  0  0  0  0
   58.7670   34.5300   46.7460 C   0  0  0  0  0  0  0  0  0  0  0  0
   59.1840   34.6730   45.4210 C   0  0  0  0  0  0  0  0  0  0  0  0
   58.9080   33.6700   44.4870 C   0  0  0  0  0  0  0  0  0  0  0  0
   57.6980   28.9970   44.1460 N   0  0  0  0  0  0  0  0  0  0  0  0
   57.4030   27.7900   44.8620 C   0  0  0  0  0  0  0  0  0  0  0  0
   56.3840   27.7190   45.6020 O   0  0  0  0  0  0  0  0  0  0  0  0
   58.3690   26.6380   44.8120 C   0  0  0  0  0  0  0  0  0  0  0  0
   59.3000   26.6240   46.0350 C   0  0  0  0  0  0  0  0  0  0  0  0
   59.6710   28.0200   46.4760 C   0  0  0  0  0  0  0  0  0  0  0  0
   60.4310   28.8460   45.6340 C   0  0  0  0  0  0  0  0  0  0  0  0
   60.8940   30.0840   46.0870 C   0  0  0  0  0  0  0  0  0  0  0  0
   60.6210   30.5100   47.3990 C   0  0  0  0  0  0  0  0  0  0  0  0
   61.2010   31.7740   47.9120 C   0  0  0  0  0  0  0  0  0  0  0  0
   62.3640   32.3160   47.3340 C   0  0  0  0  0  0  0  0  0  0  0  0
   62.9270   33.4890   47.8460 C   0  0  0  0  0  0  0  0  0  0  0  0
   62.3410   34.1280   48.9410 C   0  0  0  0  0  0  0  0  0  0  0  0
   61.1880   33.5980   49.5230 C   0  0  0  0  0  0  0  0  0  0  0  0
   60.6160   32.4290   49.0110 C   0  0  0  0  0  0  0  0  0  0  0  0
   59.8390   29.6900   48.2320 C   0  0  0  0  0  0  0  0  0  0  0  0
   59.3670   28.4560   47.7730 C   0  0  0  0  0  0  0  0  0  0  0  0
   55.2555   31.1883   43.5207 H   0  0  0  0  0  0  0  0  0  0  0  0
   57.1048   30.4133   45.5840 H   0  0  0  0  0  0  0  0  0  0  0  0
   58.8299   31.0413   43.4589 H   0  0  0  0  0  0  0  0  0  0  0  0
   57.2731   31.8914   43.0742 H   0  0  0  0  0  0  0  0  0  0  0  0
   57.2242   31.4897   46.5171 H   0  0  0  0  0  0  0  0  0  0  0  0
   57.7378   33.2756   48.1816 H   0  0  0  0  0  0  0  0  0  0  0  0
   58.9899   35.3176   47.4809 H   0  0  0  0  0  0  0  0  0  0  0  0
   59.7305   35.5762   45.1117 H   0  0  0  0  0  0  0  0  0  0  0  0
   59.2378   33.7869   43.4441 H   0  0  0  0  0  0  0  0  0  0  0  0
   58.4600   28.9700   43.4300 H   0  0  0  0  0  0  0  0  0  0  0  0
   57.8004   25.6967   44.7859 H   0  0  0  0  0  0  0  0  0  0  0  0
   58.9889   26.7489   43.9101 H   0  0  0  0  0  0  0  0  0  0  0  0
   58.7897   26.1127   46.8646 H   0  0  0  0  0  0  0  0  0  0  0  0
   60.2244   26.0982   45.7539 H   0  0  0  0  0  0  0  0  0  0  0  0
   60.6638   28.5167   44.6106 H   0  0  0  0  0  0  0  0  0  0  0  0
   61.4759   30.7297   45.4129 H   0  0  0  0  0  0  0  0  0  0  0  0
   62.8327   31.8141   46.4747 H   0  0  0  0  0  0  0  0  0  0  0  0
   63.8332   33.9094   47.3855 H   0  0  0  0  0  0  0  0  0  0  0  0
   62.7878   35.0485   49.3447 H   0  0  0  0  0  0  0  0  0  0  0  0
   60.7283   34.1011   50.3864 H   0  0  0  0  0  0  0  0  0  0  0  0
   59.7040   32.0196   49.4700 H   0  0  0  0  0  0  0  0  0  0  0  0
   59.5967   30.0217   49.2524 H   0  0  0  0  0  0  0  0  0  0  0  0
   58.7542   27.8245   48.4331 H   0  0  0  0  0  0  0  0  0  0  0  0
  1  2  2  0
  2  3  1  0
  3  4  1  0
  4  5  1  0
  5  6  2  0
  6  7  1  0
  7  8  2  0
  8  9  1  0
  9 10  2  0
  3 11  1  0
 11 12  1  0
 12 13  2  0
 12 14  1  0
 14 15  1  0
 15 16  1  0
 16 17  2  0
 17 18  1  0
 18 19  2  0
 19 20  1  0
 20 21  2  0
 21 22  1  0
 22 23  2  0
 23 24  1  0
 24 25  2  0
 19 26  1  0
 26 27  2  0
 10  5  1  0
 27 16  1  0
 25 20  1  0
  2 28  1  0
  3 29  1  1
  4 30  1  0
  4 31  1  0
  6 32  1  0
  7 33  1  0
  8 34  1  0
  9 35  1  0
 10 36  1  0
 11 37  1  0
 14 38  1  0
 14 39  1  0
 15 40  1  0
 15 41  1  0
 17 42  1  0
 18 43  1  0
 21 44  1  0
 22 45  1  0
 23 46  1  0
 24 47  1  0
 25 48  1  0
 26 49  1  0
 27 50  1  0
M  END
>  <UniqueID>  (85) 
77

>  <SMILES>  (85) 
O=C[C@H](Cc1ccccc1)NC(=O)CCc1ccc(-c2ccccc2)cc1

>  <Energy>  (85) 
45.628229148683026

>  <Genealogy>  (85) 
O=C[C@H](Cc1ccccc1)NC(=O)CCc1ccc(-c2ccccc2)cc1 (chirality)
O=C[C@H](Cc1ccccc1)NC(=O)CCc1ccc(-c2ccccc2)cc1 (3D coordinates assigned)
O=C[C@H](Cc1ccccc1)NC(=O)CCc1ccc(-c2ccccc2)cc1 (optimized conformer: 45.628229148683026 kcal/mol)

>  <smiles>  (85) 
O=CC(Cc1ccccc1)NC(=O)CCc1ccc(-c2ccccc2)cc1

>  <score_type>  (85) 
oracle

>  <origin>  (85) 
adg

>  <m_score__min__energy>  (85) 
-9.25

>  <m_primary>  (85) 
energy

$$$$
85:0
     RDKit          3D

 48 51  0  0  0  0  0  0  0  0999 V2000
   55.5130   28.9960   45.7040 H   0  0  0  0  0  0  0  0  0  0  0  0
   55.1930   29.3370   44.7700 N   0  0  0  0  0  0  0  0  0  0  0  0
   56.0850   30.0230   43.8930 C   0  0  0  0  0  0  0  0  0  0  0  0
   55.9890   29.8190   42.6530 O   0  0  0  0  0  0  0  0  0  0  0  0
   57.1080   30.9720   44.4160 C   0  0  0  0  0  0  0  0  0  0  0  0
   57.3720   32.1560   43.6980 C   0  0  0  0  0  0  0  0  0  0  0  0
   56.8217   32.3614   42.7679 H   0  0  0  0  0  0  0  0  0  0  0  0
   58.3240   33.0720   44.1530 C   0  0  0  0  0  0  0  0  0  0  0  0
   58.5141   33.9945   43.5847 H   0  0  0  0  0  0  0  0  0  0  0  0
   59.0320   32.8190   45.3240 C   0  0  0  0  0  0  0  0  0  0  0  0
   59.7850   33.5389   45.6772 H   0  0  0  0  0  0  0  0  0  0  0  0
   58.7880   31.6540   46.0500 C   0  0  0  0  0  0  0  0  0  0  0  0
   59.3588   31.4558   46.9692 H   0  0  0  0  0  0  0  0  0  0  0  0
   57.8190   30.7290   45.6190 C   0  0  0  0  0  0  0  0  0  0  0  0
   57.5960   29.5480   46.3420 O   0  0  0  0  0  0  0  0  0  0  0  0
   58.4650   29.0150   47.3010 C   0  0  0  0  0  0  0  0  0  0  0  0
   58.4530   29.3880   48.5600 O   0  0  0  0  0  0  0  0  0  0  0  0
   59.4050   28.7420   49.1930 C   0  0  0  0  0  0  0  0  0  0  0  0
   59.6400   28.8780   50.6410 C   0  0  0  0  0  0  0  0  0  0  0  0
   60.5443   28.4049   51.0515 H   0  0  0  0  0  0  0  0  0  0  0  0
   58.8440   29.5300   51.5000 C   0  0  0  0  0  0  0  0  0  0  0  0
   58.3960   31.2480   51.2400 S   0  0  0  0  0  0  0  0  0  0  0  0
   57.0170   30.9520   52.3490 C   0  0  0  0  0  0  0  0  0  0  0  0
   55.8870   31.5750   52.1660 N   0  0  0  0  0  0  0  0  0  0  0  0
   54.5830   30.9880   52.0460 C   0  0  0  0  0  0  0  0  0  0  0  0
   54.4020   29.6540   52.4260 C   0  0  0  0  0  0  0  0  0  0  0  0
   55.2611   29.0634   52.7769 H   0  0  0  0  0  0  0  0  0  0  0  0
   53.1370   29.0690   52.3620 C   0  0  0  0  0  0  0  0  0  0  0  0
   53.0059   28.0147   52.6472 H   0  0  0  0  0  0  0  0  0  0  0  0
   52.0360   29.8170   51.9370 C   0  0  0  0  0  0  0  0  0  0  0  0
   51.0439   29.3455   51.8793 H   0  0  0  0  0  0  0  0  0  0  0  0
   52.1890   31.1680   51.5830 C   0  0  0  0  0  0  0  0  0  0  0  0
   51.0190   31.9630   51.1480 C   0  0  0  0  0  0  0  0  0  0  0  0
   50.3220   32.5900   51.9890 O   0  0  0  0  0  0  0  0  0  0  0  0
   50.6750   32.0320   49.8030 O   0  0  0  0  0  0  0  0  0  0  0  0
   53.4670   31.7530   51.6560 C   0  0  0  0  0  0  0  0  0  0  0  0
   53.5951   32.8166   51.4063 H   0  0  0  0  0  0  0  0  0  0  0  0
   57.1730   29.8230   53.2160 N   0  0  0  0  0  0  0  0  0  0  0  0
   56.7930   29.8110   54.6290 C   0  0  0  0  0  0  0  0  0  0  0  0
   57.6988   29.8396   55.2525 H   0  0  0  0  0  0  0  0  0  0  0  0
   56.1689   30.6899   54.8483 H   0  0  0  0  0  0  0  0  0  0  0  0
   56.2256   28.8945   54.8483 H   0  0  0  0  0  0  0  0  0  0  0  0
   58.2180   29.0010   52.7160 C   0  0  0  0  0  0  0  0  0  0  0  0
   58.6250   27.9810   53.3340 O   0  0  0  0  0  0  0  0  0  0  0  0
   60.0670   27.8980   48.3140 C   0  0  0  0  0  0  0  0  0  0  0  0
   60.8996   27.2184   48.5484 H   0  0  0  0  0  0  0  0  0  0  0  0
   59.4680   28.0850   47.0860 C   0  0  0  0  0  0  0  0  0  0  0  0
   59.7316   27.5978   46.1356 H   0  0  0  0  0  0  0  0  0  0  0  0
  1  2  1  0
  2  3  1  0
  3  4  2  0
  3  5  1  0
  5  6  2  0
  6  7  1  0
  6  8  1  0
  8  9  1  0
  8 10  2  0
 10 11  1  0
 10 12  1  0
 12 13  1  0
 12 14  2  0
 14 15  1  0
 15 16  1  0
 16 17  1  0
 17 18  1  0
 18 19  1  0
 19 20  1  0
 19 21  2  3
 21 22  1  0
 22 23  1  0
 23 24  2  0
 24 25  1  0
 25 26  2  0
 26 27  1  0
 26 28  1  0
 28 29  1  0
 28 30  2  0
 30 31  1  0
 30 32  1  0
 32 33  1  0
 33 34  2  0
 33 35  1  0
 32 36  2  0
 36 37  1  0
 23 38  1  0
 38 39  1  0
 39 40  1  0
 39 41  1  0
 39 42  1  0
 38 43  1  0
 43 44  2  0
 18 45  2  0
 45 46  1  0
 45 47  1  0
 47 48  1  0
 14  5  1  0
 47 16  2  0
 43 21  1  0
 36 25  1  0
M  CHG  2   2  -1  35  -1
M  END
>  <UniqueID>  (86) 
78

>  <SMILES>  (86) 
CN1C(=O)C(=Cc2ccc(Oc3ccccc3C([NH-])=O)o2)S/C1=N/c1cccc(C(=O)[O-])c1

>  <Energy>  (86) 
123.09643749005986

>  <Genealogy>  (86) 
CN1C(=O)C(=Cc2ccc(Oc3ccccc3C([NH-])=O)o2)SC1=Nc1cccc(C(=O)[O-])c1 (protonated)
CN1C(=O)C(=Cc2ccc(Oc3ccccc3C([NH-])=O)o2)S/C1=N/c1cccc(C(=O)[O-])c1 (cis-trans isomerization)
CN1C(=O)C(=Cc2ccc(Oc3ccccc3C([NH-])=O)o2)S/C1=N/c1cccc(C(=O)[O-])c1 (3D coordinates assigned)
CN1C(=O)C(=Cc2ccc(Oc3ccccc3C([NH-])=O)o2)S/C1=N/c1cccc(C(=O)[O-])c1 (nonaromatic ring conformer: 123.09643749005986 kcal/mol)

>  <smiles>  (86) 
CN1C(=O)C(=Cc2ccc(Oc3ccccc3C(N)=O)o2)SC1=Nc1cccc(C(=O)O)c1

>  <score_type>  (86) 
oracle

>  <origin>  (86) 
adg

>  <m_score__min__energy>  (86) 
-16.84

>  <m_primary>  (86) 
energy

$$$$
86:0
     RDKit          3D

 41 43  0  0  0  0  0  0  0  0999 V2000
   58.8170   32.3380   50.0420 N   0  0  0  0  0  0  0  0  0  0  0  0
   59.8500   32.4620   49.5330 C   0  0  0  0  0  0  0  0  0  0  0  0
   61.1440   32.6350   48.9260 C   0  0  0  0  0  0  0  0  0  0  0  0
   62.0900   33.4280   49.5930 C   0  0  0  0  0  0  0  0  0  0  0  0
   63.3430   33.6620   49.0240 C   0  0  0  0  0  0  0  0  0  0  0  0
   63.6590   33.1130   47.7820 C   0  0  0  0  0  0  0  0  0  0  0  0
   62.7250   32.3210   47.1100 C   0  0  0  0  0  0  0  0  0  0  0  0
   61.4710   32.0570   47.6790 C   0  0  0  0  0  0  0  0  0  0  0  0
   60.3210   31.0180   46.7490 S   0  0  0  0  0  0  0  0  0  0  0  0
   59.4200   32.3920   45.9940 C   0  0  0  0  0  0  0  0  0  0  0  0
   59.7550   33.7030   46.3730 C   0  0  0  0  0  0  0  0  0  0  0  0
   59.1060   34.7970   45.8030 C   0  0  0  0  0  0  0  0  0  0  0  0
   58.0940   34.5980   44.8670 C   0  0  0  0  0  0  0  0  0  0  0  0
   57.7050   33.3030   44.5240 C   0  0  0  0  0  0  0  0  0  0  0  0
   58.3380   32.1840   45.0980 C   0  0  0  0  0  0  0  0  0  0  0  0
   57.7830   30.8340   44.8280 C   0  0  0  0  0  0  0  0  0  0  0  0
   56.5390   30.6470   44.8410 O   0  0  0  0  0  0  0  0  0  0  0  0
   58.6600   29.7360   44.5250 N   0  0  0  0  0  0  0  0  0  0  0  0
   58.1650   28.4210   44.1200 C   0  0  0  0  0  0  0  0  0  0  0  0
   57.6560   27.6200   45.3250 C   0  0  0  0  0  0  0  0  0  0  0  0
   58.6470   27.6360   46.4500 C   0  0  0  0  0  0  0  0  0  0  0  0
   59.8600   26.9560   46.4720 C   0  0  0  0  0  0  0  0  0  0  0  0
   60.6180   27.2210   47.6160 C   0  0  0  0  0  0  0  0  0  0  0  0
   60.0050   28.1150   48.4840 C   0  0  0  0  0  0  0  0  0  0  0  0
   60.7240   28.7390   50.1350 Br  0  0  0  0  0  0  0  0  0  0  0  0
   58.5270   28.5840   47.8350 S   0  0  0  0  0  0  0  0  0  0  0  0
   61.8427   33.8680   50.5704 H   0  0  0  0  0  0  0  0  0  0  0  0
   64.0815   34.2799   49.5558 H   0  0  0  0  0  0  0  0  0  0  0  0
   64.6441   33.3036   47.3312 H   0  0  0  0  0  0  0  0  0  0  0  0
   62.9757   31.9004   46.1250 H   0  0  0  0  0  0  0  0  0  0  0  0
   60.5380   33.8677   47.1278 H   0  0  0  0  0  0  0  0  0  0  0  0
   59.3934   35.8185   46.0927 H   0  0  0  0  0  0  0  0  0  0  0  0
   57.6012   35.4624   44.3980 H   0  0  0  0  0  0  0  0  0  0  0  0
   56.8938   33.1543   43.7961 H   0  0  0  0  0  0  0  0  0  0  0  0
   59.6950   29.8830   44.5280 H   0  0  0  0  0  0  0  0  0  0  0  0
   57.3404   28.5537   43.4042 H   0  0  0  0  0  0  0  0  0  0  0  0
   58.9951   27.8649   43.6599 H   0  0  0  0  0  0  0  0  0  0  0  0
   56.7107   28.0608   45.6744 H   0  0  0  0  0  0  0  0  0  0  0  0
   57.5069   26.5768   45.0095 H   0  0  0  0  0  0  0  0  0  0  0  0
   60.1894   26.2784   45.6705 H   0  0  0  0  0  0  0  0  0  0  0  0
   61.6012   26.7671   47.8093 H   0  0  0  0  0  0  0  0  0  0  0  0
  1  2  3  0
  2  3  1  0
  3  4  2  0
  4  5  1  0
  5  6  2  0
  6  7  1  0
  7  8  2  0
  8  9  1  0
  9 10  1  0
 10 11  2  0
 11 12  1  0
 12 13  2  0
 13 14  1  0
 14 15  2  0
 15 16  1  0
 16 17  2  0
 16 18  1  0
 18 19  1  0
 19 20  1  0
 20 21  1  0
 21 22  2  0
 22 23  1  0
 23 24  2  0
 24 25  1  0
 24 26  1  0
  8  3  1  0
 15 10  1  0
 26 21  1  0
  4 27  1  0
  5 28  1  0
  6 29  1  0
  7 30  1  0
 11 31  1  0
 12 32  1  0
 13 33  1  0
 14 34  1  0
 18 35  1  0
 19 36  1  0
 19 37  1  0
 20 38  1  0
 20 39  1  0
 22 40  1  0
 23 41  1  0
M  END
>  <UniqueID>  (87) 
79

>  <SMILES>  (87) 
N#Cc1ccccc1Sc1ccccc1C(=O)NCCc1ccc(Br)s1

>  <Energy>  (87) 
69.21346333523269

>  <Genealogy>  (87) 
N#Cc1ccccc1Sc1ccccc1C(=O)NCCc1ccc(Br)s1 (3D coordinates assigned)
N#Cc1ccccc1Sc1ccccc1C(=O)NCCc1ccc(Br)s1 (optimized conformer: 69.21346333523269 kcal/mol)

>  <smiles>  (87) 
N#Cc1ccccc1Sc1ccccc1C(=O)NCCc1ccc(Br)s1

>  <score_type>  (87) 
oracle

>  <origin>  (87) 
adg

>  <m_score__min__energy>  (87) 
-9.3900000000000006

>  <m_primary>  (87) 
energy

$$$$
87:0
     RDKit          3D

 35 37  0  0  0  0  0  0  0  0999 V2000
   57.3610   31.6720   42.2590 C   0  0  0  0  0  0  0  0  0  0  0  0
   57.1890   30.4070   42.9900 N   0  0  0  0  0  0  0  0  0  0  0  0
   56.2750   29.5050   42.2720 C   0  0  0  0  0  0  0  0  0  0  0  0
   56.6980   30.6580   44.3220 C   0  0  0  0  0  0  0  0  0  0  0  0
   56.3820   29.6940   45.0760 O   0  0  0  0  0  0  0  0  0  0  0  0
   56.6410   31.9770   44.7930 O   0  0  0  0  0  0  0  0  0  0  0  0
   57.6010   32.5880   45.6120 C   0  0  0  0  0  0  0  0  0  0  0  0
   57.9110   33.9350   45.3890 C   0  0  0  0  0  0  0  0  0  0  0  0
   58.8670   34.5840   46.1740 C   0  0  0  0  0  0  0  0  0  0  0  0
   59.5140   33.8970   47.2090 C   0  0  0  0  0  0  0  0  0  0  0  0
   59.1640   32.5630   47.4770 C   0  0  0  0  0  0  0  0  0  0  0  0
   58.2230   31.9070   46.6750 C   0  0  0  0  0  0  0  0  0  0  0  0
   59.8060   31.7510   48.9450 S   0  0  0  0  0  0  0  0  0  0  0  0
   61.4830   32.3490   48.7160 C   0  0  0  0  0  0  0  0  0  0  0  0
   62.5670   31.5070   48.9900 C   0  0  0  0  0  0  0  0  0  0  0  0
   63.8700   32.0140   48.9610 C   0  0  0  0  0  0  0  0  0  0  0  0
   64.0910   33.3610   48.6600 C   0  0  0  0  0  0  0  0  0  0  0  0
   63.0120   34.2010   48.3640 C   0  0  0  0  0  0  0  0  0  0  0  0
   61.7040   33.6950   48.3720 C   0  0  0  0  0  0  0  0  0  0  0  0
   60.6160   34.5070   47.9020 N   0  0  0  0  0  0  0  0  0  0  0  0
   57.4733   32.4979   42.9768 H   0  0  0  0  0  0  0  0  0  0  0  0
   58.2591   31.6110   41.6268 H   0  0  0  0  0  0  0  0  0  0  0  0
   56.4792   31.8530   41.6268 H   0  0  0  0  0  0  0  0  0  0  0  0
   58.1240   29.9390   43.0590 H   0  0  0  0  0  0  0  0  0  0  0  0
   55.6870   28.9247   42.9983 H   0  0  0  0  0  0  0  0  0  0  0  0
   55.5965   30.0972   41.6405 H   0  0  0  0  0  0  0  0  0  0  0  0
   56.8582   28.8187   41.6405 H   0  0  0  0  0  0  0  0  0  0  0  0
   57.3971   34.4872   44.5884 H   0  0  0  0  0  0  0  0  0  0  0  0
   59.1125   35.6383   45.9786 H   0  0  0  0  0  0  0  0  0  0  0  0
   57.9688   30.8559   46.8762 H   0  0  0  0  0  0  0  0  0  0  0  0
   62.3941   30.4471   49.2280 H   0  0  0  0  0  0  0  0  0  0  0  0
   64.7220   31.3520   49.1753 H   0  0  0  0  0  0  0  0  0  0  0  0
   65.1155   33.7615   48.6558 H   0  0  0  0  0  0  0  0  0  0  0  0
   63.1898   35.2598   48.1247 H   0  0  0  0  0  0  0  0  0  0  0  0
   60.7640   35.5360   47.8000 H   0  0  0  0  0  0  0  0  0  0  0  0
  1  2  1  0
  2  3  1  0
  2  4  1  0
  4  5  2  0
  4  6  1  0
  6  7  1  0
  7  8  2  0
  8  9  1  0
  9 10  2  0
 10 11  1  0
 11 12  2  0
 11 13  1  0
 13 14  1  0
 14 15  2  0
 15 16  1  0
 16 17  2  0
 17 18  1  0
 18 19  2  0
 19 20  1  0
 12  7  1  0
 19 14  1  0
 20 10  1  0
  1 21  1  0
  1 22  1  0
  1 23  1  0
  2 24  1  0
  3 25  1  0
  3 26  1  0
  3 27  1  0
  8 28  1  0
  9 29  1  0
 12 30  1  0
 15 31  1  0
 16 32  1  0
 17 33  1  0
 18 34  1  0
 20 35  1  0
M  CHG  1   2   1
M  END
>  <UniqueID>  (88) 
80

>  <SMILES>  (88) 
C[NH+](C)C(=O)Oc1ccc2c(c1)Sc1ccccc1N2

>  <Energy>  (88) 
55.88721020234063

>  <Genealogy>  (88) 
C[NH+](C)C(=O)Oc1ccc2c(c1)Sc1ccccc1N2 (protonated)
C[NH+](C)C(=O)Oc1ccc2c(c1)Sc1ccccc1N2 (3D coordinates assigned)
C[NH+](C)C(=O)Oc1ccc2c(c1)Sc1ccccc1N2 (nonaromatic ring conformer: 55.88721020234063 kcal/mol)

>  <smiles>  (88) 
CN(C)C(=O)Oc1ccc2c(c1)Sc1ccccc1N2

>  <score_type>  (88) 
oracle

>  <origin>  (88) 
adg

>  <m_score__min__energy>  (88) 
-6.2400000000000002

>  <m_primary>  (88) 
energy

$$$$
88:0
     RDKit          3D

 65 70  0  0  0  0  0  0  0  0999 V2000
   64.7760   30.0090   51.6440 C   0  0  0  0  0  0  0  0  0  0  0  0
   65.6410   31.1570   51.9660 N   0  0  0  0  0  0  0  0  0  0  0  0
   64.8750   32.2750   52.5600 C   0  0  0  0  0  0  0  0  0  0  0  0
   63.9050   32.9050   51.5470 C   0  0  0  0  0  0  0  0  0  0  0  0
   64.5030   32.9490   50.2090 N   0  0  0  0  0  0  0  0  0  0  0  0
   63.6610   33.2150   49.0700 C   0  0  0  0  0  0  0  0  0  0  0  0
   62.3480   33.6820   49.2320 C   0  0  0  0  0  0  0  0  0  0  0  0
   61.5930   33.9900   48.0930 C   0  0  0  0  0  0  0  0  0  0  0  0
   60.2130   34.5120   48.2140 C   0  0  0  0  0  0  0  0  0  0  0  0
   59.7920   34.8920   49.3390 O   0  0  0  0  0  0  0  0  0  0  0  0
   59.3610   34.6890   47.0720 N   0  0  0  0  0  0  0  0  0  0  0  0
   58.7100   33.6660   46.3020 C   0  0  0  0  0  0  0  0  0  0  0  0
   57.7820   34.0520   45.3310 C   0  0  0  0  0  0  0  0  0  0  0  0
   57.0960   33.0930   44.5860 C   0  0  0  0  0  0  0  0  0  0  0  0
   57.3190   31.7270   44.8090 C   0  0  0  0  0  0  0  0  0  0  0  0
   58.2050   31.3200   45.8380 C   0  0  0  0  0  0  0  0  0  0  0  0
   58.9140   32.2990   46.5580 C   0  0  0  0  0  0  0  0  0  0  0  0
   58.4090   29.8560   46.0190 C   0  0  0  0  0  0  0  0  0  0  0  0
   57.9620   28.9600   45.0780 C   0  0  0  0  0  0  0  0  0  0  0  0
   58.5040   27.7400   45.4530 C   0  0  0  0  0  0  0  0  0  0  0  0
   58.4120   26.4510   44.7500 C   0  0  0  0  0  0  0  0  0  0  0  0
   57.7690   26.3430   43.4800 N   0  0  0  0  0  0  0  0  0  0  0  0
   58.8640   25.4130   45.3030 O   0  0  0  0  0  0  0  0  0  0  0  0
   59.2110   27.9050   46.5910 N   0  0  0  0  0  0  0  0  0  0  0  0
   59.1400   29.1820   46.9410 N   0  0  0  0  0  0  0  0  0  0  0  0
   59.7010   29.6610   48.1690 C   0  0  0  0  0  0  0  0  0  0  0  0
   58.8870   29.8060   49.3010 C   0  0  0  0  0  0  0  0  0  0  0  0
   59.4240   30.2950   50.4950 C   0  0  0  0  0  0  0  0  0  0  0  0
   60.7750   30.6470   50.5630 C   0  0  0  0  0  0  0  0  0  0  0  0
   61.2950   31.1220   51.7220 F   0  0  0  0  0  0  0  0  0  0  0  0
   61.5880   30.5230   49.4320 C   0  0  0  0  0  0  0  0  0  0  0  0
   61.0510   30.0420   48.2340 C   0  0  0  0  0  0  0  0  0  0  0  0
   57.3260   29.3930   43.7890 C   0  0  0  0  0  0  0  0  0  0  0  0
   56.5390   30.7000   44.0060 C   0  0  0  0  0  0  0  0  0  0  0  0
   62.1560   33.8430   46.8640 N   0  0  0  0  0  0  0  0  0  0  0  0
   63.4270   33.3880   46.7200 C   0  0  0  0  0  0  0  0  0  0  0  0
   64.1700   33.0880   47.8150 N   0  0  0  0  0  0  0  0  0  0  0  0
   65.9610   32.8390   50.0900 C   0  0  0  0  0  0  0  0  0  0  0  0
   66.4680   31.5690   50.8000 C   0  0  0  0  0  0  0  0  0  0  0  0
   64.4243   29.5422   52.5759 H   0  0  0  0  0  0  0  0  0  0  0  0
   63.9116   30.3543   51.0578 H   0  0  0  0  0  0  0  0  0  0  0  0
   65.3462   29.2733   51.0578 H   0  0  0  0  0  0  0  0  0  0  0  0
   64.2984   31.8959   53.4166 H   0  0  0  0  0  0  0  0  0  0  0  0
   65.5898   33.0492   52.8757 H   0  0  0  0  0  0  0  0  0  0  0  0
   62.9832   32.3059   51.5102 H   0  0  0  0  0  0  0  0  0  0  0  0
   63.6816   33.9336   51.8666 H   0  0  0  0  0  0  0  0  0  0  0  0
   61.9184   33.8043   50.2372 H   0  0  0  0  0  0  0  0  0  0  0  0
   57.5911   35.1206   45.1529 H   0  0  0  0  0  0  0  0  0  0  0  0
   56.3751   33.4106   43.8183 H   0  0  0  0  0  0  0  0  0  0  0  0
   59.6355   31.9915   47.3293 H   0  0  0  0  0  0  0  0  0  0  0  0
   57.7960   25.4400   42.9560 H   0  0  0  0  0  0  0  0  0  0  0  0
   57.1500   27.1050   43.1270 H   0  0  0  0  0  0  0  0  0  0  0  0
   57.8224   29.5341   49.2493 H   0  0  0  0  0  0  0  0  0  0  0  0
   58.7828   30.4030   51.3822 H   0  0  0  0  0  0  0  0  0  0  0  0
   62.6502   30.8039   49.4848 H   0  0  0  0  0  0  0  0  0  0  0  0
   61.6875   29.9619   47.3404 H   0  0  0  0  0  0  0  0  0  0  0  0
   58.1085   29.5594   43.0340 H   0  0  0  0  0  0  0  0  0  0  0  0
   56.6369   28.6083   43.4434 H   0  0  0  0  0  0  0  0  0  0  0  0
   56.2960   31.1318   43.0239 H   0  0  0  0  0  0  0  0  0  0  0  0
   55.6319   30.4511   44.5764 H   0  0  0  0  0  0  0  0  0  0  0  0
   63.8549   33.2624   45.7145 H   0  0  0  0  0  0  0  0  0  0  0  0
   66.2344   32.7918   49.0256 H   0  0  0  0  0  0  0  0  0  0  0  0
   66.4230   33.7183   50.5626 H   0  0  0  0  0  0  0  0  0  0  0  0
   66.4743   30.7446   50.0717 H   0  0  0  0  0  0  0  0  0  0  0  0
   67.4715   31.7997   51.1870 H   0  0  0  0  0  0  0  0  0  0  0  0
  1  2  1  0
  2  3  1  0
  3  4  1  0
  4  5  1  0
  5  6  1  0
  6  7  2  0
  7  8  1  0
  8  9  1  0
  9 10  2  0
  9 11  1  0
 11 12  1  0
 12 13  2  0
 13 14  1  0
 14 15  2  0
 15 16  1  0
 16 17  2  0
 16 18  1  0
 18 19  2  0
 19 20  1  0
 20 21  1  0
 21 22  1  0
 21 23  2  0
 20 24  2  0
 24 25  1  0
 25 26  1  0
 26 27  2  0
 27 28  1  0
 28 29  2  0
 29 30  1  0
 29 31  1  0
 31 32  2  0
 19 33  1  0
 33 34  1  0
  8 35  2  0
 35 36  1  0
 36 37  2  0
  5 38  1  0
 38 39  1  0
 39  2  1  0
 37  6  1  0
 17 12  1  0
 25 18  1  0
 32 26  1  0
 34 15  1  0
  1 40  1  0
  1 41  1  0
  1 42  1  0
  3 43  1  0
  3 44  1  0
  4 45  1  0
  4 46  1  0
  7 47  1  0
 13 48  1  0
 14 49  1  0
 17 50  1  0
 22 51  1  0
 22 52  1  0
 27 53  1  0
 28 54  1  0
 31 55  1  0
 32 56  1  0
 33 57  1  0
 33 58  1  0
 34 59  1  0
 34 60  1  0
 36 61  1  0
 38 62  1  0
 38 63  1  0
 39 64  1  0
 39 65  1  0
M  CHG  1  11  -1
M  END
>  <UniqueID>  (89) 
81

>  <SMILES>  (89) 
CN1CCN(c2cc(C(=O)[N-]c3ccc4c(c3)-c3c(c(C(N)=O)nn3-c3ccc(F)cc3)CC4)ncn2)CC1

>  <Energy>  (89) 
133.083201887492

>  <Genealogy>  (89) 
CN1CCN(c2cc(C(=O)[N-]c3ccc4c(c3)-c3c(c(C(N)=O)nn3-c3ccc(F)cc3)CC4)ncn2)CC1 (protonated)
CN1CCN(c2cc(C(=O)[N-]c3ccc4c(c3)-c3c(c(C(N)=O)nn3-c3ccc(F)cc3)CC4)ncn2)CC1 (3D coordinates assigned)
CN1CCN(c2cc(C(=O)[N-]c3ccc4c(c3)-c3c(c(C(N)=O)nn3-c3ccc(F)cc3)CC4)ncn2)CC1 (nonaromatic ring conformer: 133.083201887492 kcal/mol)

>  <smiles>  (89) 
CN1CCN(c2cc(C(=O)Nc3ccc4c(c3)-c3c(c(C(N)=O)nn3-c3ccc(F)cc3)CC4)ncn2)CC1

>  <score_type>  (89) 
oracle

>  <origin>  (89) 
adg

>  <m_score__min__energy>  (89) 
-10.76

>  <m_primary>  (89) 
energy

$$$$
89:0
     RDKit          3D

 47 50  0  0  1  0  0  0  0  0999 V2000
   63.9900   32.6660   46.7860 N   0  0  0  0  0  0  0  0  0  0  0  0
   62.8340   32.2080   47.1950 C   0  0  0  0  0  0  0  0  0  0  0  0
   62.4170   30.9810   46.8030 N   0  0  0  0  0  0  0  0  0  0  0  0
   61.2090   30.5250   47.2440 C   0  0  0  0  0  0  0  0  0  0  0  0
   60.7730   29.3210   46.8730 N   0  0  0  0  0  0  0  0  0  0  0  0
   59.5730   28.9030   47.3280 C   0  0  0  0  0  0  0  0  0  0  0  0
   59.1720   27.7550   46.9680 N   0  0  0  0  0  0  0  0  0  0  0  0
   58.6930   27.3520   45.6910 C   0  0  0  0  0  0  0  0  0  0  0  0
   58.0220   28.5230   45.0730 C   0  0  0  0  0  0  0  0  0  0  0  0
   56.6270   28.6540   45.0560 C   0  0  0  0  0  0  0  0  0  0  0  0
   55.9880   29.7190   44.4950 C   0  0  0  0  0  0  0  0  0  0  0  0
   56.7050   30.7390   43.9050 C   0  0  0  0  0  0  0  0  0  0  0  0
   58.0910   30.6490   43.9000 C   0  0  0  0  0  0  0  0  0  0  0  0
   58.7180   29.5540   44.4780 C   0  0  0  0  0  0  0  0  0  0  0  0
   58.8130   29.6650   48.1390 N   0  0  0  0  0  0  0  0  0  0  0  0
   59.2380   30.8730   48.5180 C   0  0  0  0  0  0  0  0  0  0  0  0
   58.5480   31.6550   49.2980 N   0  0  0  0  0  0  0  0  0  0  0  0
   60.4680   31.3480   48.0740 C   0  0  0  0  0  0  0  0  0  0  0  0
   60.9020   32.5990   48.4680 C   0  0  0  0  0  0  0  0  0  0  0  0
   60.1260   33.4000   49.3080 O   0  0  0  0  0  0  0  0  0  0  0  0
   59.5650   34.5930   48.8140 C   0  0  0  0  0  0  0  0  0  0  0  0
   59.0610   34.3860   47.4320 C   0  0  0  0  0  0  0  0  0  0  0  0
   59.7690   34.9570   46.3910 C   0  0  0  0  0  0  0  0  0  0  0  0
   59.2960   34.7610   45.1110 C   0  0  0  0  0  0  0  0  0  0  0  0
   58.1590   34.0240   44.8540 C   0  0  0  0  0  0  0  0  0  0  0  0
   57.4600   33.4580   45.8940 C   0  0  0  0  0  0  0  0  0  0  0  0
   57.9230   33.6480   47.1820 C   0  0  0  0  0  0  0  0  0  0  0  0
   62.1050   33.0000   48.0040 N   0  0  0  0  0  0  0  0  0  0  0  0
   64.8220   32.0260   46.7420 H   0  0  0  0  0  0  0  0  0  0  0  0
   61.3180   28.7130   46.2620 H   0  0  0  0  0  0  0  0  0  0  0  0
   59.5336   27.0258   45.0610 H   0  0  0  0  0  0  0  0  0  0  0  0
   57.9900   26.5117   45.7898 H   0  0  0  0  0  0  0  0  0  0  0  0
   56.0198   27.8608   45.5166 H   0  0  0  0  0  0  0  0  0  0  0  0
   54.8891   29.7657   44.5129 H   0  0  0  0  0  0  0  0  0  0  0  0
   56.1931   31.6002   43.4508 H   0  0  0  0  0  0  0  0  0  0  0  0
   58.6920   31.4459   43.4377 H   0  0  0  0  0  0  0  0  0  0  0  0
   59.8168   29.5066   44.4607 H   0  0  0  0  0  0  0  0  0  0  0  0
   57.8820   29.3560   48.4990 H   0  0  0  0  0  0  0  0  0  0  0  0
   59.0630   32.3080   49.9130 H   0  0  0  0  0  0  0  0  0  0  0  0
   58.7315   34.8992   49.4632 H   0  0  0  0  0  0  0  0  0  0  0  0
   60.3373   35.3762   48.8021 H   0  0  0  0  0  0  0  0  0  0  0  0
   60.6783   35.5473   46.5775 H   0  0  0  0  0  0  0  0  0  0  0  0
   59.8432   35.2069   44.2673 H   0  0  0  0  0  0  0  0  0  0  0  0
   57.8120   33.8892   43.8189 H   0  0  0  0  0  0  0  0  0  0  0  0
   56.5519   32.8668   45.7048 H   0  0  0  0  0  0  0  0  0  0  0  0
   57.3734   33.2021   48.0241 H   0  0  0  0  0  0  0  0  0  0  0  0
   62.4500   33.9560   48.2990 H   0  0  0  0  0  0  0  0  0  0  0  0
  1  2  2  3
  2  3  1  0
  3  4  2  0
  4  5  1  0
  5  6  1  0
  6  7  2  0
  7  8  1  0
  8  9  1  0
  9 10  2  0
 10 11  1  0
 11 12  2  0
 12 13  1  0
 13 14  2  0
  6 15  1  0
 15 16  1  0
 16 17  2  3
 16 18  1  0
 18 19  2  0
 19 20  1  0
 20 21  1  0
 21 22  1  0
 22 23  2  0
 23 24  1  0
 24 25  2  0
 25 26  1  0
 26 27  2  0
 19 28  1  0
 28  2  1  0
 18  4  1  0
 27 22  1  0
 14  9  1  0
  1 29  1  0
  5 30  1  0
  8 31  1  0
  8 32  1  0
 10 33  1  0
 11 34  1  0
 12 35  1  0
 13 36  1  0
 14 37  1  0
 15 38  1  0
 17 39  1  0
 21 40  1  0
 21 41  1  0
 23 42  1  0
 24 43  1  0
 25 44  1  0
 26 45  1  0
 27 46  1  0
 28 47  1  0
M  END
>  <smiles>  (90) 
N=c1nc2[nH]c(=NCc3ccccc3)[nH]c(=N)c2c(OCc2ccccc2)[nH]1

>  <score_type>  (90) 
oracle

>  <origin>  (90) 
adg

>  <m_score__min__energy>  (90) 
-8.6500000000000004

>  <m_primary>  (90) 
energy

$$$$
90:0
     RDKit          3D

 44 45  0  0  0  0  0  0  0  0999 V2000
   59.0142   33.5657   49.3782 H   0  0  0  0  0  0  0  0  0  0  0  0
   59.6280   33.8350   48.5060 C   0  0  0  0  0  0  0  0  0  0  0  0
   60.8690   34.2810   48.7190 C   0  0  0  0  0  0  0  0  0  0  0  0
   61.0454   35.3632   48.8074 H   0  0  0  0  0  0  0  0  0  0  0  0
   62.2270   33.1710   48.8610 S   0  0  0  0  0  0  0  0  0  0  0  0
   62.9970   33.0820   47.5730 O   0  0  0  0  0  0  0  0  0  0  0  0
   63.1440   33.6760   49.9390 O   0  0  0  0  0  0  0  0  0  0  0  0
   61.6280   31.6060   49.3080 N   0  0  0  0  0  0  0  0  0  0  0  0
   61.1080   30.6650   48.3620 C   0  0  0  0  0  0  0  0  0  0  0  0
   61.2220   30.8780   46.9790 C   0  0  0  0  0  0  0  0  0  0  0  0
   61.7986   31.7360   46.6029 H   0  0  0  0  0  0  0  0  0  0  0  0
   60.6070   30.0060   46.0790 C   0  0  0  0  0  0  0  0  0  0  0  0
   60.6947   30.1842   44.9971 H   0  0  0  0  0  0  0  0  0  0  0  0
   59.8780   28.9040   46.5480 C   0  0  0  0  0  0  0  0  0  0  0  0
   59.1340   28.0320   45.5740 C   0  0  0  0  0  0  0  0  0  0  0  0
   58.7787   27.1287   46.0916 H   0  0  0  0  0  0  0  0  0  0  0  0
   59.8094   27.7503   44.7528 H   0  0  0  0  0  0  0  0  0  0  0  0
   57.9890   28.7580   45.0260 N   0  0  0  0  0  0  0  0  0  0  0  0
   58.1850   29.6220   44.4740 H   0  0  0  0  0  0  0  0  0  0  0  0
   56.6330   28.3580   45.2870 C   0  0  0  0  0  0  0  0  0  0  0  0
   56.4040   27.2770   45.8950 O   0  0  0  0  0  0  0  0  0  0  0  0
   55.5200   29.1670   44.8860 N   0  0  0  0  0  0  0  0  0  0  0  0
   55.5240   30.1390   43.7980 C   0  0  0  0  0  0  0  0  0  0  0  0
   55.8719   31.1094   44.1819 H   0  0  0  0  0  0  0  0  0  0  0  0
   54.5022   30.2300   43.4011 H   0  0  0  0  0  0  0  0  0  0  0  0
   56.4480   29.6850   42.6740 C   0  0  0  0  0  0  0  0  0  0  0  0
   57.3567   29.2385   43.1041 H   0  0  0  0  0  0  0  0  0  0  0  0
   55.9310   28.9383   42.0534 H   0  0  0  0  0  0  0  0  0  0  0  0
   56.7232   30.5505   42.0534 H   0  0  0  0  0  0  0  0  0  0  0  0
   59.8130   28.6600   47.9280 C   0  0  0  0  0  0  0  0  0  0  0  0
   59.2716   27.7791   48.3033 H   0  0  0  0  0  0  0  0  0  0  0  0
   60.4330   29.5310   48.8280 C   0  0  0  0  0  0  0  0  0  0  0  0
   60.3903   29.3244   49.9076 H   0  0  0  0  0  0  0  0  0  0  0  0
   59.0350   33.6840   47.1570 C   0  0  0  0  0  0  0  0  0  0  0  0
   58.1170   32.6600   46.8460 C   0  0  0  0  0  0  0  0  0  0  0  0
   57.8124   31.9430   47.6227 H   0  0  0  0  0  0  0  0  0  0  0  0
   57.5920   32.5520   45.5540 C   0  0  0  0  0  0  0  0  0  0  0  0
   56.8790   31.7486   45.3169 H   0  0  0  0  0  0  0  0  0  0  0  0
   57.9710   33.4620   44.5640 C   0  0  0  0  0  0  0  0  0  0  0  0
   57.5622   33.3704   43.5469 H   0  0  0  0  0  0  0  0  0  0  0  0
   58.8690   34.4880   44.8660 C   0  0  0  0  0  0  0  0  0  0  0  0
   59.1622   35.2078   44.0876 H   0  0  0  0  0  0  0  0  0  0  0  0
   59.3960   34.6020   46.1560 C   0  0  0  0  0  0  0  0  0  0  0  0
   60.0982   35.4160   46.3891 H   0  0  0  0  0  0  0  0  0  0  0  0
  1  2  1  0
  2  3  2  0
  3  4  1  0
  3  5  1  0
  5  6  2  0
  5  7  2  0
  5  8  1  0
  8  9  1  0
  9 10  2  0
 10 11  1  0
 10 12  1  0
 12 13  1  0
 12 14  2  0
 14 15  1  0
 15 16  1  0
 15 17  1  0
 15 18  1  0
 18 19  1  0
 18 20  1  0
 20 21  2  0
 20 22  1  0
 22 23  1  0
 23 24  1  0
 23 25  1  0
 23 26  1  0
 26 27  1  0
 26 28  1  0
 26 29  1  0
 14 30  1  0
 30 31  1  0
 30 32  2  0
 32 33  1  0
  2 34  1  0
 34 35  2  0
 35 36  1  0
 35 37  1  0
 37 38  1  0
 37 39  2  0
 39 40  1  0
 39 41  1  0
 41 42  1  0
 41 43  2  0
 43 44  1  0
 32  9  1  0
 43 34  1  0
M  CHG  2   8  -1  22  -1
M  END
>  <UniqueID>  (91) 
82

>  <SMILES>  (91) 
CC[N-]C(=O)NCc1ccc([N-]S(=O)(=O)/C=C/c2ccccc2)cc1

>  <Energy>  (91) 
42.75350524673058

>  <Genealogy>  (91) 
CC[N-]C(=O)NCc1ccc([N-]S(=O)(=O)C=Cc2ccccc2)cc1 (protonated)
CC[N-]C(=O)NCc1ccc([N-]S(=O)(=O)/C=C/c2ccccc2)cc1 (cis-trans isomerization)
CC[N-]C(=O)NCc1ccc([N-]S(=O)(=O)/C=C/c2ccccc2)cc1 (3D coordinates assigned)
CC[N-]C(=O)NCc1ccc([N-]S(=O)(=O)/C=C/c2ccccc2)cc1 (optimized conformer: 42.75350524673058 kcal/mol)

>  <smiles>  (91) 
CCNC(=O)NCc1ccc(NS(=O)(=O)C=Cc2ccccc2)cc1

>  <score_type>  (91) 
oracle

>  <origin>  (91) 
adg

>  <m_score__min__energy>  (91) 
-11.4

>  <m_primary>  (91) 
energy

$$$$
91:0
     RDKit          3D

 52 56  0  0  0  0  0  0  0  0999 V2000
   61.3980   28.0660   51.2340 C   0  0  0  0  0  0  0  0  0  0  0  0
   60.6020   28.5070   50.2580 C   0  0  0  0  0  0  0  0  0  0  0  0
   60.4870   29.9680   49.9200 C   0  0  0  0  0  0  0  0  0  0  0  0
   61.1700   30.2920   48.6590 N   0  0  0  0  0  0  0  0  0  0  0  0
   62.1320   31.2210   48.4590 C   0  0  0  0  0  0  0  0  0  0  0  0
   62.9810   32.1270   49.7550 S   0  0  0  0  0  0  0  0  0  0  0  0
   62.0480   33.6650   49.4580 C   0  0  0  0  0  0  0  0  0  0  0  0
   60.5820   33.3460   49.2870 C   0  0  0  0  0  0  0  0  0  0  0  0
   59.8600   32.8940   50.4000 C   0  0  0  0  0  0  0  0  0  0  0  0
   58.5050   32.5850   50.2630 C   0  0  0  0  0  0  0  0  0  0  0  0
   57.8480   32.1870   51.2590 O   0  0  0  0  0  0  0  0  0  0  0  0
   57.9040   32.7040   49.0860 O   0  0  0  0  0  0  0  0  0  0  0  0
   58.5400   33.1110   47.9920 C   0  0  0  0  0  0  0  0  0  0  0  0
   57.8360   33.2030   46.7860 C   0  0  0  0  0  0  0  0  0  0  0  0
   58.4870   33.6190   45.6100 C   0  0  0  0  0  0  0  0  0  0  0  0
   57.8200   33.7240   44.3800 O   0  0  0  0  0  0  0  0  0  0  0  0
   57.7920   32.7020   43.3900 C   0  0  0  0  0  0  0  0  0  0  0  0
   59.8460   33.9380   45.6580 C   0  0  0  0  0  0  0  0  0  0  0  0
   60.5590   33.8540   46.8570 C   0  0  0  0  0  0  0  0  0  0  0  0
   59.9150   33.4460   48.0420 C   0  0  0  0  0  0  0  0  0  0  0  0
   62.3200   31.4740   47.1520 N   0  0  0  0  0  0  0  0  0  0  0  0
   61.4590   30.7190   46.4870 N   0  0  0  0  0  0  0  0  0  0  0  0
   60.7650   30.0110   47.3980 C   0  0  0  0  0  0  0  0  0  0  0  0
   59.6150   29.1590   47.0350 C   0  0  0  0  0  0  0  0  0  0  0  0
   58.4350   29.7560   46.5680 C   0  0  0  0  0  0  0  0  0  0  0  0
   57.3860   29.0140   46.2280 O   0  0  0  0  0  0  0  0  0  0  0  0
   57.3940   27.6880   46.3000 C   0  0  0  0  0  0  0  0  0  0  0  0
   56.2850   26.9880   45.9410 N   0  0  0  0  0  0  0  0  0  0  0  0
   56.2480   25.6290   45.9920 C   0  0  0  0  0  0  0  0  0  0  0  0
   57.3680   24.9130   46.4200 C   0  0  0  0  0  0  0  0  0  0  0  0
   58.5230   25.6010   46.7950 C   0  0  0  0  0  0  0  0  0  0  0  0
   58.5480   27.0040   46.7410 C   0  0  0  0  0  0  0  0  0  0  0  0
   59.6770   27.7580   47.1000 C   0  0  0  0  0  0  0  0  0  0  0  0
   60.7410   27.1840   47.4590 O   0  0  0  0  0  0  0  0  0  0  0  0
   61.4559   26.9894   51.4523 H   0  0  0  0  0  0  0  0  0  0  0  0
   61.9962   28.7790   51.8203 H   0  0  0  0  0  0  0  0  0  0  0  0
   60.0113   27.7790   49.6825 H   0  0  0  0  0  0  0  0  0  0  0  0
   59.4226   30.2289   49.8257 H   0  0  0  0  0  0  0  0  0  0  0  0
   60.9653   30.5441   50.7258 H   0  0  0  0  0  0  0  0  0  0  0  0
   62.1773   34.3424   50.3150 H   0  0  0  0  0  0  0  0  0  0  0  0
   62.4245   34.1488   48.5447 H   0  0  0  0  0  0  0  0  0  0  0  0
   60.3573   32.7834   51.3749 H   0  0  0  0  0  0  0  0  0  0  0  0
   56.7663   32.9483   46.7572 H   0  0  0  0  0  0  0  0  0  0  0  0
   57.7650   31.7175   43.8800 H   0  0  0  0  0  0  0  0  0  0  0  0
   56.8969   32.8239   42.7624 H   0  0  0  0  0  0  0  0  0  0  0  0
   58.6925   32.7747   42.7624 H   0  0  0  0  0  0  0  0  0  0  0  0
   60.3614   34.2593   44.7408 H   0  0  0  0  0  0  0  0  0  0  0  0
   61.6291   34.1079   46.8758 H   0  0  0  0  0  0  0  0  0  0  0  0
   58.3770   30.8511   46.4821 H   0  0  0  0  0  0  0  0  0  0  0  0
   55.3342   25.0932   45.6956 H   0  0  0  0  0  0  0  0  0  0  0  0
   57.3401   23.8141   46.4613 H   0  0  0  0  0  0  0  0  0  0  0  0
   59.4110   25.0459   47.1318 H   0  0  0  0  0  0  0  0  0  0  0  0
  1  2  2  0
  2  3  1  0
  3  4  1  0
  4  5  1  0
  5  6  1  0
  6  7  1  0
  7  8  1  0
  8  9  2  0
  9 10  1  0
 10 11  2  0
 10 12  1  0
 12 13  1  0
 13 14  2  0
 14 15  1  0
 15 16  1  0
 16 17  1  0
 15 18  2  0
 18 19  1  0
 19 20  2  0
  5 21  2  0
 21 22  1  0
 22 23  2  0
 23 24  1  0
 24 25  2  0
 25 26  1  0
 26 27  1  0
 27 28  2  0
 28 29  1  0
 29 30  2  0
 30 31  1  0
 31 32  2  0
 32 33  1  0
 33 34  2  0
 23  4  1  0
 33 24  1  0
 20  8  1  0
 32 27  1  0
 20 13  1  0
  1 35  1  0
  1 36  1  0
  2 37  1  0
  3 38  1  0
  3 39  1  0
  7 40  1  0
  7 41  1  0
  9 42  1  0
 14 43  1  0
 17 44  1  0
 17 45  1  0
 17 46  1  0
 18 47  1  0
 19 48  1  0
 25 49  1  0
 29 50  1  0
 30 51  1  0
 31 52  1  0
M  END
>  <UniqueID>  (92) 
83

>  <SMILES>  (92) 
C=CCn1c(SCc2cc(=O)oc3cc(OC)ccc23)nnc1-c1coc2ncccc2c1=O

>  <Energy>  (92) 
104.9670177156706

>  <Genealogy>  (92) 
C=CCn1c(SCc2cc(=O)oc3cc(OC)ccc23)nnc1-c1coc2ncccc2c1=O (3D coordinates assigned)
C=CCn1c(SCc2cc(=O)oc3cc(OC)ccc23)nnc1-c1coc2ncccc2c1=O (optimized conformer: 104.9670177156706 kcal/mol)

>  <smiles>  (92) 
C=CCn1c(SCc2cc(=O)oc3cc(OC)ccc23)nnc1-c1coc2ncccc2c1=O

>  <score_type>  (92) 
oracle

>  <origin>  (92) 
adg

>  <m_score__min__energy>  (92) 
-9.1899999999999995

>  <m_primary>  (92) 
energy

$$$$
92:0
     RDKit          3D

 52 55  0  0  0  0  0  0  0  0999 V2000
   64.1450   32.0520   48.9900 C   0  0  0  0  0  0  0  0  0  0  0  0
   62.8680   32.7240   48.5790 C   0  0  0  0  0  0  0  0  0  0  0  0
   61.8810   33.0090   49.5340 C   0  0  0  0  0  0  0  0  0  0  0  0
   60.7090   33.6730   49.1600 C   0  0  0  0  0  0  0  0  0  0  0  0
   60.5100   34.0620   47.8260 C   0  0  0  0  0  0  0  0  0  0  0  0
   59.2730   34.8250   47.4390 C   0  0  0  0  0  0  0  0  0  0  0  0
   58.5720   34.1250   46.3660 N   0  0  0  0  0  0  0  0  0  0  0  0
   58.2290   34.6170   45.1480 C   0  0  0  0  0  0  0  0  0  0  0  0
   57.7410   33.6580   44.3200 N   0  0  0  0  0  0  0  0  0  0  0  0
   57.7900   32.5300   45.0520 C   0  0  0  0  0  0  0  0  0  0  0  0
   57.5290   31.2040   44.6940 C   0  0  0  0  0  0  0  0  0  0  0  0
   57.0060   30.8300   43.4070 N   0  0  0  0  0  0  0  0  0  0  0  0
   56.0430   29.7320   43.3240 C   0  0  0  0  0  0  0  0  0  0  0  0
   57.3760   31.5540   42.1900 C   0  0  0  0  0  0  0  0  0  0  0  0
   57.8290   30.2420   45.6180 N   0  0  0  0  0  0  0  0  0  0  0  0
   58.3430   30.5500   46.8540 C   0  0  0  0  0  0  0  0  0  0  0  0
   58.7020   29.4530   47.8210 C   0  0  0  0  0  0  0  0  0  0  0  0
   58.4760   28.0510   47.2120 C   0  0  0  0  0  0  0  0  0  0  0  0
   59.8000   27.4480   46.7150 C   0  0  0  0  0  0  0  0  0  0  0  0
   60.7790   27.2880   47.7360 O   0  0  0  0  0  0  0  0  0  0  0  0
   60.7280   28.2770   48.7590 C   0  0  0  0  0  0  0  0  0  0  0  0
   60.1550   29.6290   48.3050 C   0  0  0  0  0  0  0  0  0  0  0  0
   58.6000   31.8530   47.1830 N   0  0  0  0  0  0  0  0  0  0  0  0
   58.3010   32.8120   46.2760 C   0  0  0  0  0  0  0  0  0  0  0  0
   61.5120   33.8030   46.8770 C   0  0  0  0  0  0  0  0  0  0  0  0
   62.6840   33.1400   47.2520 C   0  0  0  0  0  0  0  0  0  0  0  0
   64.2057   32.0201   50.0879 H   0  0  0  0  0  0  0  0  0  0  0  0
   64.1645   31.0268   48.5917 H   0  0  0  0  0  0  0  0  0  0  0  0
   65.0010   32.6164   48.5917 H   0  0  0  0  0  0  0  0  0  0  0  0
   62.0298   32.7087   50.5817 H   0  0  0  0  0  0  0  0  0  0  0  0
   59.9391   33.8917   49.9146 H   0  0  0  0  0  0  0  0  0  0  0  0
   58.6097   34.9114   48.3123 H   0  0  0  0  0  0  0  0  0  0  0  0
   59.5606   35.8276   47.0896 H   0  0  0  0  0  0  0  0  0  0  0  0
   58.3347   35.6744   44.8638 H   0  0  0  0  0  0  0  0  0  0  0  0
   57.4670   33.7770   43.3210 H   0  0  0  0  0  0  0  0  0  0  0  0
   55.7628   29.4125   44.3386 H   0  0  0  0  0  0  0  0  0  0  0  0
   55.1458   30.0711   42.7855 H   0  0  0  0  0  0  0  0  0  0  0  0
   56.4963   28.8867   42.7855 H   0  0  0  0  0  0  0  0  0  0  0  0
   57.8611   32.5033   42.4612 H   0  0  0  0  0  0  0  0  0  0  0  0
   58.0722   30.9427   41.5971 H   0  0  0  0  0  0  0  0  0  0  0  0
   56.4727   31.7602   41.5971 H   0  0  0  0  0  0  0  0  0  0  0  0
   58.0313   29.5307   48.6894 H   0  0  0  0  0  0  0  0  0  0  0  0
   58.0451   27.3906   47.9789 H   0  0  0  0  0  0  0  0  0  0  0  0
   57.7905   28.1459   46.3569 H   0  0  0  0  0  0  0  0  0  0  0  0
   59.5890   26.4602   46.2793 H   0  0  0  0  0  0  0  0  0  0  0  0
   60.2165   28.1528   45.9802 H   0  0  0  0  0  0  0  0  0  0  0  0
   60.1001   27.8942   49.5770 H   0  0  0  0  0  0  0  0  0  0  0  0
   61.7670   28.4636   49.0683 H   0  0  0  0  0  0  0  0  0  0  0  0
   60.1744   30.3342   49.1490 H   0  0  0  0  0  0  0  0  0  0  0  0
   60.7654   30.0190   47.4772 H   0  0  0  0  0  0  0  0  0  0  0  0
   61.3740   34.1233   45.8338 H   0  0  0  0  0  0  0  0  0  0  0  0
   63.4655   32.9436   46.5032 H   0  0  0  0  0  0  0  0  0  0  0  0
  1  2  1  0
  2  3  2  0
  3  4  1  0
  4  5  2  0
  5  6  1  0
  6  7  1  0
  7  8  1  0
  8  9  2  0
  9 10  1  0
 10 11  2  0
 11 12  1  0
 12 13  1  0
 12 14  1  0
 11 15  1  0
 15 16  2  0
 16 17  1  0
 17 18  1  0
 18 19  1  0
 19 20  1  0
 20 21  1  0
 21 22  1  0
 16 23  1  0
 23 24  2  0
  5 25  1  0
 25 26  2  0
 26  2  1  0
 24  7  1  0
 24 10  1  0
 22 17  1  0
  1 27  1  0
  1 28  1  0
  1 29  1  0
  3 30  1  0
  4 31  1  0
  6 32  1  0
  6 33  1  0
  8 34  1  0
  9 35  1  0
 13 36  1  0
 13 37  1  0
 13 38  1  0
 14 39  1  0
 14 40  1  0
 14 41  1  0
 17 42  1  0
 18 43  1  0
 18 44  1  0
 19 45  1  0
 19 46  1  0
 21 47  1  0
 21 48  1  0
 22 49  1  0
 22 50  1  0
 25 51  1  0
 26 52  1  0
M  CHG  1   9   1
M  END
>  <UniqueID>  (93) 
84

>  <SMILES>  (93) 
Cc1ccc(Cn2c[nH+]c3c(N(C)C)nc(C4CCOCC4)nc32)cc1

>  <Energy>  (93) 
104.50890660189086

>  <Genealogy>  (93) 
Cc1ccc(Cn2c[nH+]c3c(N(C)C)nc(C4CCOCC4)nc32)cc1 (protonated)
Cc1ccc(Cn2c[nH+]c3c(N(C)C)nc(C4CCOCC4)nc32)cc1 (3D coordinates assigned)
Cc1ccc(Cn2c[nH+]c3c(N(C)C)nc(C4CCOCC4)nc32)cc1 (nonaromatic ring conformer: 104.50890660189086 kcal/mol)

>  <smiles>  (93) 
Cc1ccc(Cn2cnc3c(N(C)C)nc(C4CCOCC4)nc32)cc1

>  <score_type>  (93) 
oracle

>  <origin>  (93) 
adg

>  <m_score__min__energy>  (93) 
-6.29

>  <m_primary>  (93) 
energy

$$$$
93:0
     RDKit          3D

 60 64  0  0  1  0  0  0  0  0999 V2000
   61.8310   33.8470   47.0260 C   0  0  0  0  0  0  0  0  0  0  0  0
   60.9400   34.2430   48.1150 C   0  0  0  0  0  0  0  0  0  0  0  0
   61.5500   34.5650   49.2110 O   0  0  0  0  0  0  0  0  0  0  0  0
   59.5170   34.3440   48.1970 C   0  0  0  0  0  0  0  0  0  0  0  0
   58.6140   33.4230   48.1790 C   0  0  0  0  0  0  0  0  0  0  0  0
   58.6380   32.0770   47.7190 C   0  0  2  0  0  0  0  0  0  0  0  0
   59.8420   31.2030   47.9650 C   0  0  0  0  0  0  0  0  0  0  0  0
   59.4050   29.8880   48.5630 C   0  0  2  0  0  0  0  0  0  0  0  0
   60.4210   29.3540   49.4910 C   0  0  0  0  0  0  0  0  0  0  0  0
   60.4780   28.1400   50.1510 C   0  0  0  0  0  0  0  0  0  0  0  0
   61.6290   28.0840   50.9370 C   0  0  0  0  0  0  0  0  0  0  0  0
   62.2400   29.2470   50.7420 N   0  0  0  0  0  0  0  0  0  0  0  0
   61.5550   29.9990   49.9060 N   0  0  0  0  0  0  0  0  0  0  0  0
   58.9020   28.8590   47.6660 C   0  0  2  0  0  0  0  0  0  0  0  0
   59.9240   27.8820   47.1250 C   0  0  2  0  0  0  0  0  0  0  0  0
   60.8910   28.6620   46.4560 O   0  0  0  0  0  0  0  0  0  0  0  0
   59.3080   26.8860   46.1740 C   0  0  0  0  0  0  0  0  0  0  0  0
   57.8310   26.8900   46.1340 C   0  0  2  0  0  0  0  0  0  0  0  0
   57.2170   25.9200   45.3060 N   0  0  0  0  0  0  0  0  0  0  0  0
   57.7930   25.6840   44.0880 C   0  0  0  0  0  0  0  0  0  0  0  0
   57.2780   24.7640   43.2050 C   0  0  0  0  0  0  0  0  0  0  0  0
   56.1490   24.0520   43.5420 C   0  0  0  0  0  0  0  0  0  0  0  0
   55.6470   23.1960   42.7510 O   0  0  0  0  0  0  0  0  0  0  0  0
   55.5980   24.2930   44.7320 N   0  0  0  0  0  0  0  0  0  0  0  0
   56.1260   25.2020   45.5790 C   0  0  0  0  0  0  0  0  0  0  0  0
   55.5570   25.3700   46.6640 O   0  0  0  0  0  0  0  0  0  0  0  0
   57.3210   28.2720   45.9120 C   0  0  0  0  0  0  0  0  0  0  0  0
   56.2790   28.5800   45.2890 O   0  0  0  0  0  0  0  0  0  0  0  0
   58.1520   29.3120   46.5000 N   0  0  0  0  0  0  0  0  0  0  0  0
   58.0380   30.5220   45.8070 C   0  0  0  0  0  0  0  0  0  0  0  0
   57.6770   30.2910   44.5050 C   0  0  0  0  0  0  0  0  0  0  0  0
   57.4730   31.4020   43.7060 C   0  0  0  0  0  0  0  0  0  0  0  0
   57.0020   31.2380   42.0130 Cl  0  0  0  0  0  0  0  0  0  0  0  0
   57.6360   32.6900   44.2240 C   0  0  0  0  0  0  0  0  0  0  0  0
   58.0060   32.9050   45.5400 C   0  0  0  0  0  0  0  0  0  0  0  0
   58.2050   31.7970   46.3250 C   0  0  0  0  0  0  0  0  0  0  0  0
   62.7606   33.4339   47.4446 H   0  0  0  0  0  0  0  0  0  0  0  0
   61.3367   33.0838   46.4069 H   0  0  0  0  0  0  0  0  0  0  0  0
   62.0663   34.7253   46.4069 H   0  0  0  0  0  0  0  0  0  0  0  0
   59.1304   35.3696   48.2902 H   0  0  0  0  0  0  0  0  0  0  0  0
   57.6459   33.7365   48.5968 H   0  0  0  0  0  0  0  0  0  0  0  0
   57.8563   31.7929   48.4389 H   0  0  0  0  0  0  0  0  0  0  0  0
   60.3592   31.0170   47.0121 H   0  0  0  0  0  0  0  0  0  0  0  0
   60.5233   31.7112   48.6632 H   0  0  0  0  0  0  0  0  0  0  0  0
   58.4968   30.1722   49.1148 H   0  0  0  0  0  0  0  0  0  0  0  0
   59.7285   27.3391   50.0685 H   0  0  0  0  0  0  0  0  0  0  0  0
   61.9595   27.2550   51.5800 H   0  0  0  0  0  0  0  0  0  0  0  0
   63.1510   29.5780   51.1720 H   0  0  0  0  0  0  0  0  0  0  0  0
   58.2298   28.3647   48.3828 H   0  0  0  0  0  0  0  0  0  0  0  0
   60.3606   27.2921   47.9443 H   0  0  0  0  0  0  0  0  0  0  0  0
   60.4220   29.3490   45.9600 H   0  0  0  0  0  0  0  0  0  0  0  0
   59.6771   27.1077   45.1618 H   0  0  0  0  0  0  0  0  0  0  0  0
   59.6024   25.8909   46.5388 H   0  0  0  0  0  0  0  0  0  0  0  0
   57.5155   26.5516   47.1320 H   0  0  0  0  0  0  0  0  0  0  0  0
   58.6951   26.2469   43.8064 H   0  0  0  0  0  0  0  0  0  0  0  0
   57.7662   24.5977   42.2334 H   0  0  0  0  0  0  0  0  0  0  0  0
   54.7430   23.7630   45.0040 H   0  0  0  0  0  0  0  0  0  0  0  0
   57.5552   29.2702   44.1137 H   0  0  0  0  0  0  0  0  0  0  0  0
   57.4655   33.5562   43.5678 H   0  0  0  0  0  0  0  0  0  0  0  0
   58.1352   33.9215   45.9402 H   0  0  0  0  0  0  0  0  0  0  0  0
  1  2  1  0
  2  3  2  0
  2  4  1  0
  4  5  2  0
  5  6  1  0
  6  7  1  0
  7  8  1  0
  8  9  1  0
  9 10  1  0
 10 11  2  0
 11 12  1  0
 12 13  1  0
  8 14  1  0
 14 15  1  0
 15 16  1  0
 15 17  1  0
 17 18  1  0
 18 19  1  0
 19 20  1  0
 20 21  2  0
 21 22  1  0
 22 23  2  0
 22 24  1  0
 24 25  1  0
 25 26  2  0
 18 27  1  0
 27 28  2  0
 27 29  1  0
 29 30  1  0
 30 31  2  0
 31 32  1  0
 32 33  1  0
 32 34  2  0
 34 35  1  0
 35 36  2  0
 36  6  1  0
 13  9  2  0
 29 14  1  0
 36 30  1  0
 25 19  1  0
  1 37  1  0
  1 38  1  0
  1 39  1  0
  4 40  1  0
  5 41  1  0
  6 42  1  1
  7 43  1  0
  7 44  1  0
  8 45  1  1
 10 46  1  0
 11 47  1  0
 12 48  1  0
 14 49  1  1
 15 50  1  1
 16 51  1  0
 17 52  1  0
 17 53  1  0
 18 54  1  1
 20 55  1  0
 21 56  1  0
 24 57  1  0
 31 58  1  0
 34 59  1  0
 35 60  1  0
M  END
>  <smiles>  (94) 
CC(=O)C=CC1CC(c2cc[nH]n2)C2C(O)CC(n3ccc(=O)[nH]c3=O)C(=O)N2c2cc(Cl)ccc21

>  <score_type>  (94) 
oracle

>  <origin>  (94) 
adg

>  <m_score__min__energy>  (94) 
-8.3599999999999994

>  <m_primary>  (94) 
energy

$$$$
94:0
     RDKit          3D

 37 38  0  0  0  0  0  0  0  0999 V2000
   61.3170   34.2030   46.6940 C   0  0  0  0  0  0  0  0  0  0  0  0
   59.6230   34.5290   46.2630 S   0  0  0  0  0  0  0  0  0  0  0  0
   59.5700   35.5010   45.1180 O   0  0  0  0  0  0  0  0  0  0  0  0
   58.9190   35.1350   47.4440 O   0  0  0  0  0  0  0  0  0  0  0  0
   58.8400   33.0260   45.7930 C   0  0  0  0  0  0  0  0  0  0  0  0
   59.2330   31.8220   46.3920 C   0  0  0  0  0  0  0  0  0  0  0  0
   58.5980   30.6260   46.0480 C   0  0  0  0  0  0  0  0  0  0  0  0
   57.5630   30.6220   45.1040 C   0  0  0  0  0  0  0  0  0  0  0  0
   56.7070   29.1210   44.7700 S   0  0  0  0  0  0  0  0  0  0  0  0
   57.2120   28.5340   43.4840 O   0  0  0  0  0  0  0  0  0  0  0  0
   55.2250   29.3520   44.6570 O   0  0  0  0  0  0  0  0  0  0  0  0
   57.0270   28.0300   46.0730 N   0  0  0  0  0  0  0  0  0  0  0  0
   56.7170   26.6420   45.9650 C   0  0  0  0  0  0  0  0  0  0  0  0
   55.5200   26.2500   46.0180 O   0  0  0  0  0  0  0  0  0  0  0  0
   57.8250   25.6410   45.9240 C   0  0  0  0  0  0  0  0  0  0  0  0
   57.3810   24.4560   45.1110 C   0  0  0  0  0  0  0  0  0  0  0  0
   56.9520   24.6270   43.7830 C   0  0  0  0  0  0  0  0  0  0  0  0
   56.6230   23.5160   43.0010 C   0  0  0  0  0  0  0  0  0  0  0  0
   56.7290   22.2280   43.5320 C   0  0  0  0  0  0  0  0  0  0  0  0
   57.1660   22.0480   44.8470 C   0  0  0  0  0  0  0  0  0  0  0  0
   57.4950   23.1560   45.6340 C   0  0  0  0  0  0  0  0  0  0  0  0
   57.1680   31.8250   44.5040 C   0  0  0  0  0  0  0  0  0  0  0  0
   57.8040   33.0220   44.8470 C   0  0  0  0  0  0  0  0  0  0  0  0
   61.4195   34.1833   47.7890 H   0  0  0  0  0  0  0  0  0  0  0  0
   61.6200   33.2301   46.2798 H   0  0  0  0  0  0  0  0  0  0  0  0
   61.9595   34.9940   46.2798 H   0  0  0  0  0  0  0  0  0  0  0  0
   60.0439   31.8183   47.1353 H   0  0  0  0  0  0  0  0  0  0  0  0
   58.9121   29.6836   46.5204 H   0  0  0  0  0  0  0  0  0  0  0  0
   58.7146   26.0936   45.4617 H   0  0  0  0  0  0  0  0  0  0  0  0
   58.0748   25.3194   46.9459 H   0  0  0  0  0  0  0  0  0  0  0  0
   56.8750   25.6386   43.3579 H   0  0  0  0  0  0  0  0  0  0  0  0
   56.2799   23.6561   41.9653 H   0  0  0  0  0  0  0  0  0  0  0  0
   56.4684   21.3556   42.9148 H   0  0  0  0  0  0  0  0  0  0  0  0
   57.2513   21.0335   45.2636 H   0  0  0  0  0  0  0  0  0  0  0  0
   57.8445   23.0099   46.6667 H   0  0  0  0  0  0  0  0  0  0  0  0
   56.3561   31.8277   43.7618 H   0  0  0  0  0  0  0  0  0  0  0  0
   57.4909   33.9641   44.3733 H   0  0  0  0  0  0  0  0  0  0  0  0
  1  2  1  0
  2  3  2  0
  2  4  2  0
  2  5  1  0
  5  6  2  0
  6  7  1  0
  7  8  2  0
  8  9  1  0
  9 10  2  0
  9 11  2  0
  9 12  1  0
 12 13  1  0
 13 14  2  0
 13 15  1  0
 15 16  1  0
 16 17  2  0
 17 18  1  0
 18 19  2  0
 19 20  1  0
 20 21  2  0
  8 22  1  0
 22 23  2  0
 23  5  1  0
 21 16  1  0
  1 24  1  0
  1 25  1  0
  1 26  1  0
  6 27  1  0
  7 28  1  0
 15 29  1  0
 15 30  1  0
 17 31  1  0
 18 32  1  0
 19 33  1  0
 20 34  1  0
 21 35  1  0
 22 36  1  0
 23 37  1  0
M  CHG  1  12  -1
M  END
>  <UniqueID>  (95) 
85

>  <SMILES>  (95) 
CS(=O)(=O)c1ccc(S(=O)(=O)[N-]C(=O)Cc2ccccc2)cc1

>  <Energy>  (95) 
32.37984374654232

>  <Genealogy>  (95) 
CS(=O)(=O)c1ccc(S(=O)(=O)[N-]C(=O)Cc2ccccc2)cc1 (protonated)
CS(=O)(=O)c1ccc(S(=O)(=O)[N-]C(=O)Cc2ccccc2)cc1 (3D coordinates assigned)
CS(=O)(=O)c1ccc(S(=O)(=O)[N-]C(=O)Cc2ccccc2)cc1 (optimized conformer: 32.37984374654232 kcal/mol)

>  <smiles>  (95) 
CS(=O)(=O)c1ccc(S(=O)(=O)NC(=O)Cc2ccccc2)cc1

>  <score_type>  (95) 
oracle

>  <origin>  (95) 
adg

>  <m_score__min__energy>  (95) 
-10.42

>  <m_primary>  (95) 
energy

$$$$
95:0
     RDKit          3D

 49 52  0  0  0  0  0  0  0  0999 V2000
   58.2220   27.2410   47.8350 C   0  0  0  0  0  0  0  0  0  0  0  0
   58.1560   27.5920   46.3320 C   0  0  0  0  0  0  0  0  0  0  0  0
   59.1650   26.7220   45.5490 C   0  0  0  0  0  0  0  0  0  0  0  0
   56.7600   27.2370   45.8360 C   0  0  0  0  0  0  0  0  0  0  0  0
   56.3440   26.0510   45.9370 O   0  0  0  0  0  0  0  0  0  0  0  0
   55.8970   28.2080   45.2540 N   0  0  0  0  0  0  0  0  0  0  0  0
   56.2840   29.5650   45.1030 C   0  0  0  0  0  0  0  0  0  0  0  0
   55.4760   30.3770   44.5790 O   0  0  0  0  0  0  0  0  0  0  0  0
   57.6140   30.0050   45.5550 C   0  0  0  0  0  0  0  0  0  0  0  0
   57.9870   31.3530   45.4130 C   0  0  0  0  0  0  0  0  0  0  0  0
   59.2420   31.7970   45.8290 C   0  0  0  0  0  0  0  0  0  0  0  0
   59.6140   33.5130   45.6980 Cl  0  0  0  0  0  0  0  0  0  0  0  0
   60.1550   30.8860   46.3860 C   0  0  0  0  0  0  0  0  0  0  0  0
   61.4570   31.3040   46.8230 N   0  0  0  0  0  0  0  0  0  0  0  0
   61.6800   32.3810   47.7520 C   0  0  0  0  0  0  0  0  0  0  0  0
   60.6930   32.7580   48.6820 C   0  0  0  0  0  0  0  0  0  0  0  0
   60.9280   33.7930   49.5940 C   0  0  0  0  0  0  0  0  0  0  0  0
   59.9000   34.1410   50.5310 N   0  0  0  0  0  0  0  0  0  0  0  0
   59.1500   33.2200   51.3350 C   0  0  0  0  0  0  0  0  0  0  0  0
   58.3000   33.6790   52.1440 O   0  0  0  0  0  0  0  0  0  0  0  0
   59.3100   31.7520   51.2050 C   0  0  0  0  0  0  0  0  0  0  0  0
   58.4970   31.0300   50.3140 C   0  0  0  0  0  0  0  0  0  0  0  0
   58.6450   29.6460   50.1840 C   0  0  0  0  0  0  0  0  0  0  0  0
   59.6120   28.9720   50.9330 C   0  0  0  0  0  0  0  0  0  0  0  0
   60.4370   29.6810   51.8090 C   0  0  0  0  0  0  0  0  0  0  0  0
   60.2920   31.0650   51.9430 C   0  0  0  0  0  0  0  0  0  0  0  0
   62.1450   34.4940   49.5430 C   0  0  0  0  0  0  0  0  0  0  0  0
   63.1200   34.1400   48.6100 C   0  0  0  0  0  0  0  0  0  0  0  0
   62.8930   33.0900   47.7170 C   0  0  0  0  0  0  0  0  0  0  0  0
   63.8590   32.7550   46.8250 F   0  0  0  0  0  0  0  0  0  0  0  0
   59.7780   29.5510   46.5570 C   0  0  0  0  0  0  0  0  0  0  0  0
   58.5120   29.0790   46.1400 C   0  0  0  0  0  0  0  0  0  0  0  0
   58.0512   28.1493   48.4315 H   0  0  0  0  0  0  0  0  0  0  0  0
   57.4482   26.4959   48.0719 H   0  0  0  0  0  0  0  0  0  0  0  0
   59.2136   26.8279   48.0719 H   0  0  0  0  0  0  0  0  0  0  0  0
   59.8024   26.1724   46.2573 H   0  0  0  0  0  0  0  0  0  0  0  0
   58.6189   26.0069   44.9162 H   0  0  0  0  0  0  0  0  0  0  0  0
   59.7919   27.3674   44.9162 H   0  0  0  0  0  0  0  0  0  0  0  0
   57.2792   32.0675   44.9676 H   0  0  0  0  0  0  0  0  0  0  0  0
   62.2850   30.8740   46.3510 H   0  0  0  0  0  0  0  0  0  0  0  0
   59.7263   32.2333   48.6920 H   0  0  0  0  0  0  0  0  0  0  0  0
   57.7397   31.5573   49.7154 H   0  0  0  0  0  0  0  0  0  0  0  0
   57.9990   29.0872   49.4909 H   0  0  0  0  0  0  0  0  0  0  0  0
   59.7239   27.8823   50.8330 H   0  0  0  0  0  0  0  0  0  0  0  0
   61.2019   29.1497   52.3943 H   0  0  0  0  0  0  0  0  0  0  0  0
   60.9489   31.6200   52.6289 H   0  0  0  0  0  0  0  0  0  0  0  0
   62.3293   35.3242   50.2407 H   0  0  0  0  0  0  0  0  0  0  0  0
   64.0719   34.6903   48.5774 H   0  0  0  0  0  0  0  0  0  0  0  0
   60.4835   28.8503   47.0275 H   0  0  0  0  0  0  0  0  0  0  0  0
  1  2  1  0
  2  3  1  0
  2  4  1  0
  4  5  2  0
  4  6  1  0
  6  7  1  0
  7  8  2  0
  7  9  1  0
  9 10  2  0
 10 11  1  0
 11 12  1  0
 11 13  2  0
 13 14  1  0
 14 15  1  0
 15 16  2  0
 16 17  1  0
 17 18  1  0
 18 19  1  0
 19 20  2  0
 19 21  1  0
 21 22  2  0
 22 23  1  0
 23 24  2  0
 24 25  1  0
 25 26  2  0
 17 27  2  0
 27 28  1  0
 28 29  2  0
 29 30  1  0
 13 31  1  0
 31 32  2  0
 32  2  1  0
 32  9  1  0
 29 15  1  0
 26 21  1  0
  1 33  1  0
  1 34  1  0
  1 35  1  0
  3 36  1  0
  3 37  1  0
  3 38  1  0
 10 39  1  0
 14 40  1  0
 16 41  1  0
 22 42  1  0
 23 43  1  0
 24 44  1  0
 25 45  1  0
 26 46  1  0
 27 47  1  0
 28 48  1  0
 31 49  1  0
M  CHG  2   6  -1  18  -1
M  END
>  <UniqueID>  (96) 
86

>  <SMILES>  (96) 
CC1(C)C(=O)[N-]C(=O)c2cc(Cl)c(Nc3cc([N-]C(=O)c4ccccc4)ccc3F)cc21

>  <Energy>  (96) 
70.27112358693658

>  <Genealogy>  (96) 
CC1(C)C(=O)[N-]C(=O)c2cc(Cl)c(Nc3cc([N-]C(=O)c4ccccc4)ccc3F)cc21 (protonated)
CC1(C)C(=O)[N-]C(=O)c2cc(Cl)c(Nc3cc([N-]C(=O)c4ccccc4)ccc3F)cc21 (3D coordinates assigned)
CC1(C)C(=O)[N-]C(=O)c2cc(Cl)c(Nc3cc([N-]C(=O)c4ccccc4)ccc3F)cc21 (nonaromatic ring conformer: 70.27112358693658 kcal/mol)

>  <smiles>  (96) 
CC1(C)C(=O)NC(=O)c2cc(Cl)c(Nc3cc(NC(=O)c4ccccc4)ccc3F)cc21

>  <score_type>  (96) 
oracle

>  <origin>  (96) 
adg

>  <m_score__min__energy>  (96) 
-13.56

>  <m_primary>  (96) 
energy

$$$$
96:0
     RDKit          3D

 43 45  0  0  0  0  0  0  0  0999 V2000
   62.3359   31.2435   50.8096 H   0  0  0  0  0  0  0  0  0  0  0  0
   62.5180   31.7840   49.8690 C   0  0  0  0  0  0  0  0  0  0  0  0
   61.4460   32.0900   49.0220 C   0  0  0  0  0  0  0  0  0  0  0  0
   59.7720   31.6650   49.5060 S   0  0  0  0  0  0  0  0  0  0  0  0
   59.2150   31.6550   47.8030 C   0  0  0  0  0  0  0  0  0  0  0  0
   59.0410   30.4710   47.1670 N   0  0  0  0  0  0  0  0  0  0  0  0
   58.5760   30.4080   45.8930 C   0  0  0  0  0  0  0  0  0  0  0  0
   58.3840   29.1440   45.2290 N   0  0  0  0  0  0  0  0  0  0  0  0
   57.5440   28.1840   45.5120 C   0  0  0  0  0  0  0  0  0  0  0  0
   57.8030   26.9780   46.1490 C   0  0  0  0  0  0  0  0  0  0  0  0
   58.7658   26.5976   46.5209 H   0  0  0  0  0  0  0  0  0  0  0  0
   56.5620   26.3680   46.2050 C   0  0  0  0  0  0  0  0  0  0  0  0
   56.2800   25.0300   46.8010 C   0  0  0  0  0  0  0  0  0  0  0  0
   56.2961   25.1066   47.8982 H   0  0  0  0  0  0  0  0  0  0  0  0
   55.2891   24.6836   46.4721 H   0  0  0  0  0  0  0  0  0  0  0  0
   57.0468   24.3131   46.4721 H   0  0  0  0  0  0  0  0  0  0  0  0
   55.6260   27.1470   45.6260 N   0  0  0  0  0  0  0  0  0  0  0  0
   56.2330   28.2450   45.2040 N   0  0  0  0  0  0  0  0  0  0  0  0
   55.5420   29.3600   44.5660 C   0  0  0  0  0  0  0  0  0  0  0  0
   55.1294   30.0258   45.3383 H   0  0  0  0  0  0  0  0  0  0  0  0
   56.2512   29.9206   43.9393 H   0  0  0  0  0  0  0  0  0  0  0  0
   54.7243   28.9744   43.9393 H   0  0  0  0  0  0  0  0  0  0  0  0
   58.2780   31.6010   45.2140 C   0  0  0  0  0  0  0  0  0  0  0  0
   57.7810   31.5690   43.8600 C   0  0  0  0  0  0  0  0  0  0  0  0
   57.3850   31.5440   42.7730 N   0  0  0  0  0  0  0  0  0  0  0  0
   58.4660   32.8220   45.8840 C   0  0  0  0  0  0  0  0  0  0  0  0
   58.1140   34.3610   45.1000 Cl  0  0  0  0  0  0  0  0  0  0  0  0
   58.9240   32.8220   47.1640 N   0  0  0  0  0  0  0  0  0  0  0  0
   59.0540   33.7300   47.6650 H   0  0  0  0  0  0  0  0  0  0  0  0
   61.6760   32.7660   47.8190 C   0  0  0  0  0  0  0  0  0  0  0  0
   60.8328   33.0031   47.1536 H   0  0  0  0  0  0  0  0  0  0  0  0
   62.9800   33.1430   47.4580 C   0  0  0  0  0  0  0  0  0  0  0  0
   63.2200   33.9050   46.1870 C   0  0  0  0  0  0  0  0  0  0  0  0
   63.5424   34.9286   46.4285 H   0  0  0  0  0  0  0  0  0  0  0  0
   64.0034   33.4026   45.6006 H   0  0  0  0  0  0  0  0  0  0  0  0
   62.2901   33.9422   45.6006 H   0  0  0  0  0  0  0  0  0  0  0  0
   64.0470   32.8630   48.3260 C   0  0  0  0  0  0  0  0  0  0  0  0
   65.0638   33.1932   48.0669 H   0  0  0  0  0  0  0  0  0  0  0  0
   63.8240   32.1640   49.5230 C   0  0  0  0  0  0  0  0  0  0  0  0
   64.9580   31.9030   50.4720 C   0  0  0  0  0  0  0  0  0  0  0  0
   64.5962   31.9863   51.5074 H   0  0  0  0  0  0  0  0  0  0  0  0
   65.3528   30.8905   50.3019 H   0  0  0  0  0  0  0  0  0  0  0  0
   65.7557   32.6410   50.3019 H   0  0  0  0  0  0  0  0  0  0  0  0
  1  2  1  0
  2  3  2  0
  3  4  1  0
  4  5  1  0
  5  6  2  0
  6  7  1  0
  7  8  1  0
  8  9  2  0
  9 10  1  0
 10 11  1  0
 10 12  2  0
 12 13  1  0
 13 14  1  0
 13 15  1  0
 13 16  1  0
 12 17  1  0
 17 18  1  0
 18 19  1  0
 19 20  1  0
 19 21  1  0
 19 22  1  0
  7 23  2  0
 23 24  1  0
 24 25  3  0
 23 26  1  0
 26 27  1  0
 26 28  2  0
 28 29  1  0
  3 30  1  0
 30 31  1  0
 30 32  2  0
 32 33  1  0
 33 34  1  0
 33 35  1  0
 33 36  1  0
 32 37  1  0
 37 38  1  0
 37 39  2  0
 39 40  1  0
 40 41  1  0
 40 42  1  0
 40 43  1  0
 39  2  1  0
 28  5  1  0
 18  9  1  0
M  CHG  2  17  -1  28   1
M  END
>  <UniqueID>  (97) 
87

>  <SMILES>  (97) 
Cc1cc(C)cc(Sc2nc(/N=c3\cc(C)[n-]n3C)c(C#N)c(Cl)[nH+]2)c1

>  <Energy>  (97) 
72.47483294838273

>  <Genealogy>  (97) 
Cc1cc(C)cc(Sc2nc(N=c3cc(C)[n-]n3C)c(C#N)c(Cl)[nH+]2)c1 (protonated)
Cc1cc(C)cc(Sc2nc(/N=c3\cc(C)[n-]n3C)c(C#N)c(Cl)[nH+]2)c1 (cis-trans isomerization)
Cc1cc(C)cc(Sc2nc(/N=c3\cc(C)[n-]n3C)c(C#N)c(Cl)[nH+]2)c1 (3D coordinates assigned)
Cc1cc(C)cc(Sc2nc(/N=c3\cc(C)[n-]n3C)c(C#N)c(Cl)[nH+]2)c1 (optimized conformer: 72.47483294838273 kcal/mol)

>  <smiles>  (97) 
Cc1cc(C)cc(Sc2nc(Cl)c(C#N)c(N=c3cc(C)[nH]n3C)n2)c1

>  <score_type>  (97) 
oracle

>  <origin>  (97) 
adg

>  <m_score__min__energy>  (97) 
-8.7699999999999996

>  <m_primary>  (97) 
energy

$$$$
