0:0
     RDKit          3D

 39 41  0  0  0  0  0  0  0  0999 V2000
   59.8650   25.2100   46.7440 O   0  0  0  0  0  0  0  0  0  0  0  0
   59.7860   26.4680   46.7870 C   0  0  0  0  0  0  0  0  0  0  0  0
   60.9200   27.2430   47.4110 C   0  0  0  0  0  0  0  0  0  0  0  0
   60.4180   28.4850   48.0280 N   0  0  0  0  0  0  0  0  0  0  0  0
   59.6220   28.3930   49.1360 C   0  0  0  0  0  0  0  0  0  0  0  0
   59.0520   29.5330   49.6990 C   0  0  0  0  0  0  0  0  0  0  0  0
   59.3040   30.7700   49.1040 C   0  0  0  0  0  0  0  0  0  0  0  0
   58.6670   32.0040   49.6090 C   0  0  0  0  0  0  0  0  0  0  0  0
   57.9110   31.9500   50.6150 O   0  0  0  0  0  0  0  0  0  0  0  0
   58.9300   33.2790   49.0070 N   0  0  0  0  0  0  0  0  0  0  0  0
   58.7640   33.5990   47.6170 C   0  0  0  0  0  0  0  0  0  0  0  0
   57.7720   32.9820   46.8310 C   0  0  0  0  0  0  0  0  0  0  0  0
   57.6290   33.3230   45.4820 C   0  0  0  0  0  0  0  0  0  0  0  0
   58.4620   34.2900   44.9130 C   0  0  0  0  0  0  0  0  0  0  0  0
   59.4310   34.9250   45.6950 C   0  0  0  0  0  0  0  0  0  0  0  0
   59.5750   34.5870   47.0450 C   0  0  0  0  0  0  0  0  0  0  0  0
   60.1380   30.8340   48.0360 N   0  0  0  0  0  0  0  0  0  0  0  0
   60.7030   29.7200   47.5030 C   0  0  0  0  0  0  0  0  0  0  0  0
   61.4830   29.8450   46.5210 O   0  0  0  0  0  0  0  0  0  0  0  0
   58.5630   27.1380   46.2810 C   0  0  0  0  0  0  0  0  0  0  0  0
   58.6610   28.3940   45.6550 C   0  0  0  0  0  0  0  0  0  0  0  0
   57.5230   29.0180   45.1370 C   0  0  0  0  0  0  0  0  0  0  0  0
   56.2730   28.4010   45.2440 C   0  0  0  0  0  0  0  0  0  0  0  0
   55.1470   29.0250   44.7190 O   0  0  0  0  0  0  0  0  0  0  0  0
   56.1600   27.1610   45.8800 C   0  0  0  0  0  0  0  0  0  0  0  0
   54.9180   26.5470   45.9980 O   0  0  0  0  0  0  0  0  0  0  0  0
   57.2970   26.5350   46.4010 C   0  0  0  0  0  0  0  0  0  0  0  0
   61.4003   26.6237   48.1829 H   0  0  0  0  0  0  0  0  0  0  0  0
   61.6469   27.5032   46.6275 H   0  0  0  0  0  0  0  0  0  0  0  0
   59.4296   27.4086   49.5876 H   0  0  0  0  0  0  0  0  0  0  0  0
   58.4166   29.4595   50.5939 H   0  0  0  0  0  0  0  0  0  0  0  0
   57.1071   32.2291   47.2794 H   0  0  0  0  0  0  0  0  0  0  0  0
   56.8605   32.8297   44.8688 H   0  0  0  0  0  0  0  0  0  0  0  0
   58.3552   34.5514   43.8499 H   0  0  0  0  0  0  0  0  0  0  0  0
   60.0813   35.6916   45.2484 H   0  0  0  0  0  0  0  0  0  0  0  0
   60.3290   35.0999   47.6601 H   0  0  0  0  0  0  0  0  0  0  0  0
   59.6402   28.8883   45.5727 H   0  0  0  0  0  0  0  0  0  0  0  0
   57.6109   29.9973   44.6437 H   0  0  0  0  0  0  0  0  0  0  0  0
   57.2010   25.5638   46.9085 H   0  0  0  0  0  0  0  0  0  0  0  0
  1  2  2  0
  2  3  1  0
  3  4  1  0
  4  5  1  0
  5  6  2  0
  6  7  1  0
  7  8  1  0
  8  9  2  0
  8 10  1  0
 10 11  1  0
 11 12  2  0
 12 13  1  0
 13 14  2  0
 14 15  1  0
 15 16  2  0
  7 17  2  0
 17 18  1  0
 18 19  2  0
  2 20  1  0
 20 21  2  0
 21 22  1  0
 22 23  2  0
 23 24  1  0
 23 25  1  0
 25 26  1  0
 25 27  2  0
 18  4  1  0
 27 20  1  0
 16 11  1  0
  3 28  1  0
  3 29  1  0
  5 30  1  0
  6 31  1  0
 12 32  1  0
 13 33  1  0
 14 34  1  0
 15 35  1  0
 16 36  1  0
 21 37  1  0
 22 38  1  0
 27 39  1  0
M  CHG  3  10  -1  24  -1  26  -1
M  END
>  <UniqueID>  (1) 
1

>  <SMILES>  (1) 
O=C(Cn1ccc(C(=O)[N-]c2ccccc2)nc1=O)c1ccc([O-])c([O-])c1

>  <Energy>  (1) 
51.40223844728311

>  <Genealogy>  (1) 
O=C(Cn1ccc(C(=O)[N-]c2ccccc2)nc1=O)c1ccc([O-])c([O-])c1 (protonated)
O=C(Cn1ccc(C(=O)[N-]c2ccccc2)nc1=O)c1ccc([O-])c([O-])c1 (3D coordinates assigned)
O=C(Cn1ccc(C(=O)[N-]c2ccccc2)nc1=O)c1ccc([O-])c([O-])c1 (optimized conformer: 51.40223844728311 kcal/mol)

>  <smiles>  (1) 
O=C(Cn1ccc(C(=O)Nc2ccccc2)nc1=O)c1ccc(O)c(O)c1

>  <score_type>  (1) 
oracle

>  <origin>  (1) 
adg

>  <m_score__min__energy>  (1) 
-17.789999999999999

>  <m_primary>  (1) 
energy

$$$$
1:0
     RDKit          3D

 50 52  0  0  0  0  0  0  0  0999 V2000
   63.7440   32.2130   47.4340 N   0  0  0  0  0  0  0  0  0  0  0  0
   62.8790   33.2300   46.9290 C   0  0  0  0  0  0  0  0  0  0  0  0
   63.3830   34.2230   46.3430 O   0  0  0  0  0  0  0  0  0  0  0  0
   61.4100   33.1530   47.1120 C   0  0  0  0  0  0  0  0  0  0  0  0
   60.7100   34.2460   47.6510 C   0  0  0  0  0  0  0  0  0  0  0  0
   59.3310   34.1700   47.8600 C   0  0  0  0  0  0  0  0  0  0  0  0
   58.6330   33.0110   47.5190 C   0  0  0  0  0  0  0  0  0  0  0  0
   59.3070   31.9280   46.9340 C   0  0  0  0  0  0  0  0  0  0  0  0
   58.5770   30.7490   46.5580 N   0  0  0  0  0  0  0  0  0  0  0  0
   58.0030   30.5590   45.2570 C   0  0  0  0  0  0  0  0  0  0  0  0
   58.1270   31.5610   44.2770 C   0  0  0  0  0  0  0  0  0  0  0  0
   57.4330   31.4630   43.0690 C   0  0  0  0  0  0  0  0  0  0  0  0
   56.6010   30.3660   42.8250 C   0  0  0  0  0  0  0  0  0  0  0  0
   56.4800   29.3580   43.7850 C   0  0  0  0  0  0  0  0  0  0  0  0
   57.1900   29.4370   44.9960 C   0  0  0  0  0  0  0  0  0  0  0  0
   57.0510   28.3740   45.9480 N   0  0  0  0  0  0  0  0  0  0  0  0
   56.5730   27.0660   45.6290 C   0  0  0  0  0  0  0  0  0  0  0  0
   55.4170   26.7030   45.9900 O   0  0  0  0  0  0  0  0  0  0  0  0
   57.4930   26.0810   44.9800 C   0  0  0  0  0  0  0  0  0  0  0  0
   57.4920   24.7500   45.7390 C   0  0  0  0  0  0  0  0  0  0  0  0
   56.9860   23.6490   44.8870 N   0  0  0  0  0  0  0  0  0  0  0  0
   56.5680   24.1550   43.5680 C   0  0  0  0  0  0  0  0  0  0  0  0
   56.0630   22.9980   42.6780 C   0  0  0  0  0  0  0  0  0  0  0  0
   56.1840   21.7450   43.3240 O   0  0  0  0  0  0  0  0  0  0  0  0
   57.5330   21.5360   43.6880 C   0  0  0  0  0  0  0  0  0  0  0  0
   57.9930   22.5760   44.7320 C   0  0  0  0  0  0  0  0  0  0  0  0
   60.6940   31.9990   46.7410 C   0  0  0  0  0  0  0  0  0  0  0  0
   64.7740   32.2870   47.2800 H   0  0  0  0  0  0  0  0  0  0  0  0
   63.3850   31.4430   48.0350 H   0  0  0  0  0  0  0  0  0  0  0  0
   61.2518   35.1676   47.9101 H   0  0  0  0  0  0  0  0  0  0  0  0
   58.7940   35.0260   48.2945 H   0  0  0  0  0  0  0  0  0  0  0  0
   57.5515   32.9460   47.7092 H   0  0  0  0  0  0  0  0  0  0  0  0
   58.3240   30.0620   47.3100 H   0  0  0  0  0  0  0  0  0  0  0  0
   58.7762   32.4291   44.4639 H   0  0  0  0  0  0  0  0  0  0  0  0
   57.5411   32.2501   42.3082 H   0  0  0  0  0  0  0  0  0  0  0  0
   56.0431   30.2967   41.8795 H   0  0  0  0  0  0  0  0  0  0  0  0
   55.8243   28.4961   43.5919 H   0  0  0  0  0  0  0  0  0  0  0  0
   57.1618   25.9061   43.9457 H   0  0  0  0  0  0  0  0  0  0  0  0
   58.5133   26.4919   44.9923 H   0  0  0  0  0  0  0  0  0  0  0  0
   58.5193   24.5162   46.0551 H   0  0  0  0  0  0  0  0  0  0  0  0
   56.8306   24.8472   46.6125 H   0  0  0  0  0  0  0  0  0  0  0  0
   55.7589   24.8882   43.7017 H   0  0  0  0  0  0  0  0  0  0  0  0
   57.4324   24.6279   43.0789 H   0  0  0  0  0  0  0  0  0  0  0  0
   55.0045   23.1721   42.4348 H   0  0  0  0  0  0  0  0  0  0  0  0
   56.6798   22.9735   41.7675 H   0  0  0  0  0  0  0  0  0  0  0  0
   57.6382   20.5276   44.1146 H   0  0  0  0  0  0  0  0  0  0  0  0
   58.1584   21.6420   42.7893 H   0  0  0  0  0  0  0  0  0  0  0  0
   58.1372   22.0747   45.7005 H   0  0  0  0  0  0  0  0  0  0  0  0
   58.9361   23.0259   44.3882 H   0  0  0  0  0  0  0  0  0  0  0  0
   61.2271   31.1459   46.2960 H   0  0  0  0  0  0  0  0  0  0  0  0
  1  2  1  0
  2  3  2  0
  2  4  1  0
  4  5  2  0
  5  6  1  0
  6  7  2  0
  7  8  1  0
  8  9  1  0
  9 10  1  0
 10 11  2  0
 11 12  1  0
 12 13  2  0
 13 14  1  0
 14 15  2  0
 15 16  1  0
 16 17  1  0
 17 18  2  0
 17 19  1  0
 19 20  1  0
 20 21  1  0
 21 22  1  0
 22 23  1  0
 23 24  1  0
 24 25  1  0
 25 26  1  0
  8 27  2  0
 27  4  1  0
 15 10  1  0
 26 21  1  0
  1 28  1  0
  1 29  1  0
  5 30  1  0
  6 31  1  0
  7 32  1  0
  9 33  1  0
 11 34  1  0
 12 35  1  0
 13 36  1  0
 14 37  1  0
 19 38  1  0
 19 39  1  0
 20 40  1  0
 20 41  1  0
 22 42  1  0
 22 43  1  0
 23 44  1  0
 23 45  1  0
 25 46  1  0
 25 47  1  0
 26 48  1  0
 26 49  1  0
 27 50  1  0
M  CHG  1  16  -1
M  END
>  <UniqueID>  (2) 
2

>  <SMILES>  (2) 
NC(=O)c1cccc(Nc2ccccc2[N-]C(=O)CCN2CCOCC2)c1

>  <Energy>  (2) 
70.58749732707444

>  <Genealogy>  (2) 
NC(=O)c1cccc(Nc2ccccc2[N-]C(=O)CCN2CCOCC2)c1 (protonated)
NC(=O)c1cccc(Nc2ccccc2[N-]C(=O)CCN2CCOCC2)c1 (3D coordinates assigned)
NC(=O)c1cccc(Nc2ccccc2[N-]C(=O)CCN2CCOCC2)c1 (nonaromatic ring conformer: 70.58749732707444 kcal/mol)

>  <smiles>  (2) 
NC(=O)c1cccc(Nc2ccccc2NC(=O)CCN2CCOCC2)c1

>  <score_type>  (2) 
oracle

>  <origin>  (2) 
adg

>  <m_score__min__energy>  (2) 
-10.890000000000001

>  <m_primary>  (2) 
energy

$$$$
2:0
     RDKit          3D

 50 54  0  0  0  0  0  0  0  0999 V2000
   58.9257   33.2014   49.1900 H   0  0  0  0  0  0  0  0  0  0  0  0
   58.9010   33.4380   48.1160 C   0  0  0  0  0  0  0  0  0  0  0  0
   58.4370   32.5100   47.2280 N   0  0  0  0  0  0  0  0  0  0  0  0
   58.4150   32.8270   45.9090 C   0  0  0  0  0  0  0  0  0  0  0  0
   57.9950   32.0650   44.8440 C   0  0  0  0  0  0  0  0  0  0  0  0
   57.4490   30.7010   44.8470 C   0  0  0  0  0  0  0  0  0  0  0  0
   56.2040   30.5290   44.7700 O   0  0  0  0  0  0  0  0  0  0  0  0
   58.3560   29.5910   44.9300 N   0  0  0  0  0  0  0  0  0  0  0  0
   58.2100   28.4560   45.5580 C   0  0  0  0  0  0  0  0  0  0  0  0
   57.5790   27.3120   45.0950 C   0  0  0  0  0  0  0  0  0  0  0  0
   57.1351   27.1372   44.1038 H   0  0  0  0  0  0  0  0  0  0  0  0
   57.6370   26.4370   46.1730 C   0  0  0  0  0  0  0  0  0  0  0  0
   57.0900   25.0590   46.2380 C   0  0  0  0  0  0  0  0  0  0  0  0
   56.5160   24.5930   47.4340 C   0  0  0  0  0  0  0  0  0  0  0  0
   56.4831   25.2498   48.3158 H   0  0  0  0  0  0  0  0  0  0  0  0
   55.9870   23.3020   47.5110 C   0  0  0  0  0  0  0  0  0  0  0  0
   55.5387   22.9490   48.4515 H   0  0  0  0  0  0  0  0  0  0  0  0
   56.0250   22.4580   46.3990 C   0  0  0  0  0  0  0  0  0  0  0  0
   55.4960   21.2120   46.4940 F   0  0  0  0  0  0  0  0  0  0  0  0
   56.6010   22.9020   45.2000 C   0  0  0  0  0  0  0  0  0  0  0  0
   56.6340   21.8440   43.7890 S   0  0  0  0  0  0  0  0  0  0  0  0
   55.9600   22.5260   42.6320 O   0  0  0  0  0  0  0  0  0  0  0  0
   55.9070   20.5620   44.0840 O   0  0  0  0  0  0  0  0  0  0  0  0
   58.3220   21.4710   43.3680 C   0  0  0  0  0  0  0  0  0  0  0  0
   58.9095   21.3412   44.2889 H   0  0  0  0  0  0  0  0  0  0  0  0
   58.3563   20.5436   42.7774 H   0  0  0  0  0  0  0  0  0  0  0  0
   58.7438   22.2976   42.7774 H   0  0  0  0  0  0  0  0  0  0  0  0
   57.1260   24.2010   45.1220 C   0  0  0  0  0  0  0  0  0  0  0  0
   57.5703   24.5527   44.1792 H   0  0  0  0  0  0  0  0  0  0  0  0
   58.2680   27.0360   47.2060 N   0  0  0  0  0  0  0  0  0  0  0  0
   58.6220   28.2540   46.8280 N   0  0  0  0  0  0  0  0  0  0  0  0
   59.2990   29.1810   47.6990 C   0  0  0  0  0  0  0  0  0  0  0  0
   58.8730   29.3270   49.0300 C   0  0  0  0  0  0  0  0  0  0  0  0
   58.0218   28.7359   49.3988 H   0  0  0  0  0  0  0  0  0  0  0  0
   59.5230   30.2180   49.8890 C   0  0  0  0  0  0  0  0  0  0  0  0
   59.1772   30.3311   50.9271 H   0  0  0  0  0  0  0  0  0  0  0  0
   60.6110   30.9650   49.4310 C   0  0  0  0  0  0  0  0  0  0  0  0
   61.1168   31.6710   50.1061 H   0  0  0  0  0  0  0  0  0  0  0  0
   61.0570   30.8150   48.1140 C   0  0  0  0  0  0  0  0  0  0  0  0
   62.5550   31.8230   47.4930 Br  0  0  0  0  0  0  0  0  0  0  0  0
   60.4110   29.9220   47.2540 C   0  0  0  0  0  0  0  0  0  0  0  0
   60.7736   29.7973   46.2230 H   0  0  0  0  0  0  0  0  0  0  0  0
   58.2010   32.8970   43.7440 C   0  0  0  0  0  0  0  0  0  0  0  0
   57.9781   32.6298   42.7005 H   0  0  0  0  0  0  0  0  0  0  0  0
   58.7170   34.0850   44.1500 N   0  0  0  0  0  0  0  0  0  0  0  0
   58.8390   34.0160   45.4640 N   0  0  0  0  0  0  0  0  0  0  0  0
   59.3100   34.9780   46.2940 C   0  0  0  0  0  0  0  0  0  0  0  0
   59.6509   35.9479   45.9028 H   0  0  0  0  0  0  0  0  0  0  0  0
   59.3490   34.6980   47.6660 C   0  0  0  0  0  0  0  0  0  0  0  0
   59.7222   35.4471   48.3798 H   0  0  0  0  0  0  0  0  0  0  0  0
  1  2  1  0
  2  3  2  0
  3  4  1  0
  4  5  2  0
  5  6  1  0
  6  7  2  0
  6  8  1  0
  8  9  2  0
  9 10  1  0
 10 11  1  0
 10 12  2  0
 12 13  1  0
 13 14  2  0
 14 15  1  0
 14 16  1  0
 16 17  1  0
 16 18  2  0
 18 19  1  0
 18 20  1  0
 20 21  1  0
 21 22  2  0
 21 23  2  0
 21 24  1  0
 24 25  1  0
 24 26  1  0
 24 27  1  0
 20 28  2  0
 28 29  1  0
 12 30  1  0
 30 31  1  0
 31 32  1  0
 32 33  2  0
 33 34  1  0
 33 35  1  0
 35 36  1  0
 35 37  2  0
 37 38  1  0
 37 39  1  0
 39 40  1  0
 39 41  2  0
 41 42  1  0
  5 43  1  0
 43 44  1  0
 43 45  2  0
 45 46  1  0
 46 47  1  0
 47 48  1  0
 47 49  2  0
 49 50  1  0
 49  2  1  0
 46  4  1  0
 31  9  1  0
 41 32  1  0
 28 13  1  0
M  CHG  1  30  -1
M  END
>  <UniqueID>  (3) 
3

>  <SMILES>  (3) 
CS(=O)(=O)c1cc(-c2c/c(=N\C(=O)c3cnn4cccnc34)n(-c3cccc(Br)c3)[n-]2)ccc1F

>  <Energy>  (3) 
132.54466079174836

>  <Genealogy>  (3) 
CS(=O)(=O)c1cc(-c2cc(=NC(=O)c3cnn4cccnc34)n(-c3cccc(Br)c3)[n-]2)ccc1F (protonated)
CS(=O)(=O)c1cc(-c2c/c(=N\C(=O)c3cnn4cccnc34)n(-c3cccc(Br)c3)[n-]2)ccc1F (cis-trans isomerization)
CS(=O)(=O)c1cc(-c2c/c(=N\C(=O)c3cnn4cccnc34)n(-c3cccc(Br)c3)[n-]2)ccc1F (3D coordinates assigned)
CS(=O)(=O)c1cc(-c2c/c(=N\C(=O)c3cnn4cccnc34)n(-c3cccc(Br)c3)[n-]2)ccc1F (optimized conformer: 132.54466079174836 kcal/mol)

>  <smiles>  (3) 
CS(=O)(=O)c1cc(-c2cc(=NC(=O)c3cnn4cccnc34)n(-c3cccc(Br)c3)[nH]2)ccc1F

>  <score_type>  (3) 
oracle

>  <origin>  (3) 
adg

>  <m_score__min__energy>  (3) 
-11.74

>  <m_primary>  (3) 
energy

$$$$
3:0
     RDKit          3D

 55 58  0  0  0  0  0  0  0  0999 V2000
   55.5290   26.3040   45.9740 C   0  0  0  0  0  0  0  0  0  0  0  0
   56.8030   26.7160   46.0670 C   0  0  0  0  0  0  0  0  0  0  0  0
   57.2680   27.9940   45.7410 C   0  0  0  0  0  0  0  0  0  0  0  0
   56.4940   29.1560   45.2450 C   0  0  0  0  0  0  0  0  0  0  0  0
   57.0270   30.2910   45.1460 O   0  0  0  0  0  0  0  0  0  0  0  0
   55.1700   28.9990   44.8560 O   0  0  0  0  0  0  0  0  0  0  0  0
   58.6440   27.9600   45.9250 C   0  0  0  0  0  0  0  0  0  0  0  0
   59.5860   29.0790   45.7140 C   0  0  0  0  0  0  0  0  0  0  0  0
   60.0610   29.2610   44.5600 O   0  0  0  0  0  0  0  0  0  0  0  0
   59.9760   29.9410   46.8010 N   0  0  0  0  0  0  0  0  0  0  0  0
   60.4920   31.2920   46.5360 C   0  0  0  0  0  0  0  0  0  0  0  0
   61.8720   31.4610   47.1790 C   0  0  0  0  0  0  0  0  0  0  0  0
   61.9240   30.9600   48.6600 C   0  0  0  0  0  0  0  0  0  0  0  0
   62.4740   31.9580   49.6120 N   0  0  0  0  0  0  0  0  0  0  0  0
   63.8780   32.3040   49.3470 C   0  0  0  0  0  0  0  0  0  0  0  0
   64.0520   33.7650   49.7090 C   0  0  0  0  0  0  0  0  0  0  0  0
   62.6820   34.3670   49.4970 C   0  0  0  0  0  0  0  0  0  0  0  0
   61.7140   33.2170   49.7230 C   0  0  0  0  0  0  0  0  0  0  0  0
   60.5640   30.4360   49.1700 C   0  0  0  0  0  0  0  0  0  0  0  0
   59.9570   29.4310   48.1830 C   0  0  0  0  0  0  0  0  0  0  0  0
   58.9660   26.6780   46.3550 C   0  0  0  0  0  0  0  0  0  0  0  0
   60.2070   26.2670   46.6560 C   0  0  0  0  0  0  0  0  0  0  0  0
   57.8390   25.9210   46.4510 N   0  0  0  0  0  0  0  0  0  0  0  0
   57.7520   24.4960   46.8220 C   0  0  0  0  0  0  0  0  0  0  0  0
   57.6040   23.6440   45.5980 C   0  0  0  0  0  0  0  0  0  0  0  0
   56.4720   23.5540   44.8760 N   0  0  0  0  0  0  0  0  0  0  0  0
   56.8130   22.7310   43.8610 C   0  0  0  0  0  0  0  0  0  0  0  0
   56.0030   22.3950   42.9590 O   0  0  0  0  0  0  0  0  0  0  0  0
   58.0910   22.2970   43.8880 N   0  0  0  0  0  0  0  0  0  0  0  0
   58.5800   22.8880   44.9920 C   0  0  0  0  0  0  0  0  0  0  0  0
   59.8880   22.7370   45.4370 O   0  0  0  0  0  0  0  0  0  0  0  0
   55.2619   25.2747   46.2555 H   0  0  0  0  0  0  0  0  0  0  0  0
   54.7520   26.9956   45.6163 H   0  0  0  0  0  0  0  0  0  0  0  0
   60.5752   31.4436   45.4497 H   0  0  0  0  0  0  0  0  0  0  0  0
   59.8009   32.0330   46.9641 H   0  0  0  0  0  0  0  0  0  0  0  0
   62.6049   30.8899   46.5902 H   0  0  0  0  0  0  0  0  0  0  0  0
   62.1001   32.5370   47.1884 H   0  0  0  0  0  0  0  0  0  0  0  0
   62.6275   30.1149   48.6281 H   0  0  0  0  0  0  0  0  0  0  0  0
   64.5430   31.6807   49.9628 H   0  0  0  0  0  0  0  0  0  0  0  0
   64.1321   32.1290   48.2912 H   0  0  0  0  0  0  0  0  0  0  0  0
   64.3668   33.8720   50.7575 H   0  0  0  0  0  0  0  0  0  0  0  0
   64.8267   34.2589   49.1041 H   0  0  0  0  0  0  0  0  0  0  0  0
   62.4981   35.1760   50.2193 H   0  0  0  0  0  0  0  0  0  0  0  0
   62.5735   34.8108   48.4964 H   0  0  0  0  0  0  0  0  0  0  0  0
   61.2662   33.2964   50.7246 H   0  0  0  0  0  0  0  0  0  0  0  0
   60.9053   33.2440   48.9778 H   0  0  0  0  0  0  0  0  0  0  0  0
   60.7104   29.9421   50.1419 H   0  0  0  0  0  0  0  0  0  0  0  0
   59.8755   31.2880   49.2705 H   0  0  0  0  0  0  0  0  0  0  0  0
   60.5357   28.4965   48.2255 H   0  0  0  0  0  0  0  0  0  0  0  0
   58.9088   29.2607   48.4700 H   0  0  0  0  0  0  0  0  0  0  0  0
   60.3781   25.2330   46.9901 H   0  0  0  0  0  0  0  0  0  0  0  0
   61.0535   26.9640   46.5687 H   0  0  0  0  0  0  0  0  0  0  0  0
   58.6676   24.2046   47.3575 H   0  0  0  0  0  0  0  0  0  0  0  0
   56.8730   24.3489   47.4668 H   0  0  0  0  0  0  0  0  0  0  0  0
   60.6330   22.5230   44.7850 H   0  0  0  0  0  0  0  0  0  0  0  0
  1  2  2  0
  2  3  1  0
  3  4  1  0
  4  5  2  0
  4  6  1  0
  3  7  2  0
  7  8  1  0
  8  9  2  0
  8 10  1  0
 10 11  1  0
 11 12  1  0
 12 13  1  0
 13 14  1  0
 14 15  1  0
 15 16  1  0
 16 17  1  0
 17 18  1  0
 13 19  1  0
 19 20  1  0
  7 21  1  0
 21 22  2  0
 21 23  1  0
 23 24  1  0
 24 25  1  0
 25 26  1  0
 26 27  1  0
 27 28  2  0
 27 29  1  0
 29 30  1  0
 30 31  1  0
 23  2  1  0
 30 25  2  0
 20 10  1  0
 18 14  1  0
  1 32  1  0
  1 33  1  0
 11 34  1  0
 11 35  1  0
 12 36  1  0
 12 37  1  0
 13 38  1  0
 15 39  1  0
 15 40  1  0
 16 41  1  0
 16 42  1  0
 17 43  1  0
 17 44  1  0
 18 45  1  0
 18 46  1  0
 19 47  1  0
 19 48  1  0
 20 49  1  0
 20 50  1  0
 22 51  1  0
 22 52  1  0
 24 53  1  0
 24 54  1  0
 31 55  1  0
M  CHG  3   6  -1  26  -1  29  -1
M  END
>  <UniqueID>  (4) 
4

>  <SMILES>  (4) 
C=c1c(C(=O)[O-])c(C(=O)N2CCC(N3CCCC3)CC2)c(=C)n1Cc1[n-]c(=O)[n-]c1O

>  <Energy>  (4) 
133.17797472859354

>  <Genealogy>  (4) 
C=c1c(C(=O)[O-])c(C(=O)N2CCC(N3CCCC3)CC2)c(=C)n1Cc1[n-]c(=O)[n-]c1O (protonated)
C=c1c(C(=O)[O-])c(C(=O)N2CCC(N3CCCC3)CC2)c(=C)n1Cc1[n-]c(=O)[n-]c1O (3D coordinates assigned)
C=c1c(C(=O)[O-])c(C(=O)N2CCC(N3CCCC3)CC2)c(=C)n1Cc1[n-]c(=O)[n-]c1O (nonaromatic ring conformer: 133.17797472859354 kcal/mol)

>  <smiles>  (4) 
C=c1c(C(=O)O)c(C(=O)N2CCC(N3CCCC3)CC2)c(=C)n1Cc1[nH]c(=O)[nH]c1O

>  <score_type>  (4) 
oracle

>  <origin>  (4) 
adg

>  <m_score__min__energy>  (4) 
-13.91

>  <m_primary>  (4) 
energy

$$$$
4:0
     RDKit          3D

 38 41  0  0  0  0  0  0  0  0999 V2000
   54.3080   25.9850   45.7600 N   0  0  0  0  0  0  0  0  0  0  0  0
   55.5460   25.4160   46.1800 C   0  0  0  0  0  0  0  0  0  0  0  0
   55.5540   24.2950   46.7550 O   0  0  0  0  0  0  0  0  0  0  0  0
   56.8070   26.1310   45.9460 C   0  0  0  0  0  0  0  0  0  0  0  0
   58.0580   25.5500   45.7760 C   0  0  0  0  0  0  0  0  0  0  0  0
   59.0840   26.4850   45.5920 C   0  0  0  0  0  0  0  0  0  0  0  0
   58.6360   27.8000   45.5760 C   0  0  0  0  0  0  0  0  0  0  0  0
   59.5110   28.9840   45.5660 C   0  0  0  0  0  0  0  0  0  0  0  0
   59.0960   30.2670   45.4610 C   0  0  0  0  0  0  0  0  0  0  0  0
   59.5870   31.3050   46.4140 C   0  0  0  0  0  0  0  0  0  0  0  0
   59.9340   31.0060   47.6340 N   0  0  0  0  0  0  0  0  0  0  0  0
   59.4450   32.6780   46.0090 N   0  0  0  0  0  0  0  0  0  0  0  0
   60.0820   33.8480   46.5240 C   0  0  0  0  0  0  0  0  0  0  0  0
   61.3440   33.8260   47.3010 C   0  0  0  0  0  0  0  0  0  0  0  0
   62.5510   33.4450   46.6900 C   0  0  0  0  0  0  0  0  0  0  0  0
   63.7390   33.4200   47.4280 C   0  0  0  0  0  0  0  0  0  0  0  0
   63.7300   33.7690   48.7810 C   0  0  0  0  0  0  0  0  0  0  0  0
   62.5330   34.1400   49.4000 C   0  0  0  0  0  0  0  0  0  0  0  0
   61.3440   34.1650   48.6660 C   0  0  0  0  0  0  0  0  0  0  0  0
   59.5580   34.9870   46.0660 C   0  0  0  0  0  0  0  0  0  0  0  0
   58.1770   34.7990   44.9230 S   0  0  0  0  0  0  0  0  0  0  0  0
   58.4740   33.0470   45.0460 C   0  0  0  0  0  0  0  0  0  0  0  0
   57.9250   32.1750   44.2590 N   0  0  0  0  0  0  0  0  0  0  0  0
   58.2340   30.7760   44.3480 C   0  0  0  0  0  0  0  0  0  0  0  0
   57.8140   30.0140   43.4390 O   0  0  0  0  0  0  0  0  0  0  0  0
   56.9750   27.8050   45.8730 S   0  0  0  0  0  0  0  0  0  0  0  0
   53.7940   26.6600   46.3690 H   0  0  0  0  0  0  0  0  0  0  0  0
   58.2256   24.4629   45.7851 H   0  0  0  0  0  0  0  0  0  0  0  0
   60.1411   26.2057   45.4719 H   0  0  0  0  0  0  0  0  0  0  0  0
   60.5939   28.8105   45.6511 H   0  0  0  0  0  0  0  0  0  0  0  0
   59.2220   30.7790   48.3610 H   0  0  0  0  0  0  0  0  0  0  0  0
   60.9310   30.8930   47.9200 H   0  0  0  0  0  0  0  0  0  0  0  0
   62.5615   33.1651   45.6263 H   0  0  0  0  0  0  0  0  0  0  0  0
   64.6812   33.1253   46.9428 H   0  0  0  0  0  0  0  0  0  0  0  0
   64.6655   33.7518   49.3593 H   0  0  0  0  0  0  0  0  0  0  0  0
   62.5268   34.4125   50.4657 H   0  0  0  0  0  0  0  0  0  0  0  0
   60.4030   34.4514   49.1585 H   0  0  0  0  0  0  0  0  0  0  0  0
   59.9427   35.9730   46.3656 H   0  0  0  0  0  0  0  0  0  0  0  0
  1  2  1  0
  2  3  2  0
  2  4  1  0
  4  5  2  0
  5  6  1  0
  6  7  2  0
  7  8  1  0
  8  9  2  3
  9 10  1  0
 10 11  2  0
 10 12  1  0
 12 13  1  0
 13 14  1  0
 14 15  2  0
 15 16  1  0
 16 17  2  0
 17 18  1  0
 18 19  2  0
 13 20  2  0
 20 21  1  0
 21 22  1  0
 22 23  2  0
 23 24  1  0
 24 25  2  0
  7 26  1  0
 26  4  1  0
 24  9  1  0
 22 12  1  0
 19 14  1  0
  1 27  1  0
  5 28  1  0
  6 29  1  0
  8 30  1  0
 11 31  1  0
 11 32  1  0
 15 33  1  0
 16 34  1  0
 17 35  1  0
 18 36  1  0
 19 37  1  0
 20 38  1  0
M  CHG  2   1  -1  11   1
M  END
>  <UniqueID>  (5) 
5

>  <SMILES>  (5) 
[NH-]C(=O)c1ccc(C=C2C(=[NH2+])N3C(c4ccccc4)=CSC3=NC2=O)s1

>  <Energy>  (5) 
108.57740586626697

>  <Genealogy>  (5) 
[NH-]C(=O)c1ccc(C=C2C(=[NH2+])N3C(c4ccccc4)=CSC3=NC2=O)s1 (protonated)
[NH-]C(=O)c1ccc(C=C2C(=[NH2+])N3C(c4ccccc4)=CSC3=NC2=O)s1 (3D coordinates assigned)
[NH-]C(=O)c1ccc(C=C2C(=[NH2+])N3C(c4ccccc4)=CSC3=NC2=O)s1 (nonaromatic ring conformer: 108.57740586626697 kcal/mol)

>  <smiles>  (5) 
N=C1C(=Cc2ccc(C(N)=O)s2)C(=O)N=C2SC=C(c3ccccc3)N12

>  <score_type>  (5) 
oracle

>  <origin>  (5) 
adg

>  <m_score__min__energy>  (5) 
-11.09

>  <m_primary>  (5) 
energy

$$$$
5:0
     RDKit          3D

 56 59  0  0  0  0  0  0  0  0999 V2000
   57.9820   26.7190   42.2850 N   0  0  0  0  0  0  0  0  0  0  0  0
   57.8470   27.2800   43.2890 C   0  0  0  0  0  0  0  0  0  0  0  0
   57.6820   27.9800   44.5420 C   0  0  0  0  0  0  0  0  0  0  0  0
   58.4190   27.6590   45.6250 C   0  0  0  0  0  0  0  0  0  0  0  0
   59.2610   28.6120   46.3820 C   0  0  0  0  0  0  0  0  0  0  0  0
   58.9750   28.9450   47.7160 C   0  0  0  0  0  0  0  0  0  0  0  0
   59.7720   29.8660   48.4010 C   0  0  0  0  0  0  0  0  0  0  0  0
   60.8610   30.4850   47.7610 C   0  0  0  0  0  0  0  0  0  0  0  0
   61.6960   31.4260   48.4720 N   0  0  0  0  0  0  0  0  0  0  0  0
   61.1500   32.1450   49.6340 C   0  0  0  0  0  0  0  0  0  0  0  0
   61.9530   33.4140   49.9380 C   0  0  0  0  0  0  0  0  0  0  0  0
   63.3880   33.1120   50.0210 N   0  0  0  0  0  0  0  0  0  0  0  0
   64.2290   33.9050   50.8870 C   0  0  0  0  0  0  0  0  0  0  0  0
   63.8350   35.0460   51.2570 O   0  0  0  0  0  0  0  0  0  0  0  0
   65.6030   33.4320   51.3030 C   0  0  2  0  0  0  0  0  0  0  0  0
   66.3610   34.4600   52.1270 C   0  0  0  0  0  0  0  0  0  0  0  0
   67.7880   34.1220   51.8210 C   0  0  0  0  0  0  0  0  0  0  0  0
   67.7080   33.4660   50.4520 C   0  0  0  0  0  0  0  0  0  0  0  0
   66.3690   33.1310   50.1600 O   0  0  0  0  0  0  0  0  0  0  0  0
   63.9810   32.1120   49.1190 C   0  0  0  0  0  0  0  0  0  0  0  0
   63.0350   31.7570   47.9660 C   0  0  0  0  0  0  0  0  0  0  0  0
   61.1270   30.1690   46.4170 C   0  0  0  0  0  0  0  0  0  0  0  0
   60.3270   29.2500   45.7330 C   0  0  0  0  0  0  0  0  0  0  0  0
   56.7770   29.1550   44.5660 C   0  0  0  0  0  0  0  0  0  0  0  0
   55.5620   28.9760   44.8510 O   0  0  0  0  0  0  0  0  0  0  0  0
   57.2520   30.5320   44.2870 C   0  0  0  0  0  0  0  0  0  0  0  0
   57.6730   31.3590   45.3450 C   0  0  0  0  0  0  0  0  0  0  0  0
   58.1440   32.6510   45.0900 C   0  0  0  0  0  0  0  0  0  0  0  0
   58.2090   33.1270   43.7790 C   0  0  0  0  0  0  0  0  0  0  0  0
   57.8080   32.3110   42.7190 C   0  0  0  0  0  0  0  0  0  0  0  0
   57.3360   31.0190   42.9690 C   0  0  0  0  0  0  0  0  0  0  0  0
   58.3924   26.6149   45.9701 H   0  0  0  0  0  0  0  0  0  0  0  0
   58.1186   28.4781   48.2246 H   0  0  0  0  0  0  0  0  0  0  0  0
   59.5459   30.1090   49.4497 H   0  0  0  0  0  0  0  0  0  0  0  0
   60.1069   32.4240   49.4238 H   0  0  0  0  0  0  0  0  0  0  0  0
   61.2094   31.4814   50.5092 H   0  0  0  0  0  0  0  0  0  0  0  0
   61.7842   34.1488   49.1370 H   0  0  0  0  0  0  0  0  0  0  0  0
   61.6203   33.8204   50.9045 H   0  0  0  0  0  0  0  0  0  0  0  0
   65.4495   32.5406   51.9290 H   0  0  0  0  0  0  0  0  0  0  0  0
   66.1169   35.4844   51.8091 H   0  0  0  0  0  0  0  0  0  0  0  0
   66.1206   34.4296   53.2000 H   0  0  0  0  0  0  0  0  0  0  0  0
   68.4090   35.0293   51.7872 H   0  0  0  0  0  0  0  0  0  0  0  0
   68.2489   33.4746   52.5815 H   0  0  0  0  0  0  0  0  0  0  0  0
   68.0842   34.1643   49.6899 H   0  0  0  0  0  0  0  0  0  0  0  0
   68.3196   32.5517   50.4511 H   0  0  0  0  0  0  0  0  0  0  0  0
   64.9148   32.5172   48.7021 H   0  0  0  0  0  0  0  0  0  0  0  0
   64.1727   31.1974   49.6994 H   0  0  0  0  0  0  0  0  0  0  0  0
   62.9602   32.6164   47.2834 H   0  0  0  0  0  0  0  0  0  0  0  0
   63.4380   30.8811   47.4366 H   0  0  0  0  0  0  0  0  0  0  0  0
   61.9712   30.6488   45.9002 H   0  0  0  0  0  0  0  0  0  0  0  0
   60.5355   29.0254   44.6766 H   0  0  0  0  0  0  0  0  0  0  0  0
   57.6314   30.9868   46.3793 H   0  0  0  0  0  0  0  0  0  0  0  0
   58.4638   33.2933   45.9238 H   0  0  0  0  0  0  0  0  0  0  0  0
   58.5761   34.1449   43.5811 H   0  0  0  0  0  0  0  0  0  0  0  0
   57.8636   32.6853   41.6861 H   0  0  0  0  0  0  0  0  0  0  0  0
   57.0280   30.3783   42.1296 H   0  0  0  0  0  0  0  0  0  0  0  0
  1  2  3  0
  2  3  1  0
  3  4  2  3
  4  5  1  0
  5  6  2  0
  6  7  1  0
  7  8  2  0
  8  9  1  0
  9 10  1  0
 10 11  1  0
 11 12  1  0
 12 13  1  0
 13 14  2  0
 13 15  1  0
 15 16  1  0
 16 17  1  0
 17 18  1  0
 18 19  1  0
 12 20  1  0
 20 21  1  0
  8 22  1  0
 22 23  2  0
  3 24  1  0
 24 25  2  0
 24 26  1  0
 26 27  2  0
 27 28  1  0
 28 29  2  0
 29 30  1  0
 30 31  2  0
 23  5  1  0
 31 26  1  0
 21  9  1  0
 19 15  1  0
  4 32  1  0
  6 33  1  0
  7 34  1  0
 10 35  1  0
 10 36  1  0
 11 37  1  0
 11 38  1  0
 15 39  1  1
 16 40  1  0
 16 41  1  0
 17 42  1  0
 17 43  1  0
 18 44  1  0
 18 45  1  0
 20 46  1  0
 20 47  1  0
 21 48  1  0
 21 49  1  0
 22 50  1  0
 23 51  1  0
 27 52  1  0
 28 53  1  0
 29 54  1  0
 30 55  1  0
 31 56  1  0
M  END
>  <UniqueID>  (6) 
6

>  <SMILES>  (6) 
N#CC(=Cc1ccc(N2CCN(C(=O)[C@@H]3CCCO3)CC2)cc1)C(=O)c1ccccc1

>  <Energy>  (6) 
74.07506789205964

>  <Genealogy>  (6) 
N#CC(=Cc1ccc(N2CCN(C(=O)[C@@H]3CCCO3)CC2)cc1)C(=O)c1ccccc1 (chirality)
N#CC(=Cc1ccc(N2CCN(C(=O)[C@@H]3CCCO3)CC2)cc1)C(=O)c1ccccc1 (3D coordinates assigned)
N#CC(=Cc1ccc(N2CCN(C(=O)[C@@H]3CCCO3)CC2)cc1)C(=O)c1ccccc1 (nonaromatic ring conformer: 74.07506789205964 kcal/mol)

>  <smiles>  (6) 
N#CC(=Cc1ccc(N2CCN(C(=O)C3CCCO3)CC2)cc1)C(=O)c1ccccc1

>  <score_type>  (6) 
oracle

>  <origin>  (6) 
adg

>  <m_score__min__energy>  (6) 
-9.5299999999999994

>  <m_primary>  (6) 
energy

$$$$
6:0
     RDKit          3D

 53 55  0  0  0  0  0  0  0  0999 V2000
   60.6960   28.0080   49.0470 C   0  0  0  0  0  0  0  0  0  0  0  0
   60.3780   29.3670   49.5740 C   0  0  0  0  0  0  0  0  0  0  0  0
   61.0540   29.9600   50.5780 N   0  0  0  0  0  0  0  0  0  0  0  0
   60.5930   31.1980   50.7020 N   0  0  0  0  0  0  0  0  0  0  0  0
   61.1880   32.1780   51.6080 C   0  0  0  0  0  0  0  0  0  0  0  0
   62.3810   32.8600   50.9300 C   0  0  0  0  0  0  0  0  0  0  0  0
   62.3320   32.6560   49.4670 N   0  0  0  0  0  0  0  0  0  0  0  0
   63.5510   31.9840   48.9760 C   0  0  0  0  0  0  0  0  0  0  0  0
   63.3930   31.6150   47.4880 C   0  0  0  0  0  0  0  0  0  0  0  0
   62.3590   32.4160   46.8110 N   0  0  0  0  0  0  0  0  0  0  0  0
   62.4010   33.8170   47.2470 C   0  0  0  0  0  0  0  0  0  0  0  0
   62.1530   33.9450   48.7660 C   0  0  0  0  0  0  0  0  0  0  0  0
   59.6410   31.4290   49.7680 C   0  0  0  0  0  0  0  0  0  0  0  0
   58.8930   32.7180   49.5990 C   0  0  0  0  0  0  0  0  0  0  0  0
   59.5060   30.2780   49.0140 C   0  0  0  0  0  0  0  0  0  0  0  0
   58.7520   30.0770   47.8100 N   0  0  0  0  0  0  0  0  0  0  0  0
   59.2480   30.2270   46.4710 C   0  0  0  0  0  0  0  0  0  0  0  0
   60.4790   30.4370   46.3100 O   0  0  0  0  0  0  0  0  0  0  0  0
   58.3420   30.2400   45.2950 C   0  0  0  0  0  0  0  0  0  0  0  0
   57.9380   29.0080   44.7450 C   0  0  0  0  0  0  0  0  0  0  0  0
   57.1120   28.9600   43.6230 C   0  0  0  0  0  0  0  0  0  0  0  0
   56.6550   30.1400   43.0440 C   0  0  0  0  0  0  0  0  0  0  0  0
   57.0170   31.3730   43.5870 C   0  0  0  0  0  0  0  0  0  0  0  0
   57.8590   31.4440   44.7110 C   0  0  0  0  0  0  0  0  0  0  0  0
   58.2960   33.0480   45.3350 S   0  0  0  0  0  0  0  0  0  0  0  0
   59.5640   32.9230   46.5060 N   0  0  0  0  0  0  0  0  0  0  0  0
   58.7620   33.9160   44.2000 O   0  0  0  0  0  0  0  0  0  0  0  0
   57.1070   33.6850   45.9970 O   0  0  0  0  0  0  0  0  0  0  0  0
   60.8576   27.3173   49.8877 H   0  0  0  0  0  0  0  0  0  0  0  0
   59.8579   27.6477   48.4324 H   0  0  0  0  0  0  0  0  0  0  0  0
   61.6069   28.0570   48.4324 H   0  0  0  0  0  0  0  0  0  0  0  0
   60.4353   32.9362   51.8701 H   0  0  0  0  0  0  0  0  0  0  0  0
   61.5335   31.6660   52.5182 H   0  0  0  0  0  0  0  0  0  0  0  0
   62.3523   33.9382   51.1462 H   0  0  0  0  0  0  0  0  0  0  0  0
   63.3107   32.4194   51.3194 H   0  0  0  0  0  0  0  0  0  0  0  0
   64.4108   32.6600   49.0934 H   0  0  0  0  0  0  0  0  0  0  0  0
   63.7134   31.0650   49.5583 H   0  0  0  0  0  0  0  0  0  0  0  0
   64.3548   31.7802   46.9803 H   0  0  0  0  0  0  0  0  0  0  0  0
   63.0827   30.5609   47.4380 H   0  0  0  0  0  0  0  0  0  0  0  0
   61.4170   32.0220   47.0450 H   0  0  0  0  0  0  0  0  0  0  0  0
   63.3902   34.2356   47.0099 H   0  0  0  0  0  0  0  0  0  0  0  0
   61.6067   34.3662   46.7202 H   0  0  0  0  0  0  0  0  0  0  0  0
   62.8620   34.6764   49.1812 H   0  0  0  0  0  0  0  0  0  0  0  0
   61.1128   34.2706   48.9141 H   0  0  0  0  0  0  0  0  0  0  0  0
   58.6515   33.1342   50.5882 H   0  0  0  0  0  0  0  0  0  0  0  0
   59.5163   33.4334   49.0424 H   0  0  0  0  0  0  0  0  0  0  0  0
   57.9626   32.5318   49.0424 H   0  0  0  0  0  0  0  0  0  0  0  0
   58.2792   28.0700   45.2074 H   0  0  0  0  0  0  0  0  0  0  0  0
   56.8214   27.9891   43.1953 H   0  0  0  0  0  0  0  0  0  0  0  0
   56.0068   30.1004   42.1561 H   0  0  0  0  0  0  0  0  0  0  0  0
   56.6396   32.3000   43.1308 H   0  0  0  0  0  0  0  0  0  0  0  0
   60.4190   32.6030   45.9970 H   0  0  0  0  0  0  0  0  0  0  0  0
   59.3050   32.1520   47.1610 H   0  0  0  0  0  0  0  0  0  0  0  0
  1  2  1  0
  2  3  2  0
  3  4  1  0
  4  5  1  0
  5  6  1  0
  6  7  1  0
  7  8  1  0
  8  9  1  0
  9 10  1  0
 10 11  1  0
 11 12  1  0
  4 13  1  0
 13 14  1  0
 13 15  2  0
 15 16  1  0
 16 17  1  0
 17 18  2  0
 17 19  1  0
 19 20  2  0
 20 21  1  0
 21 22  2  0
 22 23  1  0
 23 24  2  0
 24 25  1  0
 25 26  1  0
 25 27  2  0
 25 28  2  0
 15  2  1  0
 24 19  1  0
 12  7  1  0
  1 29  1  0
  1 30  1  0
  1 31  1  0
  5 32  1  0
  5 33  1  0
  6 34  1  0
  6 35  1  0
  8 36  1  0
  8 37  1  0
  9 38  1  0
  9 39  1  0
 10 40  1  0
 11 41  1  0
 11 42  1  0
 12 43  1  0
 12 44  1  0
 14 45  1  0
 14 46  1  0
 14 47  1  0
 20 48  1  0
 21 49  1  0
 22 50  1  0
 23 51  1  0
 26 52  1  0
 26 53  1  0
M  CHG  1  16  -1
M  END
>  <UniqueID>  (7) 
7

>  <SMILES>  (7) 
Cc1nn(CCN2CCNCC2)c(C)c1[N-]C(=O)c1ccccc1S(N)(=O)=O

>  <Energy>  (7) 
97.64144214749969

>  <Genealogy>  (7) 
Cc1nn(CCN2CCNCC2)c(C)c1[N-]C(=O)c1ccccc1S(N)(=O)=O (protonated)
Cc1nn(CCN2CCNCC2)c(C)c1[N-]C(=O)c1ccccc1S(N)(=O)=O (3D coordinates assigned)
Cc1nn(CCN2CCNCC2)c(C)c1[N-]C(=O)c1ccccc1S(N)(=O)=O (nonaromatic ring conformer: 97.64144214749969 kcal/mol)

>  <smiles>  (7) 
Cc1nn(CCN2CCNCC2)c(C)c1NC(=O)c1ccccc1S(N)(=O)=O

>  <score_type>  (7) 
oracle

>  <origin>  (7) 
adg

>  <m_score__min__energy>  (7) 
-9.6799999999999997

>  <m_primary>  (7) 
energy

$$$$
7:0
     RDKit          3D

 49 52  0  0  0  0  0  0  0  0999 V2000
   55.1300   29.3960   44.8280 O   0  0  0  0  0  0  0  0  0  0  0  0
   56.3850   29.2840   44.8000 C   0  0  0  0  0  0  0  0  0  0  0  0
   57.1510   29.8650   43.6520 C   0  0  0  0  0  0  0  0  0  0  0  0
   58.2000   30.7710   44.1180 N   0  0  0  0  0  0  0  0  0  0  0  0
   58.0780   31.8110   45.1010 C   0  0  0  0  0  0  0  0  0  0  0  0
   56.9440   32.3280   45.2850 O   0  0  0  0  0  0  0  0  0  0  0  0
   59.2070   32.2600   45.9420 C   0  0  0  0  0  0  0  0  0  0  0  0
   59.3330   33.6210   46.2620 C   0  0  0  0  0  0  0  0  0  0  0  0
   60.3870   34.0660   47.0630 C   0  0  0  0  0  0  0  0  0  0  0  0
   61.3370   33.1600   47.5470 C   0  0  0  0  0  0  0  0  0  0  0  0
   62.6480   33.7430   48.5670 S   0  0  0  0  0  0  0  0  0  0  0  0
   62.1550   34.9040   49.3830 O   0  0  0  0  0  0  0  0  0  0  0  0
   63.7940   34.2040   47.7100 O   0  0  0  0  0  0  0  0  0  0  0  0
   63.2000   32.4970   49.6380 N   0  0  0  0  0  0  0  0  0  0  0  0
   62.3530   31.4370   50.1770 C   0  0  0  0  0  0  0  0  0  0  0  0
   63.2800   30.5690   51.0650 C   0  0  0  0  0  0  0  0  0  0  0  0
   64.6100   31.2250   50.9240 C   0  0  0  0  0  0  0  0  0  0  0  0
   65.8270   30.8390   51.4900 C   0  0  0  0  0  0  0  0  0  0  0  0
   66.9720   31.5980   51.1970 C   0  0  0  0  0  0  0  0  0  0  0  0
   66.8840   32.7170   50.3460 C   0  0  0  0  0  0  0  0  0  0  0  0
   65.6480   33.0840   49.7880 C   0  0  0  0  0  0  0  0  0  0  0  0
   64.5230   32.3170   50.1050 C   0  0  0  0  0  0  0  0  0  0  0  0
   61.2330   31.8040   47.2040 C   0  0  0  0  0  0  0  0  0  0  0  0
   60.1860   31.3600   46.3920 C   0  0  0  0  0  0  0  0  0  0  0  0
   57.0790   28.4810   45.7660 N   0  0  0  0  0  0  0  0  0  0  0  0
   57.2020   27.1840   45.8580 C   0  0  0  0  0  0  0  0  0  0  0  0
   58.4650   26.6790   45.9150 N   0  0  0  0  0  0  0  0  0  0  0  0
   58.7230   25.3500   46.0120 C   0  0  0  0  0  0  0  0  0  0  0  0
   57.6710   24.4390   46.0650 C   0  0  0  0  0  0  0  0  0  0  0  0
   56.3610   24.9120   46.0400 C   0  0  0  0  0  0  0  0  0  0  0  0
   56.1070   26.2840   45.9500 C   0  0  0  0  0  0  0  0  0  0  0  0
   54.7860   26.7090   46.0030 O   0  0  0  0  0  0  0  0  0  0  0  0
   57.6122   29.0475   43.0785 H   0  0  0  0  0  0  0  0  0  0  0  0
   56.4531   30.4363   43.0223 H   0  0  0  0  0  0  0  0  0  0  0  0
   58.5961   34.3423   45.8790 H   0  0  0  0  0  0  0  0  0  0  0  0
   60.4706   35.1336   47.3145 H   0  0  0  0  0  0  0  0  0  0  0  0
   61.5379   31.8660   50.7783 H   0  0  0  0  0  0  0  0  0  0  0  0
   61.8865   30.8440   49.3765 H   0  0  0  0  0  0  0  0  0  0  0  0
   62.9448   30.5807   52.1126 H   0  0  0  0  0  0  0  0  0  0  0  0
   63.2906   29.5102   50.7669 H   0  0  0  0  0  0  0  0  0  0  0  0
   65.8875   29.9610   52.1499 H   0  0  0  0  0  0  0  0  0  0  0  0
   67.9417   31.3173   51.6340 H   0  0  0  0  0  0  0  0  0  0  0  0
   67.7852   33.3049   50.1178 H   0  0  0  0  0  0  0  0  0  0  0  0
   65.5675   33.9530   49.1185 H   0  0  0  0  0  0  0  0  0  0  0  0
   61.9792   31.0865   47.5760 H   0  0  0  0  0  0  0  0  0  0  0  0
   60.1286   30.2999   46.1039 H   0  0  0  0  0  0  0  0  0  0  0  0
   59.7627   24.9926   46.0487 H   0  0  0  0  0  0  0  0  0  0  0  0
   57.8720   23.3592   46.1258 H   0  0  0  0  0  0  0  0  0  0  0  0
   55.5220   24.2024   46.0913 H   0  0  0  0  0  0  0  0  0  0  0  0
  1  2  2  0
  2  3  1  0
  3  4  1  0
  4  5  1  0
  5  6  2  0
  5  7  1  0
  7  8  2  0
  8  9  1  0
  9 10  2  0
 10 11  1  0
 11 12  2  0
 11 13  2  0
 11 14  1  0
 14 15  1  0
 15 16  1  0
 16 17  1  0
 17 18  2  0
 18 19  1  0
 19 20  2  0
 20 21  1  0
 21 22  2  0
 10 23  1  0
 23 24  2  0
  2 25  1  0
 25 26  2  3
 26 27  1  0
 27 28  1  0
 28 29  2  0
 29 30  1  0
 30 31  2  0
 31 32  1  0
 24  7  1  0
 31 26  1  0
 22 14  1  0
 22 17  1  0
  3 33  1  0
  3 34  1  0
  8 35  1  0
  9 36  1  0
 15 37  1  0
 15 38  1  0
 16 39  1  0
 16 40  1  0
 18 41  1  0
 19 42  1  0
 20 43  1  0
 21 44  1  0
 23 45  1  0
 24 46  1  0
 28 47  1  0
 29 48  1  0
 30 49  1  0
M  CHG  3   4  -1  27  -1  32  -1
M  END
>  <UniqueID>  (8) 
8

>  <SMILES>  (8) 
O=C(C[N-]C(=O)c1ccc(S(=O)(=O)N2CCc3ccccc32)cc1)N=c1[n-]cccc1[O-]

>  <Energy>  (8) 
79.3788348921819

>  <Genealogy>  (8) 
O=C(C[N-]C(=O)c1ccc(S(=O)(=O)N2CCc3ccccc32)cc1)N=c1[n-]cccc1[O-] (protonated)
O=C(C[N-]C(=O)c1ccc(S(=O)(=O)N2CCc3ccccc32)cc1)N=c1[n-]cccc1[O-] (3D coordinates assigned)
O=C(C[N-]C(=O)c1ccc(S(=O)(=O)N2CCc3ccccc32)cc1)N=c1[n-]cccc1[O-] (nonaromatic ring conformer: 79.3788348921819 kcal/mol)

>  <smiles>  (8) 
O=C(CNC(=O)c1ccc(S(=O)(=O)N2CCc3ccccc32)cc1)N=c1[nH]cccc1O

>  <score_type>  (8) 
oracle

>  <origin>  (8) 
adg

>  <m_score__min__energy>  (8) 
-17.030000000000001

>  <m_primary>  (8) 
energy

$$$$
8:0
     RDKit          3D

 51 53  0  0  0  0  0  0  0  0999 V2000
   57.2300   34.1540   44.6800 O   0  0  0  0  0  0  0  0  0  0  0  0
   58.0090   33.1650   44.6030 C   0  0  0  0  0  0  0  0  0  0  0  0
   58.0520   32.3550   43.3430 C   0  0  0  0  0  0  0  0  0  0  0  0
   57.5620   31.0020   43.6000 N   0  0  0  0  0  0  0  0  0  0  0  0
   58.3300   30.0400   44.3380 C   0  0  0  0  0  0  0  0  0  0  0  0
   59.5570   30.2430   44.5500 O   0  0  0  0  0  0  0  0  0  0  0  0
   57.7020   28.8130   44.8610 C   0  0  0  0  0  0  0  0  0  0  0  0
   56.3540   28.6030   45.1010 C   0  0  0  0  0  0  0  0  0  0  0  0
   56.2630   27.3270   45.6150 C   0  0  0  0  0  0  0  0  0  0  0  0
   55.0810   26.7110   46.0090 O   0  0  0  0  0  0  0  0  0  0  0  0
   57.4770   26.7510   45.6910 N   0  0  0  0  0  0  0  0  0  0  0  0
   57.7900   25.4270   46.2270 C   0  0  0  0  0  0  0  0  0  0  0  0
   57.4030   24.3630   45.2370 C   0  0  0  0  0  0  0  0  0  0  0  0
   57.3680   23.0140   45.6270 C   0  0  0  0  0  0  0  0  0  0  0  0
   57.0040   22.0250   44.7080 C   0  0  0  0  0  0  0  0  0  0  0  0
   56.6470   22.3790   43.4020 C   0  0  0  0  0  0  0  0  0  0  0  0
   56.6610   23.7200   43.0120 C   0  0  0  0  0  0  0  0  0  0  0  0
   57.0380   24.7100   43.9250 C   0  0  0  0  0  0  0  0  0  0  0  0
   58.3680   27.6600   45.2470 C   0  0  0  0  0  0  0  0  0  0  0  0
   58.8620   32.8150   45.7040 N   0  0  0  0  0  0  0  0  0  0  0  0
   59.1670   33.7020   46.7890 C   0  0  0  0  0  0  0  0  0  0  0  0
   58.5580   34.7990   46.9090 O   0  0  0  0  0  0  0  0  0  0  0  0
   60.1990   33.3500   47.7200 N   0  0  0  0  0  0  0  0  0  0  0  0
   60.7800   34.3220   48.6440 C   0  0  0  0  0  0  0  0  0  0  0  0
   62.1450   33.8630   49.0830 C   0  0  0  0  0  0  0  0  0  0  0  0
   62.9550   33.1280   48.2010 C   0  0  0  0  0  0  0  0  0  0  0  0
   64.2430   32.7410   48.5840 C   0  0  0  0  0  0  0  0  0  0  0  0
   64.7260   33.0790   49.8520 C   0  0  0  0  0  0  0  0  0  0  0  0
   63.9250   33.8080   50.7360 C   0  0  0  0  0  0  0  0  0  0  0  0
   62.6390   34.2020   50.3530 C   0  0  0  0  0  0  0  0  0  0  0  0
   57.4186   32.8330   42.5812 H   0  0  0  0  0  0  0  0  0  0  0  0
   59.0906   32.3003   42.9848 H   0  0  0  0  0  0  0  0  0  0  0  0
   56.6070   30.7530   43.2610 H   0  0  0  0  0  0  0  0  0  0  0  0
   55.5287   29.3072   44.9194 H   0  0  0  0  0  0  0  0  0  0  0  0
   58.8696   25.3618   46.4276 H   0  0  0  0  0  0  0  0  0  0  0  0
   57.2259   25.2736   47.1588 H   0  0  0  0  0  0  0  0  0  0  0  0
   57.6278   22.7347   46.6587 H   0  0  0  0  0  0  0  0  0  0  0  0
   56.9983   20.9678   45.0119 H   0  0  0  0  0  0  0  0  0  0  0  0
   56.3551   21.6003   42.6819 H   0  0  0  0  0  0  0  0  0  0  0  0
   56.3755   23.9975   41.9866 H   0  0  0  0  0  0  0  0  0  0  0  0
   57.0489   25.7653   43.6147 H   0  0  0  0  0  0  0  0  0  0  0  0
   59.4566   27.5099   45.1984 H   0  0  0  0  0  0  0  0  0  0  0  0
   59.3890   31.9130   45.6480 H   0  0  0  0  0  0  0  0  0  0  0  0
   60.6250   32.3970   47.6680 H   0  0  0  0  0  0  0  0  0  0  0  0
   60.8677   35.2960   48.1404 H   0  0  0  0  0  0  0  0  0  0  0  0
   60.1294   34.4153   49.5261 H   0  0  0  0  0  0  0  0  0  0  0  0
   62.5745   32.8560   47.2054 H   0  0  0  0  0  0  0  0  0  0  0  0
   64.8760   32.1709   47.8881 H   0  0  0  0  0  0  0  0  0  0  0  0
   65.7377   32.7708   50.1544 H   0  0  0  0  0  0  0  0  0  0  0  0
   64.3065   34.0718   51.7334 H   0  0  0  0  0  0  0  0  0  0  0  0
   62.0124   34.7793   51.0488 H   0  0  0  0  0  0  0  0  0  0  0  0
  1  2  2  0
  2  3  1  0
  3  4  1  0
  4  5  1  0
  5  6  2  0
  5  7  1  0
  7  8  1  0
  8  9  2  0
  9 10  1  0
  9 11  1  0
 11 12  1  0
 12 13  1  0
 13 14  2  0
 14 15  1  0
 15 16  2  0
 16 17  1  0
 17 18  2  0
 11 19  1  0
  2 20  1  0
 20 21  1  0
 21 22  2  0
 21 23  1  0
 23 24  1  0
 24 25  1  0
 25 26  2  0
 26 27  1  0
 27 28  2  0
 28 29  1  0
 29 30  2  0
 19  7  2  0
 30 25  1  0
 18 13  1  0
  3 31  1  0
  3 32  1  0
  4 33  1  0
  8 34  1  0
 12 35  1  0
 12 36  1  0
 14 37  1  0
 15 38  1  0
 16 39  1  0
 17 40  1  0
 18 41  1  0
 19 42  1  0
 20 43  1  0
 23 44  1  0
 24 45  1  0
 24 46  1  0
 26 47  1  0
 27 48  1  0
 28 49  1  0
 29 50  1  0
 30 51  1  0
M  CHG  1  10  -1
M  END
>  <UniqueID>  (9) 
9

>  <SMILES>  (9) 
O=C(CNC(=O)c1cc([O-])n(Cc2ccccc2)c1)NC(=O)NCc1ccccc1

>  <Energy>  (9) 
69.83251996145336

>  <Genealogy>  (9) 
O=C(CNC(=O)c1cc([O-])n(Cc2ccccc2)c1)NC(=O)NCc1ccccc1 (protonated)
O=C(CNC(=O)c1cc([O-])n(Cc2ccccc2)c1)NC(=O)NCc1ccccc1 (3D coordinates assigned)
O=C(CNC(=O)c1cc([O-])n(Cc2ccccc2)c1)NC(=O)NCc1ccccc1 (optimized conformer: 69.83251996145336 kcal/mol)

>  <smiles>  (9) 
O=C(CNC(=O)c1cc(O)n(Cc2ccccc2)c1)NC(=O)NCc1ccccc1

>  <score_type>  (9) 
oracle

>  <origin>  (9) 
adg

>  <m_score__min__energy>  (9) 
-11.460000000000001

>  <m_primary>  (9) 
energy

$$$$
9:0
     RDKit          3D

 36 37  0  0  0  0  0  0  0  0999 V2000
   55.8690   35.0610   45.7380 H   0  0  0  0  0  0  0  0  0  0  0  0
   56.6240   34.6600   45.2330 O   0  0  0  0  0  0  0  0  0  0  0  0
   57.0040   33.5100   45.9420 C   0  0  0  0  0  0  0  0  0  0  0  0
   56.1453   32.8257   46.0087 H   0  0  0  0  0  0  0  0  0  0  0  0
   57.3327   33.8057   46.9492 H   0  0  0  0  0  0  0  0  0  0  0  0
   58.1760   32.7900   45.2230 C   0  0  0  0  0  0  0  0  0  0  0  0
   58.4540   31.3910   45.8200 C   0  0  0  0  0  0  0  0  0  0  0  0
   58.2140   30.1980   45.1450 C   0  0  0  0  0  0  0  0  0  0  0  0
   57.8309   30.1007   44.1185 H   0  0  0  0  0  0  0  0  0  0  0  0
   58.5420   29.1580   45.9920 C   0  0  0  0  0  0  0  0  0  0  0  0
   58.4690   27.8430   45.7070 C   0  0  0  0  0  0  0  0  0  0  0  0
   59.3756   27.3451   45.3326 H   0  0  0  0  0  0  0  0  0  0  0  0
   57.2490   27.0300   45.8660 C   0  0  0  0  0  0  0  0  0  0  0  0
   57.2500   25.7960   46.3990 N   0  0  0  0  0  0  0  0  0  0  0  0
   55.9400   25.4680   46.4330 C   0  0  0  0  0  0  0  0  0  0  0  0
   55.5300   24.3590   46.8630 O   0  0  0  0  0  0  0  0  0  0  0  0
   55.1040   26.4250   45.9780 N   0  0  0  0  0  0  0  0  0  0  0  0
   55.9450   27.4130   45.6340 C   0  0  0  0  0  0  0  0  0  0  0  0
   55.5260   28.6510   45.1650 O   0  0  0  0  0  0  0  0  0  0  0  0
   59.0010   29.7480   47.1690 C   0  0  0  0  0  0  0  0  0  0  0  0
   59.3590   29.0840   48.2840 C   0  0  0  0  0  0  0  0  0  0  0  0
   59.7101   29.6395   49.1661 H   0  0  0  0  0  0  0  0  0  0  0  0
   59.3004   27.9859   48.3130 H   0  0  0  0  0  0  0  0  0  0  0  0
   58.9850   31.1050   47.0480 N   0  0  0  0  0  0  0  0  0  0  0  0
   59.4080   32.0570   48.0850 C   0  0  0  0  0  0  0  0  0  0  0  0
   59.2164   31.6258   49.0787 H   0  0  0  0  0  0  0  0  0  0  0  0
   60.4828   32.2641   47.9762 H   0  0  0  0  0  0  0  0  0  0  0  0
   58.8413   32.9935   47.9762 H   0  0  0  0  0  0  0  0  0  0  0  0
   57.7850   32.6800   43.7240 C   0  0  0  0  0  0  0  0  0  0  0  0
   56.7291   32.3829   43.6413 H   0  0  0  0  0  0  0  0  0  0  0  0
   57.9312   33.6542   43.2345 H   0  0  0  0  0  0  0  0  0  0  0  0
   58.4177   31.9250   43.2345 H   0  0  0  0  0  0  0  0  0  0  0  0
   59.4560   33.6490   45.2960 C   0  0  0  0  0  0  0  0  0  0  0  0
   59.7194   33.8258   46.3493 H   0  0  0  0  0  0  0  0  0  0  0  0
   60.2810   33.1210   44.7954 H   0  0  0  0  0  0  0  0  0  0  0  0
   59.2800   34.6125   44.7954 H   0  0  0  0  0  0  0  0  0  0  0  0
  1  2  1  0
  2  3  1  0
  3  4  1  0
  3  5  1  0
  3  6  1  0
  6  7  1  0
  7  8  2  0
  8  9  1  0
  8 10  1  0
 10 11  2  0
 11 12  1  0
 11 13  1  0
 13 14  1  0
 14 15  1  0
 15 16  2  0
 15 17  1  0
 17 18  1  0
 18 19  1  0
 10 20  1  0
 20 21  2  0
 21 22  1  0
 21 23  1  0
 20 24  1  0
 24 25  1  0
 25 26  1  0
 25 27  1  0
 25 28  1  0
  6 29  1  0
 29 30  1  0
 29 31  1  0
 29 32  1  0
  6 33  1  0
 33 34  1  0
 33 35  1  0
 33 36  1  0
 24  7  1  0
 18 13  2  0
M  CHG  3  14  -1  17  -1  19  -1
M  END
>  <UniqueID>  (10) 
10

>  <SMILES>  (10) 
C=c1/c(=C/c2[n-]c(=O)[n-]c2[O-])cc(C(C)(C)CO)n1C

>  <Energy>  (10) 
105.91998691842413

>  <Genealogy>  (10) 
C=c1c(=Cc2[n-]c(=O)[n-]c2[O-])cc(C(C)(C)CO)n1C (protonated)
C=c1/c(=C/c2[n-]c(=O)[n-]c2[O-])cc(C(C)(C)CO)n1C (cis-trans isomerization)
C=c1/c(=C/c2[n-]c(=O)[n-]c2[O-])cc(C(C)(C)CO)n1C (3D coordinates assigned)
C=c1/c(=C/c2[n-]c(=O)[n-]c2[O-])cc(C(C)(C)CO)n1C (optimized conformer: 105.91998691842413 kcal/mol)

>  <smiles>  (10) 
C=c1c(=Cc2[nH]c(=O)[nH]c2O)cc(C(C)(C)CO)n1C

>  <score_type>  (10) 
oracle

>  <origin>  (10) 
adg

>  <m_score__min__energy>  (10) 
-15.359999999999999

>  <m_primary>  (10) 
energy

$$$$
10:0
     RDKit          3D

 40 42  0  0  0  0  0  0  0  0999 V2000
   55.7930   25.6470   46.6380 O   0  0  0  0  0  0  0  0  0  0  0  0
   56.6770   26.4080   45.6910 S   0  0  0  0  0  0  0  0  0  0  0  0
   56.9050   25.5780   44.4580 O   0  0  0  0  0  0  0  0  0  0  0  0
   55.8950   27.8900   45.2460 N   0  0  0  0  0  0  0  0  0  0  0  0
   56.5660   29.1250   44.9600 C   0  0  0  0  0  0  0  0  0  0  0  0
   57.5270   29.6730   45.8270 C   0  0  0  0  0  0  0  0  0  0  0  0
   58.1420   30.8890   45.5160 C   0  0  0  0  0  0  0  0  0  0  0  0
   57.8080   31.5770   44.3440 C   0  0  0  0  0  0  0  0  0  0  0  0
   58.4490   32.8320   44.0790 N   0  0  0  0  0  0  0  0  0  0  0  0
   58.5060   34.1760   45.1720 S   0  0  0  0  0  0  0  0  0  0  0  0
   59.1920   35.3330   44.5010 O   0  0  0  0  0  0  0  0  0  0  0  0
   57.1020   34.5880   45.5160 O   0  0  0  0  0  0  0  0  0  0  0  0
   59.4140   33.7390   46.6250 C   0  0  0  0  0  0  0  0  0  0  0  0
   60.8130   33.8670   46.6230 C   0  0  0  0  0  0  0  0  0  0  0  0
   61.5570   33.5610   47.7660 C   0  0  0  0  0  0  0  0  0  0  0  0
   63.3010   33.7390   47.7510 Cl  0  0  0  0  0  0  0  0  0  0  0  0
   60.9100   33.1200   48.9210 C   0  0  0  0  0  0  0  0  0  0  0  0
   59.5210   32.9790   48.9340 C   0  0  0  0  0  0  0  0  0  0  0  0
   58.7640   33.2820   47.7960 C   0  0  0  0  0  0  0  0  0  0  0  0
   57.3800   33.1130   47.8650 O   0  0  0  0  0  0  0  0  0  0  0  0
   56.8610   31.0200   43.4690 C   0  0  0  0  0  0  0  0  0  0  0  0
   56.2460   29.8030   43.7780 C   0  0  0  0  0  0  0  0  0  0  0  0
   58.2070   26.7470   46.4850 C   0  0  0  0  0  0  0  0  0  0  0  0
   59.4020   26.2330   45.9680 C   0  0  0  0  0  0  0  0  0  0  0  0
   60.6020   26.5020   46.6290 C   0  0  0  0  0  0  0  0  0  0  0  0
   60.5980   27.2790   47.7890 C   0  0  0  0  0  0  0  0  0  0  0  0
   59.3850   27.7780   48.2730 C   0  0  0  0  0  0  0  0  0  0  0  0
   58.2270   27.5030   47.6170 N   0  0  0  0  0  0  0  0  0  0  0  0
   57.7958   29.1434   46.7529 H   0  0  0  0  0  0  0  0  0  0  0  0
   58.8954   31.3090   46.1986 H   0  0  0  0  0  0  0  0  0  0  0  0
   61.3275   34.2111   45.7137 H   0  0  0  0  0  0  0  0  0  0  0  0
   61.4948   32.8832   49.8221 H   0  0  0  0  0  0  0  0  0  0  0  0
   59.0172   32.6268   49.8462 H   0  0  0  0  0  0  0  0  0  0  0  0
   56.7190   33.7610   47.4590 H   0  0  0  0  0  0  0  0  0  0  0  0
   56.6021   31.5434   42.5368 H   0  0  0  0  0  0  0  0  0  0  0  0
   55.5049   29.3750   43.0869 H   0  0  0  0  0  0  0  0  0  0  0  0
   59.3957   25.6243   45.0518 H   0  0  0  0  0  0  0  0  0  0  0  0
   61.5488   26.1025   46.2366 H   0  0  0  0  0  0  0  0  0  0  0  0
   61.5387   27.4961   48.3162 H   0  0  0  0  0  0  0  0  0  0  0  0
   59.3679   28.3932   49.1847 H   0  0  0  0  0  0  0  0  0  0  0  0
  1  2  2  0
  2  3  2  0
  2  4  1  0
  4  5  1  0
  5  6  2  0
  6  7  1  0
  7  8  2  0
  8  9  1  0
  9 10  1  0
 10 11  2  0
 10 12  2  0
 10 13  1  0
 13 14  2  0
 14 15  1  0
 15 16  1  0
 15 17  2  0
 17 18  1  0
 18 19  2  0
 19 20  1  0
  8 21  1  0
 21 22  2  0
  2 23  1  0
 23 24  2  0
 24 25  1  0
 25 26  2  0
 26 27  1  0
 27 28  2  0
 22  5  1  0
 28 23  1  0
 19 13  1  0
  6 29  1  0
  7 30  1  0
 14 31  1  0
 17 32  1  0
 18 33  1  0
 20 34  1  0
 21 35  1  0
 22 36  1  0
 24 37  1  0
 25 38  1  0
 26 39  1  0
 27 40  1  0
M  CHG  2   4  -1   9  -1
M  END
>  <UniqueID>  (11) 
11

>  <SMILES>  (11) 
O=S(=O)([N-]c1ccc([N-]S(=O)(=O)c2cc(Cl)ccc2O)cc1)c1ccccn1

>  <Energy>  (11) 
51.06645775398844

>  <Genealogy>  (11) 
O=S(=O)([N-]c1ccc([N-]S(=O)(=O)c2cc(Cl)ccc2O)cc1)c1ccccn1 (protonated)
O=S(=O)([N-]c1ccc([N-]S(=O)(=O)c2cc(Cl)ccc2O)cc1)c1ccccn1 (3D coordinates assigned)
O=S(=O)([N-]c1ccc([N-]S(=O)(=O)c2cc(Cl)ccc2O)cc1)c1ccccn1 (optimized conformer: 51.06645775398844 kcal/mol)

>  <smiles>  (11) 
O=S(=O)(Nc1ccc(NS(=O)(=O)c2cc(Cl)ccc2O)cc1)c1ccccn1

>  <score_type>  (11) 
oracle

>  <origin>  (11) 
adg

>  <m_score__min__energy>  (11) 
-12.1

>  <m_primary>  (11) 
energy

$$$$
11:0
     RDKit          3D

 43 45  0  0  0  0  0  0  0  0999 V2000
   58.4919   33.1729   45.7056 H   0  0  0  0  0  0  0  0  0  0  0  0
   58.9740   32.8330   46.6340 C   0  0  0  0  0  0  0  0  0  0  0  0
   59.2820   33.8240   47.6790 C   0  0  0  0  0  0  0  0  0  0  0  0
   58.9960   35.0410   47.5150 O   0  0  0  0  0  0  0  0  0  0  0  0
   59.8660   33.3720   48.9080 N   0  0  0  0  0  0  0  0  0  0  0  0
   59.1730   33.1080   50.1360 C   0  0  0  0  0  0  0  0  0  0  0  0
   59.2780   34.0380   51.1770 C   0  0  0  0  0  0  0  0  0  0  0  0
   59.8936   34.9398   51.0437 H   0  0  0  0  0  0  0  0  0  0  0  0
   58.6070   33.8290   52.3830 C   0  0  0  0  0  0  0  0  0  0  0  0
   58.7067   34.5585   53.2003 H   0  0  0  0  0  0  0  0  0  0  0  0
   57.8090   32.6950   52.5540 C   0  0  0  0  0  0  0  0  0  0  0  0
   57.2885   32.5320   53.5093 H   0  0  0  0  0  0  0  0  0  0  0  0
   57.6670   31.7610   51.5130 C   0  0  0  0  0  0  0  0  0  0  0  0
   56.8050   30.5700   51.6830 C   0  0  0  0  0  0  0  0  0  0  0  0
   55.5510   30.6760   51.6460 O   0  0  0  0  0  0  0  0  0  0  0  0
   57.3690   29.3160   51.8850 O   0  0  0  0  0  0  0  0  0  0  0  0
   58.3480   31.9800   50.3010 C   0  0  0  0  0  0  0  0  0  0  0  0
   58.2343   31.2627   49.4749 H   0  0  0  0  0  0  0  0  0  0  0  0
   59.2610   31.5300   46.7750 C   0  0  0  0  0  0  0  0  0  0  0  0
   60.1225   31.2532   47.4004 H   0  0  0  0  0  0  0  0  0  0  0  0
   58.4820   30.4410   46.1350 C   0  0  0  0  0  0  0  0  0  0  0  0
   57.8200   30.7110   44.9280 C   0  0  0  0  0  0  0  0  0  0  0  0
   57.8805   31.7162   44.4855 H   0  0  0  0  0  0  0  0  0  0  0  0
   57.0850   29.7140   44.2840 C   0  0  0  0  0  0  0  0  0  0  0  0
   56.5657   29.9385   43.3406 H   0  0  0  0  0  0  0  0  0  0  0  0
   57.0070   28.4340   44.8330 C   0  0  0  0  0  0  0  0  0  0  0  0
   56.4265   27.6536   44.3192 H   0  0  0  0  0  0  0  0  0  0  0  0
   57.6650   28.1350   46.0380 C   0  0  0  0  0  0  0  0  0  0  0  0
   57.6130   26.7670   46.6130 C   0  0  0  0  0  0  0  0  0  0  0  0
   58.1060   26.5620   47.7560 O   0  0  0  0  0  0  0  0  0  0  0  0
   57.0210   25.6240   45.8800 C   0  0  0  0  0  0  0  0  0  0  0  0
   57.8470   24.5550   45.4900 C   0  0  0  0  0  0  0  0  0  0  0  0
   58.9200   24.5776   45.7312 H   0  0  0  0  0  0  0  0  0  0  0  0
   57.3140   23.4640   44.7980 C   0  0  0  0  0  0  0  0  0  0  0  0
   57.9697   22.6366   44.4889 H   0  0  0  0  0  0  0  0  0  0  0  0
   55.9500   23.4220   44.4980 C   0  0  0  0  0  0  0  0  0  0  0  0
   55.4230   22.3380   43.8080 O   0  0  0  0  0  0  0  0  0  0  0  0
   55.1150   24.4700   44.8990 C   0  0  0  0  0  0  0  0  0  0  0  0
   54.0407   24.4344   44.6652 H   0  0  0  0  0  0  0  0  0  0  0  0
   55.6400   25.5630   45.5960 C   0  0  0  0  0  0  0  0  0  0  0  0
   54.7790   26.5710   46.0190 O   0  0  0  0  0  0  0  0  0  0  0  0
   58.4150   29.1400   46.6750 C   0  0  0  0  0  0  0  0  0  0  0  0
   58.9553   28.9086   47.6048 H   0  0  0  0  0  0  0  0  0  0  0  0
  1  2  1  0
  2  3  1  0
  3  4  2  0
  3  5  1  0
  5  6  1  0
  6  7  2  0
  7  8  1  0
  7  9  1  0
  9 10  1  0
  9 11  2  0
 11 12  1  0
 11 13  1  0
 13 14  1  0
 14 15  2  0
 14 16  1  0
 13 17  2  0
 17 18  1  0
  2 19  2  0
 19 20  1  0
 19 21  1  0
 21 22  2  0
 22 23  1  0
 22 24  1  0
 24 25  1  0
 24 26  2  0
 26 27  1  0
 26 28  1  0
 28 29  1  0
 29 30  2  0
 29 31  1  0
 31 32  2  0
 32 33  1  0
 32 34  1  0
 34 35  1  0
 34 36  2  0
 36 37  1  0
 36 38  1  0
 38 39  1  0
 38 40  2  0
 40 41  1  0
 28 42  2  0
 42 43  1  0
 17  6  1  0
 42 21  1  0
 40 31  1  0
M  CHG  4   5  -1  16  -1  37  -1  41  -1
M  END
>  <UniqueID>  (12) 
12

>  <SMILES>  (12) 
O=C(/C=C/c1cccc(C(=O)c2ccc([O-])cc2[O-])c1)[N-]c1cccc(C(=O)[O-])c1

>  <Energy>  (12) 
59.68103882289871

>  <Genealogy>  (12) 
O=C(C=Cc1cccc(C(=O)c2ccc([O-])cc2[O-])c1)[N-]c1cccc(C(=O)[O-])c1 (protonated)
O=C(/C=C/c1cccc(C(=O)c2ccc([O-])cc2[O-])c1)[N-]c1cccc(C(=O)[O-])c1 (cis-trans isomerization)
O=C(/C=C/c1cccc(C(=O)c2ccc([O-])cc2[O-])c1)[N-]c1cccc(C(=O)[O-])c1 (3D coordinates assigned)
O=C(/C=C/c1cccc(C(=O)c2ccc([O-])cc2[O-])c1)[N-]c1cccc(C(=O)[O-])c1 (optimized conformer: 59.68103882289871 kcal/mol)

>  <smiles>  (12) 
O=C(C=Cc1cccc(C(=O)c2ccc(O)cc2O)c1)Nc1cccc(C(=O)O)c1

>  <score_type>  (12) 
oracle

>  <origin>  (12) 
adg

>  <m_score__min__energy>  (12) 
-18.989999999999998

>  <m_primary>  (12) 
energy

$$$$
12:0
     RDKit          3D

 41 44  0  0  0  0  0  0  0  0999 V2000
   59.6830   34.0140   49.8620 O   0  0  0  0  0  0  0  0  0  0  0  0
   58.9950   33.0770   49.3710 C   0  0  0  0  0  0  0  0  0  0  0  0
   58.2460   32.2070   50.2320 N   0  0  0  0  0  0  0  0  0  0  0  0
   58.1950   32.3940   51.6790 C   0  0  0  0  0  0  0  0  0  0  0  0
   57.3130   31.3570   52.3010 C   0  0  0  0  0  0  0  0  0  0  0  0
   57.0410   31.2270   53.6470 C   0  0  0  0  0  0  0  0  0  0  0  0
   56.1730   30.1610   53.7470 C   0  0  0  0  0  0  0  0  0  0  0  0
   55.9700   29.7100   52.4580 C   0  0  0  0  0  0  0  0  0  0  0  0
   56.6620   30.4450   51.6180 O   0  0  0  0  0  0  0  0  0  0  0  0
   58.9660   32.8890   47.9130 C   0  0  0  0  0  0  0  0  0  0  0  0
   57.8690   33.0660   47.0920 C   0  0  0  0  0  0  0  0  0  0  0  0
   58.3530   32.7510   45.8410 C   0  0  0  0  0  0  0  0  0  0  0  0
   57.5830   32.7700   44.5590 C   0  0  0  0  0  0  0  0  0  0  0  0
   56.6850   31.6630   44.5010 O   0  0  0  0  0  0  0  0  0  0  0  0
   57.0410   30.3180   44.6970 C   0  0  0  0  0  0  0  0  0  0  0  0
   58.3670   29.9430   44.4440 C   0  0  0  0  0  0  0  0  0  0  0  0
   58.7840   28.6210   44.6290 C   0  0  0  0  0  0  0  0  0  0  0  0
   57.8720   27.6540   45.0700 C   0  0  0  0  0  0  0  0  0  0  0  0
   58.2590   26.3230   45.2660 C   0  0  0  0  0  0  0  0  0  0  0  0
   57.3230   25.3830   45.7050 C   0  0  0  0  0  0  0  0  0  0  0  0
   56.0050   25.7860   45.9440 C   0  0  0  0  0  0  0  0  0  0  0  0
   55.1520   24.9500   46.3400 O   0  0  0  0  0  0  0  0  0  0  0  0
   55.6420   27.0820   45.7490 N   0  0  0  0  0  0  0  0  0  0  0  0
   56.5310   28.0200   45.3220 C   0  0  0  0  0  0  0  0  0  0  0  0
   56.1200   29.3430   45.1330 C   0  0  0  0  0  0  0  0  0  0  0  0
   59.6220   32.4300   45.9420 O   0  0  0  0  0  0  0  0  0  0  0  0
   60.0250   32.5000   47.1770 N   0  0  0  0  0  0  0  0  0  0  0  0
   57.7180   31.4050   49.8200 H   0  0  0  0  0  0  0  0  0  0  0  0
   59.2100   32.3043   52.0934 H   0  0  0  0  0  0  0  0  0  0  0  0
   57.7877   33.3919   51.8989 H   0  0  0  0  0  0  0  0  0  0  0  0
   57.4342   31.8444   54.4681 H   0  0  0  0  0  0  0  0  0  0  0  0
   55.7313   29.7522   54.6677 H   0  0  0  0  0  0  0  0  0  0  0  0
   55.3263   28.8634   52.1772 H   0  0  0  0  0  0  0  0  0  0  0  0
   56.8529   33.3825   47.3703 H   0  0  0  0  0  0  0  0  0  0  0  0
   57.0088   33.7061   44.4951 H   0  0  0  0  0  0  0  0  0  0  0  0
   58.2888   32.7009   43.7181 H   0  0  0  0  0  0  0  0  0  0  0  0
   59.0883   30.6970   44.0959 H   0  0  0  0  0  0  0  0  0  0  0  0
   59.8285   28.3406   44.4281 H   0  0  0  0  0  0  0  0  0  0  0  0
   59.2983   26.0176   45.0747 H   0  0  0  0  0  0  0  0  0  0  0  0
   57.6200   24.3354   45.8613 H   0  0  0  0  0  0  0  0  0  0  0  0
   55.0741   29.6245   45.3251 H   0  0  0  0  0  0  0  0  0  0  0  0
  1  2  2  0
  2  3  1  0
  3  4  1  0
  4  5  1  0
  5  6  2  0
  6  7  1  0
  7  8  2  0
  8  9  1  0
  2 10  1  0
 10 11  1  0
 11 12  2  0
 12 13  1  0
 13 14  1  0
 14 15  1  0
 15 16  2  0
 16 17  1  0
 17 18  2  0
 18 19  1  0
 19 20  2  0
 20 21  1  0
 21 22  2  0
 21 23  1  0
 23 24  1  0
 24 25  2  0
 12 26  1  0
 26 27  1  0
  9  5  1  0
 27 10  2  0
 25 15  1  0
 24 18  1  0
  3 28  1  0
  4 29  1  0
  4 30  1  0
  6 31  1  0
  7 32  1  0
  8 33  1  0
 11 34  1  0
 13 35  1  0
 13 36  1  0
 16 37  1  0
 17 38  1  0
 19 39  1  0
 20 40  1  0
 25 41  1  0
M  CHG  1  23  -1
M  END
>  <UniqueID>  (13) 
13

>  <SMILES>  (13) 
O=C(NCc1ccco1)c1cc(COc2ccc3ccc(=O)[n-]c3c2)on1

>  <Energy>  (13) 
100.03057589762867

>  <Genealogy>  (13) 
O=C(NCc1ccco1)c1cc(COc2ccc3ccc(=O)[n-]c3c2)on1 (protonated)
O=C(NCc1ccco1)c1cc(COc2ccc3ccc(=O)[n-]c3c2)on1 (3D coordinates assigned)
O=C(NCc1ccco1)c1cc(COc2ccc3ccc(=O)[n-]c3c2)on1 (optimized conformer: 100.03057589762867 kcal/mol)

>  <smiles>  (13) 
O=C(NCc1ccco1)c1cc(COc2ccc3ccc(=O)[nH]c3c2)on1

>  <score_type>  (13) 
oracle

>  <origin>  (13) 
adg

>  <m_score__min__energy>  (13) 
-10.15

>  <m_primary>  (13) 
energy

$$$$
13:0
     RDKit          3D

 51 53  0  0  0  0  0  0  0  0999 V2000
   51.0260   32.3360   50.8290 N   0  0  0  0  0  0  0  0  0  0  0  0
   51.7810   30.7820   50.7830 S   0  0  0  0  0  0  0  0  0  0  0  0
   51.4810   30.1260   49.4640 O   0  0  0  0  0  0  0  0  0  0  0  0
   51.2380   29.9330   51.8970 O   0  0  0  0  0  0  0  0  0  0  0  0
   53.5460   30.9780   50.9670 C   0  0  0  0  0  0  0  0  0  0  0  0
   54.0110   30.4890   52.3400 C   0  0  0  0  0  0  0  0  0  0  0  0
   55.3190   31.0550   52.6580 N   0  0  0  0  0  0  0  0  0  0  0  0
   56.5330   30.3040   52.5220 C   0  0  0  0  0  0  0  0  0  0  0  0
   56.4940   29.0660   52.2800 O   0  0  0  0  0  0  0  0  0  0  0  0
   57.8580   30.9960   52.5970 C   0  0  0  0  0  0  0  0  0  0  0  0
   58.5980   30.8130   51.3010 C   0  0  0  0  0  0  0  0  0  0  0  0
   59.4910   29.7400   51.1400 C   0  0  0  0  0  0  0  0  0  0  0  0
   60.1300   29.5330   49.9140 C   0  0  0  0  0  0  0  0  0  0  0  0
   59.8900   30.3930   48.8330 C   0  0  0  0  0  0  0  0  0  0  0  0
   60.5400   30.1180   47.5830 N   0  0  0  0  0  0  0  0  0  0  0  0
   59.9110   29.8830   46.3170 C   0  0  0  0  0  0  0  0  0  0  0  0
   60.0180   28.7590   45.7550 O   0  0  0  0  0  0  0  0  0  0  0  0
   59.1560   30.9420   45.6870 N   0  0  0  0  0  0  0  0  0  0  0  0
   57.9920   30.5350   44.8720 C   0  0  0  0  0  0  0  0  0  0  0  0
   57.2740   31.7250   44.2270 C   0  0  0  0  0  0  0  0  0  0  0  0
   57.0260   32.8240   45.2590 C   0  0  0  0  0  0  0  0  0  0  0  0
   58.3350   33.2730   45.8400 C   0  0  0  0  0  0  0  0  0  0  0  0
   58.5220   34.6160   46.2040 C   0  0  0  0  0  0  0  0  0  0  0  0
   59.7560   35.0450   46.6980 C   0  0  0  0  0  0  0  0  0  0  0  0
   60.8100   34.1400   46.8230 C   0  0  0  0  0  0  0  0  0  0  0  0
   60.6290   32.7980   46.4800 C   0  0  0  0  0  0  0  0  0  0  0  0
   59.3750   32.3370   46.0260 C   0  0  0  0  0  0  0  0  0  0  0  0
   58.9710   31.4480   48.9840 C   0  0  0  0  0  0  0  0  0  0  0  0
   58.3340   31.6580   50.2110 C   0  0  0  0  0  0  0  0  0  0  0  0
   50.2660   32.3270   50.1130 H   0  0  0  0  0  0  0  0  0  0  0  0
   54.0561   30.3954   50.1858 H   0  0  0  0  0  0  0  0  0  0  0  0
   53.7920   32.0460   50.8732 H   0  0  0  0  0  0  0  0  0  0  0  0
   53.2836   30.8025   53.1033 H   0  0  0  0  0  0  0  0  0  0  0  0
   54.0878   29.3918   52.3243 H   0  0  0  0  0  0  0  0  0  0  0  0
   55.3700   32.0580   52.9460 H   0  0  0  0  0  0  0  0  0  0  0  0
   57.7004   32.0692   52.7800 H   0  0  0  0  0  0  0  0  0  0  0  0
   58.4488   30.5647   53.4185 H   0  0  0  0  0  0  0  0  0  0  0  0
   59.6880   29.0602   51.9821 H   0  0  0  0  0  0  0  0  0  0  0  0
   60.8261   28.6894   49.7966 H   0  0  0  0  0  0  0  0  0  0  0  0
   58.3391   29.8602   44.0757 H   0  0  0  0  0  0  0  0  0  0  0  0
   57.2749   30.0393   45.5428 H   0  0  0  0  0  0  0  0  0  0  0  0
   57.8968   32.1260   43.4138 H   0  0  0  0  0  0  0  0  0  0  0  0
   56.3061   31.3842   43.8308 H   0  0  0  0  0  0  0  0  0  0  0  0
   56.5291   33.6769   44.7735 H   0  0  0  0  0  0  0  0  0  0  0  0
   56.3844   32.4330   46.0624 H   0  0  0  0  0  0  0  0  0  0  0  0
   57.6940   35.3327   46.0998 H   0  0  0  0  0  0  0  0  0  0  0  0
   59.8966   36.0966   46.9885 H   0  0  0  0  0  0  0  0  0  0  0  0
   61.7871   34.4842   47.1929 H   0  0  0  0  0  0  0  0  0  0  0  0
   61.4708   32.0950   46.5645 H   0  0  0  0  0  0  0  0  0  0  0  0
   58.7528   32.1103   48.1332 H   0  0  0  0  0  0  0  0  0  0  0  0
   57.6225   32.4894   50.3229 H   0  0  0  0  0  0  0  0  0  0  0  0
  1  2  1  0
  2  3  2  0
  2  4  2  0
  2  5  1  0
  5  6  1  0
  6  7  1  0
  7  8  1  0
  8  9  2  0
  8 10  1  0
 10 11  1  0
 11 12  2  0
 12 13  1  0
 13 14  2  0
 14 15  1  0
 15 16  1  0
 16 17  2  0
 16 18  1  0
 18 19  1  0
 19 20  1  0
 20 21  1  0
 21 22  1  0
 22 23  2  0
 23 24  1  0
 24 25  2  0
 25 26  1  0
 26 27  2  0
 14 28  1  0
 28 29  2  0
 29 11  1  0
 27 18  1  0
 27 22  1  0
  1 30  1  0
  5 31  1  0
  5 32  1  0
  6 33  1  0
  6 34  1  0
  7 35  1  0
 10 36  1  0
 10 37  1  0
 12 38  1  0
 13 39  1  0
 19 40  1  0
 19 41  1  0
 20 42  1  0
 20 43  1  0
 21 44  1  0
 21 45  1  0
 23 46  1  0
 24 47  1  0
 25 48  1  0
 26 49  1  0
 28 50  1  0
 29 51  1  0
M  CHG  2   1  -1  15  -1
M  END
>  <UniqueID>  (14) 
14

>  <SMILES>  (14) 
[NH-]S(=O)(=O)CCNC(=O)Cc1ccc([N-]C(=O)N2CCCc3ccccc32)cc1

>  <Energy>  (14) 
50.10045008008621

>  <Genealogy>  (14) 
[NH-]S(=O)(=O)CCNC(=O)Cc1ccc([N-]C(=O)N2CCCc3ccccc32)cc1 (protonated)
[NH-]S(=O)(=O)CCNC(=O)Cc1ccc([N-]C(=O)N2CCCc3ccccc32)cc1 (3D coordinates assigned)
[NH-]S(=O)(=O)CCNC(=O)Cc1ccc([N-]C(=O)N2CCCc3ccccc32)cc1 (nonaromatic ring conformer: 50.10045008008621 kcal/mol)

>  <smiles>  (14) 
NS(=O)(=O)CCNC(=O)Cc1ccc(NC(=O)N2CCCc3ccccc32)cc1

>  <score_type>  (14) 
oracle

>  <origin>  (14) 
adg

>  <m_score__min__energy>  (14) 
-13.789999999999999

>  <m_primary>  (14) 
energy

$$$$
14:0
     RDKit          3D

 59 62  0  0  0  0  0  0  0  0999 V2000
   63.4010   33.6280   46.4070 C   0  0  0  0  0  0  0  0  0  0  0  0
   62.8690   33.8550   47.6190 C   0  0  0  0  0  0  0  0  0  0  0  0
   63.6860   33.6700   48.6870 N   0  0  0  0  0  0  0  0  0  0  0  0
   63.2310   33.6500   49.9610 C   0  0  0  0  0  0  0  0  0  0  0  0
   64.0610   33.5120   50.9020 O   0  0  0  0  0  0  0  0  0  0  0  0
   61.8910   33.7520   50.2130 N   0  0  0  0  0  0  0  0  0  0  0  0
   61.3790   33.6740   51.5930 C   0  0  0  0  0  0  0  0  0  0  0  0
   61.0210   34.0110   49.1810 C   0  0  0  0  0  0  0  0  0  0  0  0
   59.7900   34.1690   49.4350 O   0  0  0  0  0  0  0  0  0  0  0  0
   61.4890   34.1490   47.8440 C   0  0  0  0  0  0  0  0  0  0  0  0
   60.6130   34.5710   46.8850 C   0  0  0  0  0  0  0  0  0  0  0  0
   59.4300   33.8390   46.3750 C   0  0  0  0  0  0  0  0  0  0  0  0
   58.8360   34.2560   45.1730 C   0  0  0  0  0  0  0  0  0  0  0  0
   57.7810   33.5310   44.6140 C   0  0  0  0  0  0  0  0  0  0  0  0
   57.2860   32.3840   45.2630 C   0  0  0  0  0  0  0  0  0  0  0  0
   56.2200   31.5910   44.7190 N   0  0  0  0  0  0  0  0  0  0  0  0
   56.2080   30.1740   44.4970 C   0  0  0  0  0  0  0  0  0  0  0  0
   55.2010   29.4830   44.8030 O   0  0  0  0  0  0  0  0  0  0  0  0
   57.4530   29.4880   43.9960 C   0  0  0  0  0  0  0  0  0  0  0  0
   58.4350   29.2150   45.0800 N   0  0  0  0  0  0  0  0  0  0  0  0
   57.7360   28.8400   46.3500 C   0  0  0  0  0  0  0  0  0  0  0  0
   57.9930   27.3910   46.8100 C   0  0  0  0  0  0  0  0  0  0  0  0
   58.0000   26.4940   45.6510 N   0  0  0  0  0  0  0  0  0  0  0  0
   57.1560   25.3240   45.6030 C   0  0  0  0  0  0  0  0  0  0  0  0
   56.3380   24.9890   46.6980 C   0  0  0  0  0  0  0  0  0  0  0  0
   55.5190   23.8560   46.6510 C   0  0  0  0  0  0  0  0  0  0  0  0
   55.5080   23.0450   45.5130 C   0  0  0  0  0  0  0  0  0  0  0  0
   56.3240   23.3590   44.4220 C   0  0  0  0  0  0  0  0  0  0  0  0
   56.3150   22.3340   42.9970 Cl  0  0  0  0  0  0  0  0  0  0  0  0
   57.1510   24.4890   44.4680 C   0  0  0  0  0  0  0  0  0  0  0  0
   58.9010   26.8060   44.5360 C   0  0  0  0  0  0  0  0  0  0  0  0
   59.4710   28.2290   44.6720 C   0  0  0  0  0  0  0  0  0  0  0  0
   57.8950   31.9560   46.4490 C   0  0  0  0  0  0  0  0  0  0  0  0
   58.9710   32.6640   46.9920 C   0  0  0  0  0  0  0  0  0  0  0  0
   62.7878   33.7611   45.5035 H   0  0  0  0  0  0  0  0  0  0  0  0
   64.4499   33.3089   46.3178 H   0  0  0  0  0  0  0  0  0  0  0  0
   62.2115   33.8008   52.3007 H   0  0  0  0  0  0  0  0  0  0  0  0
   60.6364   34.4694   51.7541 H   0  0  0  0  0  0  0  0  0  0  0  0
   60.9070   32.6936   51.7541 H   0  0  0  0  0  0  0  0  0  0  0  0
   60.8063   35.5600   46.4441 H   0  0  0  0  0  0  0  0  0  0  0  0
   59.2044   35.1609   44.6675 H   0  0  0  0  0  0  0  0  0  0  0  0
   57.3352   33.8576   43.6629 H   0  0  0  0  0  0  0  0  0  0  0  0
   57.1659   28.5326   43.5327 H   0  0  0  0  0  0  0  0  0  0  0  0
   57.9355   30.1624   43.2732 H   0  0  0  0  0  0  0  0  0  0  0  0
   58.9380   30.1140   45.2720 H   0  0  0  0  0  0  0  0  0  0  0  0
   58.0770   29.5197   47.1449 H   0  0  0  0  0  0  0  0  0  0  0  0
   56.6570   28.9217   46.1524 H   0  0  0  0  0  0  0  0  0  0  0  0
   58.9667   27.3371   47.3189 H   0  0  0  0  0  0  0  0  0  0  0  0
   57.1947   27.0834   47.5015 H   0  0  0  0  0  0  0  0  0  0  0  0
   56.3427   25.6226   47.5972 H   0  0  0  0  0  0  0  0  0  0  0  0
   54.8823   23.6029   47.5116 H   0  0  0  0  0  0  0  0  0  0  0  0
   54.8570   22.1591   45.4756 H   0  0  0  0  0  0  0  0  0  0  0  0
   57.8006   24.7259   43.6125 H   0  0  0  0  0  0  0  0  0  0  0  0
   59.7313   26.0844   44.5312 H   0  0  0  0  0  0  0  0  0  0  0  0
   58.3322   26.7436   43.5966 H   0  0  0  0  0  0  0  0  0  0  0  0
   60.2685   28.2198   45.4296 H   0  0  0  0  0  0  0  0  0  0  0  0
   59.8559   28.5330   43.6874 H   0  0  0  0  0  0  0  0  0  0  0  0
   57.5233   31.0545   46.9580 H   0  0  0  0  0  0  0  0  0  0  0  0
   59.4605   32.2990   47.9070 H   0  0  0  0  0  0  0  0  0  0  0  0
  1  2  2  0
  2  3  1  0
  3  4  1  0
  4  5  2  0
  4  6  1  0
  6  7  1  0
  6  8  1  0
  8  9  2  0
  8 10  1  0
 10 11  2  3
 11 12  1  0
 12 13  2  0
 13 14  1  0
 14 15  2  0
 15 16  1  0
 16 17  1  0
 17 18  2  0
 17 19  1  0
 19 20  1  0
 20 21  1  0
 21 22  1  0
 22 23  1  0
 23 24  1  0
 24 25  2  0
 25 26  1  0
 26 27  2  0
 27 28  1  0
 28 29  1  0
 28 30  2  0
 23 31  1  0
 31 32  1  0
 15 33  1  0
 33 34  2  0
 10  2  1  0
 34 12  1  0
 32 20  1  0
 30 24  1  0
  1 35  1  0
  1 36  1  0
  7 37  1  0
  7 38  1  0
  7 39  1  0
 11 40  1  0
 13 41  1  0
 14 42  1  0
 19 43  1  0
 19 44  1  0
 20 45  1  0
 21 46  1  0
 21 47  1  0
 22 48  1  0
 22 49  1  0
 25 50  1  0
 26 51  1  0
 27 52  1  0
 30 53  1  0
 31 54  1  0
 31 55  1  0
 32 56  1  0
 32 57  1  0
 33 58  1  0
 34 59  1  0
M  CHG  3   3  -1  16  -1  20   1
M  END
>  <UniqueID>  (15) 
15

>  <SMILES>  (15) 
C=c1[n-]c(=O)n(C)c(=O)c1=Cc1ccc([N-]C(=O)C[NH+]2CCN(c3cccc(Cl)c3)CC2)cc1

>  <Energy>  (15) 
106.42104471550776

>  <Genealogy>  (15) 
C=c1[n-]c(=O)n(C)c(=O)c1=Cc1ccc([N-]C(=O)C[NH+]2CCN(c3cccc(Cl)c3)CC2)cc1 (protonated)
C=c1[n-]c(=O)n(C)c(=O)c1=Cc1ccc([N-]C(=O)C[NH+]2CCN(c3cccc(Cl)c3)CC2)cc1 (3D coordinates assigned)
C=c1[n-]c(=O)n(C)c(=O)c1=Cc1ccc([N-]C(=O)C[NH+]2CCN(c3cccc(Cl)c3)CC2)cc1 (nonaromatic ring conformer: 106.42104471550776 kcal/mol)

>  <smiles>  (15) 
C=c1[nH]c(=O)n(C)c(=O)c1=Cc1ccc(NC(=O)CN2CCN(c3cccc(Cl)c3)CC2)cc1

>  <score_type>  (15) 
oracle

>  <origin>  (15) 
adg

>  <m_score__min__energy>  (15) 
-10.619999999999999

>  <m_primary>  (15) 
energy

$$$$
15:0
     RDKit          3D

 32 33  0  0  0  0  0  0  0  0999 V2000
   51.0840   29.9340   48.1720 N   0  0  0  0  0  0  0  0  0  0  0  0
   51.3770   30.5510   49.2690 C   0  0  0  0  0  0  0  0  0  0  0  0
   50.7580   31.6880   49.6480 N   0  0  0  0  0  0  0  0  0  0  0  0
   51.3530   31.9700   50.8190 C   0  0  0  0  0  0  0  0  0  0  0  0
   51.0230   33.0630   51.6090 O   0  0  0  0  0  0  0  0  0  0  0  0
   52.3130   31.0290   51.1080 C   0  0  0  0  0  0  0  0  0  0  0  0
   53.0850   30.9550   52.3650 C   0  0  0  0  0  0  0  0  0  0  0  0
   54.4080   30.7170   52.4770 C   0  0  0  0  0  0  0  0  0  0  0  0
   55.4790   31.7830   52.3740 C   0  0  0  0  0  0  0  0  0  0  0  0
   56.7170   31.2820   51.5990 C   0  0  0  0  0  0  0  0  0  0  0  0
   56.9220   29.8140   51.6840 N   0  0  0  0  0  0  0  0  0  0  0  0
   58.3160   29.4080   51.4040 C   0  0  0  0  0  0  0  0  0  0  0  0
   58.8100   29.8480   50.0490 C   0  0  0  0  0  0  0  0  0  0  0  0
   59.2200   31.1980   49.8270 N   0  0  0  0  0  0  0  0  0  0  0  0
   58.8670   29.0200   49.1010 O   0  0  0  0  0  0  0  0  0  0  0  0
   56.3720   29.2120   52.9120 C   0  0  0  0  0  0  0  0  0  0  0  0
   54.8460   29.3310   52.8900 C   0  0  0  0  0  0  0  0  0  0  0  0
   52.3170   30.1030   50.1320 N   0  0  0  0  0  0  0  0  0  0  0  0
   50.1400   30.0290   47.7330 H   0  0  0  0  0  0  0  0  0  0  0  0
   52.5270   31.1089   53.3004 H   0  0  0  0  0  0  0  0  0  0  0  0
   55.0621   32.6568   51.8518 H   0  0  0  0  0  0  0  0  0  0  0  0
   55.7981   32.0455   53.3935 H   0  0  0  0  0  0  0  0  0  0  0  0
   56.5975   31.5550   50.5401 H   0  0  0  0  0  0  0  0  0  0  0  0
   57.5968   31.7560   52.0586 H   0  0  0  0  0  0  0  0  0  0  0  0
   58.9681   29.8489   52.1724 H   0  0  0  0  0  0  0  0  0  0  0  0
   58.3414   28.3084   51.4162 H   0  0  0  0  0  0  0  0  0  0  0  0
   59.2110   31.8940   50.6050 H   0  0  0  0  0  0  0  0  0  0  0  0
   59.5480   31.5000   48.8830 H   0  0  0  0  0  0  0  0  0  0  0  0
   56.6578   28.1509   52.9616 H   0  0  0  0  0  0  0  0  0  0  0  0
   56.7713   29.7370   53.7923 H   0  0  0  0  0  0  0  0  0  0  0  0
   54.4400   28.5995   52.1758 H   0  0  0  0  0  0  0  0  0  0  0  0
   54.4684   29.1361   53.9046 H   0  0  0  0  0  0  0  0  0  0  0  0
  1  2  2  3
  2  3  1  0
  3  4  1  0
  4  5  1  0
  4  6  2  0
  6  7  1  0
  7  8  2  3
  8  9  1  0
  9 10  1  0
 10 11  1  0
 11 12  1  0
 12 13  1  0
 13 14  1  0
 13 15  2  0
 11 16  1  0
 16 17  1  0
  6 18  1  0
 18  2  1  0
 17  8  1  0
  1 19  1  0
  7 20  1  0
  9 21  1  0
  9 22  1  0
 10 23  1  0
 10 24  1  0
 12 25  1  0
 12 26  1  0
 14 27  1  0
 14 28  1  0
 16 29  1  0
 16 30  1  0
 17 31  1  0
 17 32  1  0
M  CHG  3   3  -1   5  -1  18  -1
M  END
>  <UniqueID>  (16) 
16

>  <SMILES>  (16) 
N=c1[n-]c([O-])c(C=C2CCN(CC(N)=O)CC2)[n-]1

>  <Energy>  (16) 
71.5459871842567

>  <Genealogy>  (16) 
N=c1[n-]c([O-])c(C=C2CCN(CC(N)=O)CC2)[n-]1 (protonated)
N=c1[n-]c([O-])c(C=C2CCN(CC(N)=O)CC2)[n-]1 (3D coordinates assigned)
N=c1[n-]c([O-])c(C=C2CCN(CC(N)=O)CC2)[n-]1 (nonaromatic ring conformer: 71.5459871842567 kcal/mol)

>  <smiles>  (16) 
N=c1[nH]c(O)c(C=C2CCN(CC(N)=O)CC2)[nH]1

>  <score_type>  (16) 
oracle

>  <origin>  (16) 
adg

>  <m_score__min__energy>  (16) 
-13.75

>  <m_primary>  (16) 
energy

$$$$
16:0
     RDKit          3D

 57 60  0  0  0  0  0  0  0  0999 V2000
   60.1460   34.9520   48.2290 C   0  0  0  0  0  0  0  0  0  0  0  0
   59.3800   34.1720   47.2020 C   0  0  0  0  0  0  0  0  0  0  0  0
   59.6380   34.3680   45.8370 C   0  0  0  0  0  0  0  0  0  0  0  0
   58.9520   33.6230   44.8740 C   0  0  0  0  0  0  0  0  0  0  0  0
   58.0130   32.6570   45.2620 C   0  0  0  0  0  0  0  0  0  0  0  0
   57.2500   31.8850   44.2190 C   0  0  0  0  0  0  0  0  0  0  0  0
   56.2690   31.0040   44.8430 N   0  0  0  0  0  0  0  0  0  0  0  0
   56.2500   29.5730   44.7510 C   0  0  0  0  0  0  0  0  0  0  0  0
   55.1590   28.9980   44.4990 O   0  0  0  0  0  0  0  0  0  0  0  0
   57.4730   28.7370   45.0090 C   0  0  0  0  0  0  0  0  0  0  0  0
   58.5420   29.5560   45.5750 N   0  0  0  0  0  0  0  0  0  0  0  0
   59.0730   29.3230   46.8910 C   0  0  0  0  0  0  0  0  0  0  0  0
   58.6500   28.3470   47.5700 O   0  0  0  0  0  0  0  0  0  0  0  0
   60.0840   30.2290   47.4830 C   0  0  0  0  0  0  0  0  0  0  0  0
   60.8940   31.0150   46.6440 C   0  0  0  0  0  0  0  0  0  0  0  0
   61.8690   31.8580   47.1840 C   0  0  0  0  0  0  0  0  0  0  0  0
   62.0400   31.9400   48.5700 C   0  0  0  0  0  0  0  0  0  0  0  0
   63.3110   32.9620   49.2320 S   0  0  0  0  0  0  0  0  0  0  0  0
   62.7290   34.2010   49.8500 O   0  0  0  0  0  0  0  0  0  0  0  0
   64.2390   33.3810   48.1290 O   0  0  0  0  0  0  0  0  0  0  0  0
   64.1990   32.0660   50.4210 N   0  0  0  0  0  0  0  0  0  0  0  0
   63.5660   31.2910   51.4850 C   0  0  0  0  0  0  0  0  0  0  0  0
   64.6990   30.9170   52.4720 C   0  0  0  0  0  0  0  0  0  0  0  0
   65.8940   31.5950   51.8980 C   0  0  0  0  0  0  0  0  0  0  0  0
   67.1910   31.6320   52.4110 C   0  0  0  0  0  0  0  0  0  0  0  0
   68.1730   32.3450   51.7040 C   0  0  0  0  0  0  0  0  0  0  0  0
   67.8420   33.0040   50.5040 C   0  0  0  0  0  0  0  0  0  0  0  0
   66.5280   32.9560   50.0100 C   0  0  0  0  0  0  0  0  0  0  0  0
   65.5720   32.2390   50.7360 C   0  0  0  0  0  0  0  0  0  0  0  0
   61.2270   31.1750   49.4140 C   0  0  0  0  0  0  0  0  0  0  0  0
   60.2550   30.3260   48.8770 C   0  0  0  0  0  0  0  0  0  0  0  0
   57.7580   32.4550   46.6310 C   0  0  0  0  0  0  0  0  0  0  0  0
   58.4470   33.1990   47.5930 C   0  0  0  0  0  0  0  0  0  0  0  0
   59.8357   34.6360   49.2359 H   0  0  0  0  0  0  0  0  0  0  0  0
   61.2228   34.7667   48.1021 H   0  0  0  0  0  0  0  0  0  0  0  0
   59.9412   36.0253   48.1021 H   0  0  0  0  0  0  0  0  0  0  0  0
   60.3845   35.1123   45.5229 H   0  0  0  0  0  0  0  0  0  0  0  0
   59.1499   33.7955   43.8058 H   0  0  0  0  0  0  0  0  0  0  0  0
   56.7300   32.5917   43.5555 H   0  0  0  0  0  0  0  0  0  0  0  0
   57.9596   31.2722   43.6438 H   0  0  0  0  0  0  0  0  0  0  0  0
   57.2196   27.9333   45.7160 H   0  0  0  0  0  0  0  0  0  0  0  0
   57.8189   28.3089   44.0566 H   0  0  0  0  0  0  0  0  0  0  0  0
   58.8870   30.3630   45.0080 H   0  0  0  0  0  0  0  0  0  0  0  0
   60.7589   30.9658   45.5534 H   0  0  0  0  0  0  0  0  0  0  0  0
   62.5042   32.4592   46.5169 H   0  0  0  0  0  0  0  0  0  0  0  0
   62.7998   31.8946   51.9935 H   0  0  0  0  0  0  0  0  0  0  0  0
   63.0653   30.3956   51.0882 H   0  0  0  0  0  0  0  0  0  0  0  0
   64.4807   31.2927   53.4825 H   0  0  0  0  0  0  0  0  0  0  0  0
   64.8325   29.8306   52.5810 H   0  0  0  0  0  0  0  0  0  0  0  0
   67.4391   31.1138   53.3491 H   0  0  0  0  0  0  0  0  0  0  0  0
   69.2028   32.3889   52.0882 H   0  0  0  0  0  0  0  0  0  0  0  0
   68.6152   33.5582   49.9518 H   0  0  0  0  0  0  0  0  0  0  0  0
   66.2578   33.4696   49.0755 H   0  0  0  0  0  0  0  0  0  0  0  0
   61.3534   31.2421   50.5047 H   0  0  0  0  0  0  0  0  0  0  0  0
   59.6194   29.7297   49.5482 H   0  0  0  0  0  0  0  0  0  0  0  0
   57.0135   31.7087   46.9453 H   0  0  0  0  0  0  0  0  0  0  0  0
   58.2571   33.0211   48.6618 H   0  0  0  0  0  0  0  0  0  0  0  0
  1  2  1  0
  2  3  2  0
  3  4  1  0
  4  5  2  0
  5  6  1  0
  6  7  1  0
  7  8  1  0
  8  9  2  0
  8 10  1  0
 10 11  1  0
 11 12  1  0
 12 13  2  0
 12 14  1  0
 14 15  2  0
 15 16  1  0
 16 17  2  0
 17 18  1  0
 18 19  2  0
 18 20  2  0
 18 21  1  0
 21 22  1  0
 22 23  1  0
 23 24  1  0
 24 25  2  0
 25 26  1  0
 26 27  2  0
 27 28  1  0
 28 29  2  0
 17 30  1  0
 30 31  2  0
  5 32  1  0
 32 33  2  0
 33  2  1  0
 31 14  1  0
 29 21  1  0
 29 24  1  0
  1 34  1  0
  1 35  1  0
  1 36  1  0
  3 37  1  0
  4 38  1  0
  6 39  1  0
  6 40  1  0
 10 41  1  0
 10 42  1  0
 11 43  1  0
 15 44  1  0
 16 45  1  0
 22 46  1  0
 22 47  1  0
 23 48  1  0
 23 49  1  0
 25 50  1  0
 26 51  1  0
 27 52  1  0
 28 53  1  0
 30 54  1  0
 31 55  1  0
 32 56  1  0
 33 57  1  0
M  CHG  1   7  -1
M  END
>  <UniqueID>  (17) 
17

>  <SMILES>  (17) 
Cc1ccc(C[N-]C(=O)CNC(=O)c2ccc(S(=O)(=O)N3CCc4ccccc43)cc2)cc1

>  <Energy>  (17) 
73.85788519052183

>  <Genealogy>  (17) 
Cc1ccc(C[N-]C(=O)CNC(=O)c2ccc(S(=O)(=O)N3CCc4ccccc43)cc2)cc1 (protonated)
Cc1ccc(C[N-]C(=O)CNC(=O)c2ccc(S(=O)(=O)N3CCc4ccccc43)cc2)cc1 (3D coordinates assigned)
Cc1ccc(C[N-]C(=O)CNC(=O)c2ccc(S(=O)(=O)N3CCc4ccccc43)cc2)cc1 (nonaromatic ring conformer: 73.85788519052183 kcal/mol)

>  <smiles>  (17) 
Cc1ccc(CNC(=O)CNC(=O)c2ccc(S(=O)(=O)N3CCc4ccccc43)cc2)cc1

>  <score_type>  (17) 
oracle

>  <origin>  (17) 
adg

>  <m_score__min__energy>  (17) 
-11.24

>  <m_primary>  (17) 
energy

$$$$
17:0
     RDKit          3D

 75 79  0  0  0  0  0  0  0  0999 V2000
   55.1620   29.1020   44.8700 O   0  0  0  0  0  0  0  0  0  0  0  0
   56.2760   29.3390   44.3330 C   0  0  0  0  0  0  0  0  0  0  0  0
   56.5150   30.6880   43.7130 C   0  0  0  0  0  0  0  0  0  0  0  0
   57.9320   31.0470   43.7790 N   0  0  0  0  0  0  0  0  0  0  0  0
   58.5570   31.6510   44.9250 C   0  0  0  0  0  0  0  0  0  0  0  0
   59.5250   30.9690   45.6860 C   0  0  0  0  0  0  0  0  0  0  0  0
   60.1110   31.5820   46.7980 C   0  0  0  0  0  0  0  0  0  0  0  0
   59.7420   32.8830   47.1630 C   0  0  0  0  0  0  0  0  0  0  0  0
   60.4680   33.6530   48.5770 S   0  0  0  0  0  0  0  0  0  0  0  0
   59.6150   34.8160   49.0000 O   0  0  0  0  0  0  0  0  0  0  0  0
   60.4990   32.6670   49.7120 O   0  0  0  0  0  0  0  0  0  0  0  0
   62.0960   34.2140   48.2590 N   0  0  0  0  0  0  0  0  0  0  0  0
   62.5610   33.7780   46.9380 C   0  0  0  0  0  0  0  0  0  0  0  0
   63.4320   32.5430   47.1200 C   0  0  0  0  0  0  0  0  0  0  0  0
   63.7660   32.4850   48.5980 C   0  0  0  0  0  0  0  0  0  0  0  0
   63.0460   33.6660   49.2340 C   0  0  0  0  0  0  0  0  0  0  0  0
   58.7820   33.5660   46.4080 C   0  0  0  0  0  0  0  0  0  0  0  0
   58.2020   32.9580   45.2910 C   0  0  0  0  0  0  0  0  0  0  0  0
   57.2680   28.3050   44.3180 N   0  0  0  0  0  0  0  0  0  0  0  0
   57.3490   27.1810   45.2450 C   0  0  0  0  0  0  0  0  0  0  0  0
   58.1970   27.5400   46.4350 C   0  0  0  0  0  0  0  0  0  0  0  0
   57.9690   28.7240   47.1500 C   0  0  0  0  0  0  0  0  0  0  0  0
   58.7870   29.0640   48.2330 C   0  0  0  0  0  0  0  0  0  0  0  0
   59.8590   28.2320   48.6070 C   0  0  0  0  0  0  0  0  0  0  0  0
   60.7570   28.5940   49.7320 C   0  0  0  0  0  0  0  0  0  0  0  0
   61.2680   27.6800   50.4380 O   0  0  0  0  0  0  0  0  0  0  0  0
   61.0960   29.9660   49.9960 N   0  0  0  0  0  0  0  0  0  0  0  0
   61.8090   30.3640   51.1750 C   0  0  0  0  0  0  0  0  0  0  0  0
   63.2030   30.5050   51.1070 C   0  0  0  0  0  0  0  0  0  0  0  0
   63.9370   30.8590   52.2400 C   0  0  0  0  0  0  0  0  0  0  0  0
   63.2850   31.0910   53.4510 C   0  0  0  0  0  0  0  0  0  0  0  0
   61.8950   30.9790   53.5280 C   0  0  0  0  0  0  0  0  0  0  0  0
   61.1420   30.6210   52.3970 C   0  0  0  0  0  0  0  0  0  0  0  0
   59.7050   30.6180   52.4850 N   0  0  0  0  0  0  0  0  0  0  0  0
   59.0220   29.3890   52.9060 C   0  0  0  0  0  0  0  0  0  0  0  0
   57.5420   29.4370   52.5350 C   0  0  0  0  0  0  0  0  0  0  0  0
   57.4030   30.0320   51.2640 O   0  0  0  0  0  0  0  0  0  0  0  0
   57.6070   31.4290   51.3710 C   0  0  0  0  0  0  0  0  0  0  0  0
   58.9450   31.8020   52.0520 C   0  0  0  0  0  0  0  0  0  0  0  0
   60.0690   27.0360   47.8970 C   0  0  0  0  0  0  0  0  0  0  0  0
   59.2490   26.6970   46.8190 C   0  0  0  0  0  0  0  0  0  0  0  0
   56.1983   30.6620   42.6599 H   0  0  0  0  0  0  0  0  0  0  0  0
   55.9349   31.4392   44.2691 H   0  0  0  0  0  0  0  0  0  0  0  0
   58.4960   30.9300   42.9080 H   0  0  0  0  0  0  0  0  0  0  0  0
   59.8222   29.9480   45.4044 H   0  0  0  0  0  0  0  0  0  0  0  0
   60.8647   31.0403   47.3884 H   0  0  0  0  0  0  0  0  0  0  0  0
   61.6974   33.5334   46.3020 H   0  0  0  0  0  0  0  0  0  0  0  0
   63.1385   34.5807   46.4562 H   0  0  0  0  0  0  0  0  0  0  0  0
   62.8833   31.6394   46.8159 H   0  0  0  0  0  0  0  0  0  0  0  0
   64.3406   32.5946   46.5021 H   0  0  0  0  0  0  0  0  0  0  0  0
   63.4103   31.5398   49.0340 H   0  0  0  0  0  0  0  0  0  0  0  0
   64.8515   32.5333   48.7694 H   0  0  0  0  0  0  0  0  0  0  0  0
   62.5047   33.3309   50.1311 H   0  0  0  0  0  0  0  0  0  0  0  0
   63.7737   34.4379   49.5251 H   0  0  0  0  0  0  0  0  0  0  0  0
   58.4827   34.5850   46.6946 H   0  0  0  0  0  0  0  0  0  0  0  0
   57.4607   33.5091   44.6937 H   0  0  0  0  0  0  0  0  0  0  0  0
   56.3366   26.9203   45.5872 H   0  0  0  0  0  0  0  0  0  0  0  0
   57.8063   26.3249   44.7273 H   0  0  0  0  0  0  0  0  0  0  0  0
   57.1429   29.3891   46.8582 H   0  0  0  0  0  0  0  0  0  0  0  0
   58.5909   29.9883   48.7963 H   0  0  0  0  0  0  0  0  0  0  0  0
   61.0390   30.6520   49.2100 H   0  0  0  0  0  0  0  0  0  0  0  0
   63.7222   30.3351   50.1522 H   0  0  0  0  0  0  0  0  0  0  0  0
   65.0310   30.9552   52.1779 H   0  0  0  0  0  0  0  0  0  0  0  0
   63.8654   31.3621   54.3452 H   0  0  0  0  0  0  0  0  0  0  0  0
   61.3849   31.1729   54.4831 H   0  0  0  0  0  0  0  0  0  0  0  0
   59.4908   28.5273   52.4083 H   0  0  0  0  0  0  0  0  0  0  0  0
   59.1087   29.2940   53.9984 H   0  0  0  0  0  0  0  0  0  0  0  0
   57.1355   28.4152   52.5096 H   0  0  0  0  0  0  0  0  0  0  0  0
   56.9920   30.0277   53.2824 H   0  0  0  0  0  0  0  0  0  0  0  0
   57.5975   31.8616   50.3597 H   0  0  0  0  0  0  0  0  0  0  0  0
   56.7985   31.8289   52.0007 H   0  0  0  0  0  0  0  0  0  0  0  0
   59.5572   32.3729   51.3383 H   0  0  0  0  0  0  0  0  0  0  0  0
   58.7106   32.3955   52.9480 H   0  0  0  0  0  0  0  0  0  0  0  0
   60.8862   26.3621   48.1936 H   0  0  0  0  0  0  0  0  0  0  0  0
   59.4297   25.7625   46.2676 H   0  0  0  0  0  0  0  0  0  0  0  0
  1  2  2  0
  2  3  1  0
  3  4  1  0
  4  5  1  0
  5  6  2  0
  6  7  1  0
  7  8  2  0
  8  9  1  0
  9 10  2  0
  9 11  2  0
  9 12  1  0
 12 13  1  0
 13 14  1  0
 14 15  1  0
 15 16  1  0
  8 17  1  0
 17 18  2  0
  2 19  1  0
 19 20  1  0
 20 21  1  0
 21 22  2  0
 22 23  1  0
 23 24  2  0
 24 25  1  0
 25 26  2  0
 25 27  1  0
 27 28  1  0
 28 29  2  0
 29 30  1  0
 30 31  2  0
 31 32  1  0
 32 33  2  0
 33 34  1  0
 34 35  1  0
 35 36  1  0
 36 37  1  0
 37 38  1  0
 38 39  1  0
 24 40  1  0
 40 41  2  0
 18  5  1  0
 41 21  1  0
 16 12  1  0
 33 28  1  0
 39 34  1  0
  3 42  1  0
  3 43  1  0
  4 44  1  0
  6 45  1  0
  7 46  1  0
 13 47  1  0
 13 48  1  0
 14 49  1  0
 14 50  1  0
 15 51  1  0
 15 52  1  0
 16 53  1  0
 16 54  1  0
 17 55  1  0
 18 56  1  0
 20 57  1  0
 20 58  1  0
 22 59  1  0
 23 60  1  0
 27 61  1  0
 29 62  1  0
 30 63  1  0
 31 64  1  0
 32 65  1  0
 35 66  1  0
 35 67  1  0
 36 68  1  0
 36 69  1  0
 38 70  1  0
 38 71  1  0
 39 72  1  0
 39 73  1  0
 40 74  1  0
 41 75  1  0
M  CHG  1  19  -1
M  END
>  <UniqueID>  (18) 
18

>  <SMILES>  (18) 
O=C(CNc1ccc(S(=O)(=O)N2CCCC2)cc1)[N-]Cc1ccc(C(=O)Nc2ccccc2N2CCOCC2)cc1

>  <Energy>  (18) 
94.73974606715903

>  <Genealogy>  (18) 
O=C(CNc1ccc(S(=O)(=O)N2CCCC2)cc1)[N-]Cc1ccc(C(=O)Nc2ccccc2N2CCOCC2)cc1 (protonated)
O=C(CNc1ccc(S(=O)(=O)N2CCCC2)cc1)[N-]Cc1ccc(C(=O)Nc2ccccc2N2CCOCC2)cc1 (3D coordinates assigned)
O=C(CNc1ccc(S(=O)(=O)N2CCCC2)cc1)[N-]Cc1ccc(C(=O)Nc2ccccc2N2CCOCC2)cc1 (nonaromatic ring conformer: 94.73974606715903 kcal/mol)

>  <smiles>  (18) 
O=C(CNc1ccc(S(=O)(=O)N2CCCC2)cc1)NCc1ccc(C(=O)Nc2ccccc2N2CCOCC2)cc1

>  <score_type>  (18) 
oracle

>  <origin>  (18) 
adg

>  <m_score__min__energy>  (18) 
-11.16

>  <m_primary>  (18) 
energy

$$$$
18:0
     RDKit          3D

 54 57  0  0  0  0  0  0  0  0999 V2000
   55.0640   26.3580   46.3040 O   0  0  0  0  0  0  0  0  0  0  0  0
   56.3070   26.1550   46.3660 C   0  0  0  0  0  0  0  0  0  0  0  0
   56.7970   24.8550   46.7210 N   0  0  0  0  0  0  0  0  0  0  0  0
   56.9580   23.7370   45.8380 C   0  0  0  0  0  0  0  0  0  0  0  0
   56.8230   23.8740   44.4430 C   0  0  0  0  0  0  0  0  0  0  0  0
   56.9290   22.7540   43.6120 C   0  0  0  0  0  0  0  0  0  0  0  0
   57.1590   21.4910   44.1650 C   0  0  0  0  0  0  0  0  0  0  0  0
   57.2710   21.3440   45.5500 C   0  0  0  0  0  0  0  0  0  0  0  0
   57.1660   22.4610   46.3860 C   0  0  0  0  0  0  0  0  0  0  0  0
   57.2690   22.2990   47.7640 O   0  0  0  0  0  0  0  0  0  0  0  0
   57.2620   27.2550   46.0650 C   0  0  0  0  0  0  0  0  0  0  0  0
   58.6200   27.1680   46.4380 C   0  0  0  0  0  0  0  0  0  0  0  0
   59.1380   26.0070   47.0010 O   0  0  0  0  0  0  0  0  0  0  0  0
   59.4410   28.1940   46.2440 O   0  0  0  0  0  0  0  0  0  0  0  0
   59.0500   29.3480   45.7210 C   0  0  0  0  0  0  0  0  0  0  0  0
   59.8900   30.2800   45.6080 O   0  0  0  0  0  0  0  0  0  0  0  0
   57.7130   29.5350   45.3260 C   0  0  0  0  0  0  0  0  0  0  0  0
   57.2540   30.8590   44.8260 C   0  0  0  0  0  0  0  0  0  0  0  0
   56.1220   30.9330   44.2790 O   0  0  0  0  0  0  0  0  0  0  0  0
   58.0410   32.1130   44.9540 C   0  0  0  0  0  0  0  0  0  0  0  0
   58.0820   32.9400   46.0150 C   0  0  0  0  0  0  0  0  0  0  0  0
   59.2930   33.3010   46.7810 C   0  0  0  0  0  0  0  0  0  0  0  0
   60.4280   33.8150   46.1360 C   0  0  0  0  0  0  0  0  0  0  0  0
   61.5950   34.0710   46.8620 C   0  0  0  0  0  0  0  0  0  0  0  0
   61.6380   33.8480   48.2430 C   0  0  0  0  0  0  0  0  0  0  0  0
   62.8450   34.0760   48.9180 O   0  0  0  0  0  0  0  0  0  0  0  0
   63.0330   33.8920   50.3180 C   0  0  0  0  0  0  0  0  0  0  0  0
   64.0700   32.8300   50.5400 C   0  0  0  0  0  0  0  0  0  0  0  0
   63.7100   31.6110   51.1400 C   0  0  0  0  0  0  0  0  0  0  0  0
   64.6810   30.6350   51.3870 C   0  0  0  0  0  0  0  0  0  0  0  0
   66.0170   30.8710   51.0440 C   0  0  0  0  0  0  0  0  0  0  0  0
   67.2310   29.6460   51.3560 Cl  0  0  0  0  0  0  0  0  0  0  0  0
   66.3830   32.0880   50.4590 C   0  0  0  0  0  0  0  0  0  0  0  0
   65.4150   33.0680   50.2120 C   0  0  0  0  0  0  0  0  0  0  0  0
   60.4780   33.4000   48.9020 C   0  0  0  0  0  0  0  0  0  0  0  0
   59.3110   33.1330   48.1770 C   0  0  0  0  0  0  0  0  0  0  0  0
   58.1850   32.6700   48.8490 O   0  0  0  0  0  0  0  0  0  0  0  0
   56.8290   28.4500   45.4530 C   0  0  0  0  0  0  0  0  0  0  0  0
   55.5220   28.5720   44.9880 O   0  0  0  0  0  0  0  0  0  0  0  0
   56.6335   24.8653   44.0054 H   0  0  0  0  0  0  0  0  0  0  0  0
   56.8313   22.8672   42.5222 H   0  0  0  0  0  0  0  0  0  0  0  0
   57.2519   20.6125   43.5096 H   0  0  0  0  0  0  0  0  0  0  0  0
   57.4421   20.3478   45.9841 H   0  0  0  0  0  0  0  0  0  0  0  0
   58.6568   32.3960   44.0876 H   0  0  0  0  0  0  0  0  0  0  0  0
   57.1307   33.3863   46.3405 H   0  0  0  0  0  0  0  0  0  0  0  0
   60.3996   34.0173   45.0551 H   0  0  0  0  0  0  0  0  0  0  0  0
   62.4874   34.4511   46.3432 H   0  0  0  0  0  0  0  0  0  0  0  0
   63.3698   34.8359   50.7714 H   0  0  0  0  0  0  0  0  0  0  0  0
   62.0839   33.5852   50.7817 H   0  0  0  0  0  0  0  0  0  0  0  0
   62.6617   31.4240   51.4161 H   0  0  0  0  0  0  0  0  0  0  0  0
   64.3939   29.6802   51.8517 H   0  0  0  0  0  0  0  0  0  0  0  0
   67.4338   32.2750   50.1926 H   0  0  0  0  0  0  0  0  0  0  0  0
   65.7081   34.0270   49.7599 H   0  0  0  0  0  0  0  0  0  0  0  0
   60.4886   33.2589   49.9929 H   0  0  0  0  0  0  0  0  0  0  0  0
  1  2  2  0
  2  3  1  0
  3  4  1  0
  4  5  2  0
  5  6  1  0
  6  7  2  0
  7  8  1  0
  8  9  2  0
  9 10  1  0
  2 11  1  0
 11 12  2  0
 12 13  1  0
 12 14  1  0
 14 15  1  0
 15 16  2  0
 15 17  1  0
 17 18  1  0
 18 19  2  0
 18 20  1  0
 20 21  2  3
 21 22  1  0
 22 23  2  0
 23 24  1  0
 24 25  2  0
 25 26  1  0
 26 27  1  0
 27 28  1  0
 28 29  2  0
 29 30  1  0
 30 31  2  0
 31 32  1  0
 31 33  1  0
 33 34  2  0
 25 35  1  0
 35 36  2  0
 36 37  1  0
 17 38  2  0
 38 39  1  0
  9  4  1  0
 38 11  1  0
 36 22  1  0
 34 28  1  0
  5 40  1  0
  6 41  1  0
  7 42  1  0
  8 43  1  0
 20 44  1  0
 21 45  1  0
 23 46  1  0
 24 47  1  0
 27 48  1  0
 27 49  1  0
 29 50  1  0
 30 51  1  0
 33 52  1  0
 34 53  1  0
 35 54  1  0
M  CHG  5   3  -1  10  -1  13  -1  37  -1  39  -1
M  END
>  <UniqueID>  (19) 
19

>  <SMILES>  (19) 
O=C([N-]c1ccccc1[O-])c1c([O-])oc(=O)c(C(=O)C=Cc2ccc(OCc3ccc(Cl)cc3)cc2[O-])c1[O-]

>  <Energy>  (19) 
78.31246917178278

>  <Genealogy>  (19) 
O=C([N-]c1ccccc1[O-])c1c([O-])oc(=O)c(C(=O)C=Cc2ccc(OCc3ccc(Cl)cc3)cc2[O-])c1[O-] (protonated)
O=C([N-]c1ccccc1[O-])c1c([O-])oc(=O)c(C(=O)C=Cc2ccc(OCc3ccc(Cl)cc3)cc2[O-])c1[O-] (3D coordinates assigned)
O=C([N-]c1ccccc1[O-])c1c([O-])oc(=O)c(C(=O)C=Cc2ccc(OCc3ccc(Cl)cc3)cc2[O-])c1[O-] (optimized conformer: 78.31246917178278 kcal/mol)

>  <smiles>  (19) 
O=C(Nc1ccccc1O)c1c(O)oc(=O)c(C(=O)C=Cc2ccc(OCc3ccc(Cl)cc3)cc2O)c1O

>  <score_type>  (19) 
oracle

>  <origin>  (19) 
adg

>  <m_score__min__energy>  (19) 
-19.620000000000001

>  <m_primary>  (19) 
energy

$$$$
19:0
     RDKit          3D

 62 65  0  0  0  0  0  0  0  0999 V2000
   50.6250   24.4420   44.3280 C   0  0  0  0  0  0  0  0  0  0  0  0
   51.9290   24.8260   44.8540 N   0  0  0  0  0  0  0  0  0  0  0  0
   52.8510   23.8550   45.3680 C   0  0  0  0  0  0  0  0  0  0  0  0
   52.5400   22.6320   45.3570 O   0  0  0  0  0  0  0  0  0  0  0  0
   54.1650   24.2760   45.9000 C   0  0  0  0  0  0  0  0  0  0  0  0
   54.9560   23.4020   46.6620 C   0  0  0  0  0  0  0  0  0  0  0  0
   56.2030   23.8270   47.1160 C   0  0  0  0  0  0  0  0  0  0  0  0
   56.6530   25.1170   46.8280 C   0  0  0  0  0  0  0  0  0  0  0  0
   55.8260   25.9870   46.0920 C   0  0  0  0  0  0  0  0  0  0  0  0
   56.1780   27.1990   45.7750 N   0  0  0  0  0  0  0  0  0  0  0  0
   57.4560   27.6770   45.3180 C   0  0  0  0  0  0  0  0  0  0  0  0
   58.6250   26.9210   45.5150 C   0  0  0  0  0  0  0  0  0  0  0  0
   59.8740   27.4530   45.1800 C   0  0  0  0  0  0  0  0  0  0  0  0
   59.9710   28.7520   44.6780 C   0  0  0  0  0  0  0  0  0  0  0  0
   58.8190   29.5260   44.5090 C   0  0  0  0  0  0  0  0  0  0  0  0
   57.5620   28.9920   44.8270 C   0  0  0  0  0  0  0  0  0  0  0  0
   56.3560   29.8060   44.6500 C   0  0  0  0  0  0  0  0  0  0  0  0
   55.2260   29.2500   44.6240 O   0  0  0  0  0  0  0  0  0  0  0  0
   56.4710   31.2270   44.5270 N   0  0  0  0  0  0  0  0  0  0  0  0
   57.2710   32.0600   45.3770 C   0  0  0  0  0  0  0  0  0  0  0  0
   57.9800   31.5340   46.4710 C   0  0  0  0  0  0  0  0  0  0  0  0
   58.8000   32.3590   47.2450 C   0  0  0  0  0  0  0  0  0  0  0  0
   58.9460   33.7170   46.9210 C   0  0  0  0  0  0  0  0  0  0  0  0
   59.8690   34.5870   47.7350 C   0  0  0  0  0  0  0  0  0  0  0  0
   61.1870   33.9390   47.8920 N   0  0  0  0  0  0  0  0  0  0  0  0
   61.9610   33.9730   46.6290 C   0  0  0  0  0  0  0  0  0  0  0  0
   63.4650   33.6920   46.8550 C   0  0  0  0  0  0  0  0  0  0  0  0
   63.7260   32.9850   48.1260 N   0  0  0  0  0  0  0  0  0  0  0  0
   63.2690   31.5840   48.0800 C   0  0  0  0  0  0  0  0  0  0  0  0
   63.1940   33.7150   49.3020 C   0  0  0  0  0  0  0  0  0  0  0  0
   61.9510   34.5680   48.9800 C   0  0  0  0  0  0  0  0  0  0  0  0
   58.2590   34.2380   45.8140 C   0  0  0  0  0  0  0  0  0  0  0  0
   57.4290   33.4120   45.0470 C   0  0  0  0  0  0  0  0  0  0  0  0
   54.6250   25.5310   45.6420 N   0  0  0  0  0  0  0  0  0  0  0  0
   49.9380   24.2397   45.1629 H   0  0  0  0  0  0  0  0  0  0  0  0
   50.2228   25.2598   43.7121 H   0  0  0  0  0  0  0  0  0  0  0  0
   50.7302   23.5367   43.7121 H   0  0  0  0  0  0  0  0  0  0  0  0
   52.1940   25.8370   44.8250 H   0  0  0  0  0  0  0  0  0  0  0  0
   54.5947   22.3904   46.8987 H   0  0  0  0  0  0  0  0  0  0  0  0
   56.8348   23.1442   47.7030 H   0  0  0  0  0  0  0  0  0  0  0  0
   57.6431   25.4501   47.1725 H   0  0  0  0  0  0  0  0  0  0  0  0
   58.5567   25.9064   45.9346 H   0  0  0  0  0  0  0  0  0  0  0  0
   60.7822   26.8466   45.3123 H   0  0  0  0  0  0  0  0  0  0  0  0
   60.9551   29.1672   44.4151 H   0  0  0  0  0  0  0  0  0  0  0  0
   58.8987   30.5542   44.1264 H   0  0  0  0  0  0  0  0  0  0  0  0
   57.8886   30.4663   46.7192 H   0  0  0  0  0  0  0  0  0  0  0  0
   59.3335   31.9425   48.1121 H   0  0  0  0  0  0  0  0  0  0  0  0
   59.9991   35.5530   47.2251 H   0  0  0  0  0  0  0  0  0  0  0  0
   59.4272   34.7399   48.7307 H   0  0  0  0  0  0  0  0  0  0  0  0
   61.5574   33.2110   45.9461 H   0  0  0  0  0  0  0  0  0  0  0  0
   61.8674   34.9832   46.2038 H   0  0  0  0  0  0  0  0  0  0  0  0
   63.8365   33.0732   46.0249 H   0  0  0  0  0  0  0  0  0  0  0  0
   63.9820   34.6618   46.9008 H   0  0  0  0  0  0  0  0  0  0  0  0
   63.1453   31.2048   49.1051 H   0  0  0  0  0  0  0  0  0  0  0  0
   62.3065   31.5295   47.5503 H   0  0  0  0  0  0  0  0  0  0  0  0
   64.0142   30.9724   47.5503 H   0  0  0  0  0  0  0  0  0  0  0  0
   62.9228   32.9809   50.0751 H   0  0  0  0  0  0  0  0  0  0  0  0
   63.9820   34.4033   49.6416 H   0  0  0  0  0  0  0  0  0  0  0  0
   61.3172   34.6435   49.8758 H   0  0  0  0  0  0  0  0  0  0  0  0
   62.2698   35.5734   48.6676 H   0  0  0  0  0  0  0  0  0  0  0  0
   58.3731   35.2992   45.5480 H   0  0  0  0  0  0  0  0  0  0  0  0
   56.8969   33.8278   44.1787 H   0  0  0  0  0  0  0  0  0  0  0  0
  1  2  1  0
  2  3  1  0
  3  4  2  0
  3  5  1  0
  5  6  2  0
  6  7  1  0
  7  8  2  0
  8  9  1  0
  9 10  2  3
 10 11  1  0
 11 12  2  0
 12 13  1  0
 13 14  2  0
 14 15  1  0
 15 16  2  0
 16 17  1  0
 17 18  2  0
 17 19  1  0
 19 20  1  0
 20 21  2  0
 21 22  1  0
 22 23  2  0
 23 24  1  0
 24 25  1  0
 25 26  1  0
 26 27  1  0
 27 28  1  0
 28 29  1  0
 28 30  1  0
 30 31  1  0
 23 32  1  0
 32 33  2  0
  9 34  1  0
 34  5  1  0
 16 11  1  0
 33 20  1  0
 31 25  1  0
  1 35  1  0
  1 36  1  0
  1 37  1  0
  2 38  1  0
  6 39  1  0
  7 40  1  0
  8 41  1  0
 12 42  1  0
 13 43  1  0
 14 44  1  0
 15 45  1  0
 21 46  1  0
 22 47  1  0
 24 48  1  0
 24 49  1  0
 26 50  1  0
 26 51  1  0
 27 52  1  0
 27 53  1  0
 29 54  1  0
 29 55  1  0
 29 56  1  0
 30 57  1  0
 30 58  1  0
 31 59  1  0
 31 60  1  0
 32 61  1  0
 33 62  1  0
M  CHG  2  19  -1  34  -1
M  END
>  <UniqueID>  (20) 
20

>  <SMILES>  (20) 
CNC(=O)c1cccc(=Nc2ccccc2C(=O)[N-]c2ccc(CN3CCN(C)CC3)cc2)[n-]1

>  <Energy>  (20) 
93.30867280452303

>  <Genealogy>  (20) 
CNC(=O)c1cccc(=Nc2ccccc2C(=O)[N-]c2ccc(CN3CCN(C)CC3)cc2)[n-]1 (protonated)
CNC(=O)c1cccc(=Nc2ccccc2C(=O)[N-]c2ccc(CN3CCN(C)CC3)cc2)[n-]1 (3D coordinates assigned)
CNC(=O)c1cccc(=Nc2ccccc2C(=O)[N-]c2ccc(CN3CCN(C)CC3)cc2)[n-]1 (nonaromatic ring conformer: 93.30867280452303 kcal/mol)

>  <smiles>  (20) 
CNC(=O)c1cccc(=Nc2ccccc2C(=O)Nc2ccc(CN3CCN(C)CC3)cc2)[nH]1

>  <score_type>  (20) 
oracle

>  <origin>  (20) 
adg

>  <m_score__min__energy>  (20) 
-15.09

>  <m_primary>  (20) 
energy

$$$$
20:0
     RDKit          3D

 66 69  0  0  0  0  0  0  0  0999 V2000
   59.3960   33.7670   48.5710 C   0  0  0  0  0  0  0  0  0  0  0  0
   58.8630   32.6530   49.2820 O   0  0  0  0  0  0  0  0  0  0  0  0
   59.3000   31.3280   49.1190 C   0  0  0  0  0  0  0  0  0  0  0  0
   60.3400   30.9870   48.2320 C   0  0  0  0  0  0  0  0  0  0  0  0
   60.7320   29.6560   48.0770 C   0  0  0  0  0  0  0  0  0  0  0  0
   60.0900   28.6420   48.7990 C   0  0  0  0  0  0  0  0  0  0  0  0
   60.4680   27.2300   48.5990 C   0  0  0  0  0  0  0  0  0  0  0  0
   60.0450   26.3590   49.4050 O   0  0  0  0  0  0  0  0  0  0  0  0
   61.2910   26.8080   47.5010 N   0  0  0  0  0  0  0  0  0  0  0  0
   60.8060   26.1340   46.2980 C   0  0  0  0  0  0  0  0  0  0  0  0
   59.3140   26.2940   46.1830 C   0  0  0  0  0  0  0  0  0  0  0  0
   58.7670   27.3230   45.4060 C   0  0  0  0  0  0  0  0  0  0  0  0
   57.3790   27.5150   45.3510 C   0  0  0  0  0  0  0  0  0  0  0  0
   56.8100   28.6470   44.5310 C   0  0  0  0  0  0  0  0  0  0  0  0
   56.9400   29.9180   45.2650 N   0  0  0  0  0  0  0  0  0  0  0  0
   56.5120   31.0740   44.4710 C   0  0  0  0  0  0  0  0  0  0  0  0
   57.2520   32.2770   45.0310 C   0  0  0  0  0  0  0  0  0  0  0  0
   58.4630   31.7070   45.7500 C   0  0  0  0  0  0  0  0  0  0  0  0
   58.3320   30.1940   45.6320 C   0  0  0  0  0  0  0  0  0  0  0  0
   56.5250   26.6210   46.0270 C   0  0  0  0  0  0  0  0  0  0  0  0
   55.1480   26.8230   45.9870 O   0  0  0  0  0  0  0  0  0  0  0  0
   57.0620   25.5360   46.7490 C   0  0  0  0  0  0  0  0  0  0  0  0
   56.1680   24.4880   47.3960 C   0  0  0  0  0  0  0  0  0  0  0  0
   55.7710   23.3670   46.5050 N   0  0  0  0  0  0  0  0  0  0  0  0
   56.8950   22.6140   45.9320 C   0  0  0  0  0  0  0  0  0  0  0  0
   57.1290   23.1380   44.5220 C   0  0  0  0  0  0  0  0  0  0  0  0
   55.8410   23.8450   44.1330 C   0  0  0  0  0  0  0  0  0  0  0  0
   54.9430   23.7740   45.3620 C   0  0  0  0  0  0  0  0  0  0  0  0
   58.4580   25.4270   46.8760 C   0  0  0  0  0  0  0  0  0  0  0  0
   59.0800   28.9790   49.7130 C   0  0  0  0  0  0  0  0  0  0  0  0
   58.6690   30.3190   49.8660 C   0  0  0  0  0  0  0  0  0  0  0  0
   57.6380   30.6860   50.7470 O   0  0  0  0  0  0  0  0  0  0  0  0
   57.8240   31.4740   51.9190 C   0  0  0  0  0  0  0  0  0  0  0  0
   59.7565   34.5204   49.2868 H   0  0  0  0  0  0  0  0  0  0  0  0
   60.2317   33.4326   47.9387 H   0  0  0  0  0  0  0  0  0  0  0  0
   58.6113   34.2079   47.9387 H   0  0  0  0  0  0  0  0  0  0  0  0
   60.8472   31.7757   47.6570 H   0  0  0  0  0  0  0  0  0  0  0  0
   61.5486   29.4026   47.3849 H   0  0  0  0  0  0  0  0  0  0  0  0
   61.2887   26.5755   45.4137 H   0  0  0  0  0  0  0  0  0  0  0  0
   61.0500   25.0633   46.3614 H   0  0  0  0  0  0  0  0  0  0  0  0
   59.4321   27.9865   44.8338 H   0  0  0  0  0  0  0  0  0  0  0  0
   57.3576   28.7184   43.5797 H   0  0  0  0  0  0  0  0  0  0  0  0
   55.7454   28.4509   44.3357 H   0  0  0  0  0  0  0  0  0  0  0  0
   56.7725   30.9260   43.4126 H   0  0  0  0  0  0  0  0  0  0  0  0
   55.4225   31.2147   44.5269 H   0  0  0  0  0  0  0  0  0  0  0  0
   57.5674   32.9475   44.2180 H   0  0  0  0  0  0  0  0  0  0  0  0
   56.6172   32.8700   45.7059 H   0  0  0  0  0  0  0  0  0  0  0  0
   59.3915   32.0509   45.2709 H   0  0  0  0  0  0  0  0  0  0  0  0
   58.5044   32.0322   46.8000 H   0  0  0  0  0  0  0  0  0  0  0  0
   59.0112   29.8144   44.8545 H   0  0  0  0  0  0  0  0  0  0  0  0
   58.5968   29.6994   46.5782 H   0  0  0  0  0  0  0  0  0  0  0  0
   56.7055   24.0655   48.2577 H   0  0  0  0  0  0  0  0  0  0  0  0
   55.2378   25.0054   47.6735 H   0  0  0  0  0  0  0  0  0  0  0  0
   57.7975   22.7645   46.5427 H   0  0  0  0  0  0  0  0  0  0  0  0
   56.6685   21.5378   45.9115 H   0  0  0  0  0  0  0  0  0  0  0  0
   57.9735   23.8427   44.5089 H   0  0  0  0  0  0  0  0  0  0  0  0
   57.3774   22.3273   43.8212 H   0  0  0  0  0  0  0  0  0  0  0  0
   56.0442   24.8928   43.8667 H   0  0  0  0  0  0  0  0  0  0  0  0
   55.3687   23.3748   43.2579 H   0  0  0  0  0  0  0  0  0  0  0  0
   54.4972   24.7607   45.5563 H   0  0  0  0  0  0  0  0  0  0  0  0
   54.1307   23.0500   45.2010 H   0  0  0  0  0  0  0  0  0  0  0  0
   58.8843   24.6506   47.5282 H   0  0  0  0  0  0  0  0  0  0  0  0
   58.6047   28.1908   50.3154 H   0  0  0  0  0  0  0  0  0  0  0  0
   57.6759   30.8464   52.8101 H   0  0  0  0  0  0  0  0  0  0  0  0
   58.8440   31.8857   51.9259 H   0  0  0  0  0  0  0  0  0  0  0  0
   57.0958   32.2984   51.9259 H   0  0  0  0  0  0  0  0  0  0  0  0
  1  2  1  0
  2  3  1  0
  3  4  2  0
  4  5  1  0
  5  6  2  0
  6  7  1  0
  7  8  2  0
  7  9  1  0
  9 10  1  0
 10 11  1  0
 11 12  2  0
 12 13  1  0
 13 14  1  0
 14 15  1  0
 15 16  1  0
 16 17  1  0
 17 18  1  0
 18 19  1  0
 13 20  2  0
 20 21  1  0
 20 22  1  0
 22 23  1  0
 23 24  1  0
 24 25  1  0
 25 26  1  0
 26 27  1  0
 27 28  1  0
 22 29  2  0
  6 30  1  0
 30 31  2  0
 31 32  1  0
 32 33  1  0
 31  3  1  0
 29 11  1  0
 19 15  1  0
 28 24  1  0
  1 34  1  0
  1 35  1  0
  1 36  1  0
  4 37  1  0
  5 38  1  0
 10 39  1  0
 10 40  1  0
 12 41  1  0
 14 42  1  0
 14 43  1  0
 16 44  1  0
 16 45  1  0
 17 46  1  0
 17 47  1  0
 18 48  1  0
 18 49  1  0
 19 50  1  0
 19 51  1  0
 23 52  1  0
 23 53  1  0
 25 54  1  0
 25 55  1  0
 26 56  1  0
 26 57  1  0
 27 58  1  0
 27 59  1  0
 28 60  1  0
 28 61  1  0
 29 62  1  0
 30 63  1  0
 33 64  1  0
 33 65  1  0
 33 66  1  0
M  CHG  2   9  -1  21  -1
M  END
>  <UniqueID>  (21) 
21

>  <SMILES>  (21) 
COc1ccc(C(=O)[N-]Cc2cc(CN3CCCC3)c([O-])c(CN3CCCC3)c2)cc1OC

>  <Energy>  (21) 
77.19397658415323

>  <Genealogy>  (21) 
COc1ccc(C(=O)[N-]Cc2cc(CN3CCCC3)c([O-])c(CN3CCCC3)c2)cc1OC (protonated)
COc1ccc(C(=O)[N-]Cc2cc(CN3CCCC3)c([O-])c(CN3CCCC3)c2)cc1OC (3D coordinates assigned)
COc1ccc(C(=O)[N-]Cc2cc(CN3CCCC3)c([O-])c(CN3CCCC3)c2)cc1OC (nonaromatic ring conformer: 77.19397658415323 kcal/mol)

>  <smiles>  (21) 
COc1ccc(C(=O)NCc2cc(CN3CCCC3)c(O)c(CN3CCCC3)c2)cc1OC

>  <score_type>  (21) 
oracle

>  <origin>  (21) 
adg

>  <m_score__min__energy>  (21) 
-12.73

>  <m_primary>  (21) 
energy

$$$$
21:0
     RDKit          3D

 44 47  0  0  0  0  0  0  0  0999 V2000
   60.7360   27.9420   47.8610 C   0  0  0  0  0  0  0  0  0  0  0  0
   59.8450   28.9110   47.5930 C   0  0  0  0  0  0  0  0  0  0  0  0
   58.8610   28.8790   46.5900 C   0  0  0  0  0  0  0  0  0  0  0  0
   58.4310   27.8760   45.7980 C   0  0  0  0  0  0  0  0  0  0  0  0
   57.2160   27.0730   46.0060 C   0  0  0  0  0  0  0  0  0  0  0  0
   57.2320   25.8010   46.4400 N   0  0  0  0  0  0  0  0  0  0  0  0
   55.9360   25.4270   46.3590 C   0  0  0  0  0  0  0  0  0  0  0  0
   55.5380   24.2830   46.7000 O   0  0  0  0  0  0  0  0  0  0  0  0
   55.1030   26.3720   45.8730 N   0  0  0  0  0  0  0  0  0  0  0  0
   55.9310   27.4020   45.6400 C   0  0  0  0  0  0  0  0  0  0  0  0
   55.5250   28.6080   45.0790 O   0  0  0  0  0  0  0  0  0  0  0  0
   58.3230   30.1500   46.5300 C   0  0  0  0  0  0  0  0  0  0  0  0
   58.9240   30.8860   47.5280 C   0  0  0  0  0  0  0  0  0  0  0  0
   58.5920   32.2900   47.8250 C   0  0  0  0  0  0  0  0  0  0  0  0
   57.9900   32.5830   48.8910 O   0  0  0  0  0  0  0  0  0  0  0  0
   58.9550   33.3260   46.9150 N   0  0  0  0  0  0  0  0  0  0  0  0
   59.7130   33.4670   45.6590 C   0  0  0  0  0  0  0  0  0  0  0  0
   59.6270   34.9560   45.5910 C   0  0  0  0  0  0  0  0  0  0  0  0
   58.8600   34.7950   46.8610 C   0  0  0  0  0  0  0  0  0  0  0  0
   59.8520   30.1440   48.1800 N   0  0  0  0  0  0  0  0  0  0  0  0
   60.7700   30.6630   49.2130 C   0  0  0  0  0  0  0  0  0  0  0  0
   61.6450   31.7600   48.6520 C   0  0  0  0  0  0  0  0  0  0  0  0
   62.5310   31.4850   47.5940 C   0  0  0  0  0  0  0  0  0  0  0  0
   63.3710   32.4850   47.0960 C   0  0  0  0  0  0  0  0  0  0  0  0
   63.3290   33.7700   47.6410 C   0  0  0  0  0  0  0  0  0  0  0  0
   62.4440   34.0590   48.6820 C   0  0  0  0  0  0  0  0  0  0  0  0
   61.6030   33.0620   49.1880 C   0  0  0  0  0  0  0  0  0  0  0  0
   60.7500   33.3720   50.1950 F   0  0  0  0  0  0  0  0  0  0  0  0
   61.4650   28.0747   48.6740 H   0  0  0  0  0  0  0  0  0  0  0  0
   60.7366   27.0159   47.2675 H   0  0  0  0  0  0  0  0  0  0  0  0
   59.0441   27.6365   44.9167 H   0  0  0  0  0  0  0  0  0  0  0  0
   57.5609   30.5063   45.8213 H   0  0  0  0  0  0  0  0  0  0  0  0
   60.7481   33.1046   45.7444 H   0  0  0  0  0  0  0  0  0  0  0  0
   59.3493   32.9031   44.7874 H   0  0  0  0  0  0  0  0  0  0  0  0
   60.5840   35.4912   45.6792 H   0  0  0  0  0  0  0  0  0  0  0  0
   59.2564   35.5102   44.7161 H   0  0  0  0  0  0  0  0  0  0  0  0
   59.3483   35.2839   47.7169 H   0  0  0  0  0  0  0  0  0  0  0  0
   57.8519   35.2337   46.8967 H   0  0  0  0  0  0  0  0  0  0  0  0
   60.1804   31.0648   50.0503 H   0  0  0  0  0  0  0  0  0  0  0  0
   61.4138   29.8404   49.5576 H   0  0  0  0  0  0  0  0  0  0  0  0
   62.5627   30.4765   47.1560 H   0  0  0  0  0  0  0  0  0  0  0  0
   64.0660   32.2595   46.2738 H   0  0  0  0  0  0  0  0  0  0  0  0
   63.9932   34.5549   47.2502 H   0  0  0  0  0  0  0  0  0  0  0  0
   62.4081   35.0736   49.1054 H   0  0  0  0  0  0  0  0  0  0  0  0
  1  2  2  0
  2  3  1  0
  3  4  2  3
  4  5  1  0
  5  6  1  0
  6  7  1  0
  7  8  2  0
  7  9  1  0
  9 10  1  0
 10 11  1  0
  3 12  1  0
 12 13  2  0
 13 14  1  0
 14 15  2  0
 14 16  1  0
 16 17  1  0
 17 18  1  0
 18 19  1  0
 13 20  1  0
 20 21  1  0
 21 22  1  0
 22 23  2  0
 23 24  1  0
 24 25  2  0
 25 26  1  0
 26 27  2  0
 27 28  1  0
 20  2  1  0
 27 22  1  0
 10  5  2  0
 19 16  1  0
  1 29  1  0
  1 30  1  0
  4 31  1  0
 12 32  1  0
 17 33  1  0
 17 34  1  0
 18 35  1  0
 18 36  1  0
 19 37  1  0
 19 38  1  0
 21 39  1  0
 21 40  1  0
 23 41  1  0
 24 42  1  0
 25 43  1  0
 26 44  1  0
M  CHG  3   6  -1   9  -1  11  -1
M  END
>  <UniqueID>  (22) 
22

>  <SMILES>  (22) 
C=c1c(=Cc2[n-]c(=O)[n-]c2[O-])cc(C(=O)N2CCC2)n1Cc1ccccc1F

>  <Energy>  (22) 
164.85081940726056

>  <Genealogy>  (22) 
C=c1c(=Cc2[n-]c(=O)[n-]c2[O-])cc(C(=O)N2CCC2)n1Cc1ccccc1F (protonated)
C=c1c(=Cc2[n-]c(=O)[n-]c2[O-])cc(C(=O)N2CCC2)n1Cc1ccccc1F (3D coordinates assigned)
C=c1c(=Cc2[n-]c(=O)[n-]c2[O-])cc(C(=O)N2CCC2)n1Cc1ccccc1F (nonaromatic ring conformer: 164.85081940726056 kcal/mol)

>  <smiles>  (22) 
C=c1c(=Cc2[nH]c(=O)[nH]c2O)cc(C(=O)N2CCC2)n1Cc1ccccc1F

>  <score_type>  (22) 
oracle

>  <origin>  (22) 
adg

>  <m_score__min__energy>  (22) 
-15.94

>  <m_primary>  (22) 
energy

$$$$
22:0
     RDKit          3D

 46 49  0  0  0  0  0  0  0  0999 V2000
   58.1700   33.9010   46.1510 O   0  0  0  0  0  0  0  0  0  0  0  0
   58.1930   32.7810   46.7290 C   0  0  0  0  0  0  0  0  0  0  0  0
   58.2970   32.7340   48.2240 C   0  0  0  0  0  0  0  0  0  0  0  0
   59.6740   32.3950   48.6530 N   0  0  0  0  0  0  0  0  0  0  0  0
   60.0780   31.0800   48.8070 C   0  0  0  0  0  0  0  0  0  0  0  0
   59.2020   29.8880   48.4820 C   0  0  0  0  0  0  0  0  0  0  0  0
   59.7340   29.1580   47.3320 N   0  0  0  0  0  0  0  0  0  0  0  0
   59.7770   27.8190   47.1900 C   0  0  0  0  0  0  0  0  0  0  0  0
   60.3330   27.5320   45.9620 C   0  0  0  0  0  0  0  0  0  0  0  0
   60.5970   28.7640   45.3980 C   0  0  0  0  0  0  0  0  0  0  0  0
   60.2200   29.7390   46.2480 N   0  0  0  0  0  0  0  0  0  0  0  0
   61.3460   30.8040   49.2100 N   0  0  0  0  0  0  0  0  0  0  0  0
   62.2480   31.7750   49.4700 C   0  0  0  0  0  0  0  0  0  0  0  0
   63.5430   31.4370   49.8800 C   0  0  0  0  0  0  0  0  0  0  0  0
   64.4800   32.4410   50.1370 C   0  0  0  0  0  0  0  0  0  0  0  0
   64.1260   33.7840   49.9840 C   0  0  0  0  0  0  0  0  0  0  0  0
   62.8340   34.1280   49.5730 C   0  0  0  0  0  0  0  0  0  0  0  0
   61.8830   33.1210   49.3140 C   0  0  0  0  0  0  0  0  0  0  0  0
   60.5740   33.4120   48.8960 C   0  0  0  0  0  0  0  0  0  0  0  0
   60.2330   34.6180   48.7390 O   0  0  0  0  0  0  0  0  0  0  0  0
   58.1330   31.5640   45.9680 N   0  0  0  0  0  0  0  0  0  0  0  0
   57.7100   31.5210   44.5970 C   0  0  0  0  0  0  0  0  0  0  0  0
   58.1800   32.4970   43.7010 C   0  0  0  0  0  0  0  0  0  0  0  0
   57.8250   32.4580   42.3530 C   0  0  0  0  0  0  0  0  0  0  0  0
   57.0070   31.4350   41.8770 C   0  0  0  0  0  0  0  0  0  0  0  0
   56.5410   30.4480   42.7470 C   0  0  0  0  0  0  0  0  0  0  0  0
   56.8800   30.4740   44.1140 C   0  0  0  0  0  0  0  0  0  0  0  0
   56.3180   29.4200   44.9980 C   0  0  0  0  0  0  0  0  0  0  0  0
   55.1490   28.9850   44.8330 O   0  0  0  0  0  0  0  0  0  0  0  0
   57.0970   28.8680   46.0080 O   0  0  0  0  0  0  0  0  0  0  0  0
   58.0250   33.7178   48.6341 H   0  0  0  0  0  0  0  0  0  0  0  0
   57.6137   31.9569   48.5973 H   0  0  0  0  0  0  0  0  0  0  0  0
   59.1677   29.2163   49.3524 H   0  0  0  0  0  0  0  0  0  0  0  0
   58.1909   30.2463   48.2384 H   0  0  0  0  0  0  0  0  0  0  0  0
   59.4282   27.0813   47.9276 H   0  0  0  0  0  0  0  0  0  0  0  0
   60.5242   26.5399   45.5272 H   0  0  0  0  0  0  0  0  0  0  0  0
   61.0462   28.9250   44.4069 H   0  0  0  0  0  0  0  0  0  0  0  0
   63.8232   30.3801   50.0000 H   0  0  0  0  0  0  0  0  0  0  0  0
   65.4971   32.1740   50.4600 H   0  0  0  0  0  0  0  0  0  0  0  0
   64.8653   34.5728   50.1873 H   0  0  0  0  0  0  0  0  0  0  0  0
   62.5599   35.1864   49.4518 H   0  0  0  0  0  0  0  0  0  0  0  0
   58.2940   30.6590   46.4650 H   0  0  0  0  0  0  0  0  0  0  0  0
   58.8354   33.3008   44.0675 H   0  0  0  0  0  0  0  0  0  0  0  0
   58.1907   33.2348   41.6653 H   0  0  0  0  0  0  0  0  0  0  0  0
   56.7280   31.4053   40.8134 H   0  0  0  0  0  0  0  0  0  0  0  0
   55.9016   29.6405   42.3607 H   0  0  0  0  0  0  0  0  0  0  0  0
  1  2  2  0
  2  3  1  0
  3  4  1  0
  4  5  1  0
  5  6  1  0
  6  7  1  0
  7  8  1  0
  8  9  2  0
  9 10  1  0
 10 11  2  0
  5 12  2  0
 12 13  1  0
 13 14  2  0
 14 15  1  0
 15 16  2  0
 16 17  1  0
 17 18  2  0
 18 19  1  0
 19 20  2  0
  2 21  1  0
 21 22  1  0
 22 23  2  0
 23 24  1  0
 24 25  2  0
 25 26  1  0
 26 27  2  0
 27 28  1  0
 28 29  2  0
 28 30  1  0
 19  4  1  0
 27 22  1  0
 11  7  1  0
 18 13  1  0
  3 31  1  0
  3 32  1  0
  6 33  1  0
  6 34  1  0
  8 35  1  0
  9 36  1  0
 10 37  1  0
 14 38  1  0
 15 39  1  0
 16 40  1  0
 17 41  1  0
 21 42  1  0
 23 43  1  0
 24 44  1  0
 25 45  1  0
 26 46  1  0
M  CHG  1  30  -1
M  END
>  <UniqueID>  (23) 
23

>  <SMILES>  (23) 
O=C(Cn1c(Cn2cccn2)nc2ccccc2c1=O)Nc1ccccc1C(=O)[O-]

>  <Energy>  (23) 
92.3821849411804

>  <Genealogy>  (23) 
O=C(Cn1c(Cn2cccn2)nc2ccccc2c1=O)Nc1ccccc1C(=O)[O-] (protonated)
O=C(Cn1c(Cn2cccn2)nc2ccccc2c1=O)Nc1ccccc1C(=O)[O-] (3D coordinates assigned)
O=C(Cn1c(Cn2cccn2)nc2ccccc2c1=O)Nc1ccccc1C(=O)[O-] (optimized conformer: 92.3821849411804 kcal/mol)

>  <smiles>  (23) 
O=C(Cn1c(Cn2cccn2)nc2ccccc2c1=O)Nc1ccccc1C(=O)O

>  <score_type>  (23) 
oracle

>  <origin>  (23) 
adg

>  <m_score__min__energy>  (23) 
-11.050000000000001

>  <m_primary>  (23) 
energy

$$$$
23:0
     RDKit          3D

 60 63  0  0  0  0  0  0  0  0999 V2000
   64.0710   32.1840   47.8300 N   0  0  0  0  0  0  0  0  0  0  0  0
   62.9080   33.3960   47.4060 S   0  0  0  0  0  0  0  0  0  0  0  0
   63.5170   34.3330   46.3990 O   0  0  0  0  0  0  0  0  0  0  0  0
   62.5210   34.1750   48.6320 O   0  0  0  0  0  0  0  0  0  0  0  0
   61.5000   32.6570   46.7110 N   0  0  0  0  0  0  0  0  0  0  0  0
   61.5820   31.2050   46.8530 C   0  0  0  0  0  0  0  0  0  0  0  0
   60.6740   30.7520   47.9720 C   0  0  0  0  0  0  0  0  0  0  0  0
   61.1670   29.8470   48.9300 C   0  0  0  0  0  0  0  0  0  0  0  0
   60.3570   29.4180   49.9840 C   0  0  0  0  0  0  0  0  0  0  0  0
   59.0490   29.8910   50.1010 C   0  0  0  0  0  0  0  0  0  0  0  0
   58.5420   30.7900   49.1610 C   0  0  0  0  0  0  0  0  0  0  0  0
   59.3380   31.2180   48.0850 C   0  0  0  0  0  0  0  0  0  0  0  0
   58.7500   32.1610   47.1050 C   0  0  0  0  0  0  0  0  0  0  0  0
   58.8900   33.5350   47.3560 C   0  0  0  0  0  0  0  0  0  0  0  0
   58.4000   34.4750   46.4490 C   0  0  0  0  0  0  0  0  0  0  0  0
   57.7630   34.0550   45.2810 C   0  0  0  0  0  0  0  0  0  0  0  0
   57.6080   32.6930   45.0180 C   0  0  0  0  0  0  0  0  0  0  0  0
   58.0840   31.7260   45.9260 C   0  0  0  0  0  0  0  0  0  0  0  0
   57.8730   30.2900   45.6080 C   0  0  0  0  0  0  0  0  0  0  0  0
   56.7020   29.8470   45.4570 O   0  0  0  0  0  0  0  0  0  0  0  0
   58.9880   29.3930   45.5250 N   0  0  0  0  0  0  0  0  0  0  0  0
   58.9610   27.9830   45.7850 C   0  0  0  0  0  0  0  0  0  0  0  0
   60.1400   27.2410   45.9840 C   0  0  0  0  0  0  0  0  0  0  0  0
   60.0700   25.8750   46.2660 C   0  0  0  0  0  0  0  0  0  0  0  0
   58.8280   25.2420   46.3700 C   0  0  0  0  0  0  0  0  0  0  0  0
   57.6480   25.9800   46.2050 C   0  0  0  0  0  0  0  0  0  0  0  0
   56.0750   25.1910   46.2900 S   0  0  0  0  0  0  0  0  0  0  0  0
   55.8510   24.6340   47.6700 O   0  0  0  0  0  0  0  0  0  0  0  0
   55.0040   26.2090   46.0070 O   0  0  0  0  0  0  0  0  0  0  0  0
   56.0030   23.9110   45.1040 N   0  0  0  0  0  0  0  0  0  0  0  0
   56.5600   24.3810   43.8240 C   0  0  0  0  0  0  0  0  0  0  0  0
   56.6680   23.2180   42.8150 C   0  0  0  0  0  0  0  0  0  0  0  0
   56.0950   22.0310   43.3330 O   0  0  0  0  0  0  0  0  0  0  0  0
   56.7930   21.6400   44.5020 C   0  0  0  0  0  0  0  0  0  0  0  0
   56.7560   22.7410   45.5850 C   0  0  0  0  0  0  0  0  0  0  0  0
   57.7200   27.3490   45.9170 C   0  0  0  0  0  0  0  0  0  0  0  0
   64.8900   32.6790   48.2480 H   0  0  0  0  0  0  0  0  0  0  0  0
   64.4030   31.7510   46.9390 H   0  0  0  0  0  0  0  0  0  0  0  0
   61.2701   30.7272   45.9126 H   0  0  0  0  0  0  0  0  0  0  0  0
   62.6184   30.9192   47.0858 H   0  0  0  0  0  0  0  0  0  0  0  0
   62.1987   29.4743   48.8482 H   0  0  0  0  0  0  0  0  0  0  0  0
   60.7509   28.7055   50.7238 H   0  0  0  0  0  0  0  0  0  0  0  0
   58.4164   29.5547   50.9357 H   0  0  0  0  0  0  0  0  0  0  0  0
   57.5132   31.1656   49.2632 H   0  0  0  0  0  0  0  0  0  0  0  0
   59.3902   33.8733   48.2754 H   0  0  0  0  0  0  0  0  0  0  0  0
   58.5161   35.5493   46.6552 H   0  0  0  0  0  0  0  0  0  0  0  0
   57.3821   34.7989   44.5658 H   0  0  0  0  0  0  0  0  0  0  0  0
   57.1090   32.3710   44.0921 H   0  0  0  0  0  0  0  0  0  0  0  0
   61.1190   27.7381   45.9173 H   0  0  0  0  0  0  0  0  0  0  0  0
   60.9945   25.2957   46.4066 H   0  0  0  0  0  0  0  0  0  0  0  0
   58.7768   24.1637   46.5815 H   0  0  0  0  0  0  0  0  0  0  0  0
   55.9030   25.1594   43.4086 H   0  0  0  0  0  0  0  0  0  0  0  0
   57.5664   24.7867   44.0044 H   0  0  0  0  0  0  0  0  0  0  0  0
   56.1411   23.4961   41.8903 H   0  0  0  0  0  0  0  0  0  0  0  0
   57.7333   23.0302   42.6152 H   0  0  0  0  0  0  0  0  0  0  0  0
   56.3297   20.7275   44.9054 H   0  0  0  0  0  0  0  0  0  0  0  0
   57.8439   21.4616   44.2303 H   0  0  0  0  0  0  0  0  0  0  0  0
   56.2701   22.3441   46.4885 H   0  0  0  0  0  0  0  0  0  0  0  0
   57.7865   23.0502   45.8139 H   0  0  0  0  0  0  0  0  0  0  0  0
   56.7943   27.9302   45.7936 H   0  0  0  0  0  0  0  0  0  0  0  0
  1  2  1  0
  2  3  2  0
  2  4  2  0
  2  5  1  0
  5  6  1  0
  6  7  1  0
  7  8  2  0
  8  9  1  0
  9 10  2  0
 10 11  1  0
 11 12  2  0
 12 13  1  0
 13 14  2  0
 14 15  1  0
 15 16  2  0
 16 17  1  0
 17 18  2  0
 18 19  1  0
 19 20  2  0
 19 21  1  0
 21 22  1  0
 22 23  2  0
 23 24  1  0
 24 25  2  0
 25 26  1  0
 26 27  1  0
 27 28  2  0
 27 29  2  0
 27 30  1  0
 30 31  1  0
 31 32  1  0
 32 33  1  0
 33 34  1  0
 34 35  1  0
 26 36  2  0
 12  7  1  0
 18 13  1  0
 36 22  1  0
 35 30  1  0
  1 37  1  0
  1 38  1  0
  6 39  1  0
  6 40  1  0
  8 41  1  0
  9 42  1  0
 10 43  1  0
 11 44  1  0
 14 45  1  0
 15 46  1  0
 16 47  1  0
 17 48  1  0
 23 49  1  0
 24 50  1  0
 25 51  1  0
 31 52  1  0
 31 53  1  0
 32 54  1  0
 32 55  1  0
 34 56  1  0
 34 57  1  0
 35 58  1  0
 35 59  1  0
 36 60  1  0
M  CHG  2   5  -1  21  -1
M  END
>  <UniqueID>  (24) 
24

>  <SMILES>  (24) 
NS(=O)(=O)[N-]Cc1ccccc1-c1ccccc1C(=O)[N-]c1cccc(S(=O)(=O)N2CCOCC2)c1

>  <Energy>  (24) 
77.27869024840734

>  <Genealogy>  (24) 
NS(=O)(=O)[N-]Cc1ccccc1-c1ccccc1C(=O)[N-]c1cccc(S(=O)(=O)N2CCOCC2)c1 (protonated)
NS(=O)(=O)[N-]Cc1ccccc1-c1ccccc1C(=O)[N-]c1cccc(S(=O)(=O)N2CCOCC2)c1 (3D coordinates assigned)
NS(=O)(=O)[N-]Cc1ccccc1-c1ccccc1C(=O)[N-]c1cccc(S(=O)(=O)N2CCOCC2)c1 (nonaromatic ring conformer: 77.27869024840734 kcal/mol)

>  <smiles>  (24) 
NS(=O)(=O)NCc1ccccc1-c1ccccc1C(=O)Nc1cccc(S(=O)(=O)N2CCOCC2)c1

>  <score_type>  (24) 
oracle

>  <origin>  (24) 
adg

>  <m_score__min__energy>  (24) 
-13.699999999999999

>  <m_primary>  (24) 
energy

$$$$
24:0
     RDKit          3D

 52 55  0  0  0  0  0  0  0  0999 V2000
   55.0260   30.8540   51.3940 C   0  0  0  0  0  0  0  0  0  0  0  0
   54.8330   30.4260   52.6520 C   0  0  0  0  0  0  0  0  0  0  0  0
   53.6060   30.4090   53.3380 C   0  0  0  0  0  0  0  0  0  0  0  0
   52.4280   31.0020   53.0600 C   0  0  0  0  0  0  0  0  0  0  0  0
   51.8160   31.1080   51.7250 C   0  0  0  0  0  0  0  0  0  0  0  0
   52.0450   30.2580   50.7080 N   0  0  0  0  0  0  0  0  0  0  0  0
   51.3850   30.8220   49.6740 C   0  0  0  0  0  0  0  0  0  0  0  0
   51.3490   30.3030   48.5280 O   0  0  0  0  0  0  0  0  0  0  0  0
   50.7750   31.9920   49.9630 N   0  0  0  0  0  0  0  0  0  0  0  0
   51.0700   32.1630   51.2610 C   0  0  0  0  0  0  0  0  0  0  0  0
   50.6710   33.2660   52.0070 O   0  0  0  0  0  0  0  0  0  0  0  0
   53.8020   29.6320   54.4620 C   0  0  0  0  0  0  0  0  0  0  0  0
   55.1280   29.2620   54.4690 C   0  0  0  0  0  0  0  0  0  0  0  0
   55.7560   28.4300   55.5470 C   0  0  0  0  0  0  0  0  0  0  0  0
   55.7760   29.7740   53.3930 N   0  0  0  0  0  0  0  0  0  0  0  0
   57.2010   29.5580   53.0750 C   0  0  0  0  0  0  0  0  0  0  0  0
   57.8840   30.8500   52.6800 C   0  0  0  0  0  0  0  0  0  0  0  0
   57.6450   32.0120   53.4390 C   0  0  0  0  0  0  0  0  0  0  0  0
   58.2410   33.2240   53.0890 C   0  0  0  0  0  0  0  0  0  0  0  0
   59.0890   33.2960   51.9850 C   0  0  0  0  0  0  0  0  0  0  0  0
   59.3520   32.1520   51.2310 C   0  0  0  0  0  0  0  0  0  0  0  0
   58.7680   30.9240   51.5750 C   0  0  0  0  0  0  0  0  0  0  0  0
   59.1010   29.7390   50.7630 C   0  0  0  0  0  0  0  0  0  0  0  0
   58.5300   29.6040   49.6460 O   0  0  0  0  0  0  0  0  0  0  0  0
   60.0770   28.7650   51.1950 N   0  0  0  0  0  0  0  0  0  0  0  0
   60.4110   27.6540   50.2930 C   0  0  0  0  0  0  0  0  0  0  0  0
   61.4770   26.7420   50.9090 C   0  0  0  0  0  0  0  0  0  0  0  0
   61.1490   26.4440   52.3080 N   0  0  0  0  0  0  0  0  0  0  0  0
   61.1100   27.6480   53.1620 C   0  0  0  0  0  0  0  0  0  0  0  0
   60.9000   28.9720   52.3970 C   0  0  0  0  0  0  0  0  0  0  0  0
   56.0324   30.8237   50.9510 H   0  0  0  0  0  0  0  0  0  0  0  0
   54.1777   31.2349   50.8064 H   0  0  0  0  0  0  0  0  0  0  0  0
   51.8766   31.4447   53.9026 H   0  0  0  0  0  0  0  0  0  0  0  0
   53.0428   29.3601   55.2101 H   0  0  0  0  0  0  0  0  0  0  0  0
   55.4604   28.8216   56.5315 H   0  0  0  0  0  0  0  0  0  0  0  0
   55.4173   27.3879   55.4501 H   0  0  0  0  0  0  0  0  0  0  0  0
   56.8510   28.4701   55.4501 H   0  0  0  0  0  0  0  0  0  0  0  0
   57.7057   29.1431   53.9600 H   0  0  0  0  0  0  0  0  0  0  0  0
   57.2631   28.8615   52.2259 H   0  0  0  0  0  0  0  0  0  0  0  0
   56.9824   31.9636   54.3157 H   0  0  0  0  0  0  0  0  0  0  0  0
   58.0410   34.1258   53.6863 H   0  0  0  0  0  0  0  0  0  0  0  0
   59.5510   34.2551   51.7082 H   0  0  0  0  0  0  0  0  0  0  0  0
   60.0220   32.2135   50.3607 H   0  0  0  0  0  0  0  0  0  0  0  0
   59.5030   27.0643   50.0985 H   0  0  0  0  0  0  0  0  0  0  0  0
   60.8092   28.0727   49.3570 H   0  0  0  0  0  0  0  0  0  0  0  0
   61.5230   25.8021   50.3394 H   0  0  0  0  0  0  0  0  0  0  0  0
   62.4496   27.2544   50.8719 H   0  0  0  0  0  0  0  0  0  0  0  0
   60.2130   25.9750   52.3330 H   0  0  0  0  0  0  0  0  0  0  0  0
   60.2852   27.5324   53.8805 H   0  0  0  0  0  0  0  0  0  0  0  0
   62.0959   27.7199   53.6446 H   0  0  0  0  0  0  0  0  0  0  0  0
   60.3958   29.6925   53.0578 H   0  0  0  0  0  0  0  0  0  0  0  0
   61.8830   29.3549   52.0854 H   0  0  0  0  0  0  0  0  0  0  0  0
  1  2  2  0
  2  3  1  0
  3  4  2  3
  4  5  1  0
  5  6  1  0
  6  7  1  0
  7  8  2  0
  7  9  1  0
  9 10  1  0
 10 11  1  0
  3 12  1  0
 12 13  2  0
 13 14  1  0
 13 15  1  0
 15 16  1  0
 16 17  1  0
 17 18  2  0
 18 19  1  0
 19 20  2  0
 20 21  1  0
 21 22  2  0
 22 23  1  0
 23 24  2  0
 23 25  1  0
 25 26  1  0
 26 27  1  0
 27 28  1  0
 28 29  1  0
 29 30  1  0
 15  2  1  0
 22 17  1  0
 30 25  1  0
 10  5  2  0
  1 31  1  0
  1 32  1  0
  4 33  1  0
 12 34  1  0
 14 35  1  0
 14 36  1  0
 14 37  1  0
 16 38  1  0
 16 39  1  0
 18 40  1  0
 19 41  1  0
 20 42  1  0
 21 43  1  0
 26 44  1  0
 26 45  1  0
 27 46  1  0
 27 47  1  0
 28 48  1  0
 29 49  1  0
 29 50  1  0
 30 51  1  0
 30 52  1  0
M  CHG  3   6  -1   9  -1  11  -1
M  END
>  <UniqueID>  (25) 
25

>  <SMILES>  (25) 
C=c1c(=Cc2[n-]c(=O)[n-]c2[O-])cc(C)n1Cc1ccccc1C(=O)N1CCNCC1

>  <Energy>  (25) 
133.50493111704213

>  <Genealogy>  (25) 
C=c1c(=Cc2[n-]c(=O)[n-]c2[O-])cc(C)n1Cc1ccccc1C(=O)N1CCNCC1 (protonated)
C=c1c(=Cc2[n-]c(=O)[n-]c2[O-])cc(C)n1Cc1ccccc1C(=O)N1CCNCC1 (3D coordinates assigned)
C=c1c(=Cc2[n-]c(=O)[n-]c2[O-])cc(C)n1Cc1ccccc1C(=O)N1CCNCC1 (nonaromatic ring conformer: 133.50493111704213 kcal/mol)

>  <smiles>  (25) 
C=c1c(=Cc2[nH]c(=O)[nH]c2O)cc(C)n1Cc1ccccc1C(=O)N1CCNCC1

>  <score_type>  (25) 
oracle

>  <origin>  (25) 
adg

>  <m_score__min__energy>  (25) 
-16.190000000000001

>  <m_primary>  (25) 
energy

$$$$
25:0
     RDKit          3D

 41 44  0  0  0  0  0  0  0  0999 V2000
   57.3140   28.1980   43.4640 N   0  0  0  0  0  0  0  0  0  0  0  0
   56.5110   29.7190   43.6370 S   0  0  0  0  0  0  0  0  0  0  0  0
   55.1780   29.5100   44.2990 O   0  0  0  0  0  0  0  0  0  0  0  0
   56.2850   30.3290   42.2810 O   0  0  0  0  0  0  0  0  0  0  0  0
   57.5010   30.7930   44.6180 C   0  0  0  0  0  0  0  0  0  0  0  0
   57.6920   32.1260   44.2300 C   0  0  0  0  0  0  0  0  0  0  0  0
   58.4840   32.9760   45.0050 C   0  0  0  0  0  0  0  0  0  0  0  0
   59.0950   32.4990   46.1660 C   0  0  0  0  0  0  0  0  0  0  0  0
   58.9280   31.1600   46.5560 C   0  0  0  0  0  0  0  0  0  0  0  0
   59.5650   30.6440   47.7870 C   0  0  0  0  0  0  0  0  0  0  0  0
   59.9190   29.3290   48.0970 C   0  0  0  0  0  0  0  0  0  0  0  0
   59.5400   28.0970   47.3690 C   0  0  0  0  0  0  0  0  0  0  0  0
   60.5180   27.2690   46.7950 C   0  0  0  0  0  0  0  0  0  0  0  0
   60.1450   26.1160   46.1020 C   0  0  0  0  0  0  0  0  0  0  0  0
   58.7960   25.7840   45.9640 C   0  0  0  0  0  0  0  0  0  0  0  0
   57.8000   26.6090   46.5140 C   0  0  0  0  0  0  0  0  0  0  0  0
   56.3690   26.2660   46.3630 C   0  0  0  0  0  0  0  0  0  0  0  0
   55.9030   25.2200   46.8890 O   0  0  0  0  0  0  0  0  0  0  0  0
   55.5180   27.0920   45.6380 O   0  0  0  0  0  0  0  0  0  0  0  0
   58.1830   27.7700   47.2110 C   0  0  0  0  0  0  0  0  0  0  0  0
   60.7160   29.3190   49.1950 N   0  0  0  0  0  0  0  0  0  0  0  0
   60.7610   30.6160   49.5560 C   0  0  0  0  0  0  0  0  0  0  0  0
   60.1050   31.4200   48.7410 N   0  0  0  0  0  0  0  0  0  0  0  0
   60.4440   32.8270   48.7880 C   0  0  0  0  0  0  0  0  0  0  0  0
   61.6840   32.9360   49.7030 C   0  0  0  0  0  0  0  0  0  0  0  0
   61.9050   31.3760   50.6690 S   0  0  0  0  0  0  0  0  0  0  0  0
   58.1230   30.3140   45.7790 C   0  0  0  0  0  0  0  0  0  0  0  0
   56.9320   27.5650   44.2030 H   0  0  0  0  0  0  0  0  0  0  0  0
   57.0180   27.8000   42.5440 H   0  0  0  0  0  0  0  0  0  0  0  0
   57.2169   32.5038   43.3126 H   0  0  0  0  0  0  0  0  0  0  0  0
   58.6266   34.0232   44.7001 H   0  0  0  0  0  0  0  0  0  0  0  0
   59.7101   33.1749   46.7782 H   0  0  0  0  0  0  0  0  0  0  0  0
   61.5822   27.5299   46.8918 H   0  0  0  0  0  0  0  0  0  0  0  0
   60.9168   25.4667   45.6631 H   0  0  0  0  0  0  0  0  0  0  0  0
   58.5108   24.8707   45.4212 H   0  0  0  0  0  0  0  0  0  0  0  0
   57.4115   28.4285   47.6366 H   0  0  0  0  0  0  0  0  0  0  0  0
   60.6796   33.1973   47.7793 H   0  0  0  0  0  0  0  0  0  0  0  0
   59.6073   33.4305   49.1698 H   0  0  0  0  0  0  0  0  0  0  0  0
   62.5772   33.1101   49.0850 H   0  0  0  0  0  0  0  0  0  0  0  0
   61.5413   33.7733   50.4020 H   0  0  0  0  0  0  0  0  0  0  0  0
   57.9788   29.2668   46.0832 H   0  0  0  0  0  0  0  0  0  0  0  0
  1  2  1  0
  2  3  2  0
  2  4  2  0
  2  5  1  0
  5  6  2  0
  6  7  1  0
  7  8  2  0
  8  9  1  0
  9 10  1  0
 10 11  2  0
 11 12  1  0
 12 13  2  0
 13 14  1  0
 14 15  2  0
 15 16  1  0
 16 17  1  0
 17 18  2  0
 17 19  1  0
 16 20  2  0
 11 21  1  0
 21 22  2  0
 22 23  1  0
 23 24  1  0
 24 25  1  0
 25 26  1  0
  9 27  2  0
 27  5  1  0
 23 10  1  0
 20 12  1  0
 26 22  1  0
  1 28  1  0
  1 29  1  0
  6 30  1  0
  7 31  1  0
  8 32  1  0
 13 33  1  0
 14 34  1  0
 15 35  1  0
 20 36  1  0
 24 37  1  0
 24 38  1  0
 25 39  1  0
 25 40  1  0
 27 41  1  0
M  CHG  1  19  -1
M  END
>  <UniqueID>  (26) 
26

>  <SMILES>  (26) 
NS(=O)(=O)c1cccc(-c2c(-c3cccc(C(=O)[O-])c3)nc3n2CCS3)c1

>  <Energy>  (26) 
96.99788256517986

>  <Genealogy>  (26) 
NS(=O)(=O)c1cccc(-c2c(-c3cccc(C(=O)[O-])c3)nc3n2CCS3)c1 (protonated)
NS(=O)(=O)c1cccc(-c2c(-c3cccc(C(=O)[O-])c3)nc3n2CCS3)c1 (3D coordinates assigned)
NS(=O)(=O)c1cccc(-c2c(-c3cccc(C(=O)[O-])c3)nc3n2CCS3)c1 (nonaromatic ring conformer: 96.99788256517986 kcal/mol)

>  <smiles>  (26) 
NS(=O)(=O)c1cccc(-c2c(-c3cccc(C(=O)O)c3)nc3n2CCS3)c1

>  <score_type>  (26) 
oracle

>  <origin>  (26) 
adg

>  <m_score__min__energy>  (26) 
-12.119999999999999

>  <m_primary>  (26) 
energy

$$$$
26:0
     RDKit          3D

 41 42  0  0  0  0  0  0  0  0999 V2000
   60.0690   34.2160   48.9560 C   0  0  0  0  0  0  0  0  0  0  0  0
   59.8890   34.2690   47.5440 O   0  0  0  0  0  0  0  0  0  0  0  0
   59.1660   33.3240   46.7970 C   0  0  0  0  0  0  0  0  0  0  0  0
   58.8610   32.0480   47.3080 C   0  0  0  0  0  0  0  0  0  0  0  0
   58.1720   31.1180   46.5280 C   0  0  0  0  0  0  0  0  0  0  0  0
   57.7830   31.4430   45.2240 C   0  0  0  0  0  0  0  0  0  0  0  0
   57.0140   30.2460   44.1870 S   0  0  0  0  0  0  0  0  0  0  0  0
   55.8170   29.6470   44.8740 O   0  0  0  0  0  0  0  0  0  0  0  0
   56.5570   30.9240   42.9280 O   0  0  0  0  0  0  0  0  0  0  0  0
   58.1470   28.9880   43.7750 N   0  0  0  0  0  0  0  0  0  0  0  0
   57.6680   27.6650   44.1840 C   0  0  0  0  0  0  0  0  0  0  0  0
   58.1140   27.3300   45.5840 C   0  0  0  0  0  0  0  0  0  0  0  0
   57.4210   26.5960   46.5450 C   0  0  0  0  0  0  0  0  0  0  0  0
   56.0750   26.0110   46.4190 C   0  0  0  0  0  0  0  0  0  0  0  0
   55.1270   26.7190   45.9870 O   0  0  0  0  0  0  0  0  0  0  0  0
   55.8310   24.6870   46.7580 O   0  0  0  0  0  0  0  0  0  0  0  0
   58.1590   26.4610   47.6670 N   0  0  0  0  0  0  0  0  0  0  0  0
   59.3160   27.1120   47.4330 C   0  0  0  0  0  0  0  0  0  0  0  0
   60.4230   27.1870   48.4350 C   0  0  0  0  0  0  0  0  0  0  0  0
   59.3310   27.6560   46.1600 C   0  0  0  0  0  0  0  0  0  0  0  0
   60.4170   28.4990   45.5600 C   0  0  0  0  0  0  0  0  0  0  0  0
   58.0490   32.7220   44.7210 C   0  0  0  0  0  0  0  0  0  0  0  0
   58.7410   33.6650   45.4990 C   0  0  0  0  0  0  0  0  0  0  0  0
   59.0850   35.0060   44.9150 C   0  0  0  0  0  0  0  0  0  0  0  0
   59.1291   34.4927   49.4561 H   0  0  0  0  0  0  0  0  0  0  0  0
   60.3547   33.1956   49.2512 H   0  0  0  0  0  0  0  0  0  0  0  0
   60.8621   34.9187   49.2512 H   0  0  0  0  0  0  0  0  0  0  0  0
   59.1682   31.7819   48.3302 H   0  0  0  0  0  0  0  0  0  0  0  0
   57.9340   30.1262   46.9399 H   0  0  0  0  0  0  0  0  0  0  0  0
   56.5687   27.6544   44.1459 H   0  0  0  0  0  0  0  0  0  0  0  0
   58.0884   26.9158   43.4970 H   0  0  0  0  0  0  0  0  0  0  0  0
   60.0010   27.1584   49.4504 H   0  0  0  0  0  0  0  0  0  0  0  0
   61.1020   26.3328   48.2959 H   0  0  0  0  0  0  0  0  0  0  0  0
   60.9805   28.1250   48.2959 H   0  0  0  0  0  0  0  0  0  0  0  0
   61.0102   28.9594   46.3639 H   0  0  0  0  0  0  0  0  0  0  0  0
   61.0693   27.8684   44.9381 H   0  0  0  0  0  0  0  0  0  0  0  0
   59.9679   29.2874   44.9381 H   0  0  0  0  0  0  0  0  0  0  0  0
   57.7135   32.9908   43.7085 H   0  0  0  0  0  0  0  0  0  0  0  0
   59.2691   35.7237   45.7280 H   0  0  0  0  0  0  0  0  0  0  0  0
   59.9888   34.9149   44.2947 H   0  0  0  0  0  0  0  0  0  0  0  0
   58.2489   35.3612   44.2947 H   0  0  0  0  0  0  0  0  0  0  0  0
  1  2  1  0
  2  3  1  0
  3  4  2  0
  4  5  1  0
  5  6  2  0
  6  7  1  0
  7  8  2  0
  7  9  2  0
  7 10  1  0
 10 11  1  0
 11 12  1  0
 12 13  2  0
 13 14  1  0
 14 15  2  0
 14 16  1  0
 13 17  1  0
 17 18  1  0
 18 19  1  0
 18 20  2  0
 20 21  1  0
  6 22  1  0
 22 23  2  0
 23 24  1  0
 23  3  1  0
 20 12  1  0
  1 25  1  0
  1 26  1  0
  1 27  1  0
  4 28  1  0
  5 29  1  0
 11 30  1  0
 11 31  1  0
 19 32  1  0
 19 33  1  0
 19 34  1  0
 21 35  1  0
 21 36  1  0
 21 37  1  0
 22 38  1  0
 24 39  1  0
 24 40  1  0
 24 41  1  0
M  CHG  3  10  -1  16  -1  17  -1
M  END
>  <UniqueID>  (27) 
27

>  <SMILES>  (27) 
COc1ccc(S(=O)(=O)[N-]Cc2c(C(=O)[O-])[n-]c(C)c2C)cc1C

>  <Energy>  (27) 
57.003228809763726

>  <Genealogy>  (27) 
COc1ccc(S(=O)(=O)[N-]Cc2c(C(=O)[O-])[n-]c(C)c2C)cc1C (protonated)
COc1ccc(S(=O)(=O)[N-]Cc2c(C(=O)[O-])[n-]c(C)c2C)cc1C (3D coordinates assigned)
COc1ccc(S(=O)(=O)[N-]Cc2c(C(=O)[O-])[n-]c(C)c2C)cc1C (optimized conformer: 57.003228809763726 kcal/mol)

>  <smiles>  (27) 
COc1ccc(S(=O)(=O)NCc2c(C(=O)O)[nH]c(C)c2C)cc1C

>  <score_type>  (27) 
oracle

>  <origin>  (27) 
adg

>  <m_score__min__energy>  (27) 
-13.34

>  <m_primary>  (27) 
energy

$$$$
27:0
     RDKit          3D

 61 65  0  0  0  0  0  0  0  0999 V2000
   55.4148   29.3617   44.2282 H   0  0  0  0  0  0  0  0  0  0  0  0
   56.3510   29.8600   44.5200 C   0  0  0  0  0  0  0  0  0  0  0  0
   56.4340   31.2110   44.4870 N   0  0  0  0  0  0  0  0  0  0  0  0
   57.5940   31.8750   44.8100 C   0  0  0  0  0  0  0  0  0  0  0  0
   57.6630   33.1810   44.8230 N   0  0  0  0  0  0  0  0  0  0  0  0
   58.5270   34.0210   45.6220 C   0  0  0  0  0  0  0  0  0  0  0  0
   59.2690   35.3460   44.9560 S   0  0  0  0  0  0  0  0  0  0  0  0
   58.5760   33.8070   47.0500 N   0  0  0  0  0  0  0  0  0  0  0  0
   57.8370   33.2260   47.5270 H   0  0  0  0  0  0  0  0  0  0  0  0
   59.5780   34.4460   47.9110 C   0  0  0  0  0  0  0  0  0  0  0  0
   59.6962   35.4962   47.6058 H   0  0  0  0  0  0  0  0  0  0  0  0
   59.2335   34.3820   48.9537 H   0  0  0  0  0  0  0  0  0  0  0  0
   60.9180   33.7460   47.8040 C   0  0  0  0  0  0  0  0  0  0  0  0
   61.7330   33.9290   46.6660 C   0  0  0  0  0  0  0  0  0  0  0  0
   61.3126   34.3859   45.7579 H   0  0  0  0  0  0  0  0  0  0  0  0
   63.0700   33.5320   46.6900 C   0  0  0  0  0  0  0  0  0  0  0  0
   63.7181   33.7285   45.8232 H   0  0  0  0  0  0  0  0  0  0  0  0
   63.5850   32.8850   47.8150 C   0  0  0  0  0  0  0  0  0  0  0  0
   64.6512   32.6167   47.8507 H   0  0  0  0  0  0  0  0  0  0  0  0
   62.7550   32.5760   48.8960 C   0  0  0  0  0  0  0  0  0  0  0  0
   63.1462   31.9958   49.7447 H   0  0  0  0  0  0  0  0  0  0  0  0
   61.4240   33.0080   48.8940 C   0  0  0  0  0  0  0  0  0  0  0  0
   60.7698   32.7710   49.7460 H   0  0  0  0  0  0  0  0  0  0  0  0
   58.7090   31.1340   45.2400 C   0  0  0  0  0  0  0  0  0  0  0  0
   59.6255   31.6531   45.5572 H   0  0  0  0  0  0  0  0  0  0  0  0
   58.6530   29.7500   45.2640 C   0  0  0  0  0  0  0  0  0  0  0  0
   59.5410   29.1657   45.5469 H   0  0  0  0  0  0  0  0  0  0  0  0
   57.4520   29.0940   44.9240 C   0  0  0  0  0  0  0  0  0  0  0  0
   57.3520   27.6730   45.0370 N   0  0  0  0  0  0  0  0  0  0  0  0
   56.9390   27.0810   46.3240 C   0  0  0  0  0  0  0  0  0  0  0  0
   55.9294   27.4394   46.5737 H   0  0  0  0  0  0  0  0  0  0  0  0
   57.6663   27.3859   47.0909 H   0  0  0  0  0  0  0  0  0  0  0  0
   56.9220   25.5800   46.2650 C   0  0  0  0  0  0  0  0  0  0  0  0
   56.5980   24.5030   47.5220 S   0  0  0  0  0  0  0  0  0  0  0  0
   56.7990   23.1030   46.6140 C   0  0  0  0  0  0  0  0  0  0  0  0
   56.6190   21.7320   47.1220 C   0  0  0  0  0  0  0  0  0  0  0  0
   57.6410   21.0370   47.4000 O   0  0  0  0  0  0  0  0  0  0  0  0
   55.3130   21.1840   47.3560 N   0  0  0  0  0  0  0  0  0  0  0  0
   54.1160   21.6510   46.7420 C   0  0  0  0  0  0  0  0  0  0  0  0
   53.0720   20.8880   46.2670 C   0  0  0  0  0  0  0  0  0  0  0  0
   52.9210   19.4090   46.3890 C   0  0  0  0  0  0  0  0  0  0  0  0
   52.8925   19.1298   47.4526 H   0  0  0  0  0  0  0  0  0  0  0  0
   51.9861   19.0945   45.9022 H   0  0  0  0  0  0  0  0  0  0  0  0
   53.7731   18.9120   45.9022 H   0  0  0  0  0  0  0  0  0  0  0  0
   52.2040   21.6940   45.6260 N   0  0  0  0  0  0  0  0  0  0  0  0
   52.6510   22.9410   45.7260 N   0  0  0  0  0  0  0  0  0  0  0  0
   52.0710   24.0690   45.0020 C   0  0  0  0  0  0  0  0  0  0  0  0
   51.6903   24.8094   45.7209 H   0  0  0  0  0  0  0  0  0  0  0  0
   52.8417   24.5343   44.3699 H   0  0  0  0  0  0  0  0  0  0  0  0
   51.2442   23.7129   44.3699 H   0  0  0  0  0  0  0  0  0  0  0  0
   53.8360   22.9550   46.3780 C   0  0  0  0  0  0  0  0  0  0  0  0
   54.4598   23.8381   46.5806 H   0  0  0  0  0  0  0  0  0  0  0  0
   57.0480   23.4630   45.2880 C   0  0  0  0  0  0  0  0  0  0  0  0
   57.1601   22.7350   44.4710 H   0  0  0  0  0  0  0  0  0  0  0  0
   57.1400   24.8500   45.1080 C   0  0  0  0  0  0  0  0  0  0  0  0
   57.4080   25.5350   43.8090 C   0  0  0  0  0  0  0  0  0  0  0  0
   56.4565   25.7061   43.2843 H   0  0  0  0  0  0  0  0  0  0  0  0
   58.0639   24.9005   43.1948 H   0  0  0  0  0  0  0  0  0  0  0  0
   58.0980   26.8780   44.0580 C   0  0  0  0  0  0  0  0  0  0  0  0
   58.1564   27.4345   43.1109 H   0  0  0  0  0  0  0  0  0  0  0  0
   59.1067   26.6880   44.4534 H   0  0  0  0  0  0  0  0  0  0  0  0
  1  2  1  0
  2  3  1  0
  3  4  1  0
  4  5  2  0
  5  6  1  0
  6  7  2  0
  6  8  1  0
  8  9  1  0
  8 10  1  0
 10 11  1  0
 10 12  1  0
 10 13  1  0
 13 14  2  0
 14 15  1  0
 14 16  1  0
 16 17  1  0
 16 18  2  0
 18 19  1  0
 18 20  1  0
 20 21  1  0
 20 22  2  0
 22 23  1  0
  4 24  1  0
 24 25  1  0
 24 26  2  0
 26 27  1  0
 26 28  1  0
 28 29  1  0
 29 30  1  0
 30 31  1  0
 30 32  1  0
 30 33  1  0
 33 34  1  0
 34 35  1  0
 35 36  1  0
 36 37  2  0
 36 38  1  0
 38 39  1  0
 39 40  1  0
 40 41  1  0
 41 42  1  0
 41 43  1  0
 41 44  1  0
 40 45  2  0
 45 46  1  0
 46 47  1  0
 47 48  1  0
 47 49  1  0
 47 50  1  0
 46 51  1  0
 51 52  1  0
 35 53  2  0
 53 54  1  0
 53 55  1  0
 55 56  1  0
 56 57  1  0
 56 58  1  0
 56 59  1  0
 59 60  1  0
 59 61  1  0
 28  2  2  0
 59 29  1  0
 22 13  1  0
 55 33  2  0
 51 39  2  0
M  CHG  2   3  -1  38  -1
M  END
>  <UniqueID>  (28) 
28

>  <SMILES>  (28) 
Cc1nn(C)cc1[N-]C(=O)c1cc2c(s1)CN(c1cc/c(=N\C(=S)NCc3ccccc3)[n-]c1)CC2

>  <Energy>  (28) 
148.00474396747492

>  <Genealogy>  (28) 
Cc1nn(C)cc1[N-]C(=O)c1cc2c(s1)CN(c1ccc(=NC(=S)NCc3ccccc3)[n-]c1)CC2 (protonated)
Cc1nn(C)cc1[N-]C(=O)c1cc2c(s1)CN(c1cc/c(=N\C(=S)NCc3ccccc3)[n-]c1)CC2 (cis-trans isomerization)
Cc1nn(C)cc1[N-]C(=O)c1cc2c(s1)CN(c1cc/c(=N\C(=S)NCc3ccccc3)[n-]c1)CC2 (3D coordinates assigned)
Cc1nn(C)cc1[N-]C(=O)c1cc2c(s1)CN(c1cc/c(=N\C(=S)NCc3ccccc3)[n-]c1)CC2 (nonaromatic ring conformer: 148.00474396747492 kcal/mol)

>  <smiles>  (28) 
Cc1nn(C)cc1NC(=O)c1cc2c(s1)CN(c1ccc(=NC(=S)NCc3ccccc3)[nH]c1)CC2

>  <score_type>  (28) 
oracle

>  <origin>  (28) 
adg

>  <m_score__min__energy>  (28) 
-12.01

>  <m_primary>  (28) 
energy

$$$$
28:0
     RDKit          3D

 33 35  0  0  0  0  0  0  0  0999 V2000
   60.5657   27.7329   49.8183 H   0  0  0  0  0  0  0  0  0  0  0  0
   60.4330   28.6940   49.3000 C   0  0  0  0  0  0  0  0  0  0  0  0
   60.9725   29.5866   49.6496 H   0  0  0  0  0  0  0  0  0  0  0  0
   59.6190   28.7770   48.2490 C   0  0  0  0  0  0  0  0  0  0  0  0
   59.3720   29.9220   47.5200 C   0  0  0  0  0  0  0  0  0  0  0  0
   59.7873   30.9239   47.7038 H   0  0  0  0  0  0  0  0  0  0  0  0
   58.4970   29.5580   46.5110 C   0  0  0  0  0  0  0  0  0  0  0  0
   58.1990   30.4190   45.3520 C   0  0  0  0  0  0  0  0  0  0  0  0
   58.2770   29.9340   44.1920 O   0  0  0  0  0  0  0  0  0  0  0  0
   57.6560   31.7320   45.5640 N   0  0  0  0  0  0  0  0  0  0  0  0
   58.2800   32.8290   45.8920 C   0  0  0  0  0  0  0  0  0  0  0  0
   58.5690   33.7540   44.8790 C   0  0  0  0  0  0  0  0  0  0  0  0
   58.2892   33.5367   43.8376 H   0  0  0  0  0  0  0  0  0  0  0  0
   59.2120   34.9500   45.1950 C   0  0  0  0  0  0  0  0  0  0  0  0
   59.4478   35.6758   44.4028 H   0  0  0  0  0  0  0  0  0  0  0  0
   59.5550   35.2230   46.5180 C   0  0  0  0  0  0  0  0  0  0  0  0
   60.0700   36.1599   46.7770 H   0  0  0  0  0  0  0  0  0  0  0  0
   59.2380   34.2950   47.5100 C   0  0  0  0  0  0  0  0  0  0  0  0
   59.4969   34.5050   48.5583 H   0  0  0  0  0  0  0  0  0  0  0  0
   58.6100   33.1310   47.1880 N   0  0  0  0  0  0  0  0  0  0  0  0
   58.3530   32.5050   47.9810 H   0  0  0  0  0  0  0  0  0  0  0  0
   58.2180   28.1970   46.6980 C   0  0  0  0  0  0  0  0  0  0  0  0
   57.3650   27.4050   46.0220 C   0  0  0  0  0  0  0  0  0  0  0  0
   57.0019   27.7662   45.0485 H   0  0  0  0  0  0  0  0  0  0  0  0
   56.8790   26.0920   46.4830 C   0  0  0  0  0  0  0  0  0  0  0  0
   57.6590   25.1120   46.9730 N   0  0  0  0  0  0  0  0  0  0  0  0
   56.7980   24.0850   47.1430 C   0  0  0  0  0  0  0  0  0  0  0  0
   57.1550   22.9710   47.6070 O   0  0  0  0  0  0  0  0  0  0  0  0
   55.5260   24.3440   46.7730 N   0  0  0  0  0  0  0  0  0  0  0  0
   55.5980   25.6150   46.3460 C   0  0  0  0  0  0  0  0  0  0  0  0
   54.5160   26.3240   45.8400 O   0  0  0  0  0  0  0  0  0  0  0  0
   58.9350   27.7330   47.7450 N   0  0  0  0  0  0  0  0  0  0  0  0
   58.9330   26.7560   48.1180 H   0  0  0  0  0  0  0  0  0  0  0  0
  1  2  1  0
  2  3  1  0
  2  4  2  0
  4  5  1  0
  5  6  1  0
  5  7  2  0
  7  8  1  0
  8  9  2  0
  8 10  1  0
 10 11  2  0
 11 12  1  0
 12 13  1  0
 12 14  2  0
 14 15  1  0
 14 16  1  0
 16 17  1  0
 16 18  2  0
 18 19  1  0
 18 20  1  0
 20 21  1  0
  7 22  1  0
 22 23  2  3
 23 24  1  0
 23 25  1  0
 25 26  1  0
 26 27  1  0
 27 28  2  0
 27 29  1  0
 29 30  1  0
 30 31  1  0
 22 32  1  0
 32 33  1  0
 32  4  1  0
 20 11  1  0
 30 25  2  0
M  CHG  3  26  -1  29  -1  31  -1
M  END
>  <UniqueID>  (29) 
29

>  <SMILES>  (29) 
C=c1cc(C(=O)/N=c2/cccc[nH]2)c(=Cc2[n-]c(=O)[n-]c2[O-])[nH]1

>  <Energy>  (29) 
107.49483421285716

>  <Genealogy>  (29) 
C=c1cc(C(=O)N=c2cccc[nH]2)c(=Cc2[n-]c(=O)[n-]c2[O-])[nH]1 (protonated)
C=c1cc(C(=O)/N=c2/cccc[nH]2)c(=Cc2[n-]c(=O)[n-]c2[O-])[nH]1 (cis-trans isomerization)
C=c1cc(C(=O)/N=c2/cccc[nH]2)c(=Cc2[n-]c(=O)[n-]c2[O-])[nH]1 (3D coordinates assigned)
C=c1cc(C(=O)/N=c2/cccc[nH]2)c(=Cc2[n-]c(=O)[n-]c2[O-])[nH]1 (optimized conformer: 107.49483421285716 kcal/mol)

>  <smiles>  (29) 
C=c1cc(C(=O)N=c2cccc[nH]2)c(=Cc2[nH]c(=O)[nH]c2O)[nH]1

>  <score_type>  (29) 
oracle

>  <origin>  (29) 
adg

>  <m_score__min__energy>  (29) 
-15.83

>  <m_primary>  (29) 
energy

$$$$
29:0
     RDKit          3D

 64 67  0  0  0  0  0  0  0  0999 V2000
   53.5690   24.0720   45.2240 C   0  0  0  0  0  0  0  0  0  0  0  0
   54.1590   22.9680   44.4780 N   0  0  0  0  0  0  0  0  0  0  0  0
   55.5390   22.8780   44.0970 C   0  0  0  0  0  0  0  0  0  0  0  0
   55.8910   21.9550   43.3170 O   0  0  0  0  0  0  0  0  0  0  0  0
   56.5660   23.7960   44.6290 C   0  0  0  0  0  0  0  0  0  0  0  0
   57.0210   24.8880   43.8740 C   0  0  0  0  0  0  0  0  0  0  0  0
   58.0040   25.7410   44.3840 C   0  0  0  0  0  0  0  0  0  0  0  0
   58.5660   25.5040   45.6490 C   0  0  0  0  0  0  0  0  0  0  0  0
   59.6020   26.4180   46.1860 C   0  0  0  0  0  0  0  0  0  0  0  0
   60.6340   25.9290   46.7200 O   0  0  0  0  0  0  0  0  0  0  0  0
   59.4570   27.8490   46.1150 N   0  0  0  0  0  0  0  0  0  0  0  0
   58.1640   28.4950   46.3420 C   0  0  0  0  0  0  0  0  0  0  0  0
   58.3470   29.7210   47.2480 C   0  0  0  0  0  0  0  0  0  0  0  0
   59.3800   30.6910   46.7610 N   0  0  0  0  0  0  0  0  0  0  0  0
   58.9080   32.1160   46.5760 C   0  0  0  0  0  0  0  0  0  0  0  0
   58.5670   32.7110   47.9900 C   0  0  0  0  0  0  0  0  0  0  0  0
   59.5290   32.3060   49.0320 N   0  0  0  0  0  0  0  0  0  0  0  0
   60.5190   33.3490   49.3430 C   0  0  0  0  0  0  0  0  0  0  0  0
   61.8270   33.0990   48.6520 C   0  0  0  0  0  0  0  0  0  0  0  0
   62.1430   31.9190   48.0770 N   0  0  0  0  0  0  0  0  0  0  0  0
   63.3670   32.1300   47.5630 C   0  0  0  0  0  0  0  0  0  0  0  0
   63.7570   33.4200   47.8330 C   0  0  0  0  0  0  0  0  0  0  0  0
   62.7830   34.0430   48.5210 N   0  0  0  0  0  0  0  0  0  0  0  0
   60.0520   33.0230   45.9900 C   0  0  0  0  0  0  0  0  0  0  0  0
   59.6390   34.4910   45.7370 C   0  0  0  0  0  0  0  0  0  0  0  0
   58.1890   34.6420   45.2420 C   0  0  0  0  0  0  0  0  0  0  0  0
   57.6670   33.3560   44.6060 C   0  0  0  0  0  0  0  0  0  0  0  0
   57.6660   32.1840   45.6080 C   0  0  0  0  0  0  0  0  0  0  0  0
   60.2560   30.1470   45.6900 C   0  0  0  0  0  0  0  0  0  0  0  0
   60.6460   28.6850   45.9490 C   0  0  0  0  0  0  0  0  0  0  0  0
   58.1100   24.4080   46.4030 C   0  0  0  0  0  0  0  0  0  0  0  0
   57.1310   23.5540   45.8900 C   0  0  0  0  0  0  0  0  0  0  0  0
   53.6708   23.8815   46.3026 H   0  0  0  0  0  0  0  0  0  0  0  0
   54.0875   25.0072   44.9663 H   0  0  0  0  0  0  0  0  0  0  0  0
   52.5033   24.1606   44.9663 H   0  0  0  0  0  0  0  0  0  0  0  0
   56.6013   25.0739   42.8743 H   0  0  0  0  0  0  0  0  0  0  0  0
   58.3397   26.6040   43.7903 H   0  0  0  0  0  0  0  0  0  0  0  0
   57.7406   28.8133   45.3780 H   0  0  0  0  0  0  0  0  0  0  0  0
   57.4824   27.7821   46.8289 H   0  0  0  0  0  0  0  0  0  0  0  0
   57.3835   30.2473   47.3163 H   0  0  0  0  0  0  0  0  0  0  0  0
   58.6960   29.3473   48.2219 H   0  0  0  0  0  0  0  0  0  0  0  0
   58.5691   33.8087   47.9184 H   0  0  0  0  0  0  0  0  0  0  0  0
   57.5810   32.3209   48.2825 H   0  0  0  0  0  0  0  0  0  0  0  0
   60.0310   31.4390   48.7260 H   0  0  0  0  0  0  0  0  0  0  0  0
   60.1246   34.3228   49.0173 H   0  0  0  0  0  0  0  0  0  0  0  0
   60.6979   33.3381   50.4283 H   0  0  0  0  0  0  0  0  0  0  0  0
   63.9629   31.3870   47.0127 H   0  0  0  0  0  0  0  0  0  0  0  0
   64.7143   33.8717   47.5338 H   0  0  0  0  0  0  0  0  0  0  0  0
   60.8914   33.0197   46.7009 H   0  0  0  0  0  0  0  0  0  0  0  0
   60.3170   32.5989   45.0102 H   0  0  0  0  0  0  0  0  0  0  0  0
   59.7462   35.0504   46.6780 H   0  0  0  0  0  0  0  0  0  0  0  0
   60.2948   34.8807   44.9444 H   0  0  0  0  0  0  0  0  0  0  0  0
   57.5469   34.9021   46.0965 H   0  0  0  0  0  0  0  0  0  0  0  0
   58.1708   35.4321   44.4769 H   0  0  0  0  0  0  0  0  0  0  0  0
   56.6387   33.5245   44.2534 H   0  0  0  0  0  0  0  0  0  0  0  0
   58.3319   33.0922   43.7703 H   0  0  0  0  0  0  0  0  0  0  0  0
   56.7595   32.2672   46.2255 H   0  0  0  0  0  0  0  0  0  0  0  0
   57.7069   31.2680   45.0004 H   0  0  0  0  0  0  0  0  0  0  0  0
   59.7216   30.2067   44.7304 H   0  0  0  0  0  0  0  0  0  0  0  0
   61.1789   30.7452   45.6712 H   0  0  0  0  0  0  0  0  0  0  0  0
   61.2322   28.3121   45.0962 H   0  0  0  0  0  0  0  0  0  0  0  0
   61.2403   28.6383   46.8735 H   0  0  0  0  0  0  0  0  0  0  0  0
   58.5272   24.2220   47.4037 H   0  0  0  0  0  0  0  0  0  0  0  0
   56.8007   22.6856   46.4789 H   0  0  0  0  0  0  0  0  0  0  0  0
  1  2  1  0
  2  3  1  0
  3  4  2  0
  3  5  1  0
  5  6  2  0
  6  7  1  0
  7  8  2  0
  8  9  1  0
  9 10  2  0
  9 11  1  0
 11 12  1  0
 12 13  1  0
 13 14  1  0
 14 15  1  0
 15 16  1  0
 16 17  1  0
 17 18  1  0
 18 19  1  0
 19 20  2  0
 20 21  1  0
 21 22  2  0
 22 23  1  0
 15 24  1  0
 24 25  1  0
 25 26  1  0
 26 27  1  0
 27 28  1  0
 14 29  1  0
 29 30  1  0
  8 31  1  0
 31 32  2  0
 32  5  1  0
 30 11  1  0
 28 15  1  0
 23 19  1  0
  1 33  1  0
  1 34  1  0
  1 35  1  0
  6 36  1  0
  7 37  1  0
 12 38  1  0
 12 39  1  0
 13 40  1  0
 13 41  1  0
 16 42  1  0
 16 43  1  0
 17 44  1  0
 18 45  1  0
 18 46  1  0
 21 47  1  0
 22 48  1  0
 24 49  1  0
 24 50  1  0
 25 51  1  0
 25 52  1  0
 26 53  1  0
 26 54  1  0
 27 55  1  0
 27 56  1  0
 28 57  1  0
 28 58  1  0
 29 59  1  0
 29 60  1  0
 30 61  1  0
 30 62  1  0
 31 63  1  0
 32 64  1  0
M  CHG  2   2  -1  23  -1
M  END
>  <UniqueID>  (30) 
30

>  <SMILES>  (30) 
C[N-]C(=O)c1ccc(C(=O)N2CCN(C3(CNCc4ncc[n-]4)CCCCC3)CC2)cc1

>  <Energy>  (30) 
128.08545472970007

>  <Genealogy>  (30) 
C[N-]C(=O)c1ccc(C(=O)N2CCN(C3(CNCc4ncc[n-]4)CCCCC3)CC2)cc1 (protonated)
C[N-]C(=O)c1ccc(C(=O)N2CCN(C3(CNCc4ncc[n-]4)CCCCC3)CC2)cc1 (3D coordinates assigned)
C[N-]C(=O)c1ccc(C(=O)N2CCN(C3(CNCc4ncc[n-]4)CCCCC3)CC2)cc1 (nonaromatic ring conformer: 128.08545472970007 kcal/mol)

>  <smiles>  (30) 
CNC(=O)c1ccc(C(=O)N2CCN(C3(CNCc4ncc[nH]4)CCCCC3)CC2)cc1

>  <score_type>  (30) 
oracle

>  <origin>  (30) 
adg

>  <m_score__min__energy>  (30) 
-12.550000000000001

>  <m_primary>  (30) 
energy

$$$$
30:0
     RDKit          3D

 56 58  0  0  0  0  0  0  0  0999 V2000
   59.1062   30.7710   45.5847 H   0  0  0  0  0  0  0  0  0  0  0  0
   58.7730   30.1250   44.7590 C   0  0  0  0  0  0  0  0  0  0  0  0
   57.7050   30.5310   44.0350 C   0  0  0  0  0  0  0  0  0  0  0  0
   57.7680   31.7250   43.1140 C   0  0  0  0  0  0  0  0  0  0  0  0
   57.8167   32.6471   43.7119 H   0  0  0  0  0  0  0  0  0  0  0  0
   58.6635   31.6518   42.4794 H   0  0  0  0  0  0  0  0  0  0  0  0
   56.8697   31.7464   42.4794 H   0  0  0  0  0  0  0  0  0  0  0  0
   56.4160   29.7620   44.1670 C   0  0  0  0  0  0  0  0  0  0  0  0
   56.1804   29.6214   45.2322 H   0  0  0  0  0  0  0  0  0  0  0  0
   55.6032   30.3229   43.6826 H   0  0  0  0  0  0  0  0  0  0  0  0
   56.5235   28.7803   43.6826 H   0  0  0  0  0  0  0  0  0  0  0  0
   59.5400   28.8480   44.5140 C   0  0  0  0  0  0  0  0  0  0  0  0
   60.5939   29.0057   44.7868 H   0  0  0  0  0  0  0  0  0  0  0  0
   59.4469   28.5873   43.4494 H   0  0  0  0  0  0  0  0  0  0  0  0
   58.9860   27.7060   45.3330 C   0  0  0  0  0  0  0  0  0  0  0  0
   59.3370   27.5630   46.6820 C   0  0  0  0  0  0  0  0  0  0  0  0
   60.1810   28.5200   47.2710 O   0  0  0  0  0  0  0  0  0  0  0  0
   60.1490   28.9130   48.6140 C   0  0  0  0  0  0  0  0  0  0  0  0
   60.4980   28.1180   49.5290 O   0  0  0  0  0  0  0  0  0  0  0  0
   59.7480   30.2940   48.9320 C   0  0  0  0  0  0  0  0  0  0  0  0
   60.2031   30.7914   49.8012 H   0  0  0  0  0  0  0  0  0  0  0  0
   58.8480   30.9670   48.2000 C   0  0  0  0  0  0  0  0  0  0  0  0
   57.8064   30.6134   48.2040 H   0  0  0  0  0  0  0  0  0  0  0  0
   59.1790   32.1620   47.3850 C   0  0  0  0  0  0  0  0  0  0  0  0
   58.1440   32.8120   46.6950 C   0  0  0  0  0  0  0  0  0  0  0  0
   57.1137   32.4353   46.7757 H   0  0  0  0  0  0  0  0  0  0  0  0
   58.4120   33.9330   45.9070 C   0  0  0  0  0  0  0  0  0  0  0  0
   57.3760   34.5730   45.2380 O   0  0  0  0  0  0  0  0  0  0  0  0
   59.7200   34.4120   45.7890 C   0  0  0  0  0  0  0  0  0  0  0  0
   59.9256   35.2988   45.1714 H   0  0  0  0  0  0  0  0  0  0  0  0
   60.7730   33.7640   46.4570 C   0  0  0  0  0  0  0  0  0  0  0  0
   62.1050   34.1960   46.3580 O   0  0  0  0  0  0  0  0  0  0  0  0
   63.2320   33.4260   46.7630 C   0  0  0  0  0  0  0  0  0  0  0  0
   63.2787   33.3941   47.8615 H   0  0  0  0  0  0  0  0  0  0  0  0
   63.1374   32.4029   46.3702 H   0  0  0  0  0  0  0  0  0  0  0  0
   64.1507   33.8861   46.3702 H   0  0  0  0  0  0  0  0  0  0  0  0
   60.4980   32.6410   47.2470 C   0  0  0  0  0  0  0  0  0  0  0  0
   61.3203   32.1266   47.7658 H   0  0  0  0  0  0  0  0  0  0  0  0
   58.8060   26.5010   47.4240 C   0  0  0  0  0  0  0  0  0  0  0  0
   59.0754   26.4016   48.4859 H   0  0  0  0  0  0  0  0  0  0  0  0
   57.9350   25.5560   46.8450 C   0  0  0  0  0  0  0  0  0  0  0  0
   57.4310   24.6080   47.6630 C   0  0  0  0  0  0  0  0  0  0  0  0
   56.7461   23.8451   47.2644 H   0  0  0  0  0  0  0  0  0  0  0  0
   57.7052   24.5983   48.7282 H   0  0  0  0  0  0  0  0  0  0  0  0
   57.5930   25.6770   45.4570 C   0  0  0  0  0  0  0  0  0  0  0  0
   56.8030   24.7690   44.8200 C   0  0  0  0  0  0  0  0  0  0  0  0
   57.2643   24.1818   44.0122 H   0  0  0  0  0  0  0  0  0  0  0  0
   55.3790   24.5030   45.1190 C   0  0  0  0  0  0  0  0  0  0  0  0
   54.7140   23.3790   44.7920 N   0  0  0  0  0  0  0  0  0  0  0  0
   53.4410   23.6520   45.1490 C   0  0  0  0  0  0  0  0  0  0  0  0
   52.5050   22.8220   45.0070 O   0  0  0  0  0  0  0  0  0  0  0  0
   53.2480   24.8860   45.6610 N   0  0  0  0  0  0  0  0  0  0  0  0
   54.4820   25.4150   45.6230 C   0  0  0  0  0  0  0  0  0  0  0  0
   54.7810   26.7070   46.0380 O   0  0  0  0  0  0  0  0  0  0  0  0
   58.1460   26.7600   44.7320 C   0  0  0  0  0  0  0  0  0  0  0  0
   57.9084   26.8617   43.6628 H   0  0  0  0  0  0  0  0  0  0  0  0
  1  2  1  0
  2  3  2  3
  3  4  1  0
  4  5  1  0
  4  6  1  0
  4  7  1  0
  3  8  1  0
  8  9  1  0
  8 10  1  0
  8 11  1  0
  2 12  1  0
 12 13  1  0
 12 14  1  0
 12 15  1  0
 15 16  1  0
 16 17  1  0
 17 18  1  0
 18 19  2  0
 18 20  1  0
 20 21  1  0
 20 22  2  0
 22 23  1  0
 22 24  1  0
 24 25  2  0
 25 26  1  0
 25 27  1  0
 27 28  1  0
 27 29  2  0
 29 30  1  0
 29 31  1  0
 31 32  1  0
 32 33  1  0
 33 34  1  0
 33 35  1  0
 33 36  1  0
 31 37  2  0
 37 38  1  0
 16 39  2  0
 39 40  1  0
 39 41  1  0
 41 42  2  0
 42 43  1  0
 42 44  1  0
 41 45  1  0
 45 46  2  3
 46 47  1  0
 46 48  1  0
 48 49  1  0
 49 50  1  0
 50 51  2  0
 50 52  1  0
 52 53  1  0
 53 54  1  0
 45 55  1  0
 55 56  1  0
 55 15  2  0
 37 24  1  0
 53 48  2  0
M  CHG  4  28  -1  49  -1  52  -1  54  -1
M  END
>  <UniqueID>  (31) 
31

>  <SMILES>  (31) 
C=c1cc(OC(=O)/C=C/c2cc([O-])cc(OC)c2)c(CC=C(C)C)cc1=Cc1[n-]c(=O)[n-]c1[O-]

>  <Energy>  (31) 
103.4996916010983

>  <Genealogy>  (31) 
C=c1cc(OC(=O)C=Cc2cc([O-])cc(OC)c2)c(CC=C(C)C)cc1=Cc1[n-]c(=O)[n-]c1[O-] (protonated)
C=c1cc(OC(=O)/C=C/c2cc([O-])cc(OC)c2)c(CC=C(C)C)cc1=Cc1[n-]c(=O)[n-]c1[O-] (cis-trans isomerization)
C=c1cc(OC(=O)/C=C/c2cc([O-])cc(OC)c2)c(CC=C(C)C)cc1=Cc1[n-]c(=O)[n-]c1[O-] (3D coordinates assigned)
C=c1cc(OC(=O)/C=C/c2cc([O-])cc(OC)c2)c(CC=C(C)C)cc1=Cc1[n-]c(=O)[n-]c1[O-] (optimized conformer: 103.4996916010983 kcal/mol)

>  <smiles>  (31) 
C=c1cc(OC(=O)C=Cc2cc(O)cc(OC)c2)c(CC=C(C)C)cc1=Cc1[nH]c(=O)[nH]c1O

>  <score_type>  (31) 
oracle

>  <origin>  (31) 
adg

>  <m_score__min__energy>  (31) 
-18.77

>  <m_primary>  (31) 
energy

$$$$
31:0
     RDKit          3D

 60 63  0  0  0  0  0  0  0  0999 V2000
   59.3400   33.3320   51.0140 C   0  0  0  0  0  0  0  0  0  0  0  0
   58.5890   32.0440   51.1920 C   0  0  0  0  0  0  0  0  0  0  0  0
   57.5700   32.0070   52.0930 N   0  0  0  0  0  0  0  0  0  0  0  0
   56.8570   30.8710   52.3150 C   0  0  0  0  0  0  0  0  0  0  0  0
   55.8950   30.8630   53.1810 N   0  0  0  0  0  0  0  0  0  0  0  0
   57.1570   29.7400   51.6280 N   0  0  0  0  0  0  0  0  0  0  0  0
   58.1640   29.7190   50.7160 C   0  0  0  0  0  0  0  0  0  0  0  0
   58.9200   30.8750   50.4710 C   0  0  0  0  0  0  0  0  0  0  0  0
   60.0250   30.8500   49.4410 C   0  0  0  0  0  0  0  0  0  0  0  0
   59.9600   29.6100   48.6610 N   0  0  0  0  0  0  0  0  0  0  0  0
   60.4190   28.3440   49.1780 C   0  0  0  0  0  0  0  0  0  0  0  0
   60.8430   28.2450   50.3670 O   0  0  0  0  0  0  0  0  0  0  0  0
   60.4020   27.1230   48.3060 C   0  0  0  0  0  0  0  0  0  0  0  0
   59.2950   27.2030   47.3540 N   0  0  0  0  0  0  0  0  0  0  0  0
   58.1920   26.4570   47.4400 N   0  0  0  0  0  0  0  0  0  0  0  0
   57.4210   26.7380   46.3650 C   0  0  0  0  0  0  0  0  0  0  0  0
   55.8700   25.9790   46.0400 Cl  0  0  0  0  0  0  0  0  0  0  0  0
   58.0380   27.7020   45.5920 C   0  0  0  0  0  0  0  0  0  0  0  0
   57.5640   28.1940   44.3360 N   0  0  0  0  0  0  0  0  0  0  0  0
   56.5690   29.5980   44.1410 S   0  0  0  0  0  0  0  0  0  0  0  0
   55.2700   29.3790   44.8720 O   0  0  0  0  0  0  0  0  0  0  0  0
   56.2610   29.8350   42.6830 O   0  0  0  0  0  0  0  0  0  0  0  0
   57.3990   30.9830   44.8570 C   0  0  0  0  0  0  0  0  0  0  0  0
   57.9960   30.8960   46.1320 C   0  0  0  0  0  0  0  0  0  0  0  0
   58.6330   32.0160   46.6910 C   0  0  0  0  0  0  0  0  0  0  0  0
   58.6840   33.2320   45.9740 C   0  0  0  0  0  0  0  0  0  0  0  0
   59.2990   34.4040   46.5300 N   0  0  0  0  0  0  0  0  0  0  0  0
   60.1130   34.4140   47.7070 C   0  0  0  0  0  0  0  0  0  0  0  0
   59.6710   34.9700   48.7500 O   0  0  0  0  0  0  0  0  0  0  0  0
   61.4290   33.8330   47.7030 N   0  0  0  0  0  0  0  0  0  0  0  0
   62.1770   33.5620   48.9240 C   0  0  0  0  0  0  0  0  0  0  0  0
   63.5320   33.0380   48.4630 C   0  0  0  0  0  0  0  0  0  0  0  0
   63.6690   33.4890   47.0070 C   0  0  0  0  0  0  0  0  0  0  0  0
   62.2420   33.6920   46.5070 C   0  0  0  0  0  0  0  0  0  0  0  0
   58.0700   33.3200   44.7130 C   0  0  0  0  0  0  0  0  0  0  0  0
   57.4370   32.1990   44.1540 C   0  0  0  0  0  0  0  0  0  0  0  0
   59.2250   27.9670   46.2480 C   0  0  0  0  0  0  0  0  0  0  0  0
   60.1350   28.7510   45.8730 O   0  0  0  0  0  0  0  0  0  0  0  0
   59.5853   33.7527   52.0003 H   0  0  0  0  0  0  0  0  0  0  0  0
   60.2683   33.1410   50.4556 H   0  0  0  0  0  0  0  0  0  0  0  0
   58.7165   34.0458   50.4556 H   0  0  0  0  0  0  0  0  0  0  0  0
   56.0740   31.0010   54.2030 H   0  0  0  0  0  0  0  0  0  0  0  0
   58.3873   28.7919   50.1677 H   0  0  0  0  0  0  0  0  0  0  0  0
   59.9121   31.7108   48.7656 H   0  0  0  0  0  0  0  0  0  0  0  0
   60.9965   30.9014   49.9544 H   0  0  0  0  0  0  0  0  0  0  0  0
   59.4420   29.6270   47.7430 H   0  0  0  0  0  0  0  0  0  0  0  0
   61.3518   27.0556   47.7552 H   0  0  0  0  0  0  0  0  0  0  0  0
   60.2719   26.2311   48.9365 H   0  0  0  0  0  0  0  0  0  0  0  0
   57.9626   29.9486   46.6899 H   0  0  0  0  0  0  0  0  0  0  0  0
   59.0926   31.9462   47.6880 H   0  0  0  0  0  0  0  0  0  0  0  0
   62.3008   34.4836   49.5117 H   0  0  0  0  0  0  0  0  0  0  0  0
   61.6573   32.8383   49.5691 H   0  0  0  0  0  0  0  0  0  0  0  0
   64.3389   33.4661   49.0759 H   0  0  0  0  0  0  0  0  0  0  0  0
   63.6022   31.9446   48.5606 H   0  0  0  0  0  0  0  0  0  0  0  0
   64.2346   34.4306   46.9478 H   0  0  0  0  0  0  0  0  0  0  0  0
   64.2126   32.7498   46.4003 H   0  0  0  0  0  0  0  0  0  0  0  0
   62.1766   34.5992   45.8884 H   0  0  0  0  0  0  0  0  0  0  0  0
   61.9053   32.8527   45.8808 H   0  0  0  0  0  0  0  0  0  0  0  0
   58.0856   34.2717   44.1616 H   0  0  0  0  0  0  0  0  0  0  0  0
   56.9687   32.2727   43.1614 H   0  0  0  0  0  0  0  0  0  0  0  0
  1  2  1  0
  2  3  1  0
  3  4  1  0
  4  5  2  3
  4  6  1  0
  6  7  2  0
  7  8  1  0
  8  9  1  0
  9 10  1  0
 10 11  1  0
 11 12  2  0
 11 13  1  0
 13 14  1  0
 14 15  1  0
 15 16  1  0
 16 17  1  0
 16 18  2  0
 18 19  1  0
 19 20  1  0
 20 21  2  0
 20 22  2  0
 20 23  1  0
 23 24  2  0
 24 25  1  0
 25 26  2  0
 26 27  1  0
 27 28  1  0
 28 29  2  0
 28 30  1  0
 30 31  1  0
 31 32  1  0
 32 33  1  0
 33 34  1  0
 26 35  1  0
 35 36  2  0
 18 37  1  0
 37 38  2  0
  8  2  2  0
 37 14  1  0
 36 23  1  0
 34 30  1  0
  1 39  1  0
  1 40  1  0
  1 41  1  0
  5 42  1  0
  7 43  1  0
  9 44  1  0
  9 45  1  0
 10 46  1  0
 13 47  1  0
 13 48  1  0
 24 49  1  0
 25 50  1  0
 31 51  1  0
 31 52  1  0
 32 53  1  0
 32 54  1  0
 33 55  1  0
 33 56  1  0
 34 57  1  0
 34 58  1  0
 35 59  1  0
 36 60  1  0
M  CHG  4   3  -1  15  -1  19  -1  27  -1
M  END
>  <UniqueID>  (32) 
32

>  <SMILES>  (32) 
Cc1[n-]c(=N)ncc1CNC(=O)Cn1[n-]c(Cl)c([N-]S(=O)(=O)c2ccc([N-]C(=O)N3CCCC3)cc2)c1=O

>  <Energy>  (32) 
104.0039165316054

>  <Genealogy>  (32) 
Cc1[n-]c(=N)ncc1CNC(=O)Cn1[n-]c(Cl)c([N-]S(=O)(=O)c2ccc([N-]C(=O)N3CCCC3)cc2)c1=O (protonated)
Cc1[n-]c(=N)ncc1CNC(=O)Cn1[n-]c(Cl)c([N-]S(=O)(=O)c2ccc([N-]C(=O)N3CCCC3)cc2)c1=O (3D coordinates assigned)
Cc1[n-]c(=N)ncc1CNC(=O)Cn1[n-]c(Cl)c([N-]S(=O)(=O)c2ccc([N-]C(=O)N3CCCC3)cc2)c1=O (nonaromatic ring conformer: 104.0039165316054 kcal/mol)

>  <smiles>  (32) 
Cc1[nH]c(=N)ncc1CNC(=O)Cn1[nH]c(Cl)c(NS(=O)(=O)c2ccc(NC(=O)N3CCCC3)cc2)c1=O

>  <score_type>  (32) 
oracle

>  <origin>  (32) 
adg

>  <m_score__min__energy>  (32) 
-14.52

>  <m_primary>  (32) 
energy

$$$$
32:0
     RDKit          3D

 33 34  0  0  0  0  0  0  0  0999 V2000
   61.0630   30.5350   47.1000 C   0  0  0  0  0  0  0  0  0  0  0  0
   60.3380   29.1920   47.0210 C   0  0  0  0  0  0  0  0  0  0  0  0
   59.8920   28.8510   45.5920 C   0  0  0  0  0  0  0  0  0  0  0  0
   58.6730   29.6340   45.1920 C   0  0  0  0  0  0  0  0  0  0  0  0
   57.4010   29.0490   45.2100 C   0  0  0  0  0  0  0  0  0  0  0  0
   56.3020   29.8380   44.8690 C   0  0  0  0  0  0  0  0  0  0  0  0
   55.1440   29.3420   44.8630 O   0  0  0  0  0  0  0  0  0  0  0  0
   56.4780   31.1440   44.5460 N   0  0  0  0  0  0  0  0  0  0  0  0
   57.7170   31.7040   44.5550 C   0  0  0  0  0  0  0  0  0  0  0  0
   57.9270   33.4350   44.1280 S   0  0  0  0  0  0  0  0  0  0  0  0
   57.9650   34.1280   45.8370 C   0  0  0  0  0  0  0  0  0  0  0  0
   57.7720   33.0590   46.9200 C   0  0  0  0  0  0  0  0  0  0  0  0
   58.9320   33.2110   47.8970 C   0  0  0  0  0  0  0  0  0  0  0  0
   60.0050   33.9980   47.1660 C   0  0  0  0  0  0  0  0  0  0  0  0
   59.2650   34.8680   46.1650 C   0  0  0  0  0  0  0  0  0  0  0  0
   58.8010   30.9460   44.8630 N   0  0  0  0  0  0  0  0  0  0  0  0
   61.2115   30.8100   48.1547 H   0  0  0  0  0  0  0  0  0  0  0  0
   62.0400   30.4542   46.6011 H   0  0  0  0  0  0  0  0  0  0  0  0
   60.4593   31.3075   46.6011 H   0  0  0  0  0  0  0  0  0  0  0  0
   61.0165   28.4028   47.3772 H   0  0  0  0  0  0  0  0  0  0  0  0
   59.4358   29.2605   47.6466 H   0  0  0  0  0  0  0  0  0  0  0  0
   60.7113   29.0858   44.8966 H   0  0  0  0  0  0  0  0  0  0  0  0
   59.6410   27.7806   45.5557 H   0  0  0  0  0  0  0  0  0  0  0  0
   57.2712   27.9922   45.4865 H   0  0  0  0  0  0  0  0  0  0  0  0
   57.1223   34.8350   45.8446 H   0  0  0  0  0  0  0  0  0  0  0  0
   56.8153   33.2147   47.4402 H   0  0  0  0  0  0  0  0  0  0  0  0
   57.7535   32.0503   46.4815 H   0  0  0  0  0  0  0  0  0  0  0  0
   58.6049   33.7561   48.7947 H   0  0  0  0  0  0  0  0  0  0  0  0
   59.3089   32.2312   48.2254 H   0  0  0  0  0  0  0  0  0  0  0  0
   60.5711   34.6227   47.8726 H   0  0  0  0  0  0  0  0  0  0  0  0
   60.7292   33.3345   46.6706 H   0  0  0  0  0  0  0  0  0  0  0  0
   59.0436   35.8517   46.6047 H   0  0  0  0  0  0  0  0  0  0  0  0
   59.8674   35.0412   45.2611 H   0  0  0  0  0  0  0  0  0  0  0  0
  1  2  1  0
  2  3  1  0
  3  4  1  0
  4  5  2  0
  5  6  1  0
  6  7  2  0
  6  8  1  0
  8  9  1  0
  9 10  1  0
 10 11  1  0
 11 12  1  0
 12 13  1  0
 13 14  1  0
 14 15  1  0
  9 16  2  0
 16  4  1  0
 15 11  1  0
  1 17  1  0
  1 18  1  0
  1 19  1  0
  2 20  1  0
  2 21  1  0
  3 22  1  0
  3 23  1  0
  5 24  1  0
 11 25  1  0
 12 26  1  0
 12 27  1  0
 13 28  1  0
 13 29  1  0
 14 30  1  0
 14 31  1  0
 15 32  1  0
 15 33  1  0
M  CHG  1   8  -1
M  END
>  <UniqueID>  (33) 
33

>  <SMILES>  (33) 
CCCc1cc(=O)[n-]c(SC2CCCC2)n1

>  <Energy>  (33) 
24.94874463548745

>  <Genealogy>  (33) 
CCCc1cc(=O)[n-]c(SC2CCCC2)n1 (protonated)
CCCc1cc(=O)[n-]c(SC2CCCC2)n1 (3D coordinates assigned)
CCCc1cc(=O)[n-]c(SC2CCCC2)n1 (nonaromatic ring conformer: 24.94874463548745 kcal/mol)

>  <smiles>  (33) 
CCCc1cc(=O)[nH]c(SC2CCCC2)n1

>  <score_type>  (33) 
oracle

>  <origin>  (33) 
adg

>  <m_score__min__energy>  (33) 
-8.0500000000000007

>  <m_primary>  (33) 
energy

$$$$
33:0
     RDKit          3D

 65 69  0  0  0  0  0  0  0  0999 V2000
   59.8770   31.5680   52.9880 C   0  0  0  0  0  0  0  0  0  0  0  0
   59.7440   31.4200   51.5300 N   0  0  0  0  0  0  0  0  0  0  0  0
   60.9950   31.8200   50.8270 C   0  0  0  0  0  0  0  0  0  0  0  0
   60.8560   33.1110   50.0020 C   0  0  0  0  0  0  0  0  0  0  0  0
   59.7020   33.0150   49.1000 N   0  0  0  0  0  0  0  0  0  0  0  0
   59.6260   33.8690   47.9440 C   0  0  0  0  0  0  0  0  0  0  0  0
   60.2110   34.9840   47.9560 O   0  0  0  0  0  0  0  0  0  0  0  0
   58.8440   33.4790   46.7500 C   0  0  0  0  0  0  0  0  0  0  0  0
   57.9430   34.3830   46.1590 C   0  0  0  0  0  0  0  0  0  0  0  0
   57.2370   34.0220   45.0090 C   0  0  0  0  0  0  0  0  0  0  0  0
   57.4130   32.7580   44.4450 C   0  0  0  0  0  0  0  0  0  0  0  0
   58.2730   31.8250   45.0510 C   0  0  0  0  0  0  0  0  0  0  0  0
   58.5140   30.5280   44.4810 N   0  0  0  0  0  0  0  0  0  0  0  0
   59.1320   29.4060   45.1270 C   0  0  0  0  0  0  0  0  0  0  0  0
   60.3800   29.4200   45.2990 O   0  0  0  0  0  0  0  0  0  0  0  0
   58.3460   28.2630   45.6440 C   0  0  0  0  0  0  0  0  0  0  0  0
   58.8680   27.4220   46.6400 C   0  0  0  0  0  0  0  0  0  0  0  0
   58.1150   26.3500   47.1250 C   0  0  0  0  0  0  0  0  0  0  0  0
   56.8400   26.0890   46.6110 C   0  0  0  0  0  0  0  0  0  0  0  0
   56.0850   24.9930   47.1520 N   0  0  0  0  0  0  0  0  0  0  0  0
   56.5780   23.9380   47.9890 C   0  0  0  0  0  0  0  0  0  0  0  0
   57.5450   24.1770   48.7610 O   0  0  0  0  0  0  0  0  0  0  0  0
   56.0170   22.5750   47.9460 C   0  0  0  0  0  0  0  0  0  0  0  0
   56.7430   21.5970   47.6140 O   0  0  0  0  0  0  0  0  0  0  0  0
   54.6420   22.3700   48.2870 N   0  0  0  0  0  0  0  0  0  0  0  0
   53.7670   21.4350   47.5890 C   0  0  0  0  0  0  0  0  0  0  0  0
   52.9290   22.1590   46.5840 C   0  0  0  0  0  0  0  0  0  0  0  0
   53.4550   22.7400   45.4730 N   0  0  0  0  0  0  0  0  0  0  0  0
   52.3730   23.2750   44.8880 C   0  0  0  0  0  0  0  0  0  0  0  0
   52.3150   23.9940   43.6940 C   0  0  0  0  0  0  0  0  0  0  0  0
   51.0550   24.4610   43.2730 C   0  0  0  0  0  0  0  0  0  0  0  0
   49.9010   24.2000   44.0460 C   0  0  0  0  0  0  0  0  0  0  0  0
   49.9990   23.4710   45.2480 C   0  0  0  0  0  0  0  0  0  0  0  0
   51.2620   23.0250   45.6330 C   0  0  0  0  0  0  0  0  0  0  0  0
   51.5860   22.3170   46.7250 N   0  0  0  0  0  0  0  0  0  0  0  0
   56.3040   26.9440   45.6330 C   0  0  0  0  0  0  0  0  0  0  0  0
   57.0600   28.0090   45.1390 C   0  0  0  0  0  0  0  0  0  0  0  0
   58.9870   32.1950   46.1990 C   0  0  0  0  0  0  0  0  0  0  0  0
   58.5170   32.2610   49.5350 C   0  0  0  0  0  0  0  0  0  0  0  0
   58.5200   32.1060   51.0580 C   0  0  0  0  0  0  0  0  0  0  0  0
   59.2233   30.8406   53.4915 H   0  0  0  0  0  0  0  0  0  0  0  0
   60.9216   31.3867   53.2812 H   0  0  0  0  0  0  0  0  0  0  0  0
   59.5855   32.5874   53.2812 H   0  0  0  0  0  0  0  0  0  0  0  0
   61.7826   31.9721   51.5796 H   0  0  0  0  0  0  0  0  0  0  0  0
   61.2388   31.0125   50.1210 H   0  0  0  0  0  0  0  0  0  0  0  0
   60.7151   33.9636   50.6826 H   0  0  0  0  0  0  0  0  0  0  0  0
   61.7679   33.2543   49.4038 H   0  0  0  0  0  0  0  0  0  0  0  0
   57.7938   35.3778   46.6040 H   0  0  0  0  0  0  0  0  0  0  0  0
   56.5401   34.7365   44.5466 H   0  0  0  0  0  0  0  0  0  0  0  0
   56.8768   32.4903   43.5226 H   0  0  0  0  0  0  0  0  0  0  0  0
   59.8754   27.6084   47.0405 H   0  0  0  0  0  0  0  0  0  0  0  0
   58.5272   25.7067   47.9164 H   0  0  0  0  0  0  0  0  0  0  0  0
   54.3796   20.6802   47.0742 H   0  0  0  0  0  0  0  0  0  0  0  0
   53.1062   20.9487   48.3217 H   0  0  0  0  0  0  0  0  0  0  0  0
   53.2215   24.1893   43.1023 H   0  0  0  0  0  0  0  0  0  0  0  0
   50.9684   25.0323   42.3370 H   0  0  0  0  0  0  0  0  0  0  0  0
   48.9211   24.5679   43.7076 H   0  0  0  0  0  0  0  0  0  0  0  0
   49.1099   23.2614   45.8608 H   0  0  0  0  0  0  0  0  0  0  0  0
   55.2851   26.7737   45.2552 H   0  0  0  0  0  0  0  0  0  0  0  0
   56.6459   28.6532   44.3494 H   0  0  0  0  0  0  0  0  0  0  0  0
   59.6667   31.4719   46.6736 H   0  0  0  0  0  0  0  0  0  0  0  0
   57.6094   32.8004   49.2263 H   0  0  0  0  0  0  0  0  0  0  0  0
   58.5360   31.2633   49.0722 H   0  0  0  0  0  0  0  0  0  0  0  0
   58.4686   33.1034   51.5191 H   0  0  0  0  0  0  0  0  0  0  0  0
   57.6500   31.4972   51.3452 H   0  0  0  0  0  0  0  0  0  0  0  0
  1  2  1  0
  2  3  1  0
  3  4  1  0
  4  5  1  0
  5  6  1  0
  6  7  2  0
  6  8  1  0
  8  9  2  0
  9 10  1  0
 10 11  2  0
 11 12  1  0
 12 13  1  0
 13 14  1  0
 14 15  2  0
 14 16  1  0
 16 17  2  0
 17 18  1  0
 18 19  2  0
 19 20  1  0
 20 21  1  0
 21 22  2  0
 21 23  1  0
 23 24  2  0
 23 25  1  0
 25 26  1  0
 26 27  1  0
 27 28  2  0
 28 29  1  0
 29 30  2  0
 30 31  1  0
 31 32  2  0
 32 33  1  0
 33 34  2  0
 34 35  1  0
 19 36  1  0
 36 37  2  0
 12 38  2  0
  5 39  1  0
 39 40  1  0
 40  2  1  0
 38  8  1  0
 37 16  1  0
 35 27  1  0
 34 29  1  0
  1 41  1  0
  1 42  1  0
  1 43  1  0
  3 44  1  0
  3 45  1  0
  4 46  1  0
  4 47  1  0
  9 48  1  0
 10 49  1  0
 11 50  1  0
 17 51  1  0
 18 52  1  0
 26 53  1  0
 26 54  1  0
 30 55  1  0
 31 56  1  0
 32 57  1  0
 33 58  1  0
 36 59  1  0
 37 60  1  0
 38 61  1  0
 39 62  1  0
 39 63  1  0
 40 64  1  0
 40 65  1  0
M  CHG  4  13  -1  20  -1  25  -1  35  -1
M  END
>  <UniqueID>  (34) 
34

>  <SMILES>  (34) 
CN1CCN(C(=O)c2cccc([N-]C(=O)c3ccc([N-]C(=O)C(=O)[N-]Cc4nc5ccccc5[n-]4)cc3)c2)CC1

>  <Energy>  (34) 
125.45410836166432

>  <Genealogy>  (34) 
CN1CCN(C(=O)c2cccc([N-]C(=O)c3ccc([N-]C(=O)C(=O)[N-]Cc4nc5ccccc5[n-]4)cc3)c2)CC1 (protonated)
CN1CCN(C(=O)c2cccc([N-]C(=O)c3ccc([N-]C(=O)C(=O)[N-]Cc4nc5ccccc5[n-]4)cc3)c2)CC1 (3D coordinates assigned)
CN1CCN(C(=O)c2cccc([N-]C(=O)c3ccc([N-]C(=O)C(=O)[N-]Cc4nc5ccccc5[n-]4)cc3)c2)CC1 (nonaromatic ring conformer: 125.45410836166432 kcal/mol)

>  <smiles>  (34) 
CN1CCN(C(=O)c2cccc(NC(=O)c3ccc(NC(=O)C(=O)NCc4nc5ccccc5[nH]4)cc3)c2)CC1

>  <score_type>  (34) 
oracle

>  <origin>  (34) 
adg

>  <m_score__min__energy>  (34) 
-15.300000000000001

>  <m_primary>  (34) 
energy

$$$$
34:0
     RDKit          3D

 54 56  0  0  0  0  0  0  0  0999 V2000
   64.0580   34.1860   51.6350 C   0  0  0  0  0  0  0  0  0  0  0  0
   62.9320   33.6620   50.9390 O   0  0  0  0  0  0  0  0  0  0  0  0
   62.8190   33.5930   49.5390 C   0  0  0  0  0  0  0  0  0  0  0  0
   63.9310   33.3160   48.7210 C   0  0  0  0  0  0  0  0  0  0  0  0
   63.7920   33.2610   47.3330 C   0  0  0  0  0  0  0  0  0  0  0  0
   62.5490   33.4850   46.7460 C   0  0  0  0  0  0  0  0  0  0  0  0
   61.4340   33.7600   47.5400 C   0  0  0  0  0  0  0  0  0  0  0  0
   60.2400   33.9810   46.9360 F   0  0  0  0  0  0  0  0  0  0  0  0
   61.5550   33.8110   48.9430 C   0  0  0  0  0  0  0  0  0  0  0  0
   60.3380   34.0870   49.8100 C   0  0  0  0  0  0  0  0  0  0  0  0
   60.3120   33.2400   51.0350 N   0  0  2  0  0  0  0  0  0  0  0  0
   60.1480   31.7980   50.7260 C   0  0  0  0  0  0  0  0  0  0  0  0
   58.7460   31.4450   50.1880 C   0  0  0  0  0  0  0  0  0  0  0  0
   57.6310   32.3190   50.7860 C   0  0  0  0  0  0  0  0  0  0  0  0
   58.0210   32.8950   52.1500 C   0  0  1  0  0  0  0  0  0  0  0  0
   58.2120   31.8210   53.1260 N   0  0  0  0  0  0  0  0  0  0  0  0
   57.2000   30.9130   53.5810 C   0  0  0  0  0  0  0  0  0  0  0  0
   56.6110   31.1620   54.6670 O   0  0  0  0  0  0  0  0  0  0  0  0
   56.7670   29.7300   52.7560 C   0  0  0  0  0  0  0  0  0  0  0  0
   55.7240   30.0840   51.8450 O   0  0  0  0  0  0  0  0  0  0  0  0
   54.3530   30.1100   52.1560 C   0  0  0  0  0  0  0  0  0  0  0  0
   53.7440   29.1500   52.9830 C   0  0  0  0  0  0  0  0  0  0  0  0
   52.3780   29.2270   53.2610 C   0  0  0  0  0  0  0  0  0  0  0  0
   51.6020   30.2560   52.7180 C   0  0  0  0  0  0  0  0  0  0  0  0
   50.2770   30.2950   53.0130 F   0  0  0  0  0  0  0  0  0  0  0  0
   52.1940   31.2290   51.8860 C   0  0  0  0  0  0  0  0  0  0  0  0
   51.4000   32.3340   51.2960 C   0  0  0  0  0  0  0  0  0  0  0  0
   51.3870   32.5290   50.0510 O   0  0  0  0  0  0  0  0  0  0  0  0
   50.6510   33.1740   52.1130 O   0  0  0  0  0  0  0  0  0  0  0  0
   53.5730   31.1410   51.6150 C   0  0  0  0  0  0  0  0  0  0  0  0
   59.3170   33.7370   52.0370 C   0  0  0  0  0  0  0  0  0  0  0  0
   63.8883   34.1070   52.7190 H   0  0  0  0  0  0  0  0  0  0  0  0
   64.9568   33.6136   51.3619 H   0  0  0  0  0  0  0  0  0  0  0  0
   64.1989   35.2422   51.3619 H   0  0  0  0  0  0  0  0  0  0  0  0
   64.9160   33.1418   49.1787 H   0  0  0  0  0  0  0  0  0  0  0  0
   64.6656   33.0404   46.7019 H   0  0  0  0  0  0  0  0  0  0  0  0
   62.4453   33.4451   45.6516 H   0  0  0  0  0  0  0  0  0  0  0  0
   60.3513   35.1447   50.1117 H   0  0  0  0  0  0  0  0  0  0  0  0
   59.4422   33.8490   49.2176 H   0  0  0  0  0  0  0  0  0  0  0  0
   61.2510   33.3320   51.4900 H   0  0  0  0  0  0  0  0  0  0  0  0
   60.8939   31.5163   49.9682 H   0  0  0  0  0  0  0  0  0  0  0  0
   60.2844   31.2455   51.6673 H   0  0  0  0  0  0  0  0  0  0  0  0
   58.7468   31.5777   49.0960 H   0  0  0  0  0  0  0  0  0  0  0  0
   58.5369   30.4045   50.4772 H   0  0  0  0  0  0  0  0  0  0  0  0
   57.4231   33.1502   50.0961 H   0  0  0  0  0  0  0  0  0  0  0  0
   56.7425   31.6859   50.9267 H   0  0  0  0  0  0  0  0  0  0  0  0
   57.2027   33.5461   52.4913 H   0  0  0  0  0  0  0  0  0  0  0  0
   57.6298   29.3568   52.1848 H   0  0  0  0  0  0  0  0  0  0  0  0
   56.3846   28.9546   53.4361 H   0  0  0  0  0  0  0  0  0  0  0  0
   54.3458   28.3355   53.4125 H   0  0  0  0  0  0  0  0  0  0  0  0
   51.9092   28.4737   53.9112 H   0  0  0  0  0  0  0  0  0  0  0  0
   54.0460   31.8942   50.9677 H   0  0  0  0  0  0  0  0  0  0  0  0
   59.0339   34.7622   51.7564 H   0  0  0  0  0  0  0  0  0  0  0  0
   59.8111   33.6717   53.0176 H   0  0  0  0  0  0  0  0  0  0  0  0
  1  2  1  0
  2  3  1  0
  3  4  2  0
  4  5  1  0
  5  6  2  0
  6  7  1  0
  7  8  1  0
  7  9  2  0
  9 10  1  0
 10 11  1  0
 11 12  1  0
 12 13  1  0
 13 14  1  0
 14 15  1  0
 15 16  1  0
 16 17  1  0
 17 18  2  0
 17 19  1  0
 19 20  1  0
 20 21  1  0
 21 22  2  0
 22 23  1  0
 23 24  2  0
 24 25  1  0
 24 26  1  0
 26 27  1  0
 27 28  2  0
 27 29  1  0
 26 30  2  0
 15 31  1  0
  9  3  1  0
 31 11  1  0
 30 21  1  0
  1 32  1  0
  1 33  1  0
  1 34  1  0
  4 35  1  0
  5 36  1  0
  6 37  1  0
 10 38  1  0
 10 39  1  0
 11 40  1  1
 12 41  1  0
 12 42  1  0
 13 43  1  0
 13 44  1  0
 14 45  1  0
 14 46  1  0
 15 47  1  1
 19 48  1  0
 19 49  1  0
 22 50  1  0
 23 51  1  0
 30 52  1  0
 31 53  1  0
 31 54  1  0
M  CHG  3  11   1  16  -1  29  -1
M  END
>  <UniqueID>  (35) 
35

>  <SMILES>  (35) 
COc1cccc(F)c1C[N@@H+]1CCC[C@@H]([N-]C(=O)COc2ccc(F)c(C(=O)[O-])c2)C1

>  <Energy>  (35) 
67.7664845494087

>  <Genealogy>  (35) 
COc1cccc(F)c1C[NH+]1CCCC([N-]C(=O)COc2ccc(F)c(C(=O)[O-])c2)C1 (protonated)
COc1cccc(F)c1C[N@@H+]1CCC[C@@H]([N-]C(=O)COc2ccc(F)c(C(=O)[O-])c2)C1 (chirality)
COc1cccc(F)c1C[N@@H+]1CCC[C@@H]([N-]C(=O)COc2ccc(F)c(C(=O)[O-])c2)C1 (3D coordinates assigned)
COc1cccc(F)c1C[N@@H+]1CCC[C@@H]([N-]C(=O)COc2ccc(F)c(C(=O)[O-])c2)C1 (nonaromatic ring conformer: 67.7664845494087 kcal/mol)

>  <smiles>  (35) 
COc1cccc(F)c1CN1CCCC(NC(=O)COc2ccc(F)c(C(=O)O)c2)C1

>  <score_type>  (35) 
oracle

>  <origin>  (35) 
adg

>  <m_score__min__energy>  (35) 
-11.210000000000001

>  <m_primary>  (35) 
energy

$$$$
35:0
     RDKit          3D

 53 56  0  0  0  0  0  0  0  0999 V2000
   56.4408   29.8389   43.2538 H   0  0  0  0  0  0  0  0  0  0  0  0
   56.9680   30.1010   44.1830 C   0  0  0  0  0  0  0  0  0  0  0  0
   57.4250   31.4070   44.3740 C   0  0  0  0  0  0  0  0  0  0  0  0
   57.2640   32.1604   43.5889 H   0  0  0  0  0  0  0  0  0  0  0  0
   58.0900   31.7690   45.5620 C   0  0  0  0  0  0  0  0  0  0  0  0
   58.5580   33.1230   45.7630 N   0  0  0  0  0  0  0  0  0  0  0  0
   58.5940   33.7860   47.0590 C   0  0  0  0  0  0  0  0  0  0  0  0
   57.5725   33.9743   47.4211 H   0  0  0  0  0  0  0  0  0  0  0  0
   59.0979   33.1668   47.8158 H   0  0  0  0  0  0  0  0  0  0  0  0
   59.3270   35.1010   46.8340 C   0  0  0  0  0  0  0  0  0  0  0  0
   58.8204   35.9187   47.3676 H   0  0  0  0  0  0  0  0  0  0  0  0
   60.3594   35.0603   47.2115 H   0  0  0  0  0  0  0  0  0  0  0  0
   59.2870   35.3430   45.3290 C   0  0  0  0  0  0  0  0  0  0  0  0
   58.4659   36.0287   45.0730 H   0  0  0  0  0  0  0  0  0  0  0  0
   60.2184   35.8038   44.9683 H   0  0  0  0  0  0  0  0  0  0  0  0
   59.0550   33.9780   44.6950 C   0  0  0  0  0  0  0  0  0  0  0  0
   58.3122   34.0524   43.8871 H   0  0  0  0  0  0  0  0  0  0  0  0
   59.9778   33.5760   44.2513 H   0  0  0  0  0  0  0  0  0  0  0  0
   58.2770   30.7860   46.5530 C   0  0  0  0  0  0  0  0  0  0  0  0
   58.7911   31.0482   47.4895 H   0  0  0  0  0  0  0  0  0  0  0  0
   57.8160   29.4800   46.3590 C   0  0  0  0  0  0  0  0  0  0  0  0
   57.9568   28.7273   47.1487 H   0  0  0  0  0  0  0  0  0  0  0  0
   57.1740   29.1240   45.1610 C   0  0  0  0  0  0  0  0  0  0  0  0
   56.6590   27.8020   44.9320 N   0  0  0  0  0  0  0  0  0  0  0  0
   56.3350   26.8250   45.9310 C   0  0  0  0  0  0  0  0  0  0  0  0
   55.1360   26.5080   46.1630 O   0  0  0  0  0  0  0  0  0  0  0  0
   57.4320   26.2330   46.7620 C   0  0  0  0  0  0  0  0  0  0  0  0
   57.2154   25.1694   46.9403 H   0  0  0  0  0  0  0  0  0  0  0  0
   57.4850   26.7782   47.7159 H   0  0  0  0  0  0  0  0  0  0  0  0
   58.7830   26.3580   46.0490 C   0  0  0  0  0  0  0  0  0  0  0  0
   58.6998   27.1180   45.2581 H   0  0  0  0  0  0  0  0  0  0  0  0
   59.0399   25.3756   45.6259 H   0  0  0  0  0  0  0  0  0  0  0  0
   59.8790   26.7610   47.0000 C   0  0  0  0  0  0  0  0  0  0  0  0
   61.0660   26.4380   46.7340 O   0  0  0  0  0  0  0  0  0  0  0  0
   59.6380   27.6670   48.0870 N   0  0  0  0  0  0  0  0  0  0  0  0
   60.1810   28.8350   48.2680 C   0  0  0  0  0  0  0  0  0  0  0  0
   59.8950   29.7770   49.6440 S   0  0  0  0  0  0  0  0  0  0  0  0
   60.8480   31.0350   49.0660 C   0  0  0  0  0  0  0  0  0  0  0  0
   61.1230   32.2620   49.6640 C   0  0  0  0  0  0  0  0  0  0  0  0
   60.7145   32.5075   50.6554 H   0  0  0  0  0  0  0  0  0  0  0  0
   61.9340   33.1810   48.9740 C   0  0  0  0  0  0  0  0  0  0  0  0
   62.2030   34.4140   49.5860 O   0  0  0  0  0  0  0  0  0  0  0  0
   63.0710   34.5860   50.7010 C   0  0  0  0  0  0  0  0  0  0  0  0
   62.4977   34.4724   51.6329 H   0  0  0  0  0  0  0  0  0  0  0  0
   63.8676   33.8282   50.6659 H   0  0  0  0  0  0  0  0  0  0  0  0
   63.5184   35.5903   50.6659 H   0  0  0  0  0  0  0  0  0  0  0  0
   62.4490   32.8390   47.6960 C   0  0  0  0  0  0  0  0  0  0  0  0
   63.0850   33.5554   47.1554 H   0  0  0  0  0  0  0  0  0  0  0  0
   62.1540   31.5940   47.1150 C   0  0  0  0  0  0  0  0  0  0  0  0
   62.5509   31.3308   46.1234 H   0  0  0  0  0  0  0  0  0  0  0  0
   61.3480   30.6970   47.8190 C   0  0  0  0  0  0  0  0  0  0  0  0
   60.9750   29.4710   47.3660 N   0  0  0  0  0  0  0  0  0  0  0  0
   61.2360   29.1070   46.4250 H   0  0  0  0  0  0  0  0  0  0  0  0
  1  2  1  0
  2  3  2  0
  3  4  1  0
  3  5  1  0
  5  6  1  0
  6  7  1  0
  7  8  1  0
  7  9  1  0
  7 10  1  0
 10 11  1  0
 10 12  1  0
 10 13  1  0
 13 14  1  0
 13 15  1  0
 13 16  1  0
 16 17  1  0
 16 18  1  0
  5 19  2  0
 19 20  1  0
 19 21  1  0
 21 22  1  0
 21 23  2  0
 23 24  1  0
 24 25  1  0
 25 26  2  0
 25 27  1  0
 27 28  1  0
 27 29  1  0
 27 30  1  0
 30 31  1  0
 30 32  1  0
 30 33  1  0
 33 34  2  0
 33 35  1  0
 35 36  2  0
 36 37  1  0
 37 38  1  0
 38 39  2  0
 39 40  1  0
 39 41  1  0
 41 42  1  0
 42 43  1  0
 43 44  1  0
 43 45  1  0
 43 46  1  0
 41 47  2  0
 47 48  1  0
 47 49  1  0
 49 50  1  0
 49 51  2  0
 51 52  1  0
 52 53  1  0
 23  2  1  0
 52 36  1  0
 16  6  1  0
 51 38  1  0
M  CHG  1  24  -1
M  END
>  <UniqueID>  (36) 
36

>  <SMILES>  (36) 
COc1ccc2[nH]/c(=N\C(=O)CCC(=O)[N-]c3ccc(N4CCCC4)cc3)sc2c1

>  <Energy>  (36) 
98.43382989857028

>  <Genealogy>  (36) 
COc1ccc2[nH]c(=NC(=O)CCC(=O)[N-]c3ccc(N4CCCC4)cc3)sc2c1 (protonated)
COc1ccc2[nH]/c(=N\C(=O)CCC(=O)[N-]c3ccc(N4CCCC4)cc3)sc2c1 (cis-trans isomerization)
COc1ccc2[nH]/c(=N\C(=O)CCC(=O)[N-]c3ccc(N4CCCC4)cc3)sc2c1 (3D coordinates assigned)
COc1ccc2[nH]/c(=N\C(=O)CCC(=O)[N-]c3ccc(N4CCCC4)cc3)sc2c1 (nonaromatic ring conformer: 98.43382989857028 kcal/mol)

>  <smiles>  (36) 
COc1ccc2[nH]c(=NC(=O)CCC(=O)Nc3ccc(N4CCCC4)cc3)sc2c1

>  <score_type>  (36) 
oracle

>  <origin>  (36) 
adg

>  <m_score__min__energy>  (36) 
-10.23

>  <m_primary>  (36) 
energy

$$$$
36:0
     RDKit          3D

 56 59  0  0  0  0  0  0  0  0999 V2000
   59.8660   30.5250   52.2530 C   0  0  0  0  0  0  0  0  0  0  0  0
   59.0370   30.2390   51.0360 C   0  0  0  0  0  0  0  0  0  0  0  0
   57.8020   30.0310   51.1890 O   0  0  0  0  0  0  0  0  0  0  0  0
   59.6290   30.2000   49.6710 C   0  0  0  0  0  0  0  0  0  0  0  0
   60.9240   30.6940   49.4220 C   0  0  0  0  0  0  0  0  0  0  0  0
   61.4600   30.6620   48.1330 C   0  0  0  0  0  0  0  0  0  0  0  0
   62.7030   31.1520   47.9040 F   0  0  0  0  0  0  0  0  0  0  0  0
   60.7190   30.1300   47.0770 C   0  0  0  0  0  0  0  0  0  0  0  0
   59.4360   29.6100   47.3010 C   0  0  0  0  0  0  0  0  0  0  0  0
   58.6850   29.0870   46.1910 N   0  0  0  0  0  0  0  0  0  0  0  0
   59.0030   27.8650   45.5060 C   0  0  0  0  0  0  0  0  0  0  0  0
   60.1100   27.2900   45.6940 O   0  0  0  0  0  0  0  0  0  0  0  0
   58.0200   27.2700   44.5430 C   0  0  0  0  0  0  0  0  0  0  0  0
   57.7550   28.2360   43.3860 C   0  0  0  0  0  0  0  0  0  0  0  0
   57.2820   29.5570   43.9040 C   0  0  0  0  0  0  0  0  0  0  0  0
   57.9600   30.7110   43.7550 N   0  0  0  0  0  0  0  0  0  0  0  0
   57.1260   31.5820   44.3620 C   0  0  0  0  0  0  0  0  0  0  0  0
   57.4200   33.0410   44.5120 C   0  0  0  0  0  0  0  0  0  0  0  0
   58.3510   33.2660   45.6720 C   0  0  0  0  0  0  0  0  0  0  0  0
   57.9590   32.9110   46.9710 C   0  0  0  0  0  0  0  0  0  0  0  0
   58.8340   33.0920   48.0460 C   0  0  0  0  0  0  0  0  0  0  0  0
   60.1140   33.6360   47.8420 C   0  0  0  0  0  0  0  0  0  0  0  0
   61.0140   33.8180   48.9520 N   0  0  0  0  0  0  0  0  0  0  0  0
   60.6110   33.8450   50.3500 C   0  0  0  0  0  0  0  0  0  0  0  0
   61.9160   33.8400   51.1690 C   0  0  0  0  0  0  0  0  0  0  0  0
   63.0630   34.1280   50.1910 C   0  0  0  0  0  0  0  0  0  0  0  0
   62.4130   34.0310   48.8690 C   0  0  0  0  0  0  0  0  0  0  0  0
   63.0290   34.1900   47.7820 O   0  0  0  0  0  0  0  0  0  0  0  0
   60.5110   33.9660   46.5350 C   0  0  0  0  0  0  0  0  0  0  0  0
   59.6390   33.7800   45.4590 C   0  0  0  0  0  0  0  0  0  0  0  0
   56.0190   30.9890   44.8490 N   0  0  0  0  0  0  0  0  0  0  0  0
   56.1520   29.7360   44.5410 O   0  0  0  0  0  0  0  0  0  0  0  0
   58.8900   29.6680   48.5970 C   0  0  0  0  0  0  0  0  0  0  0  0
   59.2732   30.3205   53.1568 H   0  0  0  0  0  0  0  0  0  0  0  0
   60.7593   29.8831   52.2473 H   0  0  0  0  0  0  0  0  0  0  0  0
   60.1734   31.5812   52.2473 H   0  0  0  0  0  0  0  0  0  0  0  0
   61.5182   31.1085   50.2497 H   0  0  0  0  0  0  0  0  0  0  0  0
   61.1439   30.1184   46.0625 H   0  0  0  0  0  0  0  0  0  0  0  0
   57.9050   29.6690   45.8090 H   0  0  0  0  0  0  0  0  0  0  0  0
   58.4276   26.3295   44.1438 H   0  0  0  0  0  0  0  0  0  0  0  0
   57.0744   27.0781   45.0713 H   0  0  0  0  0  0  0  0  0  0  0  0
   58.6847   28.3824   42.8165 H   0  0  0  0  0  0  0  0  0  0  0  0
   56.9761   27.8088   42.7373 H   0  0  0  0  0  0  0  0  0  0  0  0
   57.8910   33.4135   43.5904 H   0  0  0  0  0  0  0  0  0  0  0  0
   56.4790   33.5799   44.6968 H   0  0  0  0  0  0  0  0  0  0  0  0
   56.9584   32.4882   47.1447 H   0  0  0  0  0  0  0  0  0  0  0  0
   58.5182   32.8063   49.0602 H   0  0  0  0  0  0  0  0  0  0  0  0
   60.0299   34.7545   50.5626 H   0  0  0  0  0  0  0  0  0  0  0  0
   59.9741   32.9843   50.6021 H   0  0  0  0  0  0  0  0  0  0  0  0
   61.8774   34.6185   51.9452 H   0  0  0  0  0  0  0  0  0  0  0  0
   62.0612   32.8708   51.6686 H   0  0  0  0  0  0  0  0  0  0  0  0
   63.4768   35.1341   50.3540 H   0  0  0  0  0  0  0  0  0  0  0  0
   63.9111   33.4369   50.3060 H   0  0  0  0  0  0  0  0  0  0  0  0
   61.5169   34.3743   46.3574 H   0  0  0  0  0  0  0  0  0  0  0  0
   59.9639   34.0378   44.4402 H   0  0  0  0  0  0  0  0  0  0  0  0
   57.8713   29.2923   48.7734 H   0  0  0  0  0  0  0  0  0  0  0  0
  1  2  1  0
  2  3  2  0
  2  4  1  0
  4  5  2  0
  5  6  1  0
  6  7  1  0
  6  8  2  0
  8  9  1  0
  9 10  1  0
 10 11  1  0
 11 12  2  0
 11 13  1  0
 13 14  1  0
 14 15  1  0
 15 16  2  0
 16 17  1  0
 17 18  1  0
 18 19  1  0
 19 20  2  0
 20 21  1  0
 21 22  2  0
 22 23  1  0
 23 24  1  0
 24 25  1  0
 25 26  1  0
 26 27  1  0
 27 28  2  0
 22 29  1  0
 29 30  2  0
 17 31  2  0
 31 32  1  0
  9 33  2  0
 33  4  1  0
 32 15  1  0
 30 19  1  0
 27 23  1  0
  1 34  1  0
  1 35  1  0
  1 36  1  0
  5 37  1  0
  8 38  1  0
 10 39  1  0
 13 40  1  0
 13 41  1  0
 14 42  1  0
 14 43  1  0
 18 44  1  0
 18 45  1  0
 20 46  1  0
 21 47  1  0
 24 48  1  0
 24 49  1  0
 25 50  1  0
 25 51  1  0
 26 52  1  0
 26 53  1  0
 29 54  1  0
 30 55  1  0
 33 56  1  0
M  END
>  <UniqueID>  (37) 
37

>  <SMILES>  (37) 
CC(=O)c1cc(F)cc(NC(=O)CCc2nc(Cc3ccc(N4CCCC4=O)cc3)no2)c1

>  <Energy>  (37) 
99.76118470985729

>  <Genealogy>  (37) 
CC(=O)c1cc(F)cc(NC(=O)CCc2nc(Cc3ccc(N4CCCC4=O)cc3)no2)c1 (3D coordinates assigned)
CC(=O)c1cc(F)cc(NC(=O)CCc2nc(Cc3ccc(N4CCCC4=O)cc3)no2)c1 (nonaromatic ring conformer: 99.76118470985729 kcal/mol)

>  <smiles>  (37) 
CC(=O)c1cc(F)cc(NC(=O)CCc2nc(Cc3ccc(N4CCCC4=O)cc3)no2)c1

>  <score_type>  (37) 
oracle

>  <origin>  (37) 
adg

>  <m_score__min__energy>  (37) 
-9.1899999999999995

>  <m_primary>  (37) 
energy

$$$$
37:0
     RDKit          3D

 20 21  0  0  0  0  0  0  0  0999 V2000
   55.7318   31.8165   51.7275 H   0  0  0  0  0  0  0  0  0  0  0  0
   56.0780   30.8330   52.0780 C   0  0  0  0  0  0  0  0  0  0  0  0
   57.1487   30.5831   52.0452 H   0  0  0  0  0  0  0  0  0  0  0  0
   55.1970   29.9410   52.5440 C   0  0  0  0  0  0  0  0  0  0  0  0
   53.8120   30.0910   52.6470 C   0  0  0  0  0  0  0  0  0  0  0  0
   53.0850   31.1820   52.3390 C   0  0  0  0  0  0  0  0  0  0  0  0
   53.1044   32.0298   53.0396 H   0  0  0  0  0  0  0  0  0  0  0  0
   52.2650   31.3100   51.1210 C   0  0  0  0  0  0  0  0  0  0  0  0
   52.2290   30.3740   50.1560 N   0  0  0  0  0  0  0  0  0  0  0  0
   51.3050   30.8490   49.2930 C   0  0  0  0  0  0  0  0  0  0  0  0
   50.9960   30.2460   48.2320 O   0  0  0  0  0  0  0  0  0  0  0  0
   50.7330   32.0140   49.6600 N   0  0  0  0  0  0  0  0  0  0  0  0
   51.3400   32.2870   50.8250 C   0  0  0  0  0  0  0  0  0  0  0  0
   51.0200   33.3810   51.6210 O   0  0  0  0  0  0  0  0  0  0  0  0
   53.3410   28.9030   53.1880 C   0  0  0  0  0  0  0  0  0  0  0  0
   52.2943   28.6568   53.4198 H   0  0  0  0  0  0  0  0  0  0  0  0
   54.4400   28.0900   53.3790 C   0  0  0  0  0  0  0  0  0  0  0  0
   54.4042   27.0714   53.7928 H   0  0  0  0  0  0  0  0  0  0  0  0
   55.5600   28.7210   52.9870 N   0  0  0  0  0  0  0  0  0  0  0  0
   56.5290   28.3310   53.0280 H   0  0  0  0  0  0  0  0  0  0  0  0
  1  2  1  0
  2  3  1  0
  2  4  2  0
  4  5  1  0
  5  6  2  0
  6  7  1  0
  6  8  1  0
  8  9  1  0
  9 10  1  0
 10 11  2  0
 10 12  1  0
 12 13  1  0
 13 14  1  0
  5 15  1  0
 15 16  1  0
 15 17  2  0
 17 18  1  0
 17 19  1  0
 19 20  1  0
 19  4  1  0
 13  8  2  0
M  CHG  3   9  -1  12  -1  14  -1
M  END
>  <UniqueID>  (38) 
38

>  <SMILES>  (38) 
C=c1[nH]cc/c1=C\c1[n-]c(=O)[n-]c1[O-]

>  <Energy>  (38) 
83.57027737759924

>  <Genealogy>  (38) 
C=c1[nH]ccc1=Cc1[n-]c(=O)[n-]c1[O-] (protonated)
C=c1[nH]cc/c1=C\c1[n-]c(=O)[n-]c1[O-] (cis-trans isomerization)
C=c1[nH]cc/c1=C\c1[n-]c(=O)[n-]c1[O-] (3D coordinates assigned)
C=c1[nH]cc/c1=C\c1[n-]c(=O)[n-]c1[O-] (optimized conformer: 83.57027737759924 kcal/mol)

>  <smiles>  (38) 
C=c1[nH]ccc1=Cc1[nH]c(=O)[nH]c1O

>  <score_type>  (38) 
oracle

>  <origin>  (38) 
adg

>  <m_score__min__energy>  (38) 
-14.859999999999999

>  <m_primary>  (38) 
energy

$$$$
38:0
     RDKit          3D

 48 50  0  0  0  0  0  0  0  0999 V2000
   56.1980   29.1500   45.2340 O   0  0  0  0  0  0  0  0  0  0  0  0
   57.0230   30.0980   45.1330 C   0  0  0  0  0  0  0  0  0  0  0  0
   56.5900   31.3120   44.5040 N   0  0  0  0  0  0  0  0  0  0  0  0
   57.4310   32.3910   43.9900 C   0  0  0  0  0  0  0  0  0  0  0  0
   57.6330   33.5000   45.0450 C   0  0  0  0  0  0  0  0  0  0  0  0
   57.5690   32.9220   46.4800 C   0  0  0  0  0  0  0  0  0  0  0  0
   58.2880   33.8160   47.4940 C   0  0  0  0  0  0  0  0  0  0  0  0
   59.6950   33.9990   47.1070 N   0  0  0  0  0  0  0  0  0  0  0  0
   60.6920   34.2250   48.1190 C   0  0  0  0  0  0  0  0  0  0  0  0
   61.9160   34.1900   47.8140 O   0  0  0  0  0  0  0  0  0  0  0  0
   60.3000   34.4250   49.4510 O   0  0  0  0  0  0  0  0  0  0  0  0
   59.6650   33.4750   50.2650 C   0  0  0  0  0  0  0  0  0  0  0  0
   59.0570   33.8170   51.4870 C   0  0  0  0  0  0  0  0  0  0  0  0
   58.4350   32.8330   52.2630 C   0  0  0  0  0  0  0  0  0  0  0  0
   58.4000   31.5080   51.8200 C   0  0  0  0  0  0  0  0  0  0  0  0
   58.9800   31.1660   50.5950 C   0  0  0  0  0  0  0  0  0  0  0  0
   58.9290   29.5060   50.0350 Cl  0  0  0  0  0  0  0  0  0  0  0  0
   59.6050   32.1490   49.8180 C   0  0  0  0  0  0  0  0  0  0  0  0
   60.0830   33.9480   45.6880 C   0  0  0  0  0  0  0  0  0  0  0  0
   58.9080   34.3460   44.7870 C   0  0  0  0  0  0  0  0  0  0  0  0
   58.3560   29.9450   45.6550 N   0  0  0  0  0  0  0  0  0  0  0  0
   58.8860   28.6800   46.0810 C   0  0  0  0  0  0  0  0  0  0  0  0
   58.1580   27.9050   46.9990 C   0  0  0  0  0  0  0  0  0  0  0  0
   58.6580   26.6760   47.4390 C   0  0  0  0  0  0  0  0  0  0  0  0
   59.8960   26.2190   46.9820 C   0  0  0  0  0  0  0  0  0  0  0  0
   60.6400   26.9940   46.0890 C   0  0  0  0  0  0  0  0  0  0  0  0
   60.1470   28.2240   45.6440 C   0  0  0  0  0  0  0  0  0  0  0  0
   60.9160   28.9860   44.8260 F   0  0  0  0  0  0  0  0  0  0  0  0
   58.4122   31.9785   43.7122 H   0  0  0  0  0  0  0  0  0  0  0  0
   56.9310   32.8326   43.1154 H   0  0  0  0  0  0  0  0  0  0  0  0
   56.7947   34.2052   44.9454 H   0  0  0  0  0  0  0  0  0  0  0  0
   56.5142   32.8261   46.7770 H   0  0  0  0  0  0  0  0  0  0  0  0
   58.0726   31.9441   46.4739 H   0  0  0  0  0  0  0  0  0  0  0  0
   57.7911   34.7967   47.5294 H   0  0  0  0  0  0  0  0  0  0  0  0
   58.2488   33.3373   48.4836 H   0  0  0  0  0  0  0  0  0  0  0  0
   59.0708   34.8610   51.8332 H   0  0  0  0  0  0  0  0  0  0  0  0
   57.9725   33.1028   53.2239 H   0  0  0  0  0  0  0  0  0  0  0  0
   57.9163   30.7347   52.4349 H   0  0  0  0  0  0  0  0  0  0  0  0
   60.0519   31.8780   48.8501 H   0  0  0  0  0  0  0  0  0  0  0  0
   60.9192   34.6422   45.5177 H   0  0  0  0  0  0  0  0  0  0  0  0
   60.3831   32.9188   45.4416 H   0  0  0  0  0  0  0  0  0  0  0  0
   58.6694   35.4043   44.9690 H   0  0  0  0  0  0  0  0  0  0  0  0
   59.2162   34.1679   43.7462 H   0  0  0  0  0  0  0  0  0  0  0  0
   58.9150   30.7920   45.8900 H   0  0  0  0  0  0  0  0  0  0  0  0
   57.1893   28.2672   47.3736 H   0  0  0  0  0  0  0  0  0  0  0  0
   58.0753   26.0678   48.1465 H   0  0  0  0  0  0  0  0  0  0  0  0
   60.2852   25.2490   47.3251 H   0  0  0  0  0  0  0  0  0  0  0  0
   61.6175   26.6349   45.7347 H   0  0  0  0  0  0  0  0  0  0  0  0
  1  2  2  0
  2  3  1  0
  3  4  1  0
  4  5  1  0
  5  6  1  0
  6  7  1  0
  7  8  1  0
  8  9  1  0
  9 10  2  0
  9 11  1  0
 11 12  1  0
 12 13  2  0
 13 14  1  0
 14 15  2  0
 15 16  1  0
 16 17  1  0
 16 18  2  0
  8 19  1  0
 19 20  1  0
  2 21  1  0
 21 22  1  0
 22 23  2  0
 23 24  1  0
 24 25  2  0
 25 26  1  0
 26 27  2  0
 27 28  1  0
 20  5  1  0
 27 22  1  0
 18 12  1  0
  4 29  1  0
  4 30  1  0
  5 31  1  0
  6 32  1  0
  6 33  1  0
  7 34  1  0
  7 35  1  0
 13 36  1  0
 14 37  1  0
 15 38  1  0
 18 39  1  0
 19 40  1  0
 19 41  1  0
 20 42  1  0
 20 43  1  0
 21 44  1  0
 23 45  1  0
 24 46  1  0
 25 47  1  0
 26 48  1  0
M  CHG  1   3  -1
M  END
>  <UniqueID>  (39) 
39

>  <SMILES>  (39) 
O=C([N-]CC1CCN(C(=O)Oc2cccc(Cl)c2)CC1)Nc1ccccc1F

>  <Energy>  (39) 
60.66018129657082

>  <Genealogy>  (39) 
O=C([N-]CC1CCN(C(=O)Oc2cccc(Cl)c2)CC1)Nc1ccccc1F (protonated)
O=C([N-]CC1CCN(C(=O)Oc2cccc(Cl)c2)CC1)Nc1ccccc1F (3D coordinates assigned)
O=C([N-]CC1CCN(C(=O)Oc2cccc(Cl)c2)CC1)Nc1ccccc1F (nonaromatic ring conformer: 60.66018129657082 kcal/mol)

>  <smiles>  (39) 
O=C(NCC1CCN(C(=O)Oc2cccc(Cl)c2)CC1)Nc1ccccc1F

>  <score_type>  (39) 
oracle

>  <origin>  (39) 
adg

>  <m_score__min__energy>  (39) 
-10.380000000000001

>  <m_primary>  (39) 
energy

$$$$
39:0
     RDKit          3D

 35 37  0  0  0  0  0  0  0  0999 V2000
   57.3987   29.8448   54.8789 H   0  0  0  0  0  0  0  0  0  0  0  0
   56.2990   29.8310   54.9010 C   0  0  0  0  0  0  0  0  0  0  0  0
   55.7702   29.6409   55.8467 H   0  0  0  0  0  0  0  0  0  0  0  0
   55.6060   30.0450   53.7800 C   0  0  0  0  0  0  0  0  0  0  0  0
   56.1250   30.3340   52.5220 C   0  0  0  0  0  0  0  0  0  0  0  0
   57.5450   30.3980   52.1100 C   0  0  0  0  0  0  0  0  0  0  0  0
   58.2220   29.3350   52.0820 O   0  0  0  0  0  0  0  0  0  0  0  0
   58.1610   31.6410   51.7160 N   0  0  0  0  0  0  0  0  0  0  0  0
   59.1590   31.6660   50.6430 C   0  0  0  0  0  0  0  0  0  0  0  0
   59.6209   30.6720   50.5503 H   0  0  0  0  0  0  0  0  0  0  0  0
   58.6684   31.9358   49.6961 H   0  0  0  0  0  0  0  0  0  0  0  0
   60.2400   32.7010   50.9660 C   0  0  0  0  0  0  0  0  0  0  0  0
   60.8220   32.3553   51.8330 H   0  0  0  0  0  0  0  0  0  0  0  0
   60.8913   32.8151   50.0869 H   0  0  0  0  0  0  0  0  0  0  0  0
   59.6620   33.9580   51.2670 O   0  0  0  0  0  0  0  0  0  0  0  0
   58.8950   33.8600   52.4520 C   0  0  0  0  0  0  0  0  0  0  0  0
   59.5283   33.4643   53.2597 H   0  0  0  0  0  0  0  0  0  0  0  0
   58.5213   34.8610   52.7136 H   0  0  0  0  0  0  0  0  0  0  0  0
   57.6980   32.9270   52.2500 C   0  0  0  0  0  0  0  0  0  0  0  0
   57.1947   32.7631   53.2143 H   0  0  0  0  0  0  0  0  0  0  0  0
   56.9935   33.3850   51.5401 H   0  0  0  0  0  0  0  0  0  0  0  0
   55.0370   30.5060   51.6830 C   0  0  0  0  0  0  0  0  0  0  0  0
   55.0643   30.7472   50.6101 H   0  0  0  0  0  0  0  0  0  0  0  0
   53.9050   30.3140   52.4630 C   0  0  0  0  0  0  0  0  0  0  0  0
   52.6260   30.4130   52.0680 C   0  0  0  0  0  0  0  0  0  0  0  0
   52.2306   29.6287   51.4058 H   0  0  0  0  0  0  0  0  0  0  0  0
   51.7170   31.5030   52.4630 C   0  0  0  0  0  0  0  0  0  0  0  0
   51.3710   31.7490   53.7380 N   0  0  0  0  0  0  0  0  0  0  0  0
   50.4780   32.7570   53.6320 C   0  0  0  0  0  0  0  0  0  0  0  0
   49.9270   33.2810   54.6350 O   0  0  0  0  0  0  0  0  0  0  0  0
   50.2150   33.1510   52.3690 N   0  0  0  0  0  0  0  0  0  0  0  0
   50.9970   32.3400   51.6380 C   0  0  0  0  0  0  0  0  0  0  0  0
   51.0120   32.3340   50.2490 O   0  0  0  0  0  0  0  0  0  0  0  0
   54.2590   30.0420   53.7360 N   0  0  0  0  0  0  0  0  0  0  0  0
   53.6120   29.8680   54.5390 H   0  0  0  0  0  0  0  0  0  0  0  0
  1  2  1  0
  2  3  1  0
  2  4  2  0
  4  5  1  0
  5  6  1  0
  6  7  2  0
  6  8  1  0
  8  9  1  0
  9 10  1  0
  9 11  1  0
  9 12  1  0
 12 13  1  0
 12 14  1  0
 12 15  1  0
 15 16  1  0
 16 17  1  0
 16 18  1  0
 16 19  1  0
 19 20  1  0
 19 21  1  0
  5 22  2  0
 22 23  1  0
 22 24  1  0
 24 25  2  0
 25 26  1  0
 25 27  1  0
 27 28  1  0
 28 29  1  0
 29 30  2  0
 29 31  1  0
 31 32  1  0
 32 33  1  0
 24 34  1  0
 34 35  1  0
 34  4  1  0
 19  8  1  0
 32 27  2  0
M  CHG  3  28  -1  31  -1  33  -1
M  END
>  <UniqueID>  (40) 
40

>  <SMILES>  (40) 
C=c1[nH]/c(=C/c2[n-]c(=O)[n-]c2[O-])cc1C(=O)N1CCOCC1

>  <Energy>  (40) 
104.28634357487563

>  <Genealogy>  (40) 
C=c1[nH]c(=Cc2[n-]c(=O)[n-]c2[O-])cc1C(=O)N1CCOCC1 (protonated)
C=c1[nH]/c(=C/c2[n-]c(=O)[n-]c2[O-])cc1C(=O)N1CCOCC1 (cis-trans isomerization)
C=c1[nH]/c(=C/c2[n-]c(=O)[n-]c2[O-])cc1C(=O)N1CCOCC1 (3D coordinates assigned)
C=c1[nH]/c(=C/c2[n-]c(=O)[n-]c2[O-])cc1C(=O)N1CCOCC1 (nonaromatic ring conformer: 104.28634357487563 kcal/mol)

>  <smiles>  (40) 
C=c1[nH]c(=Cc2[nH]c(=O)[nH]c2O)cc1C(=O)N1CCOCC1

>  <score_type>  (40) 
oracle

>  <origin>  (40) 
adg

>  <m_score__min__energy>  (40) 
-16.440000000000001

>  <m_primary>  (40) 
energy

$$$$
40:0
     RDKit          3D

 44 46  0  0  0  0  0  0  0  0999 V2000
   64.7300   32.4040   50.0170 C   0  0  0  0  0  0  0  0  0  0  0  0
   63.7170   32.8760   49.0170 C   0  0  0  0  0  0  0  0  0  0  0  0
   64.0960   33.1340   47.6920 C   0  0  0  0  0  0  0  0  0  0  0  0
   63.1440   33.5460   46.7570 C   0  0  0  0  0  0  0  0  0  0  0  0
   61.8050   33.6830   47.1310 C   0  0  0  0  0  0  0  0  0  0  0  0
   61.4010   33.3930   48.4440 C   0  0  0  0  0  0  0  0  0  0  0  0
   59.9750   33.5200   48.8240 C   0  0  0  0  0  0  0  0  0  0  0  0
   59.6510   34.3240   49.7380 O   0  0  0  0  0  0  0  0  0  0  0  0
   58.9430   32.7490   48.1910 N   0  0  0  0  0  0  0  0  0  0  0  0
   58.4470   32.9500   46.8600 C   0  0  0  0  0  0  0  0  0  0  0  0
   57.8650   31.8620   46.1980 C   0  0  0  0  0  0  0  0  0  0  0  0
   57.4240   31.9780   44.8690 C   0  0  0  0  0  0  0  0  0  0  0  0
   56.8290   30.8090   44.1720 C   0  0  0  0  0  0  0  0  0  0  0  0
   56.8230   30.7740   42.9120 O   0  0  0  0  0  0  0  0  0  0  0  0
   56.1850   29.7460   44.8910 N   0  0  0  0  0  0  0  0  0  0  0  0
   56.7350   28.6480   45.3310 C   0  0  0  0  0  0  0  0  0  0  0  0
   58.1290   28.5070   45.4920 C   0  0  0  0  0  0  0  0  0  0  0  0
   58.6560   27.2950   45.9600 C   0  0  0  0  0  0  0  0  0  0  0  0
   60.1330   27.1480   46.1820 C   0  0  0  0  0  0  0  0  0  0  0  0
   57.7850   26.2450   46.2750 C   0  0  0  0  0  0  0  0  0  0  0  0
   56.4140   26.4100   46.0850 C   0  0  0  0  0  0  0  0  0  0  0  0
   55.9270   27.5920   45.6200 N   0  0  0  0  0  0  0  0  0  0  0  0
   57.5790   33.2060   44.2050 C   0  0  0  0  0  0  0  0  0  0  0  0
   58.1230   34.3050   44.8710 C   0  0  0  0  0  0  0  0  0  0  0  0
   58.5360   34.1980   46.2030 C   0  0  0  0  0  0  0  0  0  0  0  0
   58.9960   35.3470   46.8470 O   0  0  0  0  0  0  0  0  0  0  0  0
   62.3690   33.0010   49.3870 C   0  0  0  0  0  0  0  0  0  0  0  0
   64.3508   32.5807   51.0344 H   0  0  0  0  0  0  0  0  0  0  0  0
   64.9118   31.3284   49.8751 H   0  0  0  0  0  0  0  0  0  0  0  0
   65.6704   32.9567   49.8751 H   0  0  0  0  0  0  0  0  0  0  0  0
   65.1461   33.0116   47.3881 H   0  0  0  0  0  0  0  0  0  0  0  0
   63.4494   33.7633   45.7228 H   0  0  0  0  0  0  0  0  0  0  0  0
   61.0628   34.0201   46.3924 H   0  0  0  0  0  0  0  0  0  0  0  0
   57.7515   30.9035   46.7256 H   0  0  0  0  0  0  0  0  0  0  0  0
   58.8002   29.3446   45.2513 H   0  0  0  0  0  0  0  0  0  0  0  0
   60.3412   27.1273   47.2619 H   0  0  0  0  0  0  0  0  0  0  0  0
   60.4812   26.2108   45.7234 H   0  0  0  0  0  0  0  0  0  0  0  0
   60.6591   27.9982   45.7234 H   0  0  0  0  0  0  0  0  0  0  0  0
   58.1797   25.2970   46.6694 H   0  0  0  0  0  0  0  0  0  0  0  0
   55.7248   25.5831   46.3114 H   0  0  0  0  0  0  0  0  0  0  0  0
   57.2697   33.3020   43.1537 H   0  0  0  0  0  0  0  0  0  0  0  0
   58.2280   35.2645   44.3434 H   0  0  0  0  0  0  0  0  0  0  0  0
   59.1960   35.3790   47.8370 H   0  0  0  0  0  0  0  0  0  0  0  0
   62.0665   32.7906   50.4235 H   0  0  0  0  0  0  0  0  0  0  0  0
  1  2  1  0
  2  3  2  0
  3  4  1  0
  4  5  2  0
  5  6  1  0
  6  7  1  0
  7  8  2  0
  7  9  1  0
  9 10  1  0
 10 11  2  0
 11 12  1  0
 12 13  1  0
 13 14  2  0
 13 15  1  0
 15 16  2  3
 16 17  1  0
 17 18  2  0
 18 19  1  0
 18 20  1  0
 20 21  2  0
 21 22  1  0
 12 23  2  0
 23 24  1  0
 24 25  2  0
 25 26  1  0
  6 27  2  0
 27  2  1  0
 25 10  1  0
 22 16  1  0
  1 28  1  0
  1 29  1  0
  1 30  1  0
  3 31  1  0
  4 32  1  0
  5 33  1  0
 11 34  1  0
 17 35  1  0
 19 36  1  0
 19 37  1  0
 19 38  1  0
 20 39  1  0
 21 40  1  0
 23 41  1  0
 24 42  1  0
 26 43  1  0
 27 44  1  0
M  CHG  2   9  -1  22  -1
M  END
>  <UniqueID>  (41) 
41

>  <SMILES>  (41) 
Cc1cccc(C(=O)[N-]c2cc(C(=O)N=c3cc(C)cc[n-]3)ccc2O)c1

>  <Energy>  (41) 
65.9839910482444

>  <Genealogy>  (41) 
Cc1cccc(C(=O)[N-]c2cc(C(=O)N=c3cc(C)cc[n-]3)ccc2O)c1 (protonated)
Cc1cccc(C(=O)[N-]c2cc(C(=O)N=c3cc(C)cc[n-]3)ccc2O)c1 (3D coordinates assigned)
Cc1cccc(C(=O)[N-]c2cc(C(=O)N=c3cc(C)cc[n-]3)ccc2O)c1 (optimized conformer: 65.9839910482444 kcal/mol)

>  <smiles>  (41) 
Cc1cccc(C(=O)Nc2cc(C(=O)N=c3cc(C)cc[nH]3)ccc2O)c1

>  <score_type>  (41) 
oracle

>  <origin>  (41) 
adg

>  <m_score__min__energy>  (41) 
-12.199999999999999

>  <m_primary>  (41) 
energy

$$$$
41:0
     RDKit          3D

 47 50  0  0  0  0  0  0  0  0999 V2000
   54.6230   22.1830   46.9140 C   0  0  0  0  0  0  0  0  0  0  0  0
   55.2330   23.4800   46.5750 N   0  0  0  0  0  0  0  0  0  0  0  0
   54.4780   24.4630   45.9850 C   0  0  0  0  0  0  0  0  0  0  0  0
   53.2650   24.2650   45.7050 O   0  0  0  0  0  0  0  0  0  0  0  0
   55.0270   25.6700   45.6940 N   0  0  0  0  0  0  0  0  0  0  0  0
   56.3180   25.9510   45.9880 C   0  0  0  0  0  0  0  0  0  0  0  0
   56.8520   27.2050   45.6690 C   0  0  0  0  0  0  0  0  0  0  0  0
   58.1830   27.5140   45.9910 C   0  0  0  0  0  0  0  0  0  0  0  0
   58.7540   28.8330   45.6440 C   0  0  0  0  0  0  0  0  0  0  0  0
   59.2340   29.0090   44.4900 O   0  0  0  0  0  0  0  0  0  0  0  0
   58.7900   29.9110   46.6010 N   0  0  0  0  0  0  0  0  0  0  0  0
   58.6810   31.3040   46.1450 C   0  0  0  0  0  0  0  0  0  0  0  0
   59.9610   32.0700   46.5020 C   0  0  0  0  0  0  0  0  0  0  0  0
   60.4160   31.7470   47.8650 N   0  0  0  0  0  0  0  0  0  0  0  0
   61.7280   32.1640   48.2920 C   0  0  0  0  0  0  0  0  0  0  0  0
   62.2470   31.7300   49.5250 C   0  0  0  0  0  0  0  0  0  0  0  0
   63.5140   32.1490   49.9460 C   0  0  0  0  0  0  0  0  0  0  0  0
   64.2730   33.0080   49.1470 C   0  0  0  0  0  0  0  0  0  0  0  0
   65.5330   33.4180   49.5800 O   0  0  0  0  0  0  0  0  0  0  0  0
   63.7600   33.4490   47.9190 C   0  0  0  0  0  0  0  0  0  0  0  0
   62.4950   33.0320   47.4950 C   0  0  0  0  0  0  0  0  0  0  0  0
   59.5690   30.9180   48.7340 C   0  0  0  0  0  0  0  0  0  0  0  0
   59.1780   29.6330   47.9960 C   0  0  0  0  0  0  0  0  0  0  0  0
   58.9840   26.5400   46.6100 C   0  0  0  0  0  0  0  0  0  0  0  0
   58.4560   25.2850   46.9290 C   0  0  0  0  0  0  0  0  0  0  0  0
   57.1170   24.9810   46.6200 C   0  0  0  0  0  0  0  0  0  0  0  0
   56.5380   23.7350   46.9180 C   0  0  0  0  0  0  0  0  0  0  0  0
   57.2260   22.8510   47.5050 O   0  0  0  0  0  0  0  0  0  0  0  0
   54.5727   22.0761   48.0076 H   0  0  0  0  0  0  0  0  0  0  0  0
   53.6076   22.1343   46.4938 H   0  0  0  0  0  0  0  0  0  0  0  0
   55.2331   21.3699   46.4938 H   0  0  0  0  0  0  0  0  0  0  0  0
   56.2245   27.9533   45.1626 H   0  0  0  0  0  0  0  0  0  0  0  0
   58.5375   31.3210   45.0545 H   0  0  0  0  0  0  0  0  0  0  0  0
   57.8224   31.7816   46.6396 H   0  0  0  0  0  0  0  0  0  0  0  0
   60.7517   31.7993   45.7868 H   0  0  0  0  0  0  0  0  0  0  0  0
   59.7452   33.1476   46.4545 H   0  0  0  0  0  0  0  0  0  0  0  0
   61.6537   31.0575   50.1619 H   0  0  0  0  0  0  0  0  0  0  0  0
   63.9140   31.8008   50.9097 H   0  0  0  0  0  0  0  0  0  0  0  0
   65.7580   33.4870   50.5660 H   0  0  0  0  0  0  0  0  0  0  0  0
   64.3548   34.1252   47.2873 H   0  0  0  0  0  0  0  0  0  0  0  0
   62.0972   33.3850   46.5321 H   0  0  0  0  0  0  0  0  0  0  0  0
   60.1237   30.6607   49.6484 H   0  0  0  0  0  0  0  0  0  0  0  0
   58.6601   31.4776   49.0000 H   0  0  0  0  0  0  0  0  0  0  0  0
   60.0353   28.9438   47.9985 H   0  0  0  0  0  0  0  0  0  0  0  0
   58.3161   29.1855   48.5126 H   0  0  0  0  0  0  0  0  0  0  0  0
   60.0344   26.7662   46.8455 H   0  0  0  0  0  0  0  0  0  0  0  0
   59.0891   24.5332   47.4229 H   0  0  0  0  0  0  0  0  0  0  0  0
  1  2  1  0
  2  3  1  0
  3  4  2  0
  3  5  1  0
  5  6  1  0
  6  7  2  0
  7  8  1  0
  8  9  1  0
  9 10  2  0
  9 11  1  0
 11 12  1  0
 12 13  1  0
 13 14  1  0
 14 15  1  0
 15 16  2  0
 16 17  1  0
 17 18  2  0
 18 19  1  0
 18 20  1  0
 20 21  2  0
 14 22  1  0
 22 23  1  0
  8 24  2  0
 24 25  1  0
 25 26  2  0
 26 27  1  0
 27 28  2  0
 27  2  1  0
 26  6  1  0
 23 11  1  0
 21 15  1  0
  1 29  1  0
  1 30  1  0
  1 31  1  0
  7 32  1  0
 12 33  1  0
 12 34  1  0
 13 35  1  0
 13 36  1  0
 16 37  1  0
 17 38  1  0
 19 39  1  0
 20 40  1  0
 21 41  1  0
 22 42  1  0
 22 43  1  0
 23 44  1  0
 23 45  1  0
 24 46  1  0
 25 47  1  0
M  CHG  1   5  -1
M  END
>  <UniqueID>  (42) 
42

>  <SMILES>  (42) 
Cn1c(=O)[n-]c2cc(C(=O)N3CCN(c4ccc(O)cc4)CC3)ccc2c1=O

>  <Energy>  (42) 
68.72155489316008

>  <Genealogy>  (42) 
Cn1c(=O)[n-]c2cc(C(=O)N3CCN(c4ccc(O)cc4)CC3)ccc2c1=O (protonated)
Cn1c(=O)[n-]c2cc(C(=O)N3CCN(c4ccc(O)cc4)CC3)ccc2c1=O (3D coordinates assigned)
Cn1c(=O)[n-]c2cc(C(=O)N3CCN(c4ccc(O)cc4)CC3)ccc2c1=O (nonaromatic ring conformer: 68.72155489316008 kcal/mol)

>  <smiles>  (42) 
Cn1c(=O)[nH]c2cc(C(=O)N3CCN(c4ccc(O)cc4)CC3)ccc2c1=O

>  <score_type>  (42) 
oracle

>  <origin>  (42) 
adg

>  <m_score__min__energy>  (42) 
-9.2100000000000009

>  <m_primary>  (42) 
energy

$$$$
42:0
     RDKit          3D

 54 58  0  0  0  0  0  0  0  0999 V2000
   60.5480   27.6880   48.0480 C   0  0  0  0  0  0  0  0  0  0  0  0
   59.7660   28.6870   47.6090 C   0  0  0  0  0  0  0  0  0  0  0  0
   58.8680   28.6390   46.5310 C   0  0  0  0  0  0  0  0  0  0  0  0
   58.4200   27.6050   45.7930 C   0  0  0  0  0  0  0  0  0  0  0  0
   57.1770   26.8540   46.0280 C   0  0  0  0  0  0  0  0  0  0  0  0
   57.1510   25.5690   46.4190 N   0  0  0  0  0  0  0  0  0  0  0  0
   55.8380   25.2540   46.3730 C   0  0  0  0  0  0  0  0  0  0  0  0
   55.4030   24.1170   46.6900 O   0  0  0  0  0  0  0  0  0  0  0  0
   55.0310   26.2490   45.9470 N   0  0  0  0  0  0  0  0  0  0  0  0
   55.8950   27.2490   45.7140 C   0  0  0  0  0  0  0  0  0  0  0  0
   55.5230   28.4860   45.2040 O   0  0  0  0  0  0  0  0  0  0  0  0
   58.4550   29.9410   46.3160 C   0  0  0  0  0  0  0  0  0  0  0  0
   59.0360   30.7200   47.2940 C   0  0  0  0  0  0  0  0  0  0  0  0
   58.8060   32.1770   47.4200 C   0  0  0  0  0  0  0  0  0  0  0  0
   57.8780   32.6060   48.1580 O   0  0  0  0  0  0  0  0  0  0  0  0
   59.5230   33.1050   46.5800 N   0  0  2  0  0  0  0  0  0  0  0  0
   58.7640   34.2090   45.9300 C   0  0  2  0  0  0  0  0  0  0  0  0
   57.2400   34.1700   45.9140 C   0  0  0  0  0  0  0  0  0  0  0  0
   56.8390   32.8730   45.2320 C   0  0  0  0  0  0  0  0  0  0  0  0
   58.0680   32.2260   44.7460 N   0  0  0  0  0  0  0  0  0  0  0  0
   58.0420   31.9490   43.2930 C   0  0  0  0  0  0  0  0  0  0  0  0
   57.0270   30.8720   42.8660 C   0  0  0  0  0  0  0  0  0  0  0  0
   59.2140   33.0740   45.1270 C   0  0  2  0  0  0  0  0  0  0  0  0
   59.8400   29.9600   48.0850 N   0  0  0  0  0  0  0  0  0  0  0  0
   60.7120   30.4360   49.1740 C   0  0  0  0  0  0  0  0  0  0  0  0
   61.6120   31.5480   48.6970 C   0  0  0  0  0  0  0  0  0  0  0  0
   62.4560   31.3640   47.5890 C   0  0  0  0  0  0  0  0  0  0  0  0
   63.2990   32.3940   47.1620 C   0  0  0  0  0  0  0  0  0  0  0  0
   63.3170   33.6130   47.8480 C   0  0  0  0  0  0  0  0  0  0  0  0
   64.1350   34.6110   47.4330 F   0  0  0  0  0  0  0  0  0  0  0  0
   62.5010   33.7960   48.9670 C   0  0  0  0  0  0  0  0  0  0  0  0
   61.6550   32.7680   49.3940 C   0  0  0  0  0  0  0  0  0  0  0  0
   61.2145   27.8487   48.9082 H   0  0  0  0  0  0  0  0  0  0  0  0
   60.5222   26.7088   47.5475 H   0  0  0  0  0  0  0  0  0  0  0  0
   59.0389   27.2944   44.9383 H   0  0  0  0  0  0  0  0  0  0  0  0
   57.7875   30.2901   45.5144 H   0  0  0  0  0  0  0  0  0  0  0  0
   60.5220   33.3280   46.7980 H   0  0  0  0  0  0  0  0  0  0  0  0
   58.8924   35.2980   46.0171 H   0  0  0  0  0  0  0  0  0  0  0  0
   56.8502   34.1929   46.9424 H   0  0  0  0  0  0  0  0  0  0  0  0
   56.8294   35.0393   45.3794 H   0  0  0  0  0  0  0  0  0  0  0  0
   56.3274   32.2147   45.9496 H   0  0  0  0  0  0  0  0  0  0  0  0
   56.1519   33.0728   44.3965 H   0  0  0  0  0  0  0  0  0  0  0  0
   57.7919   32.8836   42.7695 H   0  0  0  0  0  0  0  0  0  0  0  0
   59.0377   31.5621   43.0305 H   0  0  0  0  0  0  0  0  0  0  0  0
   56.5882   30.4064   43.7608 H   0  0  0  0  0  0  0  0  0  0  0  0
   56.2303   31.3362   42.2661 H   0  0  0  0  0  0  0  0  0  0  0  0
   57.5376   30.1042   42.2661 H   0  0  0  0  0  0  0  0  0  0  0  0
   59.8327   32.9167   44.2312 H   0  0  0  0  0  0  0  0  0  0  0  0
   60.0869   30.8078   49.9993 H   0  0  0  0  0  0  0  0  0  0  0  0
   61.3388   29.5982   49.5134 H   0  0  0  0  0  0  0  0  0  0  0  0
   62.4534   30.4029   47.0539 H   0  0  0  0  0  0  0  0  0  0  0  0
   63.9483   32.2460   46.2865 H   0  0  0  0  0  0  0  0  0  0  0  0
   62.5241   34.7506   49.5131 H   0  0  0  0  0  0  0  0  0  0  0  0
   61.0197   32.9147   50.2800 H   0  0  0  0  0  0  0  0  0  0  0  0
  1  2  2  0
  2  3  1  0
  3  4  2  3
  4  5  1  0
  5  6  1  0
  6  7  1  0
  7  8  2  0
  7  9  1  0
  9 10  1  0
 10 11  1  0
  3 12  1  0
 12 13  2  0
 13 14  1  0
 14 15  2  0
 14 16  1  0
 16 17  1  0
 17 18  1  0
 18 19  1  0
 19 20  1  0
 20 21  1  0
 21 22  1  0
 20 23  1  0
 13 24  1  0
 24 25  1  0
 25 26  1  0
 26 27  2  0
 27 28  1  0
 28 29  2  0
 29 30  1  0
 29 31  1  0
 31 32  2  0
 24  2  1  0
 32 26  1  0
 10  5  2  0
 23 16  1  0
 23 17  1  0
  1 33  1  0
  1 34  1  0
  4 35  1  0
 12 36  1  0
 16 37  1  6
 17 38  1  6
 18 39  1  0
 18 40  1  0
 19 41  1  0
 19 42  1  0
 21 43  1  0
 21 44  1  0
 22 45  1  0
 22 46  1  0
 22 47  1  0
 23 48  1  6
 25 49  1  0
 25 50  1  0
 27 51  1  0
 28 52  1  0
 31 53  1  0
 32 54  1  0
M  CHG  4   6  -1   9  -1  11  -1  16   1
M  END
>  <UniqueID>  (43) 
43

>  <SMILES>  (43) 
C=c1c(=Cc2[n-]c(=O)[n-]c2[O-])cc(C(=O)[N@H+]2C3[C@H]2CCN3CC)n1Cc1ccc(F)cc1

>  <Energy>  (43) 
491.8731224714703

>  <Genealogy>  (43) 
C=c1c(=Cc2[n-]c(=O)[n-]c2[O-])cc(C(=O)[NH+]2C3CCN(CC)C32)n1Cc1ccc(F)cc1 (protonated)
C=c1c(=Cc2[n-]c(=O)[n-]c2[O-])cc(C(=O)[N@H+]2C3[C@H]2CCN3CC)n1Cc1ccc(F)cc1 (chirality)
C=c1c(=Cc2[n-]c(=O)[n-]c2[O-])cc(C(=O)[N@H+]2C3[C@H]2CCN3CC)n1Cc1ccc(F)cc1 (3D coordinates assigned)
C=c1c(=Cc2[n-]c(=O)[n-]c2[O-])cc(C(=O)[N@H+]2C3[C@H]2CCN3CC)n1Cc1ccc(F)cc1 (nonaromatic ring conformer: 491.8731224714703 kcal/mol)

>  <smiles>  (43) 
C=c1c(=Cc2[nH]c(=O)[nH]c2O)cc(C(=O)N2C3CCN(CC)C32)n1Cc1ccc(F)cc1

>  <score_type>  (43) 
oracle

>  <origin>  (43) 
adg

>  <m_score__min__energy>  (43) 
-14.85

>  <m_primary>  (43) 
energy

$$$$
43:0
     RDKit          3D

 55 57  0  0  0  0  0  0  0  0999 V2000
   59.2420   27.5970   45.9960 C   0  0  0  0  0  0  0  0  0  0  0  0
   58.4140   28.6360   45.7860 C   0  0  0  0  0  0  0  0  0  0  0  0
   57.1000   28.3300   45.3880 C   0  0  0  0  0  0  0  0  0  0  0  0
   56.2520   29.3170   44.9020 C   0  0  0  0  0  0  0  0  0  0  0  0
   54.9650   28.9860   44.4950 O   0  0  0  0  0  0  0  0  0  0  0  0
   56.6940   30.6270   44.8000 C   0  0  0  0  0  0  0  0  0  0  0  0
   57.9740   30.9940   45.2410 C   0  0  0  0  0  0  0  0  0  0  0  0
   58.3440   32.4580   45.1590 C   0  0  0  0  0  0  0  0  0  0  0  0
   58.8330   30.0130   45.8330 C   0  0  0  0  0  0  0  0  0  0  0  0
   59.9780   30.4250   46.4490 C   0  0  0  0  0  0  0  0  0  0  0  0
   60.0860   30.8890   47.8410 C   0  0  0  0  0  0  0  0  0  0  0  0
   60.7210   32.0260   48.1840 N   0  0  0  0  0  0  0  0  0  0  0  0
   60.5700   32.0870   49.5210 C   0  0  0  0  0  0  0  0  0  0  0  0
   61.0420   33.0260   50.2130 O   0  0  0  0  0  0  0  0  0  0  0  0
   59.8630   31.0600   50.0380 N   0  0  0  0  0  0  0  0  0  0  0  0
   59.5350   30.8270   51.4480 C   0  0  0  0  0  0  0  0  0  0  0  0
   58.1860   31.4140   51.7830 C   0  0  0  0  0  0  0  0  0  0  0  0
   58.1010   32.8070   52.1330 C   0  0  0  0  0  0  0  0  0  0  0  0
   58.0280   33.9230   52.4180 N   0  0  0  0  0  0  0  0  0  0  0  0
   57.0560   30.6990   51.7390 C   0  0  0  0  0  0  0  0  0  0  0  0
   56.3390   30.3250   52.9240 N   0  0  0  0  0  0  0  0  0  0  0  0
   57.1250   30.1850   54.1480 C   0  0  0  0  0  0  0  0  0  0  0  0
   55.1460   29.4940   52.7270 C   0  0  0  0  0  0  0  0  0  0  0  0
   53.9170   30.3150   52.4350 C   0  0  0  0  0  0  0  0  0  0  0  0
   52.9780   30.5680   53.4480 C   0  0  0  0  0  0  0  0  0  0  0  0
   51.8580   31.3620   53.1880 C   0  0  0  0  0  0  0  0  0  0  0  0
   51.6690   31.9090   51.9140 C   0  0  0  0  0  0  0  0  0  0  0  0
   50.5600   32.7030   51.6580 O   0  0  0  0  0  0  0  0  0  0  0  0
   52.5970   31.6570   50.8980 C   0  0  0  0  0  0  0  0  0  0  0  0
   53.7150   30.8610   51.1550 C   0  0  0  0  0  0  0  0  0  0  0  0
   59.5250   30.3080   48.9690 C   0  0  0  0  0  0  0  0  0  0  0  0
   58.6700   29.0730   49.0110 C   0  0  0  0  0  0  0  0  0  0  0  0
   60.2812   27.7764   46.3087 H   0  0  0  0  0  0  0  0  0  0  0  0
   58.8799   26.5679   45.8550 H   0  0  0  0  0  0  0  0  0  0  0  0
   56.7386   27.2937   45.4627 H   0  0  0  0  0  0  0  0  0  0  0  0
   56.0309   31.3902   44.3667 H   0  0  0  0  0  0  0  0  0  0  0  0
   58.4475   32.8675   46.1747 H   0  0  0  0  0  0  0  0  0  0  0  0
   59.2976   32.5656   44.6213 H   0  0  0  0  0  0  0  0  0  0  0  0
   57.5561   33.0058   44.6213 H   0  0  0  0  0  0  0  0  0  0  0  0
   60.9021   30.4090   45.8525 H   0  0  0  0  0  0  0  0  0  0  0  0
   59.5161   29.7442   51.6407 H   0  0  0  0  0  0  0  0  0  0  0  0
   60.2983   31.3115   52.0746 H   0  0  0  0  0  0  0  0  0  0  0  0
   56.6630   30.3870   50.7601 H   0  0  0  0  0  0  0  0  0  0  0  0
   56.4670   30.3022   55.0217 H   0  0  0  0  0  0  0  0  0  0  0  0
   57.5923   29.1895   54.1718 H   0  0  0  0  0  0  0  0  0  0  0  0
   57.9073   30.9579   54.1718 H   0  0  0  0  0  0  0  0  0  0  0  0
   55.3252   28.8131   51.8818 H   0  0  0  0  0  0  0  0  0  0  0  0
   54.9655   28.9393   53.6596 H   0  0  0  0  0  0  0  0  0  0  0  0
   53.1248   30.1393   54.4504 H   0  0  0  0  0  0  0  0  0  0  0  0
   51.1250   31.5570   53.9847 H   0  0  0  0  0  0  0  0  0  0  0  0
   52.4459   32.0860   49.8964 H   0  0  0  0  0  0  0  0  0  0  0  0
   54.4406   30.6602   50.3530 H   0  0  0  0  0  0  0  0  0  0  0  0
   58.4779   28.7955   50.0579 H   0  0  0  0  0  0  0  0  0  0  0  0
   57.7147   29.2710   48.5029 H   0  0  0  0  0  0  0  0  0  0  0  0
   59.1916   28.2485   48.5029 H   0  0  0  0  0  0  0  0  0  0  0  0
  1  2  2  0
  2  3  1  0
  3  4  2  0
  4  5  1  0
  4  6  1  0
  6  7  2  0
  7  8  1  0
  7  9  1  0
  9 10  2  3
 10 11  1  0
 11 12  1  0
 12 13  1  0
 13 14  2  0
 13 15  1  0
 15 16  1  0
 16 17  1  0
 17 18  1  0
 18 19  3  0
 17 20  2  3
 20 21  1  0
 21 22  1  0
 21 23  1  0
 23 24  1  0
 24 25  2  0
 25 26  1  0
 26 27  2  0
 27 28  1  0
 27 29  1  0
 29 30  2  0
 15 31  1  0
 31 32  1  0
  9  2  1  0
 31 11  2  0
 30 24  1  0
  1 33  1  0
  1 34  1  0
  3 35  1  0
  6 36  1  0
  8 37  1  0
  8 38  1  0
  8 39  1  0
 10 40  1  0
 16 41  1  0
 16 42  1  0
 20 43  1  0
 22 44  1  0
 22 45  1  0
 22 46  1  0
 23 47  1  0
 23 48  1  0
 25 49  1  0
 26 50  1  0
 29 51  1  0
 30 52  1  0
 32 53  1  0
 32 54  1  0
 32 55  1  0
M  CHG  3   5  -1  12  -1  28  -1
M  END
>  <UniqueID>  (44) 
44

>  <SMILES>  (44) 
C=c1cc([O-])cc(C)c1=Cc1[n-]c(=O)n(CC(C#N)=CN(C)Cc2ccc([O-])cc2)c1C

>  <Energy>  (44) 
112.88585324645491

>  <Genealogy>  (44) 
C=c1cc([O-])cc(C)c1=Cc1[n-]c(=O)n(CC(C#N)=CN(C)Cc2ccc([O-])cc2)c1C (protonated)
C=c1cc([O-])cc(C)c1=Cc1[n-]c(=O)n(CC(C#N)=CN(C)Cc2ccc([O-])cc2)c1C (3D coordinates assigned)
C=c1cc([O-])cc(C)c1=Cc1[n-]c(=O)n(CC(C#N)=CN(C)Cc2ccc([O-])cc2)c1C (optimized conformer: 112.88585324645491 kcal/mol)

>  <smiles>  (44) 
C=c1cc(O)cc(C)c1=Cc1[nH]c(=O)n(CC(C#N)=CN(C)Cc2ccc(O)cc2)c1C

>  <score_type>  (44) 
oracle

>  <origin>  (44) 
adg

>  <m_score__min__energy>  (44) 
-16.440000000000001

>  <m_primary>  (44) 
energy

$$$$
44:0
     RDKit          3D

 33 35  0  0  0  0  0  0  0  0999 V2000
   54.6622   28.2352   54.9563 H   0  0  0  0  0  0  0  0  0  0  0  0
   53.9940   28.7860   54.2780 C   0  0  0  0  0  0  0  0  0  0  0  0
   52.9032   28.7021   54.3925 H   0  0  0  0  0  0  0  0  0  0  0  0
   54.5100   29.5610   53.3100 C   0  0  0  0  0  0  0  0  0  0  0  0
   53.7840   30.3140   52.3810 C   0  0  0  0  0  0  0  0  0  0  0  0
   52.4440   30.4130   52.2760 C   0  0  0  0  0  0  0  0  0  0  0  0
   51.8382   30.1769   53.1633 H   0  0  0  0  0  0  0  0  0  0  0  0
   51.7400   30.8180   51.0460 C   0  0  0  0  0  0  0  0  0  0  0  0
   51.7170   30.0700   49.9290 N   0  0  0  0  0  0  0  0  0  0  0  0
   51.0500   30.8440   49.0460 C   0  0  0  0  0  0  0  0  0  0  0  0
   50.8110   30.4750   47.8660 O   0  0  0  0  0  0  0  0  0  0  0  0
   50.6680   32.0480   49.5220 N   0  0  0  0  0  0  0  0  0  0  0  0
   51.1220   32.0220   50.7860 C   0  0  0  0  0  0  0  0  0  0  0  0
   51.0170   33.0950   51.6610 O   0  0  0  0  0  0  0  0  0  0  0  0
   54.7200   31.0010   51.6200 C   0  0  0  0  0  0  0  0  0  0  0  0
   54.5114   31.7039   50.7999 H   0  0  0  0  0  0  0  0  0  0  0  0
   55.9630   30.6310   52.0920 C   0  0  0  0  0  0  0  0  0  0  0  0
   57.2590   31.1500   51.5490 C   0  0  0  0  0  0  0  0  0  0  0  0
   57.9252   31.4168   52.3826 H   0  0  0  0  0  0  0  0  0  0  0  0
   57.7356   30.3734   50.9328 H   0  0  0  0  0  0  0  0  0  0  0  0
   57.0678   32.0409   50.9328 H   0  0  0  0  0  0  0  0  0  0  0  0
   55.8400   29.7590   53.1190 N   0  0  0  0  0  0  0  0  0  0  0  0
   56.9280   29.1510   53.8380 C   0  0  0  0  0  0  0  0  0  0  0  0
   57.2420   27.8060   53.8920 C   0  0  0  0  0  0  0  0  0  0  0  0
   56.6799   26.9966   53.4032 H   0  0  0  0  0  0  0  0  0  0  0  0
   58.3500   27.6500   54.6420 N   0  0  0  0  0  0  0  0  0  0  0  0
   58.7410   28.8540   55.0380 N   0  0  0  0  0  0  0  0  0  0  0  0
   59.8740   29.0890   55.9220 C   0  0  0  0  0  0  0  0  0  0  0  0
   59.5428   29.0203   56.9687 H   0  0  0  0  0  0  0  0  0  0  0  0
   60.6499   28.3327   55.7325 H   0  0  0  0  0  0  0  0  0  0  0  0
   60.2851   30.0915   55.7325 H   0  0  0  0  0  0  0  0  0  0  0  0
   57.8970   29.7950   54.5750 C   0  0  0  0  0  0  0  0  0  0  0  0
   57.9681   30.8782   54.7525 H   0  0  0  0  0  0  0  0  0  0  0  0
  1  2  1  0
  2  3  1  0
  2  4  2  0
  4  5  1  0
  5  6  2  0
  6  7  1  0
  6  8  1  0
  8  9  1  0
  9 10  1  0
 10 11  2  0
 10 12  1  0
 12 13  1  0
 13 14  1  0
  5 15  1  0
 15 16  1  0
 15 17  2  0
 17 18  1  0
 18 19  1  0
 18 20  1  0
 18 21  1  0
 17 22  1  0
 22 23  1  0
 23 24  1  0
 24 25  1  0
 24 26  2  0
 26 27  1  0
 27 28  1  0
 28 29  1  0
 28 30  1  0
 28 31  1  0
 27 32  1  0
 32 33  1  0
 22  4  1  0
 32 23  2  0
 13  8  2  0
M  CHG  3   9  -1  12  -1  14  -1
M  END
>  <UniqueID>  (45) 
45

>  <SMILES>  (45) 
C=c1/c(=C/c2[n-]c(=O)[n-]c2[O-])cc(C)n1-c1cnn(C)c1

>  <Energy>  (45) 
135.4221167799792

>  <Genealogy>  (45) 
C=c1c(=Cc2[n-]c(=O)[n-]c2[O-])cc(C)n1-c1cnn(C)c1 (protonated)
C=c1/c(=C/c2[n-]c(=O)[n-]c2[O-])cc(C)n1-c1cnn(C)c1 (cis-trans isomerization)
C=c1/c(=C/c2[n-]c(=O)[n-]c2[O-])cc(C)n1-c1cnn(C)c1 (3D coordinates assigned)
C=c1/c(=C/c2[n-]c(=O)[n-]c2[O-])cc(C)n1-c1cnn(C)c1 (optimized conformer: 135.4221167799792 kcal/mol)

>  <smiles>  (45) 
C=c1c(=Cc2[nH]c(=O)[nH]c2O)cc(C)n1-c1cnn(C)c1

>  <score_type>  (45) 
oracle

>  <origin>  (45) 
adg

>  <m_score__min__energy>  (45) 
-15.24

>  <m_primary>  (45) 
energy

$$$$
45:0
     RDKit          3D

 51 54  0  0  0  0  0  0  0  0999 V2000
   58.3820   29.2670   50.1390 O   0  0  0  0  0  0  0  0  0  0  0  0
   58.7980   30.4560   50.2340 C   0  0  0  0  0  0  0  0  0  0  0  0
   59.0630   31.0370   51.6020 C   0  0  0  0  0  0  0  0  0  0  0  0
   58.5680   30.1230   52.7290 C   0  0  0  0  0  0  0  0  0  0  0  0
   57.0770   30.1780   52.8260 C   0  0  0  0  0  0  0  0  0  0  0  0
   56.2640   30.4710   51.7940 N   0  0  0  0  0  0  0  0  0  0  0  0
   55.0520   30.4220   52.3870 C   0  0  0  0  0  0  0  0  0  0  0  0
   53.7780   30.6740   51.6790 C   0  0  0  0  0  0  0  0  0  0  0  0
   53.3340   29.7940   50.6760 C   0  0  0  0  0  0  0  0  0  0  0  0
   52.1290   30.0340   50.0090 C   0  0  0  0  0  0  0  0  0  0  0  0
   51.3580   31.1530   50.3320 C   0  0  0  0  0  0  0  0  0  0  0  0
   51.7910   32.0360   51.3260 C   0  0  0  0  0  0  0  0  0  0  0  0
   51.0230   33.1480   51.6470 O   0  0  0  0  0  0  0  0  0  0  0  0
   52.9950   31.7990   51.9980 C   0  0  0  0  0  0  0  0  0  0  0  0
   55.1350   30.1220   53.7000 N   0  0  0  0  0  0  0  0  0  0  0  0
   56.4040   29.9810   53.9320 O   0  0  0  0  0  0  0  0  0  0  0  0
   58.9700   31.2420   49.0370 N   0  0  0  0  0  0  0  0  0  0  0  0
   59.2160   30.5390   47.7670 C   0  0  0  0  0  0  0  0  0  0  0  0
   59.6070   31.5080   46.6490 C   0  0  0  0  0  0  0  0  0  0  0  0
   58.6720   32.6400   46.6190 N   0  0  0  0  0  0  0  0  0  0  0  0
   58.2610   33.2110   45.3640 C   0  0  0  0  0  0  0  0  0  0  0  0
   58.3230   34.4610   45.2050 O   0  0  0  0  0  0  0  0  0  0  0  0
   57.7470   32.3660   44.2620 C   0  0  0  0  0  0  0  0  0  0  0  0
   57.9890   32.7220   42.9220 C   0  0  0  0  0  0  0  0  0  0  0  0
   57.4940   31.9330   41.8800 C   0  0  0  0  0  0  0  0  0  0  0  0
   56.7460   30.7870   42.1630 C   0  0  0  0  0  0  0  0  0  0  0  0
   56.4870   30.4320   43.4880 C   0  0  0  0  0  0  0  0  0  0  0  0
   56.9800   31.2190   44.5340 C   0  0  0  0  0  0  0  0  0  0  0  0
   58.3020   33.3210   47.8670 C   0  0  0  0  0  0  0  0  0  0  0  0
   59.0090   32.7130   49.0870 C   0  0  0  0  0  0  0  0  0  0  0  0
   60.1465   31.1871   51.7186 H   0  0  0  0  0  0  0  0  0  0  0  0
   58.5151   31.9880   51.6753 H   0  0  0  0  0  0  0  0  0  0  0  0
   58.8800   29.0889   52.5208 H   0  0  0  0  0  0  0  0  0  0  0  0
   59.0009   30.4633   53.6813 H   0  0  0  0  0  0  0  0  0  0  0  0
   53.9378   28.9124   50.4149 H   0  0  0  0  0  0  0  0  0  0  0  0
   51.7871   29.3395   49.2275 H   0  0  0  0  0  0  0  0  0  0  0  0
   50.4108   31.3395   49.8048 H   0  0  0  0  0  0  0  0  0  0  0  0
   53.3314   32.4957   52.7799 H   0  0  0  0  0  0  0  0  0  0  0  0
   60.0315   29.8152   47.9126 H   0  0  0  0  0  0  0  0  0  0  0  0
   58.2861   30.0316   47.4707 H   0  0  0  0  0  0  0  0  0  0  0  0
   60.6259   31.8812   46.8296 H   0  0  0  0  0  0  0  0  0  0  0  0
   59.5694   30.9816   45.6839 H   0  0  0  0  0  0  0  0  0  0  0  0
   58.5713   33.6268   42.6934 H   0  0  0  0  0  0  0  0  0  0  0  0
   57.6935   32.2145   40.8355 H   0  0  0  0  0  0  0  0  0  0  0  0
   56.3613   30.1646   41.3416 H   0  0  0  0  0  0  0  0  0  0  0  0
   55.8944   29.5322   43.7098 H   0  0  0  0  0  0  0  0  0  0  0  0
   56.7664   30.9390   45.5761 H   0  0  0  0  0  0  0  0  0  0  0  0
   58.5801   34.3823   47.7881 H   0  0  0  0  0  0  0  0  0  0  0  0
   57.2177   33.2026   48.0094 H   0  0  0  0  0  0  0  0  0  0  0  0
   60.0575   33.0454   49.0985 H   0  0  0  0  0  0  0  0  0  0  0  0
   58.4901   33.0479   49.9973 H   0  0  0  0  0  0  0  0  0  0  0  0
  1  2  2  0
  2  3  1  0
  3  4  1  0
  4  5  1  0
  5  6  2  0
  6  7  1  0
  7  8  1  0
  8  9  2  0
  9 10  1  0
 10 11  2  0
 11 12  1  0
 12 13  1  0
 12 14  2  0
  7 15  2  0
 15 16  1  0
  2 17  1  0
 17 18  1  0
 18 19  1  0
 19 20  1  0
 20 21  1  0
 21 22  2  0
 21 23  1  0
 23 24  2  0
 24 25  1  0
 25 26  2  0
 26 27  1  0
 27 28  2  0
 20 29  1  0
 29 30  1  0
 16  5  1  0
 30 17  1  0
 14  8  1  0
 28 23  1  0
  3 31  1  0
  3 32  1  0
  4 33  1  0
  4 34  1  0
  9 35  1  0
 10 36  1  0
 11 37  1  0
 14 38  1  0
 18 39  1  0
 18 40  1  0
 19 41  1  0
 19 42  1  0
 24 43  1  0
 25 44  1  0
 26 45  1  0
 27 46  1  0
 28 47  1  0
 29 48  1  0
 29 49  1  0
 30 50  1  0
 30 51  1  0
M  CHG  1  13  -1
M  END
>  <UniqueID>  (46) 
46

>  <SMILES>  (46) 
O=C(CCc1nc(-c2cccc([O-])c2)no1)N1CCN(C(=O)c2ccccc2)CC1

>  <Energy>  (46) 
90.94608673497434

>  <Genealogy>  (46) 
O=C(CCc1nc(-c2cccc([O-])c2)no1)N1CCN(C(=O)c2ccccc2)CC1 (protonated)
O=C(CCc1nc(-c2cccc([O-])c2)no1)N1CCN(C(=O)c2ccccc2)CC1 (3D coordinates assigned)
O=C(CCc1nc(-c2cccc([O-])c2)no1)N1CCN(C(=O)c2ccccc2)CC1 (nonaromatic ring conformer: 90.94608673497434 kcal/mol)

>  <smiles>  (46) 
O=C(CCc1nc(-c2cccc(O)c2)no1)N1CCN(C(=O)c2ccccc2)CC1

>  <score_type>  (46) 
oracle

>  <origin>  (46) 
adg

>  <m_score__min__energy>  (46) 
-14.18

>  <m_primary>  (46) 
energy

$$$$
46:0
     RDKit          3D

 42 44  0  0  0  0  0  0  0  0999 V2000
   60.4190   29.8500   45.9820 C   0  0  0  0  0  0  0  0  0  0  0  0
   59.4220   30.6850   45.6440 C   0  0  0  0  0  0  0  0  0  0  0  0
   58.3380   30.4110   44.7930 C   0  0  0  0  0  0  0  0  0  0  0  0
   57.9200   29.2590   44.2290 C   0  0  0  0  0  0  0  0  0  0  0  0
   57.3980   28.0860   44.9570 C   0  0  0  0  0  0  0  0  0  0  0  0
   56.0340   27.9970   45.2690 C   0  0  0  0  0  0  0  0  0  0  0  0
   55.1470   28.9830   44.8530 O   0  0  0  0  0  0  0  0  0  0  0  0
   55.5690   26.9350   45.9750 N   0  0  0  0  0  0  0  0  0  0  0  0
   56.4060   25.9560   46.4040 C   0  0  0  0  0  0  0  0  0  0  0  0
   55.9510   24.9790   47.0530 O   0  0  0  0  0  0  0  0  0  0  0  0
   57.7350   26.0340   46.1390 N   0  0  0  0  0  0  0  0  0  0  0  0
   58.2510   27.0760   45.4370 C   0  0  0  0  0  0  0  0  0  0  0  0
   59.4920   27.1260   45.2270 O   0  0  0  0  0  0  0  0  0  0  0  0
   57.6740   31.6110   44.6130 C   0  0  0  0  0  0  0  0  0  0  0  0
   58.3230   32.5500   45.3880 C   0  0  0  0  0  0  0  0  0  0  0  0
   57.9130   33.9880   45.4940 C   0  0  0  0  0  0  0  0  0  0  0  0
   59.3840   31.9920   46.0180 N   0  0  0  0  0  0  0  0  0  0  0  0
   60.3050   32.6830   46.9360 C   0  0  0  0  0  0  0  0  0  0  0  0
   59.6080   33.0210   48.2210 C   0  0  0  0  0  0  0  0  0  0  0  0
   59.0410   34.1410   48.3380 O   0  0  0  0  0  0  0  0  0  0  0  0
   59.6210   32.0900   49.3140 N   0  0  0  0  0  0  0  0  0  0  0  0
   58.8800   32.2710   50.5330 C   0  0  0  0  0  0  0  0  0  0  0  0
   59.1870   33.3070   51.4320 C   0  0  0  0  0  0  0  0  0  0  0  0
   58.4350   33.4740   52.6000 C   0  0  0  0  0  0  0  0  0  0  0  0
   57.3640   32.6190   52.8720 C   0  0  0  0  0  0  0  0  0  0  0  0
   57.0360   31.5990   51.9720 C   0  0  0  0  0  0  0  0  0  0  0  0
   55.6840   30.5350   52.3080 Cl  0  0  0  0  0  0  0  0  0  0  0  0
   57.7860   31.4310   50.8030 C   0  0  0  0  0  0  0  0  0  0  0  0
   61.2138   30.1894   46.6626 H   0  0  0  0  0  0  0  0  0  0  0  0
   60.4404   28.8271   45.5781 H   0  0  0  0  0  0  0  0  0  0  0  0
   57.9727   29.1878   43.1326 H   0  0  0  0  0  0  0  0  0  0  0  0
   56.7957   31.7838   43.9737 H   0  0  0  0  0  0  0  0  0  0  0  0
   57.8328   34.2692   46.5544 H   0  0  0  0  0  0  0  0  0  0  0  0
   58.6664   34.6213   45.0027 H   0  0  0  0  0  0  0  0  0  0  0  0
   56.9389   34.1287   45.0027 H   0  0  0  0  0  0  0  0  0  0  0  0
   61.1623   32.0279   47.1503 H   0  0  0  0  0  0  0  0  0  0  0  0
   60.6494   33.6138   46.4617 H   0  0  0  0  0  0  0  0  0  0  0  0
   60.2900   31.2890   49.2670 H   0  0  0  0  0  0  0  0  0  0  0  0
   60.0222   33.9895   51.2163 H   0  0  0  0  0  0  0  0  0  0  0  0
   58.6874   34.2796   53.3052 H   0  0  0  0  0  0  0  0  0  0  0  0
   56.7783   32.7478   53.7942 H   0  0  0  0  0  0  0  0  0  0  0  0
   57.5178   30.6367   50.0909 H   0  0  0  0  0  0  0  0  0  0  0  0
  1  2  2  0
  2  3  1  0
  3  4  2  3
  4  5  1  0
  5  6  2  0
  6  7  1  0
  6  8  1  0
  8  9  1  0
  9 10  2  0
  9 11  1  0
 11 12  1  0
 12 13  2  0
  3 14  1  0
 14 15  2  0
 15 16  1  0
 15 17  1  0
 17 18  1  0
 18 19  1  0
 19 20  2  0
 19 21  1  0
 21 22  1  0
 22 23  2  0
 23 24  1  0
 24 25  2  0
 25 26  1  0
 26 27  1  0
 26 28  2  0
 17  2  1  0
 28 22  1  0
 12  5  1  0
  1 29  1  0
  1 30  1  0
  4 31  1  0
 14 32  1  0
 16 33  1  0
 16 34  1  0
 16 35  1  0
 18 36  1  0
 18 37  1  0
 21 38  1  0
 23 39  1  0
 24 40  1  0
 25 41  1  0
 28 42  1  0
M  CHG  3   7  -1   8  -1  11  -1
M  END
>  <UniqueID>  (47) 
47

>  <SMILES>  (47) 
C=c1c(=Cc2c([O-])[n-]c(=O)[n-]c2=O)cc(C)n1CC(=O)Nc1cccc(Cl)c1

>  <Energy>  (47) 
89.0591154246342

>  <Genealogy>  (47) 
C=c1c(=Cc2c([O-])[n-]c(=O)[n-]c2=O)cc(C)n1CC(=O)Nc1cccc(Cl)c1 (protonated)
C=c1c(=Cc2c([O-])[n-]c(=O)[n-]c2=O)cc(C)n1CC(=O)Nc1cccc(Cl)c1 (3D coordinates assigned)
C=c1c(=Cc2c([O-])[n-]c(=O)[n-]c2=O)cc(C)n1CC(=O)Nc1cccc(Cl)c1 (optimized conformer: 89.0591154246342 kcal/mol)

>  <smiles>  (47) 
C=c1c(=Cc2c(O)[nH]c(=O)[nH]c2=O)cc(C)n1CC(=O)Nc1cccc(Cl)c1

>  <score_type>  (47) 
oracle

>  <origin>  (47) 
adg

>  <m_score__min__energy>  (47) 
-15.74

>  <m_primary>  (47) 
energy

$$$$
47:0
     RDKit          3D

 34 36  0  0  0  0  0  0  0  0999 V2000
   57.6346   32.5483   42.6671 H   0  0  0  0  0  0  0  0  0  0  0  0
   57.3980   31.7830   43.4210 C   0  0  0  0  0  0  0  0  0  0  0  0
   56.6810   30.2920   43.1200 S   0  0  0  0  0  0  0  0  0  0  0  0
   56.7090   29.8320   44.7410 C   0  0  0  0  0  0  0  0  0  0  0  0
   56.2750   28.7120   45.2390 N   0  0  0  0  0  0  0  0  0  0  0  0
   57.0550   27.6260   45.7670 C   0  0  0  0  0  0  0  0  0  0  0  0
   57.5300   27.6630   46.9340 O   0  0  0  0  0  0  0  0  0  0  0  0
   57.3480   26.4480   44.8950 C   0  0  0  0  0  0  0  0  0  0  0  0
   56.9404   26.6290   43.8895 H   0  0  0  0  0  0  0  0  0  0  0  0
   58.4371   26.3047   44.8365 H   0  0  0  0  0  0  0  0  0  0  0  0
   56.7170   25.2080   45.4730 C   0  0  0  0  0  0  0  0  0  0  0  0
   57.4720   24.0250   45.5750 C   0  0  0  0  0  0  0  0  0  0  0  0
   58.5246   24.0181   45.2557 H   0  0  0  0  0  0  0  0  0  0  0  0
   56.8910   22.8590   46.0800 C   0  0  0  0  0  0  0  0  0  0  0  0
   57.4894   21.9399   46.1649 H   0  0  0  0  0  0  0  0  0  0  0  0
   55.5530   22.8580   46.4770 C   0  0  0  0  0  0  0  0  0  0  0  0
   55.0993   21.9392   46.8769 H   0  0  0  0  0  0  0  0  0  0  0  0
   54.7890   24.0230   46.3670 C   0  0  0  0  0  0  0  0  0  0  0  0
   53.7335   24.0182   46.6768 H   0  0  0  0  0  0  0  0  0  0  0  0
   55.3630   25.1950   45.8640 C   0  0  0  0  0  0  0  0  0  0  0  0
   54.5810   26.3410   45.7510 O   0  0  0  0  0  0  0  0  0  0  0  0
   57.2570   30.7910   45.5140 N   0  0  0  0  0  0  0  0  0  0  0  0
   57.6420   31.8830   44.7950 C   0  0  0  0  0  0  0  0  0  0  0  0
   58.2760   33.0570   45.4520 C   0  0  0  0  0  0  0  0  0  0  0  0
   58.7630   34.1190   44.6660 C   0  0  0  0  0  0  0  0  0  0  0  0
   58.6706   34.0734   43.5708 H   0  0  0  0  0  0  0  0  0  0  0  0
   59.3630   35.2310   45.2650 C   0  0  0  0  0  0  0  0  0  0  0  0
   59.7357   36.0563   44.6406 H   0  0  0  0  0  0  0  0  0  0  0  0
   59.4900   35.2960   46.6540 C   0  0  0  0  0  0  0  0  0  0  0  0
   59.9618   36.1719   47.1233 H   0  0  0  0  0  0  0  0  0  0  0  0
   59.0180   34.2490   47.4460 C   0  0  0  0  0  0  0  0  0  0  0  0
   59.1195   34.3003   48.5401 H   0  0  0  0  0  0  0  0  0  0  0  0
   58.4160   33.1340   46.8530 C   0  0  0  0  0  0  0  0  0  0  0  0
   58.0492   32.3113   47.4843 H   0  0  0  0  0  0  0  0  0  0  0  0
  1  2  1  0
  2  3  1  0
  3  4  1  0
  4  5  2  0
  5  6  1  0
  6  7  2  0
  6  8  1  0
  8  9  1  0
  8 10  1  0
  8 11  1  0
 11 12  2  0
 12 13  1  0
 12 14  1  0
 14 15  1  0
 14 16  2  0
 16 17  1  0
 16 18  1  0
 18 19  1  0
 18 20  2  0
 20 21  1  0
  4 22  1  0
 22 23  1  0
 23 24  1  0
 24 25  2  0
 25 26  1  0
 25 27  1  0
 27 28  1  0
 27 29  2  0
 29 30  1  0
 29 31  1  0
 31 32  1  0
 31 33  2  0
 33 34  1  0
 23  2  2  0
 33 24  1  0
 20 11  1  0
M  CHG  2  21  -1  22  -1
M  END
>  <UniqueID>  (48) 
48

>  <SMILES>  (48) 
O=C(Cc1ccccc1[O-])/N=c1/[n-]c(-c2ccccc2)cs1

>  <Energy>  (48) 
71.27902371959281

>  <Genealogy>  (48) 
O=C(Cc1ccccc1[O-])N=c1[n-]c(-c2ccccc2)cs1 (protonated)
O=C(Cc1ccccc1[O-])/N=c1/[n-]c(-c2ccccc2)cs1 (cis-trans isomerization)
O=C(Cc1ccccc1[O-])/N=c1/[n-]c(-c2ccccc2)cs1 (3D coordinates assigned)
O=C(Cc1ccccc1[O-])/N=c1/[n-]c(-c2ccccc2)cs1 (optimized conformer: 71.27902371959281 kcal/mol)

>  <smiles>  (48) 
O=C(Cc1ccccc1O)N=c1[nH]c(-c2ccccc2)cs1

>  <score_type>  (48) 
oracle

>  <origin>  (48) 
adg

>  <m_score__min__energy>  (48) 
-13.49

>  <m_primary>  (48) 
energy

$$$$
48:0
     RDKit          3D

 57 60  0  0  0  0  0  0  0  0999 V2000
   58.6190   34.0410   48.2750 H   0  0  0  0  0  0  0  0  0  0  0  0
   58.5440   33.0530   48.3400 O   0  0  0  0  0  0  0  0  0  0  0  0
   58.6720   32.5510   47.0330 C   0  0  2  0  0  0  0  0  0  0  0  0
   57.7668   32.8030   46.4610 H   0  0  0  0  0  0  0  0  0  0  0  0
   58.8190   31.0460   47.0590 C   0  0  0  0  0  0  0  0  0  0  0  0
   58.3610   30.1960   46.0720 C   0  0  0  0  0  0  0  0  0  0  0  0
   57.8426   30.4857   45.1461 H   0  0  0  0  0  0  0  0  0  0  0  0
   58.6800   28.9070   46.4720 C   0  0  0  0  0  0  0  0  0  0  0  0
   58.4580   27.7770   45.7720 C   0  0  0  0  0  0  0  0  0  0  0  0
   59.2358   27.4430   45.0695 H   0  0  0  0  0  0  0  0  0  0  0  0
   57.2350   26.9610   45.8910 C   0  0  0  0  0  0  0  0  0  0  0  0
   57.2250   25.7200   46.4090 N   0  0  0  0  0  0  0  0  0  0  0  0
   55.9150   25.3900   46.4050 C   0  0  0  0  0  0  0  0  0  0  0  0
   55.4970   24.2750   46.8120 O   0  0  0  0  0  0  0  0  0  0  0  0
   55.0890   26.3510   45.9420 N   0  0  0  0  0  0  0  0  0  0  0  0
   55.9380   27.3450   45.6320 C   0  0  0  0  0  0  0  0  0  0  0  0
   55.5270   28.5890   45.1680 O   0  0  0  0  0  0  0  0  0  0  0  0
   59.3270   29.0280   47.7070 C   0  0  0  0  0  0  0  0  0  0  0  0
   59.8360   28.0210   48.4360 C   0  0  0  0  0  0  0  0  0  0  0  0
   60.3263   28.2315   49.3980 H   0  0  0  0  0  0  0  0  0  0  0  0
   59.7625   26.9859   48.0710 H   0  0  0  0  0  0  0  0  0  0  0  0
   59.3760   30.3370   48.0720 N   0  0  0  0  0  0  0  0  0  0  0  0
   59.9620   30.9030   49.2970 C   0  0  0  0  0  0  0  0  0  0  0  0
   60.8681   30.3378   49.5607 H   0  0  0  0  0  0  0  0  0  0  0  0
   60.2153   31.9584   49.1183 H   0  0  0  0  0  0  0  0  0  0  0  0
   58.9560   30.8190   50.4570 C   0  0  0  0  0  0  0  0  0  0  0  0
   58.1460   30.1313   50.1726 H   0  0  0  0  0  0  0  0  0  0  0  0
   59.4978   30.4600   51.3444 H   0  0  0  0  0  0  0  0  0  0  0  0
   58.3650   32.1380   50.7920 N   0  0  0  0  0  0  0  0  0  0  0  0
   57.9270   32.5200   49.9190 H   0  0  0  0  0  0  0  0  0  0  0  0
   59.4060   33.1010   51.2460 C   0  0  0  0  0  0  0  0  0  0  0  0
   60.2122   32.5451   51.7469 H   0  0  0  0  0  0  0  0  0  0  0  0
   59.7868   33.6366   50.3639 H   0  0  0  0  0  0  0  0  0  0  0  0
   58.8310   34.1370   52.2260 C   0  0  0  0  0  0  0  0  0  0  0  0
   59.6330   34.8365   52.5044 H   0  0  0  0  0  0  0  0  0  0  0  0
   57.9986   34.6419   51.7139 H   0  0  0  0  0  0  0  0  0  0  0  0
   58.3050   33.5590   53.4130 O   0  0  0  0  0  0  0  0  0  0  0  0
   57.7770   32.2520   53.2250 C   0  0  0  0  0  0  0  0  0  0  0  0
   58.5665   31.5219   53.4568 H   0  0  0  0  0  0  0  0  0  0  0  0
   56.9082   32.1572   53.8930 H   0  0  0  0  0  0  0  0  0  0  0  0
   57.2750   31.9870   51.7940 C   0  0  0  0  0  0  0  0  0  0  0  0
   56.8795   30.9620   51.7389 H   0  0  0  0  0  0  0  0  0  0  0  0
   56.4920   32.7243   51.5630 H   0  0  0  0  0  0  0  0  0  0  0  0
   59.8950   33.1870   46.3590 C   0  0  0  0  0  0  0  0  0  0  0  0
   60.1041   32.6576   45.4177 H   0  0  0  0  0  0  0  0  0  0  0  0
   59.6776   34.2471   46.1616 H   0  0  0  0  0  0  0  0  0  0  0  0
   61.1040   33.1000   47.2540 C   0  0  0  0  0  0  0  0  0  0  0  0
   62.0300   32.0550   47.1010 C   0  0  0  0  0  0  0  0  0  0  0  0
   61.8899   31.3106   46.3033 H   0  0  0  0  0  0  0  0  0  0  0  0
   63.1300   31.9580   47.9600 C   0  0  0  0  0  0  0  0  0  0  0  0
   63.8575   31.1430   47.8317 H   0  0  0  0  0  0  0  0  0  0  0  0
   63.3050   32.8960   48.9810 C   0  0  0  0  0  0  0  0  0  0  0  0
   64.1711   32.8187   49.6547 H   0  0  0  0  0  0  0  0  0  0  0  0
   62.3820   33.9320   49.1480 C   0  0  0  0  0  0  0  0  0  0  0  0
   62.5480   34.8350   50.1440 F   0  0  0  0  0  0  0  0  0  0  0  0
   61.2820   34.0330   48.2900 C   0  0  0  0  0  0  0  0  0  0  0  0
   60.5534   34.8457   48.4266 H   0  0  0  0  0  0  0  0  0  0  0  0
  1  2  1  0
  2  3  1  0
  3  4  1  6
  3  5  1  0
  5  6  2  0
  6  7  1  0
  6  8  1  0
  8  9  2  0
  9 10  1  0
  9 11  1  0
 11 12  1  0
 12 13  1  0
 13 14  2  0
 13 15  1  0
 15 16  1  0
 16 17  1  0
  8 18  1  0
 18 19  2  0
 19 20  1  0
 19 21  1  0
 18 22  1  0
 22 23  1  0
 23 24  1  0
 23 25  1  0
 23 26  1  0
 26 27  1  0
 26 28  1  0
 26 29  1  0
 29 30  1  0
 29 31  1  0
 31 32  1  0
 31 33  1  0
 31 34  1  0
 34 35  1  0
 34 36  1  0
 34 37  1  0
 37 38  1  0
 38 39  1  0
 38 40  1  0
 38 41  1  0
 41 42  1  0
 41 43  1  0
  3 44  1  0
 44 45  1  0
 44 46  1  0
 44 47  1  0
 47 48  2  0
 48 49  1  0
 48 50  1  0
 50 51  1  0
 50 52  2  0
 52 53  1  0
 52 54  1  0
 54 55  1  0
 54 56  2  0
 56 57  1  0
 22  5  1  0
 41 29  1  0
 56 47  1  0
 16 11  2  0
M  CHG  4  12  -1  15  -1  17  -1  29   1
M  END
>  <UniqueID>  (49) 
49

>  <SMILES>  (49) 
C=c1/c(=C/c2[n-]c(=O)[n-]c2[O-])cc([C@@H](O)Cc2cccc(F)c2)n1CC[NH+]1CCOCC1

>  <Energy>  (49) 
135.22952417981853

>  <Genealogy>  (49) 
C=c1c(=Cc2[n-]c(=O)[n-]c2[O-])cc(C(O)Cc2cccc(F)c2)n1CC[NH+]1CCOCC1 (protonated)
C=c1c(=Cc2[n-]c(=O)[n-]c2[O-])cc([C@@H](O)Cc2cccc(F)c2)n1CC[NH+]1CCOCC1 (chirality)
C=c1/c(=C/c2[n-]c(=O)[n-]c2[O-])cc([C@@H](O)Cc2cccc(F)c2)n1CC[NH+]1CCOCC1 (cis-trans isomerization)
C=c1/c(=C/c2[n-]c(=O)[n-]c2[O-])cc([C@@H](O)Cc2cccc(F)c2)n1CC[NH+]1CCOCC1 (3D coordinates assigned)
C=c1/c(=C/c2[n-]c(=O)[n-]c2[O-])cc([C@@H](O)Cc2cccc(F)c2)n1CC[NH+]1CCOCC1 (nonaromatic ring conformer: 135.22952417981853 kcal/mol)

>  <smiles>  (49) 
C=c1c(=Cc2[nH]c(=O)[nH]c2O)cc(C(O)Cc2cccc(F)c2)n1CCN1CCOCC1

>  <score_type>  (49) 
oracle

>  <origin>  (49) 
adg

>  <m_score__min__energy>  (49) 
-15.050000000000001

>  <m_primary>  (49) 
energy

$$$$
49:0
     RDKit          3D

 57 60  0  0  0  0  0  0  0  0999 V2000
   58.2380   21.6340   43.9850 C   0  0  0  0  0  0  0  0  0  0  0  0
   56.5220   22.0990   44.0320 S   0  0  0  0  0  0  0  0  0  0  0  0
   55.7650   21.1010   44.8620 O   0  0  0  0  0  0  0  0  0  0  0  0
   55.9570   22.1130   42.6400 O   0  0  0  0  0  0  0  0  0  0  0  0
   56.3670   23.6950   44.7410 C   0  0  0  0  0  0  0  0  0  0  0  0
   55.4110   24.0910   45.6680 C   0  0  0  0  0  0  0  0  0  0  0  0
   55.5160   25.3850   46.0680 N   0  0  0  0  0  0  0  0  0  0  0  0
   56.5440   26.0190   45.4590 C   0  0  0  0  0  0  0  0  0  0  0  0
   56.9120   27.4400   45.7400 C   0  0  0  0  0  0  0  0  0  0  0  0
   55.8800   28.3360   45.2340 N   0  0  0  0  0  0  0  0  0  0  0  0
   56.1450   29.6570   44.7460 C   0  0  0  0  0  0  0  0  0  0  0  0
   55.1960   30.4740   44.5980 O   0  0  0  0  0  0  0  0  0  0  0  0
   57.5440   30.0750   44.3720 C   0  0  1  0  0  0  0  0  0  0  0  0
   57.5490   31.4570   43.6800 C   0  0  0  0  0  0  0  0  0  0  0  0
   57.9080   32.5780   44.6270 C   0  0  0  0  0  0  0  0  0  0  0  0
   57.2930   32.6720   45.8880 C   0  0  0  0  0  0  0  0  0  0  0  0
   57.6310   33.7090   46.7620 C   0  0  0  0  0  0  0  0  0  0  0  0
   58.5990   34.6470   46.3940 C   0  0  0  0  0  0  0  0  0  0  0  0
   59.2280   34.5520   45.1510 C   0  0  0  0  0  0  0  0  0  0  0  0
   58.8780   33.5290   44.2640 C   0  0  0  0  0  0  0  0  0  0  0  0
   58.4490   30.0370   45.5300 N   0  0  0  0  0  0  0  0  0  0  0  0
   59.6850   29.3040   45.5780 C   0  0  0  0  0  0  0  0  0  0  0  0
   60.0970   28.6690   44.5700 O   0  0  0  0  0  0  0  0  0  0  0  0
   60.4820   29.2770   46.8440 C   0  0  0  0  0  0  0  0  0  0  0  0
   60.0390   30.3470   47.7380 N   0  0  0  0  0  0  0  0  0  0  0  0
   59.0510   30.2540   48.6610 C   0  0  0  0  0  0  0  0  0  0  0  0
   58.9310   31.4440   49.3690 C   0  0  0  0  0  0  0  0  0  0  0  0
   59.8970   32.2780   48.8480 C   0  0  0  0  0  0  0  0  0  0  0  0
   60.2430   33.5840   49.1860 C   0  0  0  0  0  0  0  0  0  0  0  0
   59.5840   34.2550   50.1630 F   0  0  0  0  0  0  0  0  0  0  0  0
   61.3080   34.1850   48.4910 C   0  0  0  0  0  0  0  0  0  0  0  0
   62.0000   33.4700   47.4890 C   0  0  0  0  0  0  0  0  0  0  0  0
   61.6290   32.1510   47.1680 C   0  0  0  0  0  0  0  0  0  0  0  0
   60.5600   31.5830   47.8680 C   0  0  0  0  0  0  0  0  0  0  0  0
   57.3760   24.9970   44.4100 S   0  0  0  0  0  0  0  0  0  0  0  0
   58.6182   21.5310   45.0120 H   0  0  0  0  0  0  0  0  0  0  0  0
   58.3436   20.6748   43.4569 H   0  0  0  0  0  0  0  0  0  0  0  0
   58.8135   22.4086   43.4569 H   0  0  0  0  0  0  0  0  0  0  0  0
   54.6327   23.4123   46.0471 H   0  0  0  0  0  0  0  0  0  0  0  0
   57.0150   27.5808   46.8261 H   0  0  0  0  0  0  0  0  0  0  0  0
   57.8643   27.6701   45.2398 H   0  0  0  0  0  0  0  0  0  0  0  0
   57.9267   29.3440   43.6446 H   0  0  0  0  0  0  0  0  0  0  0  0
   58.2831   31.4386   42.8610 H   0  0  0  0  0  0  0  0  0  0  0  0
   56.5316   31.6475   43.3076 H   0  0  0  0  0  0  0  0  0  0  0  0
   56.5424   31.9259   46.1880 H   0  0  0  0  0  0  0  0  0  0  0  0
   57.1345   33.7868   47.7405 H   0  0  0  0  0  0  0  0  0  0  0  0
   58.8658   35.4610   47.0841 H   0  0  0  0  0  0  0  0  0  0  0  0
   60.0001   35.2830   44.8690 H   0  0  0  0  0  0  0  0  0  0  0  0
   59.3633   33.4681   43.2787 H   0  0  0  0  0  0  0  0  0  0  0  0
   58.1590   30.5640   46.3830 H   0  0  0  0  0  0  0  0  0  0  0  0
   60.3426   28.3058   47.3414 H   0  0  0  0  0  0  0  0  0  0  0  0
   61.5453   29.4245   46.6041 H   0  0  0  0  0  0  0  0  0  0  0  0
   58.4304   29.3610   48.8267 H   0  0  0  0  0  0  0  0  0  0  0  0
   58.2169   31.6719   50.1741 H   0  0  0  0  0  0  0  0  0  0  0  0
   61.6034   35.2175   48.7293 H   0  0  0  0  0  0  0  0  0  0  0  0
   62.8351   33.9475   46.9555 H   0  0  0  0  0  0  0  0  0  0  0  0
   62.1631   31.5846   46.3909 H   0  0  0  0  0  0  0  0  0  0  0  0
  1  2  1  0
  2  3  2  0
  2  4  2  0
  2  5  1  0
  5  6  2  0
  6  7  1  0
  7  8  2  0
  8  9  1  0
  9 10  1  0
 10 11  1  0
 11 12  2  0
 11 13  1  0
 13 14  1  0
 14 15  1  0
 15 16  2  0
 16 17  1  0
 17 18  2  0
 18 19  1  0
 19 20  2  0
 13 21  1  0
 21 22  1  0
 22 23  2  0
 22 24  1  0
 24 25  1  0
 25 26  1  0
 26 27  2  0
 27 28  1  0
 28 29  2  0
 29 30  1  0
 29 31  1  0
 31 32  2  0
 32 33  1  0
 33 34  2  0
  8 35  1  0
 35  5  1  0
 20 15  1  0
 34 25  1  0
 34 28  1  0
  1 36  1  0
  1 37  1  0
  1 38  1  0
  6 39  1  0
  9 40  1  0
  9 41  1  0
 13 42  1  6
 14 43  1  0
 14 44  1  0
 16 45  1  0
 17 46  1  0
 18 47  1  0
 19 48  1  0
 20 49  1  0
 21 50  1  0
 24 51  1  0
 24 52  1  0
 26 53  1  0
 27 54  1  0
 31 55  1  0
 32 56  1  0
 33 57  1  0
M  CHG  1  10  -1
M  END
>  <UniqueID>  (50) 
50

>  <SMILES>  (50) 
CS(=O)(=O)c1cnc(C[N-]C(=O)[C@@H](Cc2ccccc2)NC(=O)Cn2ccc3c(F)cccc32)s1

>  <Energy>  (50) 
109.79762263634363

>  <Genealogy>  (50) 
CS(=O)(=O)c1cnc(C[N-]C(=O)C(Cc2ccccc2)NC(=O)Cn2ccc3c(F)cccc32)s1 (protonated)
CS(=O)(=O)c1cnc(C[N-]C(=O)[C@@H](Cc2ccccc2)NC(=O)Cn2ccc3c(F)cccc32)s1 (chirality)
CS(=O)(=O)c1cnc(C[N-]C(=O)[C@@H](Cc2ccccc2)NC(=O)Cn2ccc3c(F)cccc32)s1 (3D coordinates assigned)
CS(=O)(=O)c1cnc(C[N-]C(=O)[C@@H](Cc2ccccc2)NC(=O)Cn2ccc3c(F)cccc32)s1 (optimized conformer: 109.79762263634363 kcal/mol)

>  <smiles>  (50) 
CS(=O)(=O)c1cnc(CNC(=O)C(Cc2ccccc2)NC(=O)Cn2ccc3c(F)cccc32)s1

>  <score_type>  (50) 
oracle

>  <origin>  (50) 
adg

>  <m_score__min__energy>  (50) 
-13.029999999999999

>  <m_primary>  (50) 
energy

$$$$
50:0
     RDKit          3D

 56 57  0  0  0  0  0  0  0  0999 V2000
   60.7820   27.8960   50.4270 C   0  0  0  0  0  0  0  0  0  0  0  0
   60.2740   28.0890   49.0290 C   0  0  0  0  0  0  0  0  0  0  0  0
   59.3940   29.1390   48.7300 C   0  0  0  0  0  0  0  0  0  0  0  0
   58.8930   29.2930   47.4340 C   0  0  0  0  0  0  0  0  0  0  0  0
   59.2460   28.3830   46.4260 C   0  0  0  0  0  0  0  0  0  0  0  0
   58.6970   28.5300   45.0320 C   0  0  0  0  0  0  0  0  0  0  0  0
   57.2380   28.3200   45.0190 N   0  0  0  0  0  0  0  0  0  0  0  0
   56.6750   27.1190   45.6480 C   0  0  0  0  0  0  0  0  0  0  0  0
   56.3290   29.2800   44.4320 C   0  0  0  0  0  0  0  0  0  0  0  0
   55.1460   29.3580   44.8670 O   0  0  0  0  0  0  0  0  0  0  0  0
   56.7720   30.2440   43.3560 C   0  0  0  0  0  0  0  0  0  0  0  0
   57.2390   31.5490   43.9250 C   0  0  0  0  0  0  0  0  0  0  0  0
   56.9850   31.9430   45.1900 N   0  0  0  0  0  0  0  0  0  0  0  0
   57.5370   33.1560   45.4620 C   0  0  0  0  0  0  0  0  0  0  0  0
   57.4430   33.7740   46.8230 C   0  0  0  0  0  0  0  0  0  0  0  0
   58.6460   33.4680   47.6020 N   0  0  0  0  0  0  0  0  0  0  0  0
   58.6180   32.4360   48.6360 C   0  0  0  0  0  0  0  0  0  0  0  0
   59.9110   33.9930   47.1780 C   0  0  0  0  0  0  0  0  0  0  0  0
   59.9480   35.1420   46.6590 O   0  0  0  0  0  0  0  0  0  0  0  0
   61.1820   33.1640   47.2700 C   0  0  0  0  0  0  0  0  0  0  0  0
   62.2790   33.8330   46.4230 C   0  0  0  0  0  0  0  0  0  0  0  0
   60.9450   31.7280   46.7590 C   0  0  0  0  0  0  0  0  0  0  0  0
   61.6460   33.0900   48.7410 C   0  0  0  0  0  0  0  0  0  0  0  0
   58.2530   33.7280   44.4150 C   0  0  0  0  0  0  0  0  0  0  0  0
   58.1730   32.6800   43.1030 S   0  0  0  0  0  0  0  0  0  0  0  0
   60.1230   27.3300   46.7270 C   0  0  0  0  0  0  0  0  0  0  0  0
   60.6290   27.1800   48.0210 C   0  0  0  0  0  0  0  0  0  0  0  0
   60.0026   28.1921   51.1445 H   0  0  0  0  0  0  0  0  0  0  0  0
   61.0390   26.8376   50.5809 H   0  0  0  0  0  0  0  0  0  0  0  0
   61.6770   28.5168   50.5809 H   0  0  0  0  0  0  0  0  0  0  0  0
   59.0964   29.8451   49.5192 H   0  0  0  0  0  0  0  0  0  0  0  0
   58.2191   30.1313   47.2035 H   0  0  0  0  0  0  0  0  0  0  0  0
   58.9190   29.5418   44.6618 H   0  0  0  0  0  0  0  0  0  0  0  0
   59.1677   27.7741   44.3862 H   0  0  0  0  0  0  0  0  0  0  0  0
   56.7230   27.2214   46.7422 H   0  0  0  0  0  0  0  0  0  0  0  0
   55.6268   26.9991   45.3366 H   0  0  0  0  0  0  0  0  0  0  0  0
   57.2533   26.2366   45.3366 H   0  0  0  0  0  0  0  0  0  0  0  0
   57.5977   29.7883   42.7898 H   0  0  0  0  0  0  0  0  0  0  0  0
   55.9074   30.4477   42.7072 H   0  0  0  0  0  0  0  0  0  0  0  0
   57.3441   34.8648   46.7207 H   0  0  0  0  0  0  0  0  0  0  0  0
   56.5647   33.3644   47.3433 H   0  0  0  0  0  0  0  0  0  0  0  0
   58.6309   32.9107   49.6282 H   0  0  0  0  0  0  0  0  0  0  0  0
   57.7032   31.8346   48.5291 H   0  0  0  0  0  0  0  0  0  0  0  0
   59.4988   31.7858   48.5291 H   0  0  0  0  0  0  0  0  0  0  0  0
   63.0277   34.2896   47.0871 H   0  0  0  0  0  0  0  0  0  0  0  0
   62.7643   33.0770   45.7883 H   0  0  0  0  0  0  0  0  0  0  0  0
   61.8291   34.6106   45.7883 H   0  0  0  0  0  0  0  0  0  0  0  0
   60.8327   31.0477   47.6161 H   0  0  0  0  0  0  0  0  0  0  0  0
   60.0305   31.7024   46.1483 H   0  0  0  0  0  0  0  0  0  0  0  0
   61.8028   31.4099   46.1483 H   0  0  0  0  0  0  0  0  0  0  0  0
   60.7806   33.2280   49.4058 H   0  0  0  0  0  0  0  0  0  0  0  0
   62.1025   32.1077   48.9325 H   0  0  0  0  0  0  0  0  0  0  0  0
   62.3854   33.8816   48.9325 H   0  0  0  0  0  0  0  0  0  0  0  0
   58.7781   34.6942   44.4411 H   0  0  0  0  0  0  0  0  0  0  0  0
   60.4139   26.6186   45.9401 H   0  0  0  0  0  0  0  0  0  0  0  0
   61.3084   26.3458   48.2502 H   0  0  0  0  0  0  0  0  0  0  0  0
  1  2  1  0
  2  3  2  0
  3  4  1  0
  4  5  2  0
  5  6  1  0
  6  7  1  0
  7  8  1  0
  7  9  1  0
  9 10  2  0
  9 11  1  0
 11 12  1  0
 12 13  2  0
 13 14  1  0
 14 15  1  0
 15 16  1  0
 16 17  1  0
 16 18  1  0
 18 19  2  0
 18 20  1  0
 20 21  1  0
 20 22  1  0
 20 23  1  0
 14 24  2  0
 24 25  1  0
  5 26  1  0
 26 27  2  0
 27  2  1  0
 25 12  1  0
  1 28  1  0
  1 29  1  0
  1 30  1  0
  3 31  1  0
  4 32  1  0
  6 33  1  0
  6 34  1  0
  8 35  1  0
  8 36  1  0
  8 37  1  0
 11 38  1  0
 11 39  1  0
 15 40  1  0
 15 41  1  0
 17 42  1  0
 17 43  1  0
 17 44  1  0
 21 45  1  0
 21 46  1  0
 21 47  1  0
 22 48  1  0
 22 49  1  0
 22 50  1  0
 23 51  1  0
 23 52  1  0
 23 53  1  0
 24 54  1  0
 26 55  1  0
 27 56  1  0
M  END
>  <UniqueID>  (51) 
51

>  <SMILES>  (51) 
Cc1ccc(CN(C)C(=O)Cc2nc(CN(C)C(=O)C(C)(C)C)cs2)cc1

>  <Energy>  (51) 
78.99527594246636

>  <Genealogy>  (51) 
Cc1ccc(CN(C)C(=O)Cc2nc(CN(C)C(=O)C(C)(C)C)cs2)cc1 (3D coordinates assigned)
Cc1ccc(CN(C)C(=O)Cc2nc(CN(C)C(=O)C(C)(C)C)cs2)cc1 (optimized conformer: 78.99527594246636 kcal/mol)

>  <smiles>  (51) 
Cc1ccc(CN(C)C(=O)Cc2nc(CN(C)C(=O)C(C)(C)C)cs2)cc1

>  <score_type>  (51) 
oracle

>  <origin>  (51) 
adg

>  <m_score__min__energy>  (51) 
-8.6400000000000006

>  <m_primary>  (51) 
energy

$$$$
51:0
     RDKit          3D

 78 82  0  0  0  0  0  0  0  0999 V2000
   61.4520   25.4740   45.9890 O   0  0  0  0  0  0  0  0  0  0  0  0
   60.7850   26.4400   46.4510 C   0  0  0  0  0  0  0  0  0  0  0  0
   60.6610   27.7030   45.6580 C   0  0  0  0  0  0  0  0  0  0  0  0
   59.2090   28.0340   45.4390 C   0  0  0  0  0  0  0  0  0  0  0  0
   58.2030   27.2000   45.9480 C   0  0  0  0  0  0  0  0  0  0  0  0
   56.8570   27.5220   45.7540 C   0  0  0  0  0  0  0  0  0  0  0  0
   56.5010   28.6820   45.0620 C   0  0  0  0  0  0  0  0  0  0  0  0
   55.1540   28.9770   44.8720 O   0  0  0  0  0  0  0  0  0  0  0  0
   57.5000   29.5410   44.5660 C   0  0  0  0  0  0  0  0  0  0  0  0
   57.1310   30.8010   43.8220 C   0  0  0  0  0  0  0  0  0  0  0  0
   57.1170   31.9610   44.7380 N   0  0  0  0  0  0  0  0  0  0  0  0
   57.7590   31.6110   46.0190 C   0  0  0  0  0  0  0  0  0  0  0  0
   57.7100   32.8130   46.9860 C   0  0  0  0  0  0  0  0  0  0  0  0
   57.2970   34.0090   46.3460 O   0  0  0  0  0  0  0  0  0  0  0  0
   58.0740   34.2210   45.1870 C   0  0  0  0  0  0  0  0  0  0  0  0
   57.7940   33.1310   44.1340 C   0  0  0  0  0  0  0  0  0  0  0  0
   58.8510   29.2020   44.7450 C   0  0  0  0  0  0  0  0  0  0  0  0
   60.1100   26.3230   47.7070 N   0  0  0  0  0  0  0  0  0  0  0  0
   60.2130   27.3190   48.7680 C   0  0  0  0  0  0  0  0  0  0  0  0
   59.0750   28.3350   48.6460 C   0  0  0  0  0  0  0  0  0  0  0  0
   59.6230   29.7300   48.5260 C   0  0  0  0  0  0  0  0  0  0  0  0
   60.4780   30.0650   47.4630 C   0  0  0  0  0  0  0  0  0  0  0  0
   60.9470   31.3740   47.3210 C   0  0  0  0  0  0  0  0  0  0  0  0
   60.5440   32.3700   48.2210 C   0  0  0  0  0  0  0  0  0  0  0  0
   61.1200   34.0290   48.0350 S   0  0  0  0  0  0  0  0  0  0  0  0
   61.1690   34.3470   46.5660 O   0  0  0  0  0  0  0  0  0  0  0  0
   60.1270   34.9650   48.6700 O   0  0  0  0  0  0  0  0  0  0  0  0
   62.7110   34.3070   48.7170 N   0  0  0  0  0  0  0  0  0  0  0  0
   62.7320   34.4810   50.1770 C   0  0  0  0  0  0  0  0  0  0  0  0
   62.7390   33.1510   50.9270 C   0  0  0  0  0  0  0  0  0  0  0  0
   63.8140   32.2560   50.4700 N   0  0  0  0  0  0  0  0  0  0  0  0
   65.0620   32.2610   51.2770 C   0  0  0  0  0  0  0  0  0  0  0  0
   65.5480   33.6650   51.6850 C   0  0  0  0  0  0  0  0  0  0  0  0
   66.8370   33.8310   50.9650 C   0  0  0  0  0  0  0  0  0  0  0  0
   67.2100   32.7310   50.3330 C   0  0  0  0  0  0  0  0  0  0  0  0
   66.2360   31.6210   50.5070 C   0  0  0  0  0  0  0  0  0  0  0  0
   63.9070   32.0910   49.0030 C   0  0  0  0  0  0  0  0  0  0  0  0
   63.7500   33.4000   48.2010 C   0  0  0  0  0  0  0  0  0  0  0  0
   59.7090   32.0330   49.2960 C   0  0  0  0  0  0  0  0  0  0  0  0
   59.2400   30.7230   49.4410 C   0  0  0  0  0  0  0  0  0  0  0  0
   61.1434   28.5258   46.2060 H   0  0  0  0  0  0  0  0  0  0  0  0
   61.1508   27.5660   44.6826 H   0  0  0  0  0  0  0  0  0  0  0  0
   58.4743   26.2892   46.5019 H   0  0  0  0  0  0  0  0  0  0  0  0
   56.0735   26.8583   46.1484 H   0  0  0  0  0  0  0  0  0  0  0  0
   57.8676   30.9789   43.0247 H   0  0  0  0  0  0  0  0  0  0  0  0
   56.1264   30.6772   43.3913 H   0  0  0  0  0  0  0  0  0  0  0  0
   57.2286   30.7596   46.4705 H   0  0  0  0  0  0  0  0  0  0  0  0
   58.8094   31.3431   45.8325 H   0  0  0  0  0  0  0  0  0  0  0  0
   57.0027   32.5846   47.7969 H   0  0  0  0  0  0  0  0  0  0  0  0
   58.7280   32.9742   47.3703 H   0  0  0  0  0  0  0  0  0  0  0  0
   57.8269   35.2050   44.7621 H   0  0  0  0  0  0  0  0  0  0  0  0
   59.1380   34.1797   45.4632 H   0  0  0  0  0  0  0  0  0  0  0  0
   57.1505   33.5503   43.3466 H   0  0  0  0  0  0  0  0  0  0  0  0
   58.7550   32.7980   43.7149 H   0  0  0  0  0  0  0  0  0  0  0  0
   59.6358   29.8567   44.3383 H   0  0  0  0  0  0  0  0  0  0  0  0
   60.1504   26.8178   49.7452 H   0  0  0  0  0  0  0  0  0  0  0  0
   61.1758   27.8434   48.6781 H   0  0  0  0  0  0  0  0  0  0  0  0
   58.4773   28.1030   47.7521 H   0  0  0  0  0  0  0  0  0  0  0  0
   58.4482   28.2761   49.5480 H   0  0  0  0  0  0  0  0  0  0  0  0
   60.7798   29.2937   46.7391 H   0  0  0  0  0  0  0  0  0  0  0  0
   61.6350   31.6234   46.4998 H   0  0  0  0  0  0  0  0  0  0  0  0
   63.6356   35.0450   50.4516 H   0  0  0  0  0  0  0  0  0  0  0  0
   61.8157   35.0190   50.4615 H   0  0  0  0  0  0  0  0  0  0  0  0
   62.8777   33.3509   51.9998 H   0  0  0  0  0  0  0  0  0  0  0  0
   61.7793   32.6502   50.7316 H   0  0  0  0  0  0  0  0  0  0  0  0
   64.7882   31.6903   52.1766 H   0  0  0  0  0  0  0  0  0  0  0  0
   64.8255   34.4334   51.3728 H   0  0  0  0  0  0  0  0  0  0  0  0
   65.6584   33.7714   52.7743 H   0  0  0  0  0  0  0  0  0  0  0  0
   67.4170   34.7657   50.9584 H   0  0  0  0  0  0  0  0  0  0  0  0
   68.1359   32.6466   49.7451 H   0  0  0  0  0  0  0  0  0  0  0  0
   65.9005   31.2404   49.5310 H   0  0  0  0  0  0  0  0  0  0  0  0
   66.6691   30.7615   51.0396 H   0  0  0  0  0  0  0  0  0  0  0  0
   64.8911   31.6596   48.7674 H   0  0  0  0  0  0  0  0  0  0  0  0
   63.0705   31.4406   48.7075 H   0  0  0  0  0  0  0  0  0  0  0  0
   64.7122   33.9327   48.2196 H   0  0  0  0  0  0  0  0  0  0  0  0
   63.4399   33.1116   47.1858 H   0  0  0  0  0  0  0  0  0  0  0  0
   59.4216   32.8019   50.0283 H   0  0  0  0  0  0  0  0  0  0  0  0
   58.5687   30.4703   50.2750 H   0  0  0  0  0  0  0  0  0  0  0  0
  1  2  2  0
  2  3  1  0
  3  4  1  0
  4  5  2  0
  5  6  1  0
  6  7  2  0
  7  8  1  0
  7  9  1  0
  9 10  1  0
 10 11  1  0
 11 12  1  0
 12 13  1  0
 13 14  1  0
 14 15  1  0
 15 16  1  0
  9 17  2  0
  2 18  1  0
 18 19  1  0
 19 20  1  0
 20 21  1  0
 21 22  2  0
 22 23  1  0
 23 24  2  0
 24 25  1  0
 25 26  2  0
 25 27  2  0
 25 28  1  0
 28 29  1  0
 29 30  1  0
 30 31  1  0
 31 32  1  0
 32 33  1  0
 33 34  1  0
 34 35  2  0
 35 36  1  0
 31 37  1  0
 37 38  1  0
 24 39  1  0
 39 40  2  0
 17  4  1  0
 40 21  1  0
 16 11  1  0
 38 28  1  0
 36 32  1  0
  3 41  1  0
  3 42  1  0
  5 43  1  0
  6 44  1  0
 10 45  1  0
 10 46  1  0
 12 47  1  0
 12 48  1  0
 13 49  1  0
 13 50  1  0
 15 51  1  0
 15 52  1  0
 16 53  1  0
 16 54  1  0
 17 55  1  0
 19 56  1  0
 19 57  1  0
 20 58  1  0
 20 59  1  0
 22 60  1  0
 23 61  1  0
 29 62  1  0
 29 63  1  0
 30 64  1  0
 30 65  1  0
 32 66  1  0
 33 67  1  0
 33 68  1  0
 34 69  1  0
 35 70  1  0
 36 71  1  0
 36 72  1  0
 37 73  1  0
 37 74  1  0
 38 75  1  0
 38 76  1  0
 39 77  1  0
 40 78  1  0
M  CHG  2   8  -1  18  -1
M  END
>  <UniqueID>  (52) 
52

>  <SMILES>  (52) 
O=C(Cc1ccc([O-])c(CN2CCOCC2)c1)[N-]CCc1ccc(S(=O)(=O)N2CCN(C3CC=CC3)CC2)cc1

>  <Energy>  (52) 
106.80708744218323

>  <Genealogy>  (52) 
O=C(Cc1ccc([O-])c(CN2CCOCC2)c1)[N-]CCc1ccc(S(=O)(=O)N2CCN(C3CC=CC3)CC2)cc1 (protonated)
O=C(Cc1ccc([O-])c(CN2CCOCC2)c1)[N-]CCc1ccc(S(=O)(=O)N2CCN(C3CC=CC3)CC2)cc1 (3D coordinates assigned)
O=C(Cc1ccc([O-])c(CN2CCOCC2)c1)[N-]CCc1ccc(S(=O)(=O)N2CCN(C3CC=CC3)CC2)cc1 (nonaromatic ring conformer: 106.80708744218323 kcal/mol)

>  <smiles>  (52) 
O=C(Cc1ccc(O)c(CN2CCOCC2)c1)NCCc1ccc(S(=O)(=O)N2CCN(C3CC=CC3)CC2)cc1

>  <score_type>  (52) 
oracle

>  <origin>  (52) 
adg

>  <m_score__min__energy>  (52) 
-14.859999999999999

>  <m_primary>  (52) 
energy

$$$$
52:0
     RDKit          3D

 44 46  0  0  0  0  0  0  0  0999 V2000
   62.2230   33.8170   48.2440 C   0  0  0  0  0  0  0  0  0  0  0  0
   62.6480   32.0910   48.1370 S   0  0  0  0  0  0  0  0  0  0  0  0
   63.1680   31.5990   49.4580 O   0  0  0  0  0  0  0  0  0  0  0  0
   63.7570   31.9740   47.1290 O   0  0  0  0  0  0  0  0  0  0  0  0
   61.2680   31.0940   47.6190 C   0  0  0  0  0  0  0  0  0  0  0  0
   61.4970   30.1490   46.6040 C   0  0  0  0  0  0  0  0  0  0  0  0
   60.4700   29.3340   46.1330 C   0  0  0  0  0  0  0  0  0  0  0  0
   59.1790   29.4380   46.6630 C   0  0  0  0  0  0  0  0  0  0  0  0
   58.0880   28.5760   46.1450 C   0  0  0  0  0  0  0  0  0  0  0  0
   57.0510   29.1100   45.6630 O   0  0  0  0  0  0  0  0  0  0  0  0
   58.2190   27.1440   46.1390 N   0  0  0  0  0  0  0  0  0  0  0  0
   57.0990   26.2410   46.0620 C   0  0  0  0  0  0  0  0  0  0  0  0
   55.7790   26.7110   45.9930 C   0  0  0  0  0  0  0  0  0  0  0  0
   54.7430   25.8350   45.9500 N   0  0  0  0  0  0  0  0  0  0  0  0
   54.9600   24.4950   45.9800 C   0  0  0  0  0  0  0  0  0  0  0  0
   53.9860   23.7000   45.9340 O   0  0  0  0  0  0  0  0  0  0  0  0
   56.2260   24.0140   46.0650 N   0  0  0  0  0  0  0  0  0  0  0  0
   57.2950   24.8510   46.1130 C   0  0  0  0  0  0  0  0  0  0  0  0
   58.4550   24.3680   46.1920 O   0  0  0  0  0  0  0  0  0  0  0  0
   58.9350   30.3840   47.6710 C   0  0  0  0  0  0  0  0  0  0  0  0
   59.9630   31.2020   48.1730 C   0  0  0  0  0  0  0  0  0  0  0  0
   59.5280   32.3540   49.4510 S   0  0  0  0  0  0  0  0  0  0  0  0
   58.2500   31.9480   50.1250 O   0  0  0  0  0  0  0  0  0  0  0  0
   60.6480   32.4250   50.4510 O   0  0  0  0  0  0  0  0  0  0  0  0
   59.2910   33.9260   48.7560 N   0  0  0  0  0  0  0  0  0  0  0  0
   58.9320   34.1850   47.3930 C   0  0  0  0  0  0  0  0  0  0  0  0
   59.6890   35.0390   46.5690 C   0  0  0  0  0  0  0  0  0  0  0  0
   59.3050   35.2600   45.2420 C   0  0  0  0  0  0  0  0  0  0  0  0
   58.1640   34.6380   44.7290 C   0  0  0  0  0  0  0  0  0  0  0  0
   57.4060   33.7920   45.5420 C   0  0  0  0  0  0  0  0  0  0  0  0
   57.7870   33.5650   46.8690 C   0  0  0  0  0  0  0  0  0  0  0  0
   57.0430   32.7400   47.6460 F   0  0  0  0  0  0  0  0  0  0  0  0
   62.1504   34.1119   49.3012 H   0  0  0  0  0  0  0  0  0  0  0  0
   63.0001   34.4174   47.7484 H   0  0  0  0  0  0  0  0  0  0  0  0
   61.2559   33.9879   47.7484 H   0  0  0  0  0  0  0  0  0  0  0  0
   62.5048   30.0513   46.1740 H   0  0  0  0  0  0  0  0  0  0  0  0
   60.6756   28.6024   45.3377 H   0  0  0  0  0  0  0  0  0  0  0  0
   59.1820   26.7410   46.0910 H   0  0  0  0  0  0  0  0  0  0  0  0
   55.5828   27.7932   45.9737 H   0  0  0  0  0  0  0  0  0  0  0  0
   57.9179   30.4877   48.0770 H   0  0  0  0  0  0  0  0  0  0  0  0
   60.5856   35.5343   46.9699 H   0  0  0  0  0  0  0  0  0  0  0  0
   59.9027   35.9249   44.6012 H   0  0  0  0  0  0  0  0  0  0  0  0
   57.8628   34.8143   43.6858 H   0  0  0  0  0  0  0  0  0  0  0  0
   56.5073   33.3030   45.1379 H   0  0  0  0  0  0  0  0  0  0  0  0
  1  2  1  0
  2  3  2  0
  2  4  2  0
  2  5  1  0
  5  6  2  0
  6  7  1  0
  7  8  2  0
  8  9  1  0
  9 10  2  0
  9 11  1  0
 11 12  1  0
 12 13  2  0
 13 14  1  0
 14 15  1  0
 15 16  2  0
 15 17  1  0
 17 18  1  0
 18 19  2  0
  8 20  1  0
 20 21  2  0
 21 22  1  0
 22 23  2  0
 22 24  2  0
 22 25  1  0
 25 26  1  0
 26 27  2  0
 27 28  1  0
 28 29  2  0
 29 30  1  0
 30 31  2  0
 31 32  1  0
 21  5  1  0
 31 26  1  0
 18 12  1  0
  1 33  1  0
  1 34  1  0
  1 35  1  0
  6 36  1  0
  7 37  1  0
 11 38  1  0
 13 39  1  0
 20 40  1  0
 27 41  1  0
 28 42  1  0
 29 43  1  0
 30 44  1  0
M  CHG  3  14  -1  17  -1  25  -1
M  END
>  <UniqueID>  (53) 
53

>  <SMILES>  (53) 
CS(=O)(=O)c1ccc(C(=O)Nc2c[n-]c(=O)[n-]c2=O)cc1S(=O)(=O)[N-]c1ccccc1F

>  <Energy>  (53) 
61.787528467548064

>  <Genealogy>  (53) 
CS(=O)(=O)c1ccc(C(=O)Nc2c[n-]c(=O)[n-]c2=O)cc1S(=O)(=O)[N-]c1ccccc1F (protonated)
CS(=O)(=O)c1ccc(C(=O)Nc2c[n-]c(=O)[n-]c2=O)cc1S(=O)(=O)[N-]c1ccccc1F (3D coordinates assigned)
CS(=O)(=O)c1ccc(C(=O)Nc2c[n-]c(=O)[n-]c2=O)cc1S(=O)(=O)[N-]c1ccccc1F (optimized conformer: 61.787528467548064 kcal/mol)

>  <smiles>  (53) 
CS(=O)(=O)c1ccc(C(=O)Nc2c[nH]c(=O)[nH]c2=O)cc1S(=O)(=O)Nc1ccccc1F

>  <score_type>  (53) 
oracle

>  <origin>  (53) 
adg

>  <m_score__min__energy>  (53) 
-13.210000000000001

>  <m_primary>  (53) 
energy

$$$$
53:0
     RDKit          3D

 28 29  0  0  0  0  0  0  0  0999 V2000
   57.6350   32.0260   41.7810 C   0  0  0  0  0  0  0  0  0  0  0  0
   57.6800   31.8850   43.2690 C   0  0  0  0  0  0  0  0  0  0  0  0
   57.7320   33.0180   44.0870 C   0  0  0  0  0  0  0  0  0  0  0  0
   57.7730   32.8400   45.4730 C   0  0  0  0  0  0  0  0  0  0  0  0
   57.8300   34.0210   46.3870 C   0  0  0  0  0  0  0  0  0  0  0  0
   57.7600   31.5810   45.9890 N   0  0  0  0  0  0  0  0  0  0  0  0
   57.7080   30.4850   45.1820 C   0  0  0  0  0  0  0  0  0  0  0  0
   57.6950   29.2810   45.6740 N   0  0  0  0  0  0  0  0  0  0  0  0
   56.6280   28.3180   45.5920 C   0  0  0  0  0  0  0  0  0  0  0  0
   55.5300   28.6300   45.0550 O   0  0  0  0  0  0  0  0  0  0  0  0
   56.8270   26.9510   46.1420 C   0  0  0  0  0  0  0  0  0  0  0  0
   58.1010   26.5510   46.5860 C   0  0  0  0  0  0  0  0  0  0  0  0
   58.3000   25.2710   47.1060 C   0  0  0  0  0  0  0  0  0  0  0  0
   57.2240   24.3880   47.1810 C   0  0  0  0  0  0  0  0  0  0  0  0
   57.3870   23.2300   47.6460 O   0  0  0  0  0  0  0  0  0  0  0  0
   55.9970   24.7780   46.7510 N   0  0  0  0  0  0  0  0  0  0  0  0
   55.7690   26.0180   46.2400 C   0  0  0  0  0  0  0  0  0  0  0  0
   54.4830   26.3400   45.8210 O   0  0  0  0  0  0  0  0  0  0  0  0
   57.6690   30.6480   43.8340 N   0  0  0  0  0  0  0  0  0  0  0  0
   57.3102   33.0437   41.5188 H   0  0  0  0  0  0  0  0  0  0  0  0
   58.6365   31.8421   41.3648 H   0  0  0  0  0  0  0  0  0  0  0  0
   56.9252   31.2959   41.3648 H   0  0  0  0  0  0  0  0  0  0  0  0
   57.7405   34.0272   43.6495 H   0  0  0  0  0  0  0  0  0  0  0  0
   57.8134   33.6772   47.4318 H   0  0  0  0  0  0  0  0  0  0  0  0
   58.7564   34.5842   46.2010 H   0  0  0  0  0  0  0  0  0  0  0  0
   56.9622   34.6708   46.2010 H   0  0  0  0  0  0  0  0  0  0  0  0
   58.9462   27.2521   46.5228 H   0  0  0  0  0  0  0  0  0  0  0  0
   59.2969   24.9619   47.4534 H   0  0  0  0  0  0  0  0  0  0  0  0
  1  2  1  0
  2  3  1  0
  3  4  2  0
  4  5  1  0
  4  6  1  0
  6  7  1  0
  7  8  2  3
  8  9  1  0
  9 10  2  0
  9 11  1  0
 11 12  1  0
 12 13  2  0
 13 14  1  0
 14 15  2  0
 14 16  1  0
 16 17  1  0
 17 18  1  0
  7 19  1  0
 19  2  2  0
 17 11  2  0
  1 20  1  0
  1 21  1  0
  1 22  1  0
  3 23  1  0
  5 24  1  0
  5 25  1  0
  5 26  1  0
 12 27  1  0
 13 28  1  0
M  CHG  3   6  -1  16  -1  18  -1
M  END
>  <UniqueID>  (54) 
54

>  <SMILES>  (54) 
Cc1cc(C)[n-]c(=NC(=O)c2ccc(=O)[n-]c2[O-])n1

>  <Energy>  (54) 
32.80047742842482

>  <Genealogy>  (54) 
Cc1cc(C)[n-]c(=NC(=O)c2ccc(=O)[n-]c2[O-])n1 (protonated)
Cc1cc(C)[n-]c(=NC(=O)c2ccc(=O)[n-]c2[O-])n1 (3D coordinates assigned)
Cc1cc(C)[n-]c(=NC(=O)c2ccc(=O)[n-]c2[O-])n1 (optimized conformer: 32.80047742842482 kcal/mol)

>  <smiles>  (54) 
Cc1cc(C)[nH]c(=NC(=O)c2ccc(=O)[nH]c2O)n1

>  <score_type>  (54) 
oracle

>  <origin>  (54) 
adg

>  <m_score__min__energy>  (54) 
-14.6

>  <m_primary>  (54) 
energy

$$$$
54:0
     RDKit          3D

 57 60  0  0  0  0  0  0  0  0999 V2000
   61.2780   29.7300   48.5470 O   0  0  0  0  0  0  0  0  0  0  0  0
   60.6280   29.9430   47.5000 C   0  0  0  0  0  0  0  0  0  0  0  0
   59.4930   29.1280   47.1930 C   0  0  0  0  0  0  0  0  0  0  0  0
   58.1410   29.5960   46.9720 C   0  0  0  0  0  0  0  0  0  0  0  0
   57.9530   30.5570   45.4720 S   0  0  0  0  0  0  0  0  0  0  0  0
   56.6480   30.4680   44.8480 O   0  0  0  0  0  0  0  0  0  0  0  0
   59.0980   30.1020   44.5050 O   0  0  0  0  0  0  0  0  0  0  0  0
   58.3920   32.1680   45.9050 C   0  0  0  0  0  0  0  0  0  0  0  0
   58.1510   32.6310   47.2210 C   0  0  0  0  0  0  0  0  0  0  0  0
   58.4470   33.8570   47.5120 C   0  0  0  0  0  0  0  0  0  0  0  0
   58.9070   34.8480   46.7500 C   0  0  0  0  0  0  0  0  0  0  0  0
   59.1030   34.4270   45.3690 C   0  0  0  0  0  0  0  0  0  0  0  0
   58.8680   33.1330   45.0600 C   0  0  0  0  0  0  0  0  0  0  0  0
   61.0540   31.0040   46.5870 N   0  0  0  0  0  0  0  0  0  0  0  0
   61.9250   31.8900   47.2160 C   0  0  0  0  0  0  0  0  0  0  0  0
   63.1940   32.2160   47.2110 C   0  0  0  0  0  0  0  0  0  0  0  0
   63.9120   33.0630   48.0650 C   0  0  0  0  0  0  0  0  0  0  0  0
   63.0790   33.6410   49.0880 C   0  0  0  0  0  0  0  0  0  0  0  0
   61.8220   33.3220   49.1000 C   0  0  0  0  0  0  0  0  0  0  0  0
   61.1290   33.5900   50.4520 C   0  0  0  0  0  0  0  0  0  0  0  0
   60.1200   32.6480   50.7180 C   0  0  0  0  0  0  0  0  0  0  0  0
   58.7370   32.9890   50.3950 N   0  0  0  0  0  0  0  0  0  0  0  0
   57.8160   32.1750   50.6970 N   0  0  0  0  0  0  0  0  0  0  0  0
   57.8580   30.9280   51.3680 C   0  0  0  0  0  0  0  0  0  0  0  0
   56.9270   30.2590   51.6120 O   0  0  0  0  0  0  0  0  0  0  0  0
   59.2400   30.7080   51.6700 C   0  0  0  0  0  0  0  0  0  0  0  0
   60.1890   31.4720   51.3310 C   0  0  0  0  0  0  0  0  0  0  0  0
   61.6370   30.8920   51.3680 C   0  0  0  0  0  0  0  0  0  0  0  0
   61.7190   29.4210   51.3600 C   0  0  0  0  0  0  0  0  0  0  0  0
   60.5430   28.6410   51.8000 C   0  0  0  0  0  0  0  0  0  0  0  0
   59.5000   29.4650   52.4760 C   0  0  0  0  0  0  0  0  0  0  0  0
   61.1580   32.5790   48.2960 C   0  0  0  0  0  0  0  0  0  0  0  0
   59.7654   28.5903   46.2729 H   0  0  0  0  0  0  0  0  0  0  0  0
   59.3592   28.6230   48.1610 H   0  0  0  0  0  0  0  0  0  0  0  0
   57.4757   28.7221   46.9112 H   0  0  0  0  0  0  0  0  0  0  0  0
   57.8861   30.2570   47.8135 H   0  0  0  0  0  0  0  0  0  0  0  0
   57.7208   31.9622   47.9810 H   0  0  0  0  0  0  0  0  0  0  0  0
   58.2925   34.1261   48.5673 H   0  0  0  0  0  0  0  0  0  0  0  0
   59.1142   35.8632   47.1193 H   0  0  0  0  0  0  0  0  0  0  0  0
   59.4326   35.1417   44.6006 H   0  0  0  0  0  0  0  0  0  0  0  0
   59.0806   32.8245   44.0258 H   0  0  0  0  0  0  0  0  0  0  0  0
   60.8170   30.9660   45.6140 H   0  0  0  0  0  0  0  0  0  0  0  0
   63.7889   31.7518   46.4106 H   0  0  0  0  0  0  0  0  0  0  0  0
   64.9890   33.2638   47.9657 H   0  0  0  0  0  0  0  0  0  0  0  0
   63.4960   34.3315   49.8359 H   0  0  0  0  0  0  0  0  0  0  0  0
   61.8811   33.5418   51.2532 H   0  0  0  0  0  0  0  0  0  0  0  0
   60.6633   34.5855   50.4058 H   0  0  0  0  0  0  0  0  0  0  0  0
   56.8590   32.3420   50.1930 H   0  0  0  0  0  0  0  0  0  0  0  0
   62.1781   31.2687   50.4875 H   0  0  0  0  0  0  0  0  0  0  0  0
   62.0748   31.2191   52.3226 H   0  0  0  0  0  0  0  0  0  0  0  0
   61.9422   29.1150   50.3273 H   0  0  0  0  0  0  0  0  0  0  0  0
   62.4873   29.1928   52.1134 H   0  0  0  0  0  0  0  0  0  0  0  0
   60.0917   28.1642   50.9174 H   0  0  0  0  0  0  0  0  0  0  0  0
   60.9003   27.9053   52.5356 H   0  0  0  0  0  0  0  0  0  0  0  0
   58.5708   28.8823   52.5607 H   0  0  0  0  0  0  0  0  0  0  0  0
   59.8502   29.7466   53.4800 H   0  0  0  0  0  0  0  0  0  0  0  0
   60.0698   32.4537   48.3965 H   0  0  0  0  0  0  0  0  0  0  0  0
  1  2  2  0
  2  3  1  0
  3  4  1  0
  4  5  1  0
  5  6  2  0
  5  7  2  0
  5  8  1  0
  8  9  2  0
  9 10  1  0
 10 11  2  0
 11 12  1  0
 12 13  2  0
  2 14  1  0
 14 15  1  0
 15 16  2  0
 16 17  1  0
 17 18  2  0
 18 19  1  0
 19 20  1  0
 20 21  1  0
 21 22  2  0
 22 23  1  0
 23 24  1  0
 24 25  2  0
 24 26  1  0
 26 27  2  0
 27 28  1  0
 28 29  1  0
 29 30  1  0
 30 31  1  0
 19 32  2  0
 13  8  1  0
 32 15  1  0
 27 21  1  0
 31 26  1  0
  3 33  1  0
  3 34  1  0
  4 35  1  0
  4 36  1  0
  9 37  1  0
 10 38  1  0
 11 39  1  0
 12 40  1  0
 13 41  1  0
 14 42  1  0
 16 43  1  0
 17 44  1  0
 18 45  1  0
 20 46  1  0
 20 47  1  0
 23 48  1  0
 28 49  1  0
 28 50  1  0
 29 51  1  0
 29 52  1  0
 30 53  1  0
 30 54  1  0
 31 55  1  0
 31 56  1  0
 32 57  1  0
M  END
>  <smiles>  (55) 
O=C(CCS(=O)(=O)c1ccccc1)Nc1cccc(Cc2n[nH]c(=O)c3c2CCCC3)c1

>  <score_type>  (55) 
oracle

>  <origin>  (55) 
adg

>  <m_score__min__energy>  (55) 
-10.68

>  <m_primary>  (55) 
energy

$$$$
55:0
     RDKit          3D

 52 55  0  0  0  0  0  0  0  0999 V2000
   55.4590   30.8500   44.5030 O   0  0  0  0  0  0  0  0  0  0  0  0
   56.7100   30.9960   44.5310 C   0  0  0  0  0  0  0  0  0  0  0  0
   57.2850   32.3070   44.6020 N   0  0  0  0  0  0  0  0  0  0  0  0
   58.0870   32.8800   45.6460 C   0  0  0  0  0  0  0  0  0  0  0  0
   58.2400   34.2680   45.8160 C   0  0  0  0  0  0  0  0  0  0  0  0
   58.9590   34.7650   46.9090 C   0  0  0  0  0  0  0  0  0  0  0  0
   59.4780   33.8910   47.8680 C   0  0  0  0  0  0  0  0  0  0  0  0
   60.1230   34.3900   48.9510 F   0  0  0  0  0  0  0  0  0  0  0  0
   59.2830   32.5100   47.7390 C   0  0  0  0  0  0  0  0  0  0  0  0
   59.7040   31.6380   48.8010 N   0  0  0  0  0  0  0  0  0  0  0  0
   60.4710   30.4310   48.6510 C   0  0  0  0  0  0  0  0  0  0  0  0
   61.7230   30.4910   48.7820 O   0  0  0  0  0  0  0  0  0  0  0  0
   59.8360   29.1250   48.3620 C   0  0  0  0  0  0  0  0  0  0  0  0
   58.5360   29.0580   47.8390 C   0  0  0  0  0  0  0  0  0  0  0  0
   58.0110   27.8420   47.3970 C   0  0  0  0  0  0  0  0  0  0  0  0
   58.7520   26.6550   47.5300 C   0  0  0  0  0  0  0  0  0  0  0  0
   58.2540   25.3560   46.9420 C   0  0  0  0  0  0  0  0  0  0  0  0
   56.7990   25.2430   47.0510 N   0  0  0  0  0  0  0  0  0  0  0  0
   55.8820   25.0860   45.9600 C   0  0  0  0  0  0  0  0  0  0  0  0
   54.8700   25.8340   45.9100 O   0  0  0  0  0  0  0  0  0  0  0  0
   56.0870   24.0990   44.8860 C   0  0  0  0  0  0  0  0  0  0  0  0
   56.6090   24.3610   43.6310 C   0  0  0  0  0  0  0  0  0  0  0  0
   56.6780   23.1490   42.9820 C   0  0  0  0  0  0  0  0  0  0  0  0
   56.2030   22.2190   43.8780 C   0  0  0  0  0  0  0  0  0  0  0  0
   56.1070   20.8570   43.6190 O   0  0  0  0  0  0  0  0  0  0  0  0
   55.8510   22.7810   45.0490 N   0  0  0  0  0  0  0  0  0  0  0  0
   60.0280   26.7130   48.1140 C   0  0  0  0  0  0  0  0  0  0  0  0
   60.5630   27.9360   48.5330 C   0  0  0  0  0  0  0  0  0  0  0  0
   58.6420   32.0120   46.5910 C   0  0  0  0  0  0  0  0  0  0  0  0
   57.5960   29.8120   44.4450 C   0  0  0  0  0  0  0  0  0  0  0  0
   57.0570   28.5290   44.2260 C   0  0  0  0  0  0  0  0  0  0  0  0
   57.8960   27.4130   44.1420 C   0  0  0  0  0  0  0  0  0  0  0  0
   59.2780   27.5660   44.2690 C   0  0  0  0  0  0  0  0  0  0  0  0
   59.8240   28.8310   44.4810 C   0  0  0  0  0  0  0  0  0  0  0  0
   58.9920   29.9510   44.5700 C   0  0  0  0  0  0  0  0  0  0  0  0
   57.7942   34.9632   45.0894 H   0  0  0  0  0  0  0  0  0  0  0  0
   59.1163   35.8486   47.0137 H   0  0  0  0  0  0  0  0  0  0  0  0
   57.9253   29.9708   47.7766 H   0  0  0  0  0  0  0  0  0  0  0  0
   57.0102   27.8127   46.9414 H   0  0  0  0  0  0  0  0  0  0  0  0
   58.5377   25.3119   45.8801 H   0  0  0  0  0  0  0  0  0  0  0  0
   58.7084   24.5258   47.5026 H   0  0  0  0  0  0  0  0  0  0  0  0
   56.9087   25.3414   43.2322 H   0  0  0  0  0  0  0  0  0  0  0  0
   57.0381   22.9627   41.9594 H   0  0  0  0  0  0  0  0  0  0  0  0
   56.9290   20.2670   43.6480 H   0  0  0  0  0  0  0  0  0  0  0  0
   60.6114   25.7894   48.2430 H   0  0  0  0  0  0  0  0  0  0  0  0
   61.5589   27.9662   48.9991 H   0  0  0  0  0  0  0  0  0  0  0  0
   58.5763   30.9252   46.4343 H   0  0  0  0  0  0  0  0  0  0  0  0
   55.9692   28.4040   44.1204 H   0  0  0  0  0  0  0  0  0  0  0  0
   57.4667   26.4140   43.9757 H   0  0  0  0  0  0  0  0  0  0  0  0
   59.9366   26.6875   44.2017 H   0  0  0  0  0  0  0  0  0  0  0  0
   60.9134   28.9484   44.5786 H   0  0  0  0  0  0  0  0  0  0  0  0
   59.4299   30.9459   44.7385 H   0  0  0  0  0  0  0  0  0  0  0  0
  1  2  2  0
  2  3  1  0
  3  4  1  0
  4  5  2  0
  5  6  1  0
  6  7  2  0
  7  8  1  0
  7  9  1  0
  9 10  1  0
 10 11  1  0
 11 12  2  0
 11 13  1  0
 13 14  2  0
 14 15  1  0
 15 16  2  0
 16 17  1  0
 17 18  1  0
 18 19  1  0
 19 20  2  0
 19 21  1  0
 21 22  2  0
 22 23  1  0
 23 24  2  0
 24 25  1  0
 24 26  1  0
 16 27  1  0
 27 28  2  0
  9 29  2  0
  2 30  1  0
 30 31  2  0
 31 32  1  0
 32 33  2  0
 33 34  1  0
 34 35  2  0
 29  4  1  0
 35 30  1  0
 28 13  1  0
 26 21  1  0
  5 36  1  0
  6 37  1  0
 14 38  1  0
 15 39  1  0
 17 40  1  0
 17 41  1  0
 22 42  1  0
 23 43  1  0
 25 44  1  0
 27 45  1  0
 28 46  1  0
 29 47  1  0
 31 48  1  0
 32 49  1  0
 33 50  1  0
 34 51  1  0
 35 52  1  0
M  CHG  4   3  -1  10  -1  18  -1  26  -1
M  END
>  <UniqueID>  (56) 
55

>  <SMILES>  (56) 
O=C([N-]c1ccc(F)c([N-]C(=O)c2ccc(C[N-]C(=O)c3ccc(O)[n-]3)cc2)c1)c1ccccc1

>  <Energy>  (56) 
95.355077166776

>  <Genealogy>  (56) 
O=C([N-]c1ccc(F)c([N-]C(=O)c2ccc(C[N-]C(=O)c3ccc(O)[n-]3)cc2)c1)c1ccccc1 (protonated)
O=C([N-]c1ccc(F)c([N-]C(=O)c2ccc(C[N-]C(=O)c3ccc(O)[n-]3)cc2)c1)c1ccccc1 (3D coordinates assigned)
O=C([N-]c1ccc(F)c([N-]C(=O)c2ccc(C[N-]C(=O)c3ccc(O)[n-]3)cc2)c1)c1ccccc1 (optimized conformer: 95.355077166776 kcal/mol)

>  <smiles>  (56) 
O=C(Nc1ccc(F)c(NC(=O)c2ccc(CNC(=O)c3ccc(O)[nH]3)cc2)c1)c1ccccc1

>  <score_type>  (56) 
oracle

>  <origin>  (56) 
adg

>  <m_score__min__energy>  (56) 
-15.69

>  <m_primary>  (56) 
energy

$$$$
56:0
     RDKit          3D

 40 42  0  0  0  0  0  0  0  0999 V2000
   58.8340   26.0470   46.4330 O   0  0  0  0  0  0  0  0  0  0  0  0
   58.8910   27.2950   46.5970 C   0  0  0  0  0  0  0  0  0  0  0  0
   57.9760   28.1550   45.8150 C   0  0  0  0  0  0  0  0  0  0  0  0
   56.6290   27.8070   45.6230 C   0  0  0  0  0  0  0  0  0  0  0  0
   56.0700   26.6650   46.1990 O   0  0  0  0  0  0  0  0  0  0  0  0
   55.8370   28.6060   44.8710 N   0  0  0  0  0  0  0  0  0  0  0  0
   56.3000   29.7470   44.3020 C   0  0  0  0  0  0  0  0  0  0  0  0
   55.5100   30.4430   43.6080 O   0  0  0  0  0  0  0  0  0  0  0  0
   57.6040   30.1340   44.4850 N   0  0  0  0  0  0  0  0  0  0  0  0
   58.1100   31.3580   43.8320 C   0  0  0  0  0  0  0  0  0  0  0  0
   58.3390   32.4430   44.8520 C   0  0  0  0  0  0  0  0  0  0  0  0
   58.9380   33.6580   44.4750 C   0  0  0  0  0  0  0  0  0  0  0  0
   59.1170   34.6780   45.4150 C   0  0  0  0  0  0  0  0  0  0  0  0
   58.6980   34.4950   46.7350 C   0  0  0  0  0  0  0  0  0  0  0  0
   58.0990   33.2920   47.1190 C   0  0  0  0  0  0  0  0  0  0  0  0
   57.9180   32.2700   46.1820 C   0  0  0  0  0  0  0  0  0  0  0  0
   58.4430   29.3480   45.2370 C   0  0  0  0  0  0  0  0  0  0  0  0
   59.6490   29.6840   45.4060 O   0  0  0  0  0  0  0  0  0  0  0  0
   59.8070   27.8590   47.5600 N   0  0  0  0  0  0  0  0  0  0  0  0
   60.9480   27.0710   48.0450 C   0  0  0  0  0  0  0  0  0  0  0  0
   60.7550   26.7180   49.5180 C   0  0  0  0  0  0  0  0  0  0  0  0
   60.3910   28.1600   50.6010 S   0  0  0  0  0  0  0  0  0  0  0  0
   60.4250   29.4900   49.3470 C   0  0  0  0  0  0  0  0  0  0  0  0
   59.5030   29.1640   48.1690 C   0  0  0  0  0  0  0  0  0  0  0  0
   56.6270   25.8960   46.5470 H   0  0  0  0  0  0  0  0  0  0  0  0
   59.0594   31.1317   43.3246 H   0  0  0  0  0  0  0  0  0  0  0  0
   57.3643   31.7067   43.1024 H   0  0  0  0  0  0  0  0  0  0  0  0
   59.2673   33.8069   43.4361 H   0  0  0  0  0  0  0  0  0  0  0  0
   59.5883   35.6254   45.1146 H   0  0  0  0  0  0  0  0  0  0  0  0
   58.8396   35.2984   47.4729 H   0  0  0  0  0  0  0  0  0  0  0  0
   57.7698   33.1491   48.1588 H   0  0  0  0  0  0  0  0  0  0  0  0
   57.4437   31.3256   46.4872 H   0  0  0  0  0  0  0  0  0  0  0  0
   61.0268   26.1450   47.4565 H   0  0  0  0  0  0  0  0  0  0  0  0
   61.8676   27.6645   47.9350 H   0  0  0  0  0  0  0  0  0  0  0  0
   59.9176   26.0090   49.5954 H   0  0  0  0  0  0  0  0  0  0  0  0
   61.7079   26.2941   49.8677 H   0  0  0  0  0  0  0  0  0  0  0  0
   60.0940   30.4303   49.8122 H   0  0  0  0  0  0  0  0  0  0  0  0
   61.4534   29.5855   48.9684 H   0  0  0  0  0  0  0  0  0  0  0  0
   58.4631   29.1524   48.5276 H   0  0  0  0  0  0  0  0  0  0  0  0
   59.6570   29.9357   47.4004 H   0  0  0  0  0  0  0  0  0  0  0  0
  1  2  2  0
  2  3  1  0
  3  4  2  0
  4  5  1  0
  4  6  1  0
  6  7  1  0
  7  8  2  0
  7  9  1  0
  9 10  1  0
 10 11  1  0
 11 12  2  0
 12 13  1  0
 13 14  2  0
 14 15  1  0
 15 16  2  0
  9 17  1  0
 17 18  2  0
  2 19  1  0
 19 20  1  0
 20 21  1  0
 21 22  1  0
 22 23  1  0
 23 24  1  0
 17  3  1  0
 24 19  1  0
 16 11  1  0
  5 25  1  0
 10 26  1  0
 10 27  1  0
 12 28  1  0
 13 29  1  0
 14 30  1  0
 15 31  1  0
 16 32  1  0
 20 33  1  0
 20 34  1  0
 21 35  1  0
 21 36  1  0
 23 37  1  0
 23 38  1  0
 24 39  1  0
 24 40  1  0
M  CHG  1   6  -1
M  END
>  <UniqueID>  (57) 
56

>  <SMILES>  (57) 
O=C(c1c(O)[n-]c(=O)n(Cc2ccccc2)c1=O)N1CCSCC1

>  <Energy>  (57) 
54.16924274511572

>  <Genealogy>  (57) 
O=C(c1c(O)[n-]c(=O)n(Cc2ccccc2)c1=O)N1CCSCC1 (protonated)
O=C(c1c(O)[n-]c(=O)n(Cc2ccccc2)c1=O)N1CCSCC1 (3D coordinates assigned)
O=C(c1c(O)[n-]c(=O)n(Cc2ccccc2)c1=O)N1CCSCC1 (nonaromatic ring conformer: 54.16924274511572 kcal/mol)

>  <smiles>  (57) 
O=C(c1c(O)[nH]c(=O)n(Cc2ccccc2)c1=O)N1CCSCC1

>  <score_type>  (57) 
oracle

>  <origin>  (57) 
adg

>  <m_score__min__energy>  (57) 
-10.02

>  <m_primary>  (57) 
energy

$$$$
57:0
     RDKit          3D

 50 53  0  0  0  0  0  0  0  0999 V2000
   62.6650   34.4400   49.0490 O   0  0  0  0  0  0  0  0  0  0  0  0
   63.2720   33.7900   48.1560 C   0  0  0  0  0  0  0  0  0  0  0  0
   62.6970   33.7140   46.7750 C   0  0  0  0  0  0  0  0  0  0  0  0
   61.4410   32.9640   46.8000 N   0  0  0  0  0  0  0  0  0  0  0  0
   61.2690   31.7140   47.2940 C   0  0  0  0  0  0  0  0  0  0  0  0
   59.9350   31.3460   47.2020 C   0  0  0  0  0  0  0  0  0  0  0  0
   59.2230   29.7750   47.6950 S   0  0  0  0  0  0  0  0  0  0  0  0
   59.3290   29.0270   46.0300 C   0  0  0  0  0  0  0  0  0  0  0  0
   58.2030   29.5010   45.1520 C   0  0  0  0  0  0  0  0  0  0  0  0
   58.4470   30.4460   44.1420 C   0  0  0  0  0  0  0  0  0  0  0  0
   57.4150   30.8460   43.2880 C   0  0  0  0  0  0  0  0  0  0  0  0
   56.1340   30.3060   43.4360 C   0  0  0  0  0  0  0  0  0  0  0  0
   55.8830   29.3680   44.4390 C   0  0  0  0  0  0  0  0  0  0  0  0
   56.9110   28.9660   45.2970 C   0  0  0  0  0  0  0  0  0  0  0  0
   59.2760   32.4230   46.6480 C   0  0  0  0  0  0  0  0  0  0  0  0
   57.9290   32.6130   46.3360 C   0  0  0  0  0  0  0  0  0  0  0  0
   57.5570   33.8400   45.7590 C   0  0  0  0  0  0  0  0  0  0  0  0
   58.5250   34.8380   45.5150 C   0  0  0  0  0  0  0  0  0  0  0  0
   59.8750   34.6200   45.8430 C   0  0  0  0  0  0  0  0  0  0  0  0
   60.2200   33.3900   46.4110 C   0  0  0  0  0  0  0  0  0  0  0  0
   64.4990   33.1110   48.4590 N   0  0  0  0  0  0  0  0  0  0  0  0
   64.9710   32.9470   49.8370 C   0  0  0  0  0  0  0  0  0  0  0  0
   66.4820   32.7710   49.9060 C   0  0  0  0  0  0  0  0  0  0  0  0
   66.7270   32.0070   51.1960 C   0  0  0  0  0  0  0  0  0  0  0  0
   65.4640   31.1900   51.4570 C   0  0  0  0  0  0  0  0  0  0  0  0
   64.4030   31.6850   50.4770 C   0  0  0  0  0  0  0  0  0  0  0  0
   62.5071   34.7314   46.4023 H   0  0  0  0  0  0  0  0  0  0  0  0
   63.4112   33.2030   46.1126 H   0  0  0  0  0  0  0  0  0  0  0  0
   62.0700   31.0836   47.7074 H   0  0  0  0  0  0  0  0  0  0  0  0
   60.2872   29.3092   45.5694 H   0  0  0  0  0  0  0  0  0  0  0  0
   59.2569   27.9341   46.1321 H   0  0  0  0  0  0  0  0  0  0  0  0
   59.4537   30.8729   44.0225 H   0  0  0  0  0  0  0  0  0  0  0  0
   57.6111   31.5865   42.4986 H   0  0  0  0  0  0  0  0  0  0  0  0
   55.3236   30.6203   42.7619 H   0  0  0  0  0  0  0  0  0  0  0  0
   54.8744   28.9444   44.5545 H   0  0  0  0  0  0  0  0  0  0  0  0
   56.7083   28.2289   46.0879 H   0  0  0  0  0  0  0  0  0  0  0  0
   57.1834   31.8291   46.5348 H   0  0  0  0  0  0  0  0  0  0  0  0
   56.5048   34.0234   45.4960 H   0  0  0  0  0  0  0  0  0  0  0  0
   58.2208   35.7943   45.0645 H   0  0  0  0  0  0  0  0  0  0  0  0
   60.6356   35.3929   45.6585 H   0  0  0  0  0  0  0  0  0  0  0  0
   65.0530   32.7130   47.6670 H   0  0  0  0  0  0  0  0  0  0  0  0
   64.6444   33.8590   50.3581 H   0  0  0  0  0  0  0  0  0  0  0  0
   66.8448   32.1965   49.0409 H   0  0  0  0  0  0  0  0  0  0  0  0
   67.0128   33.7343   49.8876 H   0  0  0  0  0  0  0  0  0  0  0  0
   67.5953   31.3409   51.0850 H   0  0  0  0  0  0  0  0  0  0  0  0
   66.9405   32.6906   52.0310 H   0  0  0  0  0  0  0  0  0  0  0  0
   65.6639   30.1213   51.2897 H   0  0  0  0  0  0  0  0  0  0  0  0
   65.1256   31.3109   52.4967 H   0  0  0  0  0  0  0  0  0  0  0  0
   64.2081   30.9223   49.7087 H   0  0  0  0  0  0  0  0  0  0  0  0
   63.4498   31.8883   50.9870 H   0  0  0  0  0  0  0  0  0  0  0  0
  1  2  2  0
  2  3  1  0
  3  4  1  0
  4  5  1  0
  5  6  2  0
  6  7  1  0
  7  8  1  0
  8  9  1  0
  9 10  2  0
 10 11  1  0
 11 12  2  0
 12 13  1  0
 13 14  2  0
  6 15  1  0
 15 16  2  0
 16 17  1  0
 17 18  2  0
 18 19  1  0
 19 20  2  0
  2 21  1  0
 21 22  1  0
 22 23  1  0
 23 24  1  0
 24 25  1  0
 25 26  1  0
 20  4  1  0
 26 22  1  0
 14  9  1  0
 20 15  1  0
  3 27  1  0
  3 28  1  0
  5 29  1  0
  8 30  1  0
  8 31  1  0
 10 32  1  0
 11 33  1  0
 12 34  1  0
 13 35  1  0
 14 36  1  0
 16 37  1  0
 17 38  1  0
 18 39  1  0
 19 40  1  0
 21 41  1  0
 22 42  1  0
 23 43  1  0
 23 44  1  0
 24 45  1  0
 24 46  1  0
 25 47  1  0
 25 48  1  0
 26 49  1  0
 26 50  1  0
M  END
>  <UniqueID>  (58) 
57

>  <SMILES>  (58) 
O=C(Cn1cc(SCc2ccccc2)c2ccccc21)NC1CCCC1

>  <Energy>  (58) 
75.7225048522932

>  <Genealogy>  (58) 
O=C(Cn1cc(SCc2ccccc2)c2ccccc21)NC1CCCC1 (3D coordinates assigned)
O=C(Cn1cc(SCc2ccccc2)c2ccccc21)NC1CCCC1 (nonaromatic ring conformer: 75.7225048522932 kcal/mol)

>  <smiles>  (58) 
O=C(Cn1cc(SCc2ccccc2)c2ccccc21)NC1CCCC1

>  <score_type>  (58) 
oracle

>  <origin>  (58) 
adg

>  <m_score__min__energy>  (58) 
-8.6500000000000004

>  <m_primary>  (58) 
energy

$$$$
58:0
     RDKit          3D

 52 55  0  0  0  0  0  0  0  0999 V2000
   56.6080   23.3390   43.4910 C   0  0  0  0  0  0  0  0  0  0  0  0
   57.6380   23.8530   44.4920 C   0  0  0  0  0  0  0  0  0  0  0  0
   57.1630   23.6490   45.9010 C   0  0  0  0  0  0  0  0  0  0  0  0
   57.6940   22.7330   46.7330 N   0  0  0  0  0  0  0  0  0  0  0  0
   57.0210   22.7640   47.8730 N   0  0  0  0  0  0  0  0  0  0  0  0
   56.0460   23.6880   47.7770 C   0  0  0  0  0  0  0  0  0  0  0  0
   56.0920   24.2670   46.5250 C   0  0  0  0  0  0  0  0  0  0  0  0
   55.2330   25.3490   45.9970 C   0  0  0  0  0  0  0  0  0  0  0  0
   54.0860   25.0630   45.5650 O   0  0  0  0  0  0  0  0  0  0  0  0
   55.6450   26.7210   45.9800 N   0  0  0  0  0  0  0  0  0  0  0  0
   56.9980   27.2010   46.2350 C   0  0  0  0  0  0  0  0  0  0  0  0
   57.1920   28.5210   45.5480 C   0  0  0  0  0  0  0  0  0  0  0  0
   58.4310   29.1770   45.6120 C   0  0  0  0  0  0  0  0  0  0  0  0
   58.6220   30.3910   44.9450 C   0  0  0  0  0  0  0  0  0  0  0  0
   57.5810   30.9580   44.1950 C   0  0  0  0  0  0  0  0  0  0  0  0
   57.7700   32.2780   43.4960 C   0  0  0  0  0  0  0  0  0  0  0  0
   57.4380   33.3780   44.3940 N   0  0  0  0  0  0  0  0  0  0  0  0
   58.4170   34.1470   45.1000 C   0  0  0  0  0  0  0  0  0  0  0  0
   59.0120   35.0980   44.5250 O   0  0  0  0  0  0  0  0  0  0  0  0
   58.7170   33.8390   46.4670 N   0  0  0  0  0  0  0  0  0  0  0  0
   59.7000   34.5700   47.2690 C   0  0  0  0  0  0  0  0  0  0  0  0
   59.6420   33.8740   48.5780 C   0  0  0  0  0  0  0  0  0  0  0  0
   60.3780   34.1530   49.7310 C   0  0  0  0  0  0  0  0  0  0  0  0
   60.1670   33.3590   50.8690 C   0  0  0  0  0  0  0  0  0  0  0  0
   59.2350   32.3040   50.8360 C   0  0  0  0  0  0  0  0  0  0  0  0
   58.5030   32.0420   49.6650 C   0  0  0  0  0  0  0  0  0  0  0  0
   58.7260   32.8460   48.5460 C   0  0  0  0  0  0  0  0  0  0  0  0
   58.0820   32.7530   47.2140 C   0  0  0  0  0  0  0  0  0  0  0  0
   56.3460   30.2970   44.1210 C   0  0  0  0  0  0  0  0  0  0  0  0
   56.1540   29.0830   44.7870 C   0  0  0  0  0  0  0  0  0  0  0  0
   55.7515   22.9116   44.0330 H   0  0  0  0  0  0  0  0  0  0  0  0
   56.2638   24.1710   42.8591 H   0  0  0  0  0  0  0  0  0  0  0  0
   57.0659   22.5638   42.8591 H   0  0  0  0  0  0  0  0  0  0  0  0
   58.5830   23.3087   44.3481 H   0  0  0  0  0  0  0  0  0  0  0  0
   57.7856   24.9299   44.3231 H   0  0  0  0  0  0  0  0  0  0  0  0
   55.3272   23.9410   48.5703 H   0  0  0  0  0  0  0  0  0  0  0  0
   57.1463   27.3247   47.3179 H   0  0  0  0  0  0  0  0  0  0  0  0
   57.7268   26.4732   45.8488 H   0  0  0  0  0  0  0  0  0  0  0  0
   59.2557   28.7341   46.1896 H   0  0  0  0  0  0  0  0  0  0  0  0
   59.5931   30.9038   45.0087 H   0  0  0  0  0  0  0  0  0  0  0  0
   58.8186   32.3732   43.1777 H   0  0  0  0  0  0  0  0  0  0  0  0
   57.1054   32.3177   42.6204 H   0  0  0  0  0  0  0  0  0  0  0  0
   60.7044   34.4978   46.8264 H   0  0  0  0  0  0  0  0  0  0  0  0
   59.4888   35.6472   47.3397 H   0  0  0  0  0  0  0  0  0  0  0  0
   61.1069   34.9766   49.7473 H   0  0  0  0  0  0  0  0  0  0  0  0
   60.7322   33.5618   51.7907 H   0  0  0  0  0  0  0  0  0  0  0  0
   59.0792   31.6825   51.7301 H   0  0  0  0  0  0  0  0  0  0  0  0
   57.7708   31.2218   49.6312 H   0  0  0  0  0  0  0  0  0  0  0  0
   58.2835   31.7790   46.7442 H   0  0  0  0  0  0  0  0  0  0  0  0
   56.9860   32.8369   47.2548 H   0  0  0  0  0  0  0  0  0  0  0  0
   55.5245   30.7361   43.5360 H   0  0  0  0  0  0  0  0  0  0  0  0
   55.1859   28.5658   44.7147 H   0  0  0  0  0  0  0  0  0  0  0  0
  1  2  1  0
  2  3  1  0
  3  4  1  0
  4  5  1  0
  5  6  2  0
  6  7  1  0
  7  8  1  0
  8  9  2  0
  8 10  1  0
 10 11  1  0
 11 12  1  0
 12 13  2  0
 13 14  1  0
 14 15  2  0
 15 16  1  0
 16 17  1  0
 17 18  1  0
 18 19  2  0
 18 20  1  0
 20 21  1  0
 21 22  1  0
 22 23  2  0
 23 24  1  0
 24 25  2  0
 25 26  1  0
 26 27  2  0
 27 28  1  0
 15 29  1  0
 29 30  2  0
  7  3  2  0
 30 12  1  0
 28 20  1  0
 27 22  1  0
  1 31  1  0
  1 32  1  0
  1 33  1  0
  2 34  1  0
  2 35  1  0
  6 36  1  0
 11 37  1  0
 11 38  1  0
 13 39  1  0
 14 40  1  0
 16 41  1  0
 16 42  1  0
 21 43  1  0
 21 44  1  0
 23 45  1  0
 24 46  1  0
 25 47  1  0
 26 48  1  0
 28 49  1  0
 28 50  1  0
 29 51  1  0
 30 52  1  0
M  CHG  3   4  -1  10  -1  17  -1
M  END
>  <UniqueID>  (59) 
58

>  <SMILES>  (59) 
CCc1[n-]ncc1C(=O)[N-]Cc1ccc(C[N-]C(=O)N2Cc3ccccc3C2)cc1

>  <Energy>  (59) 
90.24970874547226

>  <Genealogy>  (59) 
CCc1[n-]ncc1C(=O)[N-]Cc1ccc(C[N-]C(=O)N2Cc3ccccc3C2)cc1 (protonated)
CCc1[n-]ncc1C(=O)[N-]Cc1ccc(C[N-]C(=O)N2Cc3ccccc3C2)cc1 (3D coordinates assigned)
CCc1[n-]ncc1C(=O)[N-]Cc1ccc(C[N-]C(=O)N2Cc3ccccc3C2)cc1 (nonaromatic ring conformer: 90.24970874547226 kcal/mol)

>  <smiles>  (59) 
CCc1[nH]ncc1C(=O)NCc1ccc(CNC(=O)N2Cc3ccccc3C2)cc1

>  <score_type>  (59) 
oracle

>  <origin>  (59) 
adg

>  <m_score__min__energy>  (59) 
-14.58

>  <m_primary>  (59) 
energy

$$$$
59:0
     RDKit          3D

 60 63  0  0  0  0  0  0  0  0999 V2000
   54.4960   30.7340   51.9720 C   0  0  0  0  0  0  0  0  0  0  0  0
   55.8290   30.7020   52.0170 C   0  0  0  0  0  0  0  0  0  0  0  0
   56.6550   31.9640   52.0110 C   0  0  0  0  0  0  0  0  0  0  0  0
   58.1090   31.7010   51.9430 N   0  0  0  0  0  0  0  0  0  0  0  0
   58.4650   30.2610   51.9600 C   0  0  0  0  0  0  0  0  0  0  0  0
   58.7680   29.7000   50.5600 C   0  0  0  0  0  0  0  0  0  0  0  0
   59.7080   30.5580   49.8330 N   0  0  0  0  0  0  0  0  0  0  0  0
   60.3140   30.1060   48.6140 C   0  0  0  0  0  0  0  0  0  0  0  0
   61.5150   30.4050   48.3640 O   0  0  0  0  0  0  0  0  0  0  0  0
   59.5220   29.3460   47.5860 C   0  0  0  0  0  0  0  0  0  0  0  0
   58.8110   30.2800   46.7090 N   0  0  0  0  0  0  0  0  0  0  0  0
   58.7510   31.6250   46.8590 C   0  0  0  0  0  0  0  0  0  0  0  0
   58.0570   32.2020   45.8020 C   0  0  0  0  0  0  0  0  0  0  0  0
   57.8340   33.6480   45.6130 C   0  0  0  0  0  0  0  0  0  0  0  0
   56.7050   34.0490   45.2310 O   0  0  0  0  0  0  0  0  0  0  0  0
   58.8980   34.6390   45.8290 C   0  0  0  0  0  0  0  0  0  0  0  0
   59.2630   35.3760   44.8740 O   0  0  0  0  0  0  0  0  0  0  0  0
   59.4820   34.8360   47.1210 N   0  0  0  0  0  0  0  0  0  0  0  0
   60.7260   34.2810   47.5710 C   0  0  0  0  0  0  0  0  0  0  0  0
   61.1230   34.4860   48.8980 C   0  0  0  0  0  0  0  0  0  0  0  0
   62.3450   33.9780   49.3600 C   0  0  0  0  0  0  0  0  0  0  0  0
   63.1960   33.2800   48.4890 C   0  0  0  0  0  0  0  0  0  0  0  0
   64.4920   32.7090   48.9880 C   0  0  0  0  0  0  0  0  0  0  0  0
   62.8000   33.0740   47.1580 C   0  0  0  0  0  0  0  0  0  0  0  0
   61.5810   33.5830   46.6970 C   0  0  0  0  0  0  0  0  0  0  0  0
   57.7080   31.1540   44.9660 C   0  0  0  0  0  0  0  0  0  0  0  0
   57.0890   31.1320   43.7150 C   0  0  0  0  0  0  0  0  0  0  0  0
   56.9130   29.8870   43.0870 C   0  0  0  0  0  0  0  0  0  0  0  0
   57.3630   28.7020   43.7030 C   0  0  0  0  0  0  0  0  0  0  0  0
   58.0040   28.7510   44.9510 C   0  0  0  0  0  0  0  0  0  0  0  0
   58.1720   30.0000   45.5550 C   0  0  0  0  0  0  0  0  0  0  0  0
   60.0710   31.8620   50.3910 C   0  0  0  0  0  0  0  0  0  0  0  0
   58.8100   32.5370   50.9390 C   0  0  0  0  0  0  0  0  0  0  0  0
   53.9228   29.7952   51.9778 H   0  0  0  0  0  0  0  0  0  0  0  0
   53.9701   31.6992   51.9291 H   0  0  0  0  0  0  0  0  0  0  0  0
   56.3396   29.7286   52.0596 H   0  0  0  0  0  0  0  0  0  0  0  0
   56.3665   32.5679   51.1381 H   0  0  0  0  0  0  0  0  0  0  0  0
   56.4591   32.4908   52.9566 H   0  0  0  0  0  0  0  0  0  0  0  0
   59.3558   30.1276   52.5914 H   0  0  0  0  0  0  0  0  0  0  0  0
   57.5967   29.7121   52.3535 H   0  0  0  0  0  0  0  0  0  0  0  0
   59.2059   28.6963   50.6635 H   0  0  0  0  0  0  0  0  0  0  0  0
   57.8268   29.6580   49.9923 H   0  0  0  0  0  0  0  0  0  0  0  0
   60.2048   28.7288   46.9836 H   0  0  0  0  0  0  0  0  0  0  0  0
   58.7903   28.7031   48.0972 H   0  0  0  0  0  0  0  0  0  0  0  0
   59.1900   32.1824   47.6996 H   0  0  0  0  0  0  0  0  0  0  0  0
   60.4717   35.0494   49.5824 H   0  0  0  0  0  0  0  0  0  0  0  0
   62.6383   34.1270   50.4097 H   0  0  0  0  0  0  0  0  0  0  0  0
   64.4931   32.7085   50.0880 H   0  0  0  0  0  0  0  0  0  0  0  0
   64.6040   31.6782   48.6208 H   0  0  0  0  0  0  0  0  0  0  0  0
   65.3283   33.3220   48.6208 H   0  0  0  0  0  0  0  0  0  0  0  0
   63.4512   32.5097   46.4743 H   0  0  0  0  0  0  0  0  0  0  0  0
   61.2892   33.4371   45.6465 H   0  0  0  0  0  0  0  0  0  0  0  0
   56.7491   32.0615   43.2349 H   0  0  0  0  0  0  0  0  0  0  0  0
   56.4193   29.8370   42.1053 H   0  0  0  0  0  0  0  0  0  0  0  0
   57.2112   27.7338   43.2034 H   0  0  0  0  0  0  0  0  0  0  0  0
   58.3635   27.8332   45.4392 H   0  0  0  0  0  0  0  0  0  0  0  0
   60.7995   31.7257   51.2038 H   0  0  0  0  0  0  0  0  0  0  0  0
   60.5189   32.4906   49.6072 H   0  0  0  0  0  0  0  0  0  0  0  0
   59.0959   33.4889   51.4103 H   0  0  0  0  0  0  0  0  0  0  0  0
   58.1216   32.6940   50.0955 H   0  0  0  0  0  0  0  0  0  0  0  0
  1  2  2  0
  2  3  1  0
  3  4  1  0
  4  5  1  0
  5  6  1  0
  6  7  1  0
  7  8  1  0
  8  9  2  0
  8 10  1  0
 10 11  1  0
 11 12  1  0
 12 13  2  0
 13 14  1  0
 14 15  2  0
 14 16  1  0
 16 17  2  0
 16 18  1  0
 18 19  1  0
 19 20  2  0
 20 21  1  0
 21 22  2  0
 22 23  1  0
 22 24  1  0
 24 25  2  0
 13 26  1  0
 26 27  2  0
 27 28  1  0
 28 29  2  0
 29 30  1  0
 30 31  2  0
  7 32  1  0
 32 33  1  0
 33  4  1  0
 31 11  1  0
 25 19  1  0
 31 26  1  0
  1 34  1  0
  1 35  1  0
  2 36  1  0
  3 37  1  0
  3 38  1  0
  5 39  1  0
  5 40  1  0
  6 41  1  0
  6 42  1  0
 10 43  1  0
 10 44  1  0
 12 45  1  0
 20 46  1  0
 21 47  1  0
 23 48  1  0
 23 49  1  0
 23 50  1  0
 24 51  1  0
 25 52  1  0
 27 53  1  0
 28 54  1  0
 29 55  1  0
 30 56  1  0
 32 57  1  0
 32 58  1  0
 33 59  1  0
 33 60  1  0
M  CHG  1  18  -1
M  END
>  <UniqueID>  (60) 
59

>  <SMILES>  (60) 
C=CCN1CCN(C(=O)Cn2cc(C(=O)C(=O)[N-]c3ccc(C)cc3)c3ccccc32)CC1

>  <Energy>  (60) 
108.44475423401249

>  <Genealogy>  (60) 
C=CCN1CCN(C(=O)Cn2cc(C(=O)C(=O)[N-]c3ccc(C)cc3)c3ccccc32)CC1 (protonated)
C=CCN1CCN(C(=O)Cn2cc(C(=O)C(=O)[N-]c3ccc(C)cc3)c3ccccc32)CC1 (3D coordinates assigned)
C=CCN1CCN(C(=O)Cn2cc(C(=O)C(=O)[N-]c3ccc(C)cc3)c3ccccc32)CC1 (nonaromatic ring conformer: 108.44475423401249 kcal/mol)

>  <smiles>  (60) 
C=CCN1CCN(C(=O)Cn2cc(C(=O)C(=O)Nc3ccc(C)cc3)c3ccccc32)CC1

>  <score_type>  (60) 
oracle

>  <origin>  (60) 
adg

>  <m_score__min__energy>  (60) 
-11.119999999999999

>  <m_primary>  (60) 
energy

$$$$
60:0
     RDKit          3D

 65 68  0  0  0  0  0  0  0  0999 V2000
   61.2380   31.2650   52.8840 C   0  0  0  0  0  0  0  0  0  0  0  0
   60.3150   32.2690   52.4710 O   0  0  0  0  0  0  0  0  0  0  0  0
   59.8990   32.4720   51.1450 C   0  0  0  0  0  0  0  0  0  0  0  0
   60.7670   32.9880   50.1660 C   0  0  0  0  0  0  0  0  0  0  0  0
   60.3280   33.1730   48.8540 C   0  0  0  0  0  0  0  0  0  0  0  0
   59.0120   32.8500   48.4910 C   0  0  0  0  0  0  0  0  0  0  0  0
   58.5510   33.0460   47.0940 C   0  0  0  0  0  0  0  0  0  0  0  0
   58.8960   34.2100   46.3850 C   0  0  0  0  0  0  0  0  0  0  0  0
   58.4670   34.3880   45.0680 C   0  0  0  0  0  0  0  0  0  0  0  0
   57.6890   33.4110   44.4430 C   0  0  0  0  0  0  0  0  0  0  0  0
   57.3160   32.2510   45.1440 C   0  0  0  0  0  0  0  0  0  0  0  0
   56.5610   31.2080   44.5160 N   0  0  0  0  0  0  0  0  0  0  0  0
   56.5930   29.8220   44.8680 C   0  0  0  0  0  0  0  0  0  0  0  0
   55.5270   29.1510   44.7920 O   0  0  0  0  0  0  0  0  0  0  0  0
   57.8190   29.1900   45.2750 N   0  0  0  0  0  0  0  0  0  0  0  0
   57.8770   27.8400   45.7530 C   0  0  0  0  0  0  0  0  0  0  0  0
   57.4490   26.8040   44.9100 C   0  0  0  0  0  0  0  0  0  0  0  0
   57.4850   25.4770   45.3450 C   0  0  0  0  0  0  0  0  0  0  0  0
   57.9430   25.1760   46.6290 C   0  0  0  0  0  0  0  0  0  0  0  0
   58.3470   26.2000   47.4880 C   0  0  0  0  0  0  0  0  0  0  0  0
   58.2850   27.5430   47.0720 C   0  0  0  0  0  0  0  0  0  0  0  0
   58.6600   28.6110   47.9570 N   0  0  0  0  0  0  0  0  0  0  0  0
   59.8510   29.4050   47.8890 C   0  0  0  0  0  0  0  0  0  0  0  0
   60.8150   29.4900   49.0340 C   0  0  0  0  0  0  0  0  0  0  0  0
   60.0700   30.0840   46.8530 O   0  0  0  0  0  0  0  0  0  0  0  0
   57.7650   32.0670   46.4580 C   0  0  0  0  0  0  0  0  0  0  0  0
   58.1400   32.3400   49.4660 C   0  0  0  0  0  0  0  0  0  0  0  0
   58.5750   32.1490   50.7890 C   0  0  0  0  0  0  0  0  0  0  0  0
   57.6200   31.6000   51.8210 C   0  0  0  0  0  0  0  0  0  0  0  0
   57.3190   30.1790   51.5430 N   0  0  0  0  0  0  0  0  0  0  0  0
   58.5670   29.4210   51.3530 C   0  0  0  0  0  0  0  0  0  0  0  0
   56.5290   29.5810   52.6390 C   0  0  0  0  0  0  0  0  0  0  0  0
   55.0620   29.7800   52.3930 C   0  0  0  0  0  0  0  0  0  0  0  0
   54.0800   28.8940   52.8610 C   0  0  0  0  0  0  0  0  0  0  0  0
   52.7910   29.2400   52.4750 C   0  0  0  0  0  0  0  0  0  0  0  0
   52.8830   30.6410   51.5490 S   0  0  0  0  0  0  0  0  0  0  0  0
   54.5520   30.8270   51.6300 C   0  0  0  0  0  0  0  0  0  0  0  0
   61.2721   31.2279   53.9828 H   0  0  0  0  0  0  0  0  0  0  0  0
   60.9160   30.2882   52.4940 H   0  0  0  0  0  0  0  0  0  0  0  0
   62.2384   31.5039   52.4940 H   0  0  0  0  0  0  0  0  0  0  0  0
   61.8010   33.2481   50.4367 H   0  0  0  0  0  0  0  0  0  0  0  0
   61.0193   33.5752   48.0988 H   0  0  0  0  0  0  0  0  0  0  0  0
   59.5074   34.9850   46.8704 H   0  0  0  0  0  0  0  0  0  0  0  0
   58.7430   35.3014   44.5207 H   0  0  0  0  0  0  0  0  0  0  0  0
   57.3675   33.5494   43.4002 H   0  0  0  0  0  0  0  0  0  0  0  0
   58.6870   29.7670   45.3480 H   0  0  0  0  0  0  0  0  0  0  0  0
   57.0825   27.0380   43.8996 H   0  0  0  0  0  0  0  0  0  0  0  0
   57.1526   24.6695   44.6761 H   0  0  0  0  0  0  0  0  0  0  0  0
   57.9857   24.1294   46.9649 H   0  0  0  0  0  0  0  0  0  0  0  0
   58.7157   25.9557   48.4952 H   0  0  0  0  0  0  0  0  0  0  0  0
   60.2618   29.4412   49.9835 H   0  0  0  0  0  0  0  0  0  0  0  0
   61.5242   28.6509   48.9793 H   0  0  0  0  0  0  0  0  0  0  0  0
   61.3664   30.4402   48.9793 H   0  0  0  0  0  0  0  0  0  0  0  0
   57.5002   31.1466   46.9991 H   0  0  0  0  0  0  0  0  0  0  0  0
   57.1052   32.0871   49.1917 H   0  0  0  0  0  0  0  0  0  0  0  0
   58.0763   31.6851   52.8183 H   0  0  0  0  0  0  0  0  0  0  0  0
   56.6839   32.1764   51.7823 H   0  0  0  0  0  0  0  0  0  0  0  0
   58.9921   29.1628   52.3341 H   0  0  0  0  0  0  0  0  0  0  0  0
   58.3543   28.4993   50.7915 H   0  0  0  0  0  0  0  0  0  0  0  0
   59.2868   30.0346   50.7915 H   0  0  0  0  0  0  0  0  0  0  0  0
   56.7445   28.5038   52.6956 H   0  0  0  0  0  0  0  0  0  0  0  0
   56.8025   30.0706   53.5853 H   0  0  0  0  0  0  0  0  0  0  0  0
   54.3087   28.0102   53.4747 H   0  0  0  0  0  0  0  0  0  0  0  0
   51.8712   28.6933   52.7303 H   0  0  0  0  0  0  0  0  0  0  0  0
   55.1372   31.6329   51.1630 H   0  0  0  0  0  0  0  0  0  0  0  0
  1  2  1  0
  2  3  1  0
  3  4  2  0
  4  5  1  0
  5  6  2  0
  6  7  1  0
  7  8  2  0
  8  9  1  0
  9 10  2  0
 10 11  1  0
 11 12  1  0
 12 13  1  0
 13 14  2  0
 13 15  1  0
 15 16  1  0
 16 17  2  0
 17 18  1  0
 18 19  2  0
 19 20  1  0
 20 21  2  0
 21 22  1  0
 22 23  1  0
 23 24  1  0
 23 25  2  0
 11 26  2  0
  6 27  1  0
 27 28  2  0
 28 29  1  0
 29 30  1  0
 30 31  1  0
 30 32  1  0
 32 33  1  0
 33 34  1  0
 34 35  2  0
 35 36  1  0
 36 37  1  0
 28  3  1  0
 37 33  2  0
 26  7  1  0
 21 16  1  0
  1 38  1  0
  1 39  1  0
  1 40  1  0
  4 41  1  0
  5 42  1  0
  8 43  1  0
  9 44  1  0
 10 45  1  0
 15 46  1  0
 17 47  1  0
 18 48  1  0
 19 49  1  0
 20 50  1  0
 24 51  1  0
 24 52  1  0
 24 53  1  0
 26 54  1  0
 27 55  1  0
 29 56  1  0
 29 57  1  0
 31 58  1  0
 31 59  1  0
 31 60  1  0
 32 61  1  0
 32 62  1  0
 34 63  1  0
 35 64  1  0
 37 65  1  0
M  CHG  2  12  -1  22  -1
M  END
>  <UniqueID>  (61) 
60

>  <SMILES>  (61) 
COc1ccc(-c2cccc([N-]C(=O)Nc3ccccc3[N-]C(C)=O)c2)cc1CN(C)Cc1ccsc1

>  <Energy>  (61) 
111.61130677186583

>  <Genealogy>  (61) 
COc1ccc(-c2cccc([N-]C(=O)Nc3ccccc3[N-]C(C)=O)c2)cc1CN(C)Cc1ccsc1 (protonated)
COc1ccc(-c2cccc([N-]C(=O)Nc3ccccc3[N-]C(C)=O)c2)cc1CN(C)Cc1ccsc1 (3D coordinates assigned)
COc1ccc(-c2cccc([N-]C(=O)Nc3ccccc3[N-]C(C)=O)c2)cc1CN(C)Cc1ccsc1 (optimized conformer: 111.61130677186583 kcal/mol)

>  <smiles>  (61) 
COc1ccc(-c2cccc(NC(=O)Nc3ccccc3NC(C)=O)c2)cc1CN(C)Cc1ccsc1

>  <score_type>  (61) 
oracle

>  <origin>  (61) 
adg

>  <m_score__min__energy>  (61) 
-12.710000000000001

>  <m_primary>  (61) 
energy

$$$$
61:0
     RDKit          3D

 46 49  0  0  1  0  0  0  0  0999 V2000
   62.3180   31.2780   49.6490 O   0  0  0  0  0  0  0  0  0  0  0  0
   61.8370   30.8660   48.5680 C   0  0  0  0  0  0  0  0  0  0  0  0
   61.0200   29.6800   48.6650 N   0  0  0  0  0  0  0  0  0  0  0  0
   60.0380   29.5150   47.8470 C   0  0  0  0  0  0  0  0  0  0  0  0
   59.8890   28.2990   47.2280 C   0  0  0  0  0  0  0  0  0  0  0  0
   58.8150   28.1750   46.3570 C   0  0  0  0  0  0  0  0  0  0  0  0
   58.3950   27.1380   45.6070 N   0  0  0  0  0  0  0  0  0  0  0  0
   57.3170   27.5220   44.9450 N   0  0  0  0  0  0  0  0  0  0  0  0
   57.0280   28.7910   45.2490 C   0  0  0  0  0  0  0  0  0  0  0  0
   56.0470   29.4620   44.7800 N   0  0  0  0  0  0  0  0  0  0  0  0
   56.1500   30.7350   44.1010 C   0  0  0  0  0  0  0  0  0  0  0  0
   56.6170   30.5510   42.6450 C   0  0  0  0  0  0  0  0  0  0  0  0
   57.4190   31.2910   43.6170 C   0  0  0  0  0  0  0  0  0  0  0  0
   57.9550   29.2480   46.1460 C   0  0  0  0  0  0  0  0  0  0  0  0
   58.1470   30.4440   46.7890 C   0  0  0  0  0  0  0  0  0  0  0  0
   59.1940   30.5370   47.6270 N   0  0  0  0  0  0  0  0  0  0  0  0
   62.0540   31.4890   47.3100 N   0  0  0  0  0  0  0  0  0  0  0  0
   62.8670   32.6810   47.1380 C   0  0  0  0  0  0  0  0  0  0  0  0
   62.0710   33.8640   47.5730 C   0  0  0  0  0  0  0  0  0  0  0  0
   60.6620   33.8760   47.1630 C   0  0  0  0  0  0  0  0  0  0  0  0
   60.3800   34.2370   45.8540 C   0  0  0  0  0  0  0  0  0  0  0  0
   59.0990   34.2770   45.3830 C   0  0  0  0  0  0  0  0  0  0  0  0
   58.0260   33.9610   46.1830 C   0  0  0  0  0  0  0  0  0  0  0  0
   58.2790   33.6000   47.4810 C   0  0  0  0  0  0  0  0  0  0  0  0
   59.5940   33.5610   47.9600 C   0  0  0  0  0  0  0  0  0  0  0  0
   59.8100   33.1920   49.2780 O   0  0  0  0  0  0  0  0  0  0  0  0
   60.5840   27.4665   47.4123 H   0  0  0  0  0  0  0  0  0  0  0  0
   58.8020   26.1760   45.5190 H   0  0  0  0  0  0  0  0  0  0  0  0
   56.7610   26.9330   44.2760 H   0  0  0  0  0  0  0  0  0  0  0  0
   55.3435   31.1915   44.6936 H   0  0  0  0  0  0  0  0  0  0  0  0
   56.9483   29.5641   42.2898 H   0  0  0  0  0  0  0  0  0  0  0  0
   56.1949   30.7605   41.6510 H   0  0  0  0  0  0  0  0  0  0  0  0
   58.3674   30.8623   43.9731 H   0  0  0  0  0  0  0  0  0  0  0  0
   57.8556   32.3006   43.6262 H   0  0  0  0  0  0  0  0  0  0  0  0
   57.4698   31.2952   46.6252 H   0  0  0  0  0  0  0  0  0  0  0  0
   59.3740   31.4310   48.1340 H   0  0  0  0  0  0  0  0  0  0  0  0
   61.5720   31.0120   46.4880 H   0  0  0  0  0  0  0  0  0  0  0  0
   63.7772   32.6008   47.7505 H   0  0  0  0  0  0  0  0  0  0  0  0
   63.1574   32.7898   46.0826 H   0  0  0  0  0  0  0  0  0  0  0  0
   62.1024   33.9054   48.6718 H   0  0  0  0  0  0  0  0  0  0  0  0
   62.5321   34.7309   47.0771 H   0  0  0  0  0  0  0  0  0  0  0  0
   61.2084   34.4974   45.1788 H   0  0  0  0  0  0  0  0  0  0  0  0
   58.9209   34.5693   44.3376 H   0  0  0  0  0  0  0  0  0  0  0  0
   56.9978   33.9968   45.7938 H   0  0  0  0  0  0  0  0  0  0  0  0
   57.4450   33.3397   48.1493 H   0  0  0  0  0  0  0  0  0  0  0  0
   60.6110   32.6210   49.5110 H   0  0  0  0  0  0  0  0  0  0  0  0
  1  2  2  0
  2  3  1  0
  3  4  2  0
  4  5  1  0
  5  6  2  0
  6  7  1  0
  7  8  1  0
  8  9  1  0
  9 10  2  0
 10 11  1  0
 11 12  1  0
 12 13  1  0
  9 14  1  0
 14 15  2  0
 15 16  1  0
  2 17  1  0
 17 18  1  0
 18 19  1  0
 19 20  1  0
 20 21  2  0
 21 22  1  0
 22 23  2  0
 23 24  1  0
 24 25  2  0
 25 26  1  0
 16  4  1  0
 25 20  1  0
 14  6  1  0
 13 11  1  0
  5 27  1  0
  7 28  1  0
  8 29  1  0
 11 30  1  0
 12 31  1  0
 12 32  1  0
 13 33  1  0
 13 34  1  0
 15 35  1  0
 16 36  1  0
 17 37  1  0
 18 38  1  0
 18 39  1  0
 19 40  1  0
 19 41  1  0
 21 42  1  0
 22 43  1  0
 23 44  1  0
 24 45  1  0
 26 46  1  0
M  END
>  <smiles>  (62) 
O=C(N=c1cc2[nH][nH]c(=NC3CC3)c2c[nH]1)NCCc1ccccc1O

>  <score_type>  (62) 
oracle

>  <origin>  (62) 
adg

>  <m_score__min__energy>  (62) 
-10.26

>  <m_primary>  (62) 
energy

$$$$
62:0
     RDKit          3D

 40 41  0  0  0  0  0  0  0  0999 V2000
   56.8440   30.3370   42.9900 C   0  0  0  0  0  0  0  0  0  0  0  0
   56.8140   30.5700   44.4720 C   0  0  0  0  0  0  0  0  0  0  0  0
   56.2390   29.7190   45.2000 O   0  0  0  0  0  0  0  0  0  0  0  0
   57.4760   31.7560   45.0860 C   0  0  0  0  0  0  0  0  0  0  0  0
   57.3860   33.0140   44.4560 C   0  0  0  0  0  0  0  0  0  0  0  0
   58.0050   34.1360   45.0090 C   0  0  0  0  0  0  0  0  0  0  0  0
   58.7190   34.0230   46.1980 C   0  0  0  0  0  0  0  0  0  0  0  0
   58.8170   32.7900   46.8410 C   0  0  0  0  0  0  0  0  0  0  0  0
   58.1980   31.6440   46.2990 C   0  0  0  0  0  0  0  0  0  0  0  0
   58.2670   30.3950   46.9440 O   0  0  0  0  0  0  0  0  0  0  0  0
   59.4510   29.6180   47.1260 C   0  0  0  0  0  0  0  0  0  0  0  0
   59.1260   28.1650   47.3110 C   0  0  0  0  0  0  0  0  0  0  0  0
   60.0180   27.3670   47.7070 O   0  0  0  0  0  0  0  0  0  0  0  0
   57.8200   27.6800   46.9750 N   0  0  0  0  0  0  0  0  0  0  0  0
   57.4400   26.2760   47.1100 C   0  0  0  0  0  0  0  0  0  0  0  0
   56.3880   25.9050   46.0980 C   0  0  0  0  0  0  0  0  0  0  0  0
   55.3710   26.6490   45.9970 O   0  0  0  0  0  0  0  0  0  0  0  0
   56.5000   24.6980   45.2340 C   0  0  0  0  0  0  0  0  0  0  0  0
   57.7420   24.0670   45.0080 C   0  0  0  0  0  0  0  0  0  0  0  0
   57.8210   22.9320   44.1950 C   0  0  0  0  0  0  0  0  0  0  0  0
   56.6690   22.4110   43.5960 C   0  0  0  0  0  0  0  0  0  0  0  0
   55.4330   23.0260   43.8080 C   0  0  0  0  0  0  0  0  0  0  0  0
   55.3480   24.1640   44.6190 C   0  0  0  0  0  0  0  0  0  0  0  0
   56.9821   29.2641   42.7902 H   0  0  0  0  0  0  0  0  0  0  0  0
   55.8951   30.6733   42.5467 H   0  0  0  0  0  0  0  0  0  0  0  0
   57.6767   30.9027   42.5467 H   0  0  0  0  0  0  0  0  0  0  0  0
   56.8211   33.1124   43.5173 H   0  0  0  0  0  0  0  0  0  0  0  0
   57.9284   35.1105   44.5045 H   0  0  0  0  0  0  0  0  0  0  0  0
   59.2071   34.9084   46.6314 H   0  0  0  0  0  0  0  0  0  0  0  0
   59.3829   32.7098   47.7808 H   0  0  0  0  0  0  0  0  0  0  0  0
   60.0938   29.7316   46.2406 H   0  0  0  0  0  0  0  0  0  0  0  0
   59.9663   29.9764   48.0293 H   0  0  0  0  0  0  0  0  0  0  0  0
   57.0980   28.3640   46.6570 H   0  0  0  0  0  0  0  0  0  0  0  0
   58.3280   25.6458   46.9541 H   0  0  0  0  0  0  0  0  0  0  0  0
   57.0294   26.1181   48.1182 H   0  0  0  0  0  0  0  0  0  0  0  0
   58.6531   24.4703   45.4741 H   0  0  0  0  0  0  0  0  0  0  0  0
   58.7934   22.4465   44.0256 H   0  0  0  0  0  0  0  0  0  0  0  0
   56.7366   21.5173   42.9583 H   0  0  0  0  0  0  0  0  0  0  0  0
   54.5268   22.6164   43.3379 H   0  0  0  0  0  0  0  0  0  0  0  0
   54.3726   24.6469   44.7784 H   0  0  0  0  0  0  0  0  0  0  0  0
  1  2  1  0
  2  3  2  0
  2  4  1  0
  4  5  2  0
  5  6  1  0
  6  7  2  0
  7  8  1  0
  8  9  2  0
  9 10  1  0
 10 11  1  0
 11 12  1  0
 12 13  2  0
 12 14  1  0
 14 15  1  0
 15 16  1  0
 16 17  2  0
 16 18  1  0
 18 19  2  0
 19 20  1  0
 20 21  2  0
 21 22  1  0
 22 23  2  0
  9  4  1  0
 23 18  1  0
  1 24  1  0
  1 25  1  0
  1 26  1  0
  5 27  1  0
  6 28  1  0
  7 29  1  0
  8 30  1  0
 11 31  1  0
 11 32  1  0
 14 33  1  0
 15 34  1  0
 15 35  1  0
 19 36  1  0
 20 37  1  0
 21 38  1  0
 22 39  1  0
 23 40  1  0
M  END
>  <UniqueID>  (63) 
61

>  <SMILES>  (63) 
CC(=O)c1ccccc1OCC(=O)NCC(=O)c1ccccc1

>  <Energy>  (63) 
41.25851557461052

>  <Genealogy>  (63) 
CC(=O)c1ccccc1OCC(=O)NCC(=O)c1ccccc1 (3D coordinates assigned)
CC(=O)c1ccccc1OCC(=O)NCC(=O)c1ccccc1 (optimized conformer: 41.25851557461052 kcal/mol)

>  <smiles>  (63) 
CC(=O)c1ccccc1OCC(=O)NCC(=O)c1ccccc1

>  <score_type>  (63) 
oracle

>  <origin>  (63) 
adg

>  <m_score__min__energy>  (63) 
-7.9400000000000004

>  <m_primary>  (63) 
energy

$$$$
63:0
     RDKit          3D

 33 34  0  0  0  0  0  0  0  0999 V2000
   54.8830   26.4060   46.1630 N   0  0  0  0  0  0  0  0  0  0  0  0
   56.3000   26.3040   46.2650 C   0  0  0  0  0  0  0  0  0  0  0  0
   56.8190   25.2840   46.7930 O   0  0  0  0  0  0  0  0  0  0  0  0
   57.1700   27.3920   45.7180 C   0  0  0  0  0  0  0  0  0  0  0  0
   56.3790   28.4850   45.2540 O   0  0  0  0  0  0  0  0  0  0  0  0
   56.8820   29.6650   44.6820 C   0  0  0  0  0  0  0  0  0  0  0  0
   56.6160   30.0450   43.3550 C   0  0  0  0  0  0  0  0  0  0  0  0
   57.1340   31.1980   42.8580 N   0  0  0  0  0  0  0  0  0  0  0  0
   57.9190   32.0150   43.6090 C   0  0  0  0  0  0  0  0  0  0  0  0
   58.2150   31.6870   44.9420 C   0  0  0  0  0  0  0  0  0  0  0  0
   59.0690   32.5740   45.7740 C   0  0  0  0  0  0  0  0  0  0  0  0
   58.7500   33.9360   45.9230 C   0  0  0  0  0  0  0  0  0  0  0  0
   59.5580   34.7710   46.7000 C   0  0  0  0  0  0  0  0  0  0  0  0
   60.6890   34.2580   47.3380 C   0  0  0  0  0  0  0  0  0  0  0  0
   61.0150   32.9020   47.2060 C   0  0  0  0  0  0  0  0  0  0  0  0
   62.4460   32.2500   48.0000 S   0  0  0  0  0  0  0  0  0  0  0  0
   63.7710   32.2600   46.8910 N   0  0  0  0  0  0  0  0  0  0  0  0
   62.7930   33.0860   49.2010 O   0  0  0  0  0  0  0  0  0  0  0  0
   62.1750   30.8430   48.4550 O   0  0  0  0  0  0  0  0  0  0  0  0
   60.2100   32.0660   46.4210 C   0  0  0  0  0  0  0  0  0  0  0  0
   57.6830   30.4990   45.4680 C   0  0  0  0  0  0  0  0  0  0  0  0
   54.3520   27.0920   46.7450 H   0  0  0  0  0  0  0  0  0  0  0  0
   57.8461   27.7462   46.5100 H   0  0  0  0  0  0  0  0  0  0  0  0
   57.7490   26.9907   44.8731 H   0  0  0  0  0  0  0  0  0  0  0  0
   55.9866   29.4068   42.7174 H   0  0  0  0  0  0  0  0  0  0  0  0
   58.3247   32.9384   43.1701 H   0  0  0  0  0  0  0  0  0  0  0  0
   57.8592   34.3464   45.4250 H   0  0  0  0  0  0  0  0  0  0  0  0
   59.3021   35.8352   46.8091 H   0  0  0  0  0  0  0  0  0  0  0  0
   61.3248   34.9193   47.9450 H   0  0  0  0  0  0  0  0  0  0  0  0
   64.5350   32.8190   47.3330 H   0  0  0  0  0  0  0  0  0  0  0  0
   64.1190   31.2760   46.8230 H   0  0  0  0  0  0  0  0  0  0  0  0
   60.4725   31.0036   46.3098 H   0  0  0  0  0  0  0  0  0  0  0  0
   57.8988   30.2212   46.5102 H   0  0  0  0  0  0  0  0  0  0  0  0
  1  2  1  0
  2  3  2  0
  2  4  1  0
  4  5  1  0
  5  6  1  0
  6  7  2  0
  7  8  1  0
  8  9  2  0
  9 10  1  0
 10 11  1  0
 11 12  2  0
 12 13  1  0
 13 14  2  0
 14 15  1  0
 15 16  1  0
 16 17  1  0
 16 18  2  0
 16 19  2  0
 15 20  2  0
 10 21  2  0
 21  6  1  0
 20 11  1  0
  1 22  1  0
  4 23  1  0
  4 24  1  0
  7 25  1  0
  9 26  1  0
 12 27  1  0
 13 28  1  0
 14 29  1  0
 17 30  1  0
 17 31  1  0
 20 32  1  0
 21 33  1  0
M  CHG  1   1  -1
M  END
>  <UniqueID>  (64) 
62

>  <SMILES>  (64) 
[NH-]C(=O)COc1cncc(-c2cccc(S(N)(=O)=O)c2)c1

>  <Energy>  (64) 
36.82702341448585

>  <Genealogy>  (64) 
[NH-]C(=O)COc1cncc(-c2cccc(S(N)(=O)=O)c2)c1 (protonated)
[NH-]C(=O)COc1cncc(-c2cccc(S(N)(=O)=O)c2)c1 (3D coordinates assigned)
[NH-]C(=O)COc1cncc(-c2cccc(S(N)(=O)=O)c2)c1 (optimized conformer: 36.82702341448585 kcal/mol)

>  <smiles>  (64) 
NC(=O)COc1cncc(-c2cccc(S(N)(=O)=O)c2)c1

>  <score_type>  (64) 
oracle

>  <origin>  (64) 
adg

>  <m_score__min__energy>  (64) 
-11.44

>  <m_primary>  (64) 
energy

$$$$
64:0
     RDKit          3D

 42 44  0  0  0  0  0  0  0  0999 V2000
   60.7439   31.5656   49.7467 H   0  0  0  0  0  0  0  0  0  0  0  0
   59.7480   31.9070   49.4280 C   0  0  0  0  0  0  0  0  0  0  0  0
   59.6690   32.6550   48.1590 C   0  0  0  0  0  0  0  0  0  0  0  0
   60.6810   33.5660   47.8300 C   0  0  0  0  0  0  0  0  0  0  0  0
   61.5054   33.7491   48.5349 H   0  0  0  0  0  0  0  0  0  0  0  0
   60.6450   34.2420   46.6090 C   0  0  0  0  0  0  0  0  0  0  0  0
   61.4342   34.9666   46.3599 H   0  0  0  0  0  0  0  0  0  0  0  0
   59.6100   34.0010   45.7030 C   0  0  0  0  0  0  0  0  0  0  0  0
   59.5859   34.5435   44.7464 H   0  0  0  0  0  0  0  0  0  0  0  0
   58.5990   33.0720   46.0020 C   0  0  0  0  0  0  0  0  0  0  0  0
   57.5570   32.8390   45.0360 N   0  0  0  0  0  0  0  0  0  0  0  0
   56.8470   33.5870   44.8730 H   0  0  0  0  0  0  0  0  0  0  0  0
   57.3320   31.3540   44.1670 S   0  0  0  0  0  0  0  0  0  0  0  0
   58.4410   30.4080   44.5300 O   0  0  0  0  0  0  0  0  0  0  0  0
   56.0200   30.7260   44.5480 O   0  0  0  0  0  0  0  0  0  0  0  0
   57.3940   31.6480   42.4120 C   0  0  0  0  0  0  0  0  0  0  0  0
   57.6177   32.7088   42.2256 H   0  0  0  0  0  0  0  0  0  0  0  0
   58.1801   31.0231   41.9631 H   0  0  0  0  0  0  0  0  0  0  0  0
   56.4225   31.3938   41.9631 H   0  0  0  0  0  0  0  0  0  0  0  0
   58.6470   32.3880   47.2320 C   0  0  0  0  0  0  0  0  0  0  0  0
   57.8779   31.6382   47.4693 H   0  0  0  0  0  0  0  0  0  0  0  0
   58.7080   31.6040   50.2330 C   0  0  0  0  0  0  0  0  0  0  0  0
   58.1310   32.6230   50.9240 N   0  0  0  0  0  0  0  0  0  0  0  0
   57.0850   32.4430   51.7710 C   0  0  0  0  0  0  0  0  0  0  0  0
   56.6490   33.4360   52.4120 O   0  0  0  0  0  0  0  0  0  0  0  0
   56.5450   31.1460   51.9360 C   0  0  0  0  0  0  0  0  0  0  0  0
   55.5100   30.8400   52.7470 C   0  0  0  0  0  0  0  0  0  0  0  0
   55.7395   30.6787   53.8106 H   0  0  0  0  0  0  0  0  0  0  0  0
   54.0980   30.7020   52.3370 C   0  0  0  0  0  0  0  0  0  0  0  0
   53.4810   29.4440   52.3950 C   0  0  0  0  0  0  0  0  0  0  0  0
   54.0363   28.5779   52.7842 H   0  0  0  0  0  0  0  0  0  0  0  0
   52.1610   29.2880   51.9590 C   0  0  0  0  0  0  0  0  0  0  0  0
   51.6746   28.3034   52.0223 H   0  0  0  0  0  0  0  0  0  0  0  0
   51.4590   30.3810   51.4430 C   0  0  0  0  0  0  0  0  0  0  0  0
   50.4189   30.2576   51.1069 H   0  0  0  0  0  0  0  0  0  0  0  0
   52.0790   31.6320   51.3540 C   0  0  0  0  0  0  0  0  0  0  0  0
   51.3850   32.7150   50.8280 O   0  0  0  0  0  0  0  0  0  0  0  0
   53.3990   31.7910   51.7900 C   0  0  0  0  0  0  0  0  0  0  0  0
   53.8907   32.7712   51.7043 H   0  0  0  0  0  0  0  0  0  0  0  0
   57.1210   30.1260   51.2440 N   0  0  0  0  0  0  0  0  0  0  0  0
   58.1660   30.3070   50.3960 C   0  0  0  0  0  0  0  0  0  0  0  0
   58.5980   29.3160   49.7500 O   0  0  0  0  0  0  0  0  0  0  0  0
  1  2  1  0
  2  3  1  0
  3  4  2  0
  4  5  1  0
  4  6  1  0
  6  7  1  0
  6  8  2  0
  8  9  1  0
  8 10  1  0
 10 11  1  0
 11 12  1  0
 11 13  1  0
 13 14  2  0
 13 15  2  0
 13 16  1  0
 16 17  1  0
 16 18  1  0
 16 19  1  0
 10 20  2  0
 20 21  1  0
  2 22  2  3
 22 23  1  0
 23 24  1  0
 24 25  2  0
 24 26  1  0
 26 27  2  0
 27 28  1  0
 27 29  1  0
 29 30  2  0
 30 31  1  0
 30 32  1  0
 32 33  1  0
 32 34  2  0
 34 35  1  0
 34 36  1  0
 36 37  1  0
 36 38  2  0
 38 39  1  0
 26 40  1  0
 40 41  1  0
 41 42  2  0
 20  3  1  0
 41 22  1  0
 38 29  1  0
M  CHG  3  23  -1  37  -1  40  -1
M  END
>  <UniqueID>  (65) 
63

>  <SMILES>  (65) 
CS(=O)(=O)Nc1cccc(C=c2[n-]c(=O)/c(=C\c3cccc([O-])c3)[n-]c2=O)c1

>  <Energy>  (65) 
69.19951339688313

>  <Genealogy>  (65) 
CS(=O)(=O)Nc1cccc(C=c2[n-]c(=O)c(=Cc3cccc([O-])c3)[n-]c2=O)c1 (protonated)
CS(=O)(=O)Nc1cccc(C=c2[n-]c(=O)/c(=C\c3cccc([O-])c3)[n-]c2=O)c1 (cis-trans isomerization)
CS(=O)(=O)Nc1cccc(C=c2[n-]c(=O)/c(=C\c3cccc([O-])c3)[n-]c2=O)c1 (3D coordinates assigned)
CS(=O)(=O)Nc1cccc(C=c2[n-]c(=O)/c(=C\c3cccc([O-])c3)[n-]c2=O)c1 (optimized conformer: 69.19951339688313 kcal/mol)

>  <smiles>  (65) 
CS(=O)(=O)Nc1cccc(C=c2[nH]c(=O)c(=Cc3cccc(O)c3)[nH]c2=O)c1

>  <score_type>  (65) 
oracle

>  <origin>  (65) 
adg

>  <m_score__min__energy>  (65) 
-14.619999999999999

>  <m_primary>  (65) 
energy

$$$$
65:0
     RDKit          3D

 34 36  0  0  0  0  0  0  0  0999 V2000
   59.3440   35.8060   47.4450 H   0  0  0  0  0  0  0  0  0  0  0  0
   59.8200   35.0190   47.0200 O   0  0  0  0  0  0  0  0  0  0  0  0
   59.1310   34.0770   46.2620 C   0  0  0  0  0  0  0  0  0  0  0  0
   58.6580   34.4270   44.9810 C   0  0  0  0  0  0  0  0  0  0  0  0
   58.8354   35.4406   44.5921 H   0  0  0  0  0  0  0  0  0  0  0  0
   57.9620   33.4920   44.1970 C   0  0  0  0  0  0  0  0  0  0  0  0
   57.5949   33.7625   43.1960 H   0  0  0  0  0  0  0  0  0  0  0  0
   57.7450   32.2120   44.7130 C   0  0  0  0  0  0  0  0  0  0  0  0
   58.2070   31.8730   45.9680 C   0  0  0  0  0  0  0  0  0  0  0  0
   58.9040   32.7810   46.7650 C   0  0  0  0  0  0  0  0  0  0  0  0
   59.2676   32.4920   47.7621 H   0  0  0  0  0  0  0  0  0  0  0  0
   57.8540   30.5010   46.2450 C   0  0  0  0  0  0  0  0  0  0  0  0
   58.1830   29.8560   47.2770 O   0  0  0  0  0  0  0  0  0  0  0  0
   57.1140   29.9890   45.0840 C   0  0  0  0  0  0  0  0  0  0  0  0
   56.6140   28.7580   44.9080 C   0  0  0  0  0  0  0  0  0  0  0  0
   55.7548   28.6413   44.2311 H   0  0  0  0  0  0  0  0  0  0  0  0
   57.1460   27.5500   45.5670 C   0  0  0  0  0  0  0  0  0  0  0  0
   58.5320   27.3510   45.6040 C   0  0  0  0  0  0  0  0  0  0  0  0
   59.2052   28.0997   45.1610 H   0  0  0  0  0  0  0  0  0  0  0  0
   59.0620   26.2060   46.2010 C   0  0  0  0  0  0  0  0  0  0  0  0
   60.1520   26.0630   46.2405 H   0  0  0  0  0  0  0  0  0  0  0  0
   58.2140   25.2420   46.7480 C   0  0  0  0  0  0  0  0  0  0  0  0
   58.6388   24.3469   47.2258 H   0  0  0  0  0  0  0  0  0  0  0  0
   56.8170   25.4100   46.6910 C   0  0  0  0  0  0  0  0  0  0  0  0
   55.9270   24.4590   47.2150 O   0  0  0  0  0  0  0  0  0  0  0  0
   55.0150   23.6940   46.4340 C   0  0  0  0  0  0  0  0  0  0  0  0
   54.3442   23.1314   47.1000 H   0  0  0  0  0  0  0  0  0  0  0  0
   54.4209   24.3679   45.7993 H   0  0  0  0  0  0  0  0  0  0  0  0
   55.5753   22.9917   45.7993 H   0  0  0  0  0  0  0  0  0  0  0  0
   56.2880   26.5620   46.0880 C   0  0  0  0  0  0  0  0  0  0  0  0
   54.9070   26.7130   46.0000 O   0  0  0  0  0  0  0  0  0  0  0  0
   57.0370   31.0740   44.0400 C   0  0  0  0  0  0  0  0  0  0  0  0
   57.5520   30.7749   43.1152 H   0  0  0  0  0  0  0  0  0  0  0  0
   56.0099   31.3152   43.7287 H   0  0  0  0  0  0  0  0  0  0  0  0
  1  2  1  0
  2  3  1  0
  3  4  2  0
  4  5  1  0
  4  6  1  0
  6  7  1  0
  6  8  2  0
  8  9  1  0
  9 10  2  0
 10 11  1  0
  9 12  1  0
 12 13  2  0
 12 14  1  0
 14 15  2  0
 15 16  1  0
 15 17  1  0
 17 18  2  0
 18 19  1  0
 18 20  1  0
 20 21  1  0
 20 22  2  0
 22 23  1  0
 22 24  1  0
 24 25  1  0
 25 26  1  0
 26 27  1  0
 26 28  1  0
 26 29  1  0
 24 30  2  0
 30 31  1  0
 14 32  1  0
 32 33  1  0
 32 34  1  0
 10  3  1  0
 30 17  1  0
 32  8  1  0
M  CHG  1  31  -1
M  END
>  <UniqueID>  (66) 
64

>  <SMILES>  (66) 
COc1cccc(/C=C2/Cc3ccc(O)cc3C2=O)c1[O-]

>  <Energy>  (66) 
62.14443277571164

>  <Genealogy>  (66) 
COc1cccc(C=C2Cc3ccc(O)cc3C2=O)c1[O-] (protonated)
COc1cccc(/C=C2/Cc3ccc(O)cc3C2=O)c1[O-] (cis-trans isomerization)
COc1cccc(/C=C2/Cc3ccc(O)cc3C2=O)c1[O-] (3D coordinates assigned)
COc1cccc(/C=C2/Cc3ccc(O)cc3C2=O)c1[O-] (nonaromatic ring conformer: 62.14443277571164 kcal/mol)

>  <smiles>  (66) 
COc1cccc(C=C2Cc3ccc(O)cc3C2=O)c1O

>  <score_type>  (66) 
oracle

>  <origin>  (66) 
adg

>  <m_score__min__energy>  (66) 
-11.5

>  <m_primary>  (66) 
energy

$$$$
66:0
     RDKit          3D

 45 47  0  0  0  0  0  0  0  0999 V2000
   58.9620   31.9190   49.4740 C   0  0  0  0  0  0  0  0  0  0  0  0
   59.9700   31.5800   48.4730 N   0  0  0  0  0  0  0  0  0  0  0  0
   61.1560   32.1980   48.3120 C   0  0  0  0  0  0  0  0  0  0  0  0
   61.8510   31.6180   47.2690 C   0  0  0  0  0  0  0  0  0  0  0  0
   61.0540   30.6030   46.7780 C   0  0  0  0  0  0  0  0  0  0  0  0
   59.9080   30.5940   47.5510 C   0  0  0  0  0  0  0  0  0  0  0  0
   58.7360   29.6750   47.3440 C   0  0  0  0  0  0  0  0  0  0  0  0
   58.6890   29.1950   45.9540 N   0  0  0  0  0  0  0  0  0  0  0  0
   58.4990   30.1670   44.8670 C   0  0  0  0  0  0  0  0  0  0  0  0
   57.0880   30.6640   44.8670 C   0  0  0  0  0  0  0  0  0  0  0  0
   56.1420   29.8610   44.6470 O   0  0  0  0  0  0  0  0  0  0  0  0
   56.8350   32.0610   45.0570 N   0  0  0  0  0  0  0  0  0  0  0  0
   57.8110   33.0690   45.3590 C   0  0  0  0  0  0  0  0  0  0  0  0
   58.6600   33.5990   44.3690 C   0  0  0  0  0  0  0  0  0  0  0  0
   59.5810   34.6010   44.6940 C   0  0  0  0  0  0  0  0  0  0  0  0
   59.6530   35.0900   46.0000 C   0  0  0  0  0  0  0  0  0  0  0  0
   58.7990   34.5850   46.9830 C   0  0  0  0  0  0  0  0  0  0  0  0
   57.8740   33.5840   46.6640 C   0  0  0  0  0  0  0  0  0  0  0  0
   57.0240   33.0970   47.6500 O   0  0  0  0  0  0  0  0  0  0  0  0
   58.8060   27.7860   45.6370 C   0  0  0  0  0  0  0  0  0  0  0  0
   59.8570   27.1650   45.9610 O   0  0  0  0  0  0  0  0  0  0  0  0
   57.6990   27.0490   44.9220 C   0  0  0  0  0  0  0  0  0  0  0  0
   57.1400   25.9190   45.7370 C   0  0  0  0  0  0  0  0  0  0  0  0
   57.8650   24.8760   46.1790 N   0  0  0  0  0  0  0  0  0  0  0  0
   56.9730   24.1650   46.9040 C   0  0  0  0  0  0  0  0  0  0  0  0
   57.2760   23.0920   47.4880 O   0  0  0  0  0  0  0  0  0  0  0  0
   55.7330   24.6980   46.9600 N   0  0  0  0  0  0  0  0  0  0  0  0
   55.8580   25.8110   46.2200 C   0  0  0  0  0  0  0  0  0  0  0  0
   54.8250   26.7130   45.9970 O   0  0  0  0  0  0  0  0  0  0  0  0
   59.3827   31.7775   50.4805 H   0  0  0  0  0  0  0  0  0  0  0  0
   58.6584   32.9687   49.3477 H   0  0  0  0  0  0  0  0  0  0  0  0
   58.0858   31.2661   49.3477 H   0  0  0  0  0  0  0  0  0  0  0  0
   61.5173   33.0398   48.9210 H   0  0  0  0  0  0  0  0  0  0  0  0
   62.8461   31.9082   46.9009 H   0  0  0  0  0  0  0  0  0  0  0  0
   61.2855   29.9331   45.9368 H   0  0  0  0  0  0  0  0  0  0  0  0
   58.8297   28.8127   48.0205 H   0  0  0  0  0  0  0  0  0  0  0  0
   57.8104   30.2297   47.5575 H   0  0  0  0  0  0  0  0  0  0  0  0
   59.1841   31.0152   45.0127 H   0  0  0  0  0  0  0  0  0  0  0  0
   58.7101   29.6785   43.9043 H   0  0  0  0  0  0  0  0  0  0  0  0
   58.5992   33.2242   43.3366 H   0  0  0  0  0  0  0  0  0  0  0  0
   60.2496   35.0043   43.9192 H   0  0  0  0  0  0  0  0  0  0  0  0
   60.3824   35.8730   46.2546 H   0  0  0  0  0  0  0  0  0  0  0  0
   58.8534   34.9748   48.0102 H   0  0  0  0  0  0  0  0  0  0  0  0
   56.8884   27.7589   44.7006 H   0  0  0  0  0  0  0  0  0  0  0  0
   58.1233   26.6196   44.0025 H   0  0  0  0  0  0  0  0  0  0  0  0
  1  2  1  0
  2  3  1  0
  3  4  2  0
  4  5  1  0
  5  6  2  0
  6  7  1  0
  7  8  1  0
  8  9  1  0
  9 10  1  0
 10 11  2  0
 10 12  1  0
 12 13  1  0
 13 14  2  0
 14 15  1  0
 15 16  2  0
 16 17  1  0
 17 18  2  0
 18 19  1  0
  8 20  1  0
 20 21  2  0
 20 22  1  0
 22 23  1  0
 23 24  1  0
 24 25  1  0
 25 26  2  0
 25 27  1  0
 27 28  1  0
 28 29  1  0
  6  2  1  0
 18 13  1  0
 28 23  2  0
  1 30  1  0
  1 31  1  0
  1 32  1  0
  3 33  1  0
  4 34  1  0
  5 35  1  0
  7 36  1  0
  7 37  1  0
  9 38  1  0
  9 39  1  0
 14 40  1  0
 15 41  1  0
 16 42  1  0
 17 43  1  0
 22 44  1  0
 22 45  1  0
M  CHG  5  12  -1  19  -1  24  -1  27  -1  29  -1
M  END
>  <UniqueID>  (67) 
65

>  <SMILES>  (67) 
Cn1cccc1CN(CC(=O)[N-]c1ccccc1[O-])C(=O)Cc1[n-]c(=O)[n-]c1[O-]

>  <Energy>  (67) 
101.16311951651655

>  <Genealogy>  (67) 
Cn1cccc1CN(CC(=O)[N-]c1ccccc1[O-])C(=O)Cc1[n-]c(=O)[n-]c1[O-] (protonated)
Cn1cccc1CN(CC(=O)[N-]c1ccccc1[O-])C(=O)Cc1[n-]c(=O)[n-]c1[O-] (3D coordinates assigned)
Cn1cccc1CN(CC(=O)[N-]c1ccccc1[O-])C(=O)Cc1[n-]c(=O)[n-]c1[O-] (optimized conformer: 101.16311951651655 kcal/mol)

>  <smiles>  (67) 
Cn1cccc1CN(CC(=O)Nc1ccccc1O)C(=O)Cc1[nH]c(=O)[nH]c1O

>  <score_type>  (67) 
oracle

>  <origin>  (67) 
adg

>  <m_score__min__energy>  (67) 
-17.510000000000002

>  <m_primary>  (67) 
energy

$$$$
67:0
     RDKit          3D

 44 46  0  0  0  0  0  0  0  0999 V2000
   59.3150   30.8560   50.6630 O   0  0  0  0  0  0  0  0  0  0  0  0
   58.3250   31.6200   50.5040 C   0  0  0  0  0  0  0  0  0  0  0  0
   57.0760   31.3980   51.2920 C   0  0  0  0  0  0  0  0  0  0  0  0
   56.9400   29.9860   51.6400 N   0  0  0  0  0  0  0  0  0  0  0  0
   56.1700   29.4650   52.7320 C   0  0  0  0  0  0  0  0  0  0  0  0
   56.7790   28.9350   53.6990 O   0  0  0  0  0  0  0  0  0  0  0  0
   54.6930   29.5170   52.7550 C   0  0  0  0  0  0  0  0  0  0  0  0
   53.9970   29.0550   53.8810 C   0  0  0  0  0  0  0  0  0  0  0  0
   52.6020   29.0850   53.9090 C   0  0  0  0  0  0  0  0  0  0  0  0
   51.8870   29.5580   52.8070 C   0  0  0  0  0  0  0  0  0  0  0  0
   52.5630   29.9980   51.6550 C   0  0  0  0  0  0  0  0  0  0  0  0
   51.8270   30.4750   50.4590 C   0  0  0  0  0  0  0  0  0  0  0  0
   51.7380   29.7750   49.3080 N   0  0  0  0  0  0  0  0  0  0  0  0
   51.0300   30.4770   48.4330 N   0  0  0  0  0  0  0  0  0  0  0  0
   50.6600   31.6370   49.0070 C   0  0  0  0  0  0  0  0  0  0  0  0
   51.1540   31.6680   50.2870 C   0  0  0  0  0  0  0  0  0  0  0  0
   51.0240   32.7150   51.1890 O   0  0  0  0  0  0  0  0  0  0  0  0
   53.9700   29.9530   51.6330 C   0  0  0  0  0  0  0  0  0  0  0  0
   58.3900   32.7170   49.5880 N   0  0  0  0  0  0  0  0  0  0  0  0
   58.9380   32.6360   48.2370 C   0  0  0  0  0  0  0  0  0  0  0  0
   59.7370   33.8940   47.8590 C   0  0  0  0  0  0  0  0  0  0  0  0
   61.2360   33.6800   47.8730 C   0  0  0  0  0  0  0  0  0  0  0  0
   61.9800   33.8460   46.6890 C   0  0  0  0  0  0  0  0  0  0  0  0
   63.3650   33.6580   46.6900 C   0  0  0  0  0  0  0  0  0  0  0  0
   64.0260   33.3260   47.8730 C   0  0  0  0  0  0  0  0  0  0  0  0
   63.3060   33.1900   49.0610 C   0  0  0  0  0  0  0  0  0  0  0  0
   61.9150   33.3700   49.0710 C   0  0  0  0  0  0  0  0  0  0  0  0
   61.2120   33.2530   50.2710 O   0  0  0  0  0  0  0  0  0  0  0  0
   57.1175   31.9965   52.2140 H   0  0  0  0  0  0  0  0  0  0  0  0
   56.2109   31.7015   50.6841 H   0  0  0  0  0  0  0  0  0  0  0  0
   54.5534   28.6668   54.7469 H   0  0  0  0  0  0  0  0  0  0  0  0
   52.0640   28.7348   54.8023 H   0  0  0  0  0  0  0  0  0  0  0  0
   50.7879   29.5867   52.8401 H   0  0  0  0  0  0  0  0  0  0  0  0
   50.0620   32.4275   48.5301 H   0  0  0  0  0  0  0  0  0  0  0  0
   54.5094   30.2631   50.7259 H   0  0  0  0  0  0  0  0  0  0  0  0
   59.6032   31.7621   48.1762 H   0  0  0  0  0  0  0  0  0  0  0  0
   58.0956   32.5469   47.5352 H   0  0  0  0  0  0  0  0  0  0  0  0
   59.4386   34.2059   46.8472 H   0  0  0  0  0  0  0  0  0  0  0  0
   59.5111   34.6616   48.6138 H   0  0  0  0  0  0  0  0  0  0  0  0
   61.4675   34.1256   45.7567 H   0  0  0  0  0  0  0  0  0  0  0  0
   63.9350   33.7720   45.7562 H   0  0  0  0  0  0  0  0  0  0  0  0
   65.1151   33.1714   47.8694 H   0  0  0  0  0  0  0  0  0  0  0  0
   63.8322   32.9404   49.9942 H   0  0  0  0  0  0  0  0  0  0  0  0
   60.3500   32.7260   50.3350 H   0  0  0  0  0  0  0  0  0  0  0  0
  1  2  2  0
  2  3  1  0
  3  4  1  0
  4  5  1  0
  5  6  2  0
  5  7  1  0
  7  8  2  0
  8  9  1  0
  9 10  2  0
 10 11  1  0
 11 12  1  0
 12 13  1  0
 13 14  1  0
 14 15  2  0
 15 16  1  0
 16 17  1  0
 11 18  2  0
  2 19  1  0
 19 20  1  0
 20 21  1  0
 21 22  1  0
 22 23  2  0
 23 24  1  0
 24 25  2  0
 25 26  1  0
 26 27  2  0
 27 28  1  0
 18  7  1  0
 27 22  1  0
 16 12  2  0
  3 29  1  0
  3 30  1  0
  8 31  1  0
  9 32  1  0
 10 33  1  0
 15 34  1  0
 18 35  1  0
 20 36  1  0
 20 37  1  0
 21 38  1  0
 21 39  1  0
 23 40  1  0
 24 41  1  0
 25 42  1  0
 26 43  1  0
 28 44  1  0
M  CHG  4   4  -1  13  -1  17  -1  19  -1
M  END
>  <UniqueID>  (68) 
66

>  <SMILES>  (68) 
O=C(C[N-]C(=O)c1cccc(-c2[n-]ncc2[O-])c1)[N-]CCc1ccccc1O

>  <Energy>  (68) 
79.70088904087996

>  <Genealogy>  (68) 
O=C(C[N-]C(=O)c1cccc(-c2[n-]ncc2[O-])c1)[N-]CCc1ccccc1O (protonated)
O=C(C[N-]C(=O)c1cccc(-c2[n-]ncc2[O-])c1)[N-]CCc1ccccc1O (3D coordinates assigned)
O=C(C[N-]C(=O)c1cccc(-c2[n-]ncc2[O-])c1)[N-]CCc1ccccc1O (optimized conformer: 79.70088904087996 kcal/mol)

>  <smiles>  (68) 
O=C(CNC(=O)c1cccc(-c2[nH]ncc2O)c1)NCCc1ccccc1O

>  <score_type>  (68) 
oracle

>  <origin>  (68) 
adg

>  <m_score__min__energy>  (68) 
-15.9

>  <m_primary>  (68) 
energy

$$$$
68:0
     RDKit          3D

 46 48  0  0  0  0  0  0  0  0999 V2000
   57.3970   31.6090   42.1910 C   0  0  0  0  0  0  0  0  0  0  0  0
   56.9830   30.5860   42.9360 C   0  0  0  0  0  0  0  0  0  0  0  0
   56.4460   30.7340   44.3050 C   0  0  0  0  0  0  0  0  0  0  0  0
   55.9820   29.7130   44.8770 O   0  0  0  0  0  0  0  0  0  0  0  0
   56.3830   31.9910   44.9960 N   0  0  0  0  0  0  0  0  0  0  0  0
   57.4890   32.7910   45.4420 C   0  0  0  0  0  0  0  0  0  0  0  0
   58.1310   33.7050   44.5890 C   0  0  0  0  0  0  0  0  0  0  0  0
   59.2030   34.4680   45.0590 C   0  0  0  0  0  0  0  0  0  0  0  0
   59.6570   34.3080   46.3700 C   0  0  0  0  0  0  0  0  0  0  0  0
   59.0490   33.3710   47.2170 C   0  0  0  0  0  0  0  0  0  0  0  0
   59.6640   33.1320   48.8580 S   0  0  0  0  0  0  0  0  0  0  0  0
   58.5130   32.7120   49.7290 O   0  0  0  0  0  0  0  0  0  0  0  0
   60.1610   34.4520   49.3790 O   0  0  0  0  0  0  0  0  0  0  0  0
   60.9180   31.8990   48.9620 N   0  0  1  0  0  0  0  0  0  0  0  0
   60.4380   30.6280   49.5440 C   0  0  0  0  0  0  0  0  0  0  0  0
   59.7060   29.7620   48.5540 C   0  0  0  0  0  0  0  0  0  0  0  0
   59.9240   29.8350   47.2300 C   0  0  0  0  0  0  0  0  0  0  0  0
   59.2330   28.8970   46.3100 C   0  0  0  0  0  0  0  0  0  0  0  0
   59.5930   28.8330   44.9530 C   0  0  0  0  0  0  0  0  0  0  0  0
   58.9310   27.9560   44.0870 C   0  0  0  0  0  0  0  0  0  0  0  0
   57.9040   27.1400   44.5650 C   0  0  0  0  0  0  0  0  0  0  0  0
   57.5370   27.1960   45.9120 C   0  0  0  0  0  0  0  0  0  0  0  0
   58.1970   28.0690   46.7800 C   0  0  0  0  0  0  0  0  0  0  0  0
   60.7450   30.9570   46.6440 C   0  0  0  0  0  0  0  0  0  0  0  0
   61.6200   31.6750   47.6850 C   0  0  0  0  0  0  0  0  0  0  0  0
   57.9710   32.6100   46.7450 C   0  0  0  0  0  0  0  0  0  0  0  0
   57.7866   31.4295   41.1781 H   0  0  0  0  0  0  0  0  0  0  0  0
   57.3494   32.6336   42.5885 H   0  0  0  0  0  0  0  0  0  0  0  0
   57.0441   29.5742   42.5087 H   0  0  0  0  0  0  0  0  0  0  0  0
   57.7890   33.8199   43.5498 H   0  0  0  0  0  0  0  0  0  0  0  0
   59.6906   35.1966   44.3947 H   0  0  0  0  0  0  0  0  0  0  0  0
   60.4940   34.9189   46.7390 H   0  0  0  0  0  0  0  0  0  0  0  0
   61.6300   32.2800   49.6290 H   0  0  0  0  0  0  0  0  0  0  0  0
   61.3051   30.0681   49.9244 H   0  0  0  0  0  0  0  0  0  0  0  0
   59.7274   30.8824   50.3442 H   0  0  0  0  0  0  0  0  0  0  0  0
   58.9640   29.0416   48.9288 H   0  0  0  0  0  0  0  0  0  0  0  0
   60.3993   29.4757   44.5698 H   0  0  0  0  0  0  0  0  0  0  0  0
   59.2204   27.9093   43.0268 H   0  0  0  0  0  0  0  0  0  0  0  0
   57.3838   26.4531   43.8812 H   0  0  0  0  0  0  0  0  0  0  0  0
   56.7283   26.5526   46.2889 H   0  0  0  0  0  0  0  0  0  0  0  0
   57.9044   28.1095   47.8396 H   0  0  0  0  0  0  0  0  0  0  0  0
   61.3998   30.5408   45.8643 H   0  0  0  0  0  0  0  0  0  0  0  0
   60.0418   31.7000   46.2397 H   0  0  0  0  0  0  0  0  0  0  0  0
   62.5128   31.0618   47.8772 H   0  0  0  0  0  0  0  0  0  0  0  0
   61.8838   32.6606   47.2739 H   0  0  0  0  0  0  0  0  0  0  0  0
   57.4996   31.8648   47.4026 H   0  0  0  0  0  0  0  0  0  0  0  0
  1  2  2  0
  2  3  1  0
  3  4  2  0
  3  5  1  0
  5  6  1  0
  6  7  2  0
  7  8  1  0
  8  9  2  0
  9 10  1  0
 10 11  1  0
 11 12  2  0
 11 13  2  0
 11 14  1  0
 14 15  1  0
 15 16  1  0
 16 17  2  0
 17 18  1  0
 18 19  2  0
 19 20  1  0
 20 21  2  0
 21 22  1  0
 22 23  2  0
 17 24  1  0
 24 25  1  0
 10 26  2  0
 26  6  1  0
 25 14  1  0
 23 18  1  0
  1 27  1  0
  1 28  1  0
  2 29  1  0
  7 30  1  0
  8 31  1  0
  9 32  1  0
 14 33  1  1
 15 34  1  0
 15 35  1  0
 16 36  1  0
 19 37  1  0
 20 38  1  0
 21 39  1  0
 22 40  1  0
 23 41  1  0
 24 42  1  0
 24 43  1  0
 25 44  1  0
 25 45  1  0
 26 46  1  0
M  CHG  2   5  -1  14   1
M  END
>  <UniqueID>  (69) 
67

>  <SMILES>  (69) 
C=CC(=O)[N-]c1cccc(S(=O)(=O)[N@H+]2CC=C(c3ccccc3)CC2)c1

>  <Energy>  (69) 
61.3266060502372

>  <Genealogy>  (69) 
C=CC(=O)[N-]c1cccc(S(=O)(=O)[NH+]2CC=C(c3ccccc3)CC2)c1 (protonated)
C=CC(=O)[N-]c1cccc(S(=O)(=O)[N@H+]2CC=C(c3ccccc3)CC2)c1 (chirality)
C=CC(=O)[N-]c1cccc(S(=O)(=O)[N@H+]2CC=C(c3ccccc3)CC2)c1 (3D coordinates assigned)
C=CC(=O)[N-]c1cccc(S(=O)(=O)[N@H+]2CC=C(c3ccccc3)CC2)c1 (nonaromatic ring conformer: 61.3266060502372 kcal/mol)

>  <smiles>  (69) 
C=CC(=O)Nc1cccc(S(=O)(=O)N2CC=C(c3ccccc3)CC2)c1

>  <score_type>  (69) 
oracle

>  <origin>  (69) 
adg

>  <m_score__min__energy>  (69) 
-9.5800000000000001

>  <m_primary>  (69) 
energy

$$$$
69:0
     RDKit          3D

 47 49  0  0  0  0  0  0  0  0999 V2000
   54.5065   28.3894   55.0433 H   0  0  0  0  0  0  0  0  0  0  0  0
   53.9970   29.1210   54.3990 C   0  0  0  0  0  0  0  0  0  0  0  0
   52.9137   29.2829   54.5004 H   0  0  0  0  0  0  0  0  0  0  0  0
   54.6980   29.8170   53.4880 C   0  0  0  0  0  0  0  0  0  0  0  0
   54.1830   30.7760   52.6050 C   0  0  0  0  0  0  0  0  0  0  0  0
   52.8990   31.1900   52.5110 C   0  0  0  0  0  0  0  0  0  0  0  0
   52.4023   31.5044   53.4407 H   0  0  0  0  0  0  0  0  0  0  0  0
   52.1050   31.2560   51.2630 C   0  0  0  0  0  0  0  0  0  0  0  0
   52.1030   30.3420   50.2740 N   0  0  0  0  0  0  0  0  0  0  0  0
   51.2610   30.8650   49.3570 C   0  0  0  0  0  0  0  0  0  0  0  0
   50.9950   30.2870   48.2720 O   0  0  0  0  0  0  0  0  0  0  0  0
   50.7310   32.0620   49.6950 N   0  0  0  0  0  0  0  0  0  0  0  0
   51.2790   32.2960   50.9000 C   0  0  0  0  0  0  0  0  0  0  0  0
   51.0310   33.4380   51.6520 O   0  0  0  0  0  0  0  0  0  0  0  0
   55.2530   31.1850   51.8210 C   0  0  0  0  0  0  0  0  0  0  0  0
   55.2232   31.9307   51.0129 H   0  0  0  0  0  0  0  0  0  0  0  0
   56.3620   30.4800   52.2460 C   0  0  0  0  0  0  0  0  0  0  0  0
   57.6960   30.5630   51.6000 C   0  0  0  0  0  0  0  0  0  0  0  0
   58.0700   29.6340   50.8320 O   0  0  0  0  0  0  0  0  0  0  0  0
   58.5230   31.7410   51.7650 N   0  0  1  0  0  0  0  0  0  0  0  0
   57.9530   32.5910   51.5430 H   0  0  0  0  0  0  0  0  0  0  0  0
   58.9540   31.8640   53.1690 C   0  0  0  0  0  0  0  0  0  0  0  0
   58.1112   31.6235   53.8337 H   0  0  0  0  0  0  0  0  0  0  0  0
   59.7827   31.1665   53.3606 H   0  0  0  0  0  0  0  0  0  0  0  0
   59.2898   32.8938   53.3606 H   0  0  0  0  0  0  0  0  0  0  0  0
   59.6790   31.6670   50.8430 C   0  0  0  0  0  0  0  0  0  0  0  0
   60.5613   32.0927   51.3432 H   0  0  0  0  0  0  0  0  0  0  0  0
   59.8430   30.6106   50.5840 H   0  0  0  0  0  0  0  0  0  0  0  0
   59.4260   32.4300   49.5650 C   0  0  0  0  0  0  0  0  0  0  0  0
   58.7750   31.8150   48.4830 C   0  0  0  0  0  0  0  0  0  0  0  0
   58.4319   30.7736   48.5709 H   0  0  0  0  0  0  0  0  0  0  0  0
   58.5610   32.5200   47.2950 C   0  0  0  0  0  0  0  0  0  0  0  0
   58.0572   32.0284   46.4497 H   0  0  0  0  0  0  0  0  0  0  0  0
   58.9860   33.8520   47.1760 C   0  0  0  0  0  0  0  0  0  0  0  0
   58.7900   34.5920   45.8860 C   0  0  0  0  0  0  0  0  0  0  0  0
   58.5137   35.6350   46.0999 H   0  0  0  0  0  0  0  0  0  0  0  0
   59.7245   34.5718   45.3060 H   0  0  0  0  0  0  0  0  0  0  0  0
   57.9881   34.1119   45.3060 H   0  0  0  0  0  0  0  0  0  0  0  0
   59.6570   34.4600   48.2470 C   0  0  0  0  0  0  0  0  0  0  0  0
   60.0163   35.4953   48.1515 H   0  0  0  0  0  0  0  0  0  0  0  0
   59.8710   33.7560   49.4350 C   0  0  0  0  0  0  0  0  0  0  0  0
   60.3909   34.2430   50.2732 H   0  0  0  0  0  0  0  0  0  0  0  0
   56.0320   29.6650   53.2780 N   0  0  0  0  0  0  0  0  0  0  0  0
   56.9430   28.7770   54.0110 C   0  0  0  0  0  0  0  0  0  0  0  0
   56.7997   28.9166   55.0927 H   0  0  0  0  0  0  0  0  0  0  0  0
   56.7290   27.7314   53.7448 H   0  0  0  0  0  0  0  0  0  0  0  0
   57.9828   29.0177   53.7448 H   0  0  0  0  0  0  0  0  0  0  0  0
  1  2  1  0
  2  3  1  0
  2  4  2  0
  4  5  1  0
  5  6  2  0
  6  7  1  0
  6  8  1  0
  8  9  1  0
  9 10  1  0
 10 11  2  0
 10 12  1  0
 12 13  1  0
 13 14  1  0
  5 15  1  0
 15 16  1  0
 15 17  2  0
 17 18  1  0
 18 19  2  0
 18 20  1  0
 20 21  1  6
 20 22  1  0
 22 23  1  0
 22 24  1  0
 22 25  1  0
 20 26  1  0
 26 27  1  0
 26 28  1  0
 26 29  1  0
 29 30  2  0
 30 31  1  0
 30 32  1  0
 32 33  1  0
 32 34  2  0
 34 35  1  0
 35 36  1  0
 35 37  1  0
 35 38  1  0
 34 39  1  0
 39 40  1  0
 39 41  2  0
 41 42  1  0
 17 43  1  0
 43 44  1  0
 44 45  1  0
 44 46  1  0
 44 47  1  0
 43  4  1  0
 13  8  2  0
 41 29  1  0
M  CHG  4   9  -1  12  -1  14  -1  20   1
M  END
>  <UniqueID>  (70) 
68

>  <SMILES>  (70) 
C=c1/c(=C/c2[n-]c(=O)[n-]c2[O-])cc(C(=O)[N@@H+](C)Cc2ccc(C)cc2)n1C

>  <Energy>  (70) 
115.18590446469834

>  <Genealogy>  (70) 
C=c1c(=Cc2[n-]c(=O)[n-]c2[O-])cc(C(=O)[NH+](C)Cc2ccc(C)cc2)n1C (protonated)
C=c1c(=Cc2[n-]c(=O)[n-]c2[O-])cc(C(=O)[N@@H+](C)Cc2ccc(C)cc2)n1C (chirality)
C=c1/c(=C/c2[n-]c(=O)[n-]c2[O-])cc(C(=O)[N@@H+](C)Cc2ccc(C)cc2)n1C (cis-trans isomerization)
C=c1/c(=C/c2[n-]c(=O)[n-]c2[O-])cc(C(=O)[N@@H+](C)Cc2ccc(C)cc2)n1C (3D coordinates assigned)
C=c1/c(=C/c2[n-]c(=O)[n-]c2[O-])cc(C(=O)[N@@H+](C)Cc2ccc(C)cc2)n1C (optimized conformer: 115.18590446469834 kcal/mol)

>  <smiles>  (70) 
C=c1c(=Cc2[nH]c(=O)[nH]c2O)cc(C(=O)N(C)Cc2ccc(C)cc2)n1C

>  <score_type>  (70) 
oracle

>  <origin>  (70) 
adg

>  <m_score__min__energy>  (70) 
-17.170000000000002

>  <m_primary>  (70) 
energy

$$$$
70:0
     RDKit          3D

 50 52  0  0  0  0  0  0  0  0999 V2000
   64.1480   33.4270   48.2920 C   0  0  0  0  0  0  0  0  0  0  0  0
   63.2140   33.9110   47.3320 O   0  0  0  0  0  0  0  0  0  0  0  0
   61.9730   33.3170   47.0650 C   0  0  0  0  0  0  0  0  0  0  0  0
   61.7710   31.9240   47.1440 C   0  0  0  0  0  0  0  0  0  0  0  0
   60.5120   31.3780   46.8710 C   0  0  0  0  0  0  0  0  0  0  0  0
   59.4510   32.2120   46.4990 C   0  0  0  0  0  0  0  0  0  0  0  0
   59.6440   33.5950   46.4240 C   0  0  0  0  0  0  0  0  0  0  0  0
   60.9010   34.1460   46.7120 C   0  0  0  0  0  0  0  0  0  0  0  0
   58.4720   34.4520   46.0550 C   0  0  0  0  0  0  0  0  0  0  0  0
   57.7130   33.7960   44.8940 C   0  0  0  0  0  0  0  0  0  0  0  0
   57.3650   32.3710   45.1470 N   0  0  0  0  0  0  0  0  0  0  0  0
   57.2180   31.5750   43.9080 C   0  0  0  0  0  0  0  0  0  0  0  0
   56.9160   30.1120   44.1390 C   0  0  0  0  0  0  0  0  0  0  0  0
   55.8360   29.7520   44.6810 O   0  0  0  0  0  0  0  0  0  0  0  0
   57.9070   29.1300   43.8040 N   0  0  0  0  0  0  0  0  0  0  0  0
   57.7850   27.7260   44.1940 C   0  0  0  0  0  0  0  0  0  0  0  0
   57.2390   27.5890   45.6200 C   0  0  0  0  0  0  0  0  0  0  0  0
   58.3510   27.6310   46.6410 C   0  0  0  0  0  0  0  0  0  0  0  0
   58.4270   28.7240   47.4520 N   0  0  0  0  0  0  0  0  0  0  0  0
   59.3940   28.8660   48.3950 C   0  0  0  0  0  0  0  0  0  0  0  0
   60.3560   27.8730   48.5610 C   0  0  0  0  0  0  0  0  0  0  0  0
   60.3130   26.7390   47.7520 C   0  0  0  0  0  0  0  0  0  0  0  0
   59.3150   26.6000   46.7750 C   0  0  0  0  0  0  0  0  0  0  0  0
   59.2800   25.3570   45.9290 C   0  0  0  0  0  0  0  0  0  0  0  0
   58.0710   31.6630   46.2460 C   0  0  0  0  0  0  0  0  0  0  0  0
   63.7678   33.6240   49.3052 H   0  0  0  0  0  0  0  0  0  0  0  0
   64.2856   32.3441   48.1561 H   0  0  0  0  0  0  0  0  0  0  0  0
   65.1121   33.9390   48.1561 H   0  0  0  0  0  0  0  0  0  0  0  0
   62.6062   31.2640   47.4213 H   0  0  0  0  0  0  0  0  0  0  0  0
   60.3557   30.2919   46.9488 H   0  0  0  0  0  0  0  0  0  0  0  0
   61.0457   35.2352   46.6604 H   0  0  0  0  0  0  0  0  0  0  0  0
   57.8025   34.5528   46.9220 H   0  0  0  0  0  0  0  0  0  0  0  0
   58.8242   35.4485   45.7501 H   0  0  0  0  0  0  0  0  0  0  0  0
   56.7825   34.3575   44.7239 H   0  0  0  0  0  0  0  0  0  0  0  0
   58.3772   33.8179   44.0175 H   0  0  0  0  0  0  0  0  0  0  0  0
   56.3970   32.0068   43.3168 H   0  0  0  0  0  0  0  0  0  0  0  0
   58.1874   31.6179   43.3899 H   0  0  0  0  0  0  0  0  0  0  0  0
   58.8050   29.4470   43.3730 H   0  0  0  0  0  0  0  0  0  0  0  0
   57.1004   27.2190   43.4980 H   0  0  0  0  0  0  0  0  0  0  0  0
   58.7846   27.2682   44.1597 H   0  0  0  0  0  0  0  0  0  0  0  0
   56.5406   28.4157   45.8170 H   0  0  0  0  0  0  0  0  0  0  0  0
   56.7279   26.6186   45.7038 H   0  0  0  0  0  0  0  0  0  0  0  0
   59.4173   29.7655   49.0277 H   0  0  0  0  0  0  0  0  0  0  0  0
   61.1418   27.9825   49.3229 H   0  0  0  0  0  0  0  0  0  0  0  0
   61.0662   25.9476   47.8800 H   0  0  0  0  0  0  0  0  0  0  0  0
   59.2550   24.4708   46.5802 H   0  0  0  0  0  0  0  0  0  0  0  0
   58.3819   25.3708   45.2940 H   0  0  0  0  0  0  0  0  0  0  0  0
   60.1775   25.3202   45.2940 H   0  0  0  0  0  0  0  0  0  0  0  0
   57.4781   31.7630   47.1671 H   0  0  0  0  0  0  0  0  0  0  0  0
   58.1819   30.6105   45.9460 H   0  0  0  0  0  0  0  0  0  0  0  0
  1  2  1  0
  2  3  1  0
  3  4  2  0
  4  5  1  0
  5  6  2  0
  6  7  1  0
  7  8  2  0
  7  9  1  0
  9 10  1  0
 10 11  1  0
 11 12  1  0
 12 13  1  0
 13 14  2  0
 13 15  1  0
 15 16  1  0
 16 17  1  0
 17 18  1  0
 18 19  2  0
 19 20  1  0
 20 21  2  0
 21 22  1  0
 22 23  2  0
 23 24  1  0
 11 25  1  0
  8  3  1  0
 23 18  1  0
 25  6  1  0
  1 26  1  0
  1 27  1  0
  1 28  1  0
  4 29  1  0
  5 30  1  0
  8 31  1  0
  9 32  1  0
  9 33  1  0
 10 34  1  0
 10 35  1  0
 12 36  1  0
 12 37  1  0
 15 38  1  0
 16 39  1  0
 16 40  1  0
 17 41  1  0
 17 42  1  0
 20 43  1  0
 21 44  1  0
 22 45  1  0
 24 46  1  0
 24 47  1  0
 24 48  1  0
 25 49  1  0
 25 50  1  0
M  END
>  <UniqueID>  (71) 
69

>  <SMILES>  (71) 
COc1ccc2c(c1)CCN(CC(=O)NCCc1ncccc1C)C2

>  <Energy>  (71) 
59.506429168439276

>  <Genealogy>  (71) 
COc1ccc2c(c1)CCN(CC(=O)NCCc1ncccc1C)C2 (3D coordinates assigned)
COc1ccc2c(c1)CCN(CC(=O)NCCc1ncccc1C)C2 (nonaromatic ring conformer: 59.506429168439276 kcal/mol)

>  <smiles>  (71) 
COc1ccc2c(c1)CCN(CC(=O)NCCc1ncccc1C)C2

>  <score_type>  (71) 
oracle

>  <origin>  (71) 
adg

>  <m_score__min__energy>  (71) 
-8.2699999999999996

>  <m_primary>  (71) 
energy

$$$$
71:0
     RDKit          3D

 53 56  0  0  0  0  0  0  0  0999 V2000
   54.5330   29.8890   54.9430 C   0  0  0  0  0  0  0  0  0  0  0  0
   54.9380   30.1630   53.6920 C   0  0  0  0  0  0  0  0  0  0  0  0
   54.1390   30.6620   52.6490 C   0  0  0  0  0  0  0  0  0  0  0  0
   52.8030   30.8030   52.5430 C   0  0  0  0  0  0  0  0  0  0  0  0
   52.0460   30.8900   51.2850 C   0  0  0  0  0  0  0  0  0  0  0  0
   52.1380   30.0060   50.2730 N   0  0  0  0  0  0  0  0  0  0  0  0
   51.3940   30.5700   49.2980 C   0  0  0  0  0  0  0  0  0  0  0  0
   51.2210   30.0250   48.1770 O   0  0  0  0  0  0  0  0  0  0  0  0
   50.8620   31.7700   49.6140 N   0  0  0  0  0  0  0  0  0  0  0  0
   51.2980   31.9630   50.8690 C   0  0  0  0  0  0  0  0  0  0  0  0
   51.0230   33.1010   51.6160 O   0  0  0  0  0  0  0  0  0  0  0  0
   55.0020   30.9770   51.6170 C   0  0  0  0  0  0  0  0  0  0  0  0
   56.2680   30.6220   52.0280 C   0  0  0  0  0  0  0  0  0  0  0  0
   57.4600   30.7210   51.1680 C   0  0  0  0  0  0  0  0  0  0  0  0
   57.8070   29.7140   50.4970 O   0  0  0  0  0  0  0  0  0  0  0  0
   58.2160   31.9440   51.0510 N   0  0  0  0  0  0  0  0  0  0  0  0
   57.7740   33.0930   51.8520 C   0  0  0  0  0  0  0  0  0  0  0  0
   58.8990   33.5100   52.7820 C   0  0  0  0  0  0  0  0  0  0  0  0
   60.0670   33.8460   51.9850 N   0  0  0  0  0  0  0  0  0  0  0  0
   60.3840   33.1370   50.7850 C   0  0  0  0  0  0  0  0  0  0  0  0
   61.4360   33.4420   50.1600 O   0  0  0  0  0  0  0  0  0  0  0  0
   59.4760   32.0270   50.2570 C   0  0  0  0  0  0  0  0  0  0  0  0
   60.2720   30.7080   50.3540 C   0  0  0  0  0  0  0  0  0  0  0  0
   59.1370   32.3240   48.7850 C   0  0  0  0  0  0  0  0  0  0  0  0
   56.2370   30.1090   53.2820 N   0  0  0  0  0  0  0  0  0  0  0  0
   57.3830   29.4900   53.9760 C   0  0  0  0  0  0  0  0  0  0  0  0
   58.3130   30.5350   54.5560 C   0  0  0  0  0  0  0  0  0  0  0  0
   59.6720   30.5740   54.1910 C   0  0  0  0  0  0  0  0  0  0  0  0
   60.5300   31.5230   54.7530 C   0  0  0  0  0  0  0  0  0  0  0  0
   60.0500   32.4290   55.6990 C   0  0  0  0  0  0  0  0  0  0  0  0
   58.7130   32.3790   56.0950 C   0  0  0  0  0  0  0  0  0  0  0  0
   57.8470   31.4320   55.5360 C   0  0  0  0  0  0  0  0  0  0  0  0
   56.5650   31.3800   55.9730 F   0  0  0  0  0  0  0  0  0  0  0  0
   55.2504   29.4999   55.6805 H   0  0  0  0  0  0  0  0  0  0  0  0
   53.4840   30.0537   55.2300 H   0  0  0  0  0  0  0  0  0  0  0  0
   52.2283   30.8578   53.4793 H   0  0  0  0  0  0  0  0  0  0  0  0
   54.7298   31.4261   50.6505 H   0  0  0  0  0  0  0  0  0  0  0  0
   57.5170   33.9298   51.1859 H   0  0  0  0  0  0  0  0  0  0  0  0
   56.8880   32.8156   52.4420 H   0  0  0  0  0  0  0  0  0  0  0  0
   58.5875   34.3867   53.3688 H   0  0  0  0  0  0  0  0  0  0  0  0
   59.1405   32.6854   53.4688 H   0  0  0  0  0  0  0  0  0  0  0  0
   60.4274   30.4505   51.4121 H   0  0  0  0  0  0  0  0  0  0  0  0
   59.7089   29.9027   49.8595 H   0  0  0  0  0  0  0  0  0  0  0  0
   61.2469   30.8309   49.8595 H   0  0  0  0  0  0  0  0  0  0  0  0
   58.3104   33.0482   48.7380 H   0  0  0  0  0  0  0  0  0  0  0  0
   60.0211   32.7436   48.2826 H   0  0  0  0  0  0  0  0  0  0  0  0
   58.8373   31.3925   48.2826 H   0  0  0  0  0  0  0  0  0  0  0  0
   57.0062   28.8552   54.7915 H   0  0  0  0  0  0  0  0  0  0  0  0
   57.9481   28.8943   53.2440 H   0  0  0  0  0  0  0  0  0  0  0  0
   60.0614   29.8521   53.4580 H   0  0  0  0  0  0  0  0  0  0  0  0
   61.5866   31.5558   54.4487 H   0  0  0  0  0  0  0  0  0  0  0  0
   60.7248   33.1820   56.1323 H   0  0  0  0  0  0  0  0  0  0  0  0
   58.3381   33.0864   56.8493 H   0  0  0  0  0  0  0  0  0  0  0  0
  1  2  2  0
  2  3  1  0
  3  4  2  3
  4  5  1  0
  5  6  1  0
  6  7  1  0
  7  8  2  0
  7  9  1  0
  9 10  1  0
 10 11  1  0
  3 12  1  0
 12 13  2  0
 13 14  1  0
 14 15  2  0
 14 16  1  0
 16 17  1  0
 17 18  1  0
 18 19  1  0
 19 20  1  0
 20 21  2  0
 20 22  1  0
 22 23  1  0
 22 24  1  0
 13 25  1  0
 25 26  1  0
 26 27  1  0
 27 28  2  0
 28 29  1  0
 29 30  2  0
 30 31  1  0
 31 32  2  0
 32 33  1  0
 25  2  1  0
 32 27  1  0
 10  5  2  0
 22 16  1  0
  1 34  1  0
  1 35  1  0
  4 36  1  0
 12 37  1  0
 17 38  1  0
 17 39  1  0
 18 40  1  0
 18 41  1  0
 23 42  1  0
 23 43  1  0
 23 44  1  0
 24 45  1  0
 24 46  1  0
 24 47  1  0
 26 48  1  0
 26 49  1  0
 28 50  1  0
 29 51  1  0
 30 52  1  0
 31 53  1  0
M  CHG  4   6  -1   9  -1  11  -1  19  -1
M  END
>  <UniqueID>  (72) 
70

>  <SMILES>  (72) 
C=c1c(=Cc2[n-]c(=O)[n-]c2[O-])cc(C(=O)N2CC[N-]C(=O)C2(C)C)n1Cc1ccccc1F

>  <Energy>  (72) 
135.26958154333138

>  <Genealogy>  (72) 
C=c1c(=Cc2[n-]c(=O)[n-]c2[O-])cc(C(=O)N2CC[N-]C(=O)C2(C)C)n1Cc1ccccc1F (protonated)
C=c1c(=Cc2[n-]c(=O)[n-]c2[O-])cc(C(=O)N2CC[N-]C(=O)C2(C)C)n1Cc1ccccc1F (3D coordinates assigned)
C=c1c(=Cc2[n-]c(=O)[n-]c2[O-])cc(C(=O)N2CC[N-]C(=O)C2(C)C)n1Cc1ccccc1F (nonaromatic ring conformer: 135.26958154333138 kcal/mol)

>  <smiles>  (72) 
C=c1c(=Cc2[nH]c(=O)[nH]c2O)cc(C(=O)N2CCNC(=O)C2(C)C)n1Cc1ccccc1F

>  <score_type>  (72) 
oracle

>  <origin>  (72) 
adg

>  <m_score__min__energy>  (72) 
-17.41

>  <m_primary>  (72) 
energy

$$$$
72:0
     RDKit          3D

 64 68  0  0  0  0  0  0  0  0999 V2000
   60.1830   22.3550   45.1040 O   0  0  0  0  0  0  0  0  0  0  0  0
   59.1180   23.0330   45.1140 C   0  0  0  0  0  0  0  0  0  0  0  0
   59.0620   24.2630   45.9820 C   0  0  0  0  0  0  0  0  0  0  0  0
   57.6690   24.6670   46.2090 N   0  0  0  0  0  0  0  0  0  0  0  0
   57.0300   25.7560   45.7290 C   0  0  0  0  0  0  0  0  0  0  0  0
   57.5780   26.7550   44.7470 C   0  0  0  0  0  0  0  0  0  0  0  0
   58.2150   27.9180   45.4570 C   0  0  0  0  0  0  0  0  0  0  0  0
   57.6300   29.1930   45.3940 C   0  0  0  0  0  0  0  0  0  0  0  0
   58.2020   30.2690   46.0790 C   0  0  0  0  0  0  0  0  0  0  0  0
   59.3740   30.0840   46.8260 C   0  0  0  0  0  0  0  0  0  0  0  0
   60.0650   31.4010   47.7700 S   0  0  0  0  0  0  0  0  0  0  0  0
   59.2410   31.6020   49.0130 O   0  0  0  0  0  0  0  0  0  0  0  0
   61.4780   31.0730   48.1730 O   0  0  0  0  0  0  0  0  0  0  0  0
   60.0400   32.8610   46.8280 N   0  0  0  0  0  0  0  0  0  0  0  0
   60.3730   34.0090   47.6810 C   0  0  0  0  0  0  0  0  0  0  0  0
   61.7240   33.7920   48.3220 C   0  0  0  0  0  0  0  0  0  0  0  0
   62.8700   33.8340   47.5070 C   0  0  0  0  0  0  0  0  0  0  0  0
   64.1280   33.5260   48.0280 C   0  0  0  0  0  0  0  0  0  0  0  0
   64.2640   33.1610   49.3680 C   0  0  0  0  0  0  0  0  0  0  0  0
   63.1370   33.1030   50.1900 C   0  0  0  0  0  0  0  0  0  0  0  0
   61.8630   33.4220   49.6850 C   0  0  0  0  0  0  0  0  0  0  0  0
   60.7350   33.3420   50.5680 N   0  0  0  0  0  0  0  0  0  0  0  0
   59.7340   34.2120   50.5780 N   0  0  0  0  0  0  0  0  0  0  0  0
   58.9420   33.8590   51.6070 C   0  0  0  0  0  0  0  0  0  0  0  0
   59.5090   32.7620   52.2170 C   0  0  0  0  0  0  0  0  0  0  0  0
   60.6410   32.4620   51.5540 N   0  0  0  0  0  0  0  0  0  0  0  0
   59.9650   28.8150   46.8850 C   0  0  0  0  0  0  0  0  0  0  0  0
   59.3900   27.7400   46.2070 C   0  0  0  0  0  0  0  0  0  0  0  0
   55.7590   25.7590   46.2630 C   0  0  0  0  0  0  0  0  0  0  0  0
   54.7780   26.7070   46.0060 O   0  0  0  0  0  0  0  0  0  0  0  0
   55.5820   24.7030   47.0840 N   0  0  0  0  0  0  0  0  0  0  0  0
   56.7680   24.0650   47.0200 C   0  0  0  0  0  0  0  0  0  0  0  0
   57.0050   23.0030   47.6600 O   0  0  0  0  0  0  0  0  0  0  0  0
   57.9800   22.5860   44.3460 N   0  0  0  0  0  0  0  0  0  0  0  0
   57.9280   21.1630   43.9800 C   0  0  0  0  0  0  0  0  0  0  0  0
   56.5360   20.7890   43.4810 C   0  0  0  0  0  0  0  0  0  0  0  0
   56.1430   21.6640   42.4430 O   0  0  0  0  0  0  0  0  0  0  0  0
   55.9340   22.9560   42.9770 C   0  0  0  0  0  0  0  0  0  0  0  0
   57.2360   23.5560   43.5290 C   0  0  0  0  0  0  0  0  0  0  0  0
   59.5385   24.0458   46.9494 H   0  0  0  0  0  0  0  0  0  0  0  0
   59.5925   25.0820   45.4744 H   0  0  0  0  0  0  0  0  0  0  0  0
   58.3324   26.2621   44.1162 H   0  0  0  0  0  0  0  0  0  0  0  0
   56.7476   27.1328   44.1324 H   0  0  0  0  0  0  0  0  0  0  0  0
   56.7157   29.3461   44.8018 H   0  0  0  0  0  0  0  0  0  0  0  0
   57.7319   31.2624   46.0319 H   0  0  0  0  0  0  0  0  0  0  0  0
   60.7900   32.7580   46.1000 H   0  0  0  0  0  0  0  0  0  0  0  0
   60.4009   34.9230   47.0696 H   0  0  0  0  0  0  0  0  0  0  0  0
   59.6097   34.1131   48.4662 H   0  0  0  0  0  0  0  0  0  0  0  0
   62.7737   34.1127   46.4473 H   0  0  0  0  0  0  0  0  0  0  0  0
   65.0155   33.5712   47.3797 H   0  0  0  0  0  0  0  0  0  0  0  0
   65.2567   32.9196   49.7756 H   0  0  0  0  0  0  0  0  0  0  0  0
   63.2461   32.8049   51.2432 H   0  0  0  0  0  0  0  0  0  0  0  0
   58.0086   34.3575   51.9073 H   0  0  0  0  0  0  0  0  0  0  0  0
   59.1081   32.2266   53.0903 H   0  0  0  0  0  0  0  0  0  0  0  0
   60.8858   28.6659   47.4681 H   0  0  0  0  0  0  0  0  0  0  0  0
   59.8594   26.7466   46.2598 H   0  0  0  0  0  0  0  0  0  0  0  0
   58.6622   20.9670   43.1847 H   0  0  0  0  0  0  0  0  0  0  0  0
   58.1608   20.5588   44.8692 H   0  0  0  0  0  0  0  0  0  0  0  0
   56.5504   19.7567   43.1013 H   0  0  0  0  0  0  0  0  0  0  0  0
   55.8204   20.8709   44.3124 H   0  0  0  0  0  0  0  0  0  0  0  0
   55.5466   23.6121   42.1836 H   0  0  0  0  0  0  0  0  0  0  0  0
   55.2142   22.8743   43.8048 H   0  0  0  0  0  0  0  0  0  0  0  0
   57.8685   23.8710   42.6860 H   0  0  0  0  0  0  0  0  0  0  0  0
   56.9743   24.4123   44.1680 H   0  0  0  0  0  0  0  0  0  0  0  0
  1  2  2  0
  2  3  1  0
  3  4  1  0
  4  5  1  0
  5  6  1  0
  6  7  1  0
  7  8  2  0
  8  9  1  0
  9 10  2  0
 10 11  1  0
 11 12  2  0
 11 13  2  0
 11 14  1  0
 14 15  1  0
 15 16  1  0
 16 17  2  0
 17 18  1  0
 18 19  2  0
 19 20  1  0
 20 21  2  0
 21 22  1  0
 22 23  1  0
 23 24  2  0
 24 25  1  0
 25 26  2  0
 10 27  1  0
 27 28  2  0
  5 29  2  0
 29 30  1  0
 29 31  1  0
 31 32  1  0
 32 33  2  0
  2 34  1  0
 34 35  1  0
 35 36  1  0
 36 37  1  0
 37 38  1  0
 38 39  1  0
 32  4  1  0
 39 34  1  0
 28  7  1  0
 21 16  1  0
 26 22  1  0
  3 40  1  0
  3 41  1  0
  6 42  1  0
  6 43  1  0
  8 44  1  0
  9 45  1  0
 14 46  1  0
 15 47  1  0
 15 48  1  0
 17 49  1  0
 18 50  1  0
 19 51  1  0
 20 52  1  0
 24 53  1  0
 25 54  1  0
 27 55  1  0
 28 56  1  0
 35 57  1  0
 35 58  1  0
 36 59  1  0
 36 60  1  0
 38 61  1  0
 38 62  1  0
 39 63  1  0
 39 64  1  0
M  CHG  2  30  -1  31  -1
M  END
>  <UniqueID>  (73) 
71

>  <SMILES>  (73) 
O=C(Cn1c(Cc2ccc(S(=O)(=O)NCc3ccccc3-n3nccn3)cc2)c([O-])[n-]c1=O)N1CCOCC1

>  <Energy>  (73) 
137.444575915066

>  <Genealogy>  (73) 
O=C(Cn1c(Cc2ccc(S(=O)(=O)NCc3ccccc3-n3nccn3)cc2)c([O-])[n-]c1=O)N1CCOCC1 (protonated)
O=C(Cn1c(Cc2ccc(S(=O)(=O)NCc3ccccc3-n3nccn3)cc2)c([O-])[n-]c1=O)N1CCOCC1 (3D coordinates assigned)
O=C(Cn1c(Cc2ccc(S(=O)(=O)NCc3ccccc3-n3nccn3)cc2)c([O-])[n-]c1=O)N1CCOCC1 (nonaromatic ring conformer: 137.444575915066 kcal/mol)

>  <smiles>  (73) 
O=C(Cn1c(Cc2ccc(S(=O)(=O)NCc3ccccc3-n3nccn3)cc2)c(O)[nH]c1=O)N1CCOCC1

>  <score_type>  (73) 
oracle

>  <origin>  (73) 
adg

>  <m_score__min__energy>  (73) 
-17.030000000000001

>  <m_primary>  (73) 
energy

$$$$
73:0
     RDKit          3D

 49 53  0  0  0  0  0  0  0  0999 V2000
   56.7620   28.5280   45.1000 H   0  0  0  0  0  0  0  0  0  0  0  0
   56.4320   29.4680   45.2860 O   0  0  0  0  0  0  0  0  0  0  0  0
   56.8850   30.5580   44.5470 C   0  0  0  0  0  0  0  0  0  0  0  0
   56.9800   30.4550   43.1550 C   0  0  0  0  0  0  0  0  0  0  0  0
   56.6988   29.5170   42.6539 H   0  0  0  0  0  0  0  0  0  0  0  0
   57.4310   31.5400   42.4000 C   0  0  0  0  0  0  0  0  0  0  0  0
   57.4998   31.4561   41.3054 H   0  0  0  0  0  0  0  0  0  0  0  0
   57.7950   32.7320   43.0320 C   0  0  0  0  0  0  0  0  0  0  0  0
   58.1442   33.5852   42.4319 H   0  0  0  0  0  0  0  0  0  0  0  0
   57.7170   32.8460   44.4310 C   0  0  0  0  0  0  0  0  0  0  0  0
   58.1170   34.1000   45.1120 C   0  0  0  0  0  0  0  0  0  0  0  0
   57.9690   35.2000   44.5140 O   0  0  0  0  0  0  0  0  0  0  0  0
   58.7140   34.1030   46.4170 N   0  0  0  0  0  0  0  0  0  0  0  0
   59.9320   33.4420   46.7950 C   0  0  0  0  0  0  0  0  0  0  0  0
   60.9940   34.2110   47.2830 C   0  0  0  0  0  0  0  0  0  0  0  0
   60.8829   35.3015   47.3751 H   0  0  0  0  0  0  0  0  0  0  0  0
   62.1950   33.6010   47.6540 C   0  0  0  0  0  0  0  0  0  0  0  0
   63.0317   34.2137   48.0208 H   0  0  0  0  0  0  0  0  0  0  0  0
   62.3350   32.2150   47.5600 C   0  0  0  0  0  0  0  0  0  0  0  0
   63.2882   31.7418   47.8382 H   0  0  0  0  0  0  0  0  0  0  0  0
   61.2700   31.4240   47.1140 C   0  0  0  0  0  0  0  0  0  0  0  0
   61.4560   30.0370   47.0190 O   0  0  0  0  0  0  0  0  0  0  0  0
   60.5220   29.1240   46.5070 C   0  0  0  0  0  0  0  0  0  0  0  0
   60.1800   29.1010   45.1320 C   0  0  0  0  0  0  0  0  0  0  0  0
   60.6608   29.8074   44.4393 H   0  0  0  0  0  0  0  0  0  0  0  0
   59.2330   28.1850   44.6450 C   0  0  0  0  0  0  0  0  0  0  0  0
   58.9780   28.1582   43.5753 H   0  0  0  0  0  0  0  0  0  0  0  0
   58.6220   27.3100   45.5430 C   0  0  0  0  0  0  0  0  0  0  0  0
   57.6870   26.3880   45.1990 N   0  0  0  0  0  0  0  0  0  0  0  0
   57.2750   25.6970   46.2920 C   0  0  0  0  0  0  0  0  0  0  0  0
   56.3730   24.7620   46.2670 N   0  0  0  0  0  0  0  0  0  0  0  0
   55.1980   24.7370   45.4380 C   0  0  0  0  0  0  0  0  0  0  0  0
   54.2630   25.5610   45.6200 O   0  0  0  0  0  0  0  0  0  0  0  0
   55.0480   23.7150   44.3430 C   0  0  0  0  0  0  0  0  0  0  0  0
   53.9595   23.8388   44.2437 H   0  0  0  0  0  0  0  0  0  0  0  0
   56.0260   22.5540   44.4450 C   0  0  0  0  0  0  0  0  0  0  0  0
   56.7506   22.5167   45.2718 H   0  0  0  0  0  0  0  0  0  0  0  0
   55.9312   21.4586   44.4780 H   0  0  0  0  0  0  0  0  0  0  0  0
   56.1870   23.5850   43.3400 C   0  0  0  0  0  0  0  0  0  0  0  0
   57.0276   24.2939   43.3674 H   0  0  0  0  0  0  0  0  0  0  0  0
   56.2566   23.5450   42.2429 H   0  0  0  0  0  0  0  0  0  0  0  0
   58.0450   26.1970   47.7130 S   0  0  0  0  0  0  0  0  0  0  0  0
   58.9460   27.3500   46.8890 C   0  0  0  0  0  0  0  0  0  0  0  0
   59.8820   28.2470   47.3980 C   0  0  0  0  0  0  0  0  0  0  0  0
   60.1146   28.2681   48.4729 H   0  0  0  0  0  0  0  0  0  0  0  0
   60.0670   32.0440   46.7270 C   0  0  0  0  0  0  0  0  0  0  0  0
   59.2269   31.4308   46.3690 H   0  0  0  0  0  0  0  0  0  0  0  0
   57.2480   31.7550   45.1830 C   0  0  0  0  0  0  0  0  0  0  0  0
   57.1650   31.8400   46.2766 H   0  0  0  0  0  0  0  0  0  0  0  0
  1  2  1  0
  2  3  1  0
  3  4  2  0
  4  5  1  0
  4  6  1  0
  6  7  1  0
  6  8  2  0
  8  9  1  0
  8 10  1  0
 10 11  1  0
 11 12  2  0
 11 13  1  0
 13 14  1  0
 14 15  2  0
 15 16  1  0
 15 17  1  0
 17 18  1  0
 17 19  2  0
 19 20  1  0
 19 21  1  0
 21 22  1  0
 22 23  1  0
 23 24  2  0
 24 25  1  0
 24 26  1  0
 26 27  1  0
 26 28  2  0
 28 29  1  0
 29 30  1  0
 30 31  2  0
 31 32  1  0
 32 33  2  0
 32 34  1  0
 34 35  1  0
 34 36  1  0
 36 37  1  0
 36 38  1  0
 36 39  1  0
 39 40  1  0
 39 41  1  0
 30 42  1  0
 42 43  1  0
 43 44  2  0
 44 45  1  0
 21 46  2  0
 46 47  1  0
 10 48  2  0
 48 49  1  0
 48  3  1  0
 46 14  1  0
 44 23  1  0
 43 28  1  0
 39 34  1  0
M  CHG  2  13  -1  29  -1
M  END
>  <UniqueID>  (74) 
72

>  <SMILES>  (74) 
O=C([N-]c1cccc(Oc2ccc3[n-]/c(=N\C(=O)C4CC4)sc3c2)c1)c1cccc(O)c1

>  <Energy>  (74) 
367.8533686507893

>  <Genealogy>  (74) 
O=C([N-]c1cccc(Oc2ccc3[n-]c(=NC(=O)C4CC4)sc3c2)c1)c1cccc(O)c1 (protonated)
O=C([N-]c1cccc(Oc2ccc3[n-]/c(=N\C(=O)C4CC4)sc3c2)c1)c1cccc(O)c1 (cis-trans isomerization)
O=C([N-]c1cccc(Oc2ccc3[n-]/c(=N\C(=O)C4CC4)sc3c2)c1)c1cccc(O)c1 (3D coordinates assigned)
O=C([N-]c1cccc(Oc2ccc3[n-]/c(=N\C(=O)C4CC4)sc3c2)c1)c1cccc(O)c1 (nonaromatic ring conformer: 367.8533686507893 kcal/mol)

>  <smiles>  (74) 
O=C(Nc1cccc(Oc2ccc3[nH]c(=NC(=O)C4CC4)sc3c2)c1)c1cccc(O)c1

>  <score_type>  (74) 
oracle

>  <origin>  (74) 
adg

>  <m_score__min__energy>  (74) 
-12.99

>  <m_primary>  (74) 
energy

$$$$
74:0
     RDKit          3D

 68 71  0  0  0  0  0  0  0  0999 V2000
   59.9660   26.5980   48.8050 O   0  0  0  0  0  0  0  0  0  0  0  0
   59.6380   27.6570   48.2070 C   0  0  0  0  0  0  0  0  0  0  0  0
   59.8700   28.9760   48.8790 C   0  0  0  0  0  0  0  0  0  0  0  0
   59.5350   30.0570   48.0110 O   0  0  0  0  0  0  0  0  0  0  0  0
   60.4850   30.8000   47.3010 C   0  0  0  0  0  0  0  0  0  0  0  0
   60.3530   30.9740   46.0560 O   0  0  0  0  0  0  0  0  0  0  0  0
   61.6460   31.3730   48.0130 C   0  0  0  0  0  0  0  0  0  0  0  0
   62.6070   32.1220   47.3190 C   0  0  0  0  0  0  0  0  0  0  0  0
   63.6950   32.6740   47.9970 C   0  0  0  0  0  0  0  0  0  0  0  0
   63.8230   32.4760   49.3810 C   0  0  0  0  0  0  0  0  0  0  0  0
   64.9240   33.0400   50.1220 N   0  0  0  0  0  0  0  0  0  0  0  0
   64.7810   33.9360   51.2580 C   0  0  0  0  0  0  0  0  0  0  0  0
   66.1960   34.3680   51.6220 C   0  0  0  0  0  0  0  0  0  0  0  0
   67.1220   33.3610   50.9490 C   0  0  0  0  0  0  0  0  0  0  0  0
   66.3140   32.7460   49.8150 C   0  0  0  0  0  0  0  0  0  0  0  0
   62.8800   31.7410   50.0340 N   0  0  0  0  0  0  0  0  0  0  0  0
   61.8140   31.1910   49.3960 C   0  0  0  0  0  0  0  0  0  0  0  0
   58.9710   27.5970   46.9370 N   0  0  0  0  0  0  0  0  0  0  0  0
   58.6570   26.3530   46.2930 C   0  0  0  0  0  0  0  0  0  0  0  0
   59.6220   25.3360   46.2850 C   0  0  0  0  0  0  0  0  0  0  0  0
   59.3600   24.1150   45.6570 C   0  0  0  0  0  0  0  0  0  0  0  0
   58.1230   23.8900   45.0550 C   0  0  0  0  0  0  0  0  0  0  0  0
   57.1440   24.8860   45.0730 C   0  0  0  0  0  0  0  0  0  0  0  0
   57.3980   26.1280   45.6830 C   0  0  0  0  0  0  0  0  0  0  0  0
   56.3040   27.1190   45.7770 C   0  0  0  0  0  0  0  0  0  0  0  0
   55.1320   26.7180   46.0020 O   0  0  0  0  0  0  0  0  0  0  0  0
   56.5330   28.5210   45.5910 N   0  0  0  0  0  0  0  0  0  0  0  0
   55.8130   29.3440   44.6240 C   0  0  0  0  0  0  0  0  0  0  0  0
   56.8030   30.0210   43.6720 C   0  0  0  0  0  0  0  0  0  0  0  0
   57.7500   31.0050   44.3880 C   0  0  0  0  0  0  0  0  0  0  0  0
   57.0350   32.1690   45.1030 C   0  0  0  0  0  0  0  0  0  0  0  0
   57.9870   33.1310   45.7720 C   0  0  0  0  0  0  0  0  0  0  0  0
   58.1270   33.1330   47.1720 C   0  0  0  0  0  0  0  0  0  0  0  0
   58.9630   34.0640   47.7960 C   0  0  0  0  0  0  0  0  0  0  0  0
   59.6720   34.9920   47.0300 C   0  0  0  0  0  0  0  0  0  0  0  0
   59.5620   34.9800   45.6380 C   0  0  0  0  0  0  0  0  0  0  0  0
   58.7320   34.0470   45.0080 C   0  0  0  0  0  0  0  0  0  0  0  0
   59.2462   29.0339   49.7831 H   0  0  0  0  0  0  0  0  0  0  0  0
   60.9356   29.0537   49.1408 H   0  0  0  0  0  0  0  0  0  0  0  0
   62.5029   32.2753   46.2347 H   0  0  0  0  0  0  0  0  0  0  0  0
   64.4478   33.2607   47.4501 H   0  0  0  0  0  0  0  0  0  0  0  0
   64.1718   34.8097   50.9832 H   0  0  0  0  0  0  0  0  0  0  0  0
   64.2764   33.4440   52.1026 H   0  0  0  0  0  0  0  0  0  0  0  0
   66.3955   35.3826   51.2468 H   0  0  0  0  0  0  0  0  0  0  0  0
   66.3453   34.3911   52.7116 H   0  0  0  0  0  0  0  0  0  0  0  0
   68.0145   33.8671   50.5524 H   0  0  0  0  0  0  0  0  0  0  0  0
   67.4710   32.5958   51.6581 H   0  0  0  0  0  0  0  0  0  0  0  0
   66.5983   33.1964   48.8526 H   0  0  0  0  0  0  0  0  0  0  0  0
   66.4919   31.6639   49.7284 H   0  0  0  0  0  0  0  0  0  0  0  0
   61.0798   30.6011   49.9643 H   0  0  0  0  0  0  0  0  0  0  0  0
   58.4990   28.4600   46.5890 H   0  0  0  0  0  0  0  0  0  0  0  0
   60.5923   25.5001   46.7765 H   0  0  0  0  0  0  0  0  0  0  0  0
   60.1310   23.3306   45.6378 H   0  0  0  0  0  0  0  0  0  0  0  0
   57.9176   22.9267   44.5651 H   0  0  0  0  0  0  0  0  0  0  0  0
   56.1659   24.6977   44.6062 H   0  0  0  0  0  0  0  0  0  0  0  0
   55.1268   28.7089   44.0446 H   0  0  0  0  0  0  0  0  0  0  0  0
   55.2429   30.1164   45.1610 H   0  0  0  0  0  0  0  0  0  0  0  0
   57.4090   29.2429   43.1849 H   0  0  0  0  0  0  0  0  0  0  0  0
   56.2160   30.5999   42.9438 H   0  0  0  0  0  0  0  0  0  0  0  0
   58.3275   30.4436   45.1371 H   0  0  0  0  0  0  0  0  0  0  0  0
   58.3828   31.4555   43.6092 H   0  0  0  0  0  0  0  0  0  0  0  0
   56.4418   32.7235   44.3609 H   0  0  0  0  0  0  0  0  0  0  0  0
   56.4055   31.7308   45.8915 H   0  0  0  0  0  0  0  0  0  0  0  0
   57.5763   32.3988   47.7784 H   0  0  0  0  0  0  0  0  0  0  0  0
   59.0624   34.0655   48.8915 H   0  0  0  0  0  0  0  0  0  0  0  0
   60.3177   35.7331   47.5237 H   0  0  0  0  0  0  0  0  0  0  0  0
   60.1290   35.7054   45.0360 H   0  0  0  0  0  0  0  0  0  0  0  0
   58.6617   34.0296   43.9104 H   0  0  0  0  0  0  0  0  0  0  0  0
  1  2  2  0
  2  3  1  0
  3  4  1  0
  4  5  1  0
  5  6  2  0
  5  7  1  0
  7  8  2  0
  8  9  1  0
  9 10  2  0
 10 11  1  0
 11 12  1  0
 12 13  1  0
 13 14  1  0
 14 15  1  0
 10 16  1  0
 16 17  2  0
  2 18  1  0
 18 19  1  0
 19 20  2  0
 20 21  1  0
 21 22  2  0
 22 23  1  0
 23 24  2  0
 24 25  1  0
 25 26  2  0
 25 27  1  0
 27 28  1  0
 28 29  1  0
 29 30  1  0
 30 31  1  0
 31 32  1  0
 32 33  2  0
 33 34  1  0
 34 35  2  0
 35 36  1  0
 36 37  2  0
 17  7  1  0
 24 19  1  0
 37 32  1  0
 15 11  1  0
  3 38  1  0
  3 39  1  0
  8 40  1  0
  9 41  1  0
 12 42  1  0
 12 43  1  0
 13 44  1  0
 13 45  1  0
 14 46  1  0
 14 47  1  0
 15 48  1  0
 15 49  1  0
 17 50  1  0
 18 51  1  0
 20 52  1  0
 21 53  1  0
 22 54  1  0
 23 55  1  0
 28 56  1  0
 28 57  1  0
 29 58  1  0
 29 59  1  0
 30 60  1  0
 30 61  1  0
 31 62  1  0
 31 63  1  0
 33 64  1  0
 34 65  1  0
 35 66  1  0
 36 67  1  0
 37 68  1  0
M  CHG  1  27  -1
M  END
>  <UniqueID>  (75) 
73

>  <SMILES>  (75) 
O=C(COC(=O)c1ccc(N2CCCC2)nc1)Nc1ccccc1C(=O)[N-]CCCCc1ccccc1

>  <Energy>  (75) 
72.23104366026696

>  <Genealogy>  (75) 
O=C(COC(=O)c1ccc(N2CCCC2)nc1)Nc1ccccc1C(=O)[N-]CCCCc1ccccc1 (protonated)
O=C(COC(=O)c1ccc(N2CCCC2)nc1)Nc1ccccc1C(=O)[N-]CCCCc1ccccc1 (3D coordinates assigned)
O=C(COC(=O)c1ccc(N2CCCC2)nc1)Nc1ccccc1C(=O)[N-]CCCCc1ccccc1 (nonaromatic ring conformer: 72.23104366026696 kcal/mol)

>  <smiles>  (75) 
O=C(COC(=O)c1ccc(N2CCCC2)nc1)Nc1ccccc1C(=O)NCCCCc1ccccc1

>  <score_type>  (75) 
oracle

>  <origin>  (75) 
adg

>  <m_score__min__energy>  (75) 
-10.94

>  <m_primary>  (75) 
energy

$$$$
75:0
     RDKit          3D

 52 55  0  0  0  0  0  0  0  0999 V2000
   63.6910   33.2480   48.8770 C   0  0  0  0  0  0  0  0  0  0  0  0
   62.6430   32.6900   47.9710 C   0  0  0  0  0  0  0  0  0  0  0  0
   61.5660   33.3810   47.5510 N   0  0  0  0  0  0  0  0  0  0  0  0
   60.9320   32.4610   46.7870 C   0  0  0  0  0  0  0  0  0  0  0  0
   59.6190   32.6980   46.1220 C   0  0  0  0  0  0  0  0  0  0  0  0
   59.0670   33.9940   46.0650 C   0  0  0  0  0  0  0  0  0  0  0  0
   57.8050   34.2060   45.5020 C   0  0  0  0  0  0  0  0  0  0  0  0
   57.0780   33.1290   44.9940 C   0  0  0  0  0  0  0  0  0  0  0  0
   57.6120   31.8250   45.0250 C   0  0  0  0  0  0  0  0  0  0  0  0
   56.8250   30.6660   44.5360 C   0  0  0  0  0  0  0  0  0  0  0  0
   55.6160   30.8120   44.2060 O   0  0  0  0  0  0  0  0  0  0  0  0
   57.4430   29.3890   44.3380 N   0  0  0  0  0  0  0  0  0  0  0  0
   58.2980   28.7200   45.2780 C   0  0  0  0  0  0  0  0  0  0  0  0
   59.6470   28.4420   44.9950 C   0  0  0  0  0  0  0  0  0  0  0  0
   60.4530   27.8100   45.9510 C   0  0  0  0  0  0  0  0  0  0  0  0
   59.9190   27.4450   47.1930 C   0  0  0  0  0  0  0  0  0  0  0  0
   60.7590   26.7420   48.2200 C   0  0  0  0  0  0  0  0  0  0  0  0
   60.6820   27.4720   49.4950 N   0  0  0  0  0  0  0  0  0  0  0  0
   61.1300   28.8630   49.3550 C   0  0  0  0  0  0  0  0  0  0  0  0
   60.0240   29.7980   49.7350 C   0  0  0  0  0  0  0  0  0  0  0  0
   59.0460   29.3660   50.4010 O   0  0  0  0  0  0  0  0  0  0  0  0
   60.0400   31.1530   49.2660 N   0  0  0  0  0  0  0  0  0  0  0  0
   58.9260   32.0620   49.5130 C   0  0  0  0  0  0  0  0  0  0  0  0
   58.8180   32.5000   50.9650 C   0  0  0  0  0  0  0  0  0  0  0  0
   59.3600   33.4640   49.9170 C   0  0  0  0  0  0  0  0  0  0  0  0
   58.5700   27.7210   47.4670 C   0  0  0  0  0  0  0  0  0  0  0  0
   57.7690   28.3590   46.5160 C   0  0  0  0  0  0  0  0  0  0  0  0
   58.8870   31.6250   45.5860 C   0  0  0  0  0  0  0  0  0  0  0  0
   61.5930   31.2870   46.7530 N   0  0  0  0  0  0  0  0  0  0  0  0
   62.6470   31.4700   47.4950 O   0  0  0  0  0  0  0  0  0  0  0  0
   63.3930   33.0893   49.9239 H   0  0  0  0  0  0  0  0  0  0  0  0
   64.6481   32.7401   48.6872 H   0  0  0  0  0  0  0  0  0  0  0  0
   63.8039   34.3256   48.6872 H   0  0  0  0  0  0  0  0  0  0  0  0
   59.6345   34.8462   46.4672 H   0  0  0  0  0  0  0  0  0  0  0  0
   57.3853   35.2219   45.4596 H   0  0  0  0  0  0  0  0  0  0  0  0
   56.0793   33.2991   44.5655 H   0  0  0  0  0  0  0  0  0  0  0  0
   60.0711   28.7218   44.0194 H   0  0  0  0  0  0  0  0  0  0  0  0
   61.5089   27.5998   45.7252 H   0  0  0  0  0  0  0  0  0  0  0  0
   60.3857   25.7169   48.3606 H   0  0  0  0  0  0  0  0  0  0  0  0
   61.8042   26.7063   47.8788 H   0  0  0  0  0  0  0  0  0  0  0  0
   59.6800   27.4850   49.7990 H   0  0  0  0  0  0  0  0  0  0  0  0
   61.9947   29.0352   50.0128 H   0  0  0  0  0  0  0  0  0  0  0  0
   61.4148   29.0470   48.3086 H   0  0  0  0  0  0  0  0  0  0  0  0
   60.9020   31.5230   48.8100 H   0  0  0  0  0  0  0  0  0  0  0  0
   58.2324   31.6463   48.7673 H   0  0  0  0  0  0  0  0  0  0  0  0
   57.8295   32.6752   51.4145 H   0  0  0  0  0  0  0  0  0  0  0  0
   59.1851   32.1080   51.9250 H   0  0  0  0  0  0  0  0  0  0  0  0
   58.7628   34.3350   49.6093 H   0  0  0  0  0  0  0  0  0  0  0  0
   60.2803   34.0563   49.8060 H   0  0  0  0  0  0  0  0  0  0  0  0
   58.1402   27.4329   48.4377 H   0  0  0  0  0  0  0  0  0  0  0  0
   56.7156   28.5774   46.7456 H   0  0  0  0  0  0  0  0  0  0  0  0
   59.3173   30.6128   45.6052 H   0  0  0  0  0  0  0  0  0  0  0  0
  1  2  1  0
  2  3  2  0
  3  4  1  0
  4  5  1  0
  5  6  2  0
  6  7  1  0
  7  8  2  0
  8  9  1  0
  9 10  1  0
 10 11  2  0
 10 12  1  0
 12 13  1  0
 13 14  2  0
 14 15  1  0
 15 16  2  0
 16 17  1  0
 17 18  1  0
 18 19  1  0
 19 20  1  0
 20 21  2  0
 20 22  1  0
 22 23  1  0
 23 24  1  0
 24 25  1  0
 16 26  1  0
 26 27  2  0
  9 28  2  0
  4 29  2  0
 29 30  1  0
 30  2  1  0
 28  5  1  0
 27 13  1  0
 25 23  1  0
  1 31  1  0
  1 32  1  0
  1 33  1  0
  6 34  1  0
  7 35  1  0
  8 36  1  0
 14 37  1  0
 15 38  1  0
 17 39  1  0
 17 40  1  0
 18 41  1  0
 19 42  1  0
 19 43  1  0
 22 44  1  0
 23 45  1  0
 24 46  1  0
 24 47  1  0
 25 48  1  0
 25 49  1  0
 26 50  1  0
 27 51  1  0
 28 52  1  0
M  CHG  1  12  -1
M  END
>  <UniqueID>  (76) 
74

>  <SMILES>  (76) 
Cc1nc(-c2cccc(C(=O)[N-]c3ccc(CNCC(=O)NC4CC4)cc3)c2)no1

>  <Energy>  (76) 
357.3811763485217

>  <Genealogy>  (76) 
Cc1nc(-c2cccc(C(=O)[N-]c3ccc(CNCC(=O)NC4CC4)cc3)c2)no1 (protonated)
Cc1nc(-c2cccc(C(=O)[N-]c3ccc(CNCC(=O)NC4CC4)cc3)c2)no1 (3D coordinates assigned)
Cc1nc(-c2cccc(C(=O)[N-]c3ccc(CNCC(=O)NC4CC4)cc3)c2)no1 (nonaromatic ring conformer: 357.3811763485217 kcal/mol)

>  <smiles>  (76) 
Cc1nc(-c2cccc(C(=O)Nc3ccc(CNCC(=O)NC4CC4)cc3)c2)no1

>  <score_type>  (76) 
oracle

>  <origin>  (76) 
adg

>  <m_score__min__energy>  (76) 
-10.460000000000001

>  <m_primary>  (76) 
energy

$$$$
76:0
     RDKit          3D

 54 58  0  0  0  0  0  0  0  0999 V2000
   58.1640   26.0050   44.5280 C   0  0  0  0  0  0  0  0  0  0  0  0
   58.3890   26.6980   45.6550 C   0  0  0  0  0  0  0  0  0  0  0  0
   57.9610   26.3440   46.9400 C   0  0  0  0  0  0  0  0  0  0  0  0
   57.2230   25.2730   47.2910 C   0  0  0  0  0  0  0  0  0  0  0  0
   56.3200   24.5580   46.3710 C   0  0  0  0  0  0  0  0  0  0  0  0
   56.4290   23.2450   46.1020 N   0  0  0  0  0  0  0  0  0  0  0  0
   55.3720   23.0010   45.2980 C   0  0  0  0  0  0  0  0  0  0  0  0
   55.1360   21.8620   44.8170 O   0  0  0  0  0  0  0  0  0  0  0  0
   54.5820   24.0690   45.0590 N   0  0  0  0  0  0  0  0  0  0  0  0
   55.1870   25.0450   45.7550 C   0  0  0  0  0  0  0  0  0  0  0  0
   54.6920   26.3410   45.8610 O   0  0  0  0  0  0  0  0  0  0  0  0
   58.3970   27.3520   47.7880 C   0  0  0  0  0  0  0  0  0  0  0  0
   59.0870   28.2520   47.0050 C   0  0  0  0  0  0  0  0  0  0  0  0
   59.7000   29.4850   47.5190 C   0  0  0  0  0  0  0  0  0  0  0  0
   60.5750   29.4040   48.4220 O   0  0  0  0  0  0  0  0  0  0  0  0
   59.3130   30.7720   47.0120 N   0  0  0  0  0  0  0  0  0  0  0  0
   58.1880   31.0400   46.1720 C   0  0  0  0  0  0  0  0  0  0  0  0
   57.3040   30.1960   45.8680 O   0  0  0  0  0  0  0  0  0  0  0  0
   58.2490   32.3980   45.6970 C   0  0  0  0  0  0  0  0  0  0  0  0
   57.3820   33.1050   44.8650 C   0  0  0  0  0  0  0  0  0  0  0  0
   57.7060   34.4350   44.5520 C   0  0  0  0  0  0  0  0  0  0  0  0
   58.8800   35.0220   45.0670 C   0  0  0  0  0  0  0  0  0  0  0  0
   59.7380   34.2840   45.8990 C   0  0  0  0  0  0  0  0  0  0  0  0
   59.3970   32.9650   46.2080 C   0  0  0  0  0  0  0  0  0  0  0  0
   60.1510   31.9790   47.0640 C   0  0  1  0  0  0  0  0  0  0  0  0
   60.2930   32.4650   48.4900 C   0  0  0  0  0  0  0  0  0  0  0  0
   61.5320   32.9480   48.9460 C   0  0  0  0  0  0  0  0  0  0  0  0
   61.6810   33.3630   50.2730 C   0  0  0  0  0  0  0  0  0  0  0  0
   60.6010   33.2940   51.1560 C   0  0  0  0  0  0  0  0  0  0  0  0
   59.3680   32.8100   50.7140 C   0  0  0  0  0  0  0  0  0  0  0  0
   59.2120   32.3960   49.3880 C   0  0  0  0  0  0  0  0  0  0  0  0
   59.0790   27.8680   45.7070 N   0  0  0  0  0  0  0  0  0  0  0  0
   59.6560   28.6180   44.5810 C   0  0  0  0  0  0  0  0  0  0  0  0
   61.1760   28.6870   44.6920 C   0  0  0  0  0  0  0  0  0  0  0  0
   58.5486   26.3776   43.5672 H   0  0  0  0  0  0  0  0  0  0  0  0
   57.5950   25.0643   44.5651 H   0  0  0  0  0  0  0  0  0  0  0  0
   57.2988   24.9101   48.3267 H   0  0  0  0  0  0  0  0  0  0  0  0
   54.3760   26.7020   46.7530 H   0  0  0  0  0  0  0  0  0  0  0  0
   58.2255   27.4195   48.8725 H   0  0  0  0  0  0  0  0  0  0  0  0
   56.4712   32.6349   44.4656 H   0  0  0  0  0  0  0  0  0  0  0  0
   57.0406   35.0219   43.9018 H   0  0  0  0  0  0  0  0  0  0  0  0
   59.1255   36.0644   44.8157 H   0  0  0  0  0  0  0  0  0  0  0  0
   60.6584   34.7348   46.2985 H   0  0  0  0  0  0  0  0  0  0  0  0
   61.1787   31.8167   46.7068 H   0  0  0  0  0  0  0  0  0  0  0  0
   62.3874   32.9997   48.2564 H   0  0  0  0  0  0  0  0  0  0  0  0
   62.6516   33.7449   50.6225 H   0  0  0  0  0  0  0  0  0  0  0  0
   60.7217   33.6209   52.1994 H   0  0  0  0  0  0  0  0  0  0  0  0
   58.5182   32.7544   51.4103 H   0  0  0  0  0  0  0  0  0  0  0  0
   58.2391   32.0143   49.0448 H   0  0  0  0  0  0  0  0  0  0  0  0
   59.3864   28.1173   43.6394 H   0  0  0  0  0  0  0  0  0  0  0  0
   59.2562   29.6426   44.6007 H   0  0  0  0  0  0  0  0  0  0  0  0
   61.4659   28.7002   45.7530 H   0  0  0  0  0  0  0  0  0  0  0  0
   61.6197   27.8081   44.2015 H   0  0  0  0  0  0  0  0  0  0  0  0
   61.5383   29.6025   44.2015 H   0  0  0  0  0  0  0  0  0  0  0  0
  1  2  2  0
  2  3  1  0
  3  4  2  3
  4  5  1  0
  5  6  1  0
  6  7  1  0
  7  8  2  0
  7  9  1  0
  9 10  1  0
 10 11  1  0
  3 12  1  0
 12 13  2  0
 13 14  1  0
 14 15  2  0
 14 16  1  0
 16 17  1  0
 17 18  2  0
 17 19  1  0
 19 20  2  0
 20 21  1  0
 21 22  2  0
 22 23  1  0
 23 24  2  0
 24 25  1  0
 25 26  1  0
 26 27  2  0
 27 28  1  0
 28 29  2  0
 29 30  1  0
 30 31  2  0
 13 32  1  0
 32 33  1  0
 33 34  1  0
 32  2  1  0
 10  5  2  0
 25 16  1  0
 31 26  1  0
 24 19  1  0
  1 35  1  0
  1 36  1  0
  4 37  1  0
 11 38  1  0
 12 39  1  0
 20 40  1  0
 21 41  1  0
 22 42  1  0
 23 43  1  0
 25 44  1  6
 27 45  1  0
 28 46  1  0
 29 47  1  0
 30 48  1  0
 31 49  1  0
 33 50  1  0
 33 51  1  0
 34 52  1  0
 34 53  1  0
 34 54  1  0
M  CHG  2   6  -1   9  -1
M  END
>  <UniqueID>  (77) 
75

>  <SMILES>  (77) 
C=c1c(=Cc2[n-]c(=O)[n-]c2O)cc(C(=O)N2C(=O)c3ccccc3[C@H]2c2ccccc2)n1CC

>  <Energy>  (77) 
148.67516411394033

>  <Genealogy>  (77) 
C=c1c(=Cc2[n-]c(=O)[n-]c2O)cc(C(=O)N2C(=O)c3ccccc3C2c2ccccc2)n1CC (protonated)
C=c1c(=Cc2[n-]c(=O)[n-]c2O)cc(C(=O)N2C(=O)c3ccccc3[C@H]2c2ccccc2)n1CC (chirality)
C=c1c(=Cc2[n-]c(=O)[n-]c2O)cc(C(=O)N2C(=O)c3ccccc3[C@H]2c2ccccc2)n1CC (3D coordinates assigned)
C=c1c(=Cc2[n-]c(=O)[n-]c2O)cc(C(=O)N2C(=O)c3ccccc3[C@H]2c2ccccc2)n1CC (nonaromatic ring conformer: 148.67516411394033 kcal/mol)

>  <smiles>  (77) 
C=c1c(=Cc2[nH]c(=O)[nH]c2O)cc(C(=O)N2C(=O)c3ccccc3C2c2ccccc2)n1CC

>  <score_type>  (77) 
oracle

>  <origin>  (77) 
adg

>  <m_score__min__energy>  (77) 
-14.609999999999999

>  <m_primary>  (77) 
energy

$$$$
77:0
     RDKit          3D

 55 57  0  0  0  0  0  0  0  0999 V2000
   60.3630   28.2700   51.3590 C   0  0  0  0  0  0  0  0  0  0  0  0
   59.9960   29.7340   51.0720 C   0  0  0  0  0  0  0  0  0  0  0  0
   58.4740   29.8100   50.8290 C   0  0  0  0  0  0  0  0  0  0  0  0
   60.7870   30.5190   49.9320 C   0  0  1  0  0  0  0  0  0  0  0  0
   60.6940   29.5860   48.6370 C   0  0  0  0  0  0  0  0  0  0  0  0
   61.1470   30.1400   47.3510 N   0  0  0  0  0  0  0  0  0  0  0  0
   60.7010   29.6220   46.0740 C   0  0  0  0  0  0  0  0  0  0  0  0
   61.5570   29.3080   45.1980 O   0  0  0  0  0  0  0  0  0  0  0  0
   59.2670   29.4610   45.7360 C   0  0  0  0  0  0  0  0  0  0  0  0
   58.4950   30.5900   45.4220 C   0  0  0  0  0  0  0  0  0  0  0  0
   57.1390   30.4570   45.1090 C   0  0  0  0  0  0  0  0  0  0  0  0
   56.5420   29.1920   45.0910 C   0  0  0  0  0  0  0  0  0  0  0  0
   55.1910   29.0800   44.7830 O   0  0  0  0  0  0  0  0  0  0  0  0
   57.3090   28.0480   45.3770 C   0  0  0  0  0  0  0  0  0  0  0  0
   56.7150   26.7450   45.3480 N   0  0  0  0  0  0  0  0  0  0  0  0
   58.6690   28.1890   45.6910 C   0  0  0  0  0  0  0  0  0  0  0  0
   62.0460   31.3030   47.3990 C   0  0  0  0  0  0  0  0  0  0  0  0
   61.2140   32.5780   47.4400 C   0  0  0  0  0  0  0  0  0  0  0  0
   60.0830   32.3660   48.4050 C   0  0  0  0  0  0  0  0  0  0  0  0
   58.9610   32.7050   48.0600 O   0  0  0  0  0  0  0  0  0  0  0  0
   60.3600   31.9690   49.7770 N   0  0  2  0  0  0  0  0  0  0  0  0
   61.2770   32.9990   50.3740 C   0  0  0  0  0  0  0  0  0  0  0  0
   62.7690   32.6830   50.3300 C   0  0  0  0  0  0  0  0  0  0  0  0
   63.6170   33.3160   49.4030 C   0  0  0  0  0  0  0  0  0  0  0  0
   64.9720   32.9760   49.3300 C   0  0  0  0  0  0  0  0  0  0  0  0
   65.4950   31.9840   50.1600 C   0  0  0  0  0  0  0  0  0  0  0  0
   64.6570   31.3180   51.0560 C   0  0  0  0  0  0  0  0  0  0  0  0
   63.3000   31.6520   51.1330 C   0  0  0  0  0  0  0  0  0  0  0  0
   60.4035   28.1085   52.4463 H   0  0  0  0  0  0  0  0  0  0  0  0
   59.6030   27.6082   50.9181 H   0  0  0  0  0  0  0  0  0  0  0  0
   61.3453   28.0450   50.9181 H   0  0  0  0  0  0  0  0  0  0  0  0
   60.3257   30.2737   51.9720 H   0  0  0  0  0  0  0  0  0  0  0  0
   57.9493   29.8362   51.7954 H   0  0  0  0  0  0  0  0  0  0  0  0
   58.2387   30.7210   50.2592 H   0  0  0  0  0  0  0  0  0  0  0  0
   58.1491   28.9270   50.2592 H   0  0  0  0  0  0  0  0  0  0  0  0
   61.8471   30.6734   50.1819 H   0  0  0  0  0  0  0  0  0  0  0  0
   61.2974   28.6883   48.8369 H   0  0  0  0  0  0  0  0  0  0  0  0
   59.6161   29.4164   48.4980 H   0  0  0  0  0  0  0  0  0  0  0  0
   58.9602   31.5868   45.4221 H   0  0  0  0  0  0  0  0  0  0  0  0
   56.5398   31.3496   44.8762 H   0  0  0  0  0  0  0  0  0  0  0  0
   55.7150   26.6100   45.0760 H   0  0  0  0  0  0  0  0  0  0  0  0
   57.2760   25.8990   45.5970 H   0  0  0  0  0  0  0  0  0  0  0  0
   59.2739   27.2953   45.9042 H   0  0  0  0  0  0  0  0  0  0  0  0
   62.6748   31.2450   48.2997 H   0  0  0  0  0  0  0  0  0  0  0  0
   62.6891   31.3100   46.5066 H   0  0  0  0  0  0  0  0  0  0  0  0
   61.8377   33.4196   47.7756 H   0  0  0  0  0  0  0  0  0  0  0  0
   60.8223   32.8099   46.4386 H   0  0  0  0  0  0  0  0  0  0  0  0
   59.4530   32.0620   50.2920 H   0  0  0  0  0  0  0  0  0  0  0  0
   61.1183   33.9431   49.8322 H   0  0  0  0  0  0  0  0  0  0  0  0
   61.0172   33.0388   51.4421 H   0  0  0  0  0  0  0  0  0  0  0  0
   63.2110   34.0852   48.7296 H   0  0  0  0  0  0  0  0  0  0  0  0
   65.6283   33.4933   48.6147 H   0  0  0  0  0  0  0  0  0  0  0  0
   66.5635   31.7277   50.1086 H   0  0  0  0  0  0  0  0  0  0  0  0
   65.0646   30.5279   51.7038 H   0  0  0  0  0  0  0  0  0  0  0  0
   62.6422   31.1061   51.8253 H   0  0  0  0  0  0  0  0  0  0  0  0
  1  2  1  0
  2  3  1  0
  2  4  1  0
  4  5  1  0
  5  6  1  0
  6  7  1  0
  7  8  2  0
  7  9  1  0
  9 10  2  0
 10 11  1  0
 11 12  2  0
 12 13  1  0
 12 14  1  0
 14 15  1  0
 14 16  2  0
  6 17  1  0
 17 18  1  0
 18 19  1  0
 19 20  2  0
 19 21  1  0
 21 22  1  0
 22 23  1  0
 23 24  2  0
 24 25  1  0
 25 26  2  0
 26 27  1  0
 27 28  2  0
 21  4  1  0
 28 23  1  0
 16  9  1  0
  1 29  1  0
  1 30  1  0
  1 31  1  0
  2 32  1  0
  3 33  1  0
  3 34  1  0
  3 35  1  0
  4 36  1  1
  5 37  1  0
  5 38  1  0
 10 39  1  0
 11 40  1  0
 15 41  1  0
 15 42  1  0
 16 43  1  0
 17 44  1  0
 17 45  1  0
 18 46  1  0
 18 47  1  0
 21 48  1  1
 22 49  1  0
 22 50  1  0
 24 51  1  0
 25 52  1  0
 26 53  1  0
 27 54  1  0
 28 55  1  0
M  CHG  2  13  -1  21   1
M  END
>  <UniqueID>  (78) 
76

>  <SMILES>  (78) 
CC(C)[C@H]1CN(C(=O)c2ccc([O-])c(N)c2)CCC(=O)[N@@H+]1Cc1ccccc1

>  <Energy>  (78) 
97.73953316351295

>  <Genealogy>  (78) 
CC(C)C1CN(C(=O)c2ccc([O-])c(N)c2)CCC(=O)[NH+]1Cc1ccccc1 (protonated)
CC(C)[C@H]1CN(C(=O)c2ccc([O-])c(N)c2)CCC(=O)[N@@H+]1Cc1ccccc1 (chirality)
CC(C)[C@H]1CN(C(=O)c2ccc([O-])c(N)c2)CCC(=O)[N@@H+]1Cc1ccccc1 (3D coordinates assigned)
CC(C)[C@H]1CN(C(=O)c2ccc([O-])c(N)c2)CCC(=O)[N@@H+]1Cc1ccccc1 (nonaromatic ring conformer: 97.73953316351295 kcal/mol)

>  <smiles>  (78) 
CC(C)C1CN(C(=O)c2ccc(O)c(N)c2)CCC(=O)N1Cc1ccccc1

>  <score_type>  (78) 
oracle

>  <origin>  (78) 
adg

>  <m_score__min__energy>  (78) 
-8.6999999999999993

>  <m_primary>  (78) 
energy

$$$$
78:0
     RDKit          3D

 52 54  0  0  0  0  0  0  0  0999 V2000
   59.1920   27.8450   43.7910 C   0  0  0  0  0  0  0  0  0  0  0  0
   60.0050   28.1650   45.3420 S   0  0  0  0  0  0  0  0  0  0  0  0
   60.8060   26.9610   45.7490 O   0  0  0  0  0  0  0  0  0  0  0  0
   60.9380   29.3320   45.1820 O   0  0  0  0  0  0  0  0  0  0  0  0
   58.8190   28.5140   46.5660 N   0  0  0  0  0  0  0  0  0  0  0  0
   57.3940   28.4410   46.2200 C   0  0  0  0  0  0  0  0  0  0  0  0
   57.0090   29.5890   45.3370 C   0  0  0  0  0  0  0  0  0  0  0  0
   55.8130   29.7160   44.9660 O   0  0  0  0  0  0  0  0  0  0  0  0
   58.0280   30.4730   44.8530 N   0  0  0  0  0  0  0  0  0  0  0  0
   58.2400   31.8470   45.2030 C   0  0  0  0  0  0  0  0  0  0  0  0
   57.6150   32.9060   44.5210 C   0  0  0  0  0  0  0  0  0  0  0  0
   57.8250   34.2250   44.9310 C   0  0  0  0  0  0  0  0  0  0  0  0
   58.6320   34.4970   46.0390 C   0  0  0  0  0  0  0  0  0  0  0  0
   59.2260   33.4480   46.7570 C   0  0  0  0  0  0  0  0  0  0  0  0
   60.0530   33.7290   47.9530 C   0  0  0  0  0  0  0  0  0  0  0  0
   59.5780   34.4330   48.8850 O   0  0  0  0  0  0  0  0  0  0  0  0
   61.3990   33.2340   48.0580 N   0  0  0  0  0  0  0  0  0  0  0  0
   62.4360   34.0940   48.6350 C   0  0  0  0  0  0  0  0  0  0  0  0
   63.8100   33.4390   48.4860 C   0  0  0  0  0  0  0  0  0  0  0  0
   63.8900   32.8020   47.2280 O   0  0  0  0  0  0  0  0  0  0  0  0
   63.0980   31.6260   47.2180 C   0  0  0  0  0  0  0  0  0  0  0  0
   61.6910   31.8110   47.8340 C   0  0  0  0  0  0  0  0  0  0  0  0
   59.0360   32.1270   46.3190 C   0  0  0  0  0  0  0  0  0  0  0  0
   59.2330   28.9880   47.8620 C   0  0  0  0  0  0  0  0  0  0  0  0
   58.5420   30.0370   48.4900 C   0  0  0  0  0  0  0  0  0  0  0  0
   58.9680   30.5200   49.7300 C   0  0  0  0  0  0  0  0  0  0  0  0
   60.0920   29.9670   50.3540 C   0  0  0  0  0  0  0  0  0  0  0  0
   60.5070   30.4600   51.5890 O   0  0  0  0  0  0  0  0  0  0  0  0
   60.7890   28.9240   49.7300 C   0  0  0  0  0  0  0  0  0  0  0  0
   60.3630   28.4380   48.4910 C   0  0  0  0  0  0  0  0  0  0  0  0
   58.1837   27.4481   43.9805 H   0  0  0  0  0  0  0  0  0  0  0  0
   59.1160   28.7803   43.2170 H   0  0  0  0  0  0  0  0  0  0  0  0
   59.7739   27.1088   43.2170 H   0  0  0  0  0  0  0  0  0  0  0  0
   57.1976   27.4963   45.6918 H   0  0  0  0  0  0  0  0  0  0  0  0
   56.8004   28.4888   47.1448 H   0  0  0  0  0  0  0  0  0  0  0  0
   56.9595   32.6956   43.6631 H   0  0  0  0  0  0  0  0  0  0  0  0
   57.3536   35.0521   44.3799 H   0  0  0  0  0  0  0  0  0  0  0  0
   58.8023   35.5384   46.3497 H   0  0  0  0  0  0  0  0  0  0  0  0
   62.4367   35.0622   48.1130 H   0  0  0  0  0  0  0  0  0  0  0  0
   62.2240   34.2433   49.7040 H   0  0  0  0  0  0  0  0  0  0  0  0
   64.5933   34.2078   48.5589 H   0  0  0  0  0  0  0  0  0  0  0  0
   63.9524   32.6961   49.2847 H   0  0  0  0  0  0  0  0  0  0  0  0
   62.9787   31.2979   46.1749 H   0  0  0  0  0  0  0  0  0  0  0  0
   63.6221   30.8835   47.8377 H   0  0  0  0  0  0  0  0  0  0  0  0
   60.9397   31.3929   47.1478 H   0  0  0  0  0  0  0  0  0  0  0  0
   61.6600   31.2895   48.8020 H   0  0  0  0  0  0  0  0  0  0  0  0
   59.5198   31.3011   46.8610 H   0  0  0  0  0  0  0  0  0  0  0  0
   57.6609   30.4806   48.0032 H   0  0  0  0  0  0  0  0  0  0  0  0
   58.4177   31.3382   50.2177 H   0  0  0  0  0  0  0  0  0  0  0  0
   60.8860   29.8500   52.3020 H   0  0  0  0  0  0  0  0  0  0  0  0
   61.6734   28.4868   50.2164 H   0  0  0  0  0  0  0  0  0  0  0  0
   60.9154   27.6202   48.0052 H   0  0  0  0  0  0  0  0  0  0  0  0
  1  2  1  0
  2  3  2  0
  2  4  2  0
  2  5  1  0
  5  6  1  0
  6  7  1  0
  7  8  2  0
  7  9  1  0
  9 10  1  0
 10 11  2  0
 11 12  1  0
 12 13  2  0
 13 14  1  0
 14 15  1  0
 15 16  2  0
 15 17  1  0
 17 18  1  0
 18 19  1  0
 19 20  1  0
 20 21  1  0
 21 22  1  0
 14 23  2  0
  5 24  1  0
 24 25  2  0
 25 26  1  0
 26 27  2  0
 27 28  1  0
 27 29  1  0
 29 30  2  0
 23 10  1  0
 30 24  1  0
 22 17  1  0
  1 31  1  0
  1 32  1  0
  1 33  1  0
  6 34  1  0
  6 35  1  0
 11 36  1  0
 12 37  1  0
 13 38  1  0
 18 39  1  0
 18 40  1  0
 19 41  1  0
 19 42  1  0
 21 43  1  0
 21 44  1  0
 22 45  1  0
 22 46  1  0
 23 47  1  0
 25 48  1  0
 26 49  1  0
 28 50  1  0
 29 51  1  0
 30 52  1  0
M  CHG  1   9  -1
M  END
>  <UniqueID>  (79) 
77

>  <SMILES>  (79) 
CS(=O)(=O)N(CC(=O)[N-]c1cccc(C(=O)N2CCOCC2)c1)c1ccc(O)cc1

>  <Energy>  (79) 
64.42784763004607

>  <Genealogy>  (79) 
CS(=O)(=O)N(CC(=O)[N-]c1cccc(C(=O)N2CCOCC2)c1)c1ccc(O)cc1 (protonated)
CS(=O)(=O)N(CC(=O)[N-]c1cccc(C(=O)N2CCOCC2)c1)c1ccc(O)cc1 (3D coordinates assigned)
CS(=O)(=O)N(CC(=O)[N-]c1cccc(C(=O)N2CCOCC2)c1)c1ccc(O)cc1 (nonaromatic ring conformer: 64.42784763004607 kcal/mol)

>  <smiles>  (79) 
CS(=O)(=O)N(CC(=O)Nc1cccc(C(=O)N2CCOCC2)c1)c1ccc(O)cc1

>  <score_type>  (79) 
oracle

>  <origin>  (79) 
adg

>  <m_score__min__energy>  (79) 
-10.890000000000001

>  <m_primary>  (79) 
energy

$$$$
79:0
     RDKit          3D

 33 34  0  0  0  0  0  0  0  0999 V2000
   55.1430   27.4630   45.3600 H   0  0  0  0  0  0  0  0  0  0  0  0
   55.1060   26.6890   46.0100 O   0  0  0  0  0  0  0  0  0  0  0  0
   55.4260   25.3790   45.6530 C   0  0  0  0  0  0  0  0  0  0  0  0
   54.5730   24.3840   46.0110 N   0  0  0  0  0  0  0  0  0  0  0  0
   54.8190   23.0890   45.6910 C   0  0  0  0  0  0  0  0  0  0  0  0
   54.0080   22.1920   46.0320 O   0  0  0  0  0  0  0  0  0  0  0  0
   55.9450   22.7610   45.0080 N   0  0  0  0  0  0  0  0  0  0  0  0
   56.8360   23.7100   44.6260 C   0  0  0  0  0  0  0  0  0  0  0  0
   57.8880   23.3590   44.0260 O   0  0  0  0  0  0  0  0  0  0  0  0
   56.5930   25.0670   44.9240 C   0  0  0  0  0  0  0  0  0  0  0  0
   57.5570   26.1270   44.5450 C   0  0  0  0  0  0  0  0  0  0  0  0
   57.7575   26.2973   43.4769 H   0  0  0  0  0  0  0  0  0  0  0  0
   58.1960   26.8880   45.4460 C   0  0  0  0  0  0  0  0  0  0  0  0
   58.8030   26.4060   46.5480 N   0  0  0  0  0  0  0  0  0  0  0  0
   59.3360   27.5020   47.1270 C   0  0  0  0  0  0  0  0  0  0  0  0
   60.0310   27.4550   48.2590 C   0  0  0  0  0  0  0  0  0  0  0  0
   60.1851   26.4933   48.7702 H   0  0  0  0  0  0  0  0  0  0  0  0
   60.4520   28.3778   48.6846 H   0  0  0  0  0  0  0  0  0  0  0  0
   59.1110   28.6490   46.4510 N   0  0  0  0  0  0  0  0  0  0  0  0
   58.3800   28.2600   45.3900 C   0  0  0  0  0  0  0  0  0  0  0  0
   57.9530   29.2000   44.3030 C   0  0  0  0  0  0  0  0  0  0  0  0
   58.7310   29.9632   44.1538 H   0  0  0  0  0  0  0  0  0  0  0  0
   57.8049   28.6343   43.3713 H   0  0  0  0  0  0  0  0  0  0  0  0
   56.6720   29.8660   44.6840 C   0  0  0  0  0  0  0  0  0  0  0  0
   55.6370   29.1700   44.8760 O   0  0  0  0  0  0  0  0  0  0  0  0
   56.6480   31.2520   44.8730 O   0  0  0  0  0  0  0  0  0  0  0  0
   57.7990   32.0840   44.7410 C   0  0  0  0  0  0  0  0  0  0  0  0
   58.6491   31.6094   45.2529 H   0  0  0  0  0  0  0  0  0  0  0  0
   58.0233   32.2130   43.6719 H   0  0  0  0  0  0  0  0  0  0  0  0
   57.5430   33.4540   45.3590 C   0  0  0  0  0  0  0  0  0  0  0  0
   57.5586   33.3702   46.4557 H   0  0  0  0  0  0  0  0  0  0  0  0
   58.3257   34.1551   45.0336 H   0  0  0  0  0  0  0  0  0  0  0  0
   56.5600   33.8251   45.0336 H   0  0  0  0  0  0  0  0  0  0  0  0
  1  2  1  0
  2  3  1  0
  3  4  1  0
  4  5  1  0
  5  6  2  0
  5  7  1  0
  7  8  1  0
  8  9  2  0
  8 10  1  0
 10 11  1  0
 11 12  1  0
 11 13  2  0
 13 14  1  0
 14 15  1  0
 15 16  2  0
 16 17  1  0
 16 18  1  0
 15 19  1  0
 19 20  2  0
 20 21  1  0
 21 22  1  0
 21 23  1  0
 21 24  1  0
 24 25  2  0
 24 26  1  0
 26 27  1  0
 27 28  1  0
 27 29  1  0
 27 30  1  0
 30 31  1  0
 30 32  1  0
 30 33  1  0
 10  3  2  0
 20 13  1  0
M  CHG  3   4  -1   7  -1  14  -1
M  END
>  <UniqueID>  (80) 
78

>  <SMILES>  (80) 
C=c1nc(CC(=O)OCC)/c(=C/c2c(O)[n-]c(=O)[n-]c2=O)[n-]1

>  <Energy>  (80) 
62.134938997200166

>  <Genealogy>  (80) 
C=c1nc(CC(=O)OCC)c(=Cc2c(O)[n-]c(=O)[n-]c2=O)[n-]1 (protonated)
C=c1nc(CC(=O)OCC)/c(=C/c2c(O)[n-]c(=O)[n-]c2=O)[n-]1 (cis-trans isomerization)
C=c1nc(CC(=O)OCC)/c(=C/c2c(O)[n-]c(=O)[n-]c2=O)[n-]1 (3D coordinates assigned)
C=c1nc(CC(=O)OCC)/c(=C/c2c(O)[n-]c(=O)[n-]c2=O)[n-]1 (optimized conformer: 62.134938997200166 kcal/mol)

>  <smiles>  (80) 
C=c1nc(CC(=O)OCC)c(=Cc2c(O)[nH]c(=O)[nH]c2=O)[nH]1

>  <score_type>  (80) 
oracle

>  <origin>  (80) 
adg

>  <m_score__min__energy>  (80) 
-13.029999999999999

>  <m_primary>  (80) 
energy

$$$$
80:0
     RDKit          3D

 51 54  0  0  0  0  0  0  0  0999 V2000
   59.2930   34.8290   47.0240 C   0  0  0  0  0  0  0  0  0  0  0  0
   59.2850   34.3200   48.3530 O   0  0  0  0  0  0  0  0  0  0  0  0
   59.4690   32.9700   48.6860 C   0  0  0  0  0  0  0  0  0  0  0  0
   59.5200   32.5230   50.0210 C   0  0  0  0  0  0  0  0  0  0  0  0
   59.7000   31.1650   50.3060 C   0  0  0  0  0  0  0  0  0  0  0  0
   59.8280   30.2410   49.2660 C   0  0  0  0  0  0  0  0  0  0  0  0
   59.9790   28.9190   49.5420 N   0  0  0  0  0  0  0  0  0  0  0  0
   60.0730   27.9830   48.5610 C   0  0  0  0  0  0  0  0  0  0  0  0
   60.1950   26.7710   48.8820 O   0  0  0  0  0  0  0  0  0  0  0  0
   60.0180   28.3700   47.2060 C   0  0  0  0  0  0  0  0  0  0  0  0
   60.0250   27.3550   46.0860 C   0  0  0  0  0  0  0  0  0  0  0  0
   58.6750   27.1650   45.5300 N   0  0  0  0  0  0  0  0  0  0  0  0
   58.3880   27.5790   44.1450 C   0  0  0  0  0  0  0  0  0  0  0  0
   57.9050   29.0080   44.1030 C   0  0  0  0  0  0  0  0  0  0  0  0
   58.8270   30.0700   44.1230 C   0  0  0  0  0  0  0  0  0  0  0  0
   58.3770   31.3930   44.1560 C   0  0  0  0  0  0  0  0  0  0  0  0
   57.0080   31.6680   44.1580 C   0  0  0  0  0  0  0  0  0  0  0  0
   56.0840   30.6210   44.1140 C   0  0  0  0  0  0  0  0  0  0  0  0
   56.5290   29.2960   44.0810 C   0  0  0  0  0  0  0  0  0  0  0  0
   57.6660   26.5000   46.3210 C   0  0  0  0  0  0  0  0  0  0  0  0
   57.4770   26.8570   47.5160 O   0  0  0  0  0  0  0  0  0  0  0  0
   56.8450   25.4020   45.7670 C   0  0  0  0  0  0  0  0  0  0  0  0
   57.4600   24.1910   45.4070 C   0  0  0  0  0  0  0  0  0  0  0  0
   56.7030   23.1420   44.8800 C   0  0  0  0  0  0  0  0  0  0  0  0
   55.3220   23.2870   44.7190 C   0  0  0  0  0  0  0  0  0  0  0  0
   54.6970   24.4780   45.0920 C   0  0  0  0  0  0  0  0  0  0  0  0
   55.4480   25.5330   45.6230 C   0  0  0  0  0  0  0  0  0  0  0  0
   54.7980   26.6960   46.0190 O   0  0  0  0  0  0  0  0  0  0  0  0
   59.9000   29.7360   46.9010 C   0  0  0  0  0  0  0  0  0  0  0  0
   59.7850   30.6800   47.9280 C   0  0  0  0  0  0  0  0  0  0  0  0
   59.6060   32.0420   47.6450 C   0  0  0  0  0  0  0  0  0  0  0  0
   59.3103   35.9285   47.0526 H   0  0  0  0  0  0  0  0  0  0  0  0
   60.1855   34.4618   46.4961 H   0  0  0  0  0  0  0  0  0  0  0  0
   58.3894   34.4901   46.4961 H   0  0  0  0  0  0  0  0  0  0  0  0
   59.4177   33.2457   50.8440 H   0  0  0  0  0  0  0  0  0  0  0  0
   59.7408   30.8242   51.3511 H   0  0  0  0  0  0  0  0  0  0  0  0
   60.6954   27.7063   45.2878 H   0  0  0  0  0  0  0  0  0  0  0  0
   60.3733   26.3931   46.4903 H   0  0  0  0  0  0  0  0  0  0  0  0
   59.3054   27.4904   43.5445 H   0  0  0  0  0  0  0  0  0  0  0  0
   57.6002   26.9280   43.7381 H   0  0  0  0  0  0  0  0  0  0  0  0
   59.9064   29.8586   44.1126 H   0  0  0  0  0  0  0  0  0  0  0  0
   59.1028   32.2192   44.1804 H   0  0  0  0  0  0  0  0  0  0  0  0
   56.6568   32.7098   44.1943 H   0  0  0  0  0  0  0  0  0  0  0  0
   55.0059   30.8392   44.1053 H   0  0  0  0  0  0  0  0  0  0  0  0
   55.7987   28.4745   44.0376 H   0  0  0  0  0  0  0  0  0  0  0  0
   58.5449   24.0682   45.5411 H   0  0  0  0  0  0  0  0  0  0  0  0
   57.1940   22.2009   44.5914 H   0  0  0  0  0  0  0  0  0  0  0  0
   54.7278   22.4624   44.2983 H   0  0  0  0  0  0  0  0  0  0  0  0
   53.6095   24.5879   44.9681 H   0  0  0  0  0  0  0  0  0  0  0  0
   59.8980   30.0650   45.8514 H   0  0  0  0  0  0  0  0  0  0  0  0
   59.5730   32.3837   46.5999 H   0  0  0  0  0  0  0  0  0  0  0  0
  1  2  1  0
  2  3  1  0
  3  4  2  0
  4  5  1  0
  5  6  2  0
  6  7  1  0
  7  8  1  0
  8  9  2  0
  8 10  1  0
 10 11  1  0
 11 12  1  0
 12 13  1  0
 13 14  1  0
 14 15  2  0
 15 16  1  0
 16 17  2  0
 17 18  1  0
 18 19  2  0
 12 20  1  0
 20 21  2  0
 20 22  1  0
 22 23  2  0
 23 24  1  0
 24 25  2  0
 25 26  1  0
 26 27  2  0
 27 28  1  0
 10 29  2  0
 29 30  1  0
 30 31  2  0
 31  3  1  0
 30  6  1  0
 19 14  1  0
 27 22  1  0
  1 32  1  0
  1 33  1  0
  1 34  1  0
  4 35  1  0
  5 36  1  0
 11 37  1  0
 11 38  1  0
 13 39  1  0
 13 40  1  0
 15 41  1  0
 16 42  1  0
 17 43  1  0
 18 44  1  0
 19 45  1  0
 23 46  1  0
 24 47  1  0
 25 48  1  0
 26 49  1  0
 29 50  1  0
 31 51  1  0
M  CHG  2   7  -1  28  -1
M  END
>  <UniqueID>  (81) 
79

>  <SMILES>  (81) 
COc1ccc2[n-]c(=O)c(CN(Cc3ccccc3)C(=O)c3ccccc3[O-])cc2c1

>  <Energy>  (81) 
60.984088506817145

>  <Genealogy>  (81) 
COc1ccc2[n-]c(=O)c(CN(Cc3ccccc3)C(=O)c3ccccc3[O-])cc2c1 (protonated)
COc1ccc2[n-]c(=O)c(CN(Cc3ccccc3)C(=O)c3ccccc3[O-])cc2c1 (3D coordinates assigned)
COc1ccc2[n-]c(=O)c(CN(Cc3ccccc3)C(=O)c3ccccc3[O-])cc2c1 (optimized conformer: 60.984088506817145 kcal/mol)

>  <smiles>  (81) 
COc1ccc2[nH]c(=O)c(CN(Cc3ccccc3)C(=O)c3ccccc3O)cc2c1

>  <score_type>  (81) 
oracle

>  <origin>  (81) 
adg

>  <m_score__min__energy>  (81) 
-14.33

>  <m_primary>  (81) 
energy

$$$$
81:0
     RDKit          3D

 34 35  0  0  0  0  0  0  0  0999 V2000
   60.0050   30.1880   45.6700 C   0  0  0  0  0  0  0  0  0  0  0  0
   58.9390   29.1310   45.8060 C   0  0  0  0  0  0  0  0  0  0  0  0
   59.2080   27.9970   46.5880 C   0  0  0  0  0  0  0  0  0  0  0  0
   58.2600   26.9810   46.7410 C   0  0  0  0  0  0  0  0  0  0  0  0
   58.6340   25.8480   47.4660 O   0  0  0  0  0  0  0  0  0  0  0  0
   56.9880   27.1130   46.1380 C   0  0  0  0  0  0  0  0  0  0  0  0
   55.9100   26.1200   46.3410 C   0  0  0  0  0  0  0  0  0  0  0  0
   54.7590   26.3340   45.8770 O   0  0  0  0  0  0  0  0  0  0  0  0
   56.1290   24.9760   47.0980 O   0  0  0  0  0  0  0  0  0  0  0  0
   56.7230   28.2430   45.3480 C   0  0  0  0  0  0  0  0  0  0  0  0
   57.6740   29.2620   45.1890 C   0  0  0  0  0  0  0  0  0  0  0  0
   57.2560   30.6760   44.2030 S   0  0  0  0  0  0  0  0  0  0  0  0
   58.4480   31.1440   43.4170 O   0  0  0  0  0  0  0  0  0  0  0  0
   56.1530   30.3040   43.2530 O   0  0  0  0  0  0  0  0  0  0  0  0
   56.7070   31.9820   45.2010 N   0  0  0  0  0  0  0  0  0  0  0  0
   57.3870   33.2390   45.2690 C   0  0  0  0  0  0  0  0  0  0  0  0
   57.0480   34.1760   44.4950 O   0  0  0  0  0  0  0  0  0  0  0  0
   58.4900   33.4400   46.2370 C   0  0  0  0  0  0  0  0  0  0  0  0
   59.6990   34.0380   45.8300 C   0  0  0  0  0  0  0  0  0  0  0  0
   60.7400   34.2240   46.7450 C   0  0  0  0  0  0  0  0  0  0  0  0
   60.5890   33.8150   48.0720 C   0  0  0  0  0  0  0  0  0  0  0  0
   59.3960   33.2200   48.4870 C   0  0  0  0  0  0  0  0  0  0  0  0
   58.3500   33.0320   47.5780 C   0  0  0  0  0  0  0  0  0  0  0  0
   60.3308   30.5110   46.6698 H   0  0  0  0  0  0  0  0  0  0  0  0
   60.8635   29.7744   45.1205 H   0  0  0  0  0  0  0  0  0  0  0  0
   59.5987   31.0499   45.1205 H   0  0  0  0  0  0  0  0  0  0  0  0
   60.1827   27.9060   47.0897 H   0  0  0  0  0  0  0  0  0  0  0  0
   58.0020   25.0890   47.6790 H   0  0  0  0  0  0  0  0  0  0  0  0
   55.7496   28.3311   44.8433 H   0  0  0  0  0  0  0  0  0  0  0  0
   59.8249   34.3606   44.7859 H   0  0  0  0  0  0  0  0  0  0  0  0
   61.6799   34.6934   46.4190 H   0  0  0  0  0  0  0  0  0  0  0  0
   61.4096   33.9616   48.7898 H   0  0  0  0  0  0  0  0  0  0  0  0
   59.2785   32.8981   49.5323 H   0  0  0  0  0  0  0  0  0  0  0  0
   57.4128   32.5629   47.9120 H   0  0  0  0  0  0  0  0  0  0  0  0
  1  2  1  0
  2  3  2  0
  3  4  1  0
  4  5  1  0
  4  6  2  0
  6  7  1  0
  7  8  2  0
  7  9  1  0
  6 10  1  0
 10 11  2  0
 11 12  1  0
 12 13  2  0
 12 14  2  0
 12 15  1  0
 15 16  1  0
 16 17  2  0
 16 18  1  0
 18 19  2  0
 19 20  1  0
 20 21  2  0
 21 22  1  0
 22 23  2  0
 11  2  1  0
 23 18  1  0
  1 24  1  0
  1 25  1  0
  1 26  1  0
  3 27  1  0
  5 28  1  0
 10 29  1  0
 19 30  1  0
 20 31  1  0
 21 32  1  0
 22 33  1  0
 23 34  1  0
M  CHG  2   9  -1  15  -1
M  END
>  <UniqueID>  (82) 
80

>  <SMILES>  (82) 
Cc1cc(O)c(C(=O)[O-])cc1S(=O)(=O)[N-]C(=O)c1ccccc1

>  <Energy>  (82) 
44.79803729533514

>  <Genealogy>  (82) 
Cc1cc(O)c(C(=O)[O-])cc1S(=O)(=O)[N-]C(=O)c1ccccc1 (protonated)
Cc1cc(O)c(C(=O)[O-])cc1S(=O)(=O)[N-]C(=O)c1ccccc1 (3D coordinates assigned)
Cc1cc(O)c(C(=O)[O-])cc1S(=O)(=O)[N-]C(=O)c1ccccc1 (optimized conformer: 44.79803729533514 kcal/mol)

>  <smiles>  (82) 
Cc1cc(O)c(C(=O)O)cc1S(=O)(=O)NC(=O)c1ccccc1

>  <score_type>  (82) 
oracle

>  <origin>  (82) 
adg

>  <m_score__min__energy>  (82) 
-11.640000000000001

>  <m_primary>  (82) 
energy

$$$$
82:0
     RDKit          3D

 31 32  0  0  0  0  0  0  0  0999 V2000
   59.2160   30.6170   47.8240 C   0  0  0  0  0  0  0  0  0  0  0  0
   58.3970   31.2070   46.8200 O   0  0  0  0  0  0  0  0  0  0  0  0
   57.8710   30.5160   45.7160 C   0  0  0  0  0  0  0  0  0  0  0  0
   58.1060   29.1430   45.5080 C   0  0  0  0  0  0  0  0  0  0  0  0
   57.5500   28.4730   44.3990 C   0  0  0  0  0  0  0  0  0  0  0  0
   57.7690   27.0170   44.1780 C   0  0  0  0  0  0  0  0  0  0  0  0
   57.8490   26.5760   42.9980 O   0  0  0  0  0  0  0  0  0  0  0  0
   57.8730   26.0270   45.3110 C   0  0  0  0  0  0  0  0  0  0  0  0
   56.7300   25.0360   45.2940 C   0  0  0  0  0  0  0  0  0  0  0  0
   56.9840   23.6870   44.9810 C   0  0  0  0  0  0  0  0  0  0  0  0
   55.9440   22.7520   44.9610 C   0  0  0  0  0  0  0  0  0  0  0  0
   56.3260   20.9320   44.5120 Br  0  0  0  0  0  0  0  0  0  0  0  0
   54.6380   23.1540   45.2700 C   0  0  0  0  0  0  0  0  0  0  0  0
   53.5970   22.2340   45.2500 O   0  0  0  0  0  0  0  0  0  0  0  0
   54.3790   24.4860   45.6040 C   0  0  0  0  0  0  0  0  0  0  0  0
   55.4150   25.4250   45.6250 C   0  0  0  0  0  0  0  0  0  0  0  0
   55.1260   26.7380   45.9820 O   0  0  0  0  0  0  0  0  0  0  0  0
   56.7670   29.2090   43.4910 C   0  0  0  0  0  0  0  0  0  0  0  0
   56.5390   30.5730   43.6900 C   0  0  0  0  0  0  0  0  0  0  0  0
   57.0860   31.2230   44.7970 C   0  0  0  0  0  0  0  0  0  0  0  0
   56.8440   32.5790   44.9860 O   0  0  0  0  0  0  0  0  0  0  0  0
   58.8335   30.8925   48.8179 H   0  0  0  0  0  0  0  0  0  0  0  0
   59.1987   29.5226   47.7149 H   0  0  0  0  0  0  0  0  0  0  0  0
   60.2486   30.9800   47.7149 H   0  0  0  0  0  0  0  0  0  0  0  0
   58.7319   28.5857   46.2205 H   0  0  0  0  0  0  0  0  0  0  0  0
   58.8220   25.4784   45.2192 H   0  0  0  0  0  0  0  0  0  0  0  0
   57.8301   26.5841   46.2585 H   0  0  0  0  0  0  0  0  0  0  0  0
   58.0102   23.3653   44.7500 H   0  0  0  0  0  0  0  0  0  0  0  0
   53.3537   24.7978   45.8520 H   0  0  0  0  0  0  0  0  0  0  0  0
   56.3301   28.7057   42.6159 H   0  0  0  0  0  0  0  0  0  0  0  0
   55.9260   31.1366   42.9713 H   0  0  0  0  0  0  0  0  0  0  0  0
  1  2  1  0
  2  3  1  0
  3  4  2  0
  4  5  1  0
  5  6  1  0
  6  7  2  0
  6  8  1  0
  8  9  1  0
  9 10  2  0
 10 11  1  0
 11 12  1  0
 11 13  2  0
 13 14  1  0
 13 15  1  0
 15 16  2  0
 16 17  1  0
  5 18  2  0
 18 19  1  0
 19 20  2  0
 20 21  1  0
 20  3  1  0
 16  9  1  0
  1 22  1  0
  1 23  1  0
  1 24  1  0
  4 25  1  0
  8 26  1  0
  8 27  1  0
 10 28  1  0
 15 29  1  0
 18 30  1  0
 19 31  1  0
M  CHG  3  14  -1  17  -1  21  -1
M  END
>  <UniqueID>  (83) 
81

>  <SMILES>  (83) 
COc1cc(C(=O)Cc2cc(Br)c([O-])cc2[O-])ccc1[O-]

>  <Energy>  (83) 
33.336592801382714

>  <Genealogy>  (83) 
COc1cc(C(=O)Cc2cc(Br)c([O-])cc2[O-])ccc1[O-] (protonated)
COc1cc(C(=O)Cc2cc(Br)c([O-])cc2[O-])ccc1[O-] (3D coordinates assigned)
COc1cc(C(=O)Cc2cc(Br)c([O-])cc2[O-])ccc1[O-] (optimized conformer: 33.336592801382714 kcal/mol)

>  <smiles>  (83) 
COc1cc(C(=O)Cc2cc(Br)c(O)cc2O)ccc1O

>  <score_type>  (83) 
oracle

>  <origin>  (83) 
adg

>  <m_score__min__energy>  (83) 
-12.92

>  <m_primary>  (83) 
energy

$$$$
83:0
     RDKit          3D

 63 66  0  0  0  0  0  0  0  0999 V2000
   53.2420   30.0990   54.6050 C   0  0  0  0  0  0  0  0  0  0  0  0
   52.8860   30.7660   53.3020 C   0  0  0  0  0  0  0  0  0  0  0  0
   51.7490   31.5930   53.2470 C   0  0  0  0  0  0  0  0  0  0  0  0
   51.3740   32.2060   52.0500 C   0  0  0  0  0  0  0  0  0  0  0  0
   50.2510   33.0240   52.0110 O   0  0  0  0  0  0  0  0  0  0  0  0
   52.1240   31.9980   50.8910 C   0  0  0  0  0  0  0  0  0  0  0  0
   53.2550   31.1800   50.9260 C   0  0  0  0  0  0  0  0  0  0  0  0
   53.6470   30.5520   52.1230 C   0  0  0  0  0  0  0  0  0  0  0  0
   54.9020   29.7080   52.1330 C   0  0  0  0  0  0  0  0  0  0  0  0
   55.9930   30.4370   52.8160 N   0  0  0  0  0  0  0  0  0  0  0  0
   56.3590   31.7040   52.1440 C   0  0  0  0  0  0  0  0  0  0  0  0
   57.2600   31.4830   50.9170 C   0  0  0  0  0  0  0  0  0  0  0  0
   58.4470   30.6930   51.2970 N   0  0  0  0  0  0  0  0  0  0  0  0
   59.3660   30.5260   50.1530 C   0  0  0  0  0  0  0  0  0  0  0  0
   59.4930   31.8110   49.3580 C   0  0  0  0  0  0  0  0  0  0  0  0
   59.6040   33.0380   50.0400 C   0  0  0  0  0  0  0  0  0  0  0  0
   59.7640   34.2310   49.3360 C   0  0  0  0  0  0  0  0  0  0  0  0
   59.8170   34.2180   47.9430 C   0  0  0  0  0  0  0  0  0  0  0  0
   59.7200   33.0130   47.2430 C   0  0  0  0  0  0  0  0  0  0  0  0
   59.7610   33.0480   45.8140 N   0  0  0  0  0  0  0  0  0  0  0  0
   58.5650   33.8760   44.8740 S   0  0  0  0  0  0  0  0  0  0  0  0
   56.9840   33.7270   45.6770 C   0  0  0  0  0  0  0  0  0  0  0  0
   58.4830   33.2930   43.4910 O   0  0  0  0  0  0  0  0  0  0  0  0
   58.9420   35.3280   44.7710 O   0  0  0  0  0  0  0  0  0  0  0  0
   59.6120   31.7910   47.9500 C   0  0  0  0  0  0  0  0  0  0  0  0
   59.6370   30.5320   47.2580 N   0  0  0  0  0  0  0  0  0  0  0  0
   58.4970   29.6990   46.9980 C   0  0  0  0  0  0  0  0  0  0  0  0
   58.1760   28.8290   47.8510 O   0  0  0  0  0  0  0  0  0  0  0  0
   57.7290   29.7930   45.7390 C   0  0  0  0  0  0  0  0  0  0  0  0
   58.1940   30.3600   44.5630 C   0  0  0  0  0  0  0  0  0  0  0  0
   57.1670   30.2590   43.6510 C   0  0  0  0  0  0  0  0  0  0  0  0
   56.1320   29.6450   44.3240 C   0  0  0  0  0  0  0  0  0  0  0  0
   54.8900   29.3450   43.7740 O   0  0  0  0  0  0  0  0  0  0  0  0
   56.4580   29.3610   45.5990 N   0  0  0  0  0  0  0  0  0  0  0  0
   58.0230   29.3860   51.8240 C   0  0  0  0  0  0  0  0  0  0  0  0
   57.1770   29.5950   53.0830 C   0  0  0  0  0  0  0  0  0  0  0  0
   52.9063   30.7280   55.4426 H   0  0  0  0  0  0  0  0  0  0  0  0
   52.7475   29.1181   54.6619 H   0  0  0  0  0  0  0  0  0  0  0  0
   54.3322   29.9639   54.6619 H   0  0  0  0  0  0  0  0  0  0  0  0
   51.1504   31.7580   54.1550 H   0  0  0  0  0  0  0  0  0  0  0  0
   51.8234   32.4793   49.9487 H   0  0  0  0  0  0  0  0  0  0  0  0
   53.8446   31.0251   50.0104 H   0  0  0  0  0  0  0  0  0  0  0  0
   54.7038   28.7658   52.6650 H   0  0  0  0  0  0  0  0  0  0  0  0
   55.2027   29.4935   51.0969 H   0  0  0  0  0  0  0  0  0  0  0  0
   55.4377   32.2092   51.8184 H   0  0  0  0  0  0  0  0  0  0  0  0
   56.9221   32.3138   52.8658 H   0  0  0  0  0  0  0  0  0  0  0  0
   56.6952   30.9423   50.1432 H   0  0  0  0  0  0  0  0  0  0  0  0
   57.5857   32.4591   50.5282 H   0  0  0  0  0  0  0  0  0  0  0  0
   60.3585   30.2377   50.5295 H   0  0  0  0  0  0  0  0  0  0  0  0
   58.9599   29.7465   49.4916 H   0  0  0  0  0  0  0  0  0  0  0  0
   59.5641   33.0556   51.1391 H   0  0  0  0  0  0  0  0  0  0  0  0
   59.8485   35.1832   49.8803 H   0  0  0  0  0  0  0  0  0  0  0  0
   59.9359   35.1624   47.3917 H   0  0  0  0  0  0  0  0  0  0  0  0
   57.1242   33.7402   46.7680 H   0  0  0  0  0  0  0  0  0  0  0  0
   56.3410   34.5685   45.3797 H   0  0  0  0  0  0  0  0  0  0  0  0
   56.5095   32.7802   45.3797 H   0  0  0  0  0  0  0  0  0  0  0  0
   59.1863   30.8028   44.3920 H   0  0  0  0  0  0  0  0  0  0  0  0
   57.1715   30.5974   42.6044 H   0  0  0  0  0  0  0  0  0  0  0  0
   54.8060   29.0440   42.8110 H   0  0  0  0  0  0  0  0  0  0  0  0
   57.4264   28.8600   51.0642 H   0  0  0  0  0  0  0  0  0  0  0  0
   58.9101   28.7852   52.0732 H   0  0  0  0  0  0  0  0  0  0  0  0
   56.8407   28.6150   53.4525 H   0  0  0  0  0  0  0  0  0  0  0  0
   57.7991   30.1080   53.8312 H   0  0  0  0  0  0  0  0  0  0  0  0
  1  2  1  0
  2  3  2  0
  3  4  1  0
  4  5  1  0
  4  6  2  0
  6  7  1  0
  7  8  2  0
  8  9  1  0
  9 10  1  0
 10 11  1  0
 11 12  1  0
 12 13  1  0
 13 14  1  0
 14 15  1  0
 15 16  2  0
 16 17  1  0
 17 18  2  0
 18 19  1  0
 19 20  1  0
 20 21  1  0
 21 22  1  0
 21 23  2  0
 21 24  2  0
 19 25  2  0
 25 26  1  0
 26 27  1  0
 27 28  2  0
 27 29  1  0
 29 30  2  0
 30 31  1  0
 31 32  2  0
 32 33  1  0
 32 34  1  0
 13 35  1  0
 35 36  1  0
  8  2  1  0
 36 10  1  0
 25 15  1  0
 34 29  1  0
  1 37  1  0
  1 38  1  0
  1 39  1  0
  3 40  1  0
  6 41  1  0
  7 42  1  0
  9 43  1  0
  9 44  1  0
 11 45  1  0
 11 46  1  0
 12 47  1  0
 12 48  1  0
 14 49  1  0
 14 50  1  0
 16 51  1  0
 17 52  1  0
 18 53  1  0
 22 54  1  0
 22 55  1  0
 22 56  1  0
 30 57  1  0
 31 58  1  0
 33 59  1  0
 35 60  1  0
 35 61  1  0
 36 62  1  0
 36 63  1  0
M  CHG  4   5  -1  20  -1  26  -1  34  -1
M  END
>  <UniqueID>  (84) 
82

>  <SMILES>  (84) 
Cc1cc([O-])ccc1CN1CCN(Cc2cccc([N-]S(C)(=O)=O)c2[N-]C(=O)c2ccc(O)[n-]2)CC1

>  <Energy>  (84) 
107.86555989989182

>  <Genealogy>  (84) 
Cc1cc([O-])ccc1CN1CCN(Cc2cccc([N-]S(C)(=O)=O)c2[N-]C(=O)c2ccc(O)[n-]2)CC1 (protonated)
Cc1cc([O-])ccc1CN1CCN(Cc2cccc([N-]S(C)(=O)=O)c2[N-]C(=O)c2ccc(O)[n-]2)CC1 (3D coordinates assigned)
Cc1cc([O-])ccc1CN1CCN(Cc2cccc([N-]S(C)(=O)=O)c2[N-]C(=O)c2ccc(O)[n-]2)CC1 (nonaromatic ring conformer: 107.86555989989182 kcal/mol)

>  <smiles>  (84) 
Cc1cc(O)ccc1CN1CCN(Cc2cccc(NS(C)(=O)=O)c2NC(=O)c2ccc(O)[nH]2)CC1

>  <score_type>  (84) 
oracle

>  <origin>  (84) 
adg

>  <m_score__min__energy>  (84) 
-19.620000000000001

>  <m_primary>  (84) 
energy

$$$$
84:0
     RDKit          3D

 28 30  0  0  0  0  0  0  0  0999 V2000
   59.2190   30.1700   52.6310 O   0  0  0  0  0  0  0  0  0  0  0  0
   58.3720   29.9410   51.7270 C   0  0  0  0  0  0  0  0  0  0  0  0
   57.2810   29.0540   52.0200 N   0  0  0  0  0  0  0  0  0  0  0  0
   56.1010   29.3980   52.4460 C   0  0  0  0  0  0  0  0  0  0  0  0
   55.3820   28.6090   53.2720 N   0  0  0  0  0  0  0  0  0  0  0  0
   54.1650   29.1460   53.5550 C   0  0  0  0  0  0  0  0  0  0  0  0
   53.9160   30.3730   52.9490 C   0  0  0  0  0  0  0  0  0  0  0  0
   52.6370   31.1440   53.0230 C   0  0  0  0  0  0  0  0  0  0  0  0
   51.9680   31.1560   51.6850 C   0  0  0  0  0  0  0  0  0  0  0  0
   52.2840   30.0730   50.4330 S   0  0  0  0  0  0  0  0  0  0  0  0
   51.2360   30.8600   49.3790 C   0  0  0  0  0  0  0  0  0  0  0  0
   51.0150   30.4950   48.1960 O   0  0  0  0  0  0  0  0  0  0  0  0
   50.6520   31.9410   49.9370 N   0  0  0  0  0  0  0  0  0  0  0  0
   51.0660   32.1100   51.2200 C   0  0  0  0  0  0  0  0  0  0  0  0
   50.6150   33.1690   51.9980 O   0  0  0  0  0  0  0  0  0  0  0  0
   55.2460   30.7880   52.0060 S   0  0  0  0  0  0  0  0  0  0  0  0
   58.4950   30.6460   50.4270 C   0  0  0  0  0  0  0  0  0  0  0  0
   58.9300   29.9720   49.2710 C   0  0  0  0  0  0  0  0  0  0  0  0
   59.2440   28.6180   49.3080 O   0  0  0  0  0  0  0  0  0  0  0  0
   59.0330   30.6410   48.0940 N   0  0  0  0  0  0  0  0  0  0  0  0
   58.7130   31.9560   48.0020 C   0  0  0  0  0  0  0  0  0  0  0  0
   58.8180   32.5550   46.9010 O   0  0  0  0  0  0  0  0  0  0  0  0
   58.2750   32.6260   49.0980 N   0  0  0  0  0  0  0  0  0  0  0  0
   58.1570   32.0060   50.3010 C   0  0  0  0  0  0  0  0  0  0  0  0
   57.7560   32.6660   51.2960 O   0  0  0  0  0  0  0  0  0  0  0  0
   53.4352   28.6493   54.2113 H   0  0  0  0  0  0  0  0  0  0  0  0
   51.9697   30.6726   53.7596 H   0  0  0  0  0  0  0  0  0  0  0  0
   52.8563   32.1784   53.3261 H   0  0  0  0  0  0  0  0  0  0  0  0
  1  2  2  0
  2  3  1  0
  3  4  2  3
  4  5  1  0
  5  6  1  0
  6  7  2  0
  7  8  1  0
  8  9  1  0
  9 10  1  0
 10 11  1  0
 11 12  2  0
 11 13  1  0
 13 14  1  0
 14 15  1  0
  7 16  1  0
  2 17  1  0
 17 18  2  0
 18 19  1  0
 18 20  1  0
 20 21  1  0
 21 22  2  0
 21 23  1  0
 23 24  1  0
 24 25  2  0
 16  4  1  0
 24 17  1  0
 14  9  2  0
  6 26  1  0
  8 27  1  0
  8 28  1  0
M  CHG  6   5  -1  13  -1  15  -1  19  -1  20  -1  23  -1
M  END
>  <UniqueID>  (85) 
83

>  <SMILES>  (85) 
O=C(N=c1[n-]cc(Cc2sc(=O)[n-]c2[O-])s1)c1c([O-])[n-]c(=O)[n-]c1=O

>  <Energy>  (85) 
102.10392534241942

>  <Genealogy>  (85) 
O=C(N=c1[n-]cc(Cc2sc(=O)[n-]c2[O-])s1)c1c([O-])[n-]c(=O)[n-]c1=O (protonated)
O=C(N=c1[n-]cc(Cc2sc(=O)[n-]c2[O-])s1)c1c([O-])[n-]c(=O)[n-]c1=O (3D coordinates assigned)
O=C(N=c1[n-]cc(Cc2sc(=O)[n-]c2[O-])s1)c1c([O-])[n-]c(=O)[n-]c1=O (optimized conformer: 102.10392534241942 kcal/mol)

>  <smiles>  (85) 
O=C(N=c1[nH]cc(Cc2sc(=O)[nH]c2O)s1)c1c(O)[nH]c(=O)[nH]c1=O

>  <score_type>  (85) 
oracle

>  <origin>  (85) 
adg

>  <m_score__min__energy>  (85) 
-18.050000000000001

>  <m_primary>  (85) 
energy

$$$$
85:0
     RDKit          3D

 46 48  0  0  0  0  0  0  0  0999 V2000
   55.9080   32.0600   52.3720 C   0  0  0  0  0  0  0  0  0  0  0  0
   55.4820   30.8010   52.5640 C   0  0  0  0  0  0  0  0  0  0  0  0
   54.1580   30.3600   52.7150 C   0  0  0  0  0  0  0  0  0  0  0  0
   52.9960   31.0080   52.5100 C   0  0  0  0  0  0  0  0  0  0  0  0
   52.2810   31.1010   51.2260 C   0  0  0  0  0  0  0  0  0  0  0  0
   52.3010   30.1550   50.2720 N   0  0  0  0  0  0  0  0  0  0  0  0
   51.4100   30.6110   49.3640 C   0  0  0  0  0  0  0  0  0  0  0  0
   51.1570   29.9970   48.2960 O   0  0  0  0  0  0  0  0  0  0  0  0
   50.8060   31.7710   49.6960 N   0  0  0  0  0  0  0  0  0  0  0  0
   51.3590   32.0580   50.8850 C   0  0  0  0  0  0  0  0  0  0  0  0
   51.0220   33.1700   51.6440 O   0  0  0  0  0  0  0  0  0  0  0  0
   54.1690   29.0710   53.1160 N   0  0  0  0  0  0  0  0  0  0  0  0
   55.4730   28.7410   53.1530 C   0  0  0  0  0  0  0  0  0  0  0  0
   55.8750   27.5970   53.4940 O   0  0  0  0  0  0  0  0  0  0  0  0
   56.3000   29.7470   52.8070 N   0  0  0  0  0  0  0  0  0  0  0  0
   57.7670   29.6960   52.8530 C   0  0  0  0  0  0  0  0  0  0  0  0
   58.3310   29.7410   51.4630 C   0  0  0  0  0  0  0  0  0  0  0  0
   58.9640   28.7450   51.0220 O   0  0  0  0  0  0  0  0  0  0  0  0
   58.1310   30.9000   50.6400 N   0  0  0  0  0  0  0  0  0  0  0  0
   58.8910   31.2000   49.4570 C   0  0  0  0  0  0  0  0  0  0  0  0
   59.8620   30.3120   48.9580 C   0  0  0  0  0  0  0  0  0  0  0  0
   60.5860   30.6340   47.8070 C   0  0  0  0  0  0  0  0  0  0  0  0
   60.3710   31.8530   47.1600 C   0  0  0  0  0  0  0  0  0  0  0  0
   59.4450   32.7730   47.6740 C   0  0  0  0  0  0  0  0  0  0  0  0
   59.2300   34.0660   46.9920 C   0  0  0  0  0  0  0  0  0  0  0  0
   59.3910   35.1320   47.6490 O   0  0  0  0  0  0  0  0  0  0  0  0
   58.8280   34.1350   45.6090 N   0  0  0  0  0  0  0  0  0  0  0  0
   59.1060   35.3550   44.8460 C   0  0  0  0  0  0  0  0  0  0  0  0
   58.0240   33.0620   45.0140 C   0  0  0  0  0  0  0  0  0  0  0  0
   58.7000   32.4340   48.8150 C   0  0  0  0  0  0  0  0  0  0  0  0
   56.9834   32.2670   52.2688 H   0  0  0  0  0  0  0  0  0  0  0  0
   55.1815   32.8842   52.3180 H   0  0  0  0  0  0  0  0  0  0  0  0
   52.5415   31.5113   53.3761 H   0  0  0  0  0  0  0  0  0  0  0  0
   58.1427   30.5568   53.4256 H   0  0  0  0  0  0  0  0  0  0  0  0
   58.0786   28.7584   53.3366 H   0  0  0  0  0  0  0  0  0  0  0  0
   57.3350   31.5300   50.8810 H   0  0  0  0  0  0  0  0  0  0  0  0
   60.0519   29.3604   49.4762 H   0  0  0  0  0  0  0  0  0  0  0  0
   61.3274   29.9254   47.4093 H   0  0  0  0  0  0  0  0  0  0  0  0
   60.9301   32.0927   46.2435 H   0  0  0  0  0  0  0  0  0  0  0  0
   59.2955   36.1867   45.5406 H   0  0  0  0  0  0  0  0  0  0  0  0
   59.9913   35.1975   44.2124 H   0  0  0  0  0  0  0  0  0  0  0  0
   58.2399   35.5966   44.2124 H   0  0  0  0  0  0  0  0  0  0  0  0
   57.5708   32.4571   45.8132 H   0  0  0  0  0  0  0  0  0  0  0  0
   57.2304   33.5007   44.3913 H   0  0  0  0  0  0  0  0  0  0  0  0
   58.6679   32.4235   44.3913 H   0  0  0  0  0  0  0  0  0  0  0  0
   57.9582   33.1434   49.2104 H   0  0  0  0  0  0  0  0  0  0  0  0
  1  2  2  0
  2  3  1  0
  3  4  2  3
  4  5  1  0
  5  6  1  0
  6  7  1  0
  7  8  2  0
  7  9  1  0
  9 10  1  0
 10 11  1  0
  3 12  1  0
 12 13  1  0
 13 14  2  0
 13 15  1  0
 15 16  1  0
 16 17  1  0
 17 18  2  0
 17 19  1  0
 19 20  1  0
 20 21  2  0
 21 22  1  0
 22 23  2  0
 23 24  1  0
 24 25  1  0
 25 26  2  0
 25 27  1  0
 27 28  1  0
 27 29  1  0
 24 30  2  0
 15  2  1  0
 30 20  1  0
 10  5  2  0
  1 31  1  0
  1 32  1  0
  4 33  1  0
 16 34  1  0
 16 35  1  0
 19 36  1  0
 21 37  1  0
 22 38  1  0
 23 39  1  0
 28 40  1  0
 28 41  1  0
 28 42  1  0
 29 43  1  0
 29 44  1  0
 29 45  1  0
 30 46  1  0
M  CHG  4   6  -1   9  -1  11  -1  12  -1
M  END
>  <UniqueID>  (86) 
84

>  <SMILES>  (86) 
C=c1c(=Cc2[n-]c(=O)[n-]c2[O-])[n-]c(=O)n1CC(=O)Nc1cccc(C(=O)N(C)C)c1

>  <Energy>  (86) 
126.73527991668686

>  <Genealogy>  (86) 
C=c1c(=Cc2[n-]c(=O)[n-]c2[O-])[n-]c(=O)n1CC(=O)Nc1cccc(C(=O)N(C)C)c1 (protonated)
C=c1c(=Cc2[n-]c(=O)[n-]c2[O-])[n-]c(=O)n1CC(=O)Nc1cccc(C(=O)N(C)C)c1 (3D coordinates assigned)
C=c1c(=Cc2[n-]c(=O)[n-]c2[O-])[n-]c(=O)n1CC(=O)Nc1cccc(C(=O)N(C)C)c1 (optimized conformer: 126.73527991668686 kcal/mol)

>  <smiles>  (86) 
C=c1c(=Cc2[nH]c(=O)[nH]c2O)[nH]c(=O)n1CC(=O)Nc1cccc(C(=O)N(C)C)c1

>  <score_type>  (86) 
oracle

>  <origin>  (86) 
adg

>  <m_score__min__energy>  (86) 
-18.25

>  <m_primary>  (86) 
energy

$$$$
86:0
     RDKit          3D

 49 52  0  0  0  0  0  0  0  0999 V2000
   57.1440   34.1910   45.0190 C   0  0  0  0  0  0  0  0  0  0  0  0
   58.0550   34.5320   46.0210 O   0  0  0  0  0  0  0  0  0  0  0  0
   59.2020   33.8810   46.3750 C   0  0  0  0  0  0  0  0  0  0  0  0
   60.3770   34.6090   46.4480 C   0  0  0  0  0  0  0  0  0  0  0  0
   61.5870   34.0030   46.8070 C   0  0  0  0  0  0  0  0  0  0  0  0
   61.6430   32.6390   47.1010 C   0  0  0  0  0  0  0  0  0  0  0  0
   60.4570   31.9080   47.0260 C   0  0  0  0  0  0  0  0  0  0  0  0
   60.5130   30.5220   47.3290 N   0  0  0  0  0  0  0  0  0  0  0  0
   60.4760   29.4470   46.5540 C   0  0  0  0  0  0  0  0  0  0  0  0
   60.6960   30.8070   49.6650 O   0  0  0  0  0  0  0  0  0  0  0  0
   60.5630   28.3370   47.3070 N   0  0  0  0  0  0  0  0  0  0  0  0
   60.7850   27.9270   49.7750 C   0  0  0  0  0  0  0  0  0  0  0  0
   56.0100   23.7100   43.1730 N   0  0  0  0  0  0  0  0  0  0  0  0
   60.5710   26.9380   46.8860 C   0  0  0  0  0  0  0  0  0  0  0  0
   59.2030   26.4480   46.6200 C   0  0  0  0  0  0  0  0  0  0  0  0
   58.4400   25.7100   47.4880 C   0  0  0  0  0  0  0  0  0  0  0  0
   57.1510   25.2700   47.1610 C   0  0  0  0  0  0  0  0  0  0  0  0
   56.6060   25.5780   45.9240 C   0  0  0  0  0  0  0  0  0  0  0  0
   55.2670   25.1090   45.6280 C   0  0  0  0  0  0  0  0  0  0  0  0
   54.3260   25.9460   45.7330 O   0  0  0  0  0  0  0  0  0  0  0  0
   54.9290   23.7960   45.2320 N   0  0  0  0  0  0  0  0  0  0  0  0
   60.6280   30.0760   48.6140 C   0  0  0  0  0  0  0  0  0  0  0  0
   55.7110   21.8100   44.1960 N   0  0  0  0  0  0  0  0  0  0  0  0
   56.3350   21.6180   43.0440 N   0  0  0  0  0  0  0  0  0  0  0  0
   56.5200   22.7500   42.4200 N   0  0  0  0  0  0  0  0  0  0  0  0
   60.6570   28.7290   48.5740 N   0  0  0  0  0  0  0  0  0  0  0  0
   57.3670   26.3260   45.0350 C   0  0  0  0  0  0  0  0  0  0  0  0
   58.6510   26.7600   45.3690 C   0  0  0  0  0  0  0  0  0  0  0  0
   55.5040   23.1360   44.2790 C   0  0  0  0  0  0  0  0  0  0  0  0
   60.3740   29.4810   45.2910 O   0  0  0  0  0  0  0  0  0  0  0  0
   59.2800   32.5410   46.6700 C   0  0  0  0  0  0  0  0  0  0  0  0
   56.2079   33.8406   45.4783 H   0  0  0  0  0  0  0  0  0  0  0  0
   56.9384   35.0730   44.3947 H   0  0  0  0  0  0  0  0  0  0  0  0
   57.5681   33.3907   44.3947 H   0  0  0  0  0  0  0  0  0  0  0  0
   60.3598   35.6849   46.2195 H   0  0  0  0  0  0  0  0  0  0  0  0
   62.5041   34.6083   46.8580 H   0  0  0  0  0  0  0  0  0  0  0  0
   62.5908   32.1568   47.3824 H   0  0  0  0  0  0  0  0  0  0  0  0
   60.6820   28.5725   50.6597 H   0  0  0  0  0  0  0  0  0  0  0  0
   59.9982   27.1584   49.7883 H   0  0  0  0  0  0  0  0  0  0  0  0
   61.7720   27.4415   49.7883 H   0  0  0  0  0  0  0  0  0  0  0  0
   61.1698   26.8438   45.9681 H   0  0  0  0  0  0  0  0  0  0  0  0
   61.0035   26.3344   47.6976 H   0  0  0  0  0  0  0  0  0  0  0  0
   58.8542   25.4548   48.4746 H   0  0  0  0  0  0  0  0  0  0  0  0
   56.5710   24.6799   47.8859 H   0  0  0  0  0  0  0  0  0  0  0  0
   56.9990   22.8450   41.4830 H   0  0  0  0  0  0  0  0  0  0  0  0
   56.0410   24.7120   42.8840 H   0  0  0  0  0  0  0  0  0  0  0  0
   56.9502   26.5811   44.0495 H   0  0  0  0  0  0  0  0  0  0  0  0
   59.2335   27.3504   44.6465 H   0  0  0  0  0  0  0  0  0  0  0  0
   58.3592   31.9413   46.6204 H   0  0  0  0  0  0  0  0  0  0  0  0
  1  2  1  0
  2  3  1  0
  3  4  2  0
  4  5  1  0
  5  6  2  0
  6  7  1  0
  7  8  1  0
  8  9  1  0
  9 10  2  0
  9 11  1  0
 11 12  1  0
 11 13  1  0
 13 14  1  0
 14 15  1  0
 15 16  2  0
 16 17  1  0
 17 18  2  0
 18 19  1  0
 19 20  2  0
 19 21  1  0
 21 22  2  3
 22 23  1  0
 23 24  2  0
 24 25  1  0
 25 26  1  0
 18 27  1  0
 27 28  2  0
 13 29  1  0
 29 30  2  0
  7 31  2  0
 31  3  1  0
 29  8  1  0
 28 15  1  0
 26 22  1  0
  1 32  1  0
  1 33  1  0
  1 34  1  0
  4 35  1  0
  5 36  1  0
  6 37  1  0
 12 38  1  0
 12 39  1  0
 12 40  1  0
 14 41  1  0
 14 42  1  0
 16 43  1  0
 17 44  1  0
 25 45  1  0
 26 46  1  0
 27 47  1  0
 28 48  1  0
 31 49  1  0
M  END
>  <smiles>  (87) 
COc1cccc(-n2c(=O)n(C)n(Cc3ccc(C(=O)N=c4nn[nH][nH]4)cc3)c2=O)c1

>  <score_type>  (87) 
oracle

>  <origin>  (87) 
adg

>  <m_score__min__energy>  (87) 
-8.9900000000000002

>  <m_primary>  (87) 
energy

$$$$
87:0
     RDKit          3D

 64 67  0  0  0  0  0  0  0  0999 V2000
   60.0930   28.6630   51.7480 C   0  0  0  0  0  0  0  0  0  0  0  0
   58.9390   29.1530   52.6190 C   0  0  0  0  0  0  0  0  0  0  0  0
   58.1190   30.1880   51.8970 C   0  0  0  0  0  0  0  0  0  0  0  0
   56.8630   30.0990   51.9430 O   0  0  0  0  0  0  0  0  0  0  0  0
   58.7310   31.2810   51.1810 N   0  0  0  0  0  0  0  0  0  0  0  0
   57.9750   31.9590   50.1180 C   0  0  0  0  0  0  0  0  0  0  0  0
   58.9050   32.3530   48.9620 C   0  0  0  0  0  0  0  0  0  0  0  0
   60.1540   32.9560   49.4540 N   0  0  0  0  0  0  0  0  0  0  0  0
   61.2450   33.1540   48.5380 C   0  0  0  0  0  0  0  0  0  0  0  0
   62.5420   32.7610   48.9090 C   0  0  0  0  0  0  0  0  0  0  0  0
   63.6100   32.9160   48.0220 C   0  0  0  0  0  0  0  0  0  0  0  0
   63.3920   33.4520   46.7530 C   0  0  0  0  0  0  0  0  0  0  0  0
   62.1090   33.8490   46.3720 C   0  0  0  0  0  0  0  0  0  0  0  0
   61.0300   33.7300   47.2700 C   0  0  0  0  0  0  0  0  0  0  0  0
   59.7100   34.1700   46.9060 N   0  0  0  0  0  0  0  0  0  0  0  0
   59.1060   34.0390   45.6140 C   0  0  0  0  0  0  0  0  0  0  0  0
   59.0680   35.0450   44.8560 O   0  0  0  0  0  0  0  0  0  0  0  0
   58.5700   32.7450   45.1370 C   0  0  0  0  0  0  0  0  0  0  0  0
   57.8770   32.6660   43.9170 C   0  0  0  0  0  0  0  0  0  0  0  0
   57.4000   31.4370   43.4560 C   0  0  0  0  0  0  0  0  0  0  0  0
   57.6090   30.2780   44.2070 C   0  0  0  0  0  0  0  0  0  0  0  0
   58.2840   30.3440   45.4340 C   0  0  0  0  0  0  0  0  0  0  0  0
   58.5250   28.8860   46.3910 S   0  0  0  0  0  0  0  0  0  0  0  0
   59.6880   28.1030   45.8510 O   0  0  0  0  0  0  0  0  0  0  0  0
   58.8400   29.2810   47.8070 O   0  0  0  0  0  0  0  0  0  0  0  0
   57.1090   27.8850   46.3810 N   0  0  0  0  0  0  0  0  0  0  0  0
   57.0210   26.7020   45.5850 C   0  0  0  0  0  0  0  0  0  0  0  0
   57.7750   26.6080   44.4100 C   0  0  0  0  0  0  0  0  0  0  0  0
   57.6830   25.4700   43.6000 C   0  0  0  0  0  0  0  0  0  0  0  0
   56.8410   24.4100   43.9680 C   0  0  0  0  0  0  0  0  0  0  0  0
   56.6950   23.2230   43.0640 C   0  0  0  0  0  0  0  0  0  0  0  0
   56.1000   24.5000   45.1570 C   0  0  0  0  0  0  0  0  0  0  0  0
   56.2000   25.6330   45.9690 C   0  0  0  0  0  0  0  0  0  0  0  0
   58.7530   31.5800   45.9010 C   0  0  0  0  0  0  0  0  0  0  0  0
   60.3610   33.1340   50.8940 C   0  0  0  0  0  0  0  0  0  0  0  0
   60.0280   31.8280   51.6220 C   0  0  0  0  0  0  0  0  0  0  0  0
   60.9148   28.3140   52.3905 H   0  0  0  0  0  0  0  0  0  0  0  0
   59.7468   27.8342   51.1129 H   0  0  0  0  0  0  0  0  0  0  0  0
   60.4489   29.4876   51.1129 H   0  0  0  0  0  0  0  0  0  0  0  0
   58.2949   28.2992   52.8761 H   0  0  0  0  0  0  0  0  0  0  0  0
   59.3563   29.6092   53.5288 H   0  0  0  0  0  0  0  0  0  0  0  0
   57.1953   31.2813   49.7401 H   0  0  0  0  0  0  0  0  0  0  0  0
   57.5185   32.8699   50.5326 H   0  0  0  0  0  0  0  0  0  0  0  0
   59.1487   31.4537   48.3773 H   0  0  0  0  0  0  0  0  0  0  0  0
   58.3852   33.0966   48.3400 H   0  0  0  0  0  0  0  0  0  0  0  0
   62.7176   32.3282   49.9049 H   0  0  0  0  0  0  0  0  0  0  0  0
   64.6238   32.6150   48.3247 H   0  0  0  0  0  0  0  0  0  0  0  0
   64.2321   33.5621   46.0515 H   0  0  0  0  0  0  0  0  0  0  0  0
   61.9395   34.2571   45.3647 H   0  0  0  0  0  0  0  0  0  0  0  0
   57.7095   33.5762   43.3225 H   0  0  0  0  0  0  0  0  0  0  0  0
   56.8588   31.3817   42.4999 H   0  0  0  0  0  0  0  0  0  0  0  0
   57.2427   29.3100   43.8344 H   0  0  0  0  0  0  0  0  0  0  0  0
   58.4434   27.4325   44.1213 H   0  0  0  0  0  0  0  0  0  0  0  0
   58.2721   25.4068   42.6732 H   0  0  0  0  0  0  0  0  0  0  0  0
   56.5829   22.3120   43.6702 H   0  0  0  0  0  0  0  0  0  0  0  0
   55.8060   23.3527   42.4292 H   0  0  0  0  0  0  0  0  0  0  0  0
   57.5889   23.1334   42.4292 H   0  0  0  0  0  0  0  0  0  0  0  0
   55.4365   23.6735   45.4514 H   0  0  0  0  0  0  0  0  0  0  0  0
   55.6337   25.6858   46.9106 H   0  0  0  0  0  0  0  0  0  0  0  0
   59.2674   31.6381   46.8716 H   0  0  0  0  0  0  0  0  0  0  0  0
   61.4109   33.4021   51.0833 H   0  0  0  0  0  0  0  0  0  0  0  0
   59.7058   33.9371   51.2625 H   0  0  0  0  0  0  0  0  0  0  0  0
   60.8170   31.0906   51.4129 H   0  0  0  0  0  0  0  0  0  0  0  0
   59.9661   32.0388   52.6998 H   0  0  0  0  0  0  0  0  0  0  0  0
  1  2  1  0
  2  3  1  0
  3  4  2  0
  3  5  1  0
  5  6  1  0
  6  7  1  0
  7  8  1  0
  8  9  1  0
  9 10  2  0
 10 11  1  0
 11 12  2  0
 12 13  1  0
 13 14  2  0
 14 15  1  0
 15 16  1  0
 16 17  2  0
 16 18  1  0
 18 19  2  0
 19 20  1  0
 20 21  2  0
 21 22  1  0
 22 23  1  0
 23 24  2  0
 23 25  2  0
 23 26  1  0
 26 27  1  0
 27 28  2  0
 28 29  1  0
 29 30  2  0
 30 31  1  0
 30 32  1  0
 32 33  2  0
 22 34  2  0
  8 35  1  0
 35 36  1  0
 36  5  1  0
 14  9  1  0
 34 18  1  0
 33 27  1  0
  1 37  1  0
  1 38  1  0
  1 39  1  0
  2 40  1  0
  2 41  1  0
  6 42  1  0
  6 43  1  0
  7 44  1  0
  7 45  1  0
 10 46  1  0
 11 47  1  0
 12 48  1  0
 13 49  1  0
 19 50  1  0
 20 51  1  0
 21 52  1  0
 28 53  1  0
 29 54  1  0
 31 55  1  0
 31 56  1  0
 31 57  1  0
 32 58  1  0
 33 59  1  0
 34 60  1  0
 35 61  1  0
 35 62  1  0
 36 63  1  0
 36 64  1  0
M  CHG  2  15  -1  26  -1
M  END
>  <UniqueID>  (88) 
85

>  <SMILES>  (88) 
CCC(=O)N1CCN(c2ccccc2[N-]C(=O)c2cccc(S(=O)(=O)[N-]c3ccc(C)cc3)c2)CC1

>  <Energy>  (88) 
85.53547288487084

>  <Genealogy>  (88) 
CCC(=O)N1CCN(c2ccccc2[N-]C(=O)c2cccc(S(=O)(=O)[N-]c3ccc(C)cc3)c2)CC1 (protonated)
CCC(=O)N1CCN(c2ccccc2[N-]C(=O)c2cccc(S(=O)(=O)[N-]c3ccc(C)cc3)c2)CC1 (3D coordinates assigned)
CCC(=O)N1CCN(c2ccccc2[N-]C(=O)c2cccc(S(=O)(=O)[N-]c3ccc(C)cc3)c2)CC1 (nonaromatic ring conformer: 85.53547288487084 kcal/mol)

>  <smiles>  (88) 
CCC(=O)N1CCN(c2ccccc2NC(=O)c2cccc(S(=O)(=O)Nc3ccc(C)cc3)c2)CC1

>  <score_type>  (88) 
oracle

>  <origin>  (88) 
adg

>  <m_score__min__energy>  (88) 
-13.109999999999999

>  <m_primary>  (88) 
energy

$$$$
