0:0
     RDKit          3D

 55 58  0  0  0  0  0  0  0  0999 V2000
   56.5980   33.5360   45.4830 O   0  0  0  0  0  0  0  0  0  0  0  0
   57.6620   32.8630   45.5880 C   0  0  0  0  0  0  0  0  0  0  0  0
   57.6860   31.4670   45.1040 C   0  0  0  0  0  0  0  0  0  0  0  0
   56.9190   31.0920   43.9890 C   0  0  0  0  0  0  0  0  0  0  0  0
   57.0180   29.8000   43.4670 C   0  0  0  0  0  0  0  0  0  0  0  0
   57.8930   28.8740   44.0400 C   0  0  0  0  0  0  0  0  0  0  0  0
   58.6640   29.2320   45.1590 C   0  0  0  0  0  0  0  0  0  0  0  0
   59.5720   28.3080   45.7690 N   0  0  0  0  0  0  0  0  0  0  0  0
   59.4480   27.7740   47.4160 S   0  0  0  0  0  0  0  0  0  0  0  0
   58.0860   27.1720   47.6290 O   0  0  0  0  0  0  0  0  0  0  0  0
   60.4810   26.7070   47.6620 O   0  0  0  0  0  0  0  0  0  0  0  0
   59.7270   29.0970   48.5480 C   0  0  0  0  0  0  0  0  0  0  0  0
   60.9790   29.7260   48.6140 C   0  0  0  0  0  0  0  0  0  0  0  0
   61.1840   30.7940   49.4910 C   0  0  0  0  0  0  0  0  0  0  0  0
   60.1360   31.2510   50.2970 C   0  0  0  0  0  0  0  0  0  0  0  0
   58.8680   30.6440   50.2330 C   0  0  0  0  0  0  0  0  0  0  0  0
   57.7790   31.1480   51.0350 N   0  0  0  0  0  0  0  0  0  0  0  0
   57.6530   32.3730   51.2460 O   0  0  0  0  0  0  0  0  0  0  0  0
   56.8650   30.2810   51.5930 O   0  0  0  0  0  0  0  0  0  0  0  0
   58.6750   29.5560   49.3570 C   0  0  0  0  0  0  0  0  0  0  0  0
   58.5500   30.5260   45.6910 C   0  0  0  0  0  0  0  0  0  0  0  0
   58.7930   33.4300   46.2690 N   0  0  0  0  0  0  0  0  0  0  0  0
   60.1120   33.4070   45.6160 C   0  0  0  0  0  0  0  0  0  0  0  0
   61.1210   34.2790   46.3710 C   0  0  0  0  0  0  0  0  0  0  0  0
   61.0430   33.9910   47.8120 N   0  0  0  0  0  0  0  0  0  0  0  0
   62.2360   33.7050   48.5730 C   0  0  0  0  0  0  0  0  0  0  0  0
   63.2870   32.9640   47.9990 C   0  0  0  0  0  0  0  0  0  0  0  0
   64.4490   32.7030   48.7310 C   0  0  0  0  0  0  0  0  0  0  0  0
   64.5750   33.1660   50.0450 C   0  0  0  0  0  0  0  0  0  0  0  0
   65.7410   32.9010   50.7620 O   0  0  0  0  0  0  0  0  0  0  0  0
   63.5300   33.8930   50.6280 C   0  0  0  0  0  0  0  0  0  0  0  0
   62.3660   34.1580   49.8990 C   0  0  0  0  0  0  0  0  0  0  0  0
   59.7270   33.9870   48.4780 C   0  0  0  0  0  0  0  0  0  0  0  0
   58.5820   34.2260   47.4860 C   0  0  0  0  0  0  0  0  0  0  0  0
   56.2369   31.8192   43.5244 H   0  0  0  0  0  0  0  0  0  0  0  0
   56.4044   29.5106   42.6011 H   0  0  0  0  0  0  0  0  0  0  0  0
   57.9786   27.8632   43.6147 H   0  0  0  0  0  0  0  0  0  0  0  0
   61.8022   29.3772   47.9731 H   0  0  0  0  0  0  0  0  0  0  0  0
   62.1710   31.2763   49.5478 H   0  0  0  0  0  0  0  0  0  0  0  0
   60.3044   32.0915   50.9863 H   0  0  0  0  0  0  0  0  0  0  0  0
   57.6929   29.0631   49.3070 H   0  0  0  0  0  0  0  0  0  0  0  0
   59.1418   30.8062   46.5749 H   0  0  0  0  0  0  0  0  0  0  0  0
   60.4815   32.3712   45.5907 H   0  0  0  0  0  0  0  0  0  0  0  0
   60.0023   33.8055   44.5966 H   0  0  0  0  0  0  0  0  0  0  0  0
   62.1364   34.0607   46.0087 H   0  0  0  0  0  0  0  0  0  0  0  0
   60.8878   35.3400   46.1978 H   0  0  0  0  0  0  0  0  0  0  0  0
   63.1931   32.5886   46.9693 H   0  0  0  0  0  0  0  0  0  0  0  0
   65.2683   32.1307   48.2715 H   0  0  0  0  0  0  0  0  0  0  0  0
   65.7980   32.1270   51.4130 H   0  0  0  0  0  0  0  0  0  0  0  0
   63.6246   34.2566   51.6618 H   0  0  0  0  0  0  0  0  0  0  0  0
   61.5465   34.7245   50.3655 H   0  0  0  0  0  0  0  0  0  0  0  0
   59.5779   33.0118   48.9646 H   0  0  0  0  0  0  0  0  0  0  0  0
   59.7156   34.8041   49.2143 H   0  0  0  0  0  0  0  0  0  0  0  0
   57.6298   33.9325   47.9520 H   0  0  0  0  0  0  0  0  0  0  0  0
   58.5549   35.2925   47.2181 H   0  0  0  0  0  0  0  0  0  0  0  0
  1  2  2  0
  2  3  1  0
  3  4  2  0
  4  5  1  0
  5  6  2  0
  6  7  1  0
  7  8  1  0
  8  9  1  0
  9 10  2  0
  9 11  2  0
  9 12  1  0
 12 13  2  0
 13 14  1  0
 14 15  2  0
 15 16  1  0
 16 17  1  0
 17 18  2  0
 17 19  1  0
 16 20  2  0
  7 21  2  0
  2 22  1  0
 22 23  1  0
 23 24  1  0
 24 25  1  0
 25 26  1  0
 26 27  2  0
 27 28  1  0
 28 29  2  0
 29 30  1  0
 29 31  1  0
 31 32  2  0
 25 33  1  0
 33 34  1  0
 21  3  1  0
 34 22  1  0
 20 12  1  0
 32 26  1  0
  4 35  1  0
  5 36  1  0
  6 37  1  0
 13 38  1  0
 14 39  1  0
 15 40  1  0
 20 41  1  0
 21 42  1  0
 23 43  1  0
 23 44  1  0
 24 45  1  0
 24 46  1  0
 27 47  1  0
 28 48  1  0
 30 49  1  0
 31 50  1  0
 32 51  1  0
 33 52  1  0
 33 53  1  0
 34 54  1  0
 34 55  1  0
M  CHG  3   8  -1  17   1  19  -1
M  END
>  <UniqueID>  (1) 
1

>  <SMILES>  (1) 
O=C(c1cccc([N-]S(=O)(=O)c2cccc([N+](=O)[O-])c2)c1)N1CCN(c2ccc(O)cc2)CC1

>  <Energy>  (1) 
75.65886320297383

>  <Genealogy>  (1) 
O=C(c1cccc([N-]S(=O)(=O)c2cccc([N+](=O)[O-])c2)c1)N1CCN(c2ccc(O)cc2)CC1 (protonated)
O=C(c1cccc([N-]S(=O)(=O)c2cccc([N+](=O)[O-])c2)c1)N1CCN(c2ccc(O)cc2)CC1 (3D coordinates assigned)
O=C(c1cccc([N-]S(=O)(=O)c2cccc([N+](=O)[O-])c2)c1)N1CCN(c2ccc(O)cc2)CC1 (nonaromatic ring conformer: 75.65886320297383 kcal/mol)

>  <smiles>  (1) 
O=C(c1cccc(NS(=O)(=O)c2cccc([N+](=O)[O-])c2)c1)N1CCN(c2ccc(O)cc2)CC1

>  <score_type>  (1) 
oracle

>  <origin>  (1) 
adg

>  <m_score__min__energy>  (1) 
-11.640000000000001

>  <m_primary>  (1) 
energy

$$$$
1:0
     RDKit          3D

 34 36  0  0  0  0  0  0  0  0999 V2000
   59.1077   35.4679   46.9905 H   0  0  0  0  0  0  0  0  0  0  0  0
   59.4980   34.4400   46.9590 C   0  0  0  0  0  0  0  0  0  0  0  0
   60.6780   34.1320   47.7890 C   0  0  0  0  0  0  0  0  0  0  0  0
   60.6330   34.2490   49.1840 C   0  0  0  0  0  0  0  0  0  0  0  0
   59.6934   34.5374   49.6780 H   0  0  0  0  0  0  0  0  0  0  0  0
   61.7730   34.0020   49.9520 C   0  0  0  0  0  0  0  0  0  0  0  0
   61.7178   34.0828   51.0476 H   0  0  0  0  0  0  0  0  0  0  0  0
   62.9950   33.6500   49.3400 C   0  0  0  0  0  0  0  0  0  0  0  0
   64.1810   33.3900   50.1360 N   0  0  0  0  0  0  0  0  0  0  0  0
   64.4490   34.1650   51.3540 C   0  0  0  0  0  0  0  0  0  0  0  0
   64.2348   33.5455   52.2373 H   0  0  0  0  0  0  0  0  0  0  0  0
   65.5053   34.4715   51.3686 H   0  0  0  0  0  0  0  0  0  0  0  0
   63.8077   35.0586   51.3686 H   0  0  0  0  0  0  0  0  0  0  0  0
   65.1330   32.3460   49.7380 C   0  0  0  0  0  0  0  0  0  0  0  0
   65.5603   31.8774   50.6368 H   0  0  0  0  0  0  0  0  0  0  0  0
   64.6124   31.5839   49.1395 H   0  0  0  0  0  0  0  0  0  0  0  0
   65.9397   32.7943   49.1395 H   0  0  0  0  0  0  0  0  0  0  0  0
   63.0350   33.5680   47.9330 C   0  0  0  0  0  0  0  0  0  0  0  0
   63.9779   33.3055   47.4310 H   0  0  0  0  0  0  0  0  0  0  0  0
   61.8920   33.8160   47.1680 C   0  0  0  0  0  0  0  0  0  0  0  0
   61.9467   33.7625   46.0707 H   0  0  0  0  0  0  0  0  0  0  0  0
   58.8650   33.5590   46.1680 C   0  0  0  0  0  0  0  0  0  0  0  0
   57.7950   32.3660   46.7710 S   0  0  0  0  0  0  0  0  0  0  0  0
   57.4750   31.7920   45.2290 C   0  0  0  0  0  0  0  0  0  0  0  0
   58.1210   32.4520   44.2920 N   0  0  0  0  0  0  0  0  0  0  0  0
   58.8970   33.4550   44.7600 C   0  0  0  0  0  0  0  0  0  0  0  0
   59.5340   34.2250   43.9920 O   0  0  0  0  0  0  0  0  0  0  0  0
   57.7700   31.9420   42.9880 C   0  0  0  0  0  0  0  0  0  0  0  0
   57.2847   32.7121   42.3704 H   0  0  0  0  0  0  0  0  0  0  0  0
   58.6281   31.6099   42.3852 H   0  0  0  0  0  0  0  0  0  0  0  0
   56.7800   30.8100   43.3690 C   0  0  0  0  0  0  0  0  0  0  0  0
   55.7939   30.9918   42.9167 H   0  0  0  0  0  0  0  0  0  0  0  0
   57.1194   29.8283   43.0068 H   0  0  0  0  0  0  0  0  0  0  0  0
   56.6900   30.8530   44.8370 N   0  0  0  0  0  0  0  0  0  0  0  0
  1  2  1  0
  2  3  1  0
  3  4  2  0
  4  5  1  0
  4  6  1  0
  6  7  1  0
  6  8  2  0
  8  9  1  0
  9 10  1  0
 10 11  1  0
 10 12  1  0
 10 13  1  0
  9 14  1  0
 14 15  1  0
 14 16  1  0
 14 17  1  0
  8 18  1  0
 18 19  1  0
 18 20  2  0
 20 21  1  0
  2 22  2  0
 22 23  1  0
 23 24  1  0
 24 25  1  0
 25 26  1  0
 26 27  2  0
 25 28  1  0
 28 29  1  0
 28 30  1  0
 28 31  1  0
 31 32  1  0
 31 33  1  0
 31 34  1  0
 20  3  1  0
 26 22  1  0
 34 24  2  0
M  END
>  <UniqueID>  (2) 
2

>  <SMILES>  (2) 
CN(C)c1ccc(/C=c2/sc3n(c2=O)CCN=3)cc1

>  <Energy>  (2) 
101.9675696850972

>  <Genealogy>  (2) 
CN(C)c1ccc(/C=c2/sc3n(c2=O)CCN=3)cc1 (cis-trans isomerization)
CN(C)c1ccc(/C=c2/sc3n(c2=O)CCN=3)cc1 (3D coordinates assigned)
CN(C)c1ccc(/C=c2/sc3n(c2=O)CCN=3)cc1 (nonaromatic ring conformer: 101.9675696850972 kcal/mol)

>  <smiles>  (2) 
CN(C)c1ccc(C=c2sc3n(c2=O)CCN=3)cc1

>  <score_type>  (2) 
oracle

>  <origin>  (2) 
adg

>  <m_score__min__energy>  (2) 
-6.6500000000000004

>  <m_primary>  (2) 
energy

$$$$
2:0
     RDKit          3D

 66 69  0  0  0  0  0  0  0  0999 V2000
   51.1950   24.0830   42.8290 C   0  0  0  0  0  0  0  0  0  0  0  0
   50.6710   23.8920   44.2510 C   0  0  0  0  0  0  0  0  0  0  0  0
   51.7510   23.4110   45.2240 C   0  0  0  0  0  0  0  0  0  0  0  0
   52.9230   22.9800   44.5270 O   0  0  0  0  0  0  0  0  0  0  0  0
   54.1970   23.5730   44.5800 C   0  0  0  0  0  0  0  0  0  0  0  0
   55.2090   23.3170   43.6310 C   0  0  0  0  0  0  0  0  0  0  0  0
   56.4580   23.9320   43.7510 C   0  0  0  0  0  0  0  0  0  0  0  0
   56.7230   24.8020   44.8220 C   0  0  0  0  0  0  0  0  0  0  0  0
   58.0610   25.4790   44.9370 C   0  0  0  0  0  0  0  0  0  0  0  0
   57.8970   26.9750   44.9240 C   0  0  0  0  0  0  0  0  0  0  0  0
   57.7700   27.6620   43.7070 C   0  0  0  0  0  0  0  0  0  0  0  0
   57.6040   29.0500   43.6920 C   0  0  0  0  0  0  0  0  0  0  0  0
   57.5610   29.7730   44.9000 C   0  0  0  0  0  0  0  0  0  0  0  0
   57.4160   31.1680   44.9460 O   0  0  0  0  0  0  0  0  0  0  0  0
   58.4310   32.0950   45.3440 C   0  0  1  0  0  0  0  0  0  0  0  0
   58.5280   33.2550   44.3450 C   0  0  0  0  0  0  0  0  0  0  0  0
   58.3810   34.5370   45.1470 C   0  0  0  0  0  0  0  0  0  0  0  0
   57.6220   34.1450   46.3990 C   0  0  0  0  0  0  0  0  0  0  0  0
   58.0520   32.7120   46.7030 C   0  0  2  0  0  0  0  0  0  0  0  0
   59.1950   32.6860   47.6240 N   0  0  0  0  0  0  0  0  0  0  0  0
   59.3770   31.6300   48.5780 C   0  0  0  0  0  0  0  0  0  0  0  0
   58.5810   30.6530   48.6040 O   0  0  0  0  0  0  0  0  0  0  0  0
   60.4920   31.6950   49.5740 C   0  0  0  0  0  0  0  0  0  0  0  0
   61.7240   32.2690   48.9330 C   0  0  0  0  0  0  0  0  0  0  0  0
   62.1890   31.7540   47.7120 C   0  0  0  0  0  0  0  0  0  0  0  0
   63.3510   32.2690   47.1280 C   0  0  0  0  0  0  0  0  0  0  0  0
   64.0610   33.2940   47.7630 C   0  0  0  0  0  0  0  0  0  0  0  0
   63.6120   33.8000   48.9870 C   0  0  0  0  0  0  0  0  0  0  0  0
   62.4510   33.2870   49.5730 C   0  0  0  0  0  0  0  0  0  0  0  0
   57.6720   29.0820   46.1120 C   0  0  0  0  0  0  0  0  0  0  0  0
   57.8330   27.6930   46.1270 C   0  0  0  0  0  0  0  0  0  0  0  0
   55.7130   25.0670   45.7590 C   0  0  0  0  0  0  0  0  0  0  0  0
   54.4630   24.4510   45.6380 C   0  0  0  0  0  0  0  0  0  0  0  0
   52.2279   24.4595   42.8663 H   0  0  0  0  0  0  0  0  0  0  0  0
   51.1748   23.1197   42.2983 H   0  0  0  0  0  0  0  0  0  0  0  0
   50.5597   24.8074   42.2983 H   0  0  0  0  0  0  0  0  0  0  0  0
   50.2764   24.8533   44.6118 H   0  0  0  0  0  0  0  0  0  0  0  0
   49.8909   23.1174   44.2142 H   0  0  0  0  0  0  0  0  0  0  0  0
   52.0189   24.2372   45.8990 H   0  0  0  0  0  0  0  0  0  0  0  0
   51.3516   22.5582   45.7925 H   0  0  0  0  0  0  0  0  0  0  0  0
   55.0142   22.6308   42.7936 H   0  0  0  0  0  0  0  0  0  0  0  0
   57.2389   23.7337   43.0021 H   0  0  0  0  0  0  0  0  0  0  0  0
   58.5406   25.1755   45.8793 H   0  0  0  0  0  0  0  0  0  0  0  0
   58.6851   25.1818   44.0813 H   0  0  0  0  0  0  0  0  0  0  0  0
   57.8013   27.1049   42.7590 H   0  0  0  0  0  0  0  0  0  0  0  0
   57.5066   29.5797   42.7329 H   0  0  0  0  0  0  0  0  0  0  0  0
   59.3854   31.5504   45.3941 H   0  0  0  0  0  0  0  0  0  0  0  0
   59.5030   33.2362   43.8361 H   0  0  0  0  0  0  0  0  0  0  0  0
   57.7467   33.1792   43.5744 H   0  0  0  0  0  0  0  0  0  0  0  0
   59.3695   34.9431   45.4077 H   0  0  0  0  0  0  0  0  0  0  0  0
   57.8547   35.3172   44.5775 H   0  0  0  0  0  0  0  0  0  0  0  0
   57.8863   34.8112   47.2335 H   0  0  0  0  0  0  0  0  0  0  0  0
   56.5338   34.2242   46.2589 H   0  0  0  0  0  0  0  0  0  0  0  0
   57.2463   32.1479   47.1956 H   0  0  0  0  0  0  0  0  0  0  0  0
   59.8920   33.4660   47.6130 H   0  0  0  0  0  0  0  0  0  0  0  0
   60.1897   32.3331   50.4174 H   0  0  0  0  0  0  0  0  0  0  0  0
   60.7132   30.6793   49.9337 H   0  0  0  0  0  0  0  0  0  0  0  0
   61.6377   30.9431   47.2134 H   0  0  0  0  0  0  0  0  0  0  0  0
   63.7073   31.8675   46.1679 H   0  0  0  0  0  0  0  0  0  0  0  0
   64.9717   33.7015   47.2998 H   0  0  0  0  0  0  0  0  0  0  0  0
   64.1727   34.6022   49.4890 H   0  0  0  0  0  0  0  0  0  0  0  0
   62.1050   33.6821   50.5395 H   0  0  0  0  0  0  0  0  0  0  0  0
   57.6322   29.6364   47.0612 H   0  0  0  0  0  0  0  0  0  0  0  0
   57.9098   27.1611   47.0868 H   0  0  0  0  0  0  0  0  0  0  0  0
   55.9046   25.7608   46.5908 H   0  0  0  0  0  0  0  0  0  0  0  0
   53.6801   24.6586   46.3823 H   0  0  0  0  0  0  0  0  0  0  0  0
  1  2  1  0
  2  3  1  0
  3  4  1  0
  4  5  1  0
  5  6  2  0
  6  7  1  0
  7  8  2  0
  8  9  1  0
  9 10  1  0
 10 11  2  0
 11 12  1  0
 12 13  2  0
 13 14  1  0
 14 15  1  0
 15 16  1  0
 16 17  1  0
 17 18  1  0
 18 19  1  0
 19 20  1  0
 20 21  1  0
 21 22  2  0
 21 23  1  0
 23 24  1  0
 24 25  2  0
 25 26  1  0
 26 27  2  0
 27 28  1  0
 28 29  2  0
 13 30  1  0
 30 31  2  0
  8 32  1  0
 32 33  2  0
 33  5  1  0
 31 10  1  0
 19 15  1  0
 29 24  1  0
  1 34  1  0
  1 35  1  0
  1 36  1  0
  2 37  1  0
  2 38  1  0
  3 39  1  0
  3 40  1  0
  6 41  1  0
  7 42  1  0
  9 43  1  0
  9 44  1  0
 11 45  1  0
 12 46  1  0
 15 47  1  1
 16 48  1  0
 16 49  1  0
 17 50  1  0
 17 51  1  0
 18 52  1  0
 18 53  1  0
 19 54  1  1
 20 55  1  0
 23 56  1  0
 23 57  1  0
 25 58  1  0
 26 59  1  0
 27 60  1  0
 28 61  1  0
 29 62  1  0
 30 63  1  0
 31 64  1  0
 32 65  1  0
 33 66  1  0
M  END
>  <UniqueID>  (3) 
3

>  <SMILES>  (3) 
CCCOc1ccc(Cc2ccc(O[C@H]3CCC[C@@H]3NC(=O)Cc3ccccc3)cc2)cc1

>  <Energy>  (3) 
62.57286444525357

>  <Genealogy>  (3) 
CCCOc1ccc(Cc2ccc(O[C@H]3CCC[C@@H]3NC(=O)Cc3ccccc3)cc2)cc1 (chirality)
CCCOc1ccc(Cc2ccc(O[C@H]3CCC[C@@H]3NC(=O)Cc3ccccc3)cc2)cc1 (3D coordinates assigned)
CCCOc1ccc(Cc2ccc(O[C@H]3CCC[C@@H]3NC(=O)Cc3ccccc3)cc2)cc1 (nonaromatic ring conformer: 62.57286444525357 kcal/mol)

>  <smiles>  (3) 
CCCOc1ccc(Cc2ccc(OC3CCCC3NC(=O)Cc3ccccc3)cc2)cc1

>  <score_type>  (3) 
oracle

>  <origin>  (3) 
adg

>  <m_score__min__energy>  (3) 
-10.09

>  <m_primary>  (3) 
energy

$$$$
3:0
     RDKit          3D

 31 33  0  0  0  0  0  0  0  0999 V2000
   54.8150   24.4630   45.2490 C   0  0  0  0  0  0  0  0  0  0  0  0
   55.5160   25.2290   46.2240 O   0  0  0  0  0  0  0  0  0  0  0  0
   56.6680   25.9870   45.9620 C   0  0  0  0  0  0  0  0  0  0  0  0
   56.6240   27.3860   45.8040 C   0  0  0  0  0  0  0  0  0  0  0  0
   57.7980   28.1190   45.5440 C   0  0  0  0  0  0  0  0  0  0  0  0
   57.7450   29.5930   45.3770 C   0  0  0  0  0  0  0  0  0  0  0  0
   56.7110   30.1970   44.6390 C   0  0  0  0  0  0  0  0  0  0  0  0
   56.6690   31.5470   44.4870 N   0  0  0  0  0  0  0  0  0  0  0  0
   57.6090   32.3610   45.0350 C   0  0  0  0  0  0  0  0  0  0  0  0
   57.5290   33.7460   44.8580 C   0  0  0  0  0  0  0  0  0  0  0  0
   58.4980   34.5820   45.4240 C   0  0  0  0  0  0  0  0  0  0  0  0
   59.5480   34.0340   46.1690 C   0  0  0  0  0  0  0  0  0  0  0  0
   59.6360   32.6500   46.3510 C   0  0  0  0  0  0  0  0  0  0  0  0
   58.6690   31.8060   45.7850 C   0  0  0  0  0  0  0  0  0  0  0  0
   58.7290   30.4170   45.9500 C   0  0  0  0  0  0  0  0  0  0  0  0
   59.0200   27.4330   45.4460 C   0  0  0  0  0  0  0  0  0  0  0  0
   59.0690   26.0470   45.6020 C   0  0  0  0  0  0  0  0  0  0  0  0
   57.9010   25.3250   45.8580 C   0  0  0  0  0  0  0  0  0  0  0  0
   57.9950   23.5810   46.0490 Cl  0  0  0  0  0  0  0  0  0  0  0  0
   54.1553   23.7421   45.7540 H   0  0  0  0  0  0  0  0  0  0  0  0
   54.2116   25.1340   44.6200 H   0  0  0  0  0  0  0  0  0  0  0  0
   55.5368   23.9213   44.6200 H   0  0  0  0  0  0  0  0  0  0  0  0
   55.6614   27.9121   45.8846 H   0  0  0  0  0  0  0  0  0  0  0  0
   55.9302   29.5718   44.1813 H   0  0  0  0  0  0  0  0  0  0  0  0
   56.7037   34.1785   44.2734 H   0  0  0  0  0  0  0  0  0  0  0  0
   58.4342   35.6711   45.2831 H   0  0  0  0  0  0  0  0  0  0  0  0
   60.3073   34.6943   46.6133 H   0  0  0  0  0  0  0  0  0  0  0  0
   60.4631   32.2236   46.9377 H   0  0  0  0  0  0  0  0  0  0  0  0
   59.5492   29.9690   46.5302 H   0  0  0  0  0  0  0  0  0  0  0  0
   59.9454   27.9926   45.2447 H   0  0  0  0  0  0  0  0  0  0  0  0
   60.0317   25.5208   45.5230 H   0  0  0  0  0  0  0  0  0  0  0  0
  1  2  1  0
  2  3  1  0
  3  4  2  0
  4  5  1  0
  5  6  1  0
  6  7  2  0
  7  8  1  0
  8  9  2  0
  9 10  1  0
 10 11  2  0
 11 12  1  0
 12 13  2  0
 13 14  1  0
 14 15  2  0
  5 16  2  0
 16 17  1  0
 17 18  2  0
 18 19  1  0
 18  3  1  0
 15  6  1  0
 14  9  1  0
  1 20  1  0
  1 21  1  0
  1 22  1  0
  4 23  1  0
  7 24  1  0
 10 25  1  0
 11 26  1  0
 12 27  1  0
 13 28  1  0
 15 29  1  0
 16 30  1  0
 17 31  1  0
M  END
>  <UniqueID>  (4) 
4

>  <SMILES>  (4) 
COc1cc(-c2cnc3ccccc3c2)ccc1Cl

>  <Energy>  (4) 
41.982923077632336

>  <Genealogy>  (4) 
COc1cc(-c2cnc3ccccc3c2)ccc1Cl (3D coordinates assigned)
COc1cc(-c2cnc3ccccc3c2)ccc1Cl (optimized conformer: 41.982923077632336 kcal/mol)

>  <smiles>  (4) 
COc1cc(-c2cnc3ccccc3c2)ccc1Cl

>  <score_type>  (4) 
oracle

>  <origin>  (4) 
adg

>  <m_score__min__energy>  (4) 
-7.3399999999999999

>  <m_primary>  (4) 
energy

$$$$
4:0
     RDKit          3D

 63 66  0  0  0  0  0  0  0  0999 V2000
   57.0010   21.1380   42.9750 C   0  0  0  0  0  0  0  0  0  0  0  0
   56.2340   22.3850   43.0340 N   0  0  0  0  0  0  0  0  0  0  0  0
   56.6410   23.2250   44.1730 C   0  0  0  0  0  0  0  0  0  0  0  0
   57.3470   24.5030   43.7560 C   0  0  0  0  0  0  0  0  0  0  0  0
   57.3780   24.8180   42.5330 O   0  0  0  0  0  0  0  0  0  0  0  0
   57.9370   25.3900   44.7390 N   0  0  0  0  0  0  0  0  0  0  0  0
   58.7950   24.8650   45.8050 C   0  0  0  0  0  0  0  0  0  0  0  0
   57.7020   26.8090   44.6670 C   0  0  0  0  0  0  0  0  0  0  0  0
   57.7690   27.4860   43.4420 C   0  0  0  0  0  0  0  0  0  0  0  0
   57.5150   28.8550   43.3870 C   0  0  0  0  0  0  0  0  0  0  0  0
   57.1640   29.5420   44.5490 C   0  0  0  0  0  0  0  0  0  0  0  0
   56.9380   30.9580   44.4670 N   0  0  0  0  0  0  0  0  0  0  0  0
   57.4230   31.8760   45.2500 C   0  0  0  0  0  0  0  0  0  0  0  0
   58.1660   31.4940   46.3290 N   0  0  0  0  0  0  0  0  0  0  0  0
   58.6960   32.4480   47.1370 C   0  0  0  0  0  0  0  0  0  0  0  0
   58.5300   33.7710   46.8720 C   0  0  0  0  0  0  0  0  0  0  0  0
   57.7940   34.1770   45.7700 C   0  0  0  0  0  0  0  0  0  0  0  0
   57.2510   33.2100   44.9750 N   0  0  0  0  0  0  0  0  0  0  0  0
   59.2680   34.4770   47.7870 C   0  0  0  0  0  0  0  0  0  0  0  0
   59.8670   33.5070   48.5880 C   0  0  0  0  0  0  0  0  0  0  0  0
   60.8920   33.8330   49.5920 C   0  0  0  0  0  0  0  0  0  0  0  0
   60.5170   34.1560   50.7540 O   0  0  0  0  0  0  0  0  0  0  0  0
   62.2990   33.7980   49.2670 N   0  0  0  0  0  0  0  0  0  0  0  0
   62.7520   33.3010   47.9590 C   0  0  0  0  0  0  0  0  0  0  0  0
   63.2660   34.3190   50.2390 C   0  0  0  0  0  0  0  0  0  0  0  0
   59.4870   32.2440   48.2160 N   0  0  0  0  0  0  0  0  0  0  0  0
   59.9700   30.9280   48.7040 C   0  0  0  0  0  0  0  0  0  0  0  0
   58.8570   29.9780   49.1510 C   0  0  0  0  0  0  0  0  0  0  0  0
   59.4350   28.5850   48.9990 C   0  0  0  0  0  0  0  0  0  0  0  0
   60.3710   28.6640   47.8050 C   0  0  0  0  0  0  0  0  0  0  0  0
   60.7130   30.1420   47.6110 C   0  0  0  0  0  0  0  0  0  0  0  0
   57.1330   28.8770   45.7450 N   0  0  0  0  0  0  0  0  0  0  0  0
   57.3800   27.5390   45.8200 C   0  0  0  0  0  0  0  0  0  0  0  0
   57.2148   20.7904   43.9965 H   0  0  0  0  0  0  0  0  0  0  0  0
   56.4170   20.3732   42.4421 H   0  0  0  0  0  0  0  0  0  0  0  0
   57.9470   21.3143   42.4421 H   0  0  0  0  0  0  0  0  0  0  0  0
   56.3520   22.9090   42.1340 H   0  0  0  0  0  0  0  0  0  0  0  0
   55.7420   23.4943   44.7468 H   0  0  0  0  0  0  0  0  0  0  0  0
   57.3548   22.6391   44.7707 H   0  0  0  0  0  0  0  0  0  0  0  0
   58.3662   25.1274   46.7834 H   0  0  0  0  0  0  0  0  0  0  0  0
   58.8626   23.7707   45.7158 H   0  0  0  0  0  0  0  0  0  0  0  0
   59.8001   25.3029   45.7158 H   0  0  0  0  0  0  0  0  0  0  0  0
   58.0222   26.9365   42.5233 H   0  0  0  0  0  0  0  0  0  0  0  0
   57.5911   29.3922   42.4301 H   0  0  0  0  0  0  0  0  0  0  0  0
   57.6522   35.2441   45.5436 H   0  0  0  0  0  0  0  0  0  0  0  0
   59.3657   35.5695   47.8703 H   0  0  0  0  0  0  0  0  0  0  0  0
   63.4862   32.4954   48.1071 H   0  0  0  0  0  0  0  0  0  0  0  0
   61.8905   32.9129   47.3958 H   0  0  0  0  0  0  0  0  0  0  0  0
   63.2181   34.1229   47.3958 H   0  0  0  0  0  0  0  0  0  0  0  0
   62.9027   34.1233   51.2586 H   0  0  0  0  0  0  0  0  0  0  0  0
   64.2363   33.8216   50.0937 H   0  0  0  0  0  0  0  0  0  0  0  0
   63.3843   35.4029   50.0937 H   0  0  0  0  0  0  0  0  0  0  0  0
   60.6151   31.2060   49.5505 H   0  0  0  0  0  0  0  0  0  0  0  0
   58.5846   30.1698   50.1993 H   0  0  0  0  0  0  0  0  0  0  0  0
   57.9417   30.1095   48.5552 H   0  0  0  0  0  0  0  0  0  0  0  0
   59.9897   28.2977   49.9044 H   0  0  0  0  0  0  0  0  0  0  0  0
   58.6487   27.8298   48.8528 H   0  0  0  0  0  0  0  0  0  0  0  0
   61.2859   28.0859   48.0018 H   0  0  0  0  0  0  0  0  0  0  0  0
   59.8986   28.2458   46.9039 H   0  0  0  0  0  0  0  0  0  0  0  0
   61.7980   30.2938   47.7092 H   0  0  0  0  0  0  0  0  0  0  0  0
   60.4111   30.4845   46.6102 H   0  0  0  0  0  0  0  0  0  0  0  0
   56.9460   29.3900   46.6330 H   0  0  0  0  0  0  0  0  0  0  0  0
   57.3264   27.0277   46.7925 H   0  0  0  0  0  0  0  0  0  0  0  0
  1  2  1  0
  2  3  1  0
  3  4  1  0
  4  5  2  0
  4  6  1  0
  6  7  1  0
  6  8  1  0
  8  9  2  0
  9 10  1  0
 10 11  2  0
 11 12  1  0
 12 13  2  3
 13 14  1  0
 14 15  2  0
 15 16  1  0
 16 17  2  0
 17 18  1  0
 16 19  1  0
 19 20  2  0
 20 21  1  0
 21 22  2  0
 21 23  1  0
 23 24  1  0
 23 25  1  0
 20 26  1  0
 26 27  1  0
 27 28  1  0
 28 29  1  0
 29 30  1  0
 30 31  1  0
 11 32  1  0
 32 33  2  0
 33  8  1  0
 18 13  1  0
 31 27  1  0
 26 15  1  0
  1 34  1  0
  1 35  1  0
  1 36  1  0
  2 37  1  0
  3 38  1  0
  3 39  1  0
  7 40  1  0
  7 41  1  0
  7 42  1  0
  9 43  1  0
 10 44  1  0
 17 45  1  0
 19 46  1  0
 24 47  1  0
 24 48  1  0
 24 49  1  0
 25 50  1  0
 25 51  1  0
 25 52  1  0
 27 53  1  0
 28 54  1  0
 28 55  1  0
 29 56  1  0
 29 57  1  0
 30 58  1  0
 30 59  1  0
 31 60  1  0
 31 61  1  0
 32 62  1  0
 33 63  1  0
M  CHG  2  18  -1  32   1
M  END
>  <UniqueID>  (5) 
5

>  <SMILES>  (5) 
CNCC(=O)N(C)c1ccc(N=c2nc3c(c[n-]2)cc(C(=O)N(C)C)n3C2CCCC2)[nH+]c1

>  <Energy>  (5) 
123.27020445701703

>  <Genealogy>  (5) 
CNCC(=O)N(C)c1ccc(N=c2nc3c(c[n-]2)cc(C(=O)N(C)C)n3C2CCCC2)[nH+]c1 (protonated)
CNCC(=O)N(C)c1ccc(N=c2nc3c(c[n-]2)cc(C(=O)N(C)C)n3C2CCCC2)[nH+]c1 (3D coordinates assigned)
CNCC(=O)N(C)c1ccc(N=c2nc3c(c[n-]2)cc(C(=O)N(C)C)n3C2CCCC2)[nH+]c1 (nonaromatic ring conformer: 123.27020445701703 kcal/mol)

>  <smiles>  (5) 
CNCC(=O)N(C)c1ccc(N=c2nc3c(c[nH]2)cc(C(=O)N(C)C)n3C2CCCC2)nc1

>  <score_type>  (5) 
oracle

>  <origin>  (5) 
adg

>  <m_score__min__energy>  (5) 
-8.2400000000000002

>  <m_primary>  (5) 
energy

$$$$
5:0
     RDKit          3D

 40 42  0  0  0  0  0  0  0  0999 V2000
   58.5290   29.2580   48.5510 O   0  0  0  0  0  0  0  0  0  0  0  0
   58.9450   28.5850   47.5690 C   0  0  0  0  0  0  0  0  0  0  0  0
   59.5280   29.2840   46.3810 C   0  0  0  0  0  0  0  0  0  0  0  0
   58.5690   29.2360   45.2170 C   0  0  0  0  0  0  0  0  0  0  0  0
   58.6540   28.1880   44.2840 C   0  0  0  0  0  0  0  0  0  0  0  0
   57.7680   28.1260   43.2070 C   0  0  0  0  0  0  0  0  0  0  0  0
   56.7840   29.1030   43.0520 C   0  0  0  0  0  0  0  0  0  0  0  0
   56.6840   30.1470   43.9730 C   0  0  0  0  0  0  0  0  0  0  0  0
   57.5830   30.2330   45.0530 C   0  0  0  0  0  0  0  0  0  0  0  0
   57.4820   31.2570   46.0110 O   0  0  0  0  0  0  0  0  0  0  0  0
   58.1960   32.4630   46.0080 C   0  0  0  0  0  0  0  0  0  0  0  0
   59.0110   32.8500   47.0890 C   0  0  0  0  0  0  0  0  0  0  0  0
   59.6890   34.0710   47.0540 C   0  0  0  0  0  0  0  0  0  0  0  0
   59.5510   34.9190   45.9510 C   0  0  0  0  0  0  0  0  0  0  0  0
   58.7260   34.5480   44.8850 C   0  0  0  0  0  0  0  0  0  0  0  0
   58.0460   33.3270   44.9160 C   0  0  0  0  0  0  0  0  0  0  0  0
   58.8630   27.1550   47.5750 N   0  0  0  0  0  0  0  0  0  0  0  0
   58.0330   26.3550   46.7220 C   0  0  0  0  0  0  0  0  0  0  0  0
   58.6030   25.2590   46.0620 C   0  0  0  0  0  0  0  0  0  0  0  0
   57.8150   24.4320   45.2570 C   0  0  0  0  0  0  0  0  0  0  0  0
   56.4490   24.6840   45.1170 C   0  0  0  0  0  0  0  0  0  0  0  0
   55.8610   25.7600   45.7910 C   0  0  0  0  0  0  0  0  0  0  0  0
   54.4930   25.9890   45.6580 O   0  0  0  0  0  0  0  0  0  0  0  0
   56.6510   26.5930   46.5980 C   0  0  0  0  0  0  0  0  0  0  0  0
   59.7293   30.3336   46.6412 H   0  0  0  0  0  0  0  0  0  0  0  0
   60.4620   28.7789   46.0938 H   0  0  0  0  0  0  0  0  0  0  0  0
   59.4239   27.4115   44.4034 H   0  0  0  0  0  0  0  0  0  0  0  0
   57.8458   27.3051   42.4789 H   0  0  0  0  0  0  0  0  0  0  0  0
   56.0864   29.0504   42.2031 H   0  0  0  0  0  0  0  0  0  0  0  0
   55.8979   30.9073   43.8543 H   0  0  0  0  0  0  0  0  0  0  0  0
   59.1141   32.1897   47.9627 H   0  0  0  0  0  0  0  0  0  0  0  0
   60.3327   34.3658   47.8959 H   0  0  0  0  0  0  0  0  0  0  0  0
   60.0909   35.8769   45.9220 H   0  0  0  0  0  0  0  0  0  0  0  0
   58.6118   35.2182   44.0202 H   0  0  0  0  0  0  0  0  0  0  0  0
   57.3905   33.0437   44.0793 H   0  0  0  0  0  0  0  0  0  0  0  0
   59.6764   25.0481   46.1779 H   0  0  0  0  0  0  0  0  0  0  0  0
   58.2722   23.5802   44.7323 H   0  0  0  0  0  0  0  0  0  0  0  0
   55.8339   24.0356   44.4757 H   0  0  0  0  0  0  0  0  0  0  0  0
   53.9400   25.5030   44.9620 H   0  0  0  0  0  0  0  0  0  0  0  0
   56.1891   27.4344   47.1353 H   0  0  0  0  0  0  0  0  0  0  0  0
  1  2  2  0
  2  3  1  0
  3  4  1  0
  4  5  2  0
  5  6  1  0
  6  7  2  0
  7  8  1  0
  8  9  2  0
  9 10  1  0
 10 11  1  0
 11 12  2  0
 12 13  1  0
 13 14  2  0
 14 15  1  0
 15 16  2  0
  2 17  1  0
 17 18  1  0
 18 19  2  0
 19 20  1  0
 20 21  2  0
 21 22  1  0
 22 23  1  0
 22 24  2  0
  9  4  1  0
 16 11  1  0
 24 18  1  0
  3 25  1  0
  3 26  1  0
  5 27  1  0
  6 28  1  0
  7 29  1  0
  8 30  1  0
 12 31  1  0
 13 32  1  0
 14 33  1  0
 15 34  1  0
 16 35  1  0
 19 36  1  0
 20 37  1  0
 21 38  1  0
 23 39  1  0
 24 40  1  0
M  CHG  1  17  -1
M  END
>  <UniqueID>  (6) 
6

>  <SMILES>  (6) 
O=C(Cc1ccccc1Oc1ccccc1)[N-]c1cccc(O)c1

>  <Energy>  (6) 
50.005697886263995

>  <Genealogy>  (6) 
O=C(Cc1ccccc1Oc1ccccc1)[N-]c1cccc(O)c1 (protonated)
O=C(Cc1ccccc1Oc1ccccc1)[N-]c1cccc(O)c1 (3D coordinates assigned)
O=C(Cc1ccccc1Oc1ccccc1)[N-]c1cccc(O)c1 (optimized conformer: 50.005697886263995 kcal/mol)

>  <smiles>  (6) 
O=C(Cc1ccccc1Oc1ccccc1)Nc1cccc(O)c1

>  <score_type>  (6) 
oracle

>  <origin>  (6) 
adg

>  <m_score__min__energy>  (6) 
-10.26

>  <m_primary>  (6) 
energy

$$$$
6:0
     RDKit          3D

 44 46  0  0  0  0  0  0  0  0999 V2000
   56.2920   22.9460   47.9610 C   0  0  0  0  0  0  0  0  0  0  0  0
   57.3240   22.9470   46.9810 O   0  0  0  0  0  0  0  0  0  0  0  0
   57.1240   22.7200   45.6100 C   0  0  0  0  0  0  0  0  0  0  0  0
   57.8210   21.7110   44.9150 C   0  0  0  0  0  0  0  0  0  0  0  0
   57.5590   21.4720   43.5650 C   0  0  0  0  0  0  0  0  0  0  0  0
   56.5970   22.2270   42.8930 C   0  0  0  0  0  0  0  0  0  0  0  0
   55.9060   23.2360   43.5670 C   0  0  0  0  0  0  0  0  0  0  0  0
   56.1820   23.5100   44.9120 C   0  0  0  0  0  0  0  0  0  0  0  0
   55.4420   24.5520   45.5640 N   0  0  0  0  0  0  0  0  0  0  0  0
   55.9310   25.8680   45.8470 C   0  0  0  0  0  0  0  0  0  0  0  0
   55.1470   26.7090   46.3610 O   0  0  0  0  0  0  0  0  0  0  0  0
   57.2840   26.2360   45.5290 N   0  0  0  0  0  0  0  0  0  0  0  0
   57.8690   27.4650   45.9720 C   0  0  0  0  0  0  0  0  0  0  0  0
   59.1720   27.5310   47.0300 S   0  0  0  0  0  0  0  0  0  0  0  0
   59.2630   29.2060   47.0540 C   0  0  0  0  0  0  0  0  0  0  0  0
   58.2590   29.7490   46.2540 C   0  0  0  0  0  0  0  0  0  0  0  0
   57.4860   28.7600   45.5950 C   0  0  0  0  0  0  0  0  0  0  0  0
   56.4890   29.0310   44.5300 C   0  0  0  0  0  0  0  0  0  0  0  0
   55.1380   29.3530   44.8520 N   0  0  0  0  0  0  0  0  0  0  0  0
   56.8320   28.9780   43.3190 O   0  0  0  0  0  0  0  0  0  0  0  0
   58.1710   31.2390   46.0190 C   0  0  0  0  0  0  0  0  0  0  0  0
   58.9930   32.0470   47.0400 C   0  0  0  0  0  0  0  0  0  0  0  0
   60.3850   31.4240   47.2740 C   0  0  1  0  0  0  0  0  0  0  0  0
   61.2250   32.3060   48.2030 C   0  0  0  0  0  0  0  0  0  0  0  0
   60.2420   30.0050   47.8580 C   0  0  0  0  0  0  0  0  0  0  0  0
   56.7403   22.9464   48.9655 H   0  0  0  0  0  0  0  0  0  0  0  0
   55.6682   23.8435   47.8375 H   0  0  0  0  0  0  0  0  0  0  0  0
   55.6699   22.0473   47.8375 H   0  0  0  0  0  0  0  0  0  0  0  0
   58.5764   21.1079   45.4400 H   0  0  0  0  0  0  0  0  0  0  0  0
   58.1123   20.6865   43.0295 H   0  0  0  0  0  0  0  0  0  0  0  0
   56.3830   22.0274   41.8326 H   0  0  0  0  0  0  0  0  0  0  0  0
   55.1390   23.8200   43.0372 H   0  0  0  0  0  0  0  0  0  0  0  0
   57.9280   25.5140   45.1360 H   0  0  0  0  0  0  0  0  0  0  0  0
   54.8060   29.3440   45.8410 H   0  0  0  0  0  0  0  0  0  0  0  0
   58.5476   31.4596   45.0093 H   0  0  0  0  0  0  0  0  0  0  0  0
   57.1170   31.5332   46.1310 H   0  0  0  0  0  0  0  0  0  0  0  0
   59.1204   33.0726   46.6633 H   0  0  0  0  0  0  0  0  0  0  0  0
   58.4505   32.0427   47.9969 H   0  0  0  0  0  0  0  0  0  0  0  0
   60.9034   31.3557   46.3062 H   0  0  0  0  0  0  0  0  0  0  0  0
   60.9923   32.0617   49.2500 H   0  0  0  0  0  0  0  0  0  0  0  0
   62.2933   32.1254   48.0131 H   0  0  0  0  0  0  0  0  0  0  0  0
   60.9926   33.3643   48.0131 H   0  0  0  0  0  0  0  0  0  0  0  0
   61.2213   29.5045   47.8382 H   0  0  0  0  0  0  0  0  0  0  0  0
   59.8769   30.0801   48.8929 H   0  0  0  0  0  0  0  0  0  0  0  0
  1  2  1  0
  2  3  1  0
  3  4  2  0
  4  5  1  0
  5  6  2  0
  6  7  1  0
  7  8  2  0
  8  9  1  0
  9 10  1  0
 10 11  2  0
 10 12  1  0
 12 13  1  0
 13 14  1  0
 14 15  1  0
 15 16  2  0
 16 17  1  0
 17 18  1  0
 18 19  1  0
 18 20  2  0
 16 21  1  0
 21 22  1  0
 22 23  1  0
 23 24  1  0
 23 25  1  0
  8  3  1  0
 17 13  2  0
 25 15  1  0
  1 26  1  0
  1 27  1  0
  1 28  1  0
  4 29  1  0
  5 30  1  0
  6 31  1  0
  7 32  1  0
 12 33  1  0
 19 34  1  0
 21 35  1  0
 21 36  1  0
 22 37  1  0
 22 38  1  0
 23 39  1  6
 24 40  1  0
 24 41  1  0
 24 42  1  0
 25 43  1  0
 25 44  1  0
M  CHG  2   9  -1  19  -1
M  END
>  <UniqueID>  (7) 
7

>  <SMILES>  (7) 
COc1ccccc1[N-]C(=O)Nc1sc2c(c1C([NH-])=O)CC[C@@H](C)C2

>  <Energy>  (7) 
81.62217898899104

>  <Genealogy>  (7) 
COc1ccccc1[N-]C(=O)Nc1sc2c(c1C([NH-])=O)CCC(C)C2 (protonated)
COc1ccccc1[N-]C(=O)Nc1sc2c(c1C([NH-])=O)CC[C@@H](C)C2 (chirality)
COc1ccccc1[N-]C(=O)Nc1sc2c(c1C([NH-])=O)CC[C@@H](C)C2 (3D coordinates assigned)
COc1ccccc1[N-]C(=O)Nc1sc2c(c1C([NH-])=O)CC[C@@H](C)C2 (nonaromatic ring conformer: 81.62217898899104 kcal/mol)

>  <smiles>  (7) 
COc1ccccc1NC(=O)Nc1sc2c(c1C(N)=O)CCC(C)C2

>  <score_type>  (7) 
oracle

>  <origin>  (7) 
adg

>  <m_score__min__energy>  (7) 
-13.359999999999999

>  <m_primary>  (7) 
energy

$$$$
7:0
     RDKit          3D

 28 29  0  0  0  0  0  0  0  0999 V2000
   54.8510   24.3140   45.4450 C   0  0  0  0  0  0  0  0  0  0  0  0
   55.8520   25.1310   46.1970 C   0  0  0  0  0  0  0  0  0  0  0  0
   56.2680   24.7220   47.3150 O   0  0  0  0  0  0  0  0  0  0  0  0
   56.2630   26.4060   45.6840 N   0  0  0  0  0  0  0  0  0  0  0  0
   57.3410   27.1780   46.2380 C   0  0  0  0  0  0  0  0  0  0  0  0
   58.3060   26.6440   47.1100 C   0  0  0  0  0  0  0  0  0  0  0  0
   59.2970   27.5480   47.4680 C   0  0  0  0  0  0  0  0  0  0  0  0
   58.9830   29.0050   46.6930 S   0  0  0  0  0  0  0  0  0  0  0  0
   57.5920   28.5060   45.8810 C   0  0  0  0  0  0  0  0  0  0  0  0
   56.7380   29.3790   45.0480 C   0  0  0  0  0  0  0  0  0  0  0  0
   55.5350   29.0520   44.8540 O   0  0  0  0  0  0  0  0  0  0  0  0
   57.2410   30.6460   44.4670 C   0  0  0  0  0  0  0  0  0  0  0  0
   57.6570   31.6910   45.3120 C   0  0  0  0  0  0  0  0  0  0  0  0
   58.1200   32.8950   44.7730 C   0  0  0  0  0  0  0  0  0  0  0  0
   58.1610   33.0730   43.3890 C   0  0  0  0  0  0  0  0  0  0  0  0
   57.7350   32.0500   42.5400 C   0  0  0  0  0  0  0  0  0  0  0  0
   57.2710   30.8420   43.0740 C   0  0  0  0  0  0  0  0  0  0  0  0
   54.2013   23.7838   46.1569 H   0  0  0  0  0  0  0  0  0  0  0  0
   54.2397   24.9744   44.8124 H   0  0  0  0  0  0  0  0  0  0  0  0
   55.3755   23.5827   44.8124 H   0  0  0  0  0  0  0  0  0  0  0  0
   55.7330   26.8010   44.8750 H   0  0  0  0  0  0  0  0  0  0  0  0
   58.2784   25.6066   47.4746 H   0  0  0  0  0  0  0  0  0  0  0  0
   60.1419   27.3452   48.1426 H   0  0  0  0  0  0  0  0  0  0  0  0
   57.6177   31.5600   46.4035 H   0  0  0  0  0  0  0  0  0  0  0  0
   58.4526   33.7035   45.4406 H   0  0  0  0  0  0  0  0  0  0  0  0
   58.5292   34.0199   42.9672 H   0  0  0  0  0  0  0  0  0  0  0  0
   57.7640   32.1933   41.4498 H   0  0  0  0  0  0  0  0  0  0  0  0
   56.9282   30.0421   42.4013 H   0  0  0  0  0  0  0  0  0  0  0  0
  1  2  1  0
  2  3  2  0
  2  4  1  0
  4  5  1  0
  5  6  1  0
  6  7  2  0
  7  8  1  0
  8  9  1  0
  9 10  1  0
 10 11  2  0
 10 12  1  0
 12 13  2  0
 13 14  1  0
 14 15  2  0
 15 16  1  0
 16 17  2  0
  9  5  2  0
 17 12  1  0
  1 18  1  0
  1 19  1  0
  1 20  1  0
  4 21  1  0
  6 22  1  0
  7 23  1  0
 13 24  1  0
 14 25  1  0
 15 26  1  0
 16 27  1  0
 17 28  1  0
M  END
>  <UniqueID>  (8) 
8

>  <SMILES>  (8) 
CC(=O)Nc1ccsc1C(=O)c1ccccc1

>  <Energy>  (8) 
60.84565906730289

>  <Genealogy>  (8) 
CC(=O)Nc1ccsc1C(=O)c1ccccc1 (3D coordinates assigned)
CC(=O)Nc1ccsc1C(=O)c1ccccc1 (optimized conformer: 60.84565906730289 kcal/mol)

>  <smiles>  (8) 
CC(=O)Nc1ccsc1C(=O)c1ccccc1

>  <score_type>  (8) 
oracle

>  <origin>  (8) 
adg

>  <m_score__min__energy>  (8) 
-7.0700000000000003

>  <m_primary>  (8) 
energy

$$$$
8:0
     RDKit          3D

 53 56  0  0  0  0  0  0  0  0999 V2000
   59.8470   33.5000   49.5970 Cl  0  0  0  0  0  0  0  0  0  0  0  0
   61.3530   33.3930   48.6890 C   0  0  0  0  0  0  0  0  0  0  0  0
   62.4380   32.7540   49.3010 C   0  0  0  0  0  0  0  0  0  0  0  0
   63.6470   32.6050   48.6220 C   0  0  0  0  0  0  0  0  0  0  0  0
   63.7770   33.0820   47.3180 C   0  0  0  0  0  0  0  0  0  0  0  0
   62.7040   33.7230   46.6960 C   0  0  0  0  0  0  0  0  0  0  0  0
   61.4860   33.9160   47.3770 C   0  0  0  0  0  0  0  0  0  0  0  0
   60.3400   34.6320   46.6750 C   0  0  0  0  0  0  0  0  0  0  0  0
   59.6840   33.8450   45.5950 N   0  0  2  0  0  0  0  0  0  0  0  0
   58.5950   34.5920   44.8960 C   0  0  0  0  0  0  0  0  0  0  0  0
   57.1930   34.0730   45.2450 C   0  0  0  0  0  0  0  0  0  0  0  0
   57.0410   32.5880   44.8690 C   0  0  0  0  0  0  0  0  0  0  0  0
   58.3670   31.8010   45.0110 C   0  0  2  0  0  0  0  0  0  0  0  0
   58.1210   30.3440   45.3580 C   0  0  0  0  0  0  0  0  0  0  0  0
   57.2380   29.5740   44.5800 C   0  0  0  0  0  0  0  0  0  0  0  0
   57.0050   28.2320   44.8890 C   0  0  0  0  0  0  0  0  0  0  0  0
   57.6380   27.6360   45.9940 C   0  0  0  0  0  0  0  0  0  0  0  0
   57.4350   26.2490   46.3140 N   0  0  0  0  0  0  0  0  0  0  0  0
   56.7910   25.3020   45.4450 C   0  0  0  0  0  0  0  0  0  0  0  0
   55.5050   24.8060   45.7290 C   0  0  0  0  0  0  0  0  0  0  0  0
   54.9110   23.8620   44.8850 C   0  0  0  0  0  0  0  0  0  0  0  0
   55.5980   23.3950   43.7620 C   0  0  0  0  0  0  0  0  0  0  0  0
   56.8850   23.8650   43.4860 C   0  0  0  0  0  0  0  0  0  0  0  0
   57.4820   24.8080   44.3280 C   0  0  0  0  0  0  0  0  0  0  0  0
   58.5350   28.3950   46.7570 C   0  0  0  0  0  0  0  0  0  0  0  0
   58.7690   29.7380   46.4500 C   0  0  0  0  0  0  0  0  0  0  0  0
   59.2970   32.4790   46.0380 C   0  0  0  0  0  0  0  0  0  0  0  0
   62.3361   32.3664   50.3254 H   0  0  0  0  0  0  0  0  0  0  0  0
   64.4977   32.1115   49.1148 H   0  0  0  0  0  0  0  0  0  0  0  0
   64.7269   32.9529   46.7785 H   0  0  0  0  0  0  0  0  0  0  0  0
   62.8109   34.0817   45.6616 H   0  0  0  0  0  0  0  0  0  0  0  0
   59.5784   34.8809   47.4287 H   0  0  0  0  0  0  0  0  0  0  0  0
   60.7766   35.5187   46.1922 H   0  0  0  0  0  0  0  0  0  0  0  0
   60.4350   33.7040   44.8770 H   0  0  0  0  0  0  0  0  0  0  0  0
   58.6576   35.6523   45.1820 H   0  0  0  0  0  0  0  0  0  0  0  0
   58.7393   34.4495   43.8149 H   0  0  0  0  0  0  0  0  0  0  0  0
   57.0262   34.1885   46.3261 H   0  0  0  0  0  0  0  0  0  0  0  0
   56.4537   34.6547   44.6748 H   0  0  0  0  0  0  0  0  0  0  0  0
   56.2881   32.1324   45.5290 H   0  0  0  0  0  0  0  0  0  0  0  0
   56.7358   32.5403   43.8133 H   0  0  0  0  0  0  0  0  0  0  0  0
   58.8726   31.8158   44.0342 H   0  0  0  0  0  0  0  0  0  0  0  0
   56.7265   30.0325   43.7209 H   0  0  0  0  0  0  0  0  0  0  0  0
   56.3221   27.6377   44.2641 H   0  0  0  0  0  0  0  0  0  0  0  0
   57.7790   25.9070   47.2400 H   0  0  0  0  0  0  0  0  0  0  0  0
   54.9647   25.1622   46.6185 H   0  0  0  0  0  0  0  0  0  0  0  0
   53.9009   23.4866   45.1060 H   0  0  0  0  0  0  0  0  0  0  0  0
   55.1265   22.6579   43.0954 H   0  0  0  0  0  0  0  0  0  0  0  0
   57.4288   23.4925   42.6053 H   0  0  0  0  0  0  0  0  0  0  0  0
   58.5001   25.1651   44.1135 H   0  0  0  0  0  0  0  0  0  0  0  0
   59.0594   27.9299   47.6047 H   0  0  0  0  0  0  0  0  0  0  0  0
   59.4649   30.3257   47.0666 H   0  0  0  0  0  0  0  0  0  0  0  0
   58.7743   32.5497   47.0033 H   0  0  0  0  0  0  0  0  0  0  0  0
   60.2098   31.8728   46.1341 H   0  0  0  0  0  0  0  0  0  0  0  0
  1  2  1  0
  2  3  2  0
  3  4  1  0
  4  5  2  0
  5  6  1  0
  6  7  2  0
  7  8  1  0
  8  9  1  0
  9 10  1  0
 10 11  1  0
 11 12  1  0
 12 13  1  0
 13 14  1  0
 14 15  2  0
 15 16  1  0
 16 17  2  0
 17 18  1  0
 18 19  1  0
 19 20  2  0
 20 21  1  0
 21 22  2  0
 22 23  1  0
 23 24  2  0
 17 25  1  0
 25 26  2  0
 13 27  1  0
  7  2  1  0
 27  9  1  0
 26 14  1  0
 24 19  1  0
  3 28  1  0
  4 29  1  0
  5 30  1  0
  6 31  1  0
  8 32  1  0
  8 33  1  0
  9 34  1  6
 10 35  1  0
 10 36  1  0
 11 37  1  0
 11 38  1  0
 12 39  1  0
 12 40  1  0
 13 41  1  6
 15 42  1  0
 16 43  1  0
 18 44  1  0
 20 45  1  0
 21 46  1  0
 22 47  1  0
 23 48  1  0
 24 49  1  0
 25 50  1  0
 26 51  1  0
 27 52  1  0
 27 53  1  0
M  CHG  1   9   1
M  END
>  <UniqueID>  (9) 
9

>  <SMILES>  (9) 
Clc1ccccc1C[N@@H+]1CCC[C@H](c2ccc(Nc3ccccc3)cc2)C1

>  <Energy>  (9) 
75.96357630093367

>  <Genealogy>  (9) 
Clc1ccccc1C[NH+]1CCCC(c2ccc(Nc3ccccc3)cc2)C1 (protonated)
Clc1ccccc1C[N@@H+]1CCC[C@H](c2ccc(Nc3ccccc3)cc2)C1 (chirality)
Clc1ccccc1C[N@@H+]1CCC[C@H](c2ccc(Nc3ccccc3)cc2)C1 (3D coordinates assigned)
Clc1ccccc1C[N@@H+]1CCC[C@H](c2ccc(Nc3ccccc3)cc2)C1 (nonaromatic ring conformer: 75.96357630093367 kcal/mol)

>  <smiles>  (9) 
Clc1ccccc1CN1CCCC(c2ccc(Nc3ccccc3)cc2)C1

>  <score_type>  (9) 
oracle

>  <origin>  (9) 
adg

>  <m_score__min__energy>  (9) 
-7.5199999999999996

>  <m_primary>  (9) 
energy

$$$$
9:0
     RDKit          3D

 58 61  0  0  1  0  0  0  0  0999 V2000
   59.9790   35.3350   46.9300 C   0  0  0  0  0  0  0  0  0  0  0  0
   59.3850   33.9740   47.0680 C   0  0  0  0  0  0  0  0  0  0  0  0
   58.8770   33.3440   45.9920 N   0  0  0  0  0  0  0  0  0  0  0  0
   58.3270   32.1190   46.0400 C   0  0  0  0  0  0  0  0  0  0  0  0
   57.7760   31.4360   44.8780 C   0  0  0  0  0  0  0  0  0  0  0  0
   57.2140   30.1800   44.9510 C   0  0  0  0  0  0  0  0  0  0  0  0
   56.6950   29.5460   43.8300 C   0  0  0  0  0  0  0  0  0  0  0  0
   56.7420   30.1970   42.6000 C   0  0  0  0  0  0  0  0  0  0  0  0
   57.2990   31.4570   42.5000 C   0  0  0  0  0  0  0  0  0  0  0  0
   57.3740   32.3060   40.9630 Cl  0  0  0  0  0  0  0  0  0  0  0  0
   57.8030   32.0440   43.6510 C   0  0  0  0  0  0  0  0  0  0  0  0
   58.3000   31.5170   47.2430 N   0  0  0  0  0  0  0  0  0  0  0  0
   58.7860   32.0790   48.3640 C   0  0  0  0  0  0  0  0  0  0  0  0
   58.7570   31.4970   49.5160 N   0  0  0  0  0  0  0  0  0  0  0  0
   58.5250   30.0460   49.5730 C   0  0  0  0  0  0  0  0  0  0  0  0
   59.8920   29.4230   49.3150 C   0  0  2  0  0  0  0  0  0  0  0  0
   60.9490   30.3980   49.5640 N   0  0  0  0  0  0  0  0  0  0  0  0
   62.0870   30.0860   50.3260 C   0  0  0  0  0  0  0  0  0  0  0  0
   62.1840   28.9250   50.8020 O   0  0  0  0  0  0  0  0  0  0  0  0
   63.1390   31.1330   50.5460 C   0  0  0  0  0  0  0  0  0  0  0  0
   63.2020   32.0900   49.4370 C   0  0  0  0  0  0  0  0  0  0  0  0
   63.2270   33.4620   49.5830 C   0  0  0  0  0  0  0  0  0  0  0  0
   63.2870   34.2970   48.4870 C   0  0  0  0  0  0  0  0  0  0  0  0
   63.3240   33.7640   47.1960 C   0  0  0  0  0  0  0  0  0  0  0  0
   63.3000   32.3800   47.0270 C   0  0  0  0  0  0  0  0  0  0  0  0
   63.2400   31.5670   48.1410 C   0  0  0  0  0  0  0  0  0  0  0  0
   60.0310   29.0000   47.8970 C   0  0  0  0  0  0  0  0  0  0  0  0
   59.4890   27.7990   47.5160 C   0  0  0  0  0  0  0  0  0  0  0  0
   59.5910   27.3600   46.2080 C   0  0  0  0  0  0  0  0  0  0  0  0
   60.2470   28.1490   45.2800 C   0  0  0  0  0  0  0  0  0  0  0  0
   60.8040   29.3610   45.6230 C   0  0  0  0  0  0  0  0  0  0  0  0
   60.6760   29.7570   46.9410 C   0  0  0  0  0  0  0  0  0  0  0  0
   59.3450   33.3340   48.2930 C   0  0  0  0  0  0  0  0  0  0  0  0
   60.0110   34.1690   49.6790 Cl  0  0  0  0  0  0  0  0  0  0  0  0
   60.1634   35.7576   47.9287 H   0  0  0  0  0  0  0  0  0  0  0  0
   60.9290   35.2664   46.3798 H   0  0  0  0  0  0  0  0  0  0  0  0
   59.2827   35.9849   46.3798 H   0  0  0  0  0  0  0  0  0  0  0  0
   58.9290   33.8630   45.0890 H   0  0  0  0  0  0  0  0  0  0  0  0
   57.1755   29.6661   45.9228 H   0  0  0  0  0  0  0  0  0  0  0  0
   56.2524   28.5424   43.9125 H   0  0  0  0  0  0  0  0  0  0  0  0
   56.3339   29.7058   41.7043 H   0  0  0  0  0  0  0  0  0  0  0  0
   58.2465   33.0477   43.5747 H   0  0  0  0  0  0  0  0  0  0  0  0
   58.1461   29.7527   50.5632 H   0  0  0  0  0  0  0  0  0  0  0  0
   57.7734   29.7165   48.8405 H   0  0  0  0  0  0  0  0  0  0  0  0
   59.9785   28.5564   49.9869 H   0  0  0  0  0  0  0  0  0  0  0  0
   60.7830   31.3480   49.1250 H   0  0  0  0  0  0  0  0  0  0  0  0
   62.9088   31.6784   51.4731 H   0  0  0  0  0  0  0  0  0  0  0  0
   64.1132   30.6267   50.6136 H   0  0  0  0  0  0  0  0  0  0  0  0
   63.1985   33.8979   50.5926 H   0  0  0  0  0  0  0  0  0  0  0  0
   63.3058   35.3875   48.6299 H   0  0  0  0  0  0  0  0  0  0  0  0
   63.3716   34.4296   46.3215 H   0  0  0  0  0  0  0  0  0  0  0  0
   63.3285   31.9416   46.0185 H   0  0  0  0  0  0  0  0  0  0  0  0
   63.2216   30.4756   48.0050 H   0  0  0  0  0  0  0  0  0  0  0  0
   58.9673   27.1778   48.2589 H   0  0  0  0  0  0  0  0  0  0  0  0
   59.1556   26.3950   45.9094 H   0  0  0  0  0  0  0  0  0  0  0  0
   60.3258   27.7989   44.2402 H   0  0  0  0  0  0  0  0  0  0  0  0
   61.3263   29.9847   44.8826 H   0  0  0  0  0  0  0  0  0  0  0  0
   61.1093   30.7222   47.2421 H   0  0  0  0  0  0  0  0  0  0  0  0
  1  2  1  0
  2  3  1  0
  3  4  1  0
  4  5  1  0
  5  6  2  0
  6  7  1  0
  7  8  2  0
  8  9  1  0
  9 10  1  0
  9 11  2  0
  4 12  2  0
 12 13  1  0
 13 14  2  0
 14 15  1  0
 15 16  1  0
 16 17  1  0
 17 18  1  0
 18 19  2  0
 18 20  1  0
 20 21  1  0
 21 22  2  0
 22 23  1  0
 23 24  2  0
 24 25  1  0
 25 26  2  0
 16 27  1  0
 27 28  2  0
 28 29  1  0
 29 30  2  0
 30 31  1  0
 31 32  2  0
 13 33  1  0
 33 34  1  0
 33  2  2  0
 11  5  1  0
 26 21  1  0
 32 27  1  0
  1 35  1  0
  1 36  1  0
  1 37  1  0
  3 38  1  0
  6 39  1  0
  7 40  1  0
  8 41  1  0
 11 42  1  0
 15 43  1  0
 15 44  1  0
 16 45  1  1
 17 46  1  0
 20 47  1  0
 20 48  1  0
 22 49  1  0
 23 50  1  0
 24 51  1  0
 25 52  1  0
 26 53  1  0
 28 54  1  0
 29 55  1  0
 30 56  1  0
 31 57  1  0
 32 58  1  0
M  END
>  <smiles>  (10) 
Cc1[nH]c(-c2cccc(Cl)c2)nc(=NCC(NC(=O)Cc2ccccc2)c2ccccc2)c1Cl

>  <score_type>  (10) 
oracle

>  <origin>  (10) 
adg

>  <m_score__min__energy>  (10) 
-9.7799999999999994

>  <m_primary>  (10) 
energy

$$$$
10:0
     RDKit          3D

 38 40  0  0  0  0  0  0  0  0999 V2000
   56.8620   30.4070   42.2370 O   0  0  0  0  0  0  0  0  0  0  0  0
   57.3440   31.1390   43.1450 C   0  0  0  0  0  0  0  0  0  0  0  0
   57.9790   32.3240   42.7830 C   0  0  0  0  0  0  0  0  0  0  0  0
   58.0750   32.6930   41.4810 F   0  0  0  0  0  0  0  0  0  0  0  0
   58.5200   33.1260   43.7760 C   0  0  0  0  0  0  0  0  0  0  0  0
   58.4310   32.7600   45.0860 N   0  0  0  0  0  0  0  0  0  0  0  0
   59.0500   33.6210   46.1090 C   0  0  0  0  0  0  0  0  0  0  0  0
   60.4200   33.1060   46.4650 C   0  0  0  0  0  0  0  0  0  0  0  0
   61.5380   33.9560   46.4130 C   0  0  0  0  0  0  0  0  0  0  0  0
   62.8020   33.4810   46.7750 C   0  0  0  0  0  0  0  0  0  0  0  0
   62.9580   32.1580   47.1980 C   0  0  0  0  0  0  0  0  0  0  0  0
   61.8510   31.3080   47.2580 C   0  0  0  0  0  0  0  0  0  0  0  0
   60.5840   31.7800   46.8970 C   0  0  0  0  0  0  0  0  0  0  0  0
   57.8100   31.5850   45.4310 C   0  0  0  0  0  0  0  0  0  0  0  0
   57.7530   31.2430   46.6460 O   0  0  0  0  0  0  0  0  0  0  0  0
   57.2550   30.7770   44.4660 N   0  0  0  0  0  0  0  0  0  0  0  0
   56.5630   29.5310   44.8610 C   0  0  0  0  0  0  0  0  0  0  0  0
   57.5550   28.4730   45.2800 C   0  0  0  0  0  0  0  0  0  0  0  0
   58.9350   28.7020   45.1300 C   0  0  0  0  0  0  0  0  0  0  0  0
   59.8610   27.7360   45.5360 C   0  0  0  0  0  0  0  0  0  0  0  0
   59.4200   26.5340   46.0940 C   0  0  0  0  0  0  0  0  0  0  0  0
   58.0510   26.2950   46.2450 C   0  0  0  0  0  0  0  0  0  0  0  0
   57.1200   27.2570   45.8420 C   0  0  0  0  0  0  0  0  0  0  0  0
   55.7980   26.9960   45.9900 F   0  0  0  0  0  0  0  0  0  0  0  0
   59.0249   34.0648   43.5047 H   0  0  0  0  0  0  0  0  0  0  0  0
   59.1376   34.6450   45.7170 H   0  0  0  0  0  0  0  0  0  0  0  0
   58.4199   33.6158   47.0106 H   0  0  0  0  0  0  0  0  0  0  0  0
   61.4180   34.9994   46.0861 H   0  0  0  0  0  0  0  0  0  0  0  0
   63.6746   34.1490   46.7269 H   0  0  0  0  0  0  0  0  0  0  0  0
   63.9529   31.7859   47.4838 H   0  0  0  0  0  0  0  0  0  0  0  0
   61.9754   30.2665   47.5894 H   0  0  0  0  0  0  0  0  0  0  0  0
   59.7134   31.1099   46.9518 H   0  0  0  0  0  0  0  0  0  0  0  0
   55.8881   29.7453   45.7027 H   0  0  0  0  0  0  0  0  0  0  0  0
   55.9937   29.1565   43.9975 H   0  0  0  0  0  0  0  0  0  0  0  0
   59.2877   29.6467   44.6906 H   0  0  0  0  0  0  0  0  0  0  0  0
   60.9383   27.9231   45.4157 H   0  0  0  0  0  0  0  0  0  0  0  0
   60.1496   25.7757   46.4145 H   0  0  0  0  0  0  0  0  0  0  0  0
   57.7051   25.3468   46.6824 H   0  0  0  0  0  0  0  0  0  0  0  0
  1  2  2  0
  2  3  1  0
  3  4  1  0
  3  5  2  0
  5  6  1  0
  6  7  1  0
  7  8  1  0
  8  9  2  0
  9 10  1  0
 10 11  2  0
 11 12  1  0
 12 13  2  0
  6 14  1  0
 14 15  2  0
 14 16  1  0
 16 17  1  0
 17 18  1  0
 18 19  2  0
 19 20  1  0
 20 21  2  0
 21 22  1  0
 22 23  2  0
 23 24  1  0
 16  2  1  0
 23 18  1  0
 13  8  1  0
  5 25  1  0
  7 26  1  0
  7 27  1  0
  9 28  1  0
 10 29  1  0
 11 30  1  0
 12 31  1  0
 13 32  1  0
 17 33  1  0
 17 34  1  0
 19 35  1  0
 20 36  1  0
 21 37  1  0
 22 38  1  0
M  END
>  <UniqueID>  (11) 
10

>  <SMILES>  (11) 
O=c1c(F)cn(Cc2ccccc2)c(=O)n1Cc1ccccc1F

>  <Energy>  (11) 
46.58812208719108

>  <Genealogy>  (11) 
O=c1c(F)cn(Cc2ccccc2)c(=O)n1Cc1ccccc1F (3D coordinates assigned)
O=c1c(F)cn(Cc2ccccc2)c(=O)n1Cc1ccccc1F (optimized conformer: 46.58812208719108 kcal/mol)

>  <smiles>  (11) 
O=c1c(F)cn(Cc2ccccc2)c(=O)n1Cc1ccccc1F

>  <score_type>  (11) 
oracle

>  <origin>  (11) 
adg

>  <m_score__min__energy>  (11) 
-7.1299999999999999

>  <m_primary>  (11) 
energy

$$$$
11:0
     RDKit          3D

 29 31  0  0  0  0  0  0  0  0999 V2000
   59.7820   29.7730   45.2300 O   0  0  0  0  0  0  0  0  0  0  0  0
   58.5800   29.5650   45.5510 C   0  0  0  0  0  0  0  0  0  0  0  0
   57.6670   30.6710   45.6590 N   0  0  0  0  0  0  0  0  0  0  0  0
   58.0920   32.0450   45.6960 C   0  0  0  0  0  0  0  0  0  0  0  0
   58.4040   32.6620   46.9210 C   0  0  0  0  0  0  0  0  0  0  0  0
   58.7890   34.0050   46.9600 C   0  0  0  0  0  0  0  0  0  0  0  0
   58.8570   34.7490   45.7800 C   0  0  0  0  0  0  0  0  0  0  0  0
   58.5360   34.1510   44.5590 C   0  0  0  0  0  0  0  0  0  0  0  0
   58.1490   32.8060   44.5100 C   0  0  0  0  0  0  0  0  0  0  0  0
   57.7480   32.0380   42.8000 Br  0  0  0  0  0  0  0  0  0  0  0  0
   58.1230   28.2200   45.7760 N   0  0  0  0  0  0  0  0  0  0  0  0
   59.0670   26.9340   46.2690 S   0  0  0  0  0  0  0  0  0  0  0  0
   57.8880   25.7560   46.2880 C   0  0  0  0  0  0  0  0  0  0  0  0
   57.9710   24.4060   46.6130 C   0  0  0  0  0  0  0  0  0  0  0  0
   56.7960   23.6420   46.5370 C   0  0  0  0  0  0  0  0  0  0  0  0
   55.5810   24.2390   46.1420 C   0  0  0  0  0  0  0  0  0  0  0  0
   55.5280   25.6070   45.8180 C   0  0  0  0  0  0  0  0  0  0  0  0
   56.7030   26.3620   45.8960 C   0  0  0  0  0  0  0  0  0  0  0  0
   56.8560   27.7370   45.6140 C   0  0  0  0  0  0  0  0  0  0  0  0
   55.8950   28.4640   45.2420 O   0  0  0  0  0  0  0  0  0  0  0  0
   56.6430   30.4710   45.6490 H   0  0  0  0  0  0  0  0  0  0  0  0
   58.3446   32.0835   47.8547 H   0  0  0  0  0  0  0  0  0  0  0  0
   59.0389   34.4768   47.9217 H   0  0  0  0  0  0  0  0  0  0  0  0
   59.1631   35.8051   45.8120 H   0  0  0  0  0  0  0  0  0  0  0  0
   58.5875   34.7397   43.6312 H   0  0  0  0  0  0  0  0  0  0  0  0
   58.9252   23.9525   46.9192 H   0  0  0  0  0  0  0  0  0  0  0  0
   56.8231   22.5711   46.7871 H   0  0  0  0  0  0  0  0  0  0  0  0
   54.6668   23.6298   46.0867 H   0  0  0  0  0  0  0  0  0  0  0  0
   54.5810   26.0738   45.5093 H   0  0  0  0  0  0  0  0  0  0  0  0
  1  2  2  0
  2  3  1  0
  3  4  1  0
  4  5  2  0
  5  6  1  0
  6  7  2  0
  7  8  1  0
  8  9  2  0
  9 10  1  0
  2 11  1  0
 11 12  1  0
 12 13  1  0
 13 14  2  0
 14 15  1  0
 15 16  2  0
 16 17  1  0
 17 18  2  0
 18 19  1  0
 19 20  2  0
  9  4  1  0
 19 11  1  0
 18 13  1  0
  3 21  1  0
  5 22  1  0
  6 23  1  0
  7 24  1  0
  8 25  1  0
 14 26  1  0
 15 27  1  0
 16 28  1  0
 17 29  1  0
M  END
>  <UniqueID>  (12) 
11

>  <SMILES>  (12) 
O=C(Nc1ccccc1Br)n1sc2ccccc2c1=O

>  <Energy>  (12) 
77.47732969392568

>  <Genealogy>  (12) 
O=C(Nc1ccccc1Br)n1sc2ccccc2c1=O (3D coordinates assigned)
O=C(Nc1ccccc1Br)n1sc2ccccc2c1=O (optimized conformer: 77.47732969392568 kcal/mol)

>  <smiles>  (12) 
O=C(Nc1ccccc1Br)n1sc2ccccc2c1=O

>  <score_type>  (12) 
oracle

>  <origin>  (12) 
adg

>  <m_score__min__energy>  (12) 
-7.0700000000000003

>  <m_primary>  (12) 
energy

$$$$
12:0
     RDKit          3D

 46 48  0  0  0  0  0  0  0  0999 V2000
   57.4185   25.6547   46.8983 H   0  0  0  0  0  0  0  0  0  0  0  0
   57.3690   26.6030   46.3430 C   0  0  0  0  0  0  0  0  0  0  0  0
   56.0680   27.0660   45.8350 C   0  0  0  0  0  0  0  0  0  0  0  0
   55.9890   28.1800   45.2540 O   0  0  0  0  0  0  0  0  0  0  0  0
   54.9230   26.2920   45.9850 O   0  0  0  0  0  0  0  0  0  0  0  0
   58.4960   27.3030   46.1490 C   0  0  0  0  0  0  0  0  0  0  0  0
   58.9278   27.3277   45.1376 H   0  0  0  0  0  0  0  0  0  0  0  0
   59.1910   28.0470   47.2310 C   0  0  0  0  0  0  0  0  0  0  0  0
   60.0850   27.4010   48.1050 C   0  0  0  0  0  0  0  0  0  0  0  0
   60.2917   26.3281   47.9778 H   0  0  0  0  0  0  0  0  0  0  0  0
   60.7120   28.1090   49.1320 C   0  0  0  0  0  0  0  0  0  0  0  0
   61.4136   27.5903   49.8018 H   0  0  0  0  0  0  0  0  0  0  0  0
   60.4570   29.4690   49.3170 C   0  0  0  0  0  0  0  0  0  0  0  0
   61.1030   30.1270   50.3770 O   0  0  0  0  0  0  0  0  0  0  0  0
   62.0040   31.2290   50.2470 C   0  0  0  0  0  0  0  0  0  0  0  0
   62.2365   31.6223   51.2476 H   0  0  0  0  0  0  0  0  0  0  0  0
   62.9178   30.8747   49.7476 H   0  0  0  0  0  0  0  0  0  0  0  0
   61.3970   32.3380   49.4080 C   0  0  0  0  0  0  0  0  0  0  0  0
   61.9410   32.6900   48.1460 C   0  0  0  0  0  0  0  0  0  0  0  0
   63.3770   31.9160   47.4790 Cl  0  0  0  0  0  0  0  0  0  0  0  0
   61.3450   33.7010   47.3830 C   0  0  0  0  0  0  0  0  0  0  0  0
   61.7604   33.9574   46.3973 H   0  0  0  0  0  0  0  0  0  0  0  0
   60.2300   34.3850   47.8620 C   0  0  0  0  0  0  0  0  0  0  0  0
   59.7621   35.1702   47.2501 H   0  0  0  0  0  0  0  0  0  0  0  0
   59.7070   34.0750   49.1160 C   0  0  0  0  0  0  0  0  0  0  0  0
   58.8350   34.6273   49.4963 H   0  0  0  0  0  0  0  0  0  0  0  0
   60.2840   33.0660   49.8940 C   0  0  0  0  0  0  0  0  0  0  0  0
   59.5950   32.7660   51.4880 Cl  0  0  0  0  0  0  0  0  0  0  0  0
   59.5680   30.1230   48.4490 C   0  0  0  0  0  0  0  0  0  0  0  0
   59.3748   31.1982   48.5783 H   0  0  0  0  0  0  0  0  0  0  0  0
   58.9200   29.4190   47.4140 C   0  0  0  0  0  0  0  0  0  0  0  0
   58.0120   30.0560   46.5510 O   0  0  0  0  0  0  0  0  0  0  0  0
   58.2000   31.3490   45.9820 C   0  0  0  0  0  0  0  0  0  0  0  0
   57.5982   32.0858   46.5343 H   0  0  0  0  0  0  0  0  0  0  0  0
   59.2616   31.6305   46.0430 H   0  0  0  0  0  0  0  0  0  0  0  0
   57.7660   31.3200   44.5470 C   0  0  0  0  0  0  0  0  0  0  0  0
   58.1340   32.3580   43.6790 C   0  0  0  0  0  0  0  0  0  0  0  0
   58.7162   33.2131   44.0531 H   0  0  0  0  0  0  0  0  0  0  0  0
   57.7560   32.2980   42.3370 C   0  0  0  0  0  0  0  0  0  0  0  0
   58.0305   33.1117   41.6496 H   0  0  0  0  0  0  0  0  0  0  0  0
   57.0290   31.2030   41.8700 C   0  0  0  0  0  0  0  0  0  0  0  0
   56.7243   31.1476   40.8145 H   0  0  0  0  0  0  0  0  0  0  0  0
   56.6920   30.1780   42.7560 C   0  0  0  0  0  0  0  0  0  0  0  0
   56.1211   29.3088   42.3974 H   0  0  0  0  0  0  0  0  0  0  0  0
   57.0680   30.2510   44.0630 N   0  0  0  0  0  0  0  0  0  0  0  0
   56.8120   29.4630   44.7000 H   0  0  0  0  0  0  0  0  0  0  0  0
  1  2  1  0
  2  3  1  0
  3  4  2  0
  3  5  1  0
  2  6  2  0
  6  7  1  0
  6  8  1  0
  8  9  2  0
  9 10  1  0
  9 11  1  0
 11 12  1  0
 11 13  2  0
 13 14  1  0
 14 15  1  0
 15 16  1  0
 15 17  1  0
 15 18  1  0
 18 19  2  0
 19 20  1  0
 19 21  1  0
 21 22  1  0
 21 23  2  0
 23 24  1  0
 23 25  1  0
 25 26  1  0
 25 27  2  0
 27 28  1  0
 13 29  1  0
 29 30  1  0
 29 31  2  0
 31 32  1  0
 32 33  1  0
 33 34  1  0
 33 35  1  0
 33 36  1  0
 36 37  2  0
 37 38  1  0
 37 39  1  0
 39 40  1  0
 39 41  2  0
 41 42  1  0
 41 43  1  0
 43 44  1  0
 43 45  2  0
 45 46  1  0
 31  8  1  0
 45 36  1  0
 27 18  1  0
M  CHG  2   5  -1  45   1
M  END
>  <UniqueID>  (13) 
12

>  <SMILES>  (13) 
O=C([O-])/C=C/c1ccc(OCc2c(Cl)cccc2Cl)cc1OCc1cccc[nH+]1

>  <Energy>  (13) 
52.1530566834479

>  <Genealogy>  (13) 
O=C([O-])C=Cc1ccc(OCc2c(Cl)cccc2Cl)cc1OCc1cccc[nH+]1 (protonated)
O=C([O-])/C=C/c1ccc(OCc2c(Cl)cccc2Cl)cc1OCc1cccc[nH+]1 (cis-trans isomerization)
O=C([O-])/C=C/c1ccc(OCc2c(Cl)cccc2Cl)cc1OCc1cccc[nH+]1 (3D coordinates assigned)
O=C([O-])/C=C/c1ccc(OCc2c(Cl)cccc2Cl)cc1OCc1cccc[nH+]1 (optimized conformer: 52.1530566834479 kcal/mol)

>  <smiles>  (13) 
O=C(O)C=Cc1ccc(OCc2c(Cl)cccc2Cl)cc1OCc1ccccn1

>  <score_type>  (13) 
oracle

>  <origin>  (13) 
adg

>  <m_score__min__energy>  (13) 
-9.9000000000000004

>  <m_primary>  (13) 
energy

$$$$
13:0
     RDKit          3D

 50 53  0  0  1  0  0  0  0  0999 V2000
   54.4470   25.0020   45.6130 C   0  0  0  0  0  0  0  0  0  0  0  0
   54.9100   26.2860   45.9770 O   0  0  0  0  0  0  0  0  0  0  0  0
   56.2520   26.6390   45.9860 C   0  0  0  0  0  0  0  0  0  0  0  0
   56.7450   27.7710   45.3730 C   0  0  0  0  0  0  0  0  0  0  0  0
   58.1010   28.0550   45.4270 C   0  0  0  0  0  0  0  0  0  0  0  0
   58.9950   27.2100   46.0950 C   0  0  0  0  0  0  0  0  0  0  0  0
   60.4590   27.5300   46.1450 C   0  0  0  0  0  0  0  0  0  0  0  0
   60.7060   27.9480   47.5180 N   0  0  0  0  0  0  0  0  0  0  0  0
   60.1190   28.9770   48.0340 C   0  0  0  0  0  0  0  0  0  0  0  0
   59.4790   28.7860   49.2030 N   0  0  0  0  0  0  0  0  0  0  0  0
   58.8660   29.8600   49.7440 C   0  0  0  0  0  0  0  0  0  0  0  0
   58.2410   29.6950   50.8740 N   0  0  0  0  0  0  0  0  0  0  0  0
   58.8830   31.1070   49.1410 C   0  0  0  0  0  0  0  0  0  0  0  0
   58.3500   32.3520   49.4650 C   0  0  0  0  0  0  0  0  0  0  0  0
   58.7090   33.1750   48.4790 N   0  0  0  0  0  0  0  0  0  0  0  0
   59.4170   32.5410   47.5760 N   0  0  0  0  0  0  0  0  0  0  0  0
   59.9930   33.0970   46.3470 C   0  0  0  0  0  0  0  0  0  0  0  0
   58.8840   33.7350   45.5320 C   0  0  0  0  0  0  0  0  0  0  0  0
   58.1920   32.7420   44.6720 C   0  0  0  0  0  0  0  0  0  0  0  0
   57.4090   31.7570   45.2140 C   0  0  0  0  0  0  0  0  0  0  0  0
   56.7520   30.8160   44.4210 C   0  0  0  0  0  0  0  0  0  0  0  0
   56.8930   30.8770   43.0390 C   0  0  0  0  0  0  0  0  0  0  0  0
   57.6880   31.8780   42.4920 C   0  0  0  0  0  0  0  0  0  0  0  0
   58.3300   32.7980   43.2970 C   0  0  0  0  0  0  0  0  0  0  0  0
   59.5600   31.2500   47.9310 C   0  0  0  0  0  0  0  0  0  0  0  0
   60.1680   30.1660   47.4040 N   0  0  0  0  0  0  0  0  0  0  0  0
   58.4700   26.0860   46.6990 C   0  0  0  0  0  0  0  0  0  0  0  0
   57.1120   25.7840   46.6560 C   0  0  0  0  0  0  0  0  0  0  0  0
   54.2362   24.4173   46.5206 H   0  0  0  0  0  0  0  0  0  0  0  0
   53.5273   25.0991   45.0175 H   0  0  0  0  0  0  0  0  0  0  0  0
   55.2170   24.4898   45.0175 H   0  0  0  0  0  0  0  0  0  0  0  0
   56.0621   28.4494   44.8406 H   0  0  0  0  0  0  0  0  0  0  0  0
   58.4818   28.9623   44.9352 H   0  0  0  0  0  0  0  0  0  0  0  0
   61.0579   26.6411   45.8977 H   0  0  0  0  0  0  0  0  0  0  0  0
   60.7371   28.3085   45.4194 H   0  0  0  0  0  0  0  0  0  0  0  0
   59.4600   27.8480   49.6690 H   0  0  0  0  0  0  0  0  0  0  0  0
   57.4010   29.0770   50.8720 H   0  0  0  0  0  0  0  0  0  0  0  0
   57.7537   32.6053   50.3540 H   0  0  0  0  0  0  0  0  0  0  0  0
   60.7473   33.8558   46.6026 H   0  0  0  0  0  0  0  0  0  0  0  0
   60.4723   32.2969   45.7638 H   0  0  0  0  0  0  0  0  0  0  0  0
   58.1510   34.1843   46.2181 H   0  0  0  0  0  0  0  0  0  0  0  0
   59.3339   34.4982   44.8799 H   0  0  0  0  0  0  0  0  0  0  0  0
   57.2950   31.7067   46.3069 H   0  0  0  0  0  0  0  0  0  0  0  0
   56.1300   30.0353   44.8833 H   0  0  0  0  0  0  0  0  0  0  0  0
   56.3854   30.1474   42.3910 H   0  0  0  0  0  0  0  0  0  0  0  0
   57.8075   31.9380   41.4002 H   0  0  0  0  0  0  0  0  0  0  0  0
   58.9551   33.5803   42.8418 H   0  0  0  0  0  0  0  0  0  0  0  0
   60.6690   30.2820   46.5030 H   0  0  0  0  0  0  0  0  0  0  0  0
   59.1485   25.4047   47.2333 H   0  0  0  0  0  0  0  0  0  0  0  0
   56.7266   24.8785   47.1475 H   0  0  0  0  0  0  0  0  0  0  0  0
  1  2  1  0
  2  3  1  0
  3  4  2  0
  4  5  1  0
  5  6  2  0
  6  7  1  0
  7  8  1  0
  8  9  2  0
  9 10  1  0
 10 11  1  0
 11 12  2  3
 11 13  1  0
 13 14  1  0
 14 15  2  0
 15 16  1  0
 16 17  1  0
 17 18  1  0
 18 19  1  0
 19 20  2  0
 20 21  1  0
 21 22  2  0
 22 23  1  0
 23 24  2  0
 16 25  1  0
 25 26  1  0
  6 27  1  0
 27 28  2  0
 28  3  1  0
 26  9  1  0
 25 13  2  0
 24 19  1  0
  1 29  1  0
  1 30  1  0
  1 31  1  0
  4 32  1  0
  5 33  1  0
  7 34  1  0
  7 35  1  0
 10 36  1  0
 12 37  1  0
 14 38  1  0
 17 39  1  0
 17 40  1  0
 18 41  1  0
 18 42  1  0
 20 43  1  0
 21 44  1  0
 22 45  1  0
 23 46  1  0
 24 47  1  0
 26 48  1  0
 27 49  1  0
 28 50  1  0
M  END
>  <smiles>  (14) 
COc1ccc(CN=c2[nH]c(=N)c3cnn(CCc4ccccc4)c3[nH]2)cc1

>  <score_type>  (14) 
oracle

>  <origin>  (14) 
adg

>  <m_score__min__energy>  (14) 
-8.6799999999999997

>  <m_primary>  (14) 
energy

$$$$
14:0
     RDKit          3D

 37 40  0  0  0  0  0  0  0  0999 V2000
   60.6480   28.6640   45.6220 C   0  0  0  0  0  0  0  0  0  0  0  0
   59.2610   28.1600   45.4460 C   0  0  0  0  0  0  0  0  0  0  0  0
   59.0980   26.8340   45.3020 N   0  0  0  0  0  0  0  0  0  0  0  0
   57.8790   26.3170   45.1400 C   0  0  0  0  0  0  0  0  0  0  0  0
   57.6930   25.0500   45.0000 N   0  0  0  0  0  0  0  0  0  0  0  0
   56.8200   27.1370   45.1250 N   0  0  0  0  0  0  0  0  0  0  0  0
   56.9440   28.4910   45.2680 C   0  0  0  0  0  0  0  0  0  0  0  0
   55.8660   29.1580   45.2360 N   0  0  0  0  0  0  0  0  0  0  0  0
   58.1730   29.0460   45.4340 C   0  0  0  0  0  0  0  0  0  0  0  0
   58.3430   30.4800   45.5900 C   0  0  0  0  0  0  0  0  0  0  0  0
   57.3840   31.3450   45.1160 N   0  0  0  0  0  0  0  0  0  0  0  0
   57.8000   32.5710   45.3960 C   0  0  0  0  0  0  0  0  0  0  0  0
   57.3480   34.3490   45.2350 S   0  0  0  0  0  0  0  0  0  0  0  0
   58.9210   34.9180   46.1040 C   0  0  0  0  0  0  0  0  0  0  0  0
   59.5710   33.7280   46.3970 C   0  0  0  0  0  0  0  0  0  0  0  0
   60.8900   33.8450   47.1100 C   0  0  0  0  0  0  0  0  0  0  0  0
   62.0620   33.6820   46.3990 C   0  0  0  0  0  0  0  0  0  0  0  0
   63.2920   33.7850   47.0330 C   0  0  0  0  0  0  0  0  0  0  0  0
   63.3010   34.0560   48.3910 C   0  0  0  0  0  0  0  0  0  0  0  0
   62.1120   34.2190   49.0960 C   0  0  0  0  0  0  0  0  0  0  0  0
   60.8840   34.1160   48.4660 C   0  0  0  0  0  0  0  0  0  0  0  0
   59.0160   32.5680   46.0470 C   0  0  0  0  0  0  0  0  0  0  0  0
   59.2960   31.2180   46.1350 N   0  0  0  0  0  0  0  0  0  0  0  0
   60.8748   28.7464   46.6952 H   0  0  0  0  0  0  0  0  0  0  0  0
   61.3547   27.9652   45.1505 H   0  0  0  0  0  0  0  0  0  0  0  0
   60.7412   29.6535   45.1505 H   0  0  0  0  0  0  0  0  0  0  0  0
   59.9240   26.1970   45.3150 H   0  0  0  0  0  0  0  0  0  0  0  0
   57.5980   24.3950   45.7960 H   0  0  0  0  0  0  0  0  0  0  0  0
   55.8770   26.7110   44.9970 H   0  0  0  0  0  0  0  0  0  0  0  0
   55.7300   30.0830   45.6790 H   0  0  0  0  0  0  0  0  0  0  0  0
   59.2452   35.9456   46.3253 H   0  0  0  0  0  0  0  0  0  0  0  0
   62.0205   33.4686   45.3207 H   0  0  0  0  0  0  0  0  0  0  0  0
   64.2306   33.6554   46.4743 H   0  0  0  0  0  0  0  0  0  0  0  0
   64.2614   34.1437   48.9200 H   0  0  0  0  0  0  0  0  0  0  0  0
   62.1490   34.4337   50.1742 H   0  0  0  0  0  0  0  0  0  0  0  0
   59.9428   34.2443   49.0206 H   0  0  0  0  0  0  0  0  0  0  0  0
   60.1550   30.7940   46.5760 H   0  0  0  0  0  0  0  0  0  0  0  0
  1  2  1  0
  2  3  1  0
  3  4  1  0
  4  5  2  3
  4  6  1  0
  6  7  1  0
  7  8  2  3
  7  9  1  0
  9 10  1  0
 10 11  2  0
 11 12  1  0
 12 13  1  0
 13 14  1  0
 14 15  2  0
 15 16  1  0
 16 17  2  0
 17 18  1  0
 18 19  2  0
 19 20  1  0
 20 21  2  0
 15 22  1  0
 22 23  1  0
  9  2  2  0
 23 10  1  0
 22 12  2  0
 21 16  1  0
  1 24  1  0
  1 25  1  0
  1 26  1  0
  3 27  1  0
  5 28  1  0
  6 29  1  0
  8 30  1  0
 14 31  1  0
 17 32  1  0
 18 33  1  0
 19 34  1  0
 20 35  1  0
 21 36  1  0
 23 37  1  0
M  END
>  <smiles>  (15) 
Cc1[nH]c(=N)[nH]c(=N)c1-c1nc2scc(-c3ccccc3)c2[nH]1

>  <score_type>  (15) 
oracle

>  <origin>  (15) 
adg

>  <m_score__min__energy>  (15) 
-8.2799999999999994

>  <m_primary>  (15) 
energy

$$$$
15:0
     RDKit          3D

 45 47  0  0  0  0  0  0  0  0999 V2000
   56.8010   23.2990   43.5200 C   0  0  0  0  0  0  0  0  0  0  0  0
   57.7550   24.1240   44.1790 O   0  0  0  0  0  0  0  0  0  0  0  0
   57.6420   25.5160   44.3080 C   0  0  0  0  0  0  0  0  0  0  0  0
   57.9120   26.3970   43.2440 C   0  0  0  0  0  0  0  0  0  0  0  0
   57.7840   27.7790   43.4230 C   0  0  0  0  0  0  0  0  0  0  0  0
   57.3870   28.3040   44.6650 C   0  0  0  0  0  0  0  0  0  0  0  0
   57.2550   29.7240   44.8480 N   0  0  0  0  0  0  0  0  0  0  0  0
   56.1740   30.4240   44.5490 N   0  0  0  0  0  0  0  0  0  0  0  0
   56.3900   31.6970   44.8420 N   0  0  0  0  0  0  0  0  0  0  0  0
   57.6480   31.7380   45.3300 C   0  0  0  0  0  0  0  0  0  0  0  0
   58.3450   32.9670   45.7970 C   0  0  0  0  0  0  0  0  0  0  0  0
   58.6570   33.9670   44.8570 C   0  0  0  0  0  0  0  0  0  0  0  0
   59.3030   35.1390   45.2480 C   0  0  0  0  0  0  0  0  0  0  0  0
   59.6410   35.3380   46.5840 C   0  0  0  0  0  0  0  0  0  0  0  0
   59.3430   34.3600   47.5330 C   0  0  0  0  0  0  0  0  0  0  0  0
   58.7150   33.1590   47.1530 C   0  0  0  0  0  0  0  0  0  0  0  0
   58.3890   32.1630   48.1370 N   0  0  0  0  0  0  0  0  0  0  0  0
   59.1220   30.9620   48.4080 C   0  0  0  0  0  0  0  0  0  0  0  0
   58.5870   29.8310   48.2590 O   0  0  0  0  0  0  0  0  0  0  0  0
   60.5160   31.0600   48.9470 C   0  0  0  0  0  0  0  0  0  0  0  0
   61.5040   30.9350   47.8570 N   0  0  0  0  0  0  0  0  0  0  0  0
   60.8710   30.3410   46.6680 C   0  0  0  0  0  0  0  0  0  0  0  0
   62.0680   32.2510   47.5080 C   0  0  0  0  0  0  0  0  0  0  0  0
   58.2010   30.5080   45.3400 N   0  0  0  0  0  0  0  0  0  0  0  0
   57.1190   27.4210   45.7230 C   0  0  0  0  0  0  0  0  0  0  0  0
   57.2460   26.0390   45.5440 C   0  0  0  0  0  0  0  0  0  0  0  0
   56.1919   22.7723   44.2694 H   0  0  0  0  0  0  0  0  0  0  0  0
   56.1493   23.9229   42.8906 H   0  0  0  0  0  0  0  0  0  0  0  0
   57.3243   22.5641   42.8906 H   0  0  0  0  0  0  0  0  0  0  0  0
   58.2248   25.9976   42.2680 H   0  0  0  0  0  0  0  0  0  0  0  0
   57.9957   28.4597   42.5853 H   0  0  0  0  0  0  0  0  0  0  0  0
   58.3877   33.8220   43.8004 H   0  0  0  0  0  0  0  0  0  0  0  0
   59.5461   35.9078   44.4998 H   0  0  0  0  0  0  0  0  0  0  0  0
   60.1434   36.2671   46.8913 H   0  0  0  0  0  0  0  0  0  0  0  0
   59.6014   34.5291   48.5888 H   0  0  0  0  0  0  0  0  0  0  0  0
   60.6447   32.0340   49.4418 H   0  0  0  0  0  0  0  0  0  0  0  0
   60.6764   30.2437   49.6667 H   0  0  0  0  0  0  0  0  0  0  0  0
   60.1025   29.6199   46.9834 H   0  0  0  0  0  0  0  0  0  0  0  0
   60.4042   31.1346   46.0661 H   0  0  0  0  0  0  0  0  0  0  0  0
   61.6333   29.8247   46.0661 H   0  0  0  0  0  0  0  0  0  0  0  0
   62.3051   32.8042   48.4288 H   0  0  0  0  0  0  0  0  0  0  0  0
   62.9855   32.1118   46.9174 H   0  0  0  0  0  0  0  0  0  0  0  0
   61.3344   32.8194   46.9174 H   0  0  0  0  0  0  0  0  0  0  0  0
   56.8068   27.8185   46.7000 H   0  0  0  0  0  0  0  0  0  0  0  0
   57.0329   25.3584   46.3815 H   0  0  0  0  0  0  0  0  0  0  0  0
  1  2  1  0
  2  3  1  0
  3  4  2  0
  4  5  1  0
  5  6  2  0
  6  7  1  0
  7  8  1  0
  8  9  2  0
  9 10  1  0
 10 11  1  0
 11 12  2  0
 12 13  1  0
 13 14  2  0
 14 15  1  0
 15 16  2  0
 16 17  1  0
 17 18  1  0
 18 19  2  0
 18 20  1  0
 20 21  1  0
 21 22  1  0
 21 23  1  0
 10 24  2  0
  6 25  1  0
 25 26  2  0
 26  3  1  0
 24  7  1  0
 16 11  1  0
  1 27  1  0
  1 28  1  0
  1 29  1  0
  4 30  1  0
  5 31  1  0
 12 32  1  0
 13 33  1  0
 14 34  1  0
 15 35  1  0
 20 36  1  0
 20 37  1  0
 22 38  1  0
 22 39  1  0
 22 40  1  0
 23 41  1  0
 23 42  1  0
 23 43  1  0
 25 44  1  0
 26 45  1  0
M  CHG  1  17  -1
M  END
>  <UniqueID>  (16) 
13

>  <SMILES>  (16) 
COc1ccc(-n2nnc(-c3ccccc3[N-]C(=O)CN(C)C)n2)cc1

>  <Energy>  (16) 
90.81530130951421

>  <Genealogy>  (16) 
COc1ccc(-n2nnc(-c3ccccc3[N-]C(=O)CN(C)C)n2)cc1 (protonated)
COc1ccc(-n2nnc(-c3ccccc3[N-]C(=O)CN(C)C)n2)cc1 (3D coordinates assigned)
COc1ccc(-n2nnc(-c3ccccc3[N-]C(=O)CN(C)C)n2)cc1 (optimized conformer: 90.81530130951421 kcal/mol)

>  <smiles>  (16) 
COc1ccc(-n2nnc(-c3ccccc3NC(=O)CN(C)C)n2)cc1

>  <score_type>  (16) 
oracle

>  <origin>  (16) 
adg

>  <m_score__min__energy>  (16) 
-9.1500000000000004

>  <m_primary>  (16) 
energy

$$$$
16:0
     RDKit          3D

 38 41  0  0  0  0  0  0  0  0999 V2000
   57.6950   30.9660   43.1850 O   0  0  0  0  0  0  0  0  0  0  0  0
   58.0670   30.9730   44.3910 C   0  0  0  0  0  0  0  0  0  0  0  0
   58.0280   29.7240   45.1790 C   0  0  0  0  0  0  0  0  0  0  0  0
   57.4660   28.5510   44.6430 C   0  0  0  0  0  0  0  0  0  0  0  0
   57.4420   27.3740   45.3940 C   0  0  0  0  0  0  0  0  0  0  0  0
   57.9810   27.3540   46.6810 C   0  0  0  0  0  0  0  0  0  0  0  0
   58.5450   28.5110   47.2210 C   0  0  0  0  0  0  0  0  0  0  0  0
   58.5700   29.7060   46.4780 C   0  0  0  0  0  0  0  0  0  0  0  0
   59.1900   30.9290   47.0350 C   0  0  0  0  0  0  0  0  0  0  0  0
   59.9500   30.8200   48.0320 O   0  0  0  0  0  0  0  0  0  0  0  0
   58.9970   32.2480   46.3580 C   0  0  0  0  0  0  0  0  0  0  0  0
   58.5240   32.2380   45.0210 C   0  0  0  0  0  0  0  0  0  0  0  0
   58.4720   33.4320   44.2890 C   0  0  0  0  0  0  0  0  0  0  0  0
   58.8690   34.6320   44.8640 C   0  0  0  0  0  0  0  0  0  0  0  0
   59.2770   34.6770   46.1980 C   0  0  0  0  0  0  0  0  0  0  0  0
   59.6620   35.9010   46.7450 O   0  0  0  0  0  0  0  0  0  0  0  0
   59.3020   33.5000   46.9780 C   0  0  0  0  0  0  0  0  0  0  0  0
   59.6450   33.6430   48.7240 S   0  0  0  0  0  0  0  0  0  0  0  0
   58.8140   32.6350   49.4680 O   0  0  0  0  0  0  0  0  0  0  0  0
   59.2680   35.0050   49.2380 O   0  0  0  0  0  0  0  0  0  0  0  0
   61.3590   33.3830   49.0370 C   0  0  0  0  0  0  0  0  0  0  0  0
   62.2250   33.0390   47.9890 C   0  0  0  0  0  0  0  0  0  0  0  0
   63.5860   32.8340   48.2410 C   0  0  0  0  0  0  0  0  0  0  0  0
   64.0860   32.9660   49.5400 C   0  0  0  0  0  0  0  0  0  0  0  0
   65.9450   32.6880   49.8810 Br  0  0  0  0  0  0  0  0  0  0  0  0
   63.2240   33.3020   50.5890 C   0  0  0  0  0  0  0  0  0  0  0  0
   61.8630   33.5070   50.3390 C   0  0  0  0  0  0  0  0  0  0  0  0
   57.0434   28.5610   43.6274 H   0  0  0  0  0  0  0  0  0  0  0  0
   56.9976   26.4613   44.9705 H   0  0  0  0  0  0  0  0  0  0  0  0
   57.9614   26.4255   47.2705 H   0  0  0  0  0  0  0  0  0  0  0  0
   58.9728   28.4886   48.2341 H   0  0  0  0  0  0  0  0  0  0  0  0
   58.1133   33.4184   43.2492 H   0  0  0  0  0  0  0  0  0  0  0  0
   58.8619   35.5538   44.2638 H   0  0  0  0  0  0  0  0  0  0  0  0
   59.1640   36.3200   47.5220 H   0  0  0  0  0  0  0  0  0  0  0  0
   61.8336   32.9301   46.9668 H   0  0  0  0  0  0  0  0  0  0  0  0
   64.2635   32.5686   47.4160 H   0  0  0  0  0  0  0  0  0  0  0  0
   63.6166   33.4051   51.6114 H   0  0  0  0  0  0  0  0  0  0  0  0
   61.1864   33.7663   51.1666 H   0  0  0  0  0  0  0  0  0  0  0  0
  1  2  2  0
  2  3  1  0
  3  4  2  0
  4  5  1  0
  5  6  2  0
  6  7  1  0
  7  8  2  0
  8  9  1  0
  9 10  2  0
  9 11  1  0
 11 12  2  0
 12 13  1  0
 13 14  2  0
 14 15  1  0
 15 16  1  0
 15 17  2  0
 17 18  1  0
 18 19  2  0
 18 20  2  0
 18 21  1  0
 21 22  2  0
 22 23  1  0
 23 24  2  0
 24 25  1  0
 24 26  1  0
 26 27  2  0
 12  2  1  0
 27 21  1  0
  8  3  1  0
 17 11  1  0
  4 28  1  0
  5 29  1  0
  6 30  1  0
  7 31  1  0
 13 32  1  0
 14 33  1  0
 16 34  1  0
 22 35  1  0
 23 36  1  0
 26 37  1  0
 27 38  1  0
M  END
>  <UniqueID>  (17) 
14

>  <SMILES>  (17) 
O=C1c2ccccc2C(=O)c2c1ccc(O)c2S(=O)(=O)c1ccc(Br)cc1

>  <Energy>  (17) 
58.38954494325452

>  <Genealogy>  (17) 
O=C1c2ccccc2C(=O)c2c1ccc(O)c2S(=O)(=O)c1ccc(Br)cc1 (3D coordinates assigned)
O=C1c2ccccc2C(=O)c2c1ccc(O)c2S(=O)(=O)c1ccc(Br)cc1 (nonaromatic ring conformer: 58.38954494325452 kcal/mol)

>  <smiles>  (17) 
O=C1c2ccccc2C(=O)c2c1ccc(O)c2S(=O)(=O)c1ccc(Br)cc1

>  <score_type>  (17) 
oracle

>  <origin>  (17) 
adg

>  <m_score__min__energy>  (17) 
-8.6300000000000008

>  <m_primary>  (17) 
energy

$$$$
17:0
     RDKit          3D

 38 39  0  0  0  0  0  0  0  0999 V2000
   62.4310   32.3490   47.9130 C   0  0  0  0  0  0  0  0  0  0  0  0
   61.4760   31.2280   47.6530 C   0  0  0  0  0  0  0  0  0  0  0  0
   60.9610   30.4680   48.7100 C   0  0  0  0  0  0  0  0  0  0  0  0
   60.1110   29.4430   48.4420 N   0  0  0  0  0  0  0  0  0  0  0  0
   59.7510   29.1280   47.1690 C   0  0  0  0  0  0  0  0  0  0  0  0
   58.8260   28.0070   46.9320 C   0  0  0  0  0  0  0  0  0  0  0  0
   58.1000   27.5720   47.8690 O   0  0  0  0  0  0  0  0  0  0  0  0
   58.7610   27.4300   45.6580 O   0  0  0  0  0  0  0  0  0  0  0  0
   57.8010   27.8130   44.6750 C   0  0  0  0  0  0  0  0  0  0  0  0
   56.4180   27.8870   45.2670 C   0  0  0  0  0  0  0  0  0  0  0  0
   56.0090   26.9560   46.0090 O   0  0  0  0  0  0  0  0  0  0  0  0
   55.5260   28.9600   44.9510 N   0  0  0  0  0  0  0  0  0  0  0  0
   55.6650   29.8290   43.7890 C   0  0  0  0  0  0  0  0  0  0  0  0
   56.8170   30.7520   44.0000 C   0  0  0  0  0  0  0  0  0  0  0  0
   57.5440   31.0780   43.0230 O   0  0  0  0  0  0  0  0  0  0  0  0
   57.0820   31.2650   45.3110 N   0  0  0  0  0  0  0  0  0  0  0  0
   57.8480   32.4390   45.6100 C   0  0  0  0  0  0  0  0  0  0  0  0
   58.0150   33.4050   44.6090 C   0  0  0  0  0  0  0  0  0  0  0  0
   58.7410   34.5720   44.8630 C   0  0  0  0  0  0  0  0  0  0  0  0
   59.2910   34.7910   46.1290 C   0  0  0  0  0  0  0  0  0  0  0  0
   59.1040   33.8490   47.1440 C   0  0  0  0  0  0  0  0  0  0  0  0
   58.3780   32.6790   46.8950 C   0  0  0  0  0  0  0  0  0  0  0  0
   58.1470   31.8210   47.9190 F   0  0  0  0  0  0  0  0  0  0  0  0
   60.2760   29.8860   46.1100 C   0  0  0  0  0  0  0  0  0  0  0  0
   61.1260   30.9120   46.3780 N   0  0  0  0  0  0  0  0  0  0  0  0
   62.5482   32.4866   48.9980 H   0  0  0  0  0  0  0  0  0  0  0  0
   63.4073   32.1100   47.4661 H   0  0  0  0  0  0  0  0  0  0  0  0
   62.0399   33.2749   47.4661 H   0  0  0  0  0  0  0  0  0  0  0  0
   61.2422   30.6989   49.7481 H   0  0  0  0  0  0  0  0  0  0  0  0
   58.0729   28.8001   44.2729 H   0  0  0  0  0  0  0  0  0  0  0  0
   57.7988   27.0570   43.8759 H   0  0  0  0  0  0  0  0  0  0  0  0
   55.8432   29.2177   42.8920 H   0  0  0  0  0  0  0  0  0  0  0  0
   54.7435   30.4142   43.6537 H   0  0  0  0  0  0  0  0  0  0  0  0
   57.5713   33.2437   43.6155 H   0  0  0  0  0  0  0  0  0  0  0  0
   58.8795   35.3180   44.0666 H   0  0  0  0  0  0  0  0  0  0  0  0
   59.8709   35.7046   46.3264 H   0  0  0  0  0  0  0  0  0  0  0  0
   59.5292   34.0279   48.1426 H   0  0  0  0  0  0  0  0  0  0  0  0
   60.0013   29.6511   45.0711 H   0  0  0  0  0  0  0  0  0  0  0  0
  1  2  1  0
  2  3  2  0
  3  4  1  0
  4  5  2  0
  5  6  1  0
  6  7  2  0
  6  8  1  0
  8  9  1  0
  9 10  1  0
 10 11  2  0
 10 12  1  0
 12 13  1  0
 13 14  1  0
 14 15  2  0
 14 16  1  0
 16 17  1  0
 17 18  2  0
 18 19  1  0
 19 20  2  0
 20 21  1  0
 21 22  2  0
 22 23  1  0
  5 24  1  0
 24 25  2  0
 25  2  1  0
 22 17  1  0
  1 26  1  0
  1 27  1  0
  1 28  1  0
  3 29  1  0
  9 30  1  0
  9 31  1  0
 13 32  1  0
 13 33  1  0
 18 34  1  0
 19 35  1  0
 20 36  1  0
 21 37  1  0
 24 38  1  0
M  CHG  2  12  -1  16  -1
M  END
>  <UniqueID>  (18) 
15

>  <SMILES>  (18) 
Cc1cnc(C(=O)OCC(=O)[N-]CC(=O)[N-]c2ccccc2F)cn1

>  <Energy>  (18) 
38.82452245893704

>  <Genealogy>  (18) 
Cc1cnc(C(=O)OCC(=O)[N-]CC(=O)[N-]c2ccccc2F)cn1 (protonated)
Cc1cnc(C(=O)OCC(=O)[N-]CC(=O)[N-]c2ccccc2F)cn1 (3D coordinates assigned)
Cc1cnc(C(=O)OCC(=O)[N-]CC(=O)[N-]c2ccccc2F)cn1 (optimized conformer: 38.82452245893704 kcal/mol)

>  <smiles>  (18) 
Cc1cnc(C(=O)OCC(=O)NCC(=O)Nc2ccccc2F)cn1

>  <score_type>  (18) 
oracle

>  <origin>  (18) 
adg

>  <m_score__min__energy>  (18) 
-10.99

>  <m_primary>  (18) 
energy

$$$$
18:0
     RDKit          3D

 41 44  0  0  0  0  0  0  0  0999 V2000
   60.5820   27.3770   45.9840 C   0  0  0  0  0  0  0  0  0  0  0  0
   60.3100   25.5960   46.2350 S   0  0  0  0  0  0  0  0  0  0  0  0
   58.5250   25.7320   46.1340 C   0  0  0  0  0  0  0  0  0  0  0  0
   57.7210   24.6280   46.4340 C   0  0  0  0  0  0  0  0  0  0  0  0
   56.3300   24.7330   46.3510 C   0  0  0  0  0  0  0  0  0  0  0  0
   55.7410   25.9410   45.9670 C   0  0  0  0  0  0  0  0  0  0  0  0
   56.5350   27.0540   45.6610 C   0  0  0  0  0  0  0  0  0  0  0  0
   55.8880   28.2720   45.2730 N   0  0  0  0  0  0  0  0  0  0  0  0
   56.6760   29.6330   44.5410 S   0  0  0  0  0  0  0  0  0  0  0  0
   55.6350   30.6140   44.0750 O   0  0  0  0  0  0  0  0  0  0  0  0
   57.5010   29.1580   43.3780 O   0  0  0  0  0  0  0  0  0  0  0  0
   57.7340   30.4280   45.7120 C   0  0  0  0  0  0  0  0  0  0  0  0
   58.3150   29.6630   46.7650 C   0  0  0  0  0  0  0  0  0  0  0  0
   59.1610   30.2610   47.7260 C   0  0  0  0  0  0  0  0  0  0  0  0
   59.4230   31.6270   47.6110 C   0  0  0  0  0  0  0  0  0  0  0  0
   58.8580   32.3480   46.5980 C   0  0  0  0  0  0  0  0  0  0  0  0
   59.1910   33.6660   46.6820 C   0  0  0  0  0  0  0  0  0  0  0  0
   58.6910   34.5870   45.7650 C   0  0  0  0  0  0  0  0  0  0  0  0
   57.8370   34.1020   44.7480 C   0  0  0  0  0  0  0  0  0  0  0  0
   57.4950   32.7250   44.6790 C   0  0  0  0  0  0  0  0  0  0  0  0
   58.0110   31.8180   45.6350 C   0  0  0  0  0  0  0  0  0  0  0  0
   60.0400   33.7730   47.8660 C   0  0  0  0  0  0  0  0  0  0  0  0
   60.5140   34.8390   48.3410 O   0  0  0  0  0  0  0  0  0  0  0  0
   60.2240   32.4700   48.4470 N   0  0  0  0  0  0  0  0  0  0  0  0
   60.6030   32.2020   49.8270 C   0  0  0  0  0  0  0  0  0  0  0  0
   57.9360   26.9420   45.7440 C   0  0  0  0  0  0  0  0  0  0  0  0
   60.6584   27.8775   46.9606 H   0  0  0  0  0  0  0  0  0  0  0  0
   61.5139   27.5297   45.4198 H   0  0  0  0  0  0  0  0  0  0  0  0
   59.7382   27.8009   45.4198 H   0  0  0  0  0  0  0  0  0  0  0  0
   58.1836   23.6766   46.7354 H   0  0  0  0  0  0  0  0  0  0  0  0
   55.6981   23.8643   46.5880 H   0  0  0  0  0  0  0  0  0  0  0  0
   54.6455   26.0184   45.9046 H   0  0  0  0  0  0  0  0  0  0  0  0
   58.1006   28.5861   46.8309 H   0  0  0  0  0  0  0  0  0  0  0  0
   59.6003   29.6671   48.5411 H   0  0  0  0  0  0  0  0  0  0  0  0
   58.9512   35.6538   45.8296 H   0  0  0  0  0  0  0  0  0  0  0  0
   57.4321   34.8000   44.0004 H   0  0  0  0  0  0  0  0  0  0  0  0
   56.8286   32.3634   43.8820 H   0  0  0  0  0  0  0  0  0  0  0  0
   59.8959   32.7020   50.5052 H   0  0  0  0  0  0  0  0  0  0  0  0
   60.5812   31.1174   50.0092 H   0  0  0  0  0  0  0  0  0  0  0  0
   61.6183   32.5841   50.0092 H   0  0  0  0  0  0  0  0  0  0  0  0
   58.5704   27.8074   45.5018 H   0  0  0  0  0  0  0  0  0  0  0  0
  1  2  1  0
  2  3  1  0
  3  4  2  0
  4  5  1  0
  5  6  2  0
  6  7  1  0
  7  8  1  0
  8  9  1  0
  9 10  2  0
  9 11  2  0
  9 12  1  0
 12 13  2  0
 13 14  1  0
 14 15  2  0
 15 16  1  0
 16 17  2  0
 17 18  1  0
 18 19  2  0
 19 20  1  0
 20 21  2  0
 17 22  1  0
 22 23  2  0
 22 24  1  0
 24 25  1  0
  7 26  2  0
 26  3  1  0
 21 12  1  0
 24 15  1  0
 21 16  1  0
  1 27  1  0
  1 28  1  0
  1 29  1  0
  4 30  1  0
  5 31  1  0
  6 32  1  0
 13 33  1  0
 14 34  1  0
 18 35  1  0
 19 36  1  0
 20 37  1  0
 25 38  1  0
 25 39  1  0
 25 40  1  0
 26 41  1  0
M  CHG  1   8  -1
M  END
>  <UniqueID>  (19) 
16

>  <SMILES>  (19) 
CSc1cccc([N-]S(=O)(=O)c2ccc3c4c(cccc24)C(=O)N3C)c1

>  <Energy>  (19) 
88.57974624320192

>  <Genealogy>  (19) 
CSc1cccc([N-]S(=O)(=O)c2ccc3c4c(cccc24)C(=O)N3C)c1 (protonated)
CSc1cccc([N-]S(=O)(=O)c2ccc3c4c(cccc24)C(=O)N3C)c1 (3D coordinates assigned)
CSc1cccc([N-]S(=O)(=O)c2ccc3c4c(cccc24)C(=O)N3C)c1 (nonaromatic ring conformer: 88.57974624320192 kcal/mol)

>  <smiles>  (19) 
CSc1cccc(NS(=O)(=O)c2ccc3c4c(cccc24)C(=O)N3C)c1

>  <score_type>  (19) 
oracle

>  <origin>  (19) 
adg

>  <m_score__min__energy>  (19) 
-10.550000000000001

>  <m_primary>  (19) 
energy

$$$$
19:0
     RDKit          3D

 39 42  0  0  0  0  0  0  0  0999 V2000
   58.8661   28.0152   48.4874 H   0  0  0  0  0  0  0  0  0  0  0  0
   58.5450   28.3500   47.4900 C   0  0  0  0  0  0  0  0  0  0  0  0
   58.1980   29.6100   47.1670 N   0  0  0  0  0  0  0  0  0  0  0  0
   57.8850   29.6360   45.8800 N   0  0  0  0  0  0  0  0  0  0  0  0
   57.3870   30.8110   45.2200 C   0  0  0  0  0  0  0  0  0  0  0  0
   56.3620   30.7280   44.4890 O   0  0  0  0  0  0  0  0  0  0  0  0
   58.0310   32.1330   45.4160 C   0  0  0  0  0  0  0  0  0  0  0  0
   58.2720   32.6170   46.7160 C   0  0  0  0  0  0  0  0  0  0  0  0
   57.9866   32.0082   47.5866 H   0  0  0  0  0  0  0  0  0  0  0  0
   58.8710   33.8650   46.9090 C   0  0  0  0  0  0  0  0  0  0  0  0
   59.0616   34.2312   47.9286 H   0  0  0  0  0  0  0  0  0  0  0  0
   59.2280   34.6480   45.8080 C   0  0  0  0  0  0  0  0  0  0  0  0
   59.7035   35.6281   45.9609 H   0  0  0  0  0  0  0  0  0  0  0  0
   58.9810   34.1860   44.5140 C   0  0  0  0  0  0  0  0  0  0  0  0
   59.2583   34.8054   43.6483 H   0  0  0  0  0  0  0  0  0  0  0  0
   58.3820   32.9380   44.3150 C   0  0  0  0  0  0  0  0  0  0  0  0
   58.1839   32.5832   43.2928 H   0  0  0  0  0  0  0  0  0  0  0  0
   58.0250   28.3940   45.3570 C   0  0  0  0  0  0  0  0  0  0  0  0
   57.7670   28.0220   43.9240 C   0  0  0  0  0  0  0  0  0  0  0  0
   57.1405   27.1186   43.8868 H   0  0  0  0  0  0  0  0  0  0  0  0
   57.2478   28.8494   43.4182 H   0  0  0  0  0  0  0  0  0  0  0  0
   58.7239   27.8257   43.4182 H   0  0  0  0  0  0  0  0  0  0  0  0
   58.4350   27.5420   46.3730 C   0  0  0  0  0  0  0  0  0  0  0  0
   58.6810   26.0880   46.3300 C   0  0  0  0  0  0  0  0  0  0  0  0
   59.7400   25.6410   45.8140 O   0  0  0  0  0  0  0  0  0  0  0  0
   57.6920   25.1950   46.8690 N   0  0  0  0  0  0  0  0  0  0  0  0
   56.4520   25.1060   46.4910 C   0  0  0  0  0  0  0  0  0  0  0  0
   55.6400   26.1650   46.2730 N   0  0  0  0  0  0  0  0  0  0  0  0
   54.4150   25.8090   45.8910 N   0  0  0  0  0  0  0  0  0  0  0  0
   54.2480   24.4690   45.8020 C   0  0  0  0  0  0  0  0  0  0  0  0
   52.9850   23.8370   45.4030 C   0  0  0  0  0  0  0  0  0  0  0  0
   52.2130   24.0620   43.9250 S   0  0  0  0  0  0  0  0  0  0  0  0
   50.9090   23.0490   44.2420 C   0  0  0  0  0  0  0  0  0  0  0  0
   50.0736   22.8410   43.5572 H   0  0  0  0  0  0  0  0  0  0  0  0
   51.0670   22.5200   45.5160 C   0  0  0  0  0  0  0  0  0  0  0  0
   50.3490   21.8215   45.9706 H   0  0  0  0  0  0  0  0  0  0  0  0
   52.2260   22.9590   46.1680 C   0  0  0  0  0  0  0  0  0  0  0  0
   52.5073   22.6412   47.1828 H   0  0  0  0  0  0  0  0  0  0  0  0
   55.6660   23.6480   46.2100 S   0  0  0  0  0  0  0  0  0  0  0  0
  1  2  1  0
  2  3  2  0
  3  4  1  0
  4  5  1  0
  5  6  2  0
  5  7  1  0
  7  8  2  0
  8  9  1  0
  8 10  1  0
 10 11  1  0
 10 12  2  0
 12 13  1  0
 12 14  1  0
 14 15  1  0
 14 16  2  0
 16 17  1  0
  4 18  1  0
 18 19  1  0
 19 20  1  0
 19 21  1  0
 19 22  1  0
 18 23  2  0
 23 24  1  0
 24 25  2  0
 24 26  1  0
 26 27  2  0
 27 28  1  0
 28 29  1  0
 29 30  2  0
 30 31  1  0
 31 32  1  0
 32 33  1  0
 33 34  1  0
 33 35  2  0
 35 36  1  0
 35 37  1  0
 37 38  1  0
 30 39  1  0
 23  2  1  0
 39 27  1  0
 16  7  1  0
 37 31  2  0
M  CHG  1  28  -1
M  END
>  <UniqueID>  (20) 
17

>  <SMILES>  (20) 
Cc1c(C(=O)/N=c2\[n-]nc(-c3cccs3)s2)cnn1C(=O)c1ccccc1

>  <Energy>  (20) 
141.3659866747004

>  <Genealogy>  (20) 
Cc1c(C(=O)N=c2[n-]nc(-c3cccs3)s2)cnn1C(=O)c1ccccc1 (protonated)
Cc1c(C(=O)/N=c2\[n-]nc(-c3cccs3)s2)cnn1C(=O)c1ccccc1 (cis-trans isomerization)
Cc1c(C(=O)/N=c2\[n-]nc(-c3cccs3)s2)cnn1C(=O)c1ccccc1 (3D coordinates assigned)
Cc1c(C(=O)/N=c2\[n-]nc(-c3cccs3)s2)cnn1C(=O)c1ccccc1 (optimized conformer: 141.3659866747004 kcal/mol)

>  <smiles>  (20) 
Cc1c(C(=O)N=c2[nH]nc(-c3cccs3)s2)cnn1C(=O)c1ccccc1

>  <score_type>  (20) 
oracle

>  <origin>  (20) 
adg

>  <m_score__min__energy>  (20) 
-11.029999999999999

>  <m_primary>  (20) 
energy

$$$$
20:0
     RDKit          3D

 38 39  0  0  0  0  0  0  0  0999 V2000
   60.7690   27.7660   49.5410 C   0  0  0  0  0  0  0  0  0  0  0  0
   60.3990   27.0210   48.3860 O   0  0  0  0  0  0  0  0  0  0  0  0
   59.2680   27.2860   47.5990 C   0  0  0  0  0  0  0  0  0  0  0  0
   58.2290   26.3510   47.4370 C   0  0  0  0  0  0  0  0  0  0  0  0
   57.1210   26.6580   46.6470 C   0  0  0  0  0  0  0  0  0  0  0  0
   57.0320   27.8980   46.0080 C   0  0  0  0  0  0  0  0  0  0  0  0
   55.9430   28.1820   45.2470 N   0  0  0  0  0  0  0  0  0  0  0  0
   55.8030   29.3720   44.6100 C   0  0  0  0  0  0  0  0  0  0  0  0
   54.7760   29.5910   43.9160 O   0  0  0  0  0  0  0  0  0  0  0  0
   56.7910   30.3490   44.7250 C   0  0  0  0  0  0  0  0  0  0  0  0
   57.9370   30.1040   45.5000 C   0  0  0  0  0  0  0  0  0  0  0  0
   58.9770   31.1980   45.6300 C   0  0  0  0  0  0  0  0  0  0  0  0
   58.7710   31.9740   46.8720 N   0  0  0  0  0  0  0  0  0  0  0  0
   60.0620   32.4610   47.4050 C   0  0  0  0  0  0  0  0  0  0  0  0
   59.9090   32.9120   48.8590 C   0  0  0  0  0  0  0  0  0  0  0  0
   61.1260   34.1520   49.2500 Cl  0  0  0  0  0  0  0  0  0  0  0  0
   57.7960   33.0800   46.6800 C   0  0  0  0  0  0  0  0  0  0  0  0
   57.9420   33.6470   45.2710 C   0  0  0  0  0  0  0  0  0  0  0  0
   59.2240   34.8830   45.2330 Cl  0  0  0  0  0  0  0  0  0  0  0  0
   58.0670   28.8530   46.1570 C   0  0  0  0  0  0  0  0  0  0  0  0
   59.1820   28.5270   46.9590 C   0  0  0  0  0  0  0  0  0  0  0  0
   60.4900   27.2042   50.4446 H   0  0  0  0  0  0  0  0  0  0  0  0
   61.8559   27.9353   49.5355 H   0  0  0  0  0  0  0  0  0  0  0  0
   60.2471   28.7343   49.5355 H   0  0  0  0  0  0  0  0  0  0  0  0
   58.2908   25.3727   47.9360 H   0  0  0  0  0  0  0  0  0  0  0  0
   56.3135   25.9208   46.5264 H   0  0  0  0  0  0  0  0  0  0  0  0
   56.6731   31.3129   44.2083 H   0  0  0  0  0  0  0  0  0  0  0  0
   59.9783   30.7430   45.6510 H   0  0  0  0  0  0  0  0  0  0  0  0
   58.8830   31.8776   44.7702 H   0  0  0  0  0  0  0  0  0  0  0  0
   60.8031   31.6497   47.3543 H   0  0  0  0  0  0  0  0  0  0  0  0
   60.3941   33.3183   46.8010 H   0  0  0  0  0  0  0  0  0  0  0  0
   58.9028   33.3317   49.0052 H   0  0  0  0  0  0  0  0  0  0  0  0
   60.0544   32.0454   49.5207 H   0  0  0  0  0  0  0  0  0  0  0  0
   56.7743   32.6961   46.8168 H   0  0  0  0  0  0  0  0  0  0  0  0
   57.9911   33.8732   47.4168 H   0  0  0  0  0  0  0  0  0  0  0  0
   58.2013   32.8336   44.5774 H   0  0  0  0  0  0  0  0  0  0  0  0
   56.9900   34.1089   44.9703 H   0  0  0  0  0  0  0  0  0  0  0  0
   59.9941   29.2586   47.0824 H   0  0  0  0  0  0  0  0  0  0  0  0
  1  2  1  0
  2  3  1  0
  3  4  2  0
  4  5  1  0
  5  6  2  0
  6  7  1  0
  7  8  1  0
  8  9  2  0
  8 10  1  0
 10 11  2  0
 11 12  1  0
 12 13  1  0
 13 14  1  0
 14 15  1  0
 15 16  1  0
 13 17  1  0
 17 18  1  0
 18 19  1  0
 11 20  1  0
 20 21  2  0
 21  3  1  0
 20  6  1  0
  1 22  1  0
  1 23  1  0
  1 24  1  0
  4 25  1  0
  5 26  1  0
 10 27  1  0
 12 28  1  0
 12 29  1  0
 14 30  1  0
 14 31  1  0
 15 32  1  0
 15 33  1  0
 17 34  1  0
 17 35  1  0
 18 36  1  0
 18 37  1  0
 21 38  1  0
M  CHG  1   7  -1
M  END
>  <UniqueID>  (21) 
18

>  <SMILES>  (21) 
COc1ccc2[n-]c(=O)cc(CN(CCCl)CCCl)c2c1

>  <Energy>  (21) 
40.51104778957152

>  <Genealogy>  (21) 
COc1ccc2[n-]c(=O)cc(CN(CCCl)CCCl)c2c1 (protonated)
COc1ccc2[n-]c(=O)cc(CN(CCCl)CCCl)c2c1 (3D coordinates assigned)
COc1ccc2[n-]c(=O)cc(CN(CCCl)CCCl)c2c1 (optimized conformer: 40.51104778957152 kcal/mol)

>  <smiles>  (21) 
COc1ccc2[nH]c(=O)cc(CN(CCCl)CCCl)c2c1

>  <score_type>  (21) 
oracle

>  <origin>  (21) 
adg

>  <m_score__min__energy>  (21) 
-7.9699999999999998

>  <m_primary>  (21) 
energy

$$$$
21:0
     RDKit          3D

 30 31  0  0  0  0  0  0  0  0999 V2000
   56.2860   29.7110   42.6260 Cl  0  0  0  0  0  0  0  0  0  0  0  0
   57.0170   31.0290   43.5210 C   0  0  0  0  0  0  0  0  0  0  0  0
   57.7490   32.0130   42.8530 C   0  0  0  0  0  0  0  0  0  0  0  0
   58.3230   33.0530   43.5870 C   0  0  0  0  0  0  0  0  0  0  0  0
   58.1590   33.1060   44.9780 C   0  0  0  0  0  0  0  0  0  0  0  0
   58.7950   34.2130   45.7840 C   0  0  0  0  0  0  0  0  0  0  0  0
   59.0140   33.8180   47.1860 N   0  0  0  0  0  0  0  0  0  0  0  0
   59.9320   34.7350   47.8810 C   0  0  0  0  0  0  0  0  0  0  0  0
   61.3250   34.1650   47.9070 C   0  0  0  0  0  0  0  0  0  0  0  0
   61.9590   33.9010   49.1340 C   0  0  0  0  0  0  0  0  0  0  0  0
   63.2390   33.3390   49.1580 C   0  0  0  0  0  0  0  0  0  0  0  0
   63.8900   33.0250   47.9610 C   0  0  0  0  0  0  0  0  0  0  0  0
   63.2590   33.2690   46.7380 C   0  0  0  0  0  0  0  0  0  0  0  0
   61.9790   33.8320   46.7090 C   0  0  0  0  0  0  0  0  0  0  0  0
   57.4180   32.0920   45.6070 C   0  0  0  0  0  0  0  0  0  0  0  0
   56.8700   31.0890   44.8720 N   0  0  0  0  0  0  0  0  0  0  0  0
   57.8720   31.9693   41.7608 H   0  0  0  0  0  0  0  0  0  0  0  0
   58.9049   33.8320   43.0727 H   0  0  0  0  0  0  0  0  0  0  0  0
   59.7642   34.4700   45.3317 H   0  0  0  0  0  0  0  0  0  0  0  0
   58.1117   35.0750   45.7763 H   0  0  0  0  0  0  0  0  0  0  0  0
   58.0970   33.7800   47.6920 H   0  0  0  0  0  0  0  0  0  0  0  0
   59.4290   32.8570   47.1890 H   0  0  0  0  0  0  0  0  0  0  0  0
   59.9457   35.7011   47.3553 H   0  0  0  0  0  0  0  0  0  0  0  0
   59.5836   34.8717   48.9154 H   0  0  0  0  0  0  0  0  0  0  0  0
   61.4463   34.1374   50.0780 H   0  0  0  0  0  0  0  0  0  0  0  0
   63.7348   33.1435   50.1203 H   0  0  0  0  0  0  0  0  0  0  0  0
   64.8984   32.5861   47.9819 H   0  0  0  0  0  0  0  0  0  0  0  0
   63.7699   33.0179   45.7968 H   0  0  0  0  0  0  0  0  0  0  0  0
   61.4825   34.0147   45.7446 H   0  0  0  0  0  0  0  0  0  0  0  0
   57.2808   32.1099   46.6983 H   0  0  0  0  0  0  0  0  0  0  0  0
  1  2  1  0
  2  3  2  0
  3  4  1  0
  4  5  2  0
  5  6  1  0
  6  7  1  0
  7  8  1  0
  8  9  1  0
  9 10  2  0
 10 11  1  0
 11 12  2  0
 12 13  1  0
 13 14  2  0
  5 15  1  0
 15 16  2  0
 16  2  1  0
 14  9  1  0
  3 17  1  0
  4 18  1  0
  6 19  1  0
  6 20  1  0
  7 21  1  0
  7 22  1  0
  8 23  1  0
  8 24  1  0
 10 25  1  0
 11 26  1  0
 12 27  1  0
 13 28  1  0
 14 29  1  0
 15 30  1  0
M  CHG  1   7   1
M  END
>  <UniqueID>  (22) 
19

>  <SMILES>  (22) 
Clc1ccc(C[NH2+]Cc2ccccc2)cn1

>  <Energy>  (22) 
30.029388149905806

>  <Genealogy>  (22) 
Clc1ccc(C[NH2+]Cc2ccccc2)cn1 (protonated)
Clc1ccc(C[NH2+]Cc2ccccc2)cn1 (3D coordinates assigned)
Clc1ccc(C[NH2+]Cc2ccccc2)cn1 (optimized conformer: 30.029388149905806 kcal/mol)

>  <smiles>  (22) 
Clc1ccc(CNCc2ccccc2)cn1

>  <score_type>  (22) 
oracle

>  <origin>  (22) 
adg

>  <m_score__min__energy>  (22) 
-4.9699999999999998

>  <m_primary>  (22) 
energy

$$$$
22:0
     RDKit          3D

 31 33  0  0  0  0  0  0  0  0999 V2000
   55.4160   30.0520   45.6110 H   0  0  0  0  0  0  0  0  0  0  0  0
   55.5620   29.2730   44.9850 O   0  0  0  0  0  0  0  0  0  0  0  0
   56.2680   28.1240   45.3470 C   0  0  0  0  0  0  0  0  0  0  0  0
   55.5780   27.0890   45.8950 N   0  0  0  0  0  0  0  0  0  0  0  0
   56.1930   25.9260   46.2250 C   0  0  0  0  0  0  0  0  0  0  0  0
   55.5280   24.9870   46.7330 O   0  0  0  0  0  0  0  0  0  0  0  0
   57.5200   25.7700   45.9980 N   0  0  0  0  0  0  0  0  0  0  0  0
   58.2630   26.7720   45.4610 C   0  0  0  0  0  0  0  0  0  0  0  0
   59.4950   26.5900   45.2670 O   0  0  0  0  0  0  0  0  0  0  0  0
   57.6610   28.0010   45.1430 C   0  0  0  0  0  0  0  0  0  0  0  0
   58.4810   29.0940   44.5720 C   0  0  0  0  0  0  0  0  0  0  0  0
   59.2850   28.7970   43.8826 H   0  0  0  0  0  0  0  0  0  0  0  0
   58.3450   30.4270   44.8100 C   0  0  0  0  0  0  0  0  0  0  0  0
   57.9530   31.2150   43.7170 C   0  0  0  0  0  0  0  0  0  0  0  0
   57.9624   30.7776   42.7078 H   0  0  0  0  0  0  0  0  0  0  0  0
   57.5540   32.5330   43.8810 C   0  0  0  0  0  0  0  0  0  0  0  0
   57.2411   33.1142   43.0011 H   0  0  0  0  0  0  0  0  0  0  0  0
   57.5410   33.1400   45.1440 C   0  0  0  0  0  0  0  0  0  0  0  0
   57.0740   34.4010   45.2180 C   0  0  0  0  0  0  0  0  0  0  0  0
   57.0437   34.9203   46.1872 H   0  0  0  0  0  0  0  0  0  0  0  0
   56.7229   34.9117   44.3092 H   0  0  0  0  0  0  0  0  0  0  0  0
   58.0430   32.4100   46.2660 C   0  0  0  0  0  0  0  0  0  0  0  0
   58.1280   32.9830   47.5610 C   0  0  0  0  0  0  0  0  0  0  0  0
   57.7115   33.9859   47.7362 H   0  0  0  0  0  0  0  0  0  0  0  0
   58.7290   32.2990   48.6140 C   0  0  0  0  0  0  0  0  0  0  0  0
   58.7582   32.7510   49.6164 H   0  0  0  0  0  0  0  0  0  0  0  0
   59.2910   31.0490   48.4020 C   0  0  0  0  0  0  0  0  0  0  0  0
   59.9420   30.4210   49.4120 F   0  0  0  0  0  0  0  0  0  0  0  0
   59.2050   30.4480   47.1500 C   0  0  0  0  0  0  0  0  0  0  0  0
   59.6871   29.4728   46.9869 H   0  0  0  0  0  0  0  0  0  0  0  0
   58.5100   31.0650   46.0810 C   0  0  0  0  0  0  0  0  0  0  0  0
  1  2  1  0
  2  3  1  0
  3  4  1  0
  4  5  1  0
  5  6  2  0
  5  7  1  0
  7  8  1  0
  8  9  2  0
  8 10  1  0
 10 11  1  0
 11 12  1  0
 11 13  2  0
 13 14  1  0
 14 15  1  0
 14 16  2  0
 16 17  1  0
 16 18  1  0
 18 19  2  0
 19 20  1  0
 19 21  1  0
 18 22  1  0
 22 23  2  0
 23 24  1  0
 23 25  1  0
 25 26  1  0
 25 27  2  0
 27 28  1  0
 27 29  1  0
 29 30  1  0
 29 31  2  0
 10  3  2  0
 31 13  1  0
 31 22  1  0
M  CHG  2   4  -1   7  -1
M  END
>  <UniqueID>  (23) 
20

>  <SMILES>  (23) 
C=c1cc/c(=C/c2c(O)[n-]c(=O)[n-]c2=O)c2cc(F)ccc12

>  <Energy>  (23) 
68.37953764313785

>  <Genealogy>  (23) 
C=c1ccc(=Cc2c(O)[n-]c(=O)[n-]c2=O)c2cc(F)ccc12 (protonated)
C=c1cc/c(=C/c2c(O)[n-]c(=O)[n-]c2=O)c2cc(F)ccc12 (cis-trans isomerization)
C=c1cc/c(=C/c2c(O)[n-]c(=O)[n-]c2=O)c2cc(F)ccc12 (3D coordinates assigned)
C=c1cc/c(=C/c2c(O)[n-]c(=O)[n-]c2=O)c2cc(F)ccc12 (optimized conformer: 68.37953764313785 kcal/mol)

>  <smiles>  (23) 
C=c1ccc(=Cc2c(O)[nH]c(=O)[nH]c2=O)c2cc(F)ccc12

>  <score_type>  (23) 
oracle

>  <origin>  (23) 
adg

>  <m_score__min__energy>  (23) 
-12.41

>  <m_primary>  (23) 
energy

$$$$
23:0
     RDKit          3D

 36 38  0  0  0  0  0  0  0  0999 V2000
   59.0970   33.6110   54.1370 N   0  0  0  0  0  0  0  0  0  0  0  0
   59.1280   33.9080   52.7390 C   0  0  0  0  0  0  0  0  0  0  0  0
   58.5080   34.9580   52.2880 N   0  0  0  0  0  0  0  0  0  0  0  0
   59.7770   32.9920   51.8410 N   0  0  0  0  0  0  0  0  0  0  0  0
   60.4050   33.3700   50.6030 C   0  0  0  0  0  0  0  0  0  0  0  0
   61.7380   33.8000   50.6130 C   0  0  0  0  0  0  0  0  0  0  0  0
   62.3610   34.1950   49.4280 C   0  0  0  0  0  0  0  0  0  0  0  0
   61.6550   34.1800   48.2230 C   0  0  0  0  0  0  0  0  0  0  0  0
   60.3080   33.7750   48.1940 C   0  0  0  0  0  0  0  0  0  0  0  0
   59.5300   33.7610   46.9330 C   0  0  0  0  0  0  0  0  0  0  0  0
   59.2280   34.8480   46.1240 C   0  0  0  0  0  0  0  0  0  0  0  0
   58.4920   34.3450   45.0720 C   0  0  0  0  0  0  0  0  0  0  0  0
   58.3890   32.9850   45.3010 C   0  0  0  0  0  0  0  0  0  0  0  0
   57.6880   32.0160   44.4420 C   0  0  0  0  0  0  0  0  0  0  0  0
   57.7450   32.1280   43.0440 C   0  0  0  0  0  0  0  0  0  0  0  0
   57.0710   31.1950   42.2540 C   0  0  0  0  0  0  0  0  0  0  0  0
   56.3510   30.1620   42.8580 C   0  0  0  0  0  0  0  0  0  0  0  0
   56.3170   30.0800   44.2520 C   0  0  0  0  0  0  0  0  0  0  0  0
   56.9790   30.9980   45.0050 N   0  0  0  0  0  0  0  0  0  0  0  0
   59.0140   32.6710   46.4120 O   0  0  0  0  0  0  0  0  0  0  0  0
   59.6890   33.3790   49.3930 C   0  0  0  0  0  0  0  0  0  0  0  0
   59.5750   32.7580   54.5040 H   0  0  0  0  0  0  0  0  0  0  0  0
   58.6080   34.2410   54.8110 H   0  0  0  0  0  0  0  0  0  0  0  0
   57.7580   35.4170   52.8510 H   0  0  0  0  0  0  0  0  0  0  0  0
   58.7170   35.3520   51.3450 H   0  0  0  0  0  0  0  0  0  0  0  0
   59.8070   31.9850   52.1190 H   0  0  0  0  0  0  0  0  0  0  0  0
   62.2970   33.8266   51.5600 H   0  0  0  0  0  0  0  0  0  0  0  0
   63.4120   34.5193   49.4433 H   0  0  0  0  0  0  0  0  0  0  0  0
   62.1546   34.4863   47.2921 H   0  0  0  0  0  0  0  0  0  0  0  0
   59.5169   35.8965   46.2886 H   0  0  0  0  0  0  0  0  0  0  0  0
   58.0733   34.9090   44.2255 H   0  0  0  0  0  0  0  0  0  0  0  0
   58.3155   32.9434   42.5752 H   0  0  0  0  0  0  0  0  0  0  0  0
   57.1070   31.2734   41.1574 H   0  0  0  0  0  0  0  0  0  0  0  0
   55.8172   29.4220   42.2435 H   0  0  0  0  0  0  0  0  0  0  0  0
   55.7538   29.2715   44.7411 H   0  0  0  0  0  0  0  0  0  0  0  0
   58.6325   33.0728   49.3841 H   0  0  0  0  0  0  0  0  0  0  0  0
  1  2  1  0
  2  3  2  0
  2  4  1  0
  4  5  1  0
  5  6  2  0
  6  7  1  0
  7  8  2  0
  8  9  1  0
  9 10  1  0
 10 11  2  0
 11 12  1  0
 12 13  2  0
 13 14  1  0
 14 15  2  0
 15 16  1  0
 16 17  2  0
 17 18  1  0
 18 19  2  0
 13 20  1  0
  9 21  2  0
 21  5  1  0
 20 10  1  0
 19 14  1  0
  1 22  1  0
  1 23  1  0
  3 24  1  0
  3 25  1  0
  4 26  1  0
  6 27  1  0
  7 28  1  0
  8 29  1  0
 11 30  1  0
 12 31  1  0
 15 32  1  0
 16 33  1  0
 17 34  1  0
 18 35  1  0
 21 36  1  0
M  CHG  1   3   1
M  END
>  <UniqueID>  (24) 
21

>  <SMILES>  (24) 
NC(=[NH2+])Nc1cccc(-c2ccc(-c3ccccn3)o2)c1

>  <Energy>  (24) 
68.4339107901056

>  <Genealogy>  (24) 
NC(=[NH2+])Nc1cccc(-c2ccc(-c3ccccn3)o2)c1 (protonated)
NC(=[NH2+])Nc1cccc(-c2ccc(-c3ccccn3)o2)c1 (3D coordinates assigned)
NC(=[NH2+])Nc1cccc(-c2ccc(-c3ccccn3)o2)c1 (optimized conformer: 68.4339107901056 kcal/mol)

>  <smiles>  (24) 
N=C(N)Nc1cccc(-c2ccc(-c3ccccn3)o2)c1

>  <score_type>  (24) 
oracle

>  <origin>  (24) 
adg

>  <m_score__min__energy>  (24) 
-6.4500000000000002

>  <m_primary>  (24) 
energy

$$$$
24:0
     RDKit          3D

 41 45  0  0  0  0  0  0  0  0999 V2000
   55.1380   27.5400   45.4240 H   0  0  0  0  0  0  0  0  0  0  0  0
   54.9590   26.7180   45.9870 O   0  0  0  0  0  0  0  0  0  0  0  0
   55.9990   25.8730   46.3600 C   0  0  0  0  0  0  0  0  0  0  0  0
   55.8330   24.7650   47.1010 N   0  0  0  0  0  0  0  0  0  0  0  0
   57.0800   24.2520   47.1490 C   0  0  0  0  0  0  0  0  0  0  0  0
   57.3510   23.1850   47.7590 O   0  0  0  0  0  0  0  0  0  0  0  0
   58.0140   24.9660   46.4830 N   0  0  0  0  0  0  0  0  0  0  0  0
   57.3210   26.0130   46.0040 C   0  0  0  0  0  0  0  0  0  0  0  0
   57.9040   27.0370   45.1220 C   0  0  0  0  0  0  0  0  0  0  0  0
   58.6149   26.7067   44.3503 H   0  0  0  0  0  0  0  0  0  0  0  0
   57.6250   28.3460   45.1980 C   0  0  0  0  0  0  0  0  0  0  0  0
   56.5280   28.9850   44.6210 C   0  0  0  0  0  0  0  0  0  0  0  0
   55.7346   28.4818   44.0488 H   0  0  0  0  0  0  0  0  0  0  0  0
   56.5820   30.3160   44.8680 N   0  0  0  0  0  0  0  0  0  0  0  0
   57.6790   30.5280   45.5760 N   0  0  0  0  0  0  0  0  0  0  0  0
   58.1680   31.7140   46.0130 C   0  0  0  0  0  0  0  0  0  0  0  0
   57.5130   32.8170   45.7640 N   0  0  0  0  0  0  0  0  0  0  0  0
   57.9310   34.2270   45.6400 C   0  0  0  0  0  0  0  0  0  0  0  0
   56.9707   34.5433   45.2067 H   0  0  0  0  0  0  0  0  0  0  0  0
   59.3850   34.5220   45.3070 C   0  0  0  0  0  0  0  0  0  0  0  0
   60.0807   33.6960   45.0982 H   0  0  0  0  0  0  0  0  0  0  0  0
   59.9034   35.1451   44.5634 H   0  0  0  0  0  0  0  0  0  0  0  0
   58.8600   34.7400   46.7250 C   0  0  0  0  0  0  0  0  0  0  0  0
   59.1782   34.0714   47.5384 H   0  0  0  0  0  0  0  0  0  0  0  0
   58.8438   35.5863   47.4275 H   0  0  0  0  0  0  0  0  0  0  0  0
   59.3550   31.7000   46.6830 N   0  0  0  0  0  0  0  0  0  0  0  0
   60.0380   30.5280   46.8850 C   0  0  0  0  0  0  0  0  0  0  0  0
   61.2000   30.5190   47.4670 N   0  0  0  0  0  0  0  0  0  0  0  0
   61.9410   31.6800   47.8780 C   0  0  0  0  0  0  0  0  0  0  0  0
   63.1250   32.0560   47.2220 C   0  0  0  0  0  0  0  0  0  0  0  0
   63.5050   31.4496   46.3866 H   0  0  0  0  0  0  0  0  0  0  0  0
   63.8220   33.1980   47.6270 C   0  0  0  0  0  0  0  0  0  0  0  0
   64.7592   33.4776   47.1236 H   0  0  0  0  0  0  0  0  0  0  0  0
   63.3280   33.9850   48.6720 C   0  0  0  0  0  0  0  0  0  0  0  0
   63.8818   34.8780   48.9972 H   0  0  0  0  0  0  0  0  0  0  0  0
   62.1310   33.6370   49.3030 C   0  0  0  0  0  0  0  0  0  0  0  0
   61.7373   34.2632   50.1172 H   0  0  0  0  0  0  0  0  0  0  0  0
   61.4320   32.4930   48.9010 C   0  0  0  0  0  0  0  0  0  0  0  0
   60.2700   32.1650   49.5210 F   0  0  0  0  0  0  0  0  0  0  0  0
   59.5250   29.3550   46.4170 N   0  0  0  0  0  0  0  0  0  0  0  0
   58.3270   29.3800   45.7870 C   0  0  0  0  0  0  0  0  0  0  0  0
  1  2  1  0
  2  3  1  0
  3  4  1  0
  4  5  1  0
  5  6  2  0
  5  7  1  0
  7  8  1  0
  8  9  1  0
  9 10  1  0
  9 11  2  0
 11 12  1  0
 12 13  1  0
 12 14  2  0
 14 15  1  0
 15 16  1  0
 16 17  2  3
 17 18  1  0
 18 19  1  0
 18 20  1  0
 20 21  1  0
 20 22  1  0
 20 23  1  0
 23 24  1  0
 23 25  1  0
 16 26  1  0
 26 27  1  0
 27 28  2  0
 28 29  1  0
 29 30  2  0
 30 31  1  0
 30 32  1  0
 32 33  1  0
 32 34  2  0
 34 35  1  0
 34 36  1  0
 36 37  1  0
 36 38  2  0
 38 39  1  0
 27 40  1  0
 40 41  2  0
  8  3  2  0
 41 11  1  0
 41 15  1  0
 23 18  1  0
 38 29  1  0
M  CHG  3   4  -1   7  -1  26  -1
M  END
>  <UniqueID>  (25) 
22

>  <SMILES>  (25) 
O=c1[n-]c(O)c(/C=c2/cnn3c(=NC4CC4)[n-]/c(=N\c4ccccc4F)nc23)[n-]1

>  <Energy>  (25) 
400.9307891783931

>  <Genealogy>  (25) 
O=c1[n-]c(O)c(C=c2cnn3c(=NC4CC4)[n-]c(=Nc4ccccc4F)nc23)[n-]1 (protonated)
O=c1[n-]c(O)c(/C=c2/cnn3c(=NC4CC4)[n-]/c(=N\c4ccccc4F)nc23)[n-]1 (cis-trans isomerization)
O=c1[n-]c(O)c(/C=c2/cnn3c(=NC4CC4)[n-]/c(=N\c4ccccc4F)nc23)[n-]1 (3D coordinates assigned)
O=c1[n-]c(O)c(/C=c2/cnn3c(=NC4CC4)[n-]/c(=N\c4ccccc4F)nc23)[n-]1 (nonaromatic ring conformer: 400.9307891783931 kcal/mol)

>  <smiles>  (25) 
O=c1[nH]c(O)c(C=c2cnn3c(=NC4CC4)[nH]c(=Nc4ccccc4F)nc23)[nH]1

>  <score_type>  (25) 
oracle

>  <origin>  (25) 
adg

>  <m_score__min__energy>  (25) 
-14.82

>  <m_primary>  (25) 
energy

$$$$
25:0
     RDKit          3D

 75 81  0  0  0  0  0  0  0  0999 V2000
   50.3470   23.9400   44.8200 C   0  0  0  0  0  0  0  0  0  0  0  0
   51.4730   23.3170   46.0490 S   0  0  0  0  0  0  0  0  0  0  0  0
   50.9080   21.9010   46.7560 O   0  0  0  0  0  0  0  0  0  0  0  0
   53.0870   23.0970   45.3980 C   0  0  0  0  0  0  0  0  0  0  0  0
   53.9970   22.2490   46.0410 C   0  0  0  0  0  0  0  0  0  0  0  0
   55.2760   22.0600   45.5090 C   0  0  0  0  0  0  0  0  0  0  0  0
   55.6510   22.7090   44.3200 C   0  0  0  0  0  0  0  0  0  0  0  0
   57.0340   22.5250   43.7580 C   0  0  0  0  0  0  0  0  0  0  0  0
   58.0020   23.2830   44.5480 N   0  0  0  0  0  0  0  0  0  0  0  0
   57.8010   24.4970   45.0950 C   0  0  0  0  0  0  0  0  0  0  0  0
   58.9470   24.9000   45.7570 C   0  0  0  0  0  0  0  0  0  0  0  0
   59.1060   26.1360   46.5500 C   0  0  0  0  0  0  0  0  0  0  0  0
   60.4000   26.5280   46.9230 C   0  0  0  0  0  0  0  0  0  0  0  0
   60.5890   27.5870   47.8100 C   0  0  0  0  0  0  0  0  0  0  0  0
   59.4770   28.2640   48.3160 C   0  0  0  0  0  0  0  0  0  0  0  0
   59.6360   29.2790   49.3210 N   0  0  0  0  0  0  0  0  0  0  0  0
   58.5180   30.1810   49.5730 C   0  0  0  0  0  0  0  0  0  0  0  0
   58.5420   31.2980   48.5230 C   0  0  0  0  0  0  0  0  0  0  0  0
   59.9430   31.8100   48.1860 C   0  0  0  0  0  0  0  0  0  0  0  0
   61.0850   31.1270   48.6980 C   0  0  0  0  0  0  0  0  0  0  0  0
   62.3710   31.6180   48.4550 C   0  0  0  0  0  0  0  0  0  0  0  0
   62.5560   32.7430   47.6660 C   0  0  0  0  0  0  0  0  0  0  0  0
   61.4620   33.3790   47.0860 C   0  0  0  0  0  0  0  0  0  0  0  0
   60.1440   32.9240   47.3080 C   0  0  0  0  0  0  0  0  0  0  0  0
   59.0480   33.6080   46.5450 C   0  0  0  0  0  0  0  0  0  0  0  0
   59.0890   34.8620   46.4000 O   0  0  0  0  0  0  0  0  0  0  0  0
   57.9530   32.8750   45.9770 N   0  0  0  0  0  0  0  0  0  0  0  0
   58.0150   31.6920   45.4380 C   0  0  0  0  0  0  0  0  0  0  0  0
   57.0070   31.1350   44.7150 N   0  0  0  0  0  0  0  0  0  0  0  0
   57.5410   29.9630   44.3300 C   0  0  0  0  0  0  0  0  0  0  0  0
   56.9580   28.9820   43.5310 C   0  0  0  0  0  0  0  0  0  0  0  0
   57.7260   27.8410   43.2310 C   0  0  0  0  0  0  0  0  0  0  0  0
   59.0420   27.7110   43.7320 C   0  0  0  0  0  0  0  0  0  0  0  0
   59.6040   28.7230   44.5340 C   0  0  0  0  0  0  0  0  0  0  0  0
   58.8140   29.8370   44.8080 C   0  0  0  0  0  0  0  0  0  0  0  0
   59.1310   30.9280   45.5130 N   0  0  0  0  0  0  0  0  0  0  0  0
   60.9490   29.8800   49.5380 C   0  0  0  0  0  0  0  0  0  0  0  0
   58.2310   27.9060   47.9060 N   0  0  0  0  0  0  0  0  0  0  0  0
   58.0020   26.8840   47.0360 C   0  0  0  0  0  0  0  0  0  0  0  0
   56.6020   26.6390   46.6280 C   0  0  0  0  0  0  0  0  0  0  0  0
   55.9620   25.6380   47.0460 O   0  0  0  0  0  0  0  0  0  0  0  0
   55.9950   27.4930   45.7150 O   0  0  0  0  0  0  0  0  0  0  0  0
   59.8740   23.8790   45.6300 C   0  0  0  0  0  0  0  0  0  0  0  0
   59.2580   22.9100   44.8650 C   0  0  0  0  0  0  0  0  0  0  0  0
   59.8240   21.7360   44.4880 F   0  0  0  0  0  0  0  0  0  0  0  0
   54.7430   23.5750   43.6930 C   0  0  0  0  0  0  0  0  0  0  0  0
   53.4640   23.7630   44.2270 C   0  0  0  0  0  0  0  0  0  0  0  0
   49.4882   24.4151   45.3168 H   0  0  0  0  0  0  0  0  0  0  0  0
   50.8632   24.6809   44.1918 H   0  0  0  0  0  0  0  0  0  0  0  0
   49.9935   23.1091   44.1918 H   0  0  0  0  0  0  0  0  0  0  0  0
   50.8260   22.1120   47.7190 H   0  0  0  0  0  0  0  0  0  0  0  0
   53.7051   21.7307   46.9663 H   0  0  0  0  0  0  0  0  0  0  0  0
   55.9914   21.4010   46.0228 H   0  0  0  0  0  0  0  0  0  0  0  0
   57.2986   21.4576   43.7849 H   0  0  0  0  0  0  0  0  0  0  0  0
   57.0523   22.8891   42.7202 H   0  0  0  0  0  0  0  0  0  0  0  0
   56.8697   25.0783   45.0261 H   0  0  0  0  0  0  0  0  0  0  0  0
   61.2714   25.9965   46.5131 H   0  0  0  0  0  0  0  0  0  0  0  0
   61.6045   27.8866   48.1085 H   0  0  0  0  0  0  0  0  0  0  0  0
   57.5710   29.6259   49.5015 H   0  0  0  0  0  0  0  0  0  0  0  0
   58.6040   30.6122   50.5813 H   0  0  0  0  0  0  0  0  0  0  0  0
   58.0836   30.9138   47.5998 H   0  0  0  0  0  0  0  0  0  0  0  0
   57.9892   32.1471   48.9513 H   0  0  0  0  0  0  0  0  0  0  0  0
   63.2421   31.1084   48.8927 H   0  0  0  0  0  0  0  0  0  0  0  0
   63.5703   33.1341   47.4979 H   0  0  0  0  0  0  0  0  0  0  0  0
   61.6279   34.2546   46.4411 H   0  0  0  0  0  0  0  0  0  0  0  0
   55.9331   29.0950   43.1478 H   0  0  0  0  0  0  0  0  0  0  0  0
   57.2996   27.0452   42.6026 H   0  0  0  0  0  0  0  0  0  0  0  0
   59.6309   26.8130   43.4936 H   0  0  0  0  0  0  0  0  0  0  0  0
   60.6271   28.6371   44.9287 H   0  0  0  0  0  0  0  0  0  0  0  0
   60.0330   31.1480   45.9890 H   0  0  0  0  0  0  0  0  0  0  0  0
   61.7314   29.1609   49.2537 H   0  0  0  0  0  0  0  0  0  0  0  0
   61.0569   30.1438   50.6004 H   0  0  0  0  0  0  0  0  0  0  0  0
   60.8897   23.8472   46.0512 H   0  0  0  0  0  0  0  0  0  0  0  0
   55.0381   24.1085   42.7774 H   0  0  0  0  0  0  0  0  0  0  0  0
   52.7531   24.4359   43.7252 H   0  0  0  0  0  0  0  0  0  0  0  0
  1  2  1  0
  2  3  1  6
  2  4  1  0
  4  5  2  0
  5  6  1  0
  6  7  2  0
  7  8  1  0
  8  9  1  0
  9 10  1  0
 10 11  2  0
 11 12  1  0
 12 13  2  0
 13 14  1  0
 14 15  2  0
 15 16  1  0
 16 17  1  0
 17 18  1  0
 18 19  1  0
 19 20  2  0
 20 21  1  0
 21 22  2  0
 22 23  1  0
 23 24  2  0
 24 25  1  0
 25 26  2  0
 25 27  1  0
 27 28  2  3
 28 29  1  0
 29 30  1  0
 30 31  2  0
 31 32  1  0
 32 33  2  0
 33 34  1  0
 34 35  2  0
 35 36  1  0
 20 37  1  0
 15 38  1  0
 38 39  2  0
 39 40  1  0
 40 41  2  0
 40 42  1  0
 11 43  1  0
 43 44  2  0
 44 45  1  0
  7 46  1  0
 46 47  2  0
 47  4  1  0
 44  9  1  0
 39 12  1  0
 37 16  1  0
 24 19  1  0
 36 28  1  0
 35 30  1  0
  1 48  1  0
  1 49  1  0
  1 50  1  0
  3 51  1  0
  5 52  1  0
  6 53  1  0
  8 54  1  0
  8 55  1  0
 10 56  1  0
 13 57  1  0
 14 58  1  0
 17 59  1  0
 17 60  1  0
 18 61  1  0
 18 62  1  0
 21 63  1  0
 22 64  1  0
 23 65  1  0
 31 66  1  0
 32 67  1  0
 33 68  1  0
 34 69  1  0
 36 70  1  0
 37 71  1  0
 37 72  1  0
 43 73  1  0
 46 74  1  0
 47 75  1  0
M  CHG  3   2   1  29  -1  42  -1
M  END
>  <UniqueID>  (26) 
23

>  <SMILES>  (26) 
C[S@@+](O)c1ccc(Cn2cc(-c3ccc(N4CCc5c(cccc5C(=O)N=c5[n-]c6ccccc6[nH]5)C4)nc3C(=O)[O-])cc2F)cc1

>  <Energy>  (26) 
169.03082869766456

>  <Genealogy>  (26) 
C[S+](O)c1ccc(Cn2cc(-c3ccc(N4CCc5c(cccc5C(=O)N=c5[n-]c6ccccc6[nH]5)C4)nc3C(=O)[O-])cc2F)cc1 (protonated)
C[S@@+](O)c1ccc(Cn2cc(-c3ccc(N4CCc5c(cccc5C(=O)N=c5[n-]c6ccccc6[nH]5)C4)nc3C(=O)[O-])cc2F)cc1 (chirality)
C[S@@+](O)c1ccc(Cn2cc(-c3ccc(N4CCc5c(cccc5C(=O)N=c5[n-]c6ccccc6[nH]5)C4)nc3C(=O)[O-])cc2F)cc1 (3D coordinates assigned)
C[S@@+](O)c1ccc(Cn2cc(-c3ccc(N4CCc5c(cccc5C(=O)N=c5[n-]c6ccccc6[nH]5)C4)nc3C(=O)[O-])cc2F)cc1 (nonaromatic ring conformer: 169.03082869766456 kcal/mol)

>  <smiles>  (26) 
C[S+]([O-])c1ccc(Cn2cc(-c3ccc(N4CCc5c(cccc5C(=O)N=c5[nH]c6ccccc6[nH]5)C4)nc3C(=O)O)cc2F)cc1

>  <score_type>  (26) 
oracle

>  <origin>  (26) 
adg

>  <m_score__min__energy>  (26) 
-12.890000000000001

>  <m_primary>  (26) 
energy

$$$$
26:0
     RDKit          3D

 34 36  0  0  0  0  0  0  0  0999 V2000
   62.9580   31.6810   47.5210 C   0  0  0  0  0  0  0  0  0  0  0  0
   62.3590   33.3550   47.4180 S   0  0  0  0  0  0  0  0  0  0  0  0
   63.0970   34.2370   48.3850 O   0  0  0  0  0  0  0  0  0  0  0  0
   62.5980   33.8600   46.0230 O   0  0  0  0  0  0  0  0  0  0  0  0
   60.6550   33.4040   47.7480 N   0  0  0  0  0  0  0  0  0  0  0  0
   59.6300   33.2720   46.7450 C   0  0  0  0  0  0  0  0  0  0  0  0
   58.7680   34.3390   46.4280 C   0  0  0  0  0  0  0  0  0  0  0  0
   57.7990   34.1940   45.4330 C   0  0  0  0  0  0  0  0  0  0  0  0
   57.6720   32.9870   44.7470 C   0  0  0  0  0  0  0  0  0  0  0  0
   58.5040   31.9050   45.0590 C   0  0  0  0  0  0  0  0  0  0  0  0
   58.3620   30.6780   44.3270 N   0  0  0  0  0  0  0  0  0  0  0  0
   58.1220   29.3970   44.9360 C   0  0  0  0  0  0  0  0  0  0  0  0
   59.2210   28.6450   45.4240 C   0  0  0  0  0  0  0  0  0  0  0  0
   59.0250   27.3780   46.0070 C   0  0  0  0  0  0  0  0  0  0  0  0
   57.7240   26.8910   46.0730 C   0  0  0  0  0  0  0  0  0  0  0  0
   57.3130   25.7170   46.5760 N   0  0  0  0  0  0  0  0  0  0  0  0
   55.9730   25.7730   46.3660 C   0  0  0  0  0  0  0  0  0  0  0  0
   55.1990   24.8420   46.7040 O   0  0  0  0  0  0  0  0  0  0  0  0
   55.5280   26.9060   45.7650 N   0  0  0  0  0  0  0  0  0  0  0  0
   56.6650   27.5970   45.5930 C   0  0  0  0  0  0  0  0  0  0  0  0
   56.8160   28.8520   45.0090 C   0  0  0  0  0  0  0  0  0  0  0  0
   59.5030   32.0600   46.0400 C   0  0  0  0  0  0  0  0  0  0  0  0
   60.3650   31.0420   46.2910 F   0  0  0  0  0  0  0  0  0  0  0  0
   63.0611   31.3928   48.5776 H   0  0  0  0  0  0  0  0  0  0  0  0
   62.2458   31.0055   47.0245 H   0  0  0  0  0  0  0  0  0  0  0  0
   63.9371   31.6107   47.0245 H   0  0  0  0  0  0  0  0  0  0  0  0
   60.3820   33.6400   48.7290 H   0  0  0  0  0  0  0  0  0  0  0  0
   58.8584   35.2932   46.9677 H   0  0  0  0  0  0  0  0  0  0  0  0
   57.1334   35.0353   45.1896 H   0  0  0  0  0  0  0  0  0  0  0  0
   56.9141   32.8842   43.9564 H   0  0  0  0  0  0  0  0  0  0  0  0
   58.3700   30.7300   43.2830 H   0  0  0  0  0  0  0  0  0  0  0  0
   60.2383   29.0561   45.3462 H   0  0  0  0  0  0  0  0  0  0  0  0
   59.8717   26.7938   46.3967 H   0  0  0  0  0  0  0  0  0  0  0  0
   55.9486   29.4031   44.6166 H   0  0  0  0  0  0  0  0  0  0  0  0
  1  2  1  0
  2  3  2  0
  2  4  2  0
  2  5  1  0
  5  6  1  0
  6  7  2  0
  7  8  1  0
  8  9  2  0
  9 10  1  0
 10 11  1  0
 11 12  1  0
 12 13  2  0
 13 14  1  0
 14 15  2  0
 15 16  1  0
 16 17  1  0
 17 18  2  0
 17 19  1  0
 19 20  1  0
 20 21  2  0
 10 22  2  0
 22 23  1  0
 22  6  1  0
 21 12  1  0
 20 15  1  0
  1 24  1  0
  1 25  1  0
  1 26  1  0
  5 27  1  0
  7 28  1  0
  8 29  1  0
  9 30  1  0
 11 31  1  0
 13 32  1  0
 14 33  1  0
 21 34  1  0
M  CHG  2  16  -1  19  -1
M  END
>  <UniqueID>  (27) 
24

>  <SMILES>  (27) 
CS(=O)(=O)Nc1cccc(Nc2ccc3[n-]c(=O)[n-]c3c2)c1F

>  <Energy>  (27) 
77.38293943534286

>  <Genealogy>  (27) 
CS(=O)(=O)Nc1cccc(Nc2ccc3[n-]c(=O)[n-]c3c2)c1F (protonated)
CS(=O)(=O)Nc1cccc(Nc2ccc3[n-]c(=O)[n-]c3c2)c1F (3D coordinates assigned)
CS(=O)(=O)Nc1cccc(Nc2ccc3[n-]c(=O)[n-]c3c2)c1F (optimized conformer: 77.38293943534286 kcal/mol)

>  <smiles>  (27) 
CS(=O)(=O)Nc1cccc(Nc2ccc3[nH]c(=O)[nH]c3c2)c1F

>  <score_type>  (27) 
oracle

>  <origin>  (27) 
adg

>  <m_score__min__energy>  (27) 
-11.140000000000001

>  <m_primary>  (27) 
energy

$$$$
27:0
     RDKit          3D

 39 41  0  0  0  0  0  0  0  0999 V2000
   57.2920   25.6260   44.5840 C   0  0  0  0  0  0  0  0  0  0  0  0
   56.2920   26.4620   45.7940 S   0  0  0  0  0  0  0  0  0  0  0  0
   54.9850   25.7350   45.9440 O   0  0  0  0  0  0  0  0  0  0  0  0
   57.0160   26.4730   47.1110 O   0  0  0  0  0  0  0  0  0  0  0  0
   56.0070   28.0890   45.2610 N   0  0  0  0  0  0  0  0  0  0  0  0
   57.2820   28.7780   45.0710 C   0  0  0  0  0  0  0  0  0  0  0  0
   57.7860   29.3170   46.4110 C   0  0  0  0  0  0  0  0  0  0  0  0
   58.4120   30.6400   46.2400 N   0  0  0  0  0  0  0  0  0  0  0  0
   59.6260   30.8830   46.8360 C   0  0  0  0  0  0  0  0  0  0  0  0
   60.2400   32.1450   46.7230 C   0  0  0  0  0  0  0  0  0  0  0  0
   61.5540   32.3960   47.3550 C   0  0  0  0  0  0  0  0  0  0  0  0
   62.5100   33.1970   46.7060 C   0  0  0  0  0  0  0  0  0  0  0  0
   63.7450   33.4490   47.3090 C   0  0  0  0  0  0  0  0  0  0  0  0
   64.0340   32.9130   48.5670 C   0  0  0  0  0  0  0  0  0  0  0  0
   63.0850   32.1250   49.2250 C   0  0  0  0  0  0  0  0  0  0  0  0
   61.8470   31.8710   48.6250 C   0  0  0  0  0  0  0  0  0  0  0  0
   59.5770   33.1060   46.0180 N   0  0  0  0  0  0  0  0  0  0  0  0
   59.8910   34.4000   45.8000 C   0  0  0  0  0  0  0  0  0  0  0  0
   58.8870   34.9940   45.0540 C   0  0  0  0  0  0  0  0  0  0  0  0
   57.9220   34.0260   44.8210 C   0  0  0  0  0  0  0  0  0  0  0  0
   58.3880   32.8820   45.4380 C   0  0  0  0  0  0  0  0  0  0  0  0
   57.7710   31.6350   45.5400 C   0  0  0  0  0  0  0  0  0  0  0  0
   56.6460   31.4360   45.0050 O   0  0  0  0  0  0  0  0  0  0  0  0
   58.0395   25.0011   45.0946 H   0  0  0  0  0  0  0  0  0  0  0  0
   56.6514   24.9909   43.9545 H   0  0  0  0  0  0  0  0  0  0  0  0
   57.8036   26.3690   43.9545 H   0  0  0  0  0  0  0  0  0  0  0  0
   58.0200   28.0732   44.6603 H   0  0  0  0  0  0  0  0  0  0  0  0
   57.1407   29.6163   44.3730 H   0  0  0  0  0  0  0  0  0  0  0  0
   56.9380   29.4063   47.1059 H   0  0  0  0  0  0  0  0  0  0  0  0
   58.5371   28.6203   46.8116 H   0  0  0  0  0  0  0  0  0  0  0  0
   60.1226   30.0844   47.4066 H   0  0  0  0  0  0  0  0  0  0  0  0
   62.2847   33.6273   45.7190 H   0  0  0  0  0  0  0  0  0  0  0  0
   64.4913   34.0705   46.7926 H   0  0  0  0  0  0  0  0  0  0  0  0
   65.0076   33.1110   49.0391 H   0  0  0  0  0  0  0  0  0  0  0  0
   63.3120   31.7042   50.2157 H   0  0  0  0  0  0  0  0  0  0  0  0
   61.0997   31.2576   49.1497 H   0  0  0  0  0  0  0  0  0  0  0  0
   60.8009   34.9036   46.1583 H   0  0  0  0  0  0  0  0  0  0  0  0
   58.8600   36.0386   44.7104 H   0  0  0  0  0  0  0  0  0  0  0  0
   56.9822   34.1446   44.2618 H   0  0  0  0  0  0  0  0  0  0  0  0
  1  2  1  0
  2  3  2  0
  2  4  2  0
  2  5  1  0
  5  6  1  0
  6  7  1  0
  7  8  1  0
  8  9  1  0
  9 10  2  0
 10 11  1  0
 11 12  2  0
 12 13  1  0
 13 14  2  0
 14 15  1  0
 15 16  2  0
 10 17  1  0
 17 18  1  0
 18 19  2  0
 19 20  1  0
 20 21  2  0
 21 22  1  0
 22 23  2  0
 22  8  1  0
 16 11  1  0
 21 17  1  0
  1 24  1  0
  1 25  1  0
  1 26  1  0
  6 27  1  0
  6 28  1  0
  7 29  1  0
  7 30  1  0
  9 31  1  0
 12 32  1  0
 13 33  1  0
 14 34  1  0
 15 35  1  0
 16 36  1  0
 18 37  1  0
 19 38  1  0
 20 39  1  0
M  CHG  1   5  -1
M  END
>  <UniqueID>  (28) 
25

>  <SMILES>  (28) 
CS(=O)(=O)[N-]CCn1cc(-c2ccccc2)n2cccc2c1=O

>  <Energy>  (28) 
72.6717623416958

>  <Genealogy>  (28) 
CS(=O)(=O)[N-]CCn1cc(-c2ccccc2)n2cccc2c1=O (protonated)
CS(=O)(=O)[N-]CCn1cc(-c2ccccc2)n2cccc2c1=O (3D coordinates assigned)
CS(=O)(=O)[N-]CCn1cc(-c2ccccc2)n2cccc2c1=O (optimized conformer: 72.6717623416958 kcal/mol)

>  <smiles>  (28) 
CS(=O)(=O)NCCn1cc(-c2ccccc2)n2cccc2c1=O

>  <score_type>  (28) 
oracle

>  <origin>  (28) 
adg

>  <m_score__min__energy>  (28) 
-10.33

>  <m_primary>  (28) 
energy

$$$$
28:0
     RDKit          3D

 30 31  0  0  0  0  0  0  0  0999 V2000
   58.8130   34.1390   46.7460 C   0  0  0  0  0  0  0  0  0  0  0  0
   57.8440   33.2230   46.7360 C   0  0  0  0  0  0  0  0  0  0  0  0
   58.2280   31.4790   46.5600 S   0  0  0  0  0  0  0  0  0  0  0  0
   57.8110   31.4700   44.8120 C   0  0  0  0  0  0  0  0  0  0  0  0
   58.3480   32.4470   44.0330 N   0  0  0  0  0  0  0  0  0  0  0  0
   58.1380   32.5050   42.6930 C   0  0  0  0  0  0  0  0  0  0  0  0
   57.3560   31.5390   42.0690 C   0  0  0  0  0  0  0  0  0  0  0  0
   56.7850   30.5230   42.8340 C   0  0  0  0  0  0  0  0  0  0  0  0
   56.9910   30.4740   44.2240 C   0  0  0  0  0  0  0  0  0  0  0  0
   56.3410   29.3930   45.0060 C   0  0  0  0  0  0  0  0  0  0  0  0
   55.1430   29.0750   44.7860 O   0  0  0  0  0  0  0  0  0  0  0  0
   57.0800   28.7210   46.0350 N   0  0  0  0  0  0  0  0  0  0  0  0
   57.4690   27.3420   46.0130 C   0  0  0  0  0  0  0  0  0  0  0  0
   58.8320   27.0320   45.9240 C   0  0  0  0  0  0  0  0  0  0  0  0
   59.2550   25.7010   45.8950 C   0  0  0  0  0  0  0  0  0  0  0  0
   58.3170   24.6670   45.9340 C   0  0  0  0  0  0  0  0  0  0  0  0
   56.9540   24.9640   45.9870 C   0  0  0  0  0  0  0  0  0  0  0  0
   56.5180   26.2980   46.0100 C   0  0  0  0  0  0  0  0  0  0  0  0
   55.1540   26.5820   45.9980 O   0  0  0  0  0  0  0  0  0  0  0  0
   58.5616   35.2044   46.8547 H   0  0  0  0  0  0  0  0  0  0  0  0
   59.8637   33.8293   46.6456 H   0  0  0  0  0  0  0  0  0  0  0  0
   56.7957   33.5406   46.8369 H   0  0  0  0  0  0  0  0  0  0  0  0
   58.5865   33.3162   42.1007 H   0  0  0  0  0  0  0  0  0  0  0  0
   57.1896   31.5762   40.9823 H   0  0  0  0  0  0  0  0  0  0  0  0
   56.1684   29.7536   42.3463 H   0  0  0  0  0  0  0  0  0  0  0  0
   59.5745   27.8422   45.8766 H   0  0  0  0  0  0  0  0  0  0  0  0
   60.3285   25.4669   45.8414 H   0  0  0  0  0  0  0  0  0  0  0  0
   58.6520   23.6193   45.9230 H   0  0  0  0  0  0  0  0  0  0  0  0
   56.2172   24.1476   46.0109 H   0  0  0  0  0  0  0  0  0  0  0  0
   54.7920   27.4690   46.3280 H   0  0  0  0  0  0  0  0  0  0  0  0
  1  2  2  0
  2  3  1  0
  3  4  1  0
  4  5  2  0
  5  6  1  0
  6  7  2  0
  7  8  1  0
  8  9  2  0
  9 10  1  0
 10 11  2  0
 10 12  1  0
 12 13  1  0
 13 14  2  0
 14 15  1  0
 15 16  2  0
 16 17  1  0
 17 18  2  0
 18 19  1  0
  9  4  1  0
 18 13  1  0
  1 20  1  0
  1 21  1  0
  2 22  1  0
  6 23  1  0
  7 24  1  0
  8 25  1  0
 14 26  1  0
 15 27  1  0
 16 28  1  0
 17 29  1  0
 19 30  1  0
M  CHG  1  12  -1
M  END
>  <UniqueID>  (29) 
26

>  <SMILES>  (29) 
C=CSc1ncccc1C(=O)[N-]c1ccccc1O

>  <Energy>  (29) 
35.421397831322736

>  <Genealogy>  (29) 
C=CSc1ncccc1C(=O)[N-]c1ccccc1O (protonated)
C=CSc1ncccc1C(=O)[N-]c1ccccc1O (3D coordinates assigned)
C=CSc1ncccc1C(=O)[N-]c1ccccc1O (optimized conformer: 35.421397831322736 kcal/mol)

>  <smiles>  (29) 
C=CSc1ncccc1C(=O)Nc1ccccc1O

>  <score_type>  (29) 
oracle

>  <origin>  (29) 
adg

>  <m_score__min__energy>  (29) 
-10.09

>  <m_primary>  (29) 
energy

$$$$
29:0
     RDKit          3D

 43 45  0  0  0  0  0  0  0  0999 V2000
   60.6815   26.6179   46.7112 H   0  0  0  0  0  0  0  0  0  0  0  0
   59.7350   26.9150   46.2360 C   0  0  0  0  0  0  0  0  0  0  0  0
   58.6460   26.0390   46.2460 C   0  0  0  0  0  0  0  0  0  0  0  0
   58.7382   25.0558   46.7306 H   0  0  0  0  0  0  0  0  0  0  0  0
   57.4350   26.4090   45.6400 C   0  0  0  0  0  0  0  0  0  0  0  0
   56.2720   25.4880   45.6550 C   0  0  0  0  0  0  0  0  0  0  0  0
   55.2320   25.8040   46.2950 O   0  0  0  0  0  0  0  0  0  0  0  0
   56.2970   24.2570   44.9150 N   0  0  0  0  0  0  0  0  0  0  0  0
   55.1010   23.8120   44.1990 C   0  0  0  0  0  0  0  0  0  0  0  0
   54.4733   23.2085   44.8712 H   0  0  0  0  0  0  0  0  0  0  0  0
   54.5297   24.6870   43.8554 H   0  0  0  0  0  0  0  0  0  0  0  0
   55.5200   22.9660   42.9930 C   0  0  0  0  0  0  0  0  0  0  0  0
   54.6223   22.5350   42.5256 H   0  0  0  0  0  0  0  0  0  0  0  0
   56.0522   23.6108   42.2782 H   0  0  0  0  0  0  0  0  0  0  0  0
   56.3860   21.9170   43.3900 O   0  0  0  0  0  0  0  0  0  0  0  0
   57.5970   22.4560   43.8890 C   0  0  0  0  0  0  0  0  0  0  0  0
   58.2934   21.6341   44.1115 H   0  0  0  0  0  0  0  0  0  0  0  0
   58.0263   23.1248   43.1284 H   0  0  0  0  0  0  0  0  0  0  0  0
   57.3450   23.2620   45.1680 C   0  0  0  0  0  0  0  0  0  0  0  0
   57.0219   22.5842   45.9719 H   0  0  0  0  0  0  0  0  0  0  0  0
   58.2715   23.7714   45.4713 H   0  0  0  0  0  0  0  0  0  0  0  0
   57.3250   27.6810   45.0520 C   0  0  0  0  0  0  0  0  0  0  0  0
   56.3651   27.9966   44.6173 H   0  0  0  0  0  0  0  0  0  0  0  0
   58.4250   28.5550   45.0120 C   0  0  0  0  0  0  0  0  0  0  0  0
   58.3040   29.9230   44.3760 C   0  0  0  0  0  0  0  0  0  0  0  0
   58.3025   29.8044   43.2824 H   0  0  0  0  0  0  0  0  0  0  0  0
   59.1584   30.5261   44.7170 H   0  0  0  0  0  0  0  0  0  0  0  0
   57.0430   30.6430   44.7860 C   0  0  0  0  0  0  0  0  0  0  0  0
   55.9620   30.0010   44.8650 O   0  0  0  0  0  0  0  0  0  0  0  0
   56.9990   32.0740   44.8680 N   0  0  0  0  0  0  0  0  0  0  0  0
   57.7990   32.8570   45.5390 C   0  0  0  0  0  0  0  0  0  0  0  0
   58.4350   33.9060   44.8590 C   0  0  0  0  0  0  0  0  0  0  0  0
   58.2586   34.0533   43.7833 H   0  0  0  0  0  0  0  0  0  0  0  0
   59.2920   34.7620   45.5510 C   0  0  0  0  0  0  0  0  0  0  0  0
   59.7972   35.5836   45.0220 H   0  0  0  0  0  0  0  0  0  0  0  0
   59.5060   34.5720   46.9170 C   0  0  0  0  0  0  0  0  0  0  0  0
   60.1866   35.2357   47.4705 H   0  0  0  0  0  0  0  0  0  0  0  0
   58.8480   33.5320   47.5730 C   0  0  0  0  0  0  0  0  0  0  0  0
   59.0076   33.3766   48.6502 H   0  0  0  0  0  0  0  0  0  0  0  0
   58.0080   32.7070   46.8860 N   0  0  0  0  0  0  0  0  0  0  0  0
   57.5120   31.9760   47.4340 H   0  0  0  0  0  0  0  0  0  0  0  0
   59.6260   28.1660   45.6250 C   0  0  0  0  0  0  0  0  0  0  0  0
   60.4869   28.8508   45.6242 H   0  0  0  0  0  0  0  0  0  0  0  0
  1  2  1  0
  2  3  2  0
  3  4  1  0
  3  5  1  0
  5  6  1  0
  6  7  2  0
  6  8  1  0
  8  9  1  0
  9 10  1  0
  9 11  1  0
  9 12  1  0
 12 13  1  0
 12 14  1  0
 12 15  1  0
 15 16  1  0
 16 17  1  0
 16 18  1  0
 16 19  1  0
 19 20  1  0
 19 21  1  0
  5 22  2  0
 22 23  1  0
 22 24  1  0
 24 25  1  0
 25 26  1  0
 25 27  1  0
 25 28  1  0
 28 29  2  0
 28 30  1  0
 30 31  2  0
 31 32  1  0
 32 33  1  0
 32 34  2  0
 34 35  1  0
 34 36  1  0
 36 37  1  0
 36 38  2  0
 38 39  1  0
 38 40  1  0
 40 41  1  0
 24 42  2  0
 42 43  1  0
 42  2  1  0
 19  8  1  0
 40 31  1  0
M  END
>  <UniqueID>  (30) 
27

>  <SMILES>  (30) 
O=C(Cc1cccc(C(=O)N2CCOCC2)c1)/N=c1/cccc[nH]1

>  <Energy>  (30) 
58.78128456799855

>  <Genealogy>  (30) 
O=C(Cc1cccc(C(=O)N2CCOCC2)c1)/N=c1/cccc[nH]1 (cis-trans isomerization)
O=C(Cc1cccc(C(=O)N2CCOCC2)c1)/N=c1/cccc[nH]1 (3D coordinates assigned)
O=C(Cc1cccc(C(=O)N2CCOCC2)c1)/N=c1/cccc[nH]1 (nonaromatic ring conformer: 58.78128456799855 kcal/mol)

>  <smiles>  (30) 
O=C(Cc1cccc(C(=O)N2CCOCC2)c1)N=c1cccc[nH]1

>  <score_type>  (30) 
oracle

>  <origin>  (30) 
adg

>  <m_score__min__energy>  (30) 
-9.1300000000000008

>  <m_primary>  (30) 
energy

$$$$
30:0
     RDKit          3D

 40 42  0  0  0  0  0  0  0  0999 V2000
   52.0650   24.4190   44.8790 C   0  0  0  0  0  0  0  0  0  0  0  0
   53.4740   24.6430   45.3130 C   0  0  0  0  0  0  0  0  0  0  0  0
   54.4590   23.6820   45.4040 C   0  0  0  0  0  0  0  0  0  0  0  0
   55.5440   24.4020   45.8490 C   0  0  0  0  0  0  0  0  0  0  0  0
   56.7140   23.8990   46.0890 N   0  0  0  0  0  0  0  0  0  0  0  0
   58.1480   24.3980   45.2510 S   0  0  0  0  0  0  0  0  0  0  0  0
   59.3550   23.9160   46.0050 O   0  0  0  0  0  0  0  0  0  0  0  0
   58.1500   23.7880   43.8770 O   0  0  0  0  0  0  0  0  0  0  0  0
   58.1980   26.1560   45.1500 C   0  0  0  0  0  0  0  0  0  0  0  0
   58.3340   26.9160   46.3180 C   0  0  0  0  0  0  0  0  0  0  0  0
   58.3680   28.3120   46.2510 C   0  0  0  0  0  0  0  0  0  0  0  0
   58.2540   28.9650   45.0120 C   0  0  0  0  0  0  0  0  0  0  0  0
   58.3080   30.3980   44.9090 N   0  0  0  0  0  0  0  0  0  0  0  0
   57.1640   31.2330   44.6540 C   0  0  0  0  0  0  0  0  0  0  0  0
   56.0210   30.7240   44.5060 O   0  0  0  0  0  0  0  0  0  0  0  0
   57.2950   32.6580   44.5900 N   0  0  0  0  0  0  0  0  0  0  0  0
   58.1310   33.4580   45.4380 C   0  0  0  0  0  0  0  0  0  0  0  0
   58.8000   34.5580   44.8840 C   0  0  0  0  0  0  0  0  0  0  0  0
   59.6400   35.3470   45.6750 C   0  0  0  0  0  0  0  0  0  0  0  0
   59.8350   35.0280   47.0220 C   0  0  0  0  0  0  0  0  0  0  0  0
   59.1990   33.9130   47.5750 C   0  0  0  0  0  0  0  0  0  0  0  0
   58.3560   33.1210   46.7880 C   0  0  0  0  0  0  0  0  0  0  0  0
   57.7980   32.0100   47.3310 F   0  0  0  0  0  0  0  0  0  0  0  0
   58.1490   28.1980   43.8420 C   0  0  0  0  0  0  0  0  0  0  0  0
   58.1150   26.8020   43.9100 C   0  0  0  0  0  0  0  0  0  0  0  0
   55.2230   25.7010   46.0080 N   0  0  0  0  0  0  0  0  0  0  0  0
   53.9680   25.8070   45.6750 O   0  0  0  0  0  0  0  0  0  0  0  0
   51.4205   24.3165   45.7645 H   0  0  0  0  0  0  0  0  0  0  0  0
   51.7266   25.2746   44.2762 H   0  0  0  0  0  0  0  0  0  0  0  0
   52.0086   23.5006   44.2762 H   0  0  0  0  0  0  0  0  0  0  0  0
   54.3936   22.6076   45.1773 H   0  0  0  0  0  0  0  0  0  0  0  0
   58.4144   26.4125   47.2927 H   0  0  0  0  0  0  0  0  0  0  0  0
   58.4845   28.9018   47.1722 H   0  0  0  0  0  0  0  0  0  0  0  0
   59.2510   30.8450   44.9570 H   0  0  0  0  0  0  0  0  0  0  0  0
   58.6632   34.8019   43.8201 H   0  0  0  0  0  0  0  0  0  0  0  0
   60.1478   36.2192   45.2374 H   0  0  0  0  0  0  0  0  0  0  0  0
   60.4889   35.6544   47.6466 H   0  0  0  0  0  0  0  0  0  0  0  0
   59.3618   33.6574   48.6324 H   0  0  0  0  0  0  0  0  0  0  0  0
   58.0930   28.6986   42.8641 H   0  0  0  0  0  0  0  0  0  0  0  0
   58.0229   26.2097   42.9877 H   0  0  0  0  0  0  0  0  0  0  0  0
  1  2  1  0
  2  3  2  0
  3  4  1  0
  4  5  2  3
  5  6  1  0
  6  7  2  0
  6  8  2  0
  6  9  1  0
  9 10  2  0
 10 11  1  0
 11 12  2  0
 12 13  1  0
 13 14  1  0
 14 15  2  0
 14 16  1  0
 16 17  1  0
 17 18  2  0
 18 19  1  0
 19 20  2  0
 20 21  1  0
 21 22  2  0
 22 23  1  0
 12 24  1  0
 24 25  2  0
  4 26  1  0
 26 27  1  0
 27  2  1  0
 25  9  1  0
 22 17  1  0
  1 28  1  0
  1 29  1  0
  1 30  1  0
  3 31  1  0
 10 32  1  0
 11 33  1  0
 13 34  1  0
 18 35  1  0
 19 36  1  0
 20 37  1  0
 21 38  1  0
 24 39  1  0
 25 40  1  0
M  CHG  2  16  -1  26  -1
M  END
>  <UniqueID>  (31) 
28

>  <SMILES>  (31) 
Cc1cc(=NS(=O)(=O)c2ccc(NC(=O)[N-]c3ccccc3F)cc2)[n-]o1

>  <Energy>  (31) 
84.35925781974632

>  <Genealogy>  (31) 
Cc1cc(=NS(=O)(=O)c2ccc(NC(=O)[N-]c3ccccc3F)cc2)[n-]o1 (protonated)
Cc1cc(=NS(=O)(=O)c2ccc(NC(=O)[N-]c3ccccc3F)cc2)[n-]o1 (3D coordinates assigned)
Cc1cc(=NS(=O)(=O)c2ccc(NC(=O)[N-]c3ccccc3F)cc2)[n-]o1 (optimized conformer: 84.35925781974632 kcal/mol)

>  <smiles>  (31) 
Cc1cc(=NS(=O)(=O)c2ccc(NC(=O)Nc3ccccc3F)cc2)[nH]o1

>  <score_type>  (31) 
oracle

>  <origin>  (31) 
adg

>  <m_score__min__energy>  (31) 
-12.1

>  <m_primary>  (31) 
energy

$$$$
31:0
     RDKit          3D

 41 45  0  0  0  0  0  0  0  0999 V2000
   59.9660   29.2100   44.7340 C   0  0  0  0  0  0  0  0  0  0  0  0
   58.9760   29.5600   45.8640 C   0  0  2  0  0  0  0  0  0  0  0  0
   58.7840   28.3230   46.7200 C   0  0  0  0  0  0  0  0  0  0  0  0
   57.7310   27.5090   46.6110 C   0  0  0  0  0  0  0  0  0  0  0  0
   56.6300   27.7830   45.6780 C   0  0  0  0  0  0  0  0  0  0  0  0
   55.6610   26.9800   45.6200 O   0  0  0  0  0  0  0  0  0  0  0  0
   56.6550   28.9690   44.7630 C   0  0  0  0  0  0  0  0  0  0  0  0
   57.6450   30.0080   45.2270 C   0  0  0  0  0  0  0  0  0  0  0  0
   57.4420   31.2970   44.8830 C   0  0  0  0  0  0  0  0  0  0  0  0
   58.4180   32.3080   45.2880 C   0  0  0  0  0  0  0  0  0  0  0  0
   58.4130   33.6680   45.0620 C   0  0  0  0  0  0  0  0  0  0  0  0
   59.4840   34.1650   45.7870 C   0  0  0  0  0  0  0  0  0  0  0  0
   60.1250   33.1610   46.4280 N   0  0  0  0  0  0  0  0  0  0  0  0
   61.2400   33.3140   47.3190 C   0  0  0  0  0  0  0  0  0  0  0  0
   62.5670   33.3130   46.8130 C   0  0  0  0  0  0  0  0  0  0  0  0
   63.6670   33.4760   47.6750 C   0  0  0  0  0  0  0  0  0  0  0  0
   63.4000   33.6480   49.0300 C   0  0  0  0  0  0  0  0  0  0  0  0
   64.2210   33.8350   50.1150 C   0  0  0  0  0  0  0  0  0  0  0  0
   63.4260   33.9550   51.2030 N   0  0  0  0  0  0  0  0  0  0  0  0
   62.1470   33.8540   50.8560 N   0  0  0  0  0  0  0  0  0  0  0  0
   62.1270   33.6660   49.5250 C   0  0  0  0  0  0  0  0  0  0  0  0
   61.0160   33.5080   48.7010 C   0  0  0  0  0  0  0  0  0  0  0  0
   59.4730   32.0220   46.1070 C   0  0  0  0  0  0  0  0  0  0  0  0
   59.5910   30.6780   46.7680 C   0  0  0  0  0  0  0  0  0  0  0  0
   60.9176   28.8736   45.1714 H   0  0  0  0  0  0  0  0  0  0  0  0
   59.5438   28.4066   44.1124 H   0  0  0  0  0  0  0  0  0  0  0  0
   60.1426   30.1002   44.1124 H   0  0  0  0  0  0  0  0  0  0  0  0
   59.5523   28.0837   47.4699 H   0  0  0  0  0  0  0  0  0  0  0  0
   57.6868   26.6066   47.2385 H   0  0  0  0  0  0  0  0  0  0  0  0
   56.9353   28.6348   43.7532 H   0  0  0  0  0  0  0  0  0  0  0  0
   55.6536   29.4242   44.7626 H   0  0  0  0  0  0  0  0  0  0  0  0
   56.5518   31.5842   44.3041 H   0  0  0  0  0  0  0  0  0  0  0  0
   57.7083   34.2376   44.4384 H   0  0  0  0  0  0  0  0  0  0  0  0
   59.7721   35.2255   45.8346 H   0  0  0  0  0  0  0  0  0  0  0  0
   62.7369   33.1832   45.7340 H   0  0  0  0  0  0  0  0  0  0  0  0
   64.6984   33.4678   47.2926 H   0  0  0  0  0  0  0  0  0  0  0  0
   65.3200   33.8790   50.1018 H   0  0  0  0  0  0  0  0  0  0  0  0
   63.7550   34.1070   52.1820 H   0  0  0  0  0  0  0  0  0  0  0  0
   59.9962   33.5333   49.1125 H   0  0  0  0  0  0  0  0  0  0  0  0
   60.6535   30.4550   46.9451 H   0  0  0  0  0  0  0  0  0  0  0  0
   59.0417   30.7036   47.7207 H   0  0  0  0  0  0  0  0  0  0  0  0
  2  1  1  6
  2  3  1  0
  3  4  2  0
  4  5  1  0
  5  6  2  0
  5  7  1  0
  7  8  1  0
  8  9  2  0
  9 10  1  0
 10 11  1  0
 11 12  2  0
 12 13  1  0
 13 14  1  0
 14 15  1  0
 15 16  2  0
 16 17  1  0
 17 18  2  0
 18 19  1  0
 19 20  1  0
 20 21  2  0
 21 22  1  0
 13 23  1  0
 23 24  1  0
  8  2  1  0
 23 10  2  0
 24  2  1  0
 22 14  2  0
 21 17  1  0
  1 25  1  0
  1 26  1  0
  1 27  1  0
  3 28  1  0
  4 29  1  0
  7 30  1  0
  7 31  1  0
  9 32  1  0
 11 33  1  0
 12 34  1  0
 15 35  1  0
 16 36  1  0
 18 37  1  0
 19 38  1  0
 22 39  1  0
 24 40  1  0
 24 41  1  0
M  END
>  <UniqueID>  (32) 
29

>  <SMILES>  (32) 
C[C@]12C=CC(=O)CC1=Cc1ccn(-c3ccc4c[nH]nc4c3)c1C2

>  <Energy>  (32) 
121.0502510592533

>  <Genealogy>  (32) 
C[C@]12C=CC(=O)CC1=Cc1ccn(-c3ccc4c[nH]nc4c3)c1C2 (chirality)
C[C@]12C=CC(=O)CC1=Cc1ccn(-c3ccc4c[nH]nc4c3)c1C2 (3D coordinates assigned)
C[C@]12C=CC(=O)CC1=Cc1ccn(-c3ccc4c[nH]nc4c3)c1C2 (nonaromatic ring conformer: 121.0502510592533 kcal/mol)

>  <smiles>  (32) 
CC12C=CC(=O)CC1=Cc1ccn(-c3ccc4c[nH]nc4c3)c1C2

>  <score_type>  (32) 
oracle

>  <origin>  (32) 
adg

>  <m_score__min__energy>  (32) 
-8.6500000000000004

>  <m_primary>  (32) 
energy

$$$$
32:0
     RDKit          3D

 40 41  0  0  0  0  0  0  0  0999 V2000
   57.0270   34.4010   45.0030 N   0  0  0  0  0  0  0  0  0  0  0  0
   58.0500   33.8530   45.8430 C   0  0  0  0  0  0  0  0  0  0  0  0
   58.6000   34.6500   46.8610 C   0  0  0  0  0  0  0  0  0  0  0  0
   59.6670   34.1790   47.6300 C   0  0  0  0  0  0  0  0  0  0  0  0
   60.2010   32.9140   47.3840 C   0  0  0  0  0  0  0  0  0  0  0  0
   59.6530   32.1050   46.3870 C   0  0  0  0  0  0  0  0  0  0  0  0
   58.5580   32.5500   45.6300 C   0  0  0  0  0  0  0  0  0  0  0  0
   57.9910   31.6650   44.6540 N   0  0  0  0  0  0  0  0  0  0  0  0
   57.8710   32.0210   43.2680 C   0  0  0  0  0  0  0  0  0  0  0  0
   58.4630   33.0380   42.8140 O   0  0  0  0  0  0  0  0  0  0  0  0
   56.9920   31.2150   42.3570 C   0  0  0  0  0  0  0  0  0  0  0  0
   56.7080   29.8130   42.9230 C   0  0  0  0  0  0  0  0  0  0  0  0
   55.3510   29.7080   43.6400 C   0  0  0  0  0  0  0  0  0  0  0  0
   55.5080   29.3000   45.0320 N   0  0  0  0  0  0  0  0  0  0  0  0
   56.7500   28.8800   45.6120 C   0  0  0  0  0  0  0  0  0  0  0  0
   57.4890   29.7340   46.1690 O   0  0  0  0  0  0  0  0  0  0  0  0
   57.1400   27.4420   45.5700 C   0  0  0  0  0  0  0  0  0  0  0  0
   56.1620   26.4650   45.8510 C   0  0  0  0  0  0  0  0  0  0  0  0
   56.4850   25.1080   45.8650 C   0  0  0  0  0  0  0  0  0  0  0  0
   57.7880   24.6960   45.5890 C   0  0  0  0  0  0  0  0  0  0  0  0
   58.7680   25.6410   45.2950 C   0  0  0  0  0  0  0  0  0  0  0  0
   58.4630   27.0080   45.2830 C   0  0  0  0  0  0  0  0  0  0  0  0
   59.7790   28.1120   44.8860 Cl  0  0  0  0  0  0  0  0  0  0  0  0
   57.0300   34.2160   43.9750 H   0  0  0  0  0  0  0  0  0  0  0  0
   56.2160   34.9240   45.3990 H   0  0  0  0  0  0  0  0  0  0  0  0
   58.1877   35.6514   47.0538 H   0  0  0  0  0  0  0  0  0  0  0  0
   60.0865   34.8063   48.4303 H   0  0  0  0  0  0  0  0  0  0  0  0
   61.0549   32.5535   47.9763 H   0  0  0  0  0  0  0  0  0  0  0  0
   60.0827   31.1111   46.1932 H   0  0  0  0  0  0  0  0  0  0  0  0
   57.4110   30.8680   45.0020 H   0  0  0  0  0  0  0  0  0  0  0  0
   56.0371   31.7447   42.2245 H   0  0  0  0  0  0  0  0  0  0  0  0
   57.5163   31.0945   41.3975 H   0  0  0  0  0  0  0  0  0  0  0  0
   56.7202   29.0923   42.0921 H   0  0  0  0  0  0  0  0  0  0  0  0
   57.4874   29.5996   43.6693 H   0  0  0  0  0  0  0  0  0  0  0  0
   54.8546   30.6891   43.6096 H   0  0  0  0  0  0  0  0  0  0  0  0
   54.7481   28.9459   43.1245 H   0  0  0  0  0  0  0  0  0  0  0  0
   55.1289   26.7780   46.0623 H   0  0  0  0  0  0  0  0  0  0  0  0
   55.7102   24.3616   46.0942 H   0  0  0  0  0  0  0  0  0  0  0  0
   58.0418   23.6258   45.6034 H   0  0  0  0  0  0  0  0  0  0  0  0
   59.7926   25.3102   45.0698 H   0  0  0  0  0  0  0  0  0  0  0  0
  1  2  1  0
  2  3  2  0
  3  4  1  0
  4  5  2  0
  5  6  1  0
  6  7  2  0
  7  8  1  0
  8  9  1  0
  9 10  2  0
  9 11  1  0
 11 12  1  0
 12 13  1  0
 13 14  1  0
 14 15  1  0
 15 16  2  0
 15 17  1  0
 17 18  2  0
 18 19  1  0
 19 20  2  0
 20 21  1  0
 21 22  2  0
 22 23  1  0
  7  2  1  0
 22 17  1  0
  1 24  1  0
  1 25  1  0
  3 26  1  0
  4 27  1  0
  5 28  1  0
  6 29  1  0
  8 30  1  0
 11 31  1  0
 11 32  1  0
 12 33  1  0
 12 34  1  0
 13 35  1  0
 13 36  1  0
 18 37  1  0
 19 38  1  0
 20 39  1  0
 21 40  1  0
M  CHG  1  14  -1
M  END
>  <UniqueID>  (33) 
30

>  <SMILES>  (33) 
Nc1ccccc1NC(=O)CCC[N-]C(=O)c1ccccc1Cl

>  <Energy>  (33) 
38.649424285649296

>  <Genealogy>  (33) 
Nc1ccccc1NC(=O)CCC[N-]C(=O)c1ccccc1Cl (protonated)
Nc1ccccc1NC(=O)CCC[N-]C(=O)c1ccccc1Cl (3D coordinates assigned)
Nc1ccccc1NC(=O)CCC[N-]C(=O)c1ccccc1Cl (optimized conformer: 38.649424285649296 kcal/mol)

>  <smiles>  (33) 
Nc1ccccc1NC(=O)CCCNC(=O)c1ccccc1Cl

>  <score_type>  (33) 
oracle

>  <origin>  (33) 
adg

>  <m_score__min__energy>  (33) 
-9.4399999999999995

>  <m_primary>  (33) 
energy

$$$$
33:0
     RDKit          3D

 34 36  0  0  0  0  0  0  0  0999 V2000
   57.5880   31.8370   44.0870 C   0  0  0  0  0  0  0  0  0  0  0  0
   56.9110   30.8720   44.8860 O   0  0  0  0  0  0  0  0  0  0  0  0
   57.4650   29.6510   45.3020 C   0  0  0  0  0  0  0  0  0  0  0  0
   57.1370   28.4320   44.6770 C   0  0  0  0  0  0  0  0  0  0  0  0
   57.7110   27.2320   45.1190 C   0  0  0  0  0  0  0  0  0  0  0  0
   57.3980   26.0090   44.5120 C   0  0  0  0  0  0  0  0  0  0  0  0
   57.9830   24.8190   44.9750 C   0  0  0  0  0  0  0  0  0  0  0  0
   57.6600   23.5160   44.3400 C   0  0  0  0  0  0  0  0  0  0  0  0
   56.5400   23.3710   43.5070 C   0  0  0  0  0  0  0  0  0  0  0  0
   56.2630   22.1710   42.9360 N   0  0  0  0  0  0  0  0  0  0  0  0
   57.0540   21.0910   43.1590 C   0  0  0  0  0  0  0  0  0  0  0  0
   58.1450   21.2000   43.9610 N   0  0  0  0  0  0  0  0  0  0  0  0
   58.4610   22.3820   44.5520 C   0  0  0  0  0  0  0  0  0  0  0  0
   58.8820   24.8900   46.0540 C   0  0  0  0  0  0  0  0  0  0  0  0
   59.1750   26.0850   46.6290 N   0  0  0  0  0  0  0  0  0  0  0  0
   58.6180   27.2480   46.1960 C   0  0  0  0  0  0  0  0  0  0  0  0
   58.9450   28.4550   46.8180 C   0  0  0  0  0  0  0  0  0  0  0  0
   58.3720   29.6630   46.3750 C   0  0  0  0  0  0  0  0  0  0  0  0
   58.6760   30.8950   46.9740 O   0  0  0  0  0  0  0  0  0  0  0  0
   59.9440   31.5390   46.8970 C   0  0  0  0  0  0  0  0  0  0  0  0
   58.0965   32.5618   44.7397 H   0  0  0  0  0  0  0  0  0  0  0  0
   58.3305   31.3315   43.4520 H   0  0  0  0  0  0  0  0  0  0  0  0
   56.8600   32.3631   43.4520 H   0  0  0  0  0  0  0  0  0  0  0  0
   56.4264   28.4217   43.8374 H   0  0  0  0  0  0  0  0  0  0  0  0
   56.6913   25.9805   43.6695 H   0  0  0  0  0  0  0  0  0  0  0  0
   55.8840   24.2331   43.3160 H   0  0  0  0  0  0  0  0  0  0  0  0
   56.8114   20.1262   42.6897 H   0  0  0  0  0  0  0  0  0  0  0  0
   58.7460   20.3620   44.1300 H   0  0  0  0  0  0  0  0  0  0  0  0
   59.3478   22.4510   45.1991 H   0  0  0  0  0  0  0  0  0  0  0  0
   59.3513   23.9710   46.4351 H   0  0  0  0  0  0  0  0  0  0  0  0
   59.6542   28.4622   47.6588 H   0  0  0  0  0  0  0  0  0  0  0  0
   60.3204   31.7302   47.9128 H   0  0  0  0  0  0  0  0  0  0  0  0
   60.6522   30.8913   46.3594 H   0  0  0  0  0  0  0  0  0  0  0  0
   59.8387   32.4929   46.3594 H   0  0  0  0  0  0  0  0  0  0  0  0
  1  2  1  0
  2  3  1  0
  3  4  2  0
  4  5  1  0
  5  6  2  0
  6  7  1  0
  7  8  1  0
  8  9  2  0
  9 10  1  0
 10 11  2  0
 11 12  1  0
 12 13  2  0
  7 14  2  0
 14 15  1  0
 15 16  2  0
 16 17  1  0
 17 18  2  0
 18 19  1  0
 19 20  1  0
 18  3  1  0
 16  5  1  0
 13  8  1  0
  1 21  1  0
  1 22  1  0
  1 23  1  0
  4 24  1  0
  6 25  1  0
  9 26  1  0
 11 27  1  0
 12 28  1  0
 13 29  1  0
 14 30  1  0
 17 31  1  0
 20 32  1  0
 20 33  1  0
 20 34  1  0
M  CHG  1  12   1
M  END
>  <UniqueID>  (34) 
31

>  <SMILES>  (34) 
COc1cc2cc(-c3cnc[nH+]c3)cnc2cc1OC

>  <Energy>  (34) 
44.47474975208366

>  <Genealogy>  (34) 
COc1cc2cc(-c3cnc[nH+]c3)cnc2cc1OC (protonated)
COc1cc2cc(-c3cnc[nH+]c3)cnc2cc1OC (3D coordinates assigned)
COc1cc2cc(-c3cnc[nH+]c3)cnc2cc1OC (optimized conformer: 44.47474975208366 kcal/mol)

>  <smiles>  (34) 
COc1cc2cc(-c3cncnc3)cnc2cc1OC

>  <score_type>  (34) 
oracle

>  <origin>  (34) 
adg

>  <m_score__min__energy>  (34) 
-5.29

>  <m_primary>  (34) 
energy

$$$$
34:0
     RDKit          3D

 43 44  0  0  0  0  0  0  0  0999 V2000
   57.2220   27.3990   45.1320 N   0  0  0  0  0  0  0  0  0  0  0  0
   58.1220   27.6130   43.9930 C   0  0  1  0  0  0  0  0  0  0  0  0
   57.3950   28.1750   42.7360 C   0  0  0  0  0  0  0  0  0  0  0  0
   56.6350   29.5100   42.8770 C   0  0  0  0  0  0  0  0  0  0  0  0
   56.2320   29.8380   44.2820 C   0  0  0  0  0  0  0  0  0  0  0  0
   55.3620   29.1430   44.8740 O   0  0  0  0  0  0  0  0  0  0  0  0
   56.8140   30.9740   44.9290 N   0  0  0  0  0  0  0  0  0  0  0  0
   57.4020   32.0970   44.2100 C   0  0  0  0  0  0  0  0  0  0  0  0
   58.0170   33.0550   45.1900 C   0  0  0  0  0  0  0  0  0  0  0  0
   58.8350   34.1000   44.7300 C   0  0  0  0  0  0  0  0  0  0  0  0
   59.4770   34.9460   45.6390 C   0  0  0  0  0  0  0  0  0  0  0  0
   59.3080   34.7540   47.0130 C   0  0  0  0  0  0  0  0  0  0  0  0
   58.4980   33.7150   47.4790 C   0  0  0  0  0  0  0  0  0  0  0  0
   57.8570   32.8640   46.5740 C   0  0  0  0  0  0  0  0  0  0  0  0
   59.4220   28.3640   44.3910 C   0  0  0  0  0  0  0  0  0  0  0  0
   59.5880   28.6530   45.8650 C   0  0  0  0  0  0  0  0  0  0  0  0
   59.8070   27.6070   46.7790 C   0  0  0  0  0  0  0  0  0  0  0  0
   59.9660   27.8800   48.1400 C   0  0  0  0  0  0  0  0  0  0  0  0
   59.9370   29.1990   48.5980 C   0  0  0  0  0  0  0  0  0  0  0  0
   59.7590   30.2490   47.6940 C   0  0  0  0  0  0  0  0  0  0  0  0
   59.5950   29.9800   46.3310 C   0  0  0  0  0  0  0  0  0  0  0  0
   57.5910   26.6290   45.7360 H   0  0  0  0  0  0  0  0  0  0  0  0
   57.1730   28.2670   45.7120 H   0  0  0  0  0  0  0  0  0  0  0  0
   56.2620   27.1560   44.8110 H   0  0  0  0  0  0  0  0  0  0  0  0
   58.4681   26.6192   43.6727 H   0  0  0  0  0  0  0  0  0  0  0  0
   58.1547   28.3120   41.9524 H   0  0  0  0  0  0  0  0  0  0  0  0
   56.6120   27.4342   42.5166 H   0  0  0  0  0  0  0  0  0  0  0  0
   57.2832   30.3176   42.5059 H   0  0  0  0  0  0  0  0  0  0  0  0
   55.7066   29.4099   42.2955 H   0  0  0  0  0  0  0  0  0  0  0  0
   58.1778   31.7267   43.5237 H   0  0  0  0  0  0  0  0  0  0  0  0
   56.6191   32.6138   43.6355 H   0  0  0  0  0  0  0  0  0  0  0  0
   58.9711   34.2534   43.6493 H   0  0  0  0  0  0  0  0  0  0  0  0
   60.1156   35.7633   45.2726 H   0  0  0  0  0  0  0  0  0  0  0  0
   59.8126   35.4208   47.7277 H   0  0  0  0  0  0  0  0  0  0  0  0
   58.3645   33.5664   48.5607 H   0  0  0  0  0  0  0  0  0  0  0  0
   57.2260   32.0431   46.9453 H   0  0  0  0  0  0  0  0  0  0  0  0
   60.2776   27.7526   44.0683 H   0  0  0  0  0  0  0  0  0  0  0  0
   59.3634   29.3457   43.8982 H   0  0  0  0  0  0  0  0  0  0  0  0
   59.8534   26.5681   46.4205 H   0  0  0  0  0  0  0  0  0  0  0  0
   60.1143   27.0547   48.8519 H   0  0  0  0  0  0  0  0  0  0  0  0
   60.0544   29.4112   49.6709 H   0  0  0  0  0  0  0  0  0  0  0  0
   59.7478   31.2883   48.0542 H   0  0  0  0  0  0  0  0  0  0  0  0
   59.4709   30.8104   45.6203 H   0  0  0  0  0  0  0  0  0  0  0  0
  1  2  1  0
  2  3  1  0
  3  4  1  0
  4  5  1  0
  5  6  2  0
  5  7  1  0
  7  8  1  0
  8  9  1  0
  9 10  2  0
 10 11  1  0
 11 12  2  0
 12 13  1  0
 13 14  2  0
  2 15  1  0
 15 16  1  0
 16 17  2  0
 17 18  1  0
 18 19  2  0
 19 20  1  0
 20 21  2  0
 14  9  1  0
 21 16  1  0
  1 22  1  0
  1 23  1  0
  1 24  1  0
  2 25  1  6
  3 26  1  0
  3 27  1  0
  4 28  1  0
  4 29  1  0
  8 30  1  0
  8 31  1  0
 10 32  1  0
 11 33  1  0
 12 34  1  0
 13 35  1  0
 14 36  1  0
 15 37  1  0
 15 38  1  0
 17 39  1  0
 18 40  1  0
 19 41  1  0
 20 42  1  0
 21 43  1  0
M  CHG  2   1   1   7  -1
M  END
>  <UniqueID>  (35) 
32

>  <SMILES>  (35) 
[NH3+][C@@H](CCC(=O)[N-]Cc1ccccc1)Cc1ccccc1

>  <Energy>  (35) 
38.35295410593781

>  <Genealogy>  (35) 
[NH3+]C(CCC(=O)[N-]Cc1ccccc1)Cc1ccccc1 (protonated)
[NH3+][C@@H](CCC(=O)[N-]Cc1ccccc1)Cc1ccccc1 (chirality)
[NH3+][C@@H](CCC(=O)[N-]Cc1ccccc1)Cc1ccccc1 (3D coordinates assigned)
[NH3+][C@@H](CCC(=O)[N-]Cc1ccccc1)Cc1ccccc1 (optimized conformer: 38.35295410593781 kcal/mol)

>  <smiles>  (35) 
NC(CCC(=O)NCc1ccccc1)Cc1ccccc1

>  <score_type>  (35) 
oracle

>  <origin>  (35) 
adg

>  <m_score__min__energy>  (35) 
-7.9800000000000004

>  <m_primary>  (35) 
energy

$$$$
35:0
     RDKit          3D

 32 33  0  0  0  0  0  0  0  0999 V2000
   58.3360   32.8879   43.8910 H   0  0  0  0  0  0  0  0  0  0  0  0
   57.8540   31.9390   44.1690 C   0  0  0  0  0  0  0  0  0  0  0  0
   57.8000   31.5390   45.5160 C   0  0  0  0  0  0  0  0  0  0  0  0
   58.3560   32.3470   46.5670 N   0  0  0  0  0  0  0  0  0  0  0  0
   57.6980   32.8280   47.2210 H   0  0  0  0  0  0  0  0  0  0  0  0
   59.7620   32.5940   46.7220 C   0  0  0  0  0  0  0  0  0  0  0  0
   60.5990   31.5860   47.2420 C   0  0  0  0  0  0  0  0  0  0  0  0
   59.9540   30.0250   47.7320 Cl  0  0  0  0  0  0  0  0  0  0  0  0
   61.9650   31.8290   47.4100 C   0  0  0  0  0  0  0  0  0  0  0  0
   62.6174   31.0372   47.8068 H   0  0  0  0  0  0  0  0  0  0  0  0
   62.5040   33.0700   47.0770 C   0  0  0  0  0  0  0  0  0  0  0  0
   63.5803   33.2541   47.2101 H   0  0  0  0  0  0  0  0  0  0  0  0
   61.6820   34.0800   46.5750 C   0  0  0  0  0  0  0  0  0  0  0  0
   62.1140   35.0605   46.3261 H   0  0  0  0  0  0  0  0  0  0  0  0
   60.3050   33.8560   46.3840 C   0  0  0  0  0  0  0  0  0  0  0  0
   59.4190   34.9570   45.8420 C   0  0  0  0  0  0  0  0  0  0  0  0
   60.0350   36.1810   46.0320 F   0  0  0  0  0  0  0  0  0  0  0  0
   58.2030   34.9530   46.5040 F   0  0  0  0  0  0  0  0  0  0  0  0
   59.1710   34.7960   44.4890 F   0  0  0  0  0  0  0  0  0  0  0  0
   57.1840   30.3690   45.8380 N   0  0  0  0  0  0  0  0  0  0  0  0
   56.6250   29.5550   44.8970 C   0  0  0  0  0  0  0  0  0  0  0  0
   56.0470   28.4420   45.2370 N   0  0  0  0  0  0  0  0  0  0  0  0
   56.7670   27.2360   45.6320 C   0  0  0  0  0  0  0  0  0  0  0  0
   57.5715   27.5017   46.3336 H   0  0  0  0  0  0  0  0  0  0  0  0
   57.2021   26.7588   44.7415 H   0  0  0  0  0  0  0  0  0  0  0  0
   55.8220   26.2910   46.2930 C   0  0  0  0  0  0  0  0  0  0  0  0
   56.2530   25.4200   47.0960 O   0  0  0  0  0  0  0  0  0  0  0  0
   54.4680   26.3320   45.9860 O   0  0  0  0  0  0  0  0  0  0  0  0
   56.6740   29.9240   43.5490 C   0  0  0  0  0  0  0  0  0  0  0  0
   56.2298   29.2751   42.7798 H   0  0  0  0  0  0  0  0  0  0  0  0
   57.2910   31.1220   43.1880 C   0  0  0  0  0  0  0  0  0  0  0  0
   57.3336   31.4223   42.1306 H   0  0  0  0  0  0  0  0  0  0  0  0
  1  2  1  0
  2  3  2  0
  3  4  1  0
  4  5  1  0
  4  6  1  0
  6  7  2  0
  7  8  1  0
  7  9  1  0
  9 10  1  0
  9 11  2  0
 11 12  1  0
 11 13  1  0
 13 14  1  0
 13 15  2  0
 15 16  1  0
 16 17  1  0
 16 18  1  0
 16 19  1  0
  3 20  1  0
 20 21  1  0
 21 22  2  0
 22 23  1  0
 23 24  1  0
 23 25  1  0
 23 26  1  0
 26 27  2  0
 26 28  1  0
 21 29  1  0
 29 30  1  0
 29 31  2  0
 31 32  1  0
 31  2  1  0
 15  6  1  0
M  CHG  2  20  -1  28  -1
M  END
>  <UniqueID>  (36) 
33

>  <SMILES>  (36) 
O=C([O-])C/N=c1/cccc(Nc2c(Cl)cccc2C(F)(F)F)[n-]1

>  <Energy>  (36) 
40.05082760684673

>  <Genealogy>  (36) 
O=C([O-])CN=c1cccc(Nc2c(Cl)cccc2C(F)(F)F)[n-]1 (protonated)
O=C([O-])C/N=c1/cccc(Nc2c(Cl)cccc2C(F)(F)F)[n-]1 (cis-trans isomerization)
O=C([O-])C/N=c1/cccc(Nc2c(Cl)cccc2C(F)(F)F)[n-]1 (3D coordinates assigned)
O=C([O-])C/N=c1/cccc(Nc2c(Cl)cccc2C(F)(F)F)[n-]1 (optimized conformer: 40.05082760684673 kcal/mol)

>  <smiles>  (36) 
O=C(O)CN=c1cccc(Nc2c(Cl)cccc2C(F)(F)F)[nH]1

>  <score_type>  (36) 
oracle

>  <origin>  (36) 
adg

>  <m_score__min__energy>  (36) 
-11.94

>  <m_primary>  (36) 
energy

$$$$
36:0
     RDKit          3D

 67 72  0  0  0  0  0  0  0  0999 V2000
   56.1010   20.5270   54.5960 C   0  0  0  0  0  0  0  0  0  0  0  0
   57.2160   20.9780   53.8340 O   0  0  0  0  0  0  0  0  0  0  0  0
   57.2340   21.0730   52.4340 C   0  0  0  0  0  0  0  0  0  0  0  0
   56.7790   20.0330   51.5990 C   0  0  0  0  0  0  0  0  0  0  0  0
   56.8200   20.1790   50.2080 C   0  0  0  0  0  0  0  0  0  0  0  0
   57.2970   21.3620   49.6290 C   0  0  0  0  0  0  0  0  0  0  0  0
   57.3760   21.4520   48.1980 N   0  0  0  0  0  0  0  0  0  0  0  0
   56.7010   20.6170   47.2500 C   0  0  0  0  0  0  0  0  0  0  0  0
   55.5160   20.2640   47.4890 O   0  0  0  0  0  0  0  0  0  0  0  0
   57.3560   20.1900   45.9630 C   0  0  0  0  0  0  0  0  0  0  0  0
   56.9320   21.0730   44.8300 C   0  0  0  0  0  0  0  0  0  0  0  0
   56.0840   20.6970   43.8440 N   0  0  0  0  0  0  0  0  0  0  0  0
   55.9020   21.7340   43.0670 O   0  0  0  0  0  0  0  0  0  0  0  0
   56.5870   22.7580   43.5120 C   0  0  0  0  0  0  0  0  0  0  0  0
   56.6520   24.0470   42.9970 C   0  0  0  0  0  0  0  0  0  0  0  0
   57.4450   24.9850   43.6850 C   0  0  0  0  0  0  0  0  0  0  0  0
   58.1600   24.6160   44.8590 C   0  0  0  0  0  0  0  0  0  0  0  0
   58.9590   25.6210   45.5990 C   0  0  0  0  0  0  0  0  0  0  0  0
   60.0060   25.2590   46.2010 O   0  0  0  0  0  0  0  0  0  0  0  0
   58.5520   26.9980   45.6650 N   0  0  0  0  0  0  0  0  0  0  0  0
   58.4540   27.6400   46.9820 C   0  0  0  0  0  0  0  0  0  0  0  0
   57.9670   29.0900   46.8660 C   0  0  0  0  0  0  0  0  0  0  0  0
   58.7900   29.8350   45.7930 C   0  0  0  0  0  0  0  0  0  0  0  0
   58.4030   31.2600   45.6770 N   0  0  0  0  0  0  0  0  0  0  0  0
   57.2900   31.6210   44.8350 C   0  0  0  0  0  0  0  0  0  0  0  0
   56.4130   30.7740   44.5200 O   0  0  0  0  0  0  0  0  0  0  0  0
   57.1610   32.9390   44.3920 O   0  0  0  0  0  0  0  0  0  0  0  0
   58.2450   33.8590   44.4930 C   0  0  0  0  0  0  0  0  0  0  0  0
   58.9990   33.6560   45.7780 C   0  0  0  0  0  0  0  0  0  0  0  0
   59.6680   34.7340   46.3800 C   0  0  0  0  0  0  0  0  0  0  0  0
   60.4000   34.5390   47.5520 C   0  0  0  0  0  0  0  0  0  0  0  0
   60.4700   33.2700   48.1280 C   0  0  0  0  0  0  0  0  0  0  0  0
   59.8190   32.1880   47.5290 C   0  0  0  0  0  0  0  0  0  0  0  0
   59.0980   32.3570   46.3280 C   0  0  0  0  0  0  0  0  0  0  0  0
   58.8080   29.1250   44.4150 C   0  0  0  0  0  0  0  0  0  0  0  0
   58.1790   27.7220   44.4400 C   0  0  0  0  0  0  0  0  0  0  0  0
   58.0600   23.2910   45.3480 C   0  0  0  0  0  0  0  0  0  0  0  0
   57.2660   22.3950   44.6360 C   0  0  0  0  0  0  0  0  0  0  0  0
   57.7740   22.3890   50.4620 C   0  0  0  0  0  0  0  0  0  0  0  0
   57.7340   22.2450   51.8520 C   0  0  0  0  0  0  0  0  0  0  0  0
   56.3284   20.6190   55.6683 H   0  0  0  0  0  0  0  0  0  0  0  0
   55.2198   21.1394   54.3542 H   0  0  0  0  0  0  0  0  0  0  0  0
   55.8934   19.4742   54.3542 H   0  0  0  0  0  0  0  0  0  0  0  0
   56.3906   19.1040   52.0419 H   0  0  0  0  0  0  0  0  0  0  0  0
   56.4745   19.3574   49.5633 H   0  0  0  0  0  0  0  0  0  0  0  0
   58.4484   20.2502   46.0774 H   0  0  0  0  0  0  0  0  0  0  0  0
   57.0500   19.1576   45.7381 H   0  0  0  0  0  0  0  0  0  0  0  0
   56.1036   24.3245   42.0847 H   0  0  0  0  0  0  0  0  0  0  0  0
   57.5129   26.0169   43.3102 H   0  0  0  0  0  0  0  0  0  0  0  0
   57.7452   27.0736   47.6039 H   0  0  0  0  0  0  0  0  0  0  0  0
   59.4553   27.6477   47.4374 H   0  0  0  0  0  0  0  0  0  0  0  0
   56.9046   29.0965   46.5808 H   0  0  0  0  0  0  0  0  0  0  0  0
   58.0942   29.5940   47.8354 H   0  0  0  0  0  0  0  0  0  0  0  0
   59.8286   29.8064   46.1542 H   0  0  0  0  0  0  0  0  0  0  0  0
   58.9289   33.7051   43.6453 H   0  0  0  0  0  0  0  0  0  0  0  0
   57.8418   34.8823   44.4784 H   0  0  0  0  0  0  0  0  0  0  0  0
   59.6149   35.7348   45.9265 H   0  0  0  0  0  0  0  0  0  0  0  0
   60.9219   35.3857   48.0218 H   0  0  0  0  0  0  0  0  0  0  0  0
   61.0397   33.1206   49.0570 H   0  0  0  0  0  0  0  0  0  0  0  0
   59.8692   31.1946   47.9986 H   0  0  0  0  0  0  0  0  0  0  0  0
   58.2501   29.7440   43.6970 H   0  0  0  0  0  0  0  0  0  0  0  0
   59.8627   29.0018   44.1281 H   0  0  0  0  0  0  0  0  0  0  0  0
   57.0840   27.8181   44.3984 H   0  0  0  0  0  0  0  0  0  0  0  0
   58.5499   27.1565   43.5724 H   0  0  0  0  0  0  0  0  0  0  0  0
   58.5914   22.9797   46.2594 H   0  0  0  0  0  0  0  0  0  0  0  0
   58.1804   23.3098   50.0183 H   0  0  0  0  0  0  0  0  0  0  0  0
   58.0986   23.0598   52.4948 H   0  0  0  0  0  0  0  0  0  0  0  0
  1  2  1  0
  2  3  1  0
  3  4  2  0
  4  5  1  0
  5  6  2  0
  6  7  1  0
  7  8  1  0
  8  9  2  0
  8 10  1  0
 10 11  1  0
 11 12  2  0
 12 13  1  0
 13 14  1  0
 14 15  2  0
 15 16  1  0
 16 17  2  0
 17 18  1  0
 18 19  2  0
 18 20  1  0
 20 21  1  0
 21 22  1  0
 22 23  1  0
 23 24  1  0
 24 25  1  0
 25 26  2  0
 25 27  1  0
 27 28  1  0
 28 29  1  0
 29 30  2  0
 30 31  1  0
 31 32  2  0
 32 33  1  0
 33 34  2  0
 23 35  1  0
 35 36  1  0
 17 37  1  0
 37 38  2  0
  6 39  1  0
 39 40  2  0
 40  3  1  0
 38 11  1  0
 38 14  1  0
 36 20  1  0
 34 24  1  0
 34 29  1  0
  1 41  1  0
  1 42  1  0
  1 43  1  0
  4 44  1  0
  5 45  1  0
 10 46  1  0
 10 47  1  0
 15 48  1  0
 16 49  1  0
 21 50  1  0
 21 51  1  0
 22 52  1  0
 22 53  1  0
 23 54  1  0
 28 55  1  0
 28 56  1  0
 30 57  1  0
 31 58  1  0
 32 59  1  0
 33 60  1  0
 35 61  1  0
 35 62  1  0
 36 63  1  0
 36 64  1  0
 37 65  1  0
 39 66  1  0
 40 67  1  0
M  CHG  1   7  -1
M  END
>  <UniqueID>  (37) 
34

>  <SMILES>  (37) 
COc1ccc([N-]C(=O)Cc2noc3ccc(C(=O)N4CCC(N5C(=O)OCc6ccccc65)CC4)cc23)cc1

>  <Energy>  (37) 
131.55976261412232

>  <Genealogy>  (37) 
COc1ccc([N-]C(=O)Cc2noc3ccc(C(=O)N4CCC(N5C(=O)OCc6ccccc65)CC4)cc23)cc1 (protonated)
COc1ccc([N-]C(=O)Cc2noc3ccc(C(=O)N4CCC(N5C(=O)OCc6ccccc65)CC4)cc23)cc1 (3D coordinates assigned)
COc1ccc([N-]C(=O)Cc2noc3ccc(C(=O)N4CCC(N5C(=O)OCc6ccccc65)CC4)cc23)cc1 (nonaromatic ring conformer: 131.55976261412232 kcal/mol)

>  <smiles>  (37) 
COc1ccc(NC(=O)Cc2noc3ccc(C(=O)N4CCC(N5C(=O)OCc6ccccc65)CC4)cc23)cc1

>  <score_type>  (37) 
oracle

>  <origin>  (37) 
adg

>  <m_score__min__energy>  (37) 
-12.869999999999999

>  <m_primary>  (37) 
energy

$$$$
37:0
     RDKit          3D

 26 28  0  0  0  0  0  0  0  0999 V2000
   55.5220   29.3540   44.8470 O   0  0  0  0  0  0  0  0  0  0  0  0
   56.6910   29.6150   45.2410 C   0  0  0  0  0  0  0  0  0  0  0  0
   57.0450   30.9070   45.4630 N   0  0  0  0  0  0  0  0  0  0  0  0
   58.2940   31.2450   45.8880 C   0  0  0  0  0  0  0  0  0  0  0  0
   58.6470   32.6670   46.1220 C   0  0  0  0  0  0  0  0  0  0  0  0
   58.9330   33.1330   47.4170 C   0  0  0  0  0  0  0  0  0  0  0  0
   59.2630   34.4750   47.6150 C   0  0  0  0  0  0  0  0  0  0  0  0
   59.3080   35.3340   46.5600 N   0  0  0  0  0  0  0  0  0  0  0  0
   59.0360   34.9130   45.2960 C   0  0  0  0  0  0  0  0  0  0  0  0
   58.7020   33.5790   45.0530 C   0  0  0  0  0  0  0  0  0  0  0  0
   59.2150   30.2660   46.0970 N   0  0  0  0  0  0  0  0  0  0  0  0
   58.9180   28.9580   45.8910 C   0  0  0  0  0  0  0  0  0  0  0  0
   59.8880   27.9730   46.1130 C   0  0  0  0  0  0  0  0  0  0  0  0
   59.5790   26.6260   45.9000 C   0  0  0  0  0  0  0  0  0  0  0  0
   58.3030   26.2580   45.4640 C   0  0  0  0  0  0  0  0  0  0  0  0
   57.3270   27.2340   45.2370 C   0  0  0  0  0  0  0  0  0  0  0  0
   57.6280   28.5910   45.4500 C   0  0  0  0  0  0  0  0  0  0  0  0
   58.8969   32.4421   48.2722 H   0  0  0  0  0  0  0  0  0  0  0  0
   59.4877   34.8399   48.6281 H   0  0  0  0  0  0  0  0  0  0  0  0
   59.5570   36.3340   46.7250 H   0  0  0  0  0  0  0  0  0  0  0  0
   59.0793   35.6270   44.4604 H   0  0  0  0  0  0  0  0  0  0  0  0
   58.4827   33.2427   44.0289 H   0  0  0  0  0  0  0  0  0  0  0  0
   60.8936   28.2589   46.4551 H   0  0  0  0  0  0  0  0  0  0  0  0
   60.3423   25.8537   46.0761 H   0  0  0  0  0  0  0  0  0  0  0  0
   58.0654   25.1968   45.2987 H   0  0  0  0  0  0  0  0  0  0  0  0
   56.3247   26.9402   44.8921 H   0  0  0  0  0  0  0  0  0  0  0  0
  1  2  2  0
  2  3  1  0
  3  4  2  0
  4  5  1  0
  5  6  2  0
  6  7  1  0
  7  8  2  0
  8  9  1  0
  9 10  2  0
  4 11  1  0
 11 12  1  0
 12 13  2  0
 13 14  1  0
 14 15  2  0
 15 16  1  0
 16 17  2  0
 17  2  1  0
 10  5  1  0
 17 12  1  0
  6 18  1  0
  7 19  1  0
  8 20  1  0
  9 21  1  0
 10 22  1  0
 13 23  1  0
 14 24  1  0
 15 25  1  0
 16 26  1  0
M  CHG  2   8   1  11  -1
M  END
>  <UniqueID>  (38) 
35

>  <SMILES>  (38) 
O=c1nc(-c2cc[nH+]cc2)[n-]c2ccccc12

>  <Energy>  (38) 
35.0229850896878

>  <Genealogy>  (38) 
O=c1nc(-c2cc[nH+]cc2)[n-]c2ccccc12 (protonated)
O=c1nc(-c2cc[nH+]cc2)[n-]c2ccccc12 (3D coordinates assigned)
O=c1nc(-c2cc[nH+]cc2)[n-]c2ccccc12 (optimized conformer: 35.0229850896878 kcal/mol)

>  <smiles>  (38) 
O=c1nc(-c2ccncc2)[nH]c2ccccc12

>  <score_type>  (38) 
oracle

>  <origin>  (38) 
adg

>  <m_score__min__energy>  (38) 
-6.4199999999999999

>  <m_primary>  (38) 
energy

$$$$
38:0
     RDKit          3D

 59 64  0  0  0  0  0  0  0  0999 V2000
   56.2660   30.0420   42.2250 N   0  0  0  0  0  0  0  0  0  0  0  0
   56.8940   29.8340   43.3390 C   0  0  0  0  0  0  0  0  0  0  0  0
   57.0180   28.6160   43.8900 N   0  0  0  0  0  0  0  0  0  0  0  0
   57.6700   28.3810   45.0570 C   0  0  0  0  0  0  0  0  0  0  0  0
   57.7010   27.0070   45.5170 C   0  0  0  0  0  0  0  0  0  0  0  0
   58.8190   26.2090   45.5310 C   0  0  0  0  0  0  0  0  0  0  0  0
   58.7680   24.8960   46.0100 C   0  0  0  0  0  0  0  0  0  0  0  0
   57.5910   24.3490   46.4900 C   0  0  0  0  0  0  0  0  0  0  0  0
   56.4560   25.1550   46.4750 C   0  0  0  0  0  0  0  0  0  0  0  0
   56.5200   26.4460   46.0010 C   0  0  0  0  0  0  0  0  0  0  0  0
   58.2350   29.4420   45.7140 C   0  0  0  0  0  0  0  0  0  0  0  0
   58.1150   30.6890   45.1610 C   0  0  0  0  0  0  0  0  0  0  0  0
   57.4610   30.8610   44.0060 N   0  0  0  0  0  0  0  0  0  0  0  0
   58.7880   31.6230   46.0510 C   0  0  0  0  0  0  0  0  0  0  0  0
   58.9460   33.0020   45.9340 C   0  0  0  0  0  0  0  0  0  0  0  0
   59.6350   33.6620   46.9310 C   0  0  0  0  0  0  0  0  0  0  0  0
   60.1570   32.9830   48.0160 C   0  0  0  0  0  0  0  0  0  0  0  0
   60.8660   33.7950   49.0050 C   0  0  0  0  0  0  0  0  0  0  0  0
   60.2300   34.6050   49.7400 O   0  0  0  0  0  0  0  0  0  0  0  0
   62.2760   33.7230   49.1960 N   0  0  0  0  0  0  0  0  0  0  0  0
   62.8610   34.5700   50.1990 C   0  0  0  0  0  0  0  0  0  0  0  0
   63.8800   33.8150   51.0630 C   0  0  0  0  0  0  0  0  0  0  0  0
   64.9130   33.2890   50.0550 C   0  0  0  0  0  0  0  0  0  0  0  0
   66.1650   32.9110   50.7020 C   0  0  0  0  0  0  0  0  0  0  0  0
   66.3670   31.6240   51.1810 C   0  0  0  0  0  0  0  0  0  0  0  0
   67.5480   31.2500   51.7990 C   0  0  0  0  0  0  0  0  0  0  0  0
   68.5650   32.1950   51.9450 C   0  0  0  0  0  0  0  0  0  0  0  0
   68.3800   33.4950   51.4700 C   0  0  0  0  0  0  0  0  0  0  0  0
   67.2060   33.8290   50.8680 C   0  0  0  0  0  0  0  0  0  0  0  0
   64.2130   32.2160   49.2970 C   0  0  0  0  0  0  0  0  0  0  0  0
   63.1440   32.8530   48.4460 C   0  0  0  0  0  0  0  0  0  0  0  0
   60.0040   31.6170   48.1370 C   0  0  0  0  0  0  0  0  0  0  0  0
   59.3150   30.9380   47.1480 C   0  0  0  0  0  0  0  0  0  0  0  0
   58.9680   29.5370   46.9460 C   0  0  0  0  0  0  0  0  0  0  0  0
   59.2720   28.6200   47.7290 O   0  0  0  0  0  0  0  0  0  0  0  0
   55.6590   29.2950   41.7910 H   0  0  0  0  0  0  0  0  0  0  0  0
   59.7729   26.6105   45.1582 H   0  0  0  0  0  0  0  0  0  0  0  0
   59.6828   24.2852   46.0051 H   0  0  0  0  0  0  0  0  0  0  0  0
   57.5536   23.3170   46.8689 H   0  0  0  0  0  0  0  0  0  0  0  0
   55.4997   24.7569   46.8451 H   0  0  0  0  0  0  0  0  0  0  0  0
   55.6056   27.0574   46.0043 H   0  0  0  0  0  0  0  0  0  0  0  0
   57.3700   31.8080   43.5870 H   0  0  0  0  0  0  0  0  0  0  0  0
   58.5340   33.5484   45.0728 H   0  0  0  0  0  0  0  0  0  0  0  0
   59.7717   34.7512   46.8608 H   0  0  0  0  0  0  0  0  0  0  0  0
   63.3688   35.4101   49.7028 H   0  0  0  0  0  0  0  0  0  0  0  0
   62.0544   34.9264   50.8566 H   0  0  0  0  0  0  0  0  0  0  0  0
   64.3534   34.4921   51.7892 H   0  0  0  0  0  0  0  0  0  0  0  0
   63.4178   33.0090   51.6518 H   0  0  0  0  0  0  0  0  0  0  0  0
   65.2555   34.0559   49.3447 H   0  0  0  0  0  0  0  0  0  0  0  0
   65.5654   30.8796   51.0662 H   0  0  0  0  0  0  0  0  0  0  0  0
   67.6830   30.2231   52.1696 H   0  0  0  0  0  0  0  0  0  0  0  0
   69.5104   31.9161   52.4333 H   0  0  0  0  0  0  0  0  0  0  0  0
   69.1778   34.2441   51.5816 H   0  0  0  0  0  0  0  0  0  0  0  0
   67.0717   34.8567   50.4994 H   0  0  0  0  0  0  0  0  0  0  0  0
   64.9317   31.6856   48.6550 H   0  0  0  0  0  0  0  0  0  0  0  0
   63.7609   31.4949   49.9939 H   0  0  0  0  0  0  0  0  0  0  0  0
   63.6301   33.4405   47.6532 H   0  0  0  0  0  0  0  0  0  0  0  0
   62.5240   32.0434   48.0335 H   0  0  0  0  0  0  0  0  0  0  0  0
   60.4210   31.0794   49.0014 H   0  0  0  0  0  0  0  0  0  0  0  0
  1  2  2  3
  2  3  1  0
  3  4  2  0
  4  5  1  0
  5  6  2  0
  6  7  1  0
  7  8  2  0
  8  9  1  0
  9 10  2  0
  4 11  1  0
 11 12  2  0
 12 13  1  0
 12 14  1  0
 14 15  2  0
 15 16  1  0
 16 17  2  0
 17 18  1  0
 18 19  2  0
 18 20  1  0
 20 21  1  0
 21 22  1  0
 22 23  1  0
 23 24  1  0
 24 25  2  0
 25 26  1  0
 26 27  2  0
 27 28  1  0
 28 29  2  0
 23 30  1  0
 30 31  1  0
 17 32  1  0
 32 33  2  0
 33 34  1  0
 34 35  2  0
 13  2  1  0
 33 14  1  0
 10  5  1  0
 34 11  1  0
 31 20  1  0
 29 24  1  0
  1 36  1  0
  6 37  1  0
  7 38  1  0
  8 39  1  0
  9 40  1  0
 10 41  1  0
 13 42  1  0
 15 43  1  0
 16 44  1  0
 21 45  1  0
 21 46  1  0
 22 47  1  0
 22 48  1  0
 23 49  1  0
 25 50  1  0
 26 51  1  0
 27 52  1  0
 28 53  1  0
 29 54  1  0
 30 55  1  0
 30 56  1  0
 31 57  1  0
 31 58  1  0
 32 59  1  0
M  END
>  <smiles>  (39) 
N=c1nc(-c2ccccc2)c2c([nH]1)-c1ccc(C(=O)N3CCC(c4ccccc4)CC3)cc1C2=O

>  <score_type>  (39) 
oracle

>  <origin>  (39) 
adg

>  <m_score__min__energy>  (39) 
-9.8300000000000001

>  <m_primary>  (39) 
energy

$$$$
39:0
     RDKit          3D

 63 67  0  0  0  0  0  0  0  0999 V2000
   58.9903   33.9188   42.9692 H   0  0  0  0  0  0  0  0  0  0  0  0
   58.4070   33.0730   43.3620 C   0  0  0  0  0  0  0  0  0  0  0  0
   58.1550   32.9740   44.7330 C   0  0  0  0  0  0  0  0  0  0  0  0
   58.5443   33.7399   45.4200 H   0  0  0  0  0  0  0  0  0  0  0  0
   57.4090   31.9030   45.2320 C   0  0  0  0  0  0  0  0  0  0  0  0
   57.2287   31.8198   46.3139 H   0  0  0  0  0  0  0  0  0  0  0  0
   56.8890   30.9340   44.3630 C   0  0  0  0  0  0  0  0  0  0  0  0
   56.1630   29.8250   44.9180 N   0  0  0  0  0  0  0  0  0  0  0  0
   56.6570   28.8290   45.5930 C   0  0  0  0  0  0  0  0  0  0  0  0
   56.0590   27.6090   45.5940 N   0  0  0  0  0  0  0  0  0  0  0  0
   56.5630   26.5900   46.3320 C   0  0  0  0  0  0  0  0  0  0  0  0
   55.9530   25.4380   46.3070 N   0  0  0  0  0  0  0  0  0  0  0  0
   56.2750   24.3120   45.4750 C   0  0  0  0  0  0  0  0  0  0  0  0
   55.2760   23.7710   44.6580 C   0  0  0  0  0  0  0  0  0  0  0  0
   54.2682   24.2117   44.6635 H   0  0  0  0  0  0  0  0  0  0  0  0
   55.5490   22.6760   43.8360 C   0  0  0  0  0  0  0  0  0  0  0  0
   54.7608   22.2649   43.1881 H   0  0  0  0  0  0  0  0  0  0  0  0
   56.8210   22.1030   43.8360 C   0  0  0  0  0  0  0  0  0  0  0  0
   57.0388   21.2498   43.1768 H   0  0  0  0  0  0  0  0  0  0  0  0
   57.8190   22.6110   44.6720 C   0  0  0  0  0  0  0  0  0  0  0  0
   58.8195   22.1538   44.6704 H   0  0  0  0  0  0  0  0  0  0  0  0
   57.5500   23.7060   45.5170 C   0  0  0  0  0  0  0  0  0  0  0  0
   58.5120   24.2100   46.4060 O   0  0  0  0  0  0  0  0  0  0  0  0
   59.6840   24.9170   46.0160 C   0  0  0  0  0  0  0  0  0  0  0  0
   60.2293   25.2459   46.9129 H   0  0  0  0  0  0  0  0  0  0  0  0
   60.3282   24.2567   45.4168 H   0  0  0  0  0  0  0  0  0  0  0  0
   59.4003   25.7948   45.4168 H   0  0  0  0  0  0  0  0  0  0  0  0
   57.7080   26.7860   47.0550 N   0  0  0  0  0  0  0  0  0  0  0  0
   58.1440   25.9890   47.5640 H   0  0  0  0  0  0  0  0  0  0  0  0
   58.3030   28.0170   47.0720 C   0  0  0  0  0  0  0  0  0  0  0  0
   59.3830   28.2480   47.7610 N   0  0  0  0  0  0  0  0  0  0  0  0
   60.4210   29.2240   47.4280 C   0  0  0  0  0  0  0  0  0  0  0  0
   61.3085   29.0375   48.0505 H   0  0  0  0  0  0  0  0  0  0  0  0
   60.6813   29.1230   46.3640 H   0  0  0  0  0  0  0  0  0  0  0  0
   59.9090   30.6520   47.6870 C   0  0  0  0  0  0  0  0  0  0  0  0
   59.0823   30.7923   46.9750 H   0  0  0  0  0  0  0  0  0  0  0  0
   60.9880   31.6820   47.4130 C   0  0  0  0  0  0  0  0  0  0  0  0
   60.6750   32.9290   46.8350 C   0  0  0  0  0  0  0  0  0  0  0  0
   59.6333   33.1626   46.5698 H   0  0  0  0  0  0  0  0  0  0  0  0
   61.6800   33.8700   46.5970 C   0  0  0  0  0  0  0  0  0  0  0  0
   61.4261   34.8421   46.1492 H   0  0  0  0  0  0  0  0  0  0  0  0
   63.0060   33.5800   46.9260 C   0  0  0  0  0  0  0  0  0  0  0  0
   63.7950   34.3233   46.7388 H   0  0  0  0  0  0  0  0  0  0  0  0
   63.3290   32.3450   47.4930 C   0  0  0  0  0  0  0  0  0  0  0  0
   64.3737   32.1156   47.7497 H   0  0  0  0  0  0  0  0  0  0  0  0
   62.3280   31.4000   47.7350 C   0  0  0  0  0  0  0  0  0  0  0  0
   62.5899   30.4289   48.1804 H   0  0  0  0  0  0  0  0  0  0  0  0
   59.3080   30.8630   49.0700 C   0  0  0  0  0  0  0  0  0  0  0  0
   58.6200   32.0610   49.3400 C   0  0  0  0  0  0  0  0  0  0  0  0
   58.5029   32.8127   48.5455 H   0  0  0  0  0  0  0  0  0  0  0  0
   58.0840   32.3050   50.6080 C   0  0  0  0  0  0  0  0  0  0  0  0
   57.5386   33.2402   50.8029 H   0  0  0  0  0  0  0  0  0  0  0  0
   58.2400   31.3630   51.6280 C   0  0  0  0  0  0  0  0  0  0  0  0
   57.8126   31.5533   52.6235 H   0  0  0  0  0  0  0  0  0  0  0  0
   58.9390   30.1800   51.3820 C   0  0  0  0  0  0  0  0  0  0  0  0
   59.0665   29.4411   52.1869 H   0  0  0  0  0  0  0  0  0  0  0  0
   59.4780   29.9310   50.1150 C   0  0  0  0  0  0  0  0  0  0  0  0
   60.0382   29.0020   49.9326 H   0  0  0  0  0  0  0  0  0  0  0  0
   57.7650   29.0280   46.3470 N   0  0  0  0  0  0  0  0  0  0  0  0
   57.1680   31.0250   42.9840 C   0  0  0  0  0  0  0  0  0  0  0  0
   56.7955   30.2517   42.2961 H   0  0  0  0  0  0  0  0  0  0  0  0
   57.9170   32.0960   42.4900 C   0  0  0  0  0  0  0  0  0  0  0  0
   58.1218   32.1708   41.4118 H   0  0  0  0  0  0  0  0  0  0  0  0
  1  2  1  0
  2  3  2  0
  3  4  1  0
  3  5  1  0
  5  6  1  0
  5  7  2  0
  7  8  1  0
  8  9  2  0
  9 10  1  0
 10 11  1  0
 11 12  2  3
 12 13  1  0
 13 14  2  0
 14 15  1  0
 14 16  1  0
 16 17  1  0
 16 18  2  0
 18 19  1  0
 18 20  1  0
 20 21  1  0
 20 22  2  0
 22 23  1  0
 23 24  1  0
 24 25  1  0
 24 26  1  0
 24 27  1  0
 11 28  1  0
 28 29  1  0
 28 30  1  0
 30 31  2  0
 31 32  1  0
 32 33  1  0
 32 34  1  0
 32 35  1  0
 35 36  1  0
 35 37  1  0
 37 38  2  0
 38 39  1  0
 38 40  1  0
 40 41  1  0
 40 42  2  0
 42 43  1  0
 42 44  1  0
 44 45  1  0
 44 46  2  0
 46 47  1  0
 35 48  1  0
 48 49  2  0
 49 50  1  0
 49 51  1  0
 51 52  1  0
 51 53  2  0
 53 54  1  0
 53 55  1  0
 55 56  1  0
 55 57  2  0
 57 58  1  0
 30 59  1  0
  7 60  1  0
 60 61  1  0
 60 62  2  0
 62 63  1  0
 62  2  1  0
 59  9  1  0
 22 13  1  0
 46 37  1  0
 57 48  1  0
M  CHG  2  10  -1  59  -1
M  END
>  <UniqueID>  (40) 
36

>  <SMILES>  (40) 
COc1ccccc1N=c1[n-]/c(=N\c2ccccc2)[n-]/c(=N/CC(c2ccccc2)c2ccccc2)[nH]1

>  <Energy>  (40) 
86.03057121020586

>  <Genealogy>  (40) 
COc1ccccc1N=c1[n-]c(=Nc2ccccc2)[n-]c(=NCC(c2ccccc2)c2ccccc2)[nH]1 (protonated)
COc1ccccc1N=c1[n-]/c(=N\c2ccccc2)[n-]/c(=N/CC(c2ccccc2)c2ccccc2)[nH]1 (cis-trans isomerization)
COc1ccccc1N=c1[n-]/c(=N\c2ccccc2)[n-]/c(=N/CC(c2ccccc2)c2ccccc2)[nH]1 (3D coordinates assigned)
COc1ccccc1N=c1[n-]/c(=N\c2ccccc2)[n-]/c(=N/CC(c2ccccc2)c2ccccc2)[nH]1 (optimized conformer: 86.03057121020586 kcal/mol)

>  <smiles>  (40) 
COc1ccccc1N=c1[nH]c(=NCC(c2ccccc2)c2ccccc2)[nH]c(=Nc2ccccc2)[nH]1

>  <score_type>  (40) 
oracle

>  <origin>  (40) 
adg

>  <m_score__min__energy>  (40) 
-13.59

>  <m_primary>  (40) 
energy

$$$$
40:0
     RDKit          3D

 34 37  0  0  0  0  0  0  0  0999 V2000
   60.0880   33.5770   46.8090 C   0  0  0  0  0  0  0  0  0  0  0  0
   60.3390   32.1820   46.9490 O   0  0  0  0  0  0  0  0  0  0  0  0
   59.5350   31.1740   46.3970 C   0  0  0  0  0  0  0  0  0  0  0  0
   58.2750   31.4480   45.7940 C   0  0  0  0  0  0  0  0  0  0  0  0
   57.4930   30.4030   45.2470 C   0  0  0  0  0  0  0  0  0  0  0  0
   56.2450   30.6120   44.6410 O   0  0  0  0  0  0  0  0  0  0  0  0
   55.8740   30.0840   43.3710 C   0  0  0  0  0  0  0  0  0  0  0  0
   58.0050   29.1100   45.3230 C   0  0  0  0  0  0  0  0  0  0  0  0
   57.4540   28.0040   44.8850 O   0  0  0  0  0  0  0  0  0  0  0  0
   58.2810   27.0120   45.1650 C   0  0  0  0  0  0  0  0  0  0  0  0
   58.0060   25.6090   44.8260 C   0  0  0  0  0  0  0  0  0  0  0  0
   58.5290   24.4840   45.4750 C   0  0  0  0  0  0  0  0  0  0  0  0
   58.0130   23.4260   44.8350 N   0  0  0  0  0  0  0  0  0  0  0  0
   58.0790   22.0820   44.9180 C   0  0  0  0  0  0  0  0  0  0  0  0
   57.2870   21.4670   43.9350 C   0  0  0  0  0  0  0  0  0  0  0  0
   56.5170   22.6670   42.9790 S   0  0  0  0  0  0  0  0  0  0  0  0
   57.2400   23.8850   43.8740 C   0  0  0  0  0  0  0  0  0  0  0  0
   57.1880   25.2240   43.8090 N   0  0  0  0  0  0  0  0  0  0  0  0
   59.4190   27.4870   45.8130 C   0  0  0  0  0  0  0  0  0  0  0  0
   59.2150   28.8440   45.9010 C   0  0  0  0  0  0  0  0  0  0  0  0
   60.0080   29.8470   46.4480 C   0  0  0  0  0  0  0  0  0  0  0  0
   60.0053   34.0365   47.8050 H   0  0  0  0  0  0  0  0  0  0  0  0
   60.9164   34.0450   46.2569 H   0  0  0  0  0  0  0  0  0  0  0  0
   59.1485   33.7269   46.2569 H   0  0  0  0  0  0  0  0  0  0  0  0
   57.9052   32.4831   45.7528 H   0  0  0  0  0  0  0  0  0  0  0  0
   55.2470   29.1916   43.5139 H   0  0  0  0  0  0  0  0  0  0  0  0
   55.3094   30.8427   42.8092 H   0  0  0  0  0  0  0  0  0  0  0  0
   56.7792   29.8100   42.8092 H   0  0  0  0  0  0  0  0  0  0  0  0
   59.2193   24.4714   46.3314 H   0  0  0  0  0  0  0  0  0  0  0  0
   58.6777   21.5360   45.6619 H   0  0  0  0  0  0  0  0  0  0  0  0
   57.1767   20.3811   43.7983 H   0  0  0  0  0  0  0  0  0  0  0  0
   56.6500   25.8190   43.1400 H   0  0  0  0  0  0  0  0  0  0  0  0
   60.2831   26.9088   46.1721 H   0  0  0  0  0  0  0  0  0  0  0  0
   60.9788   29.6111   46.9083 H   0  0  0  0  0  0  0  0  0  0  0  0
  1  2  1  0
  2  3  1  0
  3  4  2  0
  4  5  1  0
  5  6  1  0
  6  7  1  0
  5  8  2  0
  8  9  1  0
  9 10  1  0
 10 11  1  0
 11 12  2  0
 12 13  1  0
 13 14  1  0
 14 15  2  0
 15 16  1  0
 16 17  1  0
 17 18  2  0
 10 19  2  0
 19 20  1  0
 20 21  2  0
 21  3  1  0
 20  8  1  0
 18 11  1  0
 17 13  1  0
  1 22  1  0
  1 23  1  0
  1 24  1  0
  4 25  1  0
  7 26  1  0
  7 27  1  0
  7 28  1  0
 12 29  1  0
 14 30  1  0
 15 31  1  0
 18 32  1  0
 19 33  1  0
 21 34  1  0
M  CHG  1  18   1
M  END
>  <UniqueID>  (41) 
37

>  <SMILES>  (41) 
COc1cc(OC)c2oc(-c3cn4ccsc4[nH+]3)cc2c1

>  <Energy>  (41) 
149.27173944183832

>  <Genealogy>  (41) 
COc1cc(OC)c2oc(-c3cn4ccsc4[nH+]3)cc2c1 (protonated)
COc1cc(OC)c2oc(-c3cn4ccsc4[nH+]3)cc2c1 (3D coordinates assigned)
COc1cc(OC)c2oc(-c3cn4ccsc4[nH+]3)cc2c1 (optimized conformer: 149.27173944183832 kcal/mol)

>  <smiles>  (41) 
COc1cc(OC)c2oc(-c3cn4ccsc4n3)cc2c1

>  <score_type>  (41) 
oracle

>  <origin>  (41) 
adg

>  <m_score__min__energy>  (41) 
-5.3899999999999997

>  <m_primary>  (41) 
energy

$$$$
41:0
     RDKit          3D

 40 42  0  0  0  0  0  0  0  0999 V2000
   62.9210   33.8290   46.4460 C   0  0  0  0  0  0  0  0  0  0  0  0
   63.3610   32.2750   47.2830 S   0  0  0  0  0  0  0  0  0  0  0  0
   61.8700   32.2560   48.2730 C   0  0  0  0  0  0  0  0  0  0  0  0
   61.3830   33.4100   48.7880 N   0  0  0  0  0  0  0  0  0  0  0  0
   60.2540   33.4150   49.5390 C   0  0  0  0  0  0  0  0  0  0  0  0
   59.5710   32.2220   49.7950 C   0  0  0  0  0  0  0  0  0  0  0  0
   58.0990   32.3060   50.7580 Cl  0  0  0  0  0  0  0  0  0  0  0  0
   60.0930   31.0230   49.2560 C   0  0  0  0  0  0  0  0  0  0  0  0
   59.4690   29.6940   49.4540 C   0  0  0  0  0  0  0  0  0  0  0  0
   58.7670   29.4510   50.4710 O   0  0  0  0  0  0  0  0  0  0  0  0
   59.7260   28.6590   48.4960 N   0  0  0  0  0  0  0  0  0  0  0  0
   59.4300   28.6980   47.0920 C   0  0  0  0  0  0  0  0  0  0  0  0
   60.3170   28.1860   46.1290 C   0  0  0  0  0  0  0  0  0  0  0  0
   59.9790   28.2230   44.7760 C   0  0  0  0  0  0  0  0  0  0  0  0
   58.7530   28.7550   44.3680 C   0  0  0  0  0  0  0  0  0  0  0  0
   57.8410   29.2500   45.3180 C   0  0  0  0  0  0  0  0  0  0  0  0
   56.5330   29.8020   44.8940 C   0  0  0  0  0  0  0  0  0  0  0  0
   55.5320   29.0420   44.7970 O   0  0  0  0  0  0  0  0  0  0  0  0
   56.3950   31.2090   44.6450 N   0  0  0  0  0  0  0  0  0  0  0  0
   57.3170   32.2400   45.0260 C   0  0  0  0  0  0  0  0  0  0  0  0
   57.4090   32.7100   46.3490 C   0  0  0  0  0  0  0  0  0  0  0  0
   58.3070   33.7340   46.6710 C   0  0  0  0  0  0  0  0  0  0  0  0
   59.1060   34.3040   45.6770 C   0  0  0  0  0  0  0  0  0  0  0  0
   59.0020   33.8580   44.3580 C   0  0  0  0  0  0  0  0  0  0  0  0
   58.1060   32.8360   44.0310 C   0  0  0  0  0  0  0  0  0  0  0  0
   58.1910   29.2070   46.6820 C   0  0  0  0  0  0  0  0  0  0  0  0
   61.2290   31.0830   48.5090 N   0  0  0  0  0  0  0  0  0  0  0  0
   62.7023   34.6014   47.1981 H   0  0  0  0  0  0  0  0  0  0  0  0
   63.7615   34.1573   45.8169 H   0  0  0  0  0  0  0  0  0  0  0  0
   62.0331   33.6680   45.8169 H   0  0  0  0  0  0  0  0  0  0  0  0
   59.8735   34.3622   49.9489 H   0  0  0  0  0  0  0  0  0  0  0  0
   61.2793   27.7554   46.4429 H   0  0  0  0  0  0  0  0  0  0  0  0
   60.6817   27.8311   44.0260 H   0  0  0  0  0  0  0  0  0  0  0  0
   58.4995   28.7869   43.2981 H   0  0  0  0  0  0  0  0  0  0  0  0
   56.7734   32.2714   47.1324 H   0  0  0  0  0  0  0  0  0  0  0  0
   58.3838   34.0907   47.7087 H   0  0  0  0  0  0  0  0  0  0  0  0
   59.8166   35.1036   45.9332 H   0  0  0  0  0  0  0  0  0  0  0  0
   59.6265   34.3118   43.5744 H   0  0  0  0  0  0  0  0  0  0  0  0
   58.0192   32.4974   42.9880 H   0  0  0  0  0  0  0  0  0  0  0  0
   57.4812   29.5784   47.4358 H   0  0  0  0  0  0  0  0  0  0  0  0
  1  2  1  0
  2  3  1  0
  3  4  2  0
  4  5  1  0
  5  6  2  0
  6  7  1  0
  6  8  1  0
  8  9  1  0
  9 10  2  0
  9 11  1  0
 11 12  1  0
 12 13  2  0
 13 14  1  0
 14 15  2  0
 15 16  1  0
 16 17  1  0
 17 18  2  0
 17 19  1  0
 19 20  1  0
 20 21  2  0
 21 22  1  0
 22 23  2  0
 23 24  1  0
 24 25  2  0
 16 26  2  0
  8 27  2  0
 27  3  1  0
 26 12  1  0
 25 20  1  0
  1 28  1  0
  1 29  1  0
  1 30  1  0
  5 31  1  0
 13 32  1  0
 14 33  1  0
 15 34  1  0
 21 35  1  0
 22 36  1  0
 23 37  1  0
 24 38  1  0
 25 39  1  0
 26 40  1  0
M  CHG  2  11  -1  19  -1
M  END
>  <UniqueID>  (42) 
38

>  <SMILES>  (42) 
CSc1ncc(Cl)c(C(=O)[N-]c2cccc(C(=O)[N-]c3ccccc3)c2)n1

>  <Energy>  (42) 
50.60211015510864

>  <Genealogy>  (42) 
CSc1ncc(Cl)c(C(=O)[N-]c2cccc(C(=O)[N-]c3ccccc3)c2)n1 (protonated)
CSc1ncc(Cl)c(C(=O)[N-]c2cccc(C(=O)[N-]c3ccccc3)c2)n1 (3D coordinates assigned)
CSc1ncc(Cl)c(C(=O)[N-]c2cccc(C(=O)[N-]c3ccccc3)c2)n1 (optimized conformer: 50.60211015510864 kcal/mol)

>  <smiles>  (42) 
CSc1ncc(Cl)c(C(=O)Nc2cccc(C(=O)Nc3ccccc3)c2)n1

>  <score_type>  (42) 
oracle

>  <origin>  (42) 
adg

>  <m_score__min__energy>  (42) 
-11.470000000000001

>  <m_primary>  (42) 
energy

$$$$
42:0
     RDKit          3D

 53 55  0  0  0  0  0  0  0  0999 V2000
   65.0740   33.3770   51.7640 C   0  0  0  0  0  0  0  0  0  0  0  0
   65.2710   32.3800   50.6860 N   0  0  0  0  0  0  0  0  0  0  0  0
   66.6430   31.8290   50.8020 C   0  0  0  0  0  0  0  0  0  0  0  0
   64.2860   31.2880   50.8730 C   0  0  0  0  0  0  0  0  0  0  0  0
   65.0720   33.0660   49.3730 C   0  0  0  0  0  0  0  0  0  0  0  0
   63.6540   32.9940   48.8520 C   0  0  0  0  0  0  0  0  0  0  0  0
   63.3370   32.2090   47.7330 C   0  0  0  0  0  0  0  0  0  0  0  0
   62.0440   32.2510   47.2120 C   0  0  0  0  0  0  0  0  0  0  0  0
   61.0740   33.0620   47.8140 C   0  0  0  0  0  0  0  0  0  0  0  0
   59.5300   33.3610   47.0250 S   0  0  0  0  0  0  0  0  0  0  0  0
   58.8770   34.5960   47.5810 O   0  0  0  0  0  0  0  0  0  0  0  0
   59.7560   33.5420   45.5510 O   0  0  0  0  0  0  0  0  0  0  0  0
   58.5020   31.9890   47.2960 N   0  0  0  0  0  0  0  0  0  0  0  0
   58.4740   30.9110   46.3500 C   0  0  0  0  0  0  0  0  0  0  0  0
   57.7420   31.0620   45.1600 C   0  0  0  0  0  0  0  0  0  0  0  0
   57.6500   30.0150   44.2440 C   0  0  0  0  0  0  0  0  0  0  0  0
   58.2990   28.8060   44.4970 C   0  0  0  0  0  0  0  0  0  0  0  0
   58.1550   27.4810   43.3570 Cl  0  0  0  0  0  0  0  0  0  0  0  0
   59.0500   28.6470   45.6650 C   0  0  0  0  0  0  0  0  0  0  0  0
   59.1480   29.6910   46.6040 C   0  0  0  0  0  0  0  0  0  0  0  0
   59.9040   29.4580   47.8620 C   0  0  0  0  0  0  0  0  0  0  0  0
   61.1520   29.3010   47.8190 O   0  0  0  0  0  0  0  0  0  0  0  0
   59.2690   29.5360   49.1480 N   0  0  0  0  0  0  0  0  0  0  0  0
   59.2460   30.5520   49.9660 C   0  0  0  0  0  0  0  0  0  0  0  0
   60.3640   30.9380   50.7370 C   0  0  0  0  0  0  0  0  0  0  0  0
   60.2630   32.0360   51.5920 C   0  0  0  0  0  0  0  0  0  0  0  0
   59.0680   32.7520   51.6680 C   0  0  0  0  0  0  0  0  0  0  0  0
   58.9280   34.1330   52.7400 Cl  0  0  0  0  0  0  0  0  0  0  0  0
   57.9880   32.3610   50.8760 C   0  0  0  0  0  0  0  0  0  0  0  0
   58.1020   31.2870   50.0520 N   0  0  0  0  0  0  0  0  0  0  0  0
   61.4140   33.7860   48.9610 C   0  0  0  0  0  0  0  0  0  0  0  0
   62.6840   33.7410   49.4440 N   0  0  0  0  0  0  0  0  0  0  0  0
   65.1715   32.8834   52.7422 H   0  0  0  0  0  0  0  0  0  0  0  0
   65.8332   34.1680   51.6751 H   0  0  0  0  0  0  0  0  0  0  0  0
   64.0710   33.8198   51.6751 H   0  0  0  0  0  0  0  0  0  0  0  0
   66.9069   31.7230   51.8646 H   0  0  0  0  0  0  0  0  0  0  0  0
   66.6851   30.8442   50.3137 H   0  0  0  0  0  0  0  0  0  0  0  0
   67.3546   32.5111   50.3137 H   0  0  0  0  0  0  0  0  0  0  0  0
   64.1300   31.1151   51.9481 H   0  0  0  0  0  0  0  0  0  0  0  0
   63.3316   31.5709   50.4049 H   0  0  0  0  0  0  0  0  0  0  0  0
   64.6655   30.3678   50.4049 H   0  0  0  0  0  0  0  0  0  0  0  0
   65.3441   34.1253   49.4910 H   0  0  0  0  0  0  0  0  0  0  0  0
   65.7075   32.5454   48.6415 H   0  0  0  0  0  0  0  0  0  0  0  0
   64.1011   31.5665   47.2711 H   0  0  0  0  0  0  0  0  0  0  0  0
   61.7864   31.6477   46.3291 H   0  0  0  0  0  0  0  0  0  0  0  0
   57.7580   32.0660   48.0230 H   0  0  0  0  0  0  0  0  0  0  0  0
   57.2365   32.0159   44.9491 H   0  0  0  0  0  0  0  0  0  0  0  0
   57.0653   30.1422   43.3210 H   0  0  0  0  0  0  0  0  0  0  0  0
   59.5700   27.6959   45.8524 H   0  0  0  0  0  0  0  0  0  0  0  0
   61.3076   30.3773   50.6642 H   0  0  0  0  0  0  0  0  0  0  0  0
   61.1249   32.3369   52.2057 H   0  0  0  0  0  0  0  0  0  0  0  0
   57.0433   32.9229   50.9188 H   0  0  0  0  0  0  0  0  0  0  0  0
   60.6528   34.3928   49.4732 H   0  0  0  0  0  0  0  0  0  0  0  0
  1  2  1  0
  2  3  1  0
  2  4  1  0
  2  5  1  0
  5  6  1  0
  6  7  2  0
  7  8  1  0
  8  9  2  0
  9 10  1  0
 10 11  2  0
 10 12  2  0
 10 13  1  0
 13 14  1  0
 14 15  2  0
 15 16  1  0
 16 17  2  0
 17 18  1  0
 17 19  1  0
 19 20  2  0
 20 21  1  0
 21 22  2  0
 21 23  1  0
 23 24  2  3
 24 25  1  0
 25 26  2  0
 26 27  1  0
 27 28  1  0
 27 29  2  0
 29 30  1  0
  9 31  1  0
 31 32  2  0
 32  6  1  0
 20 14  1  0
 30 24  1  0
  1 33  1  0
  1 34  1  0
  1 35  1  0
  3 36  1  0
  3 37  1  0
  3 38  1  0
  4 39  1  0
  4 40  1  0
  4 41  1  0
  5 42  1  0
  5 43  1  0
  7 44  1  0
  8 45  1  0
 13 46  1  0
 15 47  1  0
 16 48  1  0
 19 49  1  0
 25 50  1  0
 26 51  1  0
 29 52  1  0
 31 53  1  0
M  CHG  2   2   1  30  -1
M  END
>  <UniqueID>  (43) 
39

>  <SMILES>  (43) 
C[N+](C)(C)Cc1ccc(S(=O)(=O)Nc2ccc(Cl)cc2C(=O)N=c2ccc(Cl)c[n-]2)cn1

>  <Energy>  (43) 
76.66249988732795

>  <Genealogy>  (43) 
C[N+](C)(C)Cc1ccc(S(=O)(=O)Nc2ccc(Cl)cc2C(=O)N=c2ccc(Cl)c[n-]2)cn1 (protonated)
C[N+](C)(C)Cc1ccc(S(=O)(=O)Nc2ccc(Cl)cc2C(=O)N=c2ccc(Cl)c[n-]2)cn1 (3D coordinates assigned)
C[N+](C)(C)Cc1ccc(S(=O)(=O)Nc2ccc(Cl)cc2C(=O)N=c2ccc(Cl)c[n-]2)cn1 (optimized conformer: 76.66249988732795 kcal/mol)

>  <smiles>  (43) 
C[N+](C)(C)Cc1ccc(S(=O)(=O)Nc2ccc(Cl)cc2C(=O)N=c2ccc(Cl)c[nH]2)cn1

>  <score_type>  (43) 
oracle

>  <origin>  (43) 
adg

>  <m_score__min__energy>  (43) 
-10.59

>  <m_primary>  (43) 
energy

$$$$
43:0
     RDKit          3D

 34 36  0  0  0  0  0  0  0  0999 V2000
   56.1089   23.4429   41.9614 H   0  0  0  0  0  0  0  0  0  0  0  0
   56.1480   23.0770   42.9980 C   0  0  0  0  0  0  0  0  0  0  0  0
   56.9910   21.7270   43.5360 S   0  0  0  0  0  0  0  0  0  0  0  0
   56.5560   21.8510   45.1540 C   0  0  0  0  0  0  0  0  0  0  0  0
   56.8735   21.1759   45.9624 H   0  0  0  0  0  0  0  0  0  0  0  0
   55.7240   22.9570   45.2920 C   0  0  0  0  0  0  0  0  0  0  0  0
   55.1800   23.4100   46.6170 C   0  0  0  0  0  0  0  0  0  0  0  0
   55.0941   22.5411   47.2861 H   0  0  0  0  0  0  0  0  0  0  0  0
   54.1944   23.8694   46.4513 H   0  0  0  0  0  0  0  0  0  0  0  0
   56.0580   24.4040   47.2350 N   0  0  0  0  0  0  0  0  0  0  0  0
   56.8480   25.2640   46.6520 C   0  0  0  0  0  0  0  0  0  0  0  0
   56.3810   26.5390   46.0400 C   0  0  0  0  0  0  0  0  0  0  0  0
   55.1680   26.6930   45.7420 O   0  0  0  0  0  0  0  0  0  0  0  0
   57.3620   27.6300   45.7670 C   0  0  0  0  0  0  0  0  0  0  0  0
   56.9540   28.8750   45.2220 C   0  0  0  0  0  0  0  0  0  0  0  0
   55.6040   29.0810   44.8920 O   0  0  0  0  0  0  0  0  0  0  0  0
   55.1430   29.7160   43.7040 C   0  0  0  0  0  0  0  0  0  0  0  0
   54.5159   30.5798   43.9696 H   0  0  0  0  0  0  0  0  0  0  0  0
   56.0053   30.0570   43.1123 H   0  0  0  0  0  0  0  0  0  0  0  0
   54.5517   29.0017   43.1123 H   0  0  0  0  0  0  0  0  0  0  0  0
   57.9120   29.8890   45.0230 C   0  0  0  0  0  0  0  0  0  0  0  0
   57.6022   30.8547   44.5970 H   0  0  0  0  0  0  0  0  0  0  0  0
   59.2460   29.6810   45.3600 C   0  0  0  0  0  0  0  0  0  0  0  0
   59.9817   30.4840   45.2050 H   0  0  0  0  0  0  0  0  0  0  0  0
   59.6530   28.4620   45.8920 C   0  0  0  0  0  0  0  0  0  0  0  0
   60.7093   28.3074   46.1572 H   0  0  0  0  0  0  0  0  0  0  0  0
   58.7250   27.4270   46.0930 C   0  0  0  0  0  0  0  0  0  0  0  0
   59.1780   26.1260   46.6380 C   0  0  0  0  0  0  0  0  0  0  0  0
   60.3370   26.0080   47.1210 O   0  0  0  0  0  0  0  0  0  0  0  0
   58.3020   24.9120   46.5500 C   0  0  0  0  0  0  0  0  0  0  0  0
   58.5605   24.2265   47.3705 H   0  0  0  0  0  0  0  0  0  0  0  0
   58.4709   24.4396   45.5711 H   0  0  0  0  0  0  0  0  0  0  0  0
   55.5100   23.6500   44.0880 C   0  0  0  0  0  0  0  0  0  0  0  0
   54.8954   24.5596   44.0171 H   0  0  0  0  0  0  0  0  0  0  0  0
  1  2  1  0
  2  3  1  0
  3  4  1  0
  4  5  1  0
  4  6  2  0
  6  7  1  0
  7  8  1  0
  7  9  1  0
  7 10  1  0
 10 11  2  0
 11 12  1  0
 12 13  2  0
 12 14  1  0
 14 15  2  0
 15 16  1  0
 16 17  1  0
 17 18  1  0
 17 19  1  0
 17 20  1  0
 15 21  1  0
 21 22  1  0
 21 23  2  0
 23 24  1  0
 23 25  1  0
 25 26  1  0
 25 27  2  0
 27 28  1  0
 28 29  2  0
 28 30  1  0
 30 31  1  0
 30 32  1  0
  6 33  1  0
 33 34  1  0
 33  2  2  0
 30 11  1  0
 27 14  1  0
M  END
>  <UniqueID>  (44) 
40

>  <SMILES>  (44) 
COc1cccc2c1C(=O)/C(=N\Cc1ccsc1)CC2=O

>  <Energy>  (44) 
69.07753611233636

>  <Genealogy>  (44) 
COc1cccc2c1C(=O)/C(=N\Cc1ccsc1)CC2=O (cis-trans isomerization)
COc1cccc2c1C(=O)/C(=N\Cc1ccsc1)CC2=O (3D coordinates assigned)
COc1cccc2c1C(=O)/C(=N\Cc1ccsc1)CC2=O (nonaromatic ring conformer: 69.07753611233636 kcal/mol)

>  <smiles>  (44) 
COc1cccc2c1C(=O)C(=NCc1ccsc1)CC2=O

>  <score_type>  (44) 
oracle

>  <origin>  (44) 
adg

>  <m_score__min__energy>  (44) 
-8.3200000000000003

>  <m_primary>  (44) 
energy

$$$$
44:0
     RDKit          3D

 46 48  0  0  0  0  0  0  0  0999 V2000
   62.9750   33.3650   47.1360 C   0  0  0  0  0  0  0  0  0  0  0  0
   62.8820   32.3540   48.1330 O   0  0  0  0  0  0  0  0  0  0  0  0
   61.9110   31.3410   48.1440 C   0  0  0  0  0  0  0  0  0  0  0  0
   61.4400   30.8860   49.3810 C   0  0  0  0  0  0  0  0  0  0  0  0
   60.4670   29.8830   49.4450 C   0  0  0  0  0  0  0  0  0  0  0  0
   59.9510   29.3200   48.2650 C   0  0  0  0  0  0  0  0  0  0  0  0
   58.9470   28.2990   48.2840 N   0  0  0  0  0  0  0  0  0  0  0  0
   58.6070   27.1950   46.9890 S   0  0  0  0  0  0  0  0  0  0  0  0
   57.5850   26.1880   47.4330 O   0  0  0  0  0  0  0  0  0  0  0  0
   59.8820   26.5030   46.5960 O   0  0  0  0  0  0  0  0  0  0  0  0
   57.9680   28.0940   45.6110 C   0  0  0  0  0  0  0  0  0  0  0  0
   57.5320   29.4120   45.7990 C   0  0  0  0  0  0  0  0  0  0  0  0
   57.0840   30.1790   44.7130 C   0  0  0  0  0  0  0  0  0  0  0  0
   56.6670   31.5440   44.8760 N   0  0  0  0  0  0  0  0  0  0  0  0
   57.5080   32.7040   44.8010 C   0  0  0  0  0  0  0  0  0  0  0  0
   57.6720   33.2600   43.6830 O   0  0  0  0  0  0  0  0  0  0  0  0
   58.2180   33.2400   45.9860 C   0  0  0  0  0  0  0  0  0  0  0  0
   58.9940   34.4080   45.9040 C   0  0  0  0  0  0  0  0  0  0  0  0
   59.6710   34.8810   47.0280 C   0  0  0  0  0  0  0  0  0  0  0  0
   59.5630   34.1860   48.2350 C   0  0  0  0  0  0  0  0  0  0  0  0
   60.1730   34.5950   49.2580 O   0  0  0  0  0  0  0  0  0  0  0  0
   58.7950   33.0670   48.3080 N   0  0  0  0  0  0  0  0  0  0  0  0
   58.1230   32.5890   47.2270 C   0  0  0  0  0  0  0  0  0  0  0  0
   57.0060   29.5930   43.4470 C   0  0  0  0  0  0  0  0  0  0  0  0
   57.4020   28.2680   43.2560 C   0  0  0  0  0  0  0  0  0  0  0  0
   57.8920   27.5040   44.3350 C   0  0  0  0  0  0  0  0  0  0  0  0
   58.2960   26.1700   44.1740 O   0  0  0  0  0  0  0  0  0  0  0  0
   57.4080   25.0610   44.0750 C   0  0  0  0  0  0  0  0  0  0  0  0
   60.4280   29.7700   47.0280 C   0  0  0  0  0  0  0  0  0  0  0  0
   61.3990   30.7720   46.9630 C   0  0  0  0  0  0  0  0  0  0  0  0
   63.0655   34.3491   47.6191 H   0  0  0  0  0  0  0  0  0  0  0  0
   63.8601   33.1815   46.5091 H   0  0  0  0  0  0  0  0  0  0  0  0
   62.0713   33.3460   46.5091 H   0  0  0  0  0  0  0  0  0  0  0  0
   61.8380   31.3204   50.3099 H   0  0  0  0  0  0  0  0  0  0  0  0
   60.1042   29.5334   50.4228 H   0  0  0  0  0  0  0  0  0  0  0  0
   57.5410   29.8499   46.8081 H   0  0  0  0  0  0  0  0  0  0  0  0
   59.0680   34.9513   44.9504 H   0  0  0  0  0  0  0  0  0  0  0  0
   60.2839   35.7922   46.9647 H   0  0  0  0  0  0  0  0  0  0  0  0
   57.5011   31.6869   47.3249 H   0  0  0  0  0  0  0  0  0  0  0  0
   56.6302   30.1793   42.5955 H   0  0  0  0  0  0  0  0  0  0  0  0
   57.3312   27.8163   42.2555 H   0  0  0  0  0  0  0  0  0  0  0  0
   57.1343   24.7192   45.0841 H   0  0  0  0  0  0  0  0  0  0  0  0
   56.5008   25.3650   43.5322 H   0  0  0  0  0  0  0  0  0  0  0  0
   57.9030   24.2422   43.5322 H   0  0  0  0  0  0  0  0  0  0  0  0
   60.0347   29.3307   46.0994 H   0  0  0  0  0  0  0  0  0  0  0  0
   61.7649   31.1177   45.9849 H   0  0  0  0  0  0  0  0  0  0  0  0
  1  2  1  0
  2  3  1  0
  3  4  2  0
  4  5  1  0
  5  6  2  0
  6  7  1  0
  7  8  1  0
  8  9  2  0
  8 10  2  0
  8 11  1  0
 11 12  2  0
 12 13  1  0
 13 14  1  0
 14 15  1  0
 15 16  2  0
 15 17  1  0
 17 18  1  0
 18 19  2  0
 19 20  1  0
 20 21  2  0
 20 22  1  0
 22 23  1  0
 13 24  2  0
 24 25  1  0
 25 26  2  0
 26 27  1  0
 27 28  1  0
  6 29  1  0
 29 30  2  0
 30  3  1  0
 26 11  1  0
 23 17  2  0
  1 31  1  0
  1 32  1  0
  1 33  1  0
  4 34  1  0
  5 35  1  0
 12 36  1  0
 18 37  1  0
 19 38  1  0
 23 39  1  0
 24 40  1  0
 25 41  1  0
 28 42  1  0
 28 43  1  0
 28 44  1  0
 29 45  1  0
 30 46  1  0
M  CHG  3   7  -1  14  -1  22  -1
M  END
>  <UniqueID>  (45) 
41

>  <SMILES>  (45) 
COc1ccc([N-]S(=O)(=O)c2cc([N-]C(=O)c3ccc(=O)[n-]c3)ccc2OC)cc1

>  <Energy>  (45) 
58.431463827122265

>  <Genealogy>  (45) 
COc1ccc([N-]S(=O)(=O)c2cc([N-]C(=O)c3ccc(=O)[n-]c3)ccc2OC)cc1 (protonated)
COc1ccc([N-]S(=O)(=O)c2cc([N-]C(=O)c3ccc(=O)[n-]c3)ccc2OC)cc1 (3D coordinates assigned)
COc1ccc([N-]S(=O)(=O)c2cc([N-]C(=O)c3ccc(=O)[n-]c3)ccc2OC)cc1 (optimized conformer: 58.431463827122265 kcal/mol)

>  <smiles>  (45) 
COc1ccc(NS(=O)(=O)c2cc(NC(=O)c3ccc(=O)[nH]c3)ccc2OC)cc1

>  <score_type>  (45) 
oracle

>  <origin>  (45) 
adg

>  <m_score__min__energy>  (45) 
-12.9

>  <m_primary>  (45) 
energy

$$$$
45:0
     RDKit          3D

 38 40  0  0  0  0  0  0  0  0999 V2000
   56.0460   30.7160   44.6310 O   0  0  0  0  0  0  0  0  0  0  0  0
   57.2630   30.9310   44.3870 C   0  0  0  0  0  0  0  0  0  0  0  0
   57.6890   32.3130   43.9570 C   0  0  0  0  0  0  0  0  0  0  0  0
   58.2450   33.1010   45.1140 C   0  0  0  0  0  0  0  0  0  0  0  0
   57.9490   32.7210   46.4350 C   0  0  0  0  0  0  0  0  0  0  0  0
   58.4810   33.4370   47.5110 C   0  0  0  0  0  0  0  0  0  0  0  0
   59.3100   34.5380   47.2790 C   0  0  0  0  0  0  0  0  0  0  0  0
   59.6020   34.9280   45.9690 C   0  0  0  0  0  0  0  0  0  0  0  0
   59.0700   34.2180   44.8900 C   0  0  0  0  0  0  0  0  0  0  0  0
   58.2060   29.8700   44.5930 N   0  0  0  0  0  0  0  0  0  0  0  0
   57.9530   28.6580   45.3130 C   0  0  0  0  0  0  0  0  0  0  0  0
   58.9790   28.0910   46.0760 C   0  0  0  0  0  0  0  0  0  0  0  0
   58.7540   26.9100   46.7890 C   0  0  0  0  0  0  0  0  0  0  0  0
   57.4990   26.2970   46.7520 C   0  0  0  0  0  0  0  0  0  0  0  0
   56.4590   26.8610   45.9930 C   0  0  0  0  0  0  0  0  0  0  0  0
   55.1460   26.2830   45.9700 N   0  0  0  0  0  0  0  0  0  0  0  0
   54.8250   24.9310   45.6200 C   0  0  0  0  0  0  0  0  0  0  0  0
   53.7490   24.4340   46.0460 O   0  0  0  0  0  0  0  0  0  0  0  0
   55.6800   24.1380   44.7180 C   0  0  0  0  0  0  0  0  0  0  0  0
   57.0050   23.8190   44.9390 C   0  0  0  0  0  0  0  0  0  0  0  0
   57.3920   23.0640   43.8530 C   0  0  0  0  0  0  0  0  0  0  0  0
   56.2820   22.9660   43.0400 C   0  0  0  0  0  0  0  0  0  0  0  0
   55.2770   23.6130   43.5830 O   0  0  0  0  0  0  0  0  0  0  0  0
   56.6830   28.0600   45.3040 C   0  0  0  0  0  0  0  0  0  0  0  0
   58.4626   32.2236   43.1801 H   0  0  0  0  0  0  0  0  0  0  0  0
   56.8063   32.8427   43.5694 H   0  0  0  0  0  0  0  0  0  0  0  0
   57.2957   31.8561   46.6225 H   0  0  0  0  0  0  0  0  0  0  0  0
   58.2469   33.1335   48.5420 H   0  0  0  0  0  0  0  0  0  0  0  0
   59.7324   35.0972   48.1268 H   0  0  0  0  0  0  0  0  0  0  0  0
   60.2524   35.7963   45.7872 H   0  0  0  0  0  0  0  0  0  0  0  0
   59.2972   34.5337   43.8611 H   0  0  0  0  0  0  0  0  0  0  0  0
   59.9656   28.5758   46.1151 H   0  0  0  0  0  0  0  0  0  0  0  0
   59.5664   26.4624   47.3803 H   0  0  0  0  0  0  0  0  0  0  0  0
   57.3243   25.3704   47.3185 H   0  0  0  0  0  0  0  0  0  0  0  0
   57.6230   24.1074   45.8021 H   0  0  0  0  0  0  0  0  0  0  0  0
   58.3853   22.6277   43.6712 H   0  0  0  0  0  0  0  0  0  0  0  0
   56.2446   22.4273   42.0817 H   0  0  0  0  0  0  0  0  0  0  0  0
   55.8587   28.5358   44.7526 H   0  0  0  0  0  0  0  0  0  0  0  0
  1  2  2  0
  2  3  1  0
  3  4  1  0
  4  5  2  0
  5  6  1  0
  6  7  2  0
  7  8  1  0
  8  9  2  0
  2 10  1  0
 10 11  1  0
 11 12  2  0
 12 13  1  0
 13 14  2  0
 14 15  1  0
 15 16  1  0
 16 17  1  0
 17 18  2  0
 17 19  1  0
 19 20  2  0
 20 21  1  0
 21 22  2  0
 22 23  1  0
 15 24  2  0
  9  4  1  0
 24 11  1  0
 23 19  1  0
  3 25  1  0
  3 26  1  0
  5 27  1  0
  6 28  1  0
  7 29  1  0
  8 30  1  0
  9 31  1  0
 12 32  1  0
 13 33  1  0
 14 34  1  0
 20 35  1  0
 21 36  1  0
 22 37  1  0
 24 38  1  0
M  CHG  2  10  -1  16  -1
M  END
>  <UniqueID>  (46) 
42

>  <SMILES>  (46) 
O=C(Cc1ccccc1)[N-]c1cccc([N-]C(=O)c2ccco2)c1

>  <Energy>  (46) 
72.55949750210735

>  <Genealogy>  (46) 
O=C(Cc1ccccc1)[N-]c1cccc([N-]C(=O)c2ccco2)c1 (protonated)
O=C(Cc1ccccc1)[N-]c1cccc([N-]C(=O)c2ccco2)c1 (3D coordinates assigned)
O=C(Cc1ccccc1)[N-]c1cccc([N-]C(=O)c2ccco2)c1 (optimized conformer: 72.55949750210735 kcal/mol)

>  <smiles>  (46) 
O=C(Cc1ccccc1)Nc1cccc(NC(=O)c2ccco2)c1

>  <score_type>  (46) 
oracle

>  <origin>  (46) 
adg

>  <m_score__min__energy>  (46) 
-11.800000000000001

>  <m_primary>  (46) 
energy

$$$$
46:0
     RDKit          3D

 47 50  0  0  0  0  0  0  0  0999 V2000
   57.0721   19.8881   43.9636 H   0  0  0  0  0  0  0  0  0  0  0  0
   57.0750   20.9880   43.9520 C   0  0  0  0  0  0  0  0  0  0  0  0
   56.3030   21.6570   43.0520 N   0  0  0  0  0  0  0  0  0  0  0  0
   56.2790   23.0120   43.0050 C   0  0  0  0  0  0  0  0  0  0  0  0
   55.6468   23.5262   42.2662 H   0  0  0  0  0  0  0  0  0  0  0  0
   57.0590   23.7550   43.8970 C   0  0  0  0  0  0  0  0  0  0  0  0
   57.8610   23.0820   44.8290 C   0  0  0  0  0  0  0  0  0  0  0  0
   58.6170   23.7990   45.6930 N   0  0  0  0  0  0  0  0  0  0  0  0
   58.6300   25.1580   45.6930 C   0  0  0  0  0  0  0  0  0  0  0  0
   59.4030   25.7440   46.5610 N   0  0  0  0  0  0  0  0  0  0  0  0
   60.3550   26.8350   46.3680 C   0  0  0  0  0  0  0  0  0  0  0  0
   60.6840   27.2121   47.3476 H   0  0  0  0  0  0  0  0  0  0  0  0
   61.2256   26.4667   45.8056 H   0  0  0  0  0  0  0  0  0  0  0  0
   59.8722   27.6477   45.8056 H   0  0  0  0  0  0  0  0  0  0  0  0
   57.8110   25.8390   44.7480 C   0  0  0  0  0  0  0  0  0  0  0  0
   57.7200   27.2680   44.6810 N   0  0  0  0  0  0  0  0  0  0  0  0
   57.0220   27.9630   45.7650 C   0  0  0  0  0  0  0  0  0  0  0  0
   55.9377   27.8647   45.6082 H   0  0  0  0  0  0  0  0  0  0  0  0
   57.3329   27.5041   46.7151 H   0  0  0  0  0  0  0  0  0  0  0  0
   57.3820   29.4650   45.8240 C   0  0  0  0  0  0  0  0  0  0  0  0
   56.4785   30.0280   46.1010 H   0  0  0  0  0  0  0  0  0  0  0  0
   58.1879   29.5734   46.5648 H   0  0  0  0  0  0  0  0  0  0  0  0
   57.8970   30.0070   44.5400 N   0  0  0  0  0  0  0  0  0  0  0  0
   57.6850   31.4620   44.4800 C   0  0  0  0  0  0  0  0  0  0  0  0
   58.0330   31.8363   43.5059 H   0  0  0  0  0  0  0  0  0  0  0  0
   56.6118   31.6654   44.6101 H   0  0  0  0  0  0  0  0  0  0  0  0
   58.4430   32.1640   45.5770 C   0  0  0  0  0  0  0  0  0  0  0  0
   57.9780   33.3890   46.0890 C   0  0  0  0  0  0  0  0  0  0  0  0
   57.0566   33.8339   45.6852 H   0  0  0  0  0  0  0  0  0  0  0  0
   58.6720   34.0420   47.1000 C   0  0  0  0  0  0  0  0  0  0  0  0
   58.3039   35.0010   47.4934 H   0  0  0  0  0  0  0  0  0  0  0  0
   59.8330   33.4770   47.6110 C   0  0  0  0  0  0  0  0  0  0  0  0
   60.3796   33.9873   48.4178 H   0  0  0  0  0  0  0  0  0  0  0  0
   60.3140   32.2590   47.1050 C   0  0  0  0  0  0  0  0  0  0  0  0
   61.7550   31.5470   47.7620 Cl  0  0  0  0  0  0  0  0  0  0  0  0
   59.6260   31.6050   46.0870 C   0  0  0  0  0  0  0  0  0  0  0  0
   60.0070   30.6550   45.6840 H   0  0  0  0  0  0  0  0  0  0  0  0
   57.2730   29.3310   43.3930 C   0  0  0  0  0  0  0  0  0  0  0  0
   56.1788   29.3490   43.5042 H   0  0  0  0  0  0  0  0  0  0  0  0
   57.5483   29.8468   42.4613 H   0  0  0  0  0  0  0  0  0  0  0  0
   57.7600   27.8840   43.3470 C   0  0  0  0  0  0  0  0  0  0  0  0
   57.1142   27.3094   42.6667 H   0  0  0  0  0  0  0  0  0  0  0  0
   58.8008   27.8775   42.9909 H   0  0  0  0  0  0  0  0  0  0  0  0
   57.0520   25.1100   43.8820 N   0  0  0  0  0  0  0  0  0  0  0  0
   56.4440   25.6120   43.1960 H   0  0  0  0  0  0  0  0  0  0  0  0
   57.8700   21.6890   44.8600 C   0  0  0  0  0  0  0  0  0  0  0  0
   58.4938   21.1504   45.5885 H   0  0  0  0  0  0  0  0  0  0  0  0
  1  2  1  0
  2  3  2  0
  3  4  1  0
  4  5  1  0
  4  6  2  0
  6  7  1  0
  7  8  1  0
  8  9  1  0
  9 10  2  0
 10 11  1  0
 11 12  1  0
 11 13  1  0
 11 14  1  0
  9 15  1  0
 15 16  1  0
 16 17  1  0
 17 18  1  0
 17 19  1  0
 17 20  1  0
 20 21  1  0
 20 22  1  0
 20 23  1  0
 23 24  1  0
 24 25  1  0
 24 26  1  0
 24 27  1  0
 27 28  2  0
 28 29  1  0
 28 30  1  0
 30 31  1  0
 30 32  2  0
 32 33  1  0
 32 34  1  0
 34 35  1  0
 34 36  2  0
 36 37  1  0
 23 38  1  0
 38 39  1  0
 38 40  1  0
 38 41  1  0
 41 42  1  0
 41 43  1  0
 15 44  2  0
 44 45  1  0
  7 46  2  0
 46 47  1  0
 46  2  1  0
 44  6  1  0
 41 16  1  0
 36 27  1  0
M  CHG  2   8  -1  44   1
M  END
>  <UniqueID>  (47) 
43

>  <SMILES>  (47) 
C/N=c1/[n-]c2ccncc2[nH+]c1N1CCN(Cc2cccc(Cl)c2)CC1

>  <Energy>  (47) 
71.87151804494871

>  <Genealogy>  (47) 
CN=c1[n-]c2ccncc2[nH+]c1N1CCN(Cc2cccc(Cl)c2)CC1 (protonated)
C/N=c1/[n-]c2ccncc2[nH+]c1N1CCN(Cc2cccc(Cl)c2)CC1 (cis-trans isomerization)
C/N=c1/[n-]c2ccncc2[nH+]c1N1CCN(Cc2cccc(Cl)c2)CC1 (3D coordinates assigned)
C/N=c1/[n-]c2ccncc2[nH+]c1N1CCN(Cc2cccc(Cl)c2)CC1 (nonaromatic ring conformer: 71.87151804494871 kcal/mol)

>  <smiles>  (47) 
CN=c1[nH]c2ccncc2nc1N1CCN(Cc2cccc(Cl)c2)CC1

>  <score_type>  (47) 
oracle

>  <origin>  (47) 
adg

>  <m_score__min__energy>  (47) 
-8.6300000000000008

>  <m_primary>  (47) 
energy

$$$$
47:0
     RDKit          3D

 26 27  0  0  0  0  0  0  0  0999 V2000
   57.9110   30.1230   45.2300 C   0  0  0  0  0  0  0  0  0  0  0  0
   57.0020   28.9960   44.7030 C   0  0  0  0  0  0  0  0  0  0  0  0
   57.0080   29.0070   43.1700 C   0  0  0  0  0  0  0  0  0  0  0  0
   55.6820   29.2260   45.1360 O   0  0  0  0  0  0  0  0  0  0  0  0
   57.4780   27.6370   45.1810 C   0  0  0  0  0  0  0  0  0  0  0  0
   57.2440   26.4810   44.5170 N   0  0  0  0  0  0  0  0  0  0  0  0
   57.8610   25.4040   45.0850 C   0  0  0  0  0  0  0  0  0  0  0  0
   57.7460   24.0350   44.5410 C   0  0  0  0  0  0  0  0  0  0  0  0
   58.5460   22.9430   44.8660 C   0  0  0  0  0  0  0  0  0  0  0  0
   58.1930   21.7720   44.1830 C   0  0  0  0  0  0  0  0  0  0  0  0
   57.1190   21.9300   43.3180 C   0  0  0  0  0  0  0  0  0  0  0  0
   56.6090   23.5290   43.4050 S   0  0  0  0  0  0  0  0  0  0  0  0
   58.6180   25.7070   46.2170 C   0  0  0  0  0  0  0  0  0  0  0  0
   58.5060   27.3620   46.4880 S   0  0  0  0  0  0  0  0  0  0  0  0
   57.9046   30.1151   46.3300 H   0  0  0  0  0  0  0  0  0  0  0  0
   58.9377   29.9654   44.8681 H   0  0  0  0  0  0  0  0  0  0  0  0
   57.5396   31.0931   44.8681 H   0  0  0  0  0  0  0  0  0  0  0  0
   57.5061   29.9200   42.8118 H   0  0  0  0  0  0  0  0  0  0  0  0
   57.5496   28.1243   42.7991 H   0  0  0  0  0  0  0  0  0  0  0  0
   55.9727   28.9845   42.7991 H   0  0  0  0  0  0  0  0  0  0  0  0
   55.7270   29.7260   45.9950 H   0  0  0  0  0  0  0  0  0  0  0  0
   56.6670   26.4310   43.6500 H   0  0  0  0  0  0  0  0  0  0  0  0
   59.3741   22.9946   45.5883 H   0  0  0  0  0  0  0  0  0  0  0  0
   58.7185   20.8154   44.3196 H   0  0  0  0  0  0  0  0  0  0  0  0
   56.6784   21.1452   42.6856 H   0  0  0  0  0  0  0  0  0  0  0  0
   59.1879   24.9891   46.8252 H   0  0  0  0  0  0  0  0  0  0  0  0
  1  2  1  0
  2  3  1  0
  2  4  1  0
  2  5  1  0
  5  6  2  0
  6  7  1  0
  7  8  1  0
  8  9  2  0
  9 10  1  0
 10 11  2  0
 11 12  1  0
  7 13  2  0
 13 14  1  0
 14  5  1  0
 12  8  1  0
  1 15  1  0
  1 16  1  0
  1 17  1  0
  3 18  1  0
  3 19  1  0
  3 20  1  0
  4 21  1  0
  6 22  1  0
  9 23  1  0
 10 24  1  0
 11 25  1  0
 13 26  1  0
M  CHG  1   6   1
M  END
>  <UniqueID>  (48) 
44

>  <SMILES>  (48) 
CC(C)(O)c1[nH+]c(-c2cccs2)cs1

>  <Energy>  (48) 
78.7007853954798

>  <Genealogy>  (48) 
CC(C)(O)c1[nH+]c(-c2cccs2)cs1 (protonated)
CC(C)(O)c1[nH+]c(-c2cccs2)cs1 (3D coordinates assigned)
CC(C)(O)c1[nH+]c(-c2cccs2)cs1 (optimized conformer: 78.7007853954798 kcal/mol)

>  <smiles>  (48) 
CC(C)(O)c1nc(-c2cccs2)cs1

>  <score_type>  (48) 
oracle

>  <origin>  (48) 
adg

>  <m_score__min__energy>  (48) 
-5.0199999999999996

>  <m_primary>  (48) 
energy

$$$$
48:0
     RDKit          3D

 36 38  0  0  0  0  0  0  0  0999 V2000
   55.5240   30.0800   44.0510 C   0  0  0  0  0  0  0  0  0  0  0  0
   56.7370   29.5570   44.6710 N   0  0  0  0  0  0  0  0  0  0  0  0
   57.0200   28.2640   44.7220 N   0  0  0  0  0  0  0  0  0  0  0  0
   58.2170   28.1240   45.3240 C   0  0  0  0  0  0  0  0  0  0  0  0
   58.7030   29.3700   45.6750 C   0  0  0  0  0  0  0  0  0  0  0  0
   59.9600   29.6270   46.4010 C   0  0  0  0  0  0  0  0  0  0  0  0
   61.0580   29.3780   45.8330 O   0  0  0  0  0  0  0  0  0  0  0  0
   59.9450   30.1040   47.7550 N   0  0  0  0  0  0  0  0  0  0  0  0
   61.1630   30.4770   48.4670 C   0  0  0  0  0  0  0  0  0  0  0  0
   61.7950   31.6820   47.8250 C   0  0  0  0  0  0  0  0  0  0  0  0
   63.1940   31.7740   47.7300 C   0  0  0  0  0  0  0  0  0  0  0  0
   63.7870   32.8820   47.1170 C   0  0  0  0  0  0  0  0  0  0  0  0
   62.9880   33.9020   46.5920 C   0  0  0  0  0  0  0  0  0  0  0  0
   61.5960   33.8150   46.6790 C   0  0  0  0  0  0  0  0  0  0  0  0
   61.0000   32.7090   47.2920 C   0  0  0  0  0  0  0  0  0  0  0  0
   57.7350   30.2670   45.2460 C   0  0  0  0  0  0  0  0  0  0  0  0
   57.8230   31.7400   45.2630 C   0  0  0  0  0  0  0  0  0  0  0  0
   57.9940   32.5660   44.1580 C   0  0  0  0  0  0  0  0  0  0  0  0
   58.0630   33.9240   44.4890 C   0  0  0  0  0  0  0  0  0  0  0  0
   57.9540   34.1750   45.8510 C   0  0  0  0  0  0  0  0  0  0  0  0
   57.7710   32.7040   46.6430 S   0  0  0  0  0  0  0  0  0  0  0  0
   54.8146   30.3859   44.8340 H   0  0  0  0  0  0  0  0  0  0  0  0
   55.7771   30.9489   43.4258 H   0  0  0  0  0  0  0  0  0  0  0  0
   55.0659   29.2994   43.4258 H   0  0  0  0  0  0  0  0  0  0  0  0
   58.7281   27.1675   45.5077 H   0  0  0  0  0  0  0  0  0  0  0  0
   59.0400   30.1450   48.2750 H   0  0  0  0  0  0  0  0  0  0  0  0
   60.9147   30.7113   49.5127 H   0  0  0  0  0  0  0  0  0  0  0  0
   61.8722   29.6371   48.4271 H   0  0  0  0  0  0  0  0  0  0  0  0
   63.8250   30.9713   48.1394 H   0  0  0  0  0  0  0  0  0  0  0  0
   64.8826   32.9511   47.0478 H   0  0  0  0  0  0  0  0  0  0  0  0
   63.4553   34.7735   46.1102 H   0  0  0  0  0  0  0  0  0  0  0  0
   60.9685   34.6178   46.2646 H   0  0  0  0  0  0  0  0  0  0  0  0
   59.9039   32.6432   47.3570 H   0  0  0  0  0  0  0  0  0  0  0  0
   58.0677   32.1899   43.1269 H   0  0  0  0  0  0  0  0  0  0  0  0
   58.1917   34.7192   43.7399 H   0  0  0  0  0  0  0  0  0  0  0  0
   57.9825   35.1655   46.3286 H   0  0  0  0  0  0  0  0  0  0  0  0
  1  2  1  0
  2  3  1  0
  3  4  2  0
  4  5  1  0
  5  6  1  0
  6  7  2  0
  6  8  1  0
  8  9  1  0
  9 10  1  0
 10 11  2  0
 11 12  1  0
 12 13  2  0
 13 14  1  0
 14 15  2  0
  5 16  2  0
 16 17  1  0
 17 18  2  0
 18 19  1  0
 19 20  2  0
 20 21  1  0
 16  2  1  0
 21 17  1  0
 15 10  1  0
  1 22  1  0
  1 23  1  0
  1 24  1  0
  4 25  1  0
  8 26  1  0
  9 27  1  0
  9 28  1  0
 11 29  1  0
 12 30  1  0
 13 31  1  0
 14 32  1  0
 15 33  1  0
 18 34  1  0
 19 35  1  0
 20 36  1  0
M  END
>  <UniqueID>  (49) 
45

>  <SMILES>  (49) 
Cn1ncc(C(=O)NCc2ccccc2)c1-c1cccs1

>  <Energy>  (49) 
97.77153828696336

>  <Genealogy>  (49) 
Cn1ncc(C(=O)NCc2ccccc2)c1-c1cccs1 (3D coordinates assigned)
Cn1ncc(C(=O)NCc2ccccc2)c1-c1cccs1 (optimized conformer: 97.77153828696336 kcal/mol)

>  <smiles>  (49) 
Cn1ncc(C(=O)NCc2ccccc2)c1-c1cccs1

>  <score_type>  (49) 
oracle

>  <origin>  (49) 
adg

>  <m_score__min__energy>  (49) 
-7.3499999999999996

>  <m_primary>  (49) 
energy

$$$$
49:0
     RDKit          3D

 11 11  0  0  0  0  0  0  0  0999 V2000
   51.0430   30.4460   48.5370 O   0  0  0  0  0  0  0  0  0  0  0  0
   51.3940   30.8070   49.6900 C   0  0  0  0  0  0  0  0  0  0  0  0
   52.3350   30.0610   50.4070 C   0  0  0  0  0  0  0  0  0  0  0  0
   52.7100   30.4810   51.6850 C   0  0  0  0  0  0  0  0  0  0  0  0
   52.1430   31.6350   52.2310 C   0  0  0  0  0  0  0  0  0  0  0  0
   51.2050   32.3540   51.4840 C   0  0  0  0  0  0  0  0  0  0  0  0
   50.6310   33.5040   52.0090 O   0  0  0  0  0  0  0  0  0  0  0  0
   50.8540   31.9290   50.2410 N   0  0  0  0  0  0  0  0  0  0  0  0
   52.7751   29.1530   49.9689 H   0  0  0  0  0  0  0  0  0  0  0  0
   53.4498   29.9047   52.2600 H   0  0  0  0  0  0  0  0  0  0  0  0
   52.4311   31.9741   53.2370 H   0  0  0  0  0  0  0  0  0  0  0  0
  1  2  2  0
  2  3  1  0
  3  4  2  0
  4  5  1  0
  5  6  2  0
  6  7  1  0
  6  8  1  0
  8  2  1  0
  3  9  1  0
  4 10  1  0
  5 11  1  0
M  CHG  2   7  -1   8  -1
M  END
>  <UniqueID>  (50) 
46

>  <SMILES>  (50) 
O=c1cccc([O-])[n-]1

>  <Energy>  (50) 
10.6490952340715

>  <Genealogy>  (50) 
O=c1cccc([O-])[n-]1 (protonated)
O=c1cccc([O-])[n-]1 (3D coordinates assigned)
O=c1cccc([O-])[n-]1 (optimized conformer: 10.6490952340715 kcal/mol)

>  <smiles>  (50) 
O=c1cccc(O)[nH]1

>  <score_type>  (50) 
oracle

>  <origin>  (50) 
adg

>  <m_score__min__energy>  (50) 
-12.56

>  <m_primary>  (50) 
energy

$$$$
50:0
     RDKit          3D

 40 41  0  0  0  0  0  0  0  0999 V2000
   60.9880   34.1860   49.2980 C   0  0  0  0  0  0  0  0  0  0  0  0
   60.2580   32.8700   49.0310 C   0  0  0  0  0  0  0  0  0  0  0  0
   61.0840   31.9890   48.0870 C   0  0  0  0  0  0  0  0  0  0  0  0
   58.9860   33.1640   48.4490 O   0  0  0  0  0  0  0  0  0  0  0  0
   58.7190   33.2810   47.0750 C   0  0  0  0  0  0  0  0  0  0  0  0
   59.0370   34.4880   46.4410 C   0  0  0  0  0  0  0  0  0  0  0  0
   58.8140   34.6530   45.0730 C   0  0  0  0  0  0  0  0  0  0  0  0
   58.2660   33.6110   44.3220 C   0  0  0  0  0  0  0  0  0  0  0  0
   57.9270   32.4010   44.9410 C   0  0  0  0  0  0  0  0  0  0  0  0
   57.2740   31.0840   43.9700 S   0  0  0  0  0  0  0  0  0  0  0  0
   55.9650   30.5990   44.5270 O   0  0  0  0  0  0  0  0  0  0  0  0
   57.0420   31.5850   42.5730 O   0  0  0  0  0  0  0  0  0  0  0  0
   58.4110   29.7740   43.9300 N   0  0  0  0  0  0  0  0  0  0  0  0
   58.2830   28.5880   44.7320 C   0  0  0  0  0  0  0  0  0  0  0  0
   59.4080   27.9280   45.2570 C   0  0  0  0  0  0  0  0  0  0  0  0
   59.2520   26.7750   46.0280 C   0  0  0  0  0  0  0  0  0  0  0  0
   57.9770   26.2690   46.2890 C   0  0  0  0  0  0  0  0  0  0  0  0
   56.8390   26.9210   45.7790 C   0  0  0  0  0  0  0  0  0  0  0  0
   55.5050   26.4510   46.0250 N   0  0  0  0  0  0  0  0  0  0  0  0
   54.9620   25.1880   45.6310 C   0  0  0  0  0  0  0  0  0  0  0  0
   54.7900   24.2910   46.4960 O   0  0  0  0  0  0  0  0  0  0  0  0
   57.0050   28.0830   45.0130 C   0  0  0  0  0  0  0  0  0  0  0  0
   58.1470   32.2400   46.3170 C   0  0  0  0  0  0  0  0  0  0  0  0
   61.0752   34.3433   50.3832 H   0  0  0  0  0  0  0  0  0  0  0  0
   61.9925   34.1453   48.8515 H   0  0  0  0  0  0  0  0  0  0  0  0
   60.4217   35.0166   48.8515 H   0  0  0  0  0  0  0  0  0  0  0  0
   60.1172   32.3227   49.9747 H   0  0  0  0  0  0  0  0  0  0  0  0
   61.7184   31.3123   48.6783 H   0  0  0  0  0  0  0  0  0  0  0  0
   60.4080   31.3969   47.4526 H   0  0  0  0  0  0  0  0  0  0  0  0
   61.7184   32.6255   47.4526 H   0  0  0  0  0  0  0  0  0  0  0  0
   59.4667   35.3142   47.0265 H   0  0  0  0  0  0  0  0  0  0  0  0
   59.0703   35.6053   44.5858 H   0  0  0  0  0  0  0  0  0  0  0  0
   58.1002   33.7406   43.2423 H   0  0  0  0  0  0  0  0  0  0  0  0
   59.3000   29.9380   43.4060 H   0  0  0  0  0  0  0  0  0  0  0  0
   60.4157   28.3221   45.0592 H   0  0  0  0  0  0  0  0  0  0  0  0
   60.1376   26.2626   46.4319 H   0  0  0  0  0  0  0  0  0  0  0  0
   57.8618   25.3582   46.8950 H   0  0  0  0  0  0  0  0  0  0  0  0
   54.6968   25.0024   44.5797 H   0  0  0  0  0  0  0  0  0  0  0  0
   56.1188   28.6073   44.6260 H   0  0  0  0  0  0  0  0  0  0  0  0
   57.8712   31.2949   46.8075 H   0  0  0  0  0  0  0  0  0  0  0  0
  1  2  1  0
  2  3  1  0
  2  4  1  0
  4  5  1  0
  5  6  2  0
  6  7  1  0
  7  8  2  0
  8  9  1  0
  9 10  1  0
 10 11  2  0
 10 12  2  0
 10 13  1  0
 13 14  1  0
 14 15  2  0
 15 16  1  0
 16 17  2  0
 17 18  1  0
 18 19  1  0
 19 20  1  0
 20 21  2  0
 18 22  2  0
  9 23  2  0
 23  5  1  0
 22 14  1  0
  1 24  1  0
  1 25  1  0
  1 26  1  0
  2 27  1  0
  3 28  1  0
  3 29  1  0
  3 30  1  0
  6 31  1  0
  7 32  1  0
  8 33  1  0
 13 34  1  0
 15 35  1  0
 16 36  1  0
 17 37  1  0
 20 38  1  0
 22 39  1  0
 23 40  1  0
M  CHG  1  19  -1
M  END
>  <UniqueID>  (51) 
47

>  <SMILES>  (51) 
CC(C)Oc1cccc(S(=O)(=O)Nc2cccc([N-]C=O)c2)c1

>  <Energy>  (51) 
39.28509777060253

>  <Genealogy>  (51) 
CC(C)Oc1cccc(S(=O)(=O)Nc2cccc([N-]C=O)c2)c1 (protonated)
CC(C)Oc1cccc(S(=O)(=O)Nc2cccc([N-]C=O)c2)c1 (3D coordinates assigned)
CC(C)Oc1cccc(S(=O)(=O)Nc2cccc([N-]C=O)c2)c1 (optimized conformer: 39.28509777060253 kcal/mol)

>  <smiles>  (51) 
CC(C)Oc1cccc(S(=O)(=O)Nc2cccc(NC=O)c2)c1

>  <score_type>  (51) 
oracle

>  <origin>  (51) 
adg

>  <m_score__min__energy>  (51) 
-10.81

>  <m_primary>  (51) 
energy

$$$$
51:0
     RDKit          3D

 44 47  0  0  0  0  0  0  0  0999 V2000
   58.0580   23.5140   45.0260 C   0  0  0  0  0  0  0  0  0  0  0  0
   58.4260   24.4100   46.0690 O   0  0  0  0  0  0  0  0  0  0  0  0
   58.4070   25.8110   45.9690 C   0  0  0  0  0  0  0  0  0  0  0  0
   59.5910   26.5410   45.7480 C   0  0  0  0  0  0  0  0  0  0  0  0
   59.5620   27.9290   45.6270 C   0  0  0  0  0  0  0  0  0  0  0  0
   58.3500   28.6240   45.7170 C   0  0  0  0  0  0  0  0  0  0  0  0
   58.3170   30.1040   45.5960 C   0  0  0  0  0  0  0  0  0  0  0  0
   59.3650   30.8730   46.1240 C   0  0  0  0  0  0  0  0  0  0  0  0
   59.3350   32.2630   45.9990 C   0  0  0  0  0  0  0  0  0  0  0  0
   60.3680   33.0680   46.5070 C   0  0  0  0  0  0  0  0  0  0  0  0
   60.3040   34.4570   46.3610 C   0  0  0  0  0  0  0  0  0  0  0  0
   59.2150   35.0470   45.7100 C   0  0  0  0  0  0  0  0  0  0  0  0
   58.1840   34.2500   45.2020 C   0  0  0  0  0  0  0  0  0  0  0  0
   58.2390   32.8590   45.3430 C   0  0  0  0  0  0  0  0  0  0  0  0
   57.2570   32.1040   44.8610 O   0  0  0  0  0  0  0  0  0  0  0  0
   57.2510   30.7770   44.9630 C   0  0  0  0  0  0  0  0  0  0  0  0
   56.2710   30.1350   44.5000 O   0  0  0  0  0  0  0  0  0  0  0  0
   57.1650   27.9070   45.9470 C   0  0  0  0  0  0  0  0  0  0  0  0
   57.1760   26.5040   46.0790 C   0  0  0  0  0  0  0  0  0  0  0  0
   55.8920   25.7930   46.3260 C   0  0  0  0  0  0  0  0  0  0  0  0
   54.8050   26.3230   45.9660 O   0  0  0  0  0  0  0  0  0  0  0  0
   55.8720   24.5440   47.0310 N   0  0  0  0  0  0  0  0  0  0  0  0
   54.8700   23.5210   46.9400 C   0  0  0  0  0  0  0  0  0  0  0  0
   53.7660   23.6330   46.0720 C   0  0  0  0  0  0  0  0  0  0  0  0
   52.8250   22.6030   45.9950 C   0  0  0  0  0  0  0  0  0  0  0  0
   52.9810   21.4490   46.7670 C   0  0  0  0  0  0  0  0  0  0  0  0
   52.0670   20.4510   46.6890 F   0  0  0  0  0  0  0  0  0  0  0  0
   54.0860   21.3200   47.6130 C   0  0  0  0  0  0  0  0  0  0  0  0
   55.0320   22.3480   47.6920 C   0  0  0  0  0  0  0  0  0  0  0  0
   56.1040   22.2080   48.5130 F   0  0  0  0  0  0  0  0  0  0  0  0
   57.6745   22.5802   45.4631 H   0  0  0  0  0  0  0  0  0  0  0  0
   57.2768   23.9759   44.4045 H   0  0  0  0  0  0  0  0  0  0  0  0
   58.9384   23.2934   44.4045 H   0  0  0  0  0  0  0  0  0  0  0  0
   60.5506   26.0089   45.6699 H   0  0  0  0  0  0  0  0  0  0  0  0
   60.4978   28.4824   45.4596 H   0  0  0  0  0  0  0  0  0  0  0  0
   60.2070   30.3825   46.6344 H   0  0  0  0  0  0  0  0  0  0  0  0
   61.2255   32.6065   47.0186 H   0  0  0  0  0  0  0  0  0  0  0  0
   61.1123   35.0880   46.7592 H   0  0  0  0  0  0  0  0  0  0  0  0
   59.1696   36.1403   45.5975 H   0  0  0  0  0  0  0  0  0  0  0  0
   57.3291   34.7172   44.6912 H   0  0  0  0  0  0  0  0  0  0  0  0
   56.2115   28.4498   46.0255 H   0  0  0  0  0  0  0  0  0  0  0  0
   53.6444   24.5341   45.4530 H   0  0  0  0  0  0  0  0  0  0  0  0
   51.9586   22.7010   45.3244 H   0  0  0  0  0  0  0  0  0  0  0  0
   54.2121   20.4095   48.2173 H   0  0  0  0  0  0  0  0  0  0  0  0
  1  2  1  0
  2  3  1  0
  3  4  2  0
  4  5  1  0
  5  6  2  0
  6  7  1  0
  7  8  2  0
  8  9  1  0
  9 10  2  0
 10 11  1  0
 11 12  2  0
 12 13  1  0
 13 14  2  0
 14 15  1  0
 15 16  1  0
 16 17  2  0
  6 18  1  0
 18 19  2  0
 19 20  1  0
 20 21  2  0
 20 22  1  0
 22 23  1  0
 23 24  2  0
 24 25  1  0
 25 26  2  0
 26 27  1  0
 26 28  1  0
 28 29  2  0
 29 30  1  0
 19  3  1  0
 29 23  1  0
 16  7  1  0
 14  9  1  0
  1 31  1  0
  1 32  1  0
  1 33  1  0
  4 34  1  0
  5 35  1  0
  8 36  1  0
 10 37  1  0
 11 38  1  0
 12 39  1  0
 13 40  1  0
 18 41  1  0
 24 42  1  0
 25 43  1  0
 28 44  1  0
M  CHG  1  22  -1
M  END
>  <UniqueID>  (52) 
48

>  <SMILES>  (52) 
COc1ccc(-c2cc3ccccc3oc2=O)cc1C(=O)[N-]c1ccc(F)cc1F

>  <Energy>  (52) 
66.0691600644554

>  <Genealogy>  (52) 
COc1ccc(-c2cc3ccccc3oc2=O)cc1C(=O)[N-]c1ccc(F)cc1F (protonated)
COc1ccc(-c2cc3ccccc3oc2=O)cc1C(=O)[N-]c1ccc(F)cc1F (3D coordinates assigned)
COc1ccc(-c2cc3ccccc3oc2=O)cc1C(=O)[N-]c1ccc(F)cc1F (optimized conformer: 66.0691600644554 kcal/mol)

>  <smiles>  (52) 
COc1ccc(-c2cc3ccccc3oc2=O)cc1C(=O)Nc1ccc(F)cc1F

>  <score_type>  (52) 
oracle

>  <origin>  (52) 
adg

>  <m_score__min__energy>  (52) 
-10.77

>  <m_primary>  (52) 
energy

$$$$
52:0
     RDKit          3D

 57 59  0  0  1  0  0  0  0  0999 V2000
   60.1970   25.5980   46.3280 C   0  0  0  0  0  0  0  0  0  0  0  0
   59.2310   26.6910   45.9480 C   0  0  0  0  0  0  0  0  0  0  0  0
   58.9250   27.7120   46.8580 C   0  0  0  0  0  0  0  0  0  0  0  0
   58.0300   28.7020   46.4720 C   0  0  0  0  0  0  0  0  0  0  0  0
   57.4540   28.6640   45.1970 C   0  0  0  0  0  0  0  0  0  0  0  0
   56.5470   29.7260   44.8990 N   0  0  0  0  0  0  0  0  0  0  0  0
   57.0320   30.8700   44.5130 C   0  0  0  0  0  0  0  0  0  0  0  0
   57.3270   31.1100   43.1660 C   0  0  0  0  0  0  0  0  0  0  0  0
   57.8410   32.3050   42.7280 C   0  0  0  0  0  0  0  0  0  0  0  0
   58.1340   32.5020   41.2830 C   0  0  0  0  0  0  0  0  0  0  0  0
   58.0550   33.2570   43.6530 N   0  0  0  0  0  0  0  0  0  0  0  0
   57.7770   33.0520   44.9750 C   0  0  0  0  0  0  0  0  0  0  0  0
   58.0310   34.0440   45.7510 N   0  0  0  0  0  0  0  0  0  0  0  0
   59.2470   34.0450   46.4740 C   0  0  0  0  0  0  0  0  0  0  0  0
   60.4890   33.8580   45.9150 C   0  0  0  0  0  0  0  0  0  0  0  0
   61.5780   33.8860   46.7490 C   0  0  0  0  0  0  0  0  0  0  0  0
   61.4710   34.0970   48.1250 C   0  0  0  0  0  0  0  0  0  0  0  0
   62.6460   34.1000   48.8370 O   0  0  0  0  0  0  0  0  0  0  0  0
   63.0240   32.9260   49.6000 C   0  0  0  0  0  0  0  0  0  0  0  0
   63.0390   31.6900   48.7660 C   0  0  0  0  0  0  0  0  0  0  0  0
   61.8650   30.7990   48.9920 C   0  0  0  0  0  0  0  0  0  0  0  0
   60.8160   30.9110   48.0870 N   0  0  0  0  0  0  0  0  0  0  0  0
   59.4720   30.9570   48.5250 C   0  0  0  0  0  0  0  0  0  0  0  0
   61.0390   30.4670   46.7490 C   0  0  0  0  0  0  0  0  0  0  0  0
   60.2500   34.2710   48.6110 N   0  0  0  0  0  0  0  0  0  0  0  0
   59.1440   34.2550   47.8510 C   0  0  0  0  0  0  0  0  0  0  0  0
   57.2750   31.8760   45.3810 N   0  0  0  0  0  0  0  0  0  0  0  0
   57.7490   27.6610   44.2950 C   0  0  0  0  0  0  0  0  0  0  0  0
   58.6420   26.6760   44.6820 C   0  0  0  0  0  0  0  0  0  0  0  0
   60.2588   25.5280   47.4240 H   0  0  0  0  0  0  0  0  0  0  0  0
   59.8456   24.6394   45.9186 H   0  0  0  0  0  0  0  0  0  0  0  0
   61.1915   25.8290   45.9186 H   0  0  0  0  0  0  0  0  0  0  0  0
   59.3841   27.7292   47.8575 H   0  0  0  0  0  0  0  0  0  0  0  0
   57.7744   29.5148   47.1677 H   0  0  0  0  0  0  0  0  0  0  0  0
   57.1402   30.3123   42.4320 H   0  0  0  0  0  0  0  0  0  0  0  0
   59.0423   33.1127   41.1730 H   0  0  0  0  0  0  0  0  0  0  0  0
   58.2893   31.5242   40.8037 H   0  0  0  0  0  0  0  0  0  0  0  0
   57.2871   33.0148   40.8037 H   0  0  0  0  0  0  0  0  0  0  0  0
   58.4490   34.1770   43.3290 H   0  0  0  0  0  0  0  0  0  0  0  0
   60.6058   33.6913   44.8340 H   0  0  0  0  0  0  0  0  0  0  0  0
   62.5777   33.7359   46.3153 H   0  0  0  0  0  0  0  0  0  0  0  0
   64.0296   33.0837   50.0169 H   0  0  0  0  0  0  0  0  0  0  0  0
   62.2769   32.7864   50.3952 H   0  0  0  0  0  0  0  0  0  0  0  0
   63.0511   31.9862   47.7067 H   0  0  0  0  0  0  0  0  0  0  0  0
   63.9348   31.1198   49.0532 H   0  0  0  0  0  0  0  0  0  0  0  0
   62.2237   29.7596   48.9603 H   0  0  0  0  0  0  0  0  0  0  0  0
   61.4470   31.1098   49.9608 H   0  0  0  0  0  0  0  0  0  0  0  0
   59.4446   30.9579   49.6247 H   0  0  0  0  0  0  0  0  0  0  0  0
   58.9938   31.8720   48.1455 H   0  0  0  0  0  0  0  0  0  0  0  0
   58.9323   30.0768   48.1455 H   0  0  0  0  0  0  0  0  0  0  0  0
   61.5326   29.4841   46.7663 H   0  0  0  0  0  0  0  0  0  0  0  0
   60.0755   30.3842   46.2248 H   0  0  0  0  0  0  0  0  0  0  0  0
   61.6807   31.1904   46.2248 H   0  0  0  0  0  0  0  0  0  0  0  0
   58.1570   34.4072   48.3122 H   0  0  0  0  0  0  0  0  0  0  0  0
   57.0750   31.7470   46.3810 H   0  0  0  0  0  0  0  0  0  0  0  0
   57.2874   27.6449   43.2967 H   0  0  0  0  0  0  0  0  0  0  0  0
   58.8919   25.8672   43.9796 H   0  0  0  0  0  0  0  0  0  0  0  0
  1  2  1  0
  2  3  2  0
  3  4  1  0
  4  5  2  0
  5  6  1  0
  6  7  2  0
  7  8  1  0
  8  9  2  0
  9 10  1  0
  9 11  1  0
 11 12  1  0
 12 13  2  0
 13 14  1  0
 14 15  2  0
 15 16  1  0
 16 17  2  0
 17 18  1  0
 18 19  1  0
 19 20  1  0
 20 21  1  0
 21 22  1  0
 22 23  1  0
 22 24  1  0
 17 25  1  0
 25 26  2  0
 12 27  1  0
  5 28  1  0
 28 29  2  0
 29  2  1  0
 27  7  1  0
 26 14  1  0
  1 30  1  0
  1 31  1  0
  1 32  1  0
  3 33  1  0
  4 34  1  0
  8 35  1  0
 10 36  1  0
 10 37  1  0
 10 38  1  0
 11 39  1  0
 15 40  1  0
 16 41  1  0
 19 42  1  0
 19 43  1  0
 20 44  1  0
 20 45  1  0
 21 46  1  0
 21 47  1  0
 23 48  1  0
 23 49  1  0
 23 50  1  0
 24 51  1  0
 24 52  1  0
 24 53  1  0
 26 54  1  0
 27 55  1  0
 28 56  1  0
 29 57  1  0
M  END
>  <smiles>  (53) 
Cc1ccc(N=c2cc(C)[nH]c(=Nc3ccc(OCCCN(C)C)nc3)[nH]2)cc1

>  <score_type>  (53) 
oracle

>  <origin>  (53) 
adg

>  <m_score__min__energy>  (53) 
-8.3000000000000007

>  <m_primary>  (53) 
energy

$$$$
53:0
     RDKit          3D

 53 56  0  0  0  0  0  0  0  0999 V2000
   55.1500   26.4420   45.9990 N   0  0  0  0  0  0  0  0  0  0  0  0
   56.5100   26.6540   45.6250 C   0  0  0  0  0  0  0  0  0  0  0  0
   57.2100   25.6810   45.2380 O   0  0  0  0  0  0  0  0  0  0  0  0
   57.0940   28.0400   45.6730 C   0  0  0  0  0  0  0  0  0  0  0  0
   56.2340   29.0360   44.8500 C   0  0  0  0  0  0  0  0  0  0  0  0
   57.0660   30.1090   44.1280 C   0  0  0  0  0  0  0  0  0  0  0  0
   58.2420   30.4800   44.9270 N   0  0  0  0  0  0  0  0  0  0  0  0
   58.5790   31.8600   45.1660 C   0  0  0  0  0  0  0  0  0  0  0  0
   59.4900   32.1730   46.1250 N   0  0  0  0  0  0  0  0  0  0  0  0
   59.8390   33.4610   46.3960 C   0  0  0  0  0  0  0  0  0  0  0  0
   60.8400   33.7350   47.4580 C   0  0  0  0  0  0  0  0  0  0  0  0
   62.2200   33.7410   47.1810 C   0  0  0  0  0  0  0  0  0  0  0  0
   63.1450   33.9900   48.1990 C   0  0  0  0  0  0  0  0  0  0  0  0
   62.7190   34.2330   49.5080 C   0  0  0  0  0  0  0  0  0  0  0  0
   63.6940   34.4750   50.4900 O   0  0  0  0  0  0  0  0  0  0  0  0
   63.9200   33.6680   51.6460 C   0  0  0  0  0  0  0  0  0  0  0  0
   64.9840   32.6350   51.3830 C   0  0  0  0  0  0  0  0  0  0  0  0
   66.1750   33.0000   50.7320 C   0  0  0  0  0  0  0  0  0  0  0  0
   67.1710   32.0450   50.5000 C   0  0  0  0  0  0  0  0  0  0  0  0
   66.9890   30.7260   50.9230 C   0  0  0  0  0  0  0  0  0  0  0  0
   65.8130   30.3580   51.5810 C   0  0  0  0  0  0  0  0  0  0  0  0
   64.8150   31.3090   51.8170 C   0  0  0  0  0  0  0  0  0  0  0  0
   61.3410   34.2250   49.7910 C   0  0  0  0  0  0  0  0  0  0  0  0
   60.4140   33.9710   48.7760 C   0  0  0  0  0  0  0  0  0  0  0  0
   59.2220   34.4930   45.6750 C   0  0  0  0  0  0  0  0  0  0  0  0
   58.2760   34.1620   44.7060 C   0  0  0  0  0  0  0  0  0  0  0  0
   57.9670   32.8610   44.4690 N   0  0  0  0  0  0  0  0  0  0  0  0
   59.1740   29.4320   45.3700 C   0  0  0  0  0  0  0  0  0  0  0  0
   58.5650   28.0300   45.2170 C   0  0  0  0  0  0  0  0  0  0  0  0
   54.6750   27.0840   46.6710 H   0  0  0  0  0  0  0  0  0  0  0  0
   57.0783   28.3876   46.7165 H   0  0  0  0  0  0  0  0  0  0  0  0
   55.6679   28.4683   44.0968 H   0  0  0  0  0  0  0  0  0  0  0  0
   55.5747   29.5585   45.5587 H   0  0  0  0  0  0  0  0  0  0  0  0
   57.3993   29.7144   43.1568 H   0  0  0  0  0  0  0  0  0  0  0  0
   56.4410   31.0025   43.9831 H   0  0  0  0  0  0  0  0  0  0  0  0
   62.5728   33.5485   46.1570 H   0  0  0  0  0  0  0  0  0  0  0  0
   64.2203   33.9948   47.9674 H   0  0  0  0  0  0  0  0  0  0  0  0
   64.2418   34.3124   52.4773 H   0  0  0  0  0  0  0  0  0  0  0  0
   62.9836   33.1499   51.9005 H   0  0  0  0  0  0  0  0  0  0  0  0
   66.3245   34.0393   50.4040 H   0  0  0  0  0  0  0  0  0  0  0  0
   68.0986   32.3332   49.9838 H   0  0  0  0  0  0  0  0  0  0  0  0
   67.7725   29.9765   50.7377 H   0  0  0  0  0  0  0  0  0  0  0  0
   65.6717   29.3191   51.9139 H   0  0  0  0  0  0  0  0  0  0  0  0
   63.8945   31.0181   52.3442 H   0  0  0  0  0  0  0  0  0  0  0  0
   60.9914   34.4195   50.8157 H   0  0  0  0  0  0  0  0  0  0  0  0
   59.3396   33.9557   49.0116 H   0  0  0  0  0  0  0  0  0  0  0  0
   59.4796   35.5444   45.8703 H   0  0  0  0  0  0  0  0  0  0  0  0
   57.7783   34.9571   44.1316 H   0  0  0  0  0  0  0  0  0  0  0  0
   57.2230   32.6460   43.7680 H   0  0  0  0  0  0  0  0  0  0  0  0
   60.0906   29.4907   44.7647 H   0  0  0  0  0  0  0  0  0  0  0  0
   59.3944   29.5963   46.4351 H   0  0  0  0  0  0  0  0  0  0  0  0
   58.6168   27.7239   44.1617 H   0  0  0  0  0  0  0  0  0  0  0  0
   59.1306   27.3216   45.8401 H   0  0  0  0  0  0  0  0  0  0  0  0
  1  2  1  0
  2  3  2  0
  2  4  1  0
  4  5  1  0
  5  6  1  0
  6  7  1  0
  7  8  1  0
  8  9  2  0
  9 10  1  0
 10 11  1  0
 11 12  2  0
 12 13  1  0
 13 14  2  0
 14 15  1  0
 15 16  1  0
 16 17  1  0
 17 18  2  0
 18 19  1  0
 19 20  2  0
 20 21  1  0
 21 22  2  0
 14 23  1  0
 23 24  2  0
 10 25  2  0
 25 26  1  0
 26 27  2  0
  7 28  1  0
 28 29  1  0
 29  4  1  0
 27  8  1  0
 24 11  1  0
 22 17  1  0
  1 30  1  0
  4 31  1  0
  5 32  1  0
  5 33  1  0
  6 34  1  0
  6 35  1  0
 12 36  1  0
 13 37  1  0
 16 38  1  0
 16 39  1  0
 18 40  1  0
 19 41  1  0
 20 42  1  0
 21 43  1  0
 22 44  1  0
 23 45  1  0
 24 46  1  0
 25 47  1  0
 26 48  1  0
 27 49  1  0
 28 50  1  0
 28 51  1  0
 29 52  1  0
 29 53  1  0
M  CHG  2   1  -1  27   1
M  END
>  <UniqueID>  (54) 
49

>  <SMILES>  (54) 
[NH-]C(=O)C1CCN(c2nc(-c3ccc(OCc4ccccc4)cc3)cc[nH+]2)CC1

>  <Energy>  (54) 
64.15301578253808

>  <Genealogy>  (54) 
[NH-]C(=O)C1CCN(c2nc(-c3ccc(OCc4ccccc4)cc3)cc[nH+]2)CC1 (protonated)
[NH-]C(=O)C1CCN(c2nc(-c3ccc(OCc4ccccc4)cc3)cc[nH+]2)CC1 (3D coordinates assigned)
[NH-]C(=O)C1CCN(c2nc(-c3ccc(OCc4ccccc4)cc3)cc[nH+]2)CC1 (nonaromatic ring conformer: 64.15301578253808 kcal/mol)

>  <smiles>  (54) 
NC(=O)C1CCN(c2nccc(-c3ccc(OCc4ccccc4)cc3)n2)CC1

>  <score_type>  (54) 
oracle

>  <origin>  (54) 
adg

>  <m_score__min__energy>  (54) 
-10.67

>  <m_primary>  (54) 
energy

$$$$
54:0
     RDKit          3D

 46 49  0  0  0  0  0  0  0  0999 V2000
   56.3290   30.1180   43.2300 C   0  0  0  0  0  0  0  0  0  0  0  0
   56.4820   30.5460   44.6280 N   0  0  0  0  0  0  0  0  0  0  0  0
   57.4400   29.6670   45.3540 C   0  0  0  0  0  0  0  0  0  0  0  0
   58.2550   30.6290   46.1820 C   0  0  1  0  0  0  0  0  0  0  0  0
   59.6590   30.4340   46.7100 C   0  0  0  0  0  0  0  0  0  0  0  0
   60.1480   31.8230   46.7740 N   0  0  0  0  0  0  0  0  0  0  0  0
   61.3360   32.2400   47.4790 C   0  0  0  0  0  0  0  0  0  0  0  0
   62.5960   31.7420   47.1290 C   0  0  0  0  0  0  0  0  0  0  0  0
   63.7040   32.1490   47.8040 N   0  0  0  0  0  0  0  0  0  0  0  0
   63.6350   33.0210   48.8190 N   0  0  0  0  0  0  0  0  0  0  0  0
   64.8790   33.4420   49.4830 C   0  0  0  0  0  0  0  0  0  0  0  0
   65.4230   32.3190   50.3240 C   0  0  0  0  0  0  0  0  0  0  0  0
   64.5530   31.3640   50.8760 C   0  0  0  0  0  0  0  0  0  0  0  0
   65.0600   30.3020   51.6310 C   0  0  0  0  0  0  0  0  0  0  0  0
   66.4370   30.1810   51.8340 C   0  0  0  0  0  0  0  0  0  0  0  0
   67.3100   31.1220   51.2810 C   0  0  0  0  0  0  0  0  0  0  0  0
   66.8080   32.1870   50.5260 C   0  0  0  0  0  0  0  0  0  0  0  0
   62.4270   33.5450   49.1970 C   0  0  0  0  0  0  0  0  0  0  0  0
   62.3480   34.3780   50.1420 O   0  0  0  0  0  0  0  0  0  0  0  0
   61.2630   33.1580   48.5330 C   0  0  0  0  0  0  0  0  0  0  0  0
   59.2640   32.7280   46.0210 C   0  0  0  0  0  0  0  0  0  0  0  0
   58.4320   31.7490   45.2220 C   0  0  2  0  0  0  0  0  0  0  0  0
   57.0210   31.9320   44.7200 C   0  0  0  0  0  0  0  0  0  0  0  0
   55.9588   29.0825   43.2020 H   0  0  0  0  0  0  0  0  0  0  0  0
   55.6111   30.7779   42.7210 H   0  0  0  0  0  0  0  0  0  0  0  0
   57.3026   30.1733   42.7210 H   0  0  0  0  0  0  0  0  0  0  0  0
   56.9058   28.9519   45.9969 H   0  0  0  0  0  0  0  0  0  0  0  0
   58.0581   29.0602   44.6760 H   0  0  0  0  0  0  0  0  0  0  0  0
   57.6896   30.6433   47.1255 H   0  0  0  0  0  0  0  0  0  0  0  0
   59.6520   29.9648   47.7049 H   0  0  0  0  0  0  0  0  0  0  0  0
   60.2807   29.7691   46.0924 H   0  0  0  0  0  0  0  0  0  0  0  0
   62.6904   31.0191   46.3053 H   0  0  0  0  0  0  0  0  0  0  0  0
   64.6270   31.7600   47.5060 H   0  0  0  0  0  0  0  0  0  0  0  0
   65.6224   33.7186   48.7209 H   0  0  0  0  0  0  0  0  0  0  0  0
   64.6666   34.3057   50.1302 H   0  0  0  0  0  0  0  0  0  0  0  0
   63.4686   31.4521   50.7136 H   0  0  0  0  0  0  0  0  0  0  0  0
   64.3736   29.5605   52.0659 H   0  0  0  0  0  0  0  0  0  0  0  0
   66.8340   29.3453   52.4290 H   0  0  0  0  0  0  0  0  0  0  0  0
   68.3941   31.0248   51.4399 H   0  0  0  0  0  0  0  0  0  0  0  0
   67.4987   32.9233   50.0891 H   0  0  0  0  0  0  0  0  0  0  0  0
   60.2906   33.5730   48.8368 H   0  0  0  0  0  0  0  0  0  0  0  0
   58.6373   33.3297   46.6957 H   0  0  0  0  0  0  0  0  0  0  0  0
   59.7997   33.4655   45.4053 H   0  0  0  0  0  0  0  0  0  0  0  0
   58.9975   31.7327   44.2786 H   0  0  0  0  0  0  0  0  0  0  0  0
   56.4307   32.5338   45.4266 H   0  0  0  0  0  0  0  0  0  0  0  0
   56.9822   32.4634   43.7577 H   0  0  0  0  0  0  0  0  0  0  0  0
  1  2  1  0
  2  3  1  0
  3  4  1  0
  4  5  1  0
  5  6  1  0
  6  7  1  0
  7  8  1  0
  8  9  2  0
  9 10  1  0
 10 11  1  0
 11 12  1  0
 12 13  2  0
 13 14  1  0
 14 15  2  0
 15 16  1  0
 16 17  2  0
 10 18  1  0
 18 19  2  0
 18 20  1  0
  6 21  1  0
 21 22  1  0
 22 23  1  0
 23  2  1  0
 22  4  1  0
 20  7  2  0
 17 12  1  0
  1 24  1  0
  1 25  1  0
  1 26  1  0
  3 27  1  0
  3 28  1  0
  4 29  1  1
  5 30  1  0
  5 31  1  0
  8 32  1  0
  9 33  1  0
 11 34  1  0
 11 35  1  0
 13 36  1  0
 14 37  1  0
 15 38  1  0
 16 39  1  0
 17 40  1  0
 20 41  1  0
 21 42  1  0
 21 43  1  0
 22 44  1  6
 23 45  1  0
 23 46  1  0
M  CHG  1   9   1
M  END
>  <UniqueID>  (55) 
50

>  <SMILES>  (55) 
CN1C[C@H]2CN(c3c[nH+]n(Cc4ccccc4)c(=O)c3)C[C@@H]2C1

>  <Energy>  (55) 
85.26575367354182

>  <Genealogy>  (55) 
CN1CC2CN(c3c[nH+]n(Cc4ccccc4)c(=O)c3)CC2C1 (protonated)
CN1C[C@H]2CN(c3c[nH+]n(Cc4ccccc4)c(=O)c3)C[C@@H]2C1 (chirality)
CN1C[C@H]2CN(c3c[nH+]n(Cc4ccccc4)c(=O)c3)C[C@@H]2C1 (3D coordinates assigned)
CN1C[C@H]2CN(c3c[nH+]n(Cc4ccccc4)c(=O)c3)C[C@@H]2C1 (nonaromatic ring conformer: 85.26575367354182 kcal/mol)

>  <smiles>  (55) 
CN1CC2CN(c3cnn(Cc4ccccc4)c(=O)c3)CC2C1

>  <score_type>  (55) 
oracle

>  <origin>  (55) 
adg

>  <m_score__min__energy>  (55) 
-6.4699999999999998

>  <m_primary>  (55) 
energy

$$$$
55:0
     RDKit          3D

 41 43  0  0  0  0  0  0  0  0999 V2000
   59.3600   30.9600   48.9610 C   0  0  0  0  0  0  0  0  0  0  0  0
   59.5630   29.4940   48.6680 C   0  0  0  0  0  0  0  0  0  0  0  0
   60.3600   28.7370   49.5360 C   0  0  0  0  0  0  0  0  0  0  0  0
   60.5640   27.3810   49.2930 C   0  0  0  0  0  0  0  0  0  0  0  0
   61.2830   26.7090   50.0790 O   0  0  0  0  0  0  0  0  0  0  0  0
   59.9920   26.7820   48.2140 N   0  0  0  0  0  0  0  0  0  0  0  0
   59.2030   27.4740   47.3340 C   0  0  0  0  0  0  0  0  0  0  0  0
   58.6150   26.8300   46.2130 C   0  0  0  0  0  0  0  0  0  0  0  0
   58.8310   25.3640   45.9380 C   0  0  0  0  0  0  0  0  0  0  0  0
   57.8090   27.5680   45.3350 C   0  0  0  0  0  0  0  0  0  0  0  0
   57.5750   28.9270   45.5480 C   0  0  0  0  0  0  0  0  0  0  0  0
   56.5540   29.8380   44.4370 S   0  0  0  0  0  0  0  0  0  0  0  0
   57.0870   29.6790   43.0410 O   0  0  0  0  0  0  0  0  0  0  0  0
   55.1430   29.3190   44.4890 O   0  0  0  0  0  0  0  0  0  0  0  0
   56.5650   31.5220   44.8640 N   0  0  0  0  0  0  0  0  0  0  0  0
   57.7090   32.1850   44.2430 C   0  0  0  0  0  0  0  0  0  0  0  0
   58.2900   33.1700   45.2140 C   0  0  0  0  0  0  0  0  0  0  0  0
   58.0960   32.9970   46.5950 C   0  0  0  0  0  0  0  0  0  0  0  0
   58.6690   33.8910   47.5040 C   0  0  0  0  0  0  0  0  0  0  0  0
   59.4470   34.9560   47.0420 C   0  0  0  0  0  0  0  0  0  0  0  0
   59.6580   35.1250   45.6710 C   0  0  0  0  0  0  0  0  0  0  0  0
   59.0870   34.2320   44.7590 C   0  0  0  0  0  0  0  0  0  0  0  0
   58.1580   29.5710   46.6410 C   0  0  0  0  0  0  0  0  0  0  0  0
   58.9710   28.8610   47.5470 C   0  0  0  0  0  0  0  0  0  0  0  0
   59.3383   31.1168   50.0496 H   0  0  0  0  0  0  0  0  0  0  0  0
   60.1865   31.5392   48.5235 H   0  0  0  0  0  0  0  0  0  0  0  0
   58.4072   31.2928   48.5235 H   0  0  0  0  0  0  0  0  0  0  0  0
   60.8255   29.2143   50.4109 H   0  0  0  0  0  0  0  0  0  0  0  0
   60.1790   25.7630   48.0810 H   0  0  0  0  0  0  0  0  0  0  0  0
   58.9111   24.8201   46.8908 H   0  0  0  0  0  0  0  0  0  0  0  0
   57.9812   24.9700   45.3613 H   0  0  0  0  0  0  0  0  0  0  0  0
   59.7583   25.2319   45.3613 H   0  0  0  0  0  0  0  0  0  0  0  0
   57.3548   27.0689   44.4663 H   0  0  0  0  0  0  0  0  0  0  0  0
   58.4698   31.4361   43.9779 H   0  0  0  0  0  0  0  0  0  0  0  0
   57.3848   32.7090   43.3318 H   0  0  0  0  0  0  0  0  0  0  0  0
   57.4909   32.1549   46.9621 H   0  0  0  0  0  0  0  0  0  0  0  0
   58.5074   33.7562   48.5837 H   0  0  0  0  0  0  0  0  0  0  0  0
   59.8935   35.6617   47.7580 H   0  0  0  0  0  0  0  0  0  0  0  0
   60.2739   35.9614   45.3089 H   0  0  0  0  0  0  0  0  0  0  0  0
   59.2631   34.3623   43.6810 H   0  0  0  0  0  0  0  0  0  0  0  0
   57.9806   30.6454   46.7968 H   0  0  0  0  0  0  0  0  0  0  0  0
  1  2  1  0
  2  3  2  0
  3  4  1  0
  4  5  2  0
  4  6  1  0
  6  7  1  0
  7  8  2  0
  8  9  1  0
  8 10  1  0
 10 11  2  0
 11 12  1  0
 12 13  2  0
 12 14  2  0
 12 15  1  0
 15 16  1  0
 16 17  1  0
 17 18  2  0
 18 19  1  0
 19 20  2  0
 20 21  1  0
 21 22  2  0
 11 23  1  0
 23 24  2  0
 24  2  1  0
 24  7  1  0
 22 17  1  0
  1 25  1  0
  1 26  1  0
  1 27  1  0
  3 28  1  0
  6 29  1  0
  9 30  1  0
  9 31  1  0
  9 32  1  0
 10 33  1  0
 16 34  1  0
 16 35  1  0
 18 36  1  0
 19 37  1  0
 20 38  1  0
 21 39  1  0
 22 40  1  0
 23 41  1  0
M  CHG  1  15  -1
M  END
>  <UniqueID>  (56) 
51

>  <SMILES>  (56) 
Cc1cc(=O)[nH]c2c(C)cc(S(=O)(=O)[N-]Cc3ccccc3)cc12

>  <Energy>  (56) 
46.978338191884305

>  <Genealogy>  (56) 
Cc1cc(=O)[nH]c2c(C)cc(S(=O)(=O)[N-]Cc3ccccc3)cc12 (protonated)
Cc1cc(=O)[nH]c2c(C)cc(S(=O)(=O)[N-]Cc3ccccc3)cc12 (3D coordinates assigned)
Cc1cc(=O)[nH]c2c(C)cc(S(=O)(=O)[N-]Cc3ccccc3)cc12 (optimized conformer: 46.978338191884305 kcal/mol)

>  <smiles>  (56) 
Cc1cc(=O)[nH]c2c(C)cc(S(=O)(=O)NCc3ccccc3)cc12

>  <score_type>  (56) 
oracle

>  <origin>  (56) 
adg

>  <m_score__min__energy>  (56) 
-9.7799999999999994

>  <m_primary>  (56) 
energy

$$$$
56:0
     RDKit          3D

 41 43  0  0  0  0  0  0  0  0999 V2000
   57.5300   21.2088   43.0939 H   0  0  0  0  0  0  0  0  0  0  0  0
   57.3130   22.0600   43.7560 C   0  0  0  0  0  0  0  0  0  0  0  0
   58.3270   22.6140   44.5340 C   0  0  0  0  0  0  0  0  0  0  0  0
   59.3344   22.1726   44.5144 H   0  0  0  0  0  0  0  0  0  0  0  0
   58.0720   23.7270   45.3390 C   0  0  0  0  0  0  0  0  0  0  0  0
   58.8711   24.1293   45.9790 H   0  0  0  0  0  0  0  0  0  0  0  0
   56.7980   24.3430   45.3410 C   0  0  0  0  0  0  0  0  0  0  0  0
   56.4640   25.4990   46.1130 C   0  0  0  0  0  0  0  0  0  0  0  0
   57.3290   26.3150   46.6580 N   0  0  0  0  0  0  0  0  0  0  0  0
   58.4330   27.0130   46.0680 C   0  0  0  0  0  0  0  0  0  0  0  0
   59.6140   26.6830   46.3750 O   0  0  0  0  0  0  0  0  0  0  0  0
   58.1780   28.0100   44.9580 C   0  0  2  0  0  0  0  0  0  0  0  0
   58.1460   27.0910   43.4120 Cl  0  0  0  0  0  0  0  0  0  0  0  0
   59.3210   29.0610   44.9340 C   0  0  0  0  0  0  0  0  0  0  0  0
   59.7404   29.1429   45.9476 H   0  0  0  0  0  0  0  0  0  0  0  0
   60.0652   28.7138   44.2021 H   0  0  0  0  0  0  0  0  0  0  0  0
   58.8580   30.4620   44.4820 C   0  0  0  0  0  0  0  0  0  0  0  0
   58.4852   31.0150   45.3568 H   0  0  0  0  0  0  0  0  0  0  0  0
   59.7160   30.9799   44.0285 H   0  0  0  0  0  0  0  0  0  0  0  0
   57.7800   30.3760   43.4720 N   0  0  2  0  0  0  0  0  0  0  0  0
   58.0990   29.7540   42.6910 H   0  0  0  0  0  0  0  0  0  0  0  0
   57.4700   31.7100   42.8960 C   0  0  0  0  0  0  0  0  0  0  0  0
   56.3773   31.8232   42.8393 H   0  0  0  0  0  0  0  0  0  0  0  0
   57.9369   31.7583   41.9012 H   0  0  0  0  0  0  0  0  0  0  0  0
   58.0400   32.8640   43.7310 C   0  0  0  0  0  0  0  0  0  0  0  0
   57.9263   32.6337   44.8006 H   0  0  0  0  0  0  0  0  0  0  0  0
   59.1065   32.9951   43.4955 H   0  0  0  0  0  0  0  0  0  0  0  0
   57.4959   33.7906   43.4955 H   0  0  0  0  0  0  0  0  0  0  0  0
   56.5440   29.7860   44.0590 C   0  0  0  0  0  0  0  0  0  0  0  0
   55.9576   30.5960   44.5172 H   0  0  0  0  0  0  0  0  0  0  0  0
   56.0075   29.2878   43.2381 H   0  0  0  0  0  0  0  0  0  0  0  0
   56.8130   28.7100   45.1370 C   0  0  0  0  0  0  0  0  0  0  0  0
   56.7919   29.1908   46.1261 H   0  0  0  0  0  0  0  0  0  0  0  0
   56.0320   27.9416   45.0394 H   0  0  0  0  0  0  0  0  0  0  0  0
   55.1510   25.8130   46.2680 N   0  0  0  0  0  0  0  0  0  0  0  0
   54.1760   25.1620   45.6360 N   0  0  0  0  0  0  0  0  0  0  0  0
   54.4390   24.1400   44.7900 C   0  0  0  0  0  0  0  0  0  0  0  0
   53.6216   23.6603   44.2316 H   0  0  0  0  0  0  0  0  0  0  0  0
   55.7530   23.6970   44.6290 C   0  0  0  0  0  0  0  0  0  0  0  0
   56.0230   22.5850   43.8170 C   0  0  0  0  0  0  0  0  0  0  0  0
   55.2153   22.1266   43.2275 H   0  0  0  0  0  0  0  0  0  0  0  0
  1  2  1  0
  2  3  2  0
  3  4  1  0
  3  5  1  0
  5  6  1  0
  5  7  2  0
  7  8  1  0
  8  9  2  0
  9 10  1  0
 10 11  2  0
 10 12  1  0
 12 13  1  6
 12 14  1  0
 14 15  1  0
 14 16  1  0
 14 17  1  0
 17 18  1  0
 17 19  1  0
 17 20  1  0
 20 21  1  6
 20 22  1  0
 22 23  1  0
 22 24  1  0
 22 25  1  0
 25 26  1  0
 25 27  1  0
 25 28  1  0
 20 29  1  0
 29 30  1  0
 29 31  1  0
 29 32  1  0
 32 33  1  0
 32 34  1  0
  8 35  1  0
 35 36  1  0
 36 37  2  0
 37 38  1  0
 37 39  1  0
 39 40  2  0
 40 41  1  0
 40  2  1  0
 39  7  1  0
 32 12  1  0
M  CHG  2  20   1  35  -1
M  END
>  <UniqueID>  (57) 
52

>  <SMILES>  (57) 
CC[NH+]1CCC(Cl)(C(=O)/N=c2/[n-]ncc3ccccc23)CC1

>  <Energy>  (57) 
74.5716335466106

>  <Genealogy>  (57) 
CC[NH+]1CCC(Cl)(C(=O)N=c2[n-]ncc3ccccc23)CC1 (protonated)
CC[NH+]1CCC(Cl)(C(=O)/N=c2/[n-]ncc3ccccc23)CC1 (cis-trans isomerization)
CC[NH+]1CCC(Cl)(C(=O)/N=c2/[n-]ncc3ccccc23)CC1 (3D coordinates assigned)
CC[NH+]1CCC(Cl)(C(=O)/N=c2/[n-]ncc3ccccc23)CC1 (nonaromatic ring conformer: 74.5716335466106 kcal/mol)

>  <smiles>  (57) 
CCN1CCC(Cl)(C(=O)N=c2[nH]ncc3ccccc23)CC1

>  <score_type>  (57) 
oracle

>  <origin>  (57) 
adg

>  <m_score__min__energy>  (57) 
-8.5299999999999994

>  <m_primary>  (57) 
energy

$$$$
57:0
     RDKit          3D

 44 46  0  0  0  0  0  0  0  0999 V2000
   59.9940   35.2550   46.3600 C   0  0  0  0  0  0  0  0  0  0  0  0
   58.9890   34.9850   45.3880 O   0  0  0  0  0  0  0  0  0  0  0  0
   58.5230   33.7010   45.0650 C   0  0  0  0  0  0  0  0  0  0  0  0
   58.3320   33.2820   43.7340 C   0  0  0  0  0  0  0  0  0  0  0  0
   57.8630   31.9940   43.4620 C   0  0  0  0  0  0  0  0  0  0  0  0
   57.5760   31.1110   44.5090 C   0  0  0  0  0  0  0  0  0  0  0  0
   56.9710   29.4990   44.1450 S   0  0  0  0  0  0  0  0  0  0  0  0
   55.6760   29.2980   44.8800 O   0  0  0  0  0  0  0  0  0  0  0  0
   56.7240   29.3590   42.6670 O   0  0  0  0  0  0  0  0  0  0  0  0
   58.1560   28.3160   44.6540 N   0  0  0  0  0  0  0  0  0  0  0  0
   59.4920   28.9400   44.6960 C   0  0  0  0  0  0  0  0  0  0  0  0
   59.9040   29.1830   46.1230 C   0  0  0  0  0  0  0  0  0  0  0  0
   59.4070   28.3790   47.1610 C   0  0  0  0  0  0  0  0  0  0  0  0
   59.7800   28.6280   48.4850 C   0  0  0  0  0  0  0  0  0  0  0  0
   60.6500   29.6820   48.7820 C   0  0  0  0  0  0  0  0  0  0  0  0
   61.0090   29.9230   50.0670 F   0  0  0  0  0  0  0  0  0  0  0  0
   61.1470   30.4880   47.7540 C   0  0  0  0  0  0  0  0  0  0  0  0
   60.7770   30.2410   46.4280 C   0  0  0  0  0  0  0  0  0  0  0  0
   58.1360   27.1500   43.7500 C   0  0  0  0  0  0  0  0  0  0  0  0
   57.5090   25.9800   44.4410 C   0  0  0  0  0  0  0  0  0  0  0  0
   57.4070   24.6910   43.9350 C   0  0  0  0  0  0  0  0  0  0  0  0
   56.8010   23.7980   44.8250 C   0  0  0  0  0  0  0  0  0  0  0  0
   56.4320   24.3760   46.0330 C   0  0  0  0  0  0  0  0  0  0  0  0
   56.8630   26.0020   45.9930 S   0  0  0  0  0  0  0  0  0  0  0  0
   57.7690   31.5230   45.8340 C   0  0  0  0  0  0  0  0  0  0  0  0
   58.2390   32.8110   46.1090 C   0  0  0  0  0  0  0  0  0  0  0  0
   58.4180   33.1970   47.3970 F   0  0  0  0  0  0  0  0  0  0  0  0
   59.5691   35.1409   47.3682 H   0  0  0  0  0  0  0  0  0  0  0  0
   60.8276   34.5490   46.2313 H   0  0  0  0  0  0  0  0  0  0  0  0
   60.3616   36.2837   46.2313 H   0  0  0  0  0  0  0  0  0  0  0  0
   58.5528   33.9711   42.9055 H   0  0  0  0  0  0  0  0  0  0  0  0
   57.7187   31.6727   42.4199 H   0  0  0  0  0  0  0  0  0  0  0  0
   60.2213   28.2713   44.2155 H   0  0  0  0  0  0  0  0  0  0  0  0
   59.4577   29.9012   44.1622 H   0  0  0  0  0  0  0  0  0  0  0  0
   58.7214   27.5499   46.9316 H   0  0  0  0  0  0  0  0  0  0  0  0
   59.3887   27.9941   49.2944 H   0  0  0  0  0  0  0  0  0  0  0  0
   61.8301   31.3178   47.9881 H   0  0  0  0  0  0  0  0  0  0  0  0
   61.1706   30.8769   45.6214 H   0  0  0  0  0  0  0  0  0  0  0  0
   57.5541   27.3965   42.8497 H   0  0  0  0  0  0  0  0  0  0  0  0
   59.1676   26.8933   43.4675 H   0  0  0  0  0  0  0  0  0  0  0  0
   57.7660   24.4016   42.9363 H   0  0  0  0  0  0  0  0  0  0  0  0
   56.6323   22.7367   44.5901 H   0  0  0  0  0  0  0  0  0  0  0  0
   55.9422   23.8595   46.8716 H   0  0  0  0  0  0  0  0  0  0  0  0
   57.5501   30.8311   46.6607 H   0  0  0  0  0  0  0  0  0  0  0  0
  1  2  1  0
  2  3  1  0
  3  4  2  0
  4  5  1  0
  5  6  2  0
  6  7  1  0
  7  8  2  0
  7  9  2  0
  7 10  1  0
 10 11  1  0
 11 12  1  0
 12 13  2  0
 13 14  1  0
 14 15  2  0
 15 16  1  0
 15 17  1  0
 17 18  2  0
 10 19  1  0
 19 20  1  0
 20 21  2  0
 21 22  1  0
 22 23  2  0
 23 24  1  0
  6 25  1  0
 25 26  2  0
 26 27  1  0
 26  3  1  0
 18 12  1  0
 24 20  1  0
  1 28  1  0
  1 29  1  0
  1 30  1  0
  4 31  1  0
  5 32  1  0
 11 33  1  0
 11 34  1  0
 13 35  1  0
 14 36  1  0
 17 37  1  0
 18 38  1  0
 19 39  1  0
 19 40  1  0
 21 41  1  0
 22 42  1  0
 23 43  1  0
 25 44  1  0
M  END
>  <UniqueID>  (58) 
53

>  <SMILES>  (58) 
COc1ccc(S(=O)(=O)N(Cc2ccc(F)cc2)Cc2cccs2)cc1F

>  <Energy>  (58) 
69.26981245887605

>  <Genealogy>  (58) 
COc1ccc(S(=O)(=O)N(Cc2ccc(F)cc2)Cc2cccs2)cc1F (3D coordinates assigned)
COc1ccc(S(=O)(=O)N(Cc2ccc(F)cc2)Cc2cccs2)cc1F (optimized conformer: 69.26981245887605 kcal/mol)

>  <smiles>  (58) 
COc1ccc(S(=O)(=O)N(Cc2ccc(F)cc2)Cc2cccs2)cc1F

>  <score_type>  (58) 
oracle

>  <origin>  (58) 
adg

>  <m_score__min__energy>  (58) 
-7.75

>  <m_primary>  (58) 
energy

$$$$
58:0
     RDKit          3D

 37 38  0  0  0  0  0  0  0  0999 V2000
   61.3210   29.3870   45.3356 H   0  0  0  0  0  0  0  0  0  0  0  0
   60.5470   29.7970   46.0010 C   0  0  0  0  0  0  0  0  0  0  0  0
   60.9460   30.4230   47.1190 C   0  0  0  0  0  0  0  0  0  0  0  0
   61.7471   31.1715   47.0296 H   0  0  0  0  0  0  0  0  0  0  0  0
   60.3710   30.1700   48.4880 C   0  0  0  0  0  0  0  0  0  0  0  0
   61.1471   30.3576   49.2446 H   0  0  0  0  0  0  0  0  0  0  0  0
   60.0296   29.1255   48.5375 H   0  0  0  0  0  0  0  0  0  0  0  0
   59.2170   31.0560   48.7490 N   0  0  0  0  0  0  0  0  0  0  0  0
   58.5470   30.7260   50.0190 C   0  0  0  0  0  0  0  0  0  0  0  0
   59.1822   31.0389   50.8608 H   0  0  0  0  0  0  0  0  0  0  0  0
   57.5824   31.2521   50.0722 H   0  0  0  0  0  0  0  0  0  0  0  0
   58.3761   29.6407   50.0722 H   0  0  0  0  0  0  0  0  0  0  0  0
   59.5540   32.4950   48.6410 C   0  0  0  0  0  0  0  0  0  0  0  0
   59.0844   33.0247   49.4830 H   0  0  0  0  0  0  0  0  0  0  0  0
   60.6515   32.5675   48.6552 H   0  0  0  0  0  0  0  0  0  0  0  0
   59.0860   33.1430   47.3470 C   0  0  0  0  0  0  0  0  0  0  0  0
   57.7090   33.1690   47.0510 C   0  0  0  0  0  0  0  0  0  0  0  0
   56.9918   32.7321   47.7615 H   0  0  0  0  0  0  0  0  0  0  0  0
   57.2440   33.7430   45.8660 C   0  0  0  0  0  0  0  0  0  0  0  0
   56.1665   33.7486   45.6446 H   0  0  0  0  0  0  0  0  0  0  0  0
   58.1430   34.3090   44.9630 C   0  0  0  0  0  0  0  0  0  0  0  0
   57.7757   34.7515   44.0253 H   0  0  0  0  0  0  0  0  0  0  0  0
   59.5090   34.3140   45.2490 C   0  0  0  0  0  0  0  0  0  0  0  0
   60.2141   34.7692   44.5379 H   0  0  0  0  0  0  0  0  0  0  0  0
   59.9890   33.7430   46.4360 C   0  0  0  0  0  0  0  0  0  0  0  0
   61.7200   33.8360   46.7450 Cl  0  0  0  0  0  0  0  0  0  0  0  0
   59.1340   29.6240   45.6080 C   0  0  0  0  0  0  0  0  0  0  0  0
   58.4050   28.4840   45.9870 C   0  0  0  0  0  0  0  0  0  0  0  0
   58.8876   27.6999   46.5888 H   0  0  0  0  0  0  0  0  0  0  0  0
   57.0690   28.3430   45.6020 C   0  0  0  0  0  0  0  0  0  0  0  0
   56.5072   27.4413   45.8870 H   0  0  0  0  0  0  0  0  0  0  0  0
   56.4460   29.3470   44.8550 C   0  0  0  0  0  0  0  0  0  0  0  0
   55.1500   29.2090   44.4830 F   0  0  0  0  0  0  0  0  0  0  0  0
   57.1570   30.4970   44.5010 C   0  0  0  0  0  0  0  0  0  0  0  0
   56.6641   31.2906   43.9203 H   0  0  0  0  0  0  0  0  0  0  0  0
   58.4940   30.6400   44.8840 C   0  0  0  0  0  0  0  0  0  0  0  0
   59.0460   31.5531   44.6163 H   0  0  0  0  0  0  0  0  0  0  0  0
  1  2  1  0
  2  3  2  0
  3  4  1  0
  3  5  1  0
  5  6  1  0
  5  7  1  0
  5  8  1  0
  8  9  1  0
  9 10  1  0
  9 11  1  0
  9 12  1  0
  8 13  1  0
 13 14  1  0
 13 15  1  0
 13 16  1  0
 16 17  2  0
 17 18  1  0
 17 19  1  0
 19 20  1  0
 19 21  2  0
 21 22  1  0
 21 23  1  0
 23 24  1  0
 23 25  2  0
 25 26  1  0
  2 27  1  0
 27 28  2  0
 28 29  1  0
 28 30  1  0
 30 31  1  0
 30 32  2  0
 32 33  1  0
 32 34  1  0
 34 35  1  0
 34 36  2  0
 36 37  1  0
 25 16  1  0
 36 27  1  0
M  END
>  <UniqueID>  (59) 
54

>  <SMILES>  (59) 
CN(C/C=C\c1ccc(F)cc1)Cc1ccccc1Cl

>  <Energy>  (59) 
46.0849026583935

>  <Genealogy>  (59) 
CN(C/C=C\c1ccc(F)cc1)Cc1ccccc1Cl (cis-trans isomerization)
CN(C/C=C\c1ccc(F)cc1)Cc1ccccc1Cl (3D coordinates assigned)
CN(C/C=C\c1ccc(F)cc1)Cc1ccccc1Cl (optimized conformer: 46.0849026583935 kcal/mol)

>  <smiles>  (59) 
CN(CC=Cc1ccc(F)cc1)Cc1ccccc1Cl

>  <score_type>  (59) 
oracle

>  <origin>  (59) 
adg

>  <m_score__min__energy>  (59) 
-7.1200000000000001

>  <m_primary>  (59) 
energy

$$$$
59:0
     RDKit          3D

 41 42  0  0  0  0  0  0  0  0999 V2000
   56.5250   24.0610   43.7460 C   0  0  0  0  0  0  0  0  0  0  0  0
   56.7970   23.4110   45.1030 C   0  0  0  0  0  0  0  0  0  0  0  0
   56.3510   24.2870   46.2010 N   0  0  0  0  0  0  0  0  0  0  0  0
   55.8670   23.7030   47.4560 C   0  0  0  0  0  0  0  0  0  0  0  0
   56.2870   25.7190   46.0350 C   0  0  0  0  0  0  0  0  0  0  0  0
   55.1660   26.2970   46.0110 O   0  0  0  0  0  0  0  0  0  0  0  0
   57.5050   26.5340   45.8720 C   0  0  0  0  0  0  0  0  0  0  0  0
   58.7300   26.1040   46.3930 C   0  0  0  0  0  0  0  0  0  0  0  0
   59.8760   26.8740   46.1930 C   0  0  0  0  0  0  0  0  0  0  0  0
   59.7880   28.0620   45.4660 C   0  0  0  0  0  0  0  0  0  0  0  0
   58.5840   28.4870   44.9730 N   0  0  0  0  0  0  0  0  0  0  0  0
   58.5170   29.6830   44.1250 C   0  0  0  0  0  0  0  0  0  0  0  0
   57.1580   30.3020   44.2380 C   0  0  0  0  0  0  0  0  0  0  0  0
   56.2280   29.9210   43.4770 O   0  0  0  0  0  0  0  0  0  0  0  0
   56.9260   31.3090   45.2290 N   0  0  0  0  0  0  0  0  0  0  0  0
   57.7850   32.4250   45.5070 C   0  0  0  0  0  0  0  0  0  0  0  0
   57.7210   33.6060   44.7420 C   0  0  0  0  0  0  0  0  0  0  0  0
   58.6070   34.6590   44.9960 C   0  0  0  0  0  0  0  0  0  0  0  0
   59.5630   34.5410   46.0070 C   0  0  0  0  0  0  0  0  0  0  0  0
   59.6430   33.3680   46.7610 C   0  0  0  0  0  0  0  0  0  0  0  0
   58.7650   32.3060   46.5090 C   0  0  0  0  0  0  0  0  0  0  0  0
   58.9080   30.8340   47.4580 Cl  0  0  0  0  0  0  0  0  0  0  0  0
   57.4490   27.7520   45.1840 C   0  0  0  0  0  0  0  0  0  0  0  0
   56.1045   25.0659   43.8985 H   0  0  0  0  0  0  0  0  0  0  0  0
   57.4660   24.1390   43.1816 H   0  0  0  0  0  0  0  0  0  0  0  0
   55.8089   23.4456   43.1816 H   0  0  0  0  0  0  0  0  0  0  0  0
   56.2546   22.4557   45.1606 H   0  0  0  0  0  0  0  0  0  0  0  0
   57.8795   23.2430   45.2031 H   0  0  0  0  0  0  0  0  0  0  0  0
   56.3124   24.2404   48.3062 H   0  0  0  0  0  0  0  0  0  0  0  0
   54.7713   23.7884   47.5016 H   0  0  0  0  0  0  0  0  0  0  0  0
   56.1543   22.6422   47.5016 H   0  0  0  0  0  0  0  0  0  0  0  0
   58.7894   25.1622   46.9583 H   0  0  0  0  0  0  0  0  0  0  0  0
   60.8420   26.5471   46.6053 H   0  0  0  0  0  0  0  0  0  0  0  0
   60.6930   28.6613   45.2879 H   0  0  0  0  0  0  0  0  0  0  0  0
   59.2777   30.4071   44.4522 H   0  0  0  0  0  0  0  0  0  0  0  0
   58.7044   29.4005   43.0786 H   0  0  0  0  0  0  0  0  0  0  0  0
   56.9719   33.7009   43.9421 H   0  0  0  0  0  0  0  0  0  0  0  0
   58.5503   35.5808   44.3985 H   0  0  0  0  0  0  0  0  0  0  0  0
   60.2538   35.3727   46.2098 H   0  0  0  0  0  0  0  0  0  0  0  0
   60.3983   33.2778   47.5556 H   0  0  0  0  0  0  0  0  0  0  0  0
   56.4832   28.1219   44.8093 H   0  0  0  0  0  0  0  0  0  0  0  0
  1  2  1  0
  2  3  1  0
  3  4  1  0
  3  5  1  0
  5  6  2  0
  5  7  1  0
  7  8  2  0
  8  9  1  0
  9 10  2  0
 10 11  1  0
 11 12  1  0
 12 13  1  0
 13 14  2  0
 13 15  1  0
 15 16  1  0
 16 17  2  0
 17 18  1  0
 18 19  2  0
 19 20  1  0
 20 21  2  0
 21 22  1  0
 11 23  2  0
 23  7  1  0
 21 16  1  0
  1 24  1  0
  1 25  1  0
  1 26  1  0
  2 27  1  0
  2 28  1  0
  4 29  1  0
  4 30  1  0
  4 31  1  0
  8 32  1  0
  9 33  1  0
 10 34  1  0
 12 35  1  0
 12 36  1  0
 17 37  1  0
 18 38  1  0
 19 39  1  0
 20 40  1  0
 23 41  1  0
M  CHG  2  11   1  15  -1
M  END
>  <UniqueID>  (60) 
55

>  <SMILES>  (60) 
CCN(C)C(=O)c1ccc[n+](CC(=O)[N-]c2ccccc2Cl)c1

>  <Energy>  (60) 
44.303154836726065

>  <Genealogy>  (60) 
CCN(C)C(=O)c1ccc[n+](CC(=O)[N-]c2ccccc2Cl)c1 (protonated)
CCN(C)C(=O)c1ccc[n+](CC(=O)[N-]c2ccccc2Cl)c1 (3D coordinates assigned)
CCN(C)C(=O)c1ccc[n+](CC(=O)[N-]c2ccccc2Cl)c1 (optimized conformer: 44.303154836726065 kcal/mol)

>  <smiles>  (60) 
CCN(C)C(=O)c1ccc[n+](CC(=O)Nc2ccccc2Cl)c1

>  <score_type>  (60) 
oracle

>  <origin>  (60) 
adg

>  <m_score__min__energy>  (60) 
-7.4699999999999998

>  <m_primary>  (60) 
energy

$$$$
60:0
     RDKit          3D

 39 41  0  0  1  0  0  0  0  0999 V2000
   57.3420   31.6720   42.0820 C   0  0  0  0  0  0  0  0  0  0  0  0
   56.7030   30.8300   42.8690 C   0  0  0  0  0  0  0  0  0  0  0  0
   57.2250   30.2760   44.0900 C   0  0  0  0  0  0  0  0  0  0  0  0
   56.6920   30.4720   45.2240 O   0  0  0  0  0  0  0  0  0  0  0  0
   58.4000   29.4580   44.0930 N   0  0  0  0  0  0  0  0  0  0  0  0
   58.8490   28.9520   45.3380 C   0  0  0  0  0  0  0  0  0  0  0  0
   58.7800   27.6260   45.6440 C   0  0  0  0  0  0  0  0  0  0  0  0
   59.1940   27.0700   46.8250 C   0  0  0  0  0  0  0  0  0  0  0  0
   59.7170   27.8950   47.7750 C   0  0  0  0  0  0  0  0  0  0  0  0
   60.1200   27.3300   48.9310 N   0  0  0  0  0  0  0  0  0  0  0  0
   60.6420   28.0950   49.9030 C   0  0  0  0  0  0  0  0  0  0  0  0
   60.7370   29.4090   49.6640 N   0  0  0  0  0  0  0  0  0  0  0  0
   60.3450   30.0080   48.5230 C   0  0  0  0  0  0  0  0  0  0  0  0
   60.4760   31.2290   48.4040 N   0  0  0  0  0  0  0  0  0  0  0  0
   61.4540   32.0480   47.9320 C   0  0  0  0  0  0  0  0  0  0  0  0
   62.8290   31.8730   48.2390 C   0  0  0  0  0  0  0  0  0  0  0  0
   63.7740   32.6660   47.6430 C   0  0  0  0  0  0  0  0  0  0  0  0
   63.3940   33.6400   46.7420 C   0  0  0  0  0  0  0  0  0  0  0  0
   62.0710   33.8430   46.4160 C   0  0  0  0  0  0  0  0  0  0  0  0
   61.0970   33.0570   47.0030 C   0  0  0  0  0  0  0  0  0  0  0  0
   59.6520   33.2450   46.6770 C   0  0  0  0  0  0  0  0  0  0  0  0
   59.8100   29.2490   47.5180 C   0  0  0  0  0  0  0  0  0  0  0  0
   59.3900   29.7860   46.3340 C   0  0  0  0  0  0  0  0  0  0  0  0
   56.8594   32.0426   41.1656 H   0  0  0  0  0  0  0  0  0  0  0  0
   58.3580   32.0042   42.3414 H   0  0  0  0  0  0  0  0  0  0  0  0
   55.6894   30.5264   42.5684 H   0  0  0  0  0  0  0  0  0  0  0  0
   58.9220   29.2310   43.2150 H   0  0  0  0  0  0  0  0  0  0  0  0
   58.3596   26.9506   44.8843 H   0  0  0  0  0  0  0  0  0  0  0  0
   59.1068   25.9878   47.0018 H   0  0  0  0  0  0  0  0  0  0  0  0
   60.9777   27.6603   50.8561 H   0  0  0  0  0  0  0  0  0  0  0  0
   61.1530   29.9840   50.4500 H   0  0  0  0  0  0  0  0  0  0  0  0
   63.1365   31.0987   48.9573 H   0  0  0  0  0  0  0  0  0  0  0  0
   64.8383   32.5260   47.8832 H   0  0  0  0  0  0  0  0  0  0  0  0
   64.1654   34.2687   46.2734 H   0  0  0  0  0  0  0  0  0  0  0  0
   61.7918   34.6246   45.6941 H   0  0  0  0  0  0  0  0  0  0  0  0
   59.0726   33.3204   47.6090 H   0  0  0  0  0  0  0  0  0  0  0  0
   59.5253   34.1672   46.0909 H   0  0  0  0  0  0  0  0  0  0  0  0
   59.2936   32.3859   46.0909 H   0  0  0  0  0  0  0  0  0  0  0  0
   59.4746   30.8688   46.1595 H   0  0  0  0  0  0  0  0  0  0  0  0
  1  2  2  0
  2  3  1  0
  3  4  2  0
  3  5  1  0
  5  6  1  0
  6  7  2  0
  7  8  1  0
  8  9  2  0
  9 10  1  0
 10 11  2  0
 11 12  1  0
 12 13  1  0
 13 14  2  0
 14 15  1  0
 15 16  2  0
 16 17  1  0
 17 18  2  0
 18 19  1  0
 19 20  2  0
 20 21  1  0
 13 22  1  0
 22 23  2  0
 23  6  1  0
 22  9  1  0
 20 15  1  0
  1 24  1  0
  1 25  1  0
  2 26  1  0
  5 27  1  0
  7 28  1  0
  8 29  1  0
 11 30  1  0
 12 31  1  0
 16 32  1  0
 17 33  1  0
 18 34  1  0
 19 35  1  0
 21 36  1  0
 21 37  1  0
 21 38  1  0
 23 39  1  0
M  END
>  <smiles>  (61) 
C=CC(=O)Nc1ccc2nc[nH]c(=Nc3ccccc3C)c2c1

>  <score_type>  (61) 
oracle

>  <origin>  (61) 
adg

>  <m_score__min__energy>  (61) 
-7.8200000000000003

>  <m_primary>  (61) 
energy

$$$$
61:0
     RDKit          3D

 28 29  0  0  0  0  0  0  0  0999 V2000
   55.4010   29.3750   44.0680 C   0  0  0  0  0  0  0  0  0  0  0  0
   56.4800   28.7360   44.8160 N   0  0  0  0  0  0  0  0  0  0  0  0
   56.3610   27.6690   45.6310 C   0  0  0  0  0  0  0  0  0  0  0  0
   55.1750   26.9720   45.8360 O   0  0  0  0  0  0  0  0  0  0  0  0
   57.5610   27.3730   46.2440 C   0  0  0  0  0  0  0  0  0  0  0  0
   58.4670   28.3080   45.7800 C   0  0  0  0  0  0  0  0  0  0  0  0
   57.7760   29.1120   44.8930 C   0  0  0  0  0  0  0  0  0  0  0  0
   58.3570   30.2240   44.2020 N   0  0  0  0  0  0  0  0  0  0  0  0
   57.7060   31.8260   44.3290 S   0  0  0  0  0  0  0  0  0  0  0  0
   57.7010   32.4660   42.9700 O   0  0  0  0  0  0  0  0  0  0  0  0
   56.2900   31.7480   44.8270 O   0  0  0  0  0  0  0  0  0  0  0  0
   58.6910   32.7970   45.4180 C   0  0  0  0  0  0  0  0  0  0  0  0
   58.8470   34.1690   45.1790 C   0  0  0  0  0  0  0  0  0  0  0  0
   59.6350   34.9460   46.0350 C   0  0  0  0  0  0  0  0  0  0  0  0
   60.2670   34.3540   47.1330 C   0  0  0  0  0  0  0  0  0  0  0  0
   60.1090   32.9870   47.3790 C   0  0  0  0  0  0  0  0  0  0  0  0
   59.3220   32.2090   46.5240 C   0  0  0  0  0  0  0  0  0  0  0  0
   54.6729   29.8062   44.7708 H   0  0  0  0  0  0  0  0  0  0  0  0
   55.8163   30.1729   43.4348 H   0  0  0  0  0  0  0  0  0  0  0  0
   54.9010   28.6273   43.4348 H   0  0  0  0  0  0  0  0  0  0  0  0
   57.7569   26.5586   46.9570 H   0  0  0  0  0  0  0  0  0  0  0  0
   59.5270   28.3950   46.0607 H   0  0  0  0  0  0  0  0  0  0  0  0
   58.9450   30.0240   43.3620 H   0  0  0  0  0  0  0  0  0  0  0  0
   58.3489   34.6360   44.3166 H   0  0  0  0  0  0  0  0  0  0  0  0
   59.7574   36.0224   45.8443 H   0  0  0  0  0  0  0  0  0  0  0  0
   60.8891   34.9647   47.8039 H   0  0  0  0  0  0  0  0  0  0  0  0
   60.6037   32.5233   48.2451 H   0  0  0  0  0  0  0  0  0  0  0  0
   59.1976   31.1336   46.7193 H   0  0  0  0  0  0  0  0  0  0  0  0
  1  2  1  0
  2  3  1  0
  3  4  1  0
  3  5  2  0
  5  6  1  0
  6  7  2  0
  7  8  1  0
  8  9  1  0
  9 10  2  0
  9 11  2  0
  9 12  1  0
 12 13  2  0
 13 14  1  0
 14 15  2  0
 15 16  1  0
 16 17  2  0
  7  2  1  0
 17 12  1  0
  1 18  1  0
  1 19  1  0
  1 20  1  0
  5 21  1  0
  6 22  1  0
  8 23  1  0
 13 24  1  0
 14 25  1  0
 15 26  1  0
 16 27  1  0
 17 28  1  0
M  CHG  1   4  -1
M  END
>  <UniqueID>  (62) 
56

>  <SMILES>  (62) 
Cn1c([O-])ccc1NS(=O)(=O)c1ccccc1

>  <Energy>  (62) 
60.81448506534518

>  <Genealogy>  (62) 
Cn1c([O-])ccc1NS(=O)(=O)c1ccccc1 (protonated)
Cn1c([O-])ccc1NS(=O)(=O)c1ccccc1 (3D coordinates assigned)
Cn1c([O-])ccc1NS(=O)(=O)c1ccccc1 (optimized conformer: 60.81448506534518 kcal/mol)

>  <smiles>  (62) 
Cn1c(O)ccc1NS(=O)(=O)c1ccccc1

>  <score_type>  (62) 
oracle

>  <origin>  (62) 
adg

>  <m_score__min__energy>  (62) 
-10.300000000000001

>  <m_primary>  (62) 
energy

$$$$
62:0
     RDKit          3D

 25 26  0  0  0  0  0  0  0  0999 V2000
   57.2380   32.4050   40.4580 C   0  0  0  0  0  0  0  0  0  0  0  0
   57.6200   32.3380   41.5990 C   0  0  0  0  0  0  0  0  0  0  0  0
   58.0840   32.2590   42.9880 C   0  0  0  0  0  0  0  0  0  0  0  0
   58.1000   30.8680   43.4350 N   0  0  0  0  0  0  0  0  0  0  0  0
   57.1480   30.3590   44.3850 C   0  0  0  0  0  0  0  0  0  0  0  0
   56.2260   31.1070   44.8090 O   0  0  0  0  0  0  0  0  0  0  0  0
   57.2240   28.9670   44.8740 C   0  0  0  0  0  0  0  0  0  0  0  0
   58.4080   28.2390   45.0020 C   0  0  0  0  0  0  0  0  0  0  0  0
   58.0200   27.0050   45.4730 C   0  0  0  0  0  0  0  0  0  0  0  0
   58.7740   25.8750   45.7850 C   0  0  0  0  0  0  0  0  0  0  0  0
   58.0880   24.7360   46.2490 C   0  0  0  0  0  0  0  0  0  0  0  0
   56.6820   24.7560   46.3870 C   0  0  0  0  0  0  0  0  0  0  0  0
   55.9490   25.9130   46.0630 C   0  0  0  0  0  0  0  0  0  0  0  0
   56.6560   27.0250   45.6080 C   0  0  0  0  0  0  0  0  0  0  0  0
   56.1550   28.2170   45.2440 N   0  0  0  0  0  0  0  0  0  0  0  0
   56.8893   32.4662   39.4165 H   0  0  0  0  0  0  0  0  0  0  0  0
   59.1002   32.6745   43.0560 H   0  0  0  0  0  0  0  0  0  0  0  0
   57.3999   32.8347   43.6288 H   0  0  0  0  0  0  0  0  0  0  0  0
   58.7880   30.2240   42.9880 H   0  0  0  0  0  0  0  0  0  0  0  0
   59.4297   28.5779   44.7756 H   0  0  0  0  0  0  0  0  0  0  0  0
   59.8682   25.8730   45.6726 H   0  0  0  0  0  0  0  0  0  0  0  0
   58.6499   23.8258   46.5054 H   0  0  0  0  0  0  0  0  0  0  0  0
   56.1563   23.8607   46.7504 H   0  0  0  0  0  0  0  0  0  0  0  0
   54.8541   25.9390   46.1654 H   0  0  0  0  0  0  0  0  0  0  0  0
   55.1470   28.4850   45.2400 H   0  0  0  0  0  0  0  0  0  0  0  0
  1  2  3  0
  2  3  1  0
  3  4  1  0
  4  5  1  0
  5  6  2  0
  5  7  1  0
  7  8  2  0
  8  9  1  0
  9 10  2  0
 10 11  1  0
 11 12  2  0
 12 13  1  0
 13 14  2  0
 14 15  1  0
 15  7  1  0
 14  9  1  0
  1 16  1  0
  3 17  1  0
  3 18  1  0
  4 19  1  0
  8 20  1  0
 10 21  1  0
 11 22  1  0
 12 23  1  0
 13 24  1  0
 15 25  1  0
M  END
>  <UniqueID>  (63) 
57

>  <SMILES>  (63) 
C#CCNC(=O)c1cc2ccccc2[nH]1

>  <Energy>  (63) 
53.30224781772808

>  <Genealogy>  (63) 
C#CCNC(=O)c1cc2ccccc2[nH]1 (3D coordinates assigned)
C#CCNC(=O)c1cc2ccccc2[nH]1 (optimized conformer: 53.30224781772808 kcal/mol)

>  <smiles>  (63) 
C#CCNC(=O)c1cc2ccccc2[nH]1

>  <score_type>  (63) 
oracle

>  <origin>  (63) 
adg

>  <m_score__min__energy>  (63) 
-6.3899999999999997

>  <m_primary>  (63) 
energy

$$$$
63:0
     RDKit          3D

 79 83  0  0  0  0  0  0  0  0999 V2000
   63.6499   33.6196   47.3370 H   0  0  0  0  0  0  0  0  0  0  0  0
   62.6820   33.3930   47.8080 C   0  0  0  0  0  0  0  0  0  0  0  0
   62.1120   34.2980   48.7030 C   0  0  0  0  0  0  0  0  0  0  0  0
   62.6360   35.2351   48.9425 H   0  0  0  0  0  0  0  0  0  0  0  0
   60.8800   34.0200   49.2960 C   0  0  0  0  0  0  0  0  0  0  0  0
   60.4535   34.7289   50.0210 H   0  0  0  0  0  0  0  0  0  0  0  0
   60.1750   32.8410   48.9770 C   0  0  0  0  0  0  0  0  0  0  0  0
   58.8440   32.5290   49.6420 C   0  0  0  0  0  0  0  0  0  0  0  0
   58.2562   31.8899   48.9667 H   0  0  0  0  0  0  0  0  0  0  0  0
   58.3429   33.4879   49.8403 H   0  0  0  0  0  0  0  0  0  0  0  0
   58.9890   31.8550   50.8960 O   0  0  0  0  0  0  0  0  0  0  0  0
   57.9960   31.0990   51.5460 C   0  0  0  0  0  0  0  0  0  0  0  0
   56.6960   31.5990   51.7550 C   0  0  0  0  0  0  0  0  0  0  0  0
   56.4314   32.6024   51.3900 H   0  0  0  0  0  0  0  0  0  0  0  0
   55.7400   30.8290   52.4230 C   0  0  0  0  0  0  0  0  0  0  0  0
   54.7336   31.2382   52.5954 H   0  0  0  0  0  0  0  0  0  0  0  0
   56.0520   29.5430   52.8740 C   0  0  0  0  0  0  0  0  0  0  0  0
   55.0380   28.7330   53.6270 C   0  0  0  0  0  0  0  0  0  0  0  0
   55.1969   28.8599   54.7080 H   0  0  0  0  0  0  0  0  0  0  0  0
   54.0263   29.0744   53.3625 H   0  0  0  0  0  0  0  0  0  0  0  0
   55.1474   27.6709   53.3625 H   0  0  0  0  0  0  0  0  0  0  0  0
   57.3450   29.0450   52.6750 C   0  0  0  0  0  0  0  0  0  0  0  0
   57.5998   28.0386   53.0386 H   0  0  0  0  0  0  0  0  0  0  0  0
   58.3220   29.8110   52.0180 C   0  0  0  0  0  0  0  0  0  0  0  0
   59.7000   29.2320   51.7980 C   0  0  0  0  0  0  0  0  0  0  0  0
   60.4492   30.0297   51.9097 H   0  0  0  0  0  0  0  0  0  0  0  0
   59.7470   28.8043   50.7857 H   0  0  0  0  0  0  0  0  0  0  0  0
   59.9880   28.1280   52.8120 C   0  0  0  0  0  0  0  0  0  0  0  0
   59.8833   28.5294   53.8308 H   0  0  0  0  0  0  0  0  0  0  0  0
   59.2751   27.3028   52.6680 H   0  0  0  0  0  0  0  0  0  0  0  0
   61.0132   27.7562   52.6680 H   0  0  0  0  0  0  0  0  0  0  0  0
   60.7740   31.9120   48.0870 C   0  0  0  0  0  0  0  0  0  0  0  0
   60.1460   30.6030   47.7870 C   0  0  0  0  0  0  0  0  0  0  0  0
   60.7060   29.4470   48.3620 C   0  0  0  0  0  0  0  0  0  0  0  0
   61.5797   29.5367   49.0242 H   0  0  0  0  0  0  0  0  0  0  0  0
   60.1630   28.1860   48.1000 C   0  0  0  0  0  0  0  0  0  0  0  0
   60.6378   27.2859   48.5176 H   0  0  0  0  0  0  0  0  0  0  0  0
   59.0160   28.0670   47.3070 C   0  0  0  0  0  0  0  0  0  0  0  0
   58.4780   26.7420   46.9510 C   0  0  0  0  0  0  0  0  0  0  0  0
   58.0750   25.9610   47.8570 O   0  0  0  0  0  0  0  0  0  0  0  0
   58.3010   26.3840   45.5740 N   0  0  0  0  0  0  0  0  0  0  0  0
   58.1130   25.1520   45.1940 C   0  0  0  0  0  0  0  0  0  0  0  0
   57.2120   24.8160   44.2400 N   0  0  0  0  0  0  0  0  0  0  0  0
   57.1760   23.4660   44.0570 C   0  0  0  0  0  0  0  0  0  0  0  0
   58.0080   22.7340   44.8910 C   0  0  0  0  0  0  0  0  0  0  0  0
   58.8790   23.7920   45.8600 S   0  0  0  0  0  0  0  0  0  0  0  0
   58.1400   21.2410   44.8430 C   0  0  0  0  0  0  0  0  0  0  0  0
   59.0639   20.9818   44.3052 H   0  0  0  0  0  0  0  0  0  0  0  0
   58.1674   20.8655   45.8766 H   0  0  0  0  0  0  0  0  0  0  0  0
   56.9850   20.6090   44.1500 N   0  0  1  0  0  0  0  0  0  0  0  0
   57.2670   19.6270   43.8940 H   0  0  0  0  0  0  0  0  0  0  0  0
   55.8110   20.4950   45.0400 C   0  0  0  0  0  0  0  0  0  0  0  0
   56.1414   20.5271   46.0887 H   0  0  0  0  0  0  0  0  0  0  0  0
   55.1220   21.3305   44.8469 H   0  0  0  0  0  0  0  0  0  0  0  0
   55.2956   19.5426   44.8469 H   0  0  0  0  0  0  0  0  0  0  0  0
   56.6600   21.3130   42.8820 C   0  0  0  0  0  0  0  0  0  0  0  0
   57.5452   21.2829   42.2297 H   0  0  0  0  0  0  0  0  0  0  0  0
   55.7971   20.7968   42.4360 H   0  0  0  0  0  0  0  0  0  0  0  0
   56.2520   22.7910   43.0870 C   0  0  0  0  0  0  0  0  0  0  0  0
   56.2967   23.3153   42.1210 H   0  0  0  0  0  0  0  0  0  0  0  0
   55.2296   22.8230   43.4915 H   0  0  0  0  0  0  0  0  0  0  0  0
   58.4330   29.2170   46.7560 C   0  0  0  0  0  0  0  0  0  0  0  0
   57.5054   29.1272   46.1717 H   0  0  0  0  0  0  0  0  0  0  0  0
   59.0160   30.4830   46.9390 C   0  0  0  0  0  0  0  0  0  0  0  0
   58.4810   31.6220   46.1520 C   0  0  0  0  0  0  0  0  0  0  0  0
   57.3800   31.5100   45.5440 O   0  0  0  0  0  0  0  0  0  0  0  0
   59.1770   32.8770   46.1660 N   0  0  0  0  0  0  0  0  0  0  0  0
   58.8880   34.0350   45.3170 C   0  0  0  0  0  0  0  0  0  0  0  0
   59.2421   33.8097   44.3002 H   0  0  0  0  0  0  0  0  0  0  0  0
   57.3800   34.3010   45.2010 C   0  0  0  0  0  0  0  0  0  0  0  0
   56.9428   34.3781   46.2074 H   0  0  0  0  0  0  0  0  0  0  0  0
   57.2145   35.2422   44.6562 H   0  0  0  0  0  0  0  0  0  0  0  0
   56.9025   33.4732   44.6562 H   0  0  0  0  0  0  0  0  0  0  0  0
   59.6440   35.2680   45.8310 C   0  0  0  0  0  0  0  0  0  0  0  0
   59.6431   35.2665   46.9310 H   0  0  0  0  0  0  0  0  0  0  0  0
   60.6810   35.2411   45.4652 H   0  0  0  0  0  0  0  0  0  0  0  0
   59.1497   36.1800   45.4652 H   0  0  0  0  0  0  0  0  0  0  0  0
   62.0230   32.2000   47.5110 C   0  0  0  0  0  0  0  0  0  0  0  0
   62.4847   31.4789   46.8204 H   0  0  0  0  0  0  0  0  0  0  0  0
  1  2  1  0
  2  3  2  0
  3  4  1  0
  3  5  1  0
  5  6  1  0
  5  7  2  0
  7  8  1  0
  8  9  1  0
  8 10  1  0
  8 11  1  0
 11 12  1  0
 12 13  2  0
 13 14  1  0
 13 15  1  0
 15 16  1  0
 15 17  2  0
 17 18  1  0
 18 19  1  0
 18 20  1  0
 18 21  1  0
 17 22  1  0
 22 23  1  0
 22 24  2  0
 24 25  1  0
 25 26  1  0
 25 27  1  0
 25 28  1  0
 28 29  1  0
 28 30  1  0
 28 31  1  0
  7 32  1  0
 32 33  1  0
 33 34  2  0
 34 35  1  0
 34 36  1  0
 36 37  1  0
 36 38  2  0
 38 39  1  0
 39 40  2  0
 39 41  1  0
 41 42  2  0
 42 43  1  0
 43 44  1  0
 44 45  2  0
 45 46  1  0
 45 47  1  0
 47 48  1  0
 47 49  1  0
 47 50  1  0
 50 51  1  6
 50 52  1  0
 52 53  1  0
 52 54  1  0
 52 55  1  0
 50 56  1  0
 56 57  1  0
 56 58  1  0
 56 59  1  0
 59 60  1  0
 59 61  1  0
 38 62  1  0
 62 63  1  0
 62 64  2  0
 64 65  1  0
 65 66  2  0
 65 67  1  0
 67 68  1  0
 68 69  1  0
 68 70  1  0
 70 71  1  0
 70 72  1  0
 70 73  1  0
 68 74  1  0
 74 75  1  0
 74 76  1  0
 74 77  1  0
 32 78  2  0
 78 79  1  0
 78  2  1  0
 24 12  1  0
 64 33  1  0
 46 42  1  0
 59 44  1  0
M  CHG  3  43  -1  50   1  67  -1
M  END
>  <UniqueID>  (64) 
58

>  <SMILES>  (64) 
CCc1cc(C)ccc1OCc1ccccc1-c1ccc(C(=O)/N=c2/[n-]c3c(s2)C[N@@H+](C)CC3)cc1C(=O)[N-]C(C)C

>  <Energy>  (64) 
137.02619271876046

>  <Genealogy>  (64) 
CCc1cc(C)ccc1OCc1ccccc1-c1ccc(C(=O)N=c2[n-]c3c(s2)C[NH+](C)CC3)cc1C(=O)[N-]C(C)C (protonated)
CCc1cc(C)ccc1OCc1ccccc1-c1ccc(C(=O)N=c2[n-]c3c(s2)C[N@@H+](C)CC3)cc1C(=O)[N-]C(C)C (chirality)
CCc1cc(C)ccc1OCc1ccccc1-c1ccc(C(=O)/N=c2/[n-]c3c(s2)C[N@@H+](C)CC3)cc1C(=O)[N-]C(C)C (cis-trans isomerization)
CCc1cc(C)ccc1OCc1ccccc1-c1ccc(C(=O)/N=c2/[n-]c3c(s2)C[N@@H+](C)CC3)cc1C(=O)[N-]C(C)C (3D coordinates assigned)
CCc1cc(C)ccc1OCc1ccccc1-c1ccc(C(=O)/N=c2/[n-]c3c(s2)C[N@@H+](C)CC3)cc1C(=O)[N-]C(C)C (nonaromatic ring conformer: 137.02619271876046 kcal/mol)

>  <smiles>  (64) 
CCc1cc(C)ccc1OCc1ccccc1-c1ccc(C(=O)N=c2[nH]c3c(s2)CN(C)CC3)cc1C(=O)NC(C)C

>  <score_type>  (64) 
oracle

>  <origin>  (64) 
adg

>  <m_score__min__energy>  (64) 
-10.550000000000001

>  <m_primary>  (64) 
energy

$$$$
64:0
     RDKit          3D

 36 37  0  0  0  0  0  0  0  0999 V2000
   59.2460   35.2350   45.0420 C   0  0  0  0  0  0  0  0  0  0  0  0
   60.0210   34.8260   46.2890 C   0  0  0  0  0  0  0  0  0  0  0  0
   59.1780   34.9930   47.4790 N   0  0  0  0  0  0  0  0  0  0  0  0
   59.8270   34.3980   48.6520 C   0  0  0  0  0  0  0  0  0  0  0  0
   60.8760   33.4040   48.2190 C   0  0  0  0  0  0  0  0  0  0  0  0
   62.2050   33.8410   48.0620 C   0  0  0  0  0  0  0  0  0  0  0  0
   63.2090   32.9450   47.6900 C   0  0  0  0  0  0  0  0  0  0  0  0
   62.9040   31.6020   47.4820 C   0  0  0  0  0  0  0  0  0  0  0  0
   61.5930   31.1500   47.6360 C   0  0  0  0  0  0  0  0  0  0  0  0
   60.5680   32.0410   47.9870 C   0  0  0  0  0  0  0  0  0  0  0  0
   58.9040   31.3690   48.1940 S   0  0  0  0  0  0  0  0  0  0  0  0
   58.4450   31.5420   46.4590 C   0  0  0  0  0  0  0  0  0  0  0  0
   58.9160   30.5970   45.5340 C   0  0  0  0  0  0  0  0  0  0  0  0
   58.6140   30.7210   44.1770 C   0  0  0  0  0  0  0  0  0  0  0  0
   57.8200   31.7790   43.7310 C   0  0  0  0  0  0  0  0  0  0  0  0
   57.4090   31.9480   41.8730 Br  0  0  0  0  0  0  0  0  0  0  0  0
   57.3080   32.7020   44.6480 C   0  0  0  0  0  0  0  0  0  0  0  0
   57.5970   32.5830   46.0160 C   0  0  0  0  0  0  0  0  0  0  0  0
   56.9760   33.4860   46.9390 N   0  0  0  0  0  0  0  0  0  0  0  0
   58.3091   35.7294   45.3383 H   0  0  0  0  0  0  0  0  0  0  0  0
   59.8540   35.9297   44.4439 H   0  0  0  0  0  0  0  0  0  0  0  0
   59.0156   34.3411   44.4439 H   0  0  0  0  0  0  0  0  0  0  0  0
   60.3231   33.7720   46.2012 H   0  0  0  0  0  0  0  0  0  0  0  0
   60.9133   35.4621   46.3854 H   0  0  0  0  0  0  0  0  0  0  0  0
   59.0750   36.0210   47.6560 H   0  0  0  0  0  0  0  0  0  0  0  0
   60.3024   35.1923   49.2462 H   0  0  0  0  0  0  0  0  0  0  0  0
   59.0689   33.8791   49.2569 H   0  0  0  0  0  0  0  0  0  0  0  0
   62.4548   34.8984   48.2340 H   0  0  0  0  0  0  0  0  0  0  0  0
   64.2421   33.3001   47.5610 H   0  0  0  0  0  0  0  0  0  0  0  0
   63.6980   30.8965   47.1958 H   0  0  0  0  0  0  0  0  0  0  0  0
   61.3612   30.0859   47.4809 H   0  0  0  0  0  0  0  0  0  0  0  0
   59.5282   29.7517   45.8815 H   0  0  0  0  0  0  0  0  0  0  0  0
   59.0020   29.9843   43.4582 H   0  0  0  0  0  0  0  0  0  0  0  0
   56.6736   33.5280   44.2942 H   0  0  0  0  0  0  0  0  0  0  0  0
   56.0190   33.8700   46.7760 H   0  0  0  0  0  0  0  0  0  0  0  0
   57.4950   33.8290   47.7780 H   0  0  0  0  0  0  0  0  0  0  0  0
  1  2  1  0
  2  3  1  0
  3  4  1  0
  4  5  1  0
  5  6  2  0
  6  7  1  0
  7  8  2  0
  8  9  1  0
  9 10  2  0
 10 11  1  0
 11 12  1  0
 12 13  2  0
 13 14  1  0
 14 15  2  0
 15 16  1  0
 15 17  1  0
 17 18  2  0
 18 19  1  0
 10  5  1  0
 18 12  1  0
  1 20  1  0
  1 21  1  0
  1 22  1  0
  2 23  1  0
  2 24  1  0
  3 25  1  0
  4 26  1  0
  4 27  1  0
  6 28  1  0
  7 29  1  0
  8 30  1  0
  9 31  1  0
 13 32  1  0
 14 33  1  0
 17 34  1  0
 19 35  1  0
 19 36  1  0
M  END
>  <UniqueID>  (65) 
59

>  <SMILES>  (65) 
CCNCc1ccccc1Sc1ccc(Br)cc1N

>  <Energy>  (65) 
29.831409060983912

>  <Genealogy>  (65) 
CCNCc1ccccc1Sc1ccc(Br)cc1N (3D coordinates assigned)
CCNCc1ccccc1Sc1ccc(Br)cc1N (optimized conformer: 29.831409060983912 kcal/mol)

>  <smiles>  (65) 
CCNCc1ccccc1Sc1ccc(Br)cc1N

>  <score_type>  (65) 
oracle

>  <origin>  (65) 
adg

>  <m_score__min__energy>  (65) 
-7.4199999999999999

>  <m_primary>  (65) 
energy

$$$$
65:0
     RDKit          3D

 39 41  0  0  0  0  0  0  0  0999 V2000
   57.4570   31.9810   43.4250 C   0  0  0  0  0  0  0  0  0  0  0  0
   57.0550   31.6260   44.7440 O   0  0  0  0  0  0  0  0  0  0  0  0
   57.3180   30.3630   45.2840 C   0  0  0  0  0  0  0  0  0  0  0  0
   58.5430   30.1200   45.9540 C   0  0  0  0  0  0  0  0  0  0  0  0
   59.5900   31.2310   46.0790 C   0  0  1  0  0  0  0  0  0  0  0  0
   58.9440   32.6190   46.2300 C   0  0  0  0  0  0  0  0  0  0  0  0
   58.2990   32.8200   47.6020 C   0  0  0  0  0  0  0  0  0  0  0  0
   59.2070   32.4220   48.7370 C   0  0  0  0  0  0  0  0  0  0  0  0
   58.9170   32.8960   50.0270 C   0  0  0  0  0  0  0  0  0  0  0  0
   59.6810   32.4860   51.1210 C   0  0  0  0  0  0  0  0  0  0  0  0
   60.7330   31.5890   50.9430 C   0  0  0  0  0  0  0  0  0  0  0  0
   61.0240   31.0970   49.6700 C   0  0  0  0  0  0  0  0  0  0  0  0
   60.2660   31.4980   48.5560 C   0  0  0  0  0  0  0  0  0  0  0  0
   60.6520   30.9680   47.1850 C   0  0  2  0  0  0  0  0  0  0  0  0
   61.9430   31.5380   46.7870 N   0  0  0  0  0  0  0  0  0  0  0  0
   63.0030   30.8980   46.9570 O   0  0  0  0  0  0  0  0  0  0  0  0
   62.0120   32.8600   46.4120 O   0  0  0  0  0  0  0  0  0  0  0  0
   58.7550   28.8530   46.5350 C   0  0  0  0  0  0  0  0  0  0  0  0
   57.7900   27.8500   46.4340 C   0  0  0  0  0  0  0  0  0  0  0  0
   56.6070   28.0810   45.7360 C   0  0  0  0  0  0  0  0  0  0  0  0
   55.6660   27.0640   45.6220 O   0  0  0  0  0  0  0  0  0  0  0  0
   56.3720   29.3250   45.1420 C   0  0  0  0  0  0  0  0  0  0  0  0
   55.2080   29.5000   44.3910 O   0  0  0  0  0  0  0  0  0  0  0  0
   58.2806   32.7083   43.4760 H   0  0  0  0  0  0  0  0  0  0  0  0
   57.7950   31.0812   42.8900 H   0  0  0  0  0  0  0  0  0  0  0  0
   56.6060   32.4277   42.8900 H   0  0  0  0  0  0  0  0  0  0  0  0
   60.1408   31.2207   45.1269 H   0  0  0  0  0  0  0  0  0  0  0  0
   59.7198   33.3861   46.0894 H   0  0  0  0  0  0  0  0  0  0  0  0
   58.1504   32.7019   45.4728 H   0  0  0  0  0  0  0  0  0  0  0  0
   58.0388   33.8827   47.7159 H   0  0  0  0  0  0  0  0  0  0  0  0
   57.4089   32.1753   47.6477 H   0  0  0  0  0  0  0  0  0  0  0  0
   58.0814   33.5957   50.1763 H   0  0  0  0  0  0  0  0  0  0  0  0
   59.4524   32.8715   52.1255 H   0  0  0  0  0  0  0  0  0  0  0  0
   61.3343   31.2687   51.8067 H   0  0  0  0  0  0  0  0  0  0  0  0
   61.8547   30.3884   49.5369 H   0  0  0  0  0  0  0  0  0  0  0  0
   60.7198   29.8744   47.2818 H   0  0  0  0  0  0  0  0  0  0  0  0
   59.6925   28.6527   47.0745 H   0  0  0  0  0  0  0  0  0  0  0  0
   57.9644   26.8727   46.9077 H   0  0  0  0  0  0  0  0  0  0  0  0
   54.3670   28.9640   44.5570 H   0  0  0  0  0  0  0  0  0  0  0  0
  1  2  1  0
  2  3  1  0
  3  4  2  0
  4  5  1  0
  5  6  1  0
  6  7  1  0
  7  8  1  0
  8  9  2  0
  9 10  1  0
 10 11  2  0
 11 12  1  0
 12 13  2  0
 13 14  1  0
 14 15  1  0
 15 16  2  0
 15 17  1  0
  4 18  1  0
 18 19  2  0
 19 20  1  0
 20 21  1  0
 20 22  2  0
 22 23  1  0
 22  3  1  0
 14  5  1  0
 13  8  1  0
  1 24  1  0
  1 25  1  0
  1 26  1  0
  5 27  1  6
  6 28  1  0
  6 29  1  0
  7 30  1  0
  7 31  1  0
  9 32  1  0
 10 33  1  0
 11 34  1  0
 12 35  1  0
 14 36  1  1
 18 37  1  0
 19 38  1  0
 23 39  1  0
M  CHG  3  15   1  17  -1  21  -1
M  END
>  <UniqueID>  (66) 
60

>  <SMILES>  (66) 
COc1c([C@H]2CCc3ccccc3[C@@H]2[N+](=O)[O-])ccc([O-])c1O

>  <Energy>  (66) 
53.09851936605265

>  <Genealogy>  (66) 
COc1c(C2CCc3ccccc3C2[N+](=O)[O-])ccc([O-])c1O (protonated)
COc1c([C@H]2CCc3ccccc3[C@@H]2[N+](=O)[O-])ccc([O-])c1O (chirality)
COc1c([C@H]2CCc3ccccc3[C@@H]2[N+](=O)[O-])ccc([O-])c1O (3D coordinates assigned)
COc1c([C@H]2CCc3ccccc3[C@@H]2[N+](=O)[O-])ccc([O-])c1O (nonaromatic ring conformer: 53.09851936605265 kcal/mol)

>  <smiles>  (66) 
COc1c(C2CCc3ccccc3C2[N+](=O)[O-])ccc(O)c1O

>  <score_type>  (66) 
oracle

>  <origin>  (66) 
adg

>  <m_score__min__energy>  (66) 
-9.7200000000000006

>  <m_primary>  (66) 
energy

$$$$
66:0
     RDKit          3D

 43 44  0  0  0  0  0  0  0  0999 V2000
   57.0260   34.5590   44.8880 C   0  0  0  0  0  0  0  0  0  0  0  0
   58.4700   34.1960   45.2270 C   0  0  0  0  0  0  0  0  0  0  0  0
   58.5170   33.1270   46.2370 N   0  0  0  0  0  0  0  0  0  0  0  0
   58.8480   33.4770   47.6270 C   0  0  0  0  0  0  0  0  0  0  0  0
   59.8800   34.5990   47.6700 C   0  0  0  0  0  0  0  0  0  0  0  0
   58.1800   31.7710   45.8600 C   0  0  0  0  0  0  0  0  0  0  0  0
   58.9040   30.6690   46.3470 C   0  0  0  0  0  0  0  0  0  0  0  0
   58.5510   29.3790   45.9480 C   0  0  0  0  0  0  0  0  0  0  0  0
   57.4960   29.1820   45.0500 C   0  0  0  0  0  0  0  0  0  0  0  0
   57.1290   27.8460   44.6660 N   0  0  0  0  0  0  0  0  0  0  0  0
   56.9520   26.7620   45.5980 C   0  0  0  0  0  0  0  0  0  0  0  0
   57.0230   26.9810   46.8380 O   0  0  0  0  0  0  0  0  0  0  0  0
   56.6770   25.3820   45.1300 C   0  0  0  0  0  0  0  0  0  0  0  0
   55.8620   24.5040   45.8680 C   0  0  0  0  0  0  0  0  0  0  0  0
   55.6210   23.2050   45.4110 C   0  0  0  0  0  0  0  0  0  0  0  0
   56.1970   22.7560   44.2080 C   0  0  0  0  0  0  0  0  0  0  0  0
   55.9830   21.4640   43.7070 O   0  0  0  0  0  0  0  0  0  0  0  0
   56.9490   20.7150   42.9750 C   0  0  0  0  0  0  0  0  0  0  0  0
   57.0180   23.6240   43.4800 C   0  0  0  0  0  0  0  0  0  0  0  0
   57.2620   24.9210   43.9370 C   0  0  0  0  0  0  0  0  0  0  0  0
   56.7850   30.3040   44.5960 C   0  0  0  0  0  0  0  0  0  0  0  0
   57.1440   31.5500   45.0030 N   0  0  0  0  0  0  0  0  0  0  0  0
   56.4560   34.7023   45.8178 H   0  0  0  0  0  0  0  0  0  0  0  0
   57.0099   35.4891   44.3010 H   0  0  0  0  0  0  0  0  0  0  0  0
   56.5719   33.7471   44.3010 H   0  0  0  0  0  0  0  0  0  0  0  0
   58.9792   33.8525   44.3145 H   0  0  0  0  0  0  0  0  0  0  0  0
   58.9713   35.0869   45.6331 H   0  0  0  0  0  0  0  0  0  0  0  0
   57.9345   33.8068   48.1435 H   0  0  0  0  0  0  0  0  0  0  0  0
   59.2689   32.5905   48.1239 H   0  0  0  0  0  0  0  0  0  0  0  0
   60.1083   34.8472   48.7170 H   0  0  0  0  0  0  0  0  0  0  0  0
   60.7991   34.2715   47.1620 H   0  0  0  0  0  0  0  0  0  0  0  0
   59.4770   35.4875   47.1620 H   0  0  0  0  0  0  0  0  0  0  0  0
   59.7449   30.8226   47.0393 H   0  0  0  0  0  0  0  0  0  0  0  0
   59.1044   28.5135   46.3411 H   0  0  0  0  0  0  0  0  0  0  0  0
   56.9370   27.6840   43.6530 H   0  0  0  0  0  0  0  0  0  0  0  0
   55.4108   24.8425   46.8123 H   0  0  0  0  0  0  0  0  0  0  0  0
   54.9777   22.5302   45.9948 H   0  0  0  0  0  0  0  0  0  0  0  0
   57.6187   20.1958   43.6764 H   0  0  0  0  0  0  0  0  0  0  0  0
   56.4367   19.9757   42.3417 H   0  0  0  0  0  0  0  0  0  0  0  0
   57.5374   21.3953   42.3417 H   0  0  0  0  0  0  0  0  0  0  0  0
   57.4752   23.2820   42.5398 H   0  0  0  0  0  0  0  0  0  0  0  0
   57.9178   25.5882   43.3585 H   0  0  0  0  0  0  0  0  0  0  0  0
   55.9355   30.1744   43.9093 H   0  0  0  0  0  0  0  0  0  0  0  0
  1  2  1  0
  2  3  1  0
  3  4  1  0
  4  5  1  0
  3  6  1  0
  6  7  2  0
  7  8  1  0
  8  9  2  0
  9 10  1  0
 10 11  1  0
 11 12  2  0
 11 13  1  0
 13 14  2  0
 14 15  1  0
 15 16  2  0
 16 17  1  0
 17 18  1  0
 16 19  1  0
 19 20  2  0
  9 21  1  0
 21 22  2  0
 22  6  1  0
 20 13  1  0
  1 23  1  0
  1 24  1  0
  1 25  1  0
  2 26  1  0
  2 27  1  0
  4 28  1  0
  4 29  1  0
  5 30  1  0
  5 31  1  0
  5 32  1  0
  7 33  1  0
  8 34  1  0
 10 35  1  0
 14 36  1  0
 15 37  1  0
 18 38  1  0
 18 39  1  0
 18 40  1  0
 19 41  1  0
 20 42  1  0
 21 43  1  0
M  END
>  <UniqueID>  (67) 
61

>  <SMILES>  (67) 
CCN(CC)c1ccc(NC(=O)c2ccc(OC)cc2)cn1

>  <Energy>  (67) 
45.60338352482418

>  <Genealogy>  (67) 
CCN(CC)c1ccc(NC(=O)c2ccc(OC)cc2)cn1 (3D coordinates assigned)
CCN(CC)c1ccc(NC(=O)c2ccc(OC)cc2)cn1 (optimized conformer: 45.60338352482418 kcal/mol)

>  <smiles>  (67) 
CCN(CC)c1ccc(NC(=O)c2ccc(OC)cc2)cn1

>  <score_type>  (67) 
oracle

>  <origin>  (67) 
adg

>  <m_score__min__energy>  (67) 
-6.9299999999999997

>  <m_primary>  (67) 
energy

$$$$
67:0
     RDKit          3D

 36 37  0  0  0  0  0  0  0  0999 V2000
   59.2930   34.7110   45.5700 C   0  0  0  0  0  0  0  0  0  0  0  0
   58.1690   34.1130   44.9320 O   0  0  0  0  0  0  0  0  0  0  0  0
   57.9550   32.7300   44.8360 C   0  0  0  0  0  0  0  0  0  0  0  0
   58.1800   31.8540   45.9150 C   0  0  0  0  0  0  0  0  0  0  0  0
   57.9500   30.4830   45.7700 C   0  0  0  0  0  0  0  0  0  0  0  0
   57.4900   29.9600   44.5520 C   0  0  0  0  0  0  0  0  0  0  0  0
   57.2650   28.5430   44.4380 N   0  0  0  0  0  0  0  0  0  0  0  0
   58.5210   27.3870   44.1300 S   0  0  0  0  0  0  0  0  0  0  0  0
   58.1200   26.5020   42.9840 O   0  0  0  0  0  0  0  0  0  0  0  0
   59.7860   28.1190   43.7810 O   0  0  0  0  0  0  0  0  0  0  0  0
   58.7880   26.4390   45.5540 N   0  0  0  0  0  0  0  0  0  0  0  0
   58.2170   25.1410   45.7370 C   0  0  0  0  0  0  0  0  0  0  0  0
   58.9670   24.1660   46.0100 O   0  0  0  0  0  0  0  0  0  0  0  0
   56.7470   24.9510   45.6120 C   0  0  0  0  0  0  0  0  0  0  0  0
   56.2380   23.7230   45.1510 C   0  0  0  0  0  0  0  0  0  0  0  0
   54.8620   23.5280   45.0260 C   0  0  0  0  0  0  0  0  0  0  0  0
   53.9880   24.5630   45.3740 C   0  0  0  0  0  0  0  0  0  0  0  0
   52.5100   24.3930   45.2150 C   0  0  0  0  0  0  0  0  0  0  0  0
   54.4880   25.7500   45.8110 N   0  0  0  0  0  0  0  0  0  0  0  0
   55.8240   25.9710   45.9420 C   0  0  0  0  0  0  0  0  0  0  0  0
   56.2150   27.0910   46.3650 O   0  0  0  0  0  0  0  0  0  0  0  0
   57.2730   30.8370   43.4740 C   0  0  0  0  0  0  0  0  0  0  0  0
   57.5030   32.2090   43.6200 C   0  0  0  0  0  0  0  0  0  0  0  0
   59.1722   34.6467   46.6615 H   0  0  0  0  0  0  0  0  0  0  0  0
   60.2093   34.1812   45.2707 H   0  0  0  0  0  0  0  0  0  0  0  0
   59.3656   35.7670   45.2707 H   0  0  0  0  0  0  0  0  0  0  0  0
   58.5384   32.2504   46.8765 H   0  0  0  0  0  0  0  0  0  0  0  0
   58.1314   29.8075   46.6190 H   0  0  0  0  0  0  0  0  0  0  0  0
   56.2870   28.1780   44.4870 H   0  0  0  0  0  0  0  0  0  0  0  0
   56.9304   22.9101   44.8870 H   0  0  0  0  0  0  0  0  0  0  0  0
   54.4684   22.5693   44.6572 H   0  0  0  0  0  0  0  0  0  0  0  0
   52.0383   24.3387   46.2073 H   0  0  0  0  0  0  0  0  0  0  0  0
   52.0999   25.2499   44.6604 H   0  0  0  0  0  0  0  0  0  0  0  0
   52.3052   23.4654   44.6604 H   0  0  0  0  0  0  0  0  0  0  0  0
   56.9202   30.4415   42.5101 H   0  0  0  0  0  0  0  0  0  0  0  0
   57.3265   32.8844   42.7699 H   0  0  0  0  0  0  0  0  0  0  0  0
  1  2  1  0
  2  3  1  0
  3  4  2  0
  4  5  1  0
  5  6  2  0
  6  7  1  0
  7  8  1  0
  8  9  2  0
  8 10  2  0
  8 11  1  0
 11 12  1  0
 12 13  2  0
 12 14  1  0
 14 15  2  0
 15 16  1  0
 16 17  2  0
 17 18  1  0
 17 19  1  0
 19 20  1  0
 20 21  2  0
  6 22  1  0
 22 23  2  0
 23  3  1  0
 20 14  1  0
  1 24  1  0
  1 25  1  0
  1 26  1  0
  4 27  1  0
  5 28  1  0
  7 29  1  0
 15 30  1  0
 16 31  1  0
 18 32  1  0
 18 33  1  0
 18 34  1  0
 22 35  1  0
 23 36  1  0
M  CHG  2  11  -1  19  -1
M  END
>  <UniqueID>  (68) 
62

>  <SMILES>  (68) 
COc1ccc(NS(=O)(=O)[N-]C(=O)c2ccc(C)[n-]c2=O)cc1

>  <Energy>  (68) 
41.25284101592562

>  <Genealogy>  (68) 
COc1ccc(NS(=O)(=O)[N-]C(=O)c2ccc(C)[n-]c2=O)cc1 (protonated)
COc1ccc(NS(=O)(=O)[N-]C(=O)c2ccc(C)[n-]c2=O)cc1 (3D coordinates assigned)
COc1ccc(NS(=O)(=O)[N-]C(=O)c2ccc(C)[n-]c2=O)cc1 (optimized conformer: 41.25284101592562 kcal/mol)

>  <smiles>  (68) 
COc1ccc(NS(=O)(=O)NC(=O)c2ccc(C)[nH]c2=O)cc1

>  <score_type>  (68) 
oracle

>  <origin>  (68) 
adg

>  <m_score__min__energy>  (68) 
-11.199999999999999

>  <m_primary>  (68) 
energy

$$$$
68:0
     RDKit          3D

 32 34  0  0  0  0  0  0  0  0999 V2000
   64.3043   33.8650   49.4697 H   0  0  0  0  0  0  0  0  0  0  0  0
   63.3970   33.8470   48.8480 C   0  0  0  0  0  0  0  0  0  0  0  0
   62.1990   34.1940   49.3850 N   0  0  0  0  0  0  0  0  0  0  0  0
   61.0550   34.1870   48.6500 C   0  0  0  0  0  0  0  0  0  0  0  0
   60.1025   34.4770   49.1177 H   0  0  0  0  0  0  0  0  0  0  0  0
   61.0830   33.8110   47.2950 C   0  0  0  0  0  0  0  0  0  0  0  0
   59.8430   33.7970   46.4790 C   0  0  0  0  0  0  0  0  0  0  0  0
   59.3290   34.9310   45.8430 C   0  0  0  0  0  0  0  0  0  0  0  0
   59.7692   35.9387   45.8685 H   0  0  0  0  0  0  0  0  0  0  0  0
   57.9220   34.4910   45.0320 S   0  0  0  0  0  0  0  0  0  0  0  0
   58.0240   32.8770   45.5070 C   0  0  0  0  0  0  0  0  0  0  0  0
   57.1590   31.9390   45.2430 N   0  0  0  0  0  0  0  0  0  0  0  0
   57.4430   30.6470   44.6880 C   0  0  0  0  0  0  0  0  0  0  0  0
   58.3140   29.7440   45.3240 C   0  0  0  0  0  0  0  0  0  0  0  0
   58.8217   30.0363   46.2550 H   0  0  0  0  0  0  0  0  0  0  0  0
   58.5370   28.4770   44.7780 C   0  0  0  0  0  0  0  0  0  0  0  0
   59.2398   27.7865   45.2671 H   0  0  0  0  0  0  0  0  0  0  0  0
   57.8690   28.0810   43.6090 C   0  0  0  0  0  0  0  0  0  0  0  0
   58.1380   26.7360   43.0010 C   0  0  0  0  0  0  0  0  0  0  0  0
   58.2862   25.9952   43.8005 H   0  0  0  0  0  0  0  0  0  0  0  0
   57.2818   26.4372   42.3784 H   0  0  0  0  0  0  0  0  0  0  0  0
   59.0432   26.7895   42.3784 H   0  0  0  0  0  0  0  0  0  0  0  0
   56.9890   28.9770   42.9840 C   0  0  0  0  0  0  0  0  0  0  0  0
   56.4726   28.6812   42.0589 H   0  0  0  0  0  0  0  0  0  0  0  0
   56.7650   30.2440   43.5310 C   0  0  0  0  0  0  0  0  0  0  0  0
   56.0515   30.9287   43.0493 H   0  0  0  0  0  0  0  0  0  0  0  0
   59.1030   32.6660   46.2870 N   0  0  0  0  0  0  0  0  0  0  0  0
   59.3230   31.7380   46.7160 H   0  0  0  0  0  0  0  0  0  0  0  0
   62.3180   33.4490   46.7310 C   0  0  0  0  0  0  0  0  0  0  0  0
   62.3717   33.1499   45.6738 H   0  0  0  0  0  0  0  0  0  0  0  0
   63.4770   33.4680   47.5090 C   0  0  0  0  0  0  0  0  0  0  0  0
   64.4451   33.1863   47.0691 H   0  0  0  0  0  0  0  0  0  0  0  0
  1  2  1  0
  2  3  2  0
  3  4  1  0
  4  5  1  0
  4  6  2  0
  6  7  1  0
  7  8  2  0
  8  9  1  0
  8 10  1  0
 10 11  1  0
 11 12  2  0
 12 13  1  0
 13 14  2  0
 14 15  1  0
 14 16  1  0
 16 17  1  0
 16 18  2  0
 18 19  1  0
 19 20  1  0
 19 21  1  0
 19 22  1  0
 18 23  1  0
 23 24  1  0
 23 25  2  0
 25 26  1  0
 11 27  1  0
 27 28  1  0
  6 29  1  0
 29 30  1  0
 29 31  2  0
 31 32  1  0
 31  2  1  0
 27  7  1  0
 25 13  1  0
M  END
>  <UniqueID>  (69) 
63

>  <SMILES>  (69) 
Cc1ccc(/N=c2/[nH]c(-c3cccnc3)cs2)cc1

>  <Energy>  (69) 
75.12661877397068

>  <Genealogy>  (69) 
Cc1ccc(/N=c2/[nH]c(-c3cccnc3)cs2)cc1 (cis-trans isomerization)
Cc1ccc(/N=c2/[nH]c(-c3cccnc3)cs2)cc1 (3D coordinates assigned)
Cc1ccc(/N=c2/[nH]c(-c3cccnc3)cs2)cc1 (optimized conformer: 75.12661877397068 kcal/mol)

>  <smiles>  (69) 
Cc1ccc(N=c2[nH]c(-c3cccnc3)cs2)cc1

>  <score_type>  (69) 
oracle

>  <origin>  (69) 
adg

>  <m_score__min__energy>  (69) 
-7.1600000000000001

>  <m_primary>  (69) 
energy

$$$$
69:0
     RDKit          3D

 42 44  0  0  0  0  0  0  0  0999 V2000
   58.6110   32.3740   49.5200 C   0  0  0  0  0  0  0  0  0  0  0  0
   59.5420   33.4420   49.4060 O   0  0  0  0  0  0  0  0  0  0  0  0
   60.6640   33.4360   48.5630 C   0  0  0  0  0  0  0  0  0  0  0  0
   61.9390   33.0180   49.0070 C   0  0  0  0  0  0  0  0  0  0  0  0
   63.0260   33.0190   48.1320 C   0  0  0  0  0  0  0  0  0  0  0  0
   62.8590   33.4560   46.8160 C   0  0  0  0  0  0  0  0  0  0  0  0
   61.6030   33.8780   46.3690 C   0  0  0  0  0  0  0  0  0  0  0  0
   60.4950   33.8430   47.2320 C   0  0  0  0  0  0  0  0  0  0  0  0
   59.1820   34.1810   46.7770 N   0  0  0  0  0  0  0  0  0  0  0  0
   58.5560   33.8080   45.1990 S   0  0  0  0  0  0  0  0  0  0  0  0
   59.6450   33.9690   44.1760 O   0  0  0  0  0  0  0  0  0  0  0  0
   57.4380   34.7640   44.8860 O   0  0  0  0  0  0  0  0  0  0  0  0
   57.9130   32.1670   45.1740 C   0  0  0  0  0  0  0  0  0  0  0  0
   57.0110   31.7930   44.1710 C   0  0  0  0  0  0  0  0  0  0  0  0
   56.4250   30.5250   44.1860 C   0  0  0  0  0  0  0  0  0  0  0  0
   56.7240   29.6190   45.2190 C   0  0  0  0  0  0  0  0  0  0  0  0
   56.1380   28.3070   45.2650 N   0  0  0  0  0  0  0  0  0  0  0  0
   56.8540   27.1130   45.6210 C   0  0  0  0  0  0  0  0  0  0  0  0
   58.0910   27.1620   45.8640 O   0  0  0  0  0  0  0  0  0  0  0  0
   56.1550   25.8100   45.6570 C   0  0  0  0  0  0  0  0  0  0  0  0
   56.8190   24.6160   45.3420 C   0  0  0  0  0  0  0  0  0  0  0  0
   56.1130   23.4170   45.3570 C   0  0  0  0  0  0  0  0  0  0  0  0
   54.7610   23.4330   45.6830 C   0  0  0  0  0  0  0  0  0  0  0  0
   54.0950   22.3670   45.6890 O   0  0  0  0  0  0  0  0  0  0  0  0
   54.1600   24.6110   45.9900 N   0  0  0  0  0  0  0  0  0  0  0  0
   54.8360   25.7600   45.9800 N   0  0  0  0  0  0  0  0  0  0  0  0
   57.6590   29.9860   46.1990 C   0  0  0  0  0  0  0  0  0  0  0  0
   58.2470   31.2530   46.1800 C   0  0  0  0  0  0  0  0  0  0  0  0
   58.4255   32.1612   50.5832 H   0  0  0  0  0  0  0  0  0  0  0  0
   57.6665   32.6573   49.0325 H   0  0  0  0  0  0  0  0  0  0  0  0
   59.0205   31.4770   49.0325 H   0  0  0  0  0  0  0  0  0  0  0  0
   62.0752   32.6901   50.0481 H   0  0  0  0  0  0  0  0  0  0  0  0
   64.0123   32.6763   48.4780 H   0  0  0  0  0  0  0  0  0  0  0  0
   63.7181   33.4683   46.1291 H   0  0  0  0  0  0  0  0  0  0  0  0
   61.4820   34.2390   45.3370 H   0  0  0  0  0  0  0  0  0  0  0  0
   56.7624   32.5012   43.3669 H   0  0  0  0  0  0  0  0  0  0  0  0
   55.7272   30.2342   43.3869 H   0  0  0  0  0  0  0  0  0  0  0  0
   55.1600   28.2110   44.9060 H   0  0  0  0  0  0  0  0  0  0  0  0
   57.8886   24.6270   45.0853 H   0  0  0  0  0  0  0  0  0  0  0  0
   56.6171   22.4699   45.1144 H   0  0  0  0  0  0  0  0  0  0  0  0
   57.9311   29.2701   46.9886 H   0  0  0  0  0  0  0  0  0  0  0  0
   58.9737   31.5328   46.9569 H   0  0  0  0  0  0  0  0  0  0  0  0
  1  2  1  0
  2  3  1  0
  3  4  2  0
  4  5  1  0
  5  6  2  0
  6  7  1  0
  7  8  2  0
  8  9  1  0
  9 10  1  0
 10 11  2  0
 10 12  2  0
 10 13  1  0
 13 14  2  0
 14 15  1  0
 15 16  2  0
 16 17  1  0
 17 18  1  0
 18 19  2  0
 18 20  1  0
 20 21  1  0
 21 22  2  0
 22 23  1  0
 23 24  2  0
 23 25  1  0
 25 26  1  0
 16 27  1  0
 27 28  2  0
  8  3  1  0
 28 13  1  0
 26 20  2  0
  1 29  1  0
  1 30  1  0
  1 31  1  0
  4 32  1  0
  5 33  1  0
  6 34  1  0
  7 35  1  0
 14 36  1  0
 15 37  1  0
 17 38  1  0
 21 39  1  0
 22 40  1  0
 27 41  1  0
 28 42  1  0
M  CHG  2   9  -1  25  -1
M  END
>  <UniqueID>  (70) 
64

>  <SMILES>  (70) 
COc1ccccc1[N-]S(=O)(=O)c1ccc(NC(=O)c2ccc(=O)[n-]n2)cc1

>  <Energy>  (70) 
54.95329481445068

>  <Genealogy>  (70) 
COc1ccccc1[N-]S(=O)(=O)c1ccc(NC(=O)c2ccc(=O)[n-]n2)cc1 (protonated)
COc1ccccc1[N-]S(=O)(=O)c1ccc(NC(=O)c2ccc(=O)[n-]n2)cc1 (3D coordinates assigned)
COc1ccccc1[N-]S(=O)(=O)c1ccc(NC(=O)c2ccc(=O)[n-]n2)cc1 (optimized conformer: 54.95329481445068 kcal/mol)

>  <smiles>  (70) 
COc1ccccc1NS(=O)(=O)c1ccc(NC(=O)c2ccc(=O)[nH]n2)cc1

>  <score_type>  (70) 
oracle

>  <origin>  (70) 
adg

>  <m_score__min__energy>  (70) 
-11.74

>  <m_primary>  (70) 
energy

$$$$
70:0
     RDKit          3D

 41 43  0  0  0  0  0  0  0  0999 V2000
   58.9220   29.4220   49.2570 C   0  0  0  0  0  0  0  0  0  0  0  0
   58.1480   30.0180   50.2920 O   0  0  0  0  0  0  0  0  0  0  0  0
   58.3810   31.2960   50.8210 C   0  0  0  0  0  0  0  0  0  0  0  0
   57.6440   31.8140   51.9030 C   0  0  0  0  0  0  0  0  0  0  0  0
   57.9180   33.0970   52.3890 C   0  0  0  0  0  0  0  0  0  0  0  0
   58.9150   33.8760   51.7960 C   0  0  0  0  0  0  0  0  0  0  0  0
   59.6420   33.3840   50.7070 C   0  0  0  0  0  0  0  0  0  0  0  0
   60.6230   34.2020   50.1220 O   0  0  0  0  0  0  0  0  0  0  0  0
   61.0210   34.1190   48.7790 C   0  0  0  0  0  0  0  0  0  0  0  0
   62.3360   33.7670   48.4690 C   0  0  0  0  0  0  0  0  0  0  0  0
   63.6130   33.4610   49.8660 Br  0  0  0  0  0  0  0  0  0  0  0  0
   62.6930   33.6000   47.1290 C   0  0  0  0  0  0  0  0  0  0  0  0
   63.8660   33.2670   46.8130 O   0  0  0  0  0  0  0  0  0  0  0  0
   61.7610   33.7780   46.1580 N   0  0  0  0  0  0  0  0  0  0  0  0
   60.5080   34.1530   46.4350 N   0  0  0  0  0  0  0  0  0  0  0  0
   59.5400   34.2320   45.3360 C   0  0  0  0  0  0  0  0  0  0  0  0
   58.8130   32.9190   45.2000 C   0  0  0  0  0  0  0  0  0  0  0  0
   57.7740   32.7710   44.2690 C   0  0  0  0  0  0  0  0  0  0  0  0
   57.0300   31.5890   44.2220 C   0  0  0  0  0  0  0  0  0  0  0  0
   57.3120   30.5320   45.1050 C   0  0  0  0  0  0  0  0  0  0  0  0
   56.5150   29.2870   45.0720 C   0  0  0  0  0  0  0  0  0  0  0  0
   57.0670   28.1680   45.2410 O   0  0  0  0  0  0  0  0  0  0  0  0
   55.1430   29.3340   44.8490 O   0  0  0  0  0  0  0  0  0  0  0  0
   58.3620   30.6790   46.0290 C   0  0  0  0  0  0  0  0  0  0  0  0
   59.1020   31.8640   46.0780 C   0  0  0  0  0  0  0  0  0  0  0  0
   60.1230   34.3770   47.7310 C   0  0  0  0  0  0  0  0  0  0  0  0
   58.9660   34.8110   47.9870 O   0  0  0  0  0  0  0  0  0  0  0  0
   59.3860   32.0790   50.2430 C   0  0  0  0  0  0  0  0  0  0  0  0
   59.7190   28.8083   49.7022 H   0  0  0  0  0  0  0  0  0  0  0  0
   58.2747   28.7869   48.6344 H   0  0  0  0  0  0  0  0  0  0  0  0
   59.3706   30.2101   48.6344 H   0  0  0  0  0  0  0  0  0  0  0  0
   56.8513   31.2088   52.3671 H   0  0  0  0  0  0  0  0  0  0  0  0
   57.3465   33.4939   53.2410 H   0  0  0  0  0  0  0  0  0  0  0  0
   59.1292   34.8814   52.1876 H   0  0  0  0  0  0  0  0  0  0  0  0
   58.8140   35.0313   45.5457 H   0  0  0  0  0  0  0  0  0  0  0  0
   60.0722   34.4510   44.3986 H   0  0  0  0  0  0  0  0  0  0  0  0
   57.5436   33.5902   43.5719 H   0  0  0  0  0  0  0  0  0  0  0  0
   56.2172   31.4848   43.4882 H   0  0  0  0  0  0  0  0  0  0  0  0
   58.6026   29.8559   46.7179 H   0  0  0  0  0  0  0  0  0  0  0  0
   59.9163   31.9698   46.8099 H   0  0  0  0  0  0  0  0  0  0  0  0
   59.9841   31.6701   49.4153 H   0  0  0  0  0  0  0  0  0  0  0  0
  1  2  1  0
  2  3  1  0
  3  4  2  0
  4  5  1  0
  5  6  2  0
  6  7  1  0
  7  8  1  0
  8  9  1  0
  9 10  2  0
 10 11  1  0
 10 12  1  0
 12 13  2  0
 12 14  1  0
 14 15  1  0
 15 16  1  0
 16 17  1  0
 17 18  2  0
 18 19  1  0
 19 20  2  0
 20 21  1  0
 21 22  2  0
 21 23  1  0
 20 24  1  0
 24 25  2  0
 15 26  1  0
 26 27  2  0
  7 28  2  0
 28  3  1  0
 26  9  1  0
 25 17  1  0
  1 29  1  0
  1 30  1  0
  1 31  1  0
  4 32  1  0
  5 33  1  0
  6 34  1  0
 16 35  1  0
 16 36  1  0
 18 37  1  0
 19 38  1  0
 24 39  1  0
 25 40  1  0
 28 41  1  0
M  CHG  2  14  -1  23  -1
M  END
>  <UniqueID>  (71) 
65

>  <SMILES>  (71) 
COc1cccc(Oc2c(Br)c(=O)[n-]n(Cc3ccc(C(=O)[O-])cc3)c2=O)c1

>  <Energy>  (71) 
52.230437469598854

>  <Genealogy>  (71) 
COc1cccc(Oc2c(Br)c(=O)[n-]n(Cc3ccc(C(=O)[O-])cc3)c2=O)c1 (protonated)
COc1cccc(Oc2c(Br)c(=O)[n-]n(Cc3ccc(C(=O)[O-])cc3)c2=O)c1 (3D coordinates assigned)
COc1cccc(Oc2c(Br)c(=O)[n-]n(Cc3ccc(C(=O)[O-])cc3)c2=O)c1 (optimized conformer: 52.230437469598854 kcal/mol)

>  <smiles>  (71) 
COc1cccc(Oc2c(Br)c(=O)[nH]n(Cc3ccc(C(=O)O)cc3)c2=O)c1

>  <score_type>  (71) 
oracle

>  <origin>  (71) 
adg

>  <m_score__min__energy>  (71) 
-11.16

>  <m_primary>  (71) 
energy

$$$$
71:0
     RDKit          3D

 28 29  0  0  0  0  0  0  0  0999 V2000
   59.3380   31.4950   48.8560 C   0  0  0  0  0  0  0  0  0  0  0  0
   58.5540   32.7560   48.5070 C   0  0  0  0  0  0  0  0  0  0  0  0
   58.9440   33.2560   47.1820 N   0  0  0  0  0  0  0  0  0  0  0  0
   59.8850   34.3790   47.0850 C   0  0  0  0  0  0  0  0  0  0  0  0
   61.2790   33.8790   46.7210 C   0  0  0  0  0  0  0  0  0  0  0  0
   58.4150   32.6300   45.9930 C   0  0  0  0  0  0  0  0  0  0  0  0
   57.7670   31.4310   46.0180 N   0  0  0  0  0  0  0  0  0  0  0  0
   57.3880   31.1130   44.7610 C   0  0  0  0  0  0  0  0  0  0  0  0
   56.5900   29.7730   44.1520 S   0  0  0  0  0  0  0  0  0  0  0  0
   56.6490   30.3410   42.5400 C   0  0  0  0  0  0  0  0  0  0  0  0
   57.2920   31.5880   42.4980 C   0  0  0  0  0  0  0  0  0  0  0  0
   57.5760   32.3500   41.2450 C   0  0  0  0  0  0  0  0  0  0  0  0
   57.6990   31.9780   43.7700 C   0  0  0  0  0  0  0  0  0  0  0  0
   58.5200   33.2890   44.4130 S   0  0  0  0  0  0  0  0  0  0  0  0
   59.4012   31.3934   49.9495 H   0  0  0  0  0  0  0  0  0  0  0  0
   58.8264   30.6169   48.4351 H   0  0  0  0  0  0  0  0  0  0  0  0
   60.3519   31.5653   48.4351 H   0  0  0  0  0  0  0  0  0  0  0  0
   57.4787   32.5241   48.5040 H   0  0  0  0  0  0  0  0  0  0  0  0
   58.7738   33.5298   49.2573 H   0  0  0  0  0  0  0  0  0  0  0  0
   59.5369   35.0768   46.3092 H   0  0  0  0  0  0  0  0  0  0  0  0
   59.9330   34.8876   48.0592 H   0  0  0  0  0  0  0  0  0  0  0  0
   61.8472   33.6752   47.6406 H   0  0  0  0  0  0  0  0  0  0  0  0
   61.1944   32.9552   46.1299 H   0  0  0  0  0  0  0  0  0  0  0  0
   61.8009   34.6460   46.1299 H   0  0  0  0  0  0  0  0  0  0  0  0
   56.2437   29.8088   41.6668 H   0  0  0  0  0  0  0  0  0  0  0  0
   57.9495   33.3522   41.5020 H   0  0  0  0  0  0  0  0  0  0  0  0
   58.3354   31.8158   40.6551 H   0  0  0  0  0  0  0  0  0  0  0  0
   56.6522   32.4431   40.6551 H   0  0  0  0  0  0  0  0  0  0  0  0
  1  2  1  0
  2  3  1  0
  3  4  1  0
  4  5  1  0
  3  6  1  0
  6  7  2  0
  7  8  1  0
  8  9  1  0
  9 10  1  0
 10 11  2  0
 11 12  1  0
 11 13  1  0
 13 14  1  0
 14  6  1  0
 13  8  2  0
  1 15  1  0
  1 16  1  0
  1 17  1  0
  2 18  1  0
  2 19  1  0
  4 20  1  0
  4 21  1  0
  5 22  1  0
  5 23  1  0
  5 24  1  0
 10 25  1  0
 12 26  1  0
 12 27  1  0
 12 28  1  0
M  END
>  <UniqueID>  (72) 
66

>  <SMILES>  (72) 
CCN(CC)c1nc2scc(C)c2s1

>  <Energy>  (72) 
91.36303723240381

>  <Genealogy>  (72) 
CCN(CC)c1nc2scc(C)c2s1 (3D coordinates assigned)
CCN(CC)c1nc2scc(C)c2s1 (optimized conformer: 91.36303723240381 kcal/mol)

>  <smiles>  (72) 
CCN(CC)c1nc2scc(C)c2s1

>  <score_type>  (72) 
oracle

>  <origin>  (72) 
adg

>  <m_score__min__energy>  (72) 
-5.6100000000000003

>  <m_primary>  (72) 
energy

$$$$
72:0
     RDKit          3D

 46 48  0  0  1  0  0  0  0  0999 V2000
   63.6230   30.6930   51.1990 C   0  0  0  0  0  0  0  0  0  0  0  0
   62.9490   31.5160   50.2590 O   0  0  0  0  0  0  0  0  0  0  0  0
   62.1610   30.9770   49.2520 C   0  0  0  0  0  0  0  0  0  0  0  0
   61.0500   30.1990   49.5270 C   0  0  0  0  0  0  0  0  0  0  0  0
   60.2550   29.6550   48.5510 C   0  0  0  0  0  0  0  0  0  0  0  0
   60.5920   29.9060   47.2370 C   0  0  0  0  0  0  0  0  0  0  0  0
   61.6920   30.6780   46.9180 C   0  0  0  0  0  0  0  0  0  0  0  0
   62.4770   31.2150   47.9200 C   0  0  0  0  0  0  0  0  0  0  0  0
   63.6620   32.0470   47.6010 C   0  0  0  0  0  0  0  0  0  0  0  0
   63.4000   33.4640   47.7930 N   0  0  0  0  0  0  0  0  0  0  0  0
   62.1860   33.8080   48.0800 C   0  0  0  0  0  0  0  0  0  0  0  0
   61.7840   33.8750   49.3670 N   0  0  0  0  0  0  0  0  0  0  0  0
   60.5260   34.2320   49.7180 C   0  0  0  0  0  0  0  0  0  0  0  0
   59.6350   34.5330   48.7100 C   0  0  0  0  0  0  0  0  0  0  0  0
   60.0510   34.4630   47.3750 C   0  0  0  0  0  0  0  0  0  0  0  0
   59.1560   34.7610   46.5000 N   0  0  0  0  0  0  0  0  0  0  0  0
   58.5270   33.7060   45.7820 C   0  0  0  0  0  0  0  0  0  0  0  0
   58.4030   32.4920   46.4290 C   0  0  0  0  0  0  0  0  0  0  0  0
   57.8140   31.3870   45.8510 C   0  0  0  0  0  0  0  0  0  0  0  0
   57.3330   31.5270   44.5660 C   0  0  0  0  0  0  0  0  0  0  0  0
   56.5720   30.1220   43.8080 S   0  0  0  0  0  0  0  0  0  0  0  0
   57.6140   28.7520   43.8910 N   0  0  0  0  0  0  0  0  0  0  0  0
   55.2960   29.7870   44.5240 O   0  0  0  0  0  0  0  0  0  0  0  0
   56.2370   30.4510   42.3610 O   0  0  0  0  0  0  0  0  0  0  0  0
   57.4500   32.7290   43.9100 C   0  0  0  0  0  0  0  0  0  0  0  0
   58.0460   33.8430   44.4970 C   0  0  0  0  0  0  0  0  0  0  0  0
   61.3090   34.1050   47.0760 N   0  0  0  0  0  0  0  0  0  0  0  0
   63.3620   31.0117   52.2189 H   0  0  0  0  0  0  0  0  0  0  0  0
   63.3198   29.6457   51.0532 H   0  0  0  0  0  0  0  0  0  0  0  0
   64.7095   30.7838   51.0532 H   0  0  0  0  0  0  0  0  0  0  0  0
   60.7922   30.0078   50.5791 H   0  0  0  0  0  0  0  0  0  0  0  0
   59.3795   29.0402   48.8068 H   0  0  0  0  0  0  0  0  0  0  0  0
   59.9746   29.4844   46.4301 H   0  0  0  0  0  0  0  0  0  0  0  0
   61.9436   30.8657   45.8637 H   0  0  0  0  0  0  0  0  0  0  0  0
   64.4931   31.7475   48.2564 H   0  0  0  0  0  0  0  0  0  0  0  0
   63.9135   31.8884   46.5419 H   0  0  0  0  0  0  0  0  0  0  0  0
   62.4220   33.6560   50.1720 H   0  0  0  0  0  0  0  0  0  0  0  0
   60.2243   34.2804   50.7747 H   0  0  0  0  0  0  0  0  0  0  0  0
   58.6031   34.8265   48.9532 H   0  0  0  0  0  0  0  0  0  0  0  0
   58.7925   32.4023   47.4538 H   0  0  0  0  0  0  0  0  0  0  0  0
   57.7312   30.4332   46.3926 H   0  0  0  0  0  0  0  0  0  0  0  0
   57.1530   27.8520   43.7240 H   0  0  0  0  0  0  0  0  0  0  0  0
   58.3840   28.8680   43.2040 H   0  0  0  0  0  0  0  0  0  0  0  0
   57.0593   32.8145   42.8853 H   0  0  0  0  0  0  0  0  0  0  0  0
   58.1298   34.7967   43.9554 H   0  0  0  0  0  0  0  0  0  0  0  0
   61.6030   34.0570   46.0770 H   0  0  0  0  0  0  0  0  0  0  0  0
  1  2  1  0
  2  3  1  0
  3  4  2  0
  4  5  1  0
  5  6  2  0
  6  7  1  0
  7  8  2  0
  8  9  1  0
  9 10  1  0
 10 11  2  0
 11 12  1  0
 12 13  1  0
 13 14  2  0
 14 15  1  0
 15 16  2  0
 16 17  1  0
 17 18  2  0
 18 19  1  0
 19 20  2  0
 20 21  1  0
 21 22  1  0
 21 23  2  0
 21 24  2  0
 20 25  1  0
 25 26  2  0
 15 27  1  0
  8  3  1  0
 27 11  1  0
 26 17  1  0
  1 28  1  0
  1 29  1  0
  1 30  1  0
  4 31  1  0
  5 32  1  0
  6 33  1  0
  7 34  1  0
  9 35  1  0
  9 36  1  0
 12 37  1  0
 13 38  1  0
 14 39  1  0
 18 40  1  0
 19 41  1  0
 22 42  1  0
 22 43  1  0
 25 44  1  0
 26 45  1  0
 27 46  1  0
M  END
>  <smiles>  (73) 
COc1ccccc1CN=c1[nH]ccc(=Nc2ccc(S(N)(=O)=O)cc2)[nH]1

>  <score_type>  (73) 
oracle

>  <origin>  (73) 
adg

>  <m_score__min__energy>  (73) 
-8.1199999999999992

>  <m_primary>  (73) 
energy

$$$$
73:0
     RDKit          3D

 47 51  0  0  0  0  0  0  0  0999 V2000
   56.1460   29.6180   42.9300 N   0  0  0  0  0  0  0  0  0  0  0  0
   56.8540   30.3820   43.6590 C   0  0  0  0  0  0  0  0  0  0  0  0
   57.0800   31.6410   43.1860 N   0  0  0  0  0  0  0  0  0  0  0  0
   57.8170   32.5290   43.8800 C   0  0  0  0  0  0  0  0  0  0  0  0
   58.3460   32.1220   45.0990 C   0  0  0  0  0  0  0  0  0  0  0  0
   59.1400   33.1130   45.8190 C   0  0  0  0  0  0  0  0  0  0  0  0
   59.0230   34.4910   45.8240 C   0  0  0  0  0  0  0  0  0  0  0  0
   59.9890   34.9910   46.6470 N   0  0  0  0  0  0  0  0  0  0  0  0
   60.6980   33.9940   47.1510 N   0  0  0  0  0  0  0  0  0  0  0  0
   61.8250   34.0390   48.0720 C   0  0  0  0  0  0  0  0  0  0  0  0
   63.1600   34.0630   47.3560 C   0  0  0  0  0  0  0  0  0  0  0  0
   64.1900   33.4320   48.2710 C   0  0  0  0  0  0  0  0  0  0  0  0
   63.9670   32.0260   48.4530 N   0  0  0  0  0  0  0  0  0  0  0  0
   62.5650   31.6980   48.5500 C   0  0  0  0  0  0  0  0  0  0  0  0
   61.7800   32.8930   49.0610 C   0  0  0  0  0  0  0  0  0  0  0  0
   60.2120   32.8360   46.6700 C   0  0  0  0  0  0  0  0  0  0  0  0
   58.1220   30.8610   45.5740 C   0  0  0  0  0  0  0  0  0  0  0  0
   57.3620   29.9530   44.8560 C   0  0  0  0  0  0  0  0  0  0  0  0
   57.1460   28.6200   45.3930 C   0  0  0  0  0  0  0  0  0  0  0  0
   58.0680   27.9050   46.0680 N   0  0  0  0  0  0  0  0  0  0  0  0
   57.5810   26.7120   46.4390 C   0  0  0  0  0  0  0  0  0  0  0  0
   58.1280   25.6610   47.1300 C   0  0  0  0  0  0  0  0  0  0  0  0
   57.3390   24.5390   47.3560 C   0  0  0  0  0  0  0  0  0  0  0  0
   56.0490   24.5510   46.8700 C   0  0  0  0  0  0  0  0  0  0  0  0
   55.5160   25.5820   46.1950 N   0  0  0  0  0  0  0  0  0  0  0  0
   56.2860   26.6620   45.9810 C   0  0  0  0  0  0  0  0  0  0  0  0
   56.0580   27.8310   45.3540 N   0  0  0  0  0  0  0  0  0  0  0  0
   56.2820   28.5890   42.9910 H   0  0  0  0  0  0  0  0  0  0  0  0
   56.6910   31.9630   42.2760 H   0  0  0  0  0  0  0  0  0  0  0  0
   57.9946   33.5438   43.4945 H   0  0  0  0  0  0  0  0  0  0  0  0
   58.2820   35.0797   45.2634 H   0  0  0  0  0  0  0  0  0  0  0  0
   61.7301   34.9847   48.6258 H   0  0  0  0  0  0  0  0  0  0  0  0
   63.0920   33.4909   46.4189 H   0  0  0  0  0  0  0  0  0  0  0  0
   63.4458   35.0969   47.1123 H   0  0  0  0  0  0  0  0  0  0  0  0
   65.1887   33.5783   47.8338 H   0  0  0  0  0  0  0  0  0  0  0  0
   64.1080   33.9163   49.2552 H   0  0  0  0  0  0  0  0  0  0  0  0
   64.5020   31.4250   47.8120 H   0  0  0  0  0  0  0  0  0  0  0  0
   62.1887   31.4145   47.5560 H   0  0  0  0  0  0  0  0  0  0  0  0
   62.4405   30.8605   49.2522 H   0  0  0  0  0  0  0  0  0  0  0  0
   60.7329   32.5946   49.2175 H   0  0  0  0  0  0  0  0  0  0  0  0
   62.2318   33.2293   50.0059 H   0  0  0  0  0  0  0  0  0  0  0  0
   60.5965   31.8333   46.9082 H   0  0  0  0  0  0  0  0  0  0  0  0
   58.5518   30.5623   46.5415 H   0  0  0  0  0  0  0  0  0  0  0  0
   59.1644   25.7048   47.4960 H   0  0  0  0  0  0  0  0  0  0  0  0
   57.7312   23.6700   47.9047 H   0  0  0  0  0  0  0  0  0  0  0  0
   55.4205   23.6654   47.0452 H   0  0  0  0  0  0  0  0  0  0  0  0
   55.1390   28.0460   44.9120 H   0  0  0  0  0  0  0  0  0  0  0  0
  1  2  2  3
  2  3  1  0
  3  4  1  0
  4  5  2  0
  5  6  1  0
  6  7  1  0
  7  8  2  0
  8  9  1  0
  9 10  1  0
 10 11  1  0
 11 12  1  0
 12 13  1  0
 13 14  1  0
 14 15  1  0
  9 16  1  0
  5 17  1  0
 17 18  2  0
 18 19  1  0
 19 20  2  0
 20 21  1  0
 21 22  2  0
 22 23  1  0
 23 24  2  0
 24 25  1  0
 25 26  2  0
 26 27  1  0
 18  2  1  0
 27 19  1  0
 16  6  2  0
 26 21  1  0
 15 10  1  0
  1 28  1  0
  3 29  1  0
  4 30  1  0
  7 31  1  0
 10 32  1  0
 11 33  1  0
 11 34  1  0
 12 35  1  0
 12 36  1  0
 13 37  1  0
 14 38  1  0
 14 39  1  0
 15 40  1  0
 15 41  1  0
 16 42  1  0
 17 43  1  0
 22 44  1  0
 23 45  1  0
 24 46  1  0
 27 47  1  0
M  END
>  <smiles>  (74) 
N=c1[nH]cc(-c2cnn(C3CCNCC3)c2)cc1-c1nc2cccnc2[nH]1

>  <score_type>  (74) 
oracle

>  <origin>  (74) 
adg

>  <m_score__min__energy>  (74) 
-9.8300000000000001

>  <m_primary>  (74) 
energy

$$$$
74:0
     RDKit          3D

 57 58  0  0  0  0  0  0  0  0999 V2000
   63.1960   33.7630   48.9520 C   0  0  0  0  0  0  0  0  0  0  0  0
   62.9430   32.9990   47.6320 C   0  0  0  0  0  0  0  0  0  0  0  0
   63.3880   33.8290   46.4280 C   0  0  0  0  0  0  0  0  0  0  0  0
   61.5340   32.5440   47.4380 N   0  0  0  0  0  0  0  0  0  0  0  0
   61.3380   31.1580   47.9220 C   0  0  0  0  0  0  0  0  0  0  0  0
   61.1230   30.1730   46.7560 C   0  0  0  0  0  0  0  0  0  0  0  0
   60.1260   29.1170   47.0700 N   0  0  0  0  0  0  0  0  0  0  0  0
   58.9940   29.7380   47.7880 C   0  0  0  0  0  0  0  0  0  0  0  0
   59.6600   28.4680   45.8200 C   0  0  0  0  0  0  0  0  0  0  0  0
   58.4010   29.0820   45.2320 C   0  0  0  0  0  0  0  0  0  0  0  0
   58.5380   30.1720   44.3490 C   0  0  0  0  0  0  0  0  0  0  0  0
   57.4250   30.7290   43.7210 C   0  0  0  0  0  0  0  0  0  0  0  0
   56.1610   30.1970   43.9490 C   0  0  0  0  0  0  0  0  0  0  0  0
   56.0020   29.1160   44.8180 C   0  0  0  0  0  0  0  0  0  0  0  0
   57.1120   28.5490   45.4780 C   0  0  0  0  0  0  0  0  0  0  0  0
   56.9650   27.4800   46.3780 O   0  0  0  0  0  0  0  0  0  0  0  0
   56.2370   25.9720   46.0000 S   0  0  0  0  0  0  0  0  0  0  0  0
   57.0690   25.2260   44.6130 C   0  0  0  0  0  0  0  0  0  0  0  0
   56.2880   25.0580   47.1900 O   0  0  0  0  0  0  0  0  0  0  0  0
   54.8000   26.1870   45.6240 O   0  0  0  0  0  0  0  0  0  0  0  0
   60.5140   33.4710   47.9880 C   0  0  0  0  0  0  0  0  0  0  0  0
   59.4090   33.7060   46.9900 C   0  0  0  0  0  0  0  0  0  0  0  0
   58.1260   33.1620   47.1840 C   0  0  0  0  0  0  0  0  0  0  0  0
   57.1390   33.3200   46.2060 C   0  0  0  0  0  0  0  0  0  0  0  0
   57.4160   34.0370   45.0390 C   0  0  0  0  0  0  0  0  0  0  0  0
   58.6760   34.6110   44.8540 C   0  0  0  0  0  0  0  0  0  0  0  0
   59.6660   34.4500   45.8270 C   0  0  0  0  0  0  0  0  0  0  0  0
   62.9776   33.1036   49.8049 H   0  0  0  0  0  0  0  0  0  0  0  0
   64.2478   34.0822   48.9951 H   0  0  0  0  0  0  0  0  0  0  0  0
   62.5426   34.6468   48.9951 H   0  0  0  0  0  0  0  0  0  0  0  0
   63.5520   32.0864   47.7114 H   0  0  0  0  0  0  0  0  0  0  0  0
   63.8807   34.7480   46.7782 H   0  0  0  0  0  0  0  0  0  0  0  0
   64.0933   33.2437   45.8197 H   0  0  0  0  0  0  0  0  0  0  0  0
   62.5102   34.0925   45.8197 H   0  0  0  0  0  0  0  0  0  0  0  0
   62.2280   30.8494   48.4901 H   0  0  0  0  0  0  0  0  0  0  0  0
   60.4398   31.1398   48.5568 H   0  0  0  0  0  0  0  0  0  0  0  0
   60.7726   30.7375   45.8793 H   0  0  0  0  0  0  0  0  0  0  0  0
   62.0840   29.6739   46.5629 H   0  0  0  0  0  0  0  0  0  0  0  0
   59.1550   29.6497   48.8726 H   0  0  0  0  0  0  0  0  0  0  0  0
   58.9241   30.8008   47.5130 H   0  0  0  0  0  0  0  0  0  0  0  0
   58.0601   29.2259   47.5130 H   0  0  0  0  0  0  0  0  0  0  0  0
   60.4628   28.5439   45.0718 H   0  0  0  0  0  0  0  0  0  0  0  0
   59.4140   27.4271   46.0768 H   0  0  0  0  0  0  0  0  0  0  0  0
   59.5368   30.5889   44.1527 H   0  0  0  0  0  0  0  0  0  0  0  0
   57.5468   31.5887   43.0457 H   0  0  0  0  0  0  0  0  0  0  0  0
   55.2844   30.6287   43.4437 H   0  0  0  0  0  0  0  0  0  0  0  0
   54.9979   28.7011   44.9902 H   0  0  0  0  0  0  0  0  0  0  0  0
   57.8416   24.5333   44.9781 H   0  0  0  0  0  0  0  0  0  0  0  0
   56.3401   24.6733   44.0021 H   0  0  0  0  0  0  0  0  0  0  0  0
   57.5392   26.0107   44.0021 H   0  0  0  0  0  0  0  0  0  0  0  0
   60.0866   33.0349   48.9029 H   0  0  0  0  0  0  0  0  0  0  0  0
   60.9971   34.4336   48.2115 H   0  0  0  0  0  0  0  0  0  0  0  0
   57.8985   32.6105   48.1082 H   0  0  0  0  0  0  0  0  0  0  0  0
   56.1425   32.8789   46.3557 H   0  0  0  0  0  0  0  0  0  0  0  0
   56.6417   34.1494   44.2659 H   0  0  0  0  0  0  0  0  0  0  0  0
   58.8888   35.1894   43.9429 H   0  0  0  0  0  0  0  0  0  0  0  0
   60.6546   34.9097   45.6808 H   0  0  0  0  0  0  0  0  0  0  0  0
  1  2  1  0
  2  3  1  0
  2  4  1  0
  4  5  1  0
  5  6  1  0
  6  7  1  0
  7  8  1  0
  7  9  1  0
  9 10  1  0
 10 11  2  0
 11 12  1  0
 12 13  2  0
 13 14  1  0
 14 15  2  0
 15 16  1  0
 16 17  1  0
 17 18  1  0
 17 19  2  0
 17 20  2  0
  4 21  1  0
 21 22  1  0
 22 23  2  0
 23 24  1  0
 24 25  2  0
 25 26  1  0
 26 27  2  0
 15 10  1  0
 27 22  1  0
  1 28  1  0
  1 29  1  0
  1 30  1  0
  2 31  1  0
  3 32  1  0
  3 33  1  0
  3 34  1  0
  5 35  1  0
  5 36  1  0
  6 37  1  0
  6 38  1  0
  8 39  1  0
  8 40  1  0
  8 41  1  0
  9 42  1  0
  9 43  1  0
 11 44  1  0
 12 45  1  0
 13 46  1  0
 14 47  1  0
 18 48  1  0
 18 49  1  0
 18 50  1  0
 21 51  1  0
 21 52  1  0
 23 53  1  0
 24 54  1  0
 25 55  1  0
 26 56  1  0
 27 57  1  0
M  END
>  <UniqueID>  (75) 
67

>  <SMILES>  (75) 
CC(C)N(CCN(C)Cc1ccccc1OS(C)(=O)=O)Cc1ccccc1

>  <Energy>  (75) 
53.8987946920461

>  <Genealogy>  (75) 
CC(C)N(CCN(C)Cc1ccccc1OS(C)(=O)=O)Cc1ccccc1 (3D coordinates assigned)
CC(C)N(CCN(C)Cc1ccccc1OS(C)(=O)=O)Cc1ccccc1 (optimized conformer: 53.8987946920461 kcal/mol)

>  <smiles>  (75) 
CC(C)N(CCN(C)Cc1ccccc1OS(C)(=O)=O)Cc1ccccc1

>  <score_type>  (75) 
oracle

>  <origin>  (75) 
adg

>  <m_score__min__energy>  (75) 
-9.3100000000000005

>  <m_primary>  (75) 
energy

$$$$
75:0
     RDKit          3D

 43 44  0  0  0  0  0  0  0  0999 V2000
   56.6533   34.2066   45.4455 H   0  0  0  0  0  0  0  0  0  0  0  0
   57.3820   33.8410   46.1840 C   0  0  0  0  0  0  0  0  0  0  0  0
   57.0426   33.2404   47.0408 H   0  0  0  0  0  0  0  0  0  0  0  0
   58.6820   34.1270   46.0400 C   0  0  0  0  0  0  0  0  0  0  0  0
   58.9991   34.7290   45.1757 H   0  0  0  0  0  0  0  0  0  0  0  0
   59.7400   33.6490   47.0300 C   0  0  0  0  0  0  0  0  0  0  0  0
   59.5170   32.1640   47.3710 C   0  0  0  0  0  0  0  0  0  0  0  0
   59.4710   31.6930   48.6990 C   0  0  0  0  0  0  0  0  0  0  0  0
   59.6361   32.3950   49.5296 H   0  0  0  0  0  0  0  0  0  0  0  0
   59.2190   30.3490   48.9740 C   0  0  0  0  0  0  0  0  0  0  0  0
   59.1939   30.0033   50.0180 H   0  0  0  0  0  0  0  0  0  0  0  0
   58.9970   29.4320   47.9340 C   0  0  0  0  0  0  0  0  0  0  0  0
   58.7530   28.0710   48.1890 O   0  0  0  0  0  0  0  0  0  0  0  0
   59.7520   27.0560   48.1950 C   0  0  0  0  0  0  0  0  0  0  0  0
   60.0061   26.7978   49.2336 H   0  0  0  0  0  0  0  0  0  0  0  0
   59.3706   26.1631   47.6780 H   0  0  0  0  0  0  0  0  0  0  0  0
   60.6508   27.4231   47.6780 H   0  0  0  0  0  0  0  0  0  0  0  0
   59.0260   29.8810   46.5990 C   0  0  0  0  0  0  0  0  0  0  0  0
   58.7630   28.9180   45.5010 C   0  0  0  0  0  0  0  0  0  0  0  0
   59.6223   28.4918   44.9626 H   0  0  0  0  0  0  0  0  0  0  0  0
   57.5310   28.5420   45.1330 C   0  0  0  0  0  0  0  0  0  0  0  0
   57.2260   27.4982   45.2990 H   0  0  0  0  0  0  0  0  0  0  0  0
   56.5650   29.4730   44.5130 C   0  0  0  0  0  0  0  0  0  0  0  0
   55.3610   29.4090   44.8750 O   0  0  0  0  0  0  0  0  0  0  0  0
   56.9540   30.4940   43.5160 C   0  0  0  0  0  0  0  0  0  0  0  0
   57.7560   31.6010   43.7410 C   0  0  0  0  0  0  0  0  0  0  0  0
   58.2596   31.8708   44.6810 H   0  0  0  0  0  0  0  0  0  0  0  0
   57.7970   32.2980   42.5500 C   0  0  0  0  0  0  0  0  0  0  0  0
   58.3477   33.2295   42.3525 H   0  0  0  0  0  0  0  0  0  0  0  0
   57.0130   31.5990   41.6560 C   0  0  0  0  0  0  0  0  0  0  0  0
   56.8357   31.8914   40.6105 H   0  0  0  0  0  0  0  0  0  0  0  0
   56.4970   30.5080   42.2490 N   0  0  0  0  0  0  0  0  0  0  0  0
   55.8600   29.8090   41.8050 H   0  0  0  0  0  0  0  0  0  0  0  0
   59.2610   31.2430   46.3340 C   0  0  0  0  0  0  0  0  0  0  0  0
   59.2446   31.5978   45.2929 H   0  0  0  0  0  0  0  0  0  0  0  0
   61.1290   33.9360   46.4100 C   0  0  0  0  0  0  0  0  0  0  0  0
   61.8648   34.0880   47.2134 H   0  0  0  0  0  0  0  0  0  0  0  0
   61.4364   33.0824   45.7880 H   0  0  0  0  0  0  0  0  0  0  0  0
   61.0729   34.8415   45.7880 H   0  0  0  0  0  0  0  0  0  0  0  0
   59.6180   34.4680   48.3310 C   0  0  0  0  0  0  0  0  0  0  0  0
   59.7179   33.7974   49.1972 H   0  0  0  0  0  0  0  0  0  0  0  0
   60.4129   35.2277   48.3619 H   0  0  0  0  0  0  0  0  0  0  0  0
   58.6362   34.9631   48.3619 H   0  0  0  0  0  0  0  0  0  0  0  0
  1  2  1  0
  2  3  1  0
  2  4  2  0
  4  5  1  0
  4  6  1  0
  6  7  1  0
  7  8  2  0
  8  9  1  0
  8 10  1  0
 10 11  1  0
 10 12  2  0
 12 13  1  0
 13 14  1  0
 14 15  1  0
 14 16  1  0
 14 17  1  0
 12 18  1  0
 18 19  1  0
 19 20  1  0
 19 21  2  0
 21 22  1  0
 21 23  1  0
 23 24  2  0
 23 25  1  0
 25 26  2  0
 26 27  1  0
 26 28  1  0
 28 29  1  0
 28 30  2  0
 30 31  1  0
 30 32  1  0
 32 33  1  0
 18 34  2  0
 34 35  1  0
  6 36  1  0
 36 37  1  0
 36 38  1  0
 36 39  1  0
  6 40  1  0
 40 41  1  0
 40 42  1  0
 40 43  1  0
 34  7  1  0
 32 25  1  0
M  END
>  <UniqueID>  (76) 
68

>  <SMILES>  (76) 
C=CC(C)(C)c1ccc(OC)c(/C=C/C(=O)c2ccc[nH]2)c1

>  <Energy>  (76) 
74.03906197556061

>  <Genealogy>  (76) 
C=CC(C)(C)c1ccc(OC)c(/C=C/C(=O)c2ccc[nH]2)c1 (cis-trans isomerization)
C=CC(C)(C)c1ccc(OC)c(/C=C/C(=O)c2ccc[nH]2)c1 (3D coordinates assigned)
C=CC(C)(C)c1ccc(OC)c(/C=C/C(=O)c2ccc[nH]2)c1 (optimized conformer: 74.03906197556061 kcal/mol)

>  <smiles>  (76) 
C=CC(C)(C)c1ccc(OC)c(C=CC(=O)c2ccc[nH]2)c1

>  <score_type>  (76) 
oracle

>  <origin>  (76) 
adg

>  <m_score__min__energy>  (76) 
-7.96

>  <m_primary>  (76) 
energy

$$$$
76:0
     RDKit          3D

 39 41  0  0  0  0  0  0  0  0999 V2000
   61.1160   26.3450   47.3020 C   0  0  0  0  0  0  0  0  0  0  0  0
   60.1980   26.1860   46.2240 O   0  0  0  0  0  0  0  0  0  0  0  0
   59.3730   27.2070   45.7280 C   0  0  0  0  0  0  0  0  0  0  0  0
   58.0020   27.1500   46.0070 C   0  0  0  0  0  0  0  0  0  0  0  0
   57.1390   28.1420   45.5340 C   0  0  0  0  0  0  0  0  0  0  0  0
   57.6410   29.2050   44.7730 C   0  0  0  0  0  0  0  0  0  0  0  0
   56.5610   30.4550   44.1590 S   0  0  0  0  0  0  0  0  0  0  0  0
   55.1430   30.0710   44.4790 O   0  0  0  0  0  0  0  0  0  0  0  0
   56.7030   30.6010   42.6700 O   0  0  0  0  0  0  0  0  0  0  0  0
   56.9250   31.9730   44.9150 N   0  0  0  0  0  0  0  0  0  0  0  0
   58.1290   32.2670   45.6370 C   0  0  0  0  0  0  0  0  0  0  0  0
   58.4420   31.5090   46.7670 C   0  0  0  0  0  0  0  0  0  0  0  0
   59.6050   31.7720   47.4940 C   0  0  0  0  0  0  0  0  0  0  0  0
   60.4600   32.8110   47.0830 C   0  0  0  0  0  0  0  0  0  0  0  0
   61.7040   33.1370   47.8270 C   0  0  0  0  0  0  0  0  0  0  0  0
   61.6720   33.8270   49.0530 C   0  0  0  0  0  0  0  0  0  0  0  0
   62.8590   34.1190   49.7250 C   0  0  0  0  0  0  0  0  0  0  0  0
   64.0760   33.7160   49.1740 C   0  0  0  0  0  0  0  0  0  0  0  0
   64.1010   33.0390   47.9940 N   0  0  0  0  0  0  0  0  0  0  0  0
   62.9550   32.7400   47.3200 C   0  0  0  0  0  0  0  0  0  0  0  0
   60.1230   33.5480   45.9870 N   0  0  0  0  0  0  0  0  0  0  0  0
   58.9980   33.3050   45.2630 C   0  0  0  0  0  0  0  0  0  0  0  0
   59.0130   29.2710   44.4910 C   0  0  0  0  0  0  0  0  0  0  0  0
   59.8760   28.2800   44.9660 C   0  0  0  0  0  0  0  0  0  0  0  0
   60.5791   26.2520   48.2576 H   0  0  0  0  0  0  0  0  0  0  0  0
   61.8921   25.5679   47.2403 H   0  0  0  0  0  0  0  0  0  0  0  0
   61.5855   27.3378   47.2403 H   0  0  0  0  0  0  0  0  0  0  0  0
   57.6010   26.3173   46.6035 H   0  0  0  0  0  0  0  0  0  0  0  0
   56.0638   28.0879   45.7597 H   0  0  0  0  0  0  0  0  0  0  0  0
   57.7686   30.7000   47.0865 H   0  0  0  0  0  0  0  0  0  0  0  0
   59.8509   31.1710   48.3819 H   0  0  0  0  0  0  0  0  0  0  0  0
   60.7080   34.1370   49.4827 H   0  0  0  0  0  0  0  0  0  0  0  0
   62.8359   34.6623   50.6812 H   0  0  0  0  0  0  0  0  0  0  0  0
   65.0172   33.9461   49.6947 H   0  0  0  0  0  0  0  0  0  0  0  0
   65.0200   32.7440   47.5950 H   0  0  0  0  0  0  0  0  0  0  0  0
   63.0084   32.1840   46.3723 H   0  0  0  0  0  0  0  0  0  0  0  0
   58.7680   33.9228   44.3824 H   0  0  0  0  0  0  0  0  0  0  0  0
   59.4109   30.1050   43.8943 H   0  0  0  0  0  0  0  0  0  0  0  0
   60.9519   28.3378   44.7442 H   0  0  0  0  0  0  0  0  0  0  0  0
  1  2  1  0
  2  3  1  0
  3  4  2  0
  4  5  1  0
  5  6  2  0
  6  7  1  0
  7  8  2  0
  7  9  2  0
  7 10  1  0
 10 11  1  0
 11 12  2  0
 12 13  1  0
 13 14  2  0
 14 15  1  0
 15 16  2  0
 16 17  1  0
 17 18  2  0
 18 19  1  0
 19 20  2  0
 14 21  1  0
 21 22  2  0
  6 23  1  0
 23 24  2  0
 24  3  1  0
 22 11  1  0
 20 15  1  0
  1 25  1  0
  1 26  1  0
  1 27  1  0
  4 28  1  0
  5 29  1  0
 12 30  1  0
 13 31  1  0
 16 32  1  0
 17 33  1  0
 18 34  1  0
 19 35  1  0
 20 36  1  0
 22 37  1  0
 23 38  1  0
 24 39  1  0
M  CHG  2  10  -1  19   1
M  END
>  <UniqueID>  (77) 
69

>  <SMILES>  (77) 
COc1ccc(S(=O)(=O)[N-]c2ccc(-c3ccc[nH+]c3)nc2)cc1

>  <Energy>  (77) 
48.744079779118714

>  <Genealogy>  (77) 
COc1ccc(S(=O)(=O)[N-]c2ccc(-c3ccc[nH+]c3)nc2)cc1 (protonated)
COc1ccc(S(=O)(=O)[N-]c2ccc(-c3ccc[nH+]c3)nc2)cc1 (3D coordinates assigned)
COc1ccc(S(=O)(=O)[N-]c2ccc(-c3ccc[nH+]c3)nc2)cc1 (optimized conformer: 48.744079779118714 kcal/mol)

>  <smiles>  (77) 
COc1ccc(S(=O)(=O)Nc2ccc(-c3cccnc3)nc2)cc1

>  <score_type>  (77) 
oracle

>  <origin>  (77) 
adg

>  <m_score__min__energy>  (77) 
-8.1600000000000001

>  <m_primary>  (77) 
energy

$$$$
77:0
     RDKit          3D

 38 39  0  0  0  0  0  0  0  0999 V2000
   61.7150   34.5500   48.9940 H   0  0  0  0  0  0  0  0  0  0  0  0
   62.6630   34.2000   48.7280 N   0  0  0  0  0  0  0  0  0  0  0  0
   62.8230   33.2680   47.8400 C   0  0  0  0  0  0  0  0  0  0  0  0
   61.6340   32.6610   47.1910 C   0  0  0  0  0  0  0  0  0  0  0  0
   60.6460   33.4780   46.6160 C   0  0  0  0  0  0  0  0  0  0  0  0
   60.7585   34.5718   46.6467 H   0  0  0  0  0  0  0  0  0  0  0  0
   59.5210   32.9150   46.0050 C   0  0  0  0  0  0  0  0  0  0  0  0
   58.7617   33.5700   45.5529 H   0  0  0  0  0  0  0  0  0  0  0  0
   59.3510   31.5190   45.9630 C   0  0  0  0  0  0  0  0  0  0  0  0
   58.1650   30.8970   45.3170 C   0  0  0  0  0  0  0  0  0  0  0  0
   57.6670   29.7050   45.7490 N   0  0  0  0  0  0  0  0  0  0  0  0
   56.5870   29.3220   45.0340 C   0  0  0  0  0  0  0  0  0  0  0  0
   55.9290   28.2250   45.2480 N   0  0  0  0  0  0  0  0  0  0  0  0
   56.5640   26.9670   45.6300 C   0  0  0  0  0  0  0  0  0  0  0  0
   56.6691   26.9326   46.7244 H   0  0  0  0  0  0  0  0  0  0  0  0
   55.9370   26.1328   45.2820 H   0  0  0  0  0  0  0  0  0  0  0  0
   57.9510   26.8460   44.9860 C   0  0  0  0  0  0  0  0  0  0  0  0
   57.9601   25.9695   44.3214 H   0  0  0  0  0  0  0  0  0  0  0  0
   58.1492   27.7701   44.4231 H   0  0  0  0  0  0  0  0  0  0  0  0
   59.0160   26.6880   46.0030 N   0  0  0  0  0  0  0  0  0  0  0  0
   58.5070   27.0880   47.3260 C   0  0  0  0  0  0  0  0  0  0  0  0
   59.1127   26.6120   48.1112 H   0  0  0  0  0  0  0  0  0  0  0  0
   58.5690   28.1816   47.4274 H   0  0  0  0  0  0  0  0  0  0  0  0
   57.4591   26.7692   47.4274 H   0  0  0  0  0  0  0  0  0  0  0  0
   60.2020   27.4980   45.6720 C   0  0  0  0  0  0  0  0  0  0  0  0
   60.6894   27.8309   46.6003 H   0  0  0  0  0  0  0  0  0  0  0  0
   60.9074   26.8922   45.0844 H   0  0  0  0  0  0  0  0  0  0  0  0
   59.8943   28.3755   45.0844 H   0  0  0  0  0  0  0  0  0  0  0  0
   56.1900   30.4300   43.8430 S   0  0  0  0  0  0  0  0  0  0  0  0
   57.4580   31.4610   44.2470 C   0  0  0  0  0  0  0  0  0  0  0  0
   57.6919   32.4162   43.7541 H   0  0  0  0  0  0  0  0  0  0  0  0
   60.3380   30.7050   46.5440 C   0  0  0  0  0  0  0  0  0  0  0  0
   60.2244   29.6112   46.5175 H   0  0  0  0  0  0  0  0  0  0  0  0
   61.4620   31.2670   47.1550 C   0  0  0  0  0  0  0  0  0  0  0  0
   62.2188   30.6123   47.6118 H   0  0  0  0  0  0  0  0  0  0  0  0
   64.1490   32.8480   47.4900 N   0  0  0  0  0  0  0  0  0  0  0  0
   64.9780   33.2310   47.9960 H   0  0  0  0  0  0  0  0  0  0  0  0
   64.3230   32.2180   46.6770 H   0  0  0  0  0  0  0  0  0  0  0  0
  1  2  1  0
  2  3  2  0
  3  4  1  0
  4  5  2  0
  5  6  1  0
  5  7  1  0
  7  8  1  0
  7  9  2  0
  9 10  1  0
 10 11  1  0
 11 12  1  0
 12 13  2  0
 13 14  1  0
 14 15  1  0
 14 16  1  0
 14 17  1  0
 17 18  1  0
 17 19  1  0
 17 20  1  0
 20 21  1  0
 21 22  1  0
 21 23  1  0
 21 24  1  0
 20 25  1  0
 25 26  1  0
 25 27  1  0
 25 28  1  0
 12 29  1  0
 29 30  1  0
 30 31  1  0
  9 32  1  0
 32 33  1  0
 32 34  2  0
 34 35  1  0
  3 36  1  0
 36 37  1  0
 36 38  1  0
 34  4  1  0
 30 10  2  0
M  CHG  1  11  -1
M  END
>  <UniqueID>  (78) 
70

>  <SMILES>  (78) 
[H]/N=C(\N)c1ccc(-c2cs/c(=N/CCN(C)C)[n-]2)cc1

>  <Energy>  (78) 
70.35270579511055

>  <Genealogy>  (78) 
CN(C)CCN=c1[n-]c(-c2ccc(C(=N)N)cc2)cs1 (protonated)
[H]/N=C(\N)c1ccc(-c2cs/c(=N/CCN(C)C)[n-]2)cc1 (cis-trans isomerization)
[H]/N=C(\N)c1ccc(-c2cs/c(=N/CCN(C)C)[n-]2)cc1 (3D coordinates assigned)
[H]/N=C(\N)c1ccc(-c2cs/c(=N/CCN(C)C)[n-]2)cc1 (optimized conformer: 70.35270579511055 kcal/mol)

>  <smiles>  (78) 
CN(C)CCN=c1[nH]c(-c2ccc(C(=N)N)cc2)cs1

>  <score_type>  (78) 
oracle

>  <origin>  (78) 
adg

>  <m_score__min__energy>  (78) 
-8.0999999999999996

>  <m_primary>  (78) 
energy

$$$$
78:0
     RDKit          3D

 24 25  0  0  0  0  0  0  0  0999 V2000
   58.3508   32.8417   42.7887 H   0  0  0  0  0  0  0  0  0  0  0  0
   57.7660   32.4890   43.6510 C   0  0  0  0  0  0  0  0  0  0  0  0
   57.4220   31.0540   43.7420 C   0  0  0  0  0  0  0  0  0  0  0  0
   56.6950   30.5200   42.8590 O   0  0  0  0  0  0  0  0  0  0  0  0
   57.9730   30.2370   44.7850 N   0  0  0  0  0  0  0  0  0  0  0  0
   57.3870   29.2590   45.5160 C   0  0  0  0  0  0  0  0  0  0  0  0
   56.0970   28.6960   45.2420 N   0  0  0  0  0  0  0  0  0  0  0  0
   55.1720   29.4380   44.8560 O   0  0  0  0  0  0  0  0  0  0  0  0
   55.8040   27.4070   45.6190 O   0  0  0  0  0  0  0  0  0  0  0  0
   58.1900   28.7790   46.4890 N   0  0  0  0  0  0  0  0  0  0  0  0
   59.3310   29.4860   46.3530 C   0  0  0  0  0  0  0  0  0  0  0  0
   60.2259   29.3718   46.9823 H   0  0  0  0  0  0  0  0  0  0  0  0
   59.2050   30.3720   45.3070 C   0  0  0  0  0  0  0  0  0  0  0  0
   59.9795   31.0708   44.9579 H   0  0  0  0  0  0  0  0  0  0  0  0
   57.3900   33.3730   44.5820 C   0  0  0  0  0  0  0  0  0  0  0  0
   56.3889   33.8220   44.5030 H   0  0  0  0  0  0  0  0  0  0  0  0
   58.2520   33.7750   45.7090 C   0  0  0  0  0  0  0  0  0  0  0  0
   58.1060   33.1540   47.2650 S   0  0  0  0  0  0  0  0  0  0  0  0
   59.3640   34.0370   47.9440 C   0  0  0  0  0  0  0  0  0  0  0  0
   59.6912   33.9911   48.9932 H   0  0  0  0  0  0  0  0  0  0  0  0
   59.9190   34.8340   46.9530 C   0  0  0  0  0  0  0  0  0  0  0  0
   60.7639   35.5151   47.1326 H   0  0  0  0  0  0  0  0  0  0  0  0
   59.3040   34.6910   45.7030 C   0  0  0  0  0  0  0  0  0  0  0  0
   59.6189   35.2453   44.8065 H   0  0  0  0  0  0  0  0  0  0  0  0
  1  2  1  0
  2  3  1  0
  3  4  2  0
  3  5  1  0
  5  6  1  0
  6  7  1  0
  7  8  2  0
  7  9  1  0
  6 10  2  0
 10 11  1  0
 11 12  1  0
 11 13  2  0
 13 14  1  0
  2 15  2  0
 15 16  1  0
 15 17  1  0
 17 18  1  0
 18 19  1  0
 19 20  1  0
 19 21  2  0
 21 22  1  0
 21 23  1  0
 23 24  1  0
 13  5  1  0
 23 17  2  0
M  CHG  2   7   1   9  -1
M  END
>  <UniqueID>  (79) 
71

>  <SMILES>  (79) 
O=C(/C=C/c1cccs1)n1ccnc1[N+](=O)[O-]

>  <Energy>  (79) 
85.27619105332775

>  <Genealogy>  (79) 
O=C(/C=C/c1cccs1)n1ccnc1[N+](=O)[O-] (cis-trans isomerization)
O=C(/C=C/c1cccs1)n1ccnc1[N+](=O)[O-] (3D coordinates assigned)
O=C(/C=C/c1cccs1)n1ccnc1[N+](=O)[O-] (optimized conformer: 85.27619105332775 kcal/mol)

>  <smiles>  (79) 
O=C(C=Cc1cccs1)n1ccnc1[N+](=O)[O-]

>  <score_type>  (79) 
oracle

>  <origin>  (79) 
adg

>  <m_score__min__energy>  (79) 
-7.7599999999999998

>  <m_primary>  (79) 
energy

$$$$
79:0
     RDKit          3D

 49 52  0  0  0  0  0  0  0  0999 V2000
   57.4625   32.0878   41.9710 H   0  0  0  0  0  0  0  0  0  0  0  0
   57.6460   31.9600   43.0480 C   0  0  0  0  0  0  0  0  0  0  0  0
   57.6950   30.6780   43.5980 C   0  0  0  0  0  0  0  0  0  0  0  0
   57.5456   29.7999   42.9526 H   0  0  0  0  0  0  0  0  0  0  0  0
   57.9340   30.5030   44.9710 C   0  0  0  0  0  0  0  0  0  0  0  0
   57.9890   29.1390   45.5580 C   0  0  0  0  0  0  0  0  0  0  0  0
   59.1600   28.6830   46.1960 C   0  0  0  0  0  0  0  0  0  0  0  0
   60.0384   29.3422   46.2582 H   0  0  0  0  0  0  0  0  0  0  0  0
   59.2160   27.4000   46.7510 C   0  0  0  0  0  0  0  0  0  0  0  0
   60.1348   27.0543   47.2473 H   0  0  0  0  0  0  0  0  0  0  0  0
   58.1030   26.5580   46.6740 C   0  0  0  0  0  0  0  0  0  0  0  0
   58.1380   25.3080   47.2050 N   0  0  0  0  0  0  0  0  0  0  0  0
   57.0600   24.4830   47.1330 C   0  0  0  0  0  0  0  0  0  0  0  0
   57.1066   23.4742   47.5690 H   0  0  0  0  0  0  0  0  0  0  0  0
   55.8890   24.9230   46.5010 C   0  0  0  0  0  0  0  0  0  0  0  0
   54.8610   24.1280   46.4360 N   0  0  0  0  0  0  0  0  0  0  0  0
   54.5230   23.1400   45.4000 C   0  0  0  0  0  0  0  0  0  0  0  0
   53.4514   22.9193   45.5140 H   0  0  0  0  0  0  0  0  0  0  0  0
   54.6460   23.7060   43.9650 C   0  0  0  0  0  0  0  0  0  0  0  0
   53.7654   23.3855   43.3889 H   0  0  0  0  0  0  0  0  0  0  0  0
   54.7133   24.8001   44.0564 H   0  0  0  0  0  0  0  0  0  0  0  0
   55.9050   23.2410   43.2230 C   0  0  0  0  0  0  0  0  0  0  0  0
   55.8088   23.4961   42.1573 H   0  0  0  0  0  0  0  0  0  0  0  0
   56.7771   23.7458   43.6641 H   0  0  0  0  0  0  0  0  0  0  0  0
   56.0830   21.8460   43.3490 O   0  0  0  0  0  0  0  0  0  0  0  0
   56.4140   21.5350   44.6850 C   0  0  0  0  0  0  0  0  0  0  0  0
   56.7092   20.4771   44.7449 H   0  0  0  0  0  0  0  0  0  0  0  0
   57.2425   22.1864   45.0000 H   0  0  0  0  0  0  0  0  0  0  0  0
   55.2230   21.7760   45.6200 C   0  0  0  0  0  0  0  0  0  0  0  0
   54.4853   20.9768   45.4554 H   0  0  0  0  0  0  0  0  0  0  0  0
   55.6169   21.7795   46.6470 H   0  0  0  0  0  0  0  0  0  0  0  0
   55.8570   26.1720   45.9700 N   0  0  0  0  0  0  0  0  0  0  0  0
   56.9290   27.0020   46.0380 C   0  0  0  0  0  0  0  0  0  0  0  0
   56.8720   28.2850   45.4840 C   0  0  0  0  0  0  0  0  0  0  0  0
   55.9515   28.6280   44.9889 H   0  0  0  0  0  0  0  0  0  0  0  0
   58.1240   31.6370   45.7820 C   0  0  0  0  0  0  0  0  0  0  0  0
   58.3235   31.5092   46.8562 H   0  0  0  0  0  0  0  0  0  0  0  0
   58.0620   32.9330   45.2360 C   0  0  0  0  0  0  0  0  0  0  0  0
   58.2480   34.1100   46.0420 N   0  0  0  0  0  0  0  0  0  0  0  0
   57.4060   34.6200   46.3930 H   0  0  0  0  0  0  0  0  0  0  0  0
   59.7880   34.6730   46.6140 S   0  0  0  0  0  0  0  0  0  0  0  0
   59.9600   36.1100   46.2070 O   0  0  0  0  0  0  0  0  0  0  0  0
   60.8940   33.8630   45.9980 O   0  0  0  0  0  0  0  0  0  0  0  0
   59.8610   34.5770   48.3900 C   0  0  0  0  0  0  0  0  0  0  0  0
   59.2497   35.3809   48.8261 H   0  0  0  0  0  0  0  0  0  0  0  0
   59.4743   33.6018   48.7207 H   0  0  0  0  0  0  0  0  0  0  0  0
   60.9041   34.6891   48.7207 H   0  0  0  0  0  0  0  0  0  0  0  0
   57.8290   33.0800   43.8600 C   0  0  0  0  0  0  0  0  0  0  0  0
   57.7903   34.0865   43.4178 H   0  0  0  0  0  0  0  0  0  0  0  0
  1  2  1  0
  2  3  2  0
  3  4  1  0
  3  5  1  0
  5  6  1  0
  6  7  2  0
  7  8  1  0
  7  9  1  0
  9 10  1  0
  9 11  2  0
 11 12  1  0
 12 13  2  0
 13 14  1  0
 13 15  1  0
 15 16  2  0
 16 17  1  0
 17 18  1  0
 17 19  1  0
 19 20  1  0
 19 21  1  0
 19 22  1  0
 22 23  1  0
 22 24  1  0
 22 25  1  0
 25 26  1  0
 26 27  1  0
 26 28  1  0
 26 29  1  0
 29 30  1  0
 29 31  1  0
 15 32  1  0
 32 33  1  0
 33 34  2  0
 34 35  1  0
  5 36  2  0
 36 37  1  0
 36 38  1  0
 38 39  1  0
 39 40  1  0
 39 41  1  0
 41 42  2  0
 41 43  2  0
 41 44  1  0
 44 45  1  0
 44 46  1  0
 44 47  1  0
 38 48  2  0
 48 49  1  0
 48  2  1  0
 34  6  1  0
 33 11  1  0
 29 17  1  0
M  CHG  1  32  -1
M  END
>  <UniqueID>  (80) 
72

>  <SMILES>  (80) 
CS(=O)(=O)Nc1cccc(-c2ccc3nc/c(=N/C4CCOCC4)[n-]c3c2)c1

>  <Energy>  (80) 
67.25542012648093

>  <Genealogy>  (80) 
CS(=O)(=O)Nc1cccc(-c2ccc3ncc(=NC4CCOCC4)[n-]c3c2)c1 (protonated)
CS(=O)(=O)Nc1cccc(-c2ccc3nc/c(=N/C4CCOCC4)[n-]c3c2)c1 (cis-trans isomerization)
CS(=O)(=O)Nc1cccc(-c2ccc3nc/c(=N/C4CCOCC4)[n-]c3c2)c1 (3D coordinates assigned)
CS(=O)(=O)Nc1cccc(-c2ccc3nc/c(=N/C4CCOCC4)[n-]c3c2)c1 (nonaromatic ring conformer: 67.25542012648093 kcal/mol)

>  <smiles>  (80) 
CS(=O)(=O)Nc1cccc(-c2ccc3ncc(=NC4CCOCC4)[nH]c3c2)c1

>  <score_type>  (80) 
oracle

>  <origin>  (80) 
adg

>  <m_score__min__energy>  (80) 
-11.25

>  <m_primary>  (80) 
energy

$$$$
80:0
     RDKit          3D

 55 58  0  0  0  0  0  0  0  0999 V2000
   59.6480   35.9780   45.9630 C   0  0  0  0  0  0  0  0  0  0  0  0
   59.2590   34.8970   46.9750 C   0  0  0  0  0  0  0  0  0  0  0  0
   59.6310   33.5460   46.4930 N   0  0  0  0  0  0  0  0  0  0  0  0
   58.7540   32.8590   45.5640 C   0  0  0  0  0  0  0  0  0  0  0  0
   58.0450   33.5110   44.7430 O   0  0  0  0  0  0  0  0  0  0  0  0
   58.6060   31.3660   45.6440 C   0  0  2  0  0  0  0  0  0  0  0  0
   57.2690   30.9440   45.2300 N   0  0  0  0  0  0  0  0  0  0  0  0
   56.8650   29.5700   45.2500 C   0  0  0  0  0  0  0  0  0  0  0  0
   55.6410   29.2640   45.2310 O   0  0  0  0  0  0  0  0  0  0  0  0
   57.9030   28.4860   45.2780 C   0  0  0  0  0  0  0  0  0  0  0  0
   57.7060   27.5710   46.4910 C   0  0  0  0  0  0  0  0  0  0  0  0
   57.2400   26.2000   46.0710 C   0  0  0  0  0  0  0  0  0  0  0  0
   55.8680   25.9050   46.0360 C   0  0  0  0  0  0  0  0  0  0  0  0
   55.4310   24.6290   45.6650 C   0  0  0  0  0  0  0  0  0  0  0  0
   56.3610   23.6420   45.3230 C   0  0  0  0  0  0  0  0  0  0  0  0
   57.7270   23.9320   45.3350 C   0  0  0  0  0  0  0  0  0  0  0  0
   58.1690   25.2090   45.6990 C   0  0  0  0  0  0  0  0  0  0  0  0
   59.5010   25.4760   45.6970 F   0  0  0  0  0  0  0  0  0  0  0  0
   58.8190   30.9900   47.0330 N   0  0  0  0  0  0  0  0  0  0  0  0
   59.9910   30.7830   47.5610 C   0  0  0  0  0  0  0  0  0  0  0  0
   60.2020   29.5340   48.3280 C   0  0  0  0  0  0  0  0  0  0  0  0
   60.3890   28.3150   47.6490 C   0  0  0  0  0  0  0  0  0  0  0  0
   60.5620   27.1280   48.3630 C   0  0  0  0  0  0  0  0  0  0  0  0
   60.5320   27.1380   49.7630 C   0  0  0  0  0  0  0  0  0  0  0  0
   60.3660   28.3450   50.4470 C   0  0  0  0  0  0  0  0  0  0  0  0
   60.1850   29.5400   49.7390 C   0  0  0  0  0  0  0  0  0  0  0  0
   59.9700   30.6940   50.4270 F   0  0  0  0  0  0  0  0  0  0  0  0
   61.1310   31.7090   47.3010 C   0  0  0  0  0  0  0  0  0  0  0  0
   62.4340   31.2490   47.5680 C   0  0  0  0  0  0  0  0  0  0  0  0
   63.5430   32.0540   47.3090 C   0  0  0  0  0  0  0  0  0  0  0  0
   63.3710   33.3260   46.7730 C   0  0  0  0  0  0  0  0  0  0  0  0
   62.0900   33.8090   46.5100 C   0  0  0  0  0  0  0  0  0  0  0  0
   60.9500   33.0120   46.7590 C   0  0  0  0  0  0  0  0  0  0  0  0
   59.9733   36.8819   46.4989 H   0  0  0  0  0  0  0  0  0  0  0  0
   60.4702   35.6103   45.3315 H   0  0  0  0  0  0  0  0  0  0  0  0
   58.7800   36.2185   45.3315 H   0  0  0  0  0  0  0  0  0  0  0  0
   59.7772   35.0932   47.9252 H   0  0  0  0  0  0  0  0  0  0  0  0
   58.1680   34.9274   47.1118 H   0  0  0  0  0  0  0  0  0  0  0  0
   59.3317   30.8821   44.9738 H   0  0  0  0  0  0  0  0  0  0  0  0
   57.8233   27.8873   44.3586 H   0  0  0  0  0  0  0  0  0  0  0  0
   58.8966   28.9528   45.3478 H   0  0  0  0  0  0  0  0  0  0  0  0
   58.6615   27.4762   47.0277 H   0  0  0  0  0  0  0  0  0  0  0  0
   56.9380   28.0155   47.1410 H   0  0  0  0  0  0  0  0  0  0  0  0
   55.1339   26.6801   46.3013 H   0  0  0  0  0  0  0  0  0  0  0  0
   54.3550   24.4017   45.6422 H   0  0  0  0  0  0  0  0  0  0  0  0
   56.0159   22.6355   45.0441 H   0  0  0  0  0  0  0  0  0  0  0  0
   58.4560   23.1562   45.0582 H   0  0  0  0  0  0  0  0  0  0  0  0
   60.3988   28.2978   46.5492 H   0  0  0  0  0  0  0  0  0  0  0  0
   60.7223   26.1823   47.8245 H   0  0  0  0  0  0  0  0  0  0  0  0
   60.6389   26.1974   50.3232 H   0  0  0  0  0  0  0  0  0  0  0  0
   60.3775   28.3569   51.5469 H   0  0  0  0  0  0  0  0  0  0  0  0
   62.5795   30.2420   47.9862 H   0  0  0  0  0  0  0  0  0  0  0  0
   64.5548   31.6826   47.5288 H   0  0  0  0  0  0  0  0  0  0  0  0
   64.2485   33.9528   46.5560 H   0  0  0  0  0  0  0  0  0  0  0  0
   61.9650   34.8235   46.1035 H   0  0  0  0  0  0  0  0  0  0  0  0
  1  2  1  0
  2  3  1  0
  3  4  1  0
  4  5  2  0
  4  6  1  0
  6  7  1  0
  7  8  1  0
  8  9  2  0
  8 10  1  0
 10 11  1  0
 11 12  1  0
 12 13  2  0
 13 14  1  0
 14 15  2  0
 15 16  1  0
 16 17  2  0
 17 18  1  0
  6 19  1  0
 19 20  2  0
 20 21  1  0
 21 22  2  0
 22 23  1  0
 23 24  2  0
 24 25  1  0
 25 26  2  0
 26 27  1  0
 20 28  1  0
 28 29  2  0
 29 30  1  0
 30 31  2  0
 31 32  1  0
 32 33  2  0
 33  3  1  0
 17 12  1  0
 26 21  1  0
 33 28  1  0
  1 34  1  0
  1 35  1  0
  1 36  1  0
  2 37  1  0
  2 38  1  0
  6 39  1  6
 10 40  1  0
 10 41  1  0
 11 42  1  0
 11 43  1  0
 13 44  1  0
 14 45  1  0
 15 46  1  0
 16 47  1  0
 22 48  1  0
 23 49  1  0
 24 50  1  0
 25 51  1  0
 29 52  1  0
 30 53  1  0
 31 54  1  0
 32 55  1  0
M  CHG  1   7  -1
M  END
>  <UniqueID>  (81) 
73

>  <SMILES>  (81) 
CCN1C(=O)[C@H]([N-]C(=O)CCc2ccccc2F)N=C(c2ccccc2F)c2ccccc21

>  <Energy>  (81) 
73.33119792341093

>  <Genealogy>  (81) 
CCN1C(=O)C([N-]C(=O)CCc2ccccc2F)N=C(c2ccccc2F)c2ccccc21 (protonated)
CCN1C(=O)[C@H]([N-]C(=O)CCc2ccccc2F)N=C(c2ccccc2F)c2ccccc21 (chirality)
CCN1C(=O)[C@H]([N-]C(=O)CCc2ccccc2F)N=C(c2ccccc2F)c2ccccc21 (3D coordinates assigned)
CCN1C(=O)[C@H]([N-]C(=O)CCc2ccccc2F)N=C(c2ccccc2F)c2ccccc21 (nonaromatic ring conformer: 73.33119792341093 kcal/mol)

>  <smiles>  (81) 
CCN1C(=O)C(NC(=O)CCc2ccccc2F)N=C(c2ccccc2F)c2ccccc21

>  <score_type>  (81) 
oracle

>  <origin>  (81) 
adg

>  <m_score__min__energy>  (81) 
-7.7999999999999998

>  <m_primary>  (81) 
energy

$$$$
81:0
     RDKit          3D

 43 45  0  0  0  0  0  0  0  0999 V2000
   64.1250   33.1140   47.3350 N   0  0  0  0  0  0  0  0  0  0  0  0
   62.7970   33.3200   48.4230 S   0  0  0  0  0  0  0  0  0  0  0  0
   62.7930   32.2000   49.4270 O   0  0  0  0  0  0  0  0  0  0  0  0
   62.9470   34.6230   49.1570 O   0  0  0  0  0  0  0  0  0  0  0  0
   61.2850   33.3140   47.5190 C   0  0  0  0  0  0  0  0  0  0  0  0
   61.2320   33.8620   46.2310 C   0  0  0  0  0  0  0  0  0  0  0  0
   60.0300   33.8710   45.5170 C   0  0  0  0  0  0  0  0  0  0  0  0
   58.8600   33.3370   46.0850 C   0  0  0  0  0  0  0  0  0  0  0  0
   57.5900   33.3470   45.3270 C   0  0  0  0  0  0  0  0  0  0  0  0
   56.8350   34.3570   45.3750 O   0  0  0  0  0  0  0  0  0  0  0  0
   57.2600   32.2540   44.5120 O   0  0  0  0  0  0  0  0  0  0  0  0
   57.3320   30.9060   44.8930 C   0  0  0  0  0  0  0  0  0  0  0  0
   56.2730   30.0580   44.5500 C   0  0  0  0  0  0  0  0  0  0  0  0
   56.3030   28.7060   44.9030 C   0  0  0  0  0  0  0  0  0  0  0  0
   57.3920   28.1830   45.6080 C   0  0  0  0  0  0  0  0  0  0  0  0
   57.3960   26.7880   45.9450 N   0  0  0  0  0  0  0  0  0  0  0  0
   56.3670   25.8380   45.6300 C   0  0  0  0  0  0  0  0  0  0  0  0
   55.1890   26.0850   45.9980 O   0  0  0  0  0  0  0  0  0  0  0  0
   56.6600   24.5620   44.9370 C   0  0  0  0  0  0  0  0  0  0  0  0
   57.7720   23.7810   45.3000 C   0  0  0  0  0  0  0  0  0  0  0  0
   58.0370   22.5770   44.6420 C   0  0  0  0  0  0  0  0  0  0  0  0
   57.1900   22.1340   43.6230 C   0  0  0  0  0  0  0  0  0  0  0  0
   56.0730   22.8940   43.2650 C   0  0  0  0  0  0  0  0  0  0  0  0
   55.8040   24.0990   43.9210 C   0  0  0  0  0  0  0  0  0  0  0  0
   58.4790   29.0200   45.9150 C   0  0  0  0  0  0  0  0  0  0  0  0
   58.4480   30.3720   45.5630 C   0  0  0  0  0  0  0  0  0  0  0  0
   58.9190   32.7960   47.3830 C   0  0  0  0  0  0  0  0  0  0  0  0
   60.1220   32.7880   48.0940 C   0  0  0  0  0  0  0  0  0  0  0  0
   64.1800   32.0950   47.1110 H   0  0  0  0  0  0  0  0  0  0  0  0
   64.9930   33.3530   47.8650 H   0  0  0  0  0  0  0  0  0  0  0  0
   62.1403   34.2872   45.7792 H   0  0  0  0  0  0  0  0  0  0  0  0
   59.9995   34.2987   44.5040 H   0  0  0  0  0  0  0  0  0  0  0  0
   55.4100   30.4587   43.9981 H   0  0  0  0  0  0  0  0  0  0  0  0
   55.4654   28.0495   44.6248 H   0  0  0  0  0  0  0  0  0  0  0  0
   58.4376   24.1203   46.1074 H   0  0  0  0  0  0  0  0  0  0  0  0
   58.9139   21.9771   44.9268 H   0  0  0  0  0  0  0  0  0  0  0  0
   57.4020   21.1881   43.1031 H   0  0  0  0  0  0  0  0  0  0  0  0
   55.4040   22.5433   42.4653 H   0  0  0  0  0  0  0  0  0  0  0  0
   54.9183   24.6883   43.6412 H   0  0  0  0  0  0  0  0  0  0  0  0
   59.3573   28.6091   46.4343 H   0  0  0  0  0  0  0  0  0  0  0  0
   59.3002   31.0219   45.8109 H   0  0  0  0  0  0  0  0  0  0  0  0
   58.0113   32.3763   47.8412 H   0  0  0  0  0  0  0  0  0  0  0  0
   60.1553   32.3667   49.1096 H   0  0  0  0  0  0  0  0  0  0  0  0
  1  2  1  0
  2  3  2  0
  2  4  2  0
  2  5  1  0
  5  6  2  0
  6  7  1  0
  7  8  2  0
  8  9  1  0
  9 10  2  0
  9 11  1  0
 11 12  1  0
 12 13  2  0
 13 14  1  0
 14 15  2  0
 15 16  1  0
 16 17  1  0
 17 18  2  0
 17 19  1  0
 19 20  2  0
 20 21  1  0
 21 22  2  0
 22 23  1  0
 23 24  2  0
 15 25  1  0
 25 26  2  0
  8 27  1  0
 27 28  2  0
 28  5  1  0
 26 12  1  0
 24 19  1  0
  1 29  1  0
  1 30  1  0
  6 31  1  0
  7 32  1  0
 13 33  1  0
 14 34  1  0
 20 35  1  0
 21 36  1  0
 22 37  1  0
 23 38  1  0
 24 39  1  0
 25 40  1  0
 26 41  1  0
 27 42  1  0
 28 43  1  0
M  CHG  1  16  -1
M  END
>  <UniqueID>  (82) 
74

>  <SMILES>  (82) 
NS(=O)(=O)c1ccc(C(=O)Oc2ccc([N-]C(=O)c3ccccc3)cc2)cc1

>  <Energy>  (82) 
56.38904736038509

>  <Genealogy>  (82) 
NS(=O)(=O)c1ccc(C(=O)Oc2ccc([N-]C(=O)c3ccccc3)cc2)cc1 (protonated)
NS(=O)(=O)c1ccc(C(=O)Oc2ccc([N-]C(=O)c3ccccc3)cc2)cc1 (3D coordinates assigned)
NS(=O)(=O)c1ccc(C(=O)Oc2ccc([N-]C(=O)c3ccccc3)cc2)cc1 (optimized conformer: 56.38904736038509 kcal/mol)

>  <smiles>  (82) 
NS(=O)(=O)c1ccc(C(=O)Oc2ccc(NC(=O)c3ccccc3)cc2)cc1

>  <score_type>  (82) 
oracle

>  <origin>  (82) 
adg

>  <m_score__min__energy>  (82) 
-10.52

>  <m_primary>  (82) 
energy

$$$$
82:0
     RDKit          3D

 19 19  0  0  0  0  0  0  0  0999 V2000
   60.0400   22.5990   45.6160 N   0  0  0  0  0  0  0  0  0  0  0  0
   59.1820   23.7330   45.5300 C   0  0  0  0  0  0  0  0  0  0  0  0
   58.0560   23.6290   44.9740 O   0  0  0  0  0  0  0  0  0  0  0  0
   59.5980   25.0350   46.1400 C   0  0  0  0  0  0  0  0  0  0  0  0
   58.5720   26.0950   45.8450 C   0  0  0  0  0  0  0  0  0  0  0  0
   58.9740   27.3700   45.4200 C   0  0  0  0  0  0  0  0  0  0  0  0
   58.0220   28.3650   45.1750 C   0  0  0  0  0  0  0  0  0  0  0  0
   56.6600   28.1000   45.3610 C   0  0  0  0  0  0  0  0  0  0  0  0
   55.7320   29.1080   45.1080 O   0  0  0  0  0  0  0  0  0  0  0  0
   56.2540   26.8280   45.7990 C   0  0  0  0  0  0  0  0  0  0  0  0
   54.9060   26.5480   45.9950 O   0  0  0  0  0  0  0  0  0  0  0  0
   57.2060   25.8330   46.0430 C   0  0  0  0  0  0  0  0  0  0  0  0
   61.0460   22.6670   45.3440 H   0  0  0  0  0  0  0  0  0  0  0  0
   59.6923   24.9129   47.2291 H   0  0  0  0  0  0  0  0  0  0  0  0
   60.5645   25.3404   45.7127 H   0  0  0  0  0  0  0  0  0  0  0  0
   60.0428   27.5883   45.2788 H   0  0  0  0  0  0  0  0  0  0  0  0
   58.3449   29.3600   44.8347 H   0  0  0  0  0  0  0  0  0  0  0  0
   54.7380   28.9720   45.2530 H   0  0  0  0  0  0  0  0  0  0  0  0
   56.8838   24.8407   46.3915 H   0  0  0  0  0  0  0  0  0  0  0  0
  1  2  1  0
  2  3  2  0
  2  4  1  0
  4  5  1  0
  5  6  2  0
  6  7  1  0
  7  8  2  0
  8  9  1  0
  8 10  1  0
 10 11  1  0
 10 12  2  0
 12  5  1  0
  1 13  1  0
  4 14  1  0
  4 15  1  0
  6 16  1  0
  7 17  1  0
  9 18  1  0
 12 19  1  0
M  CHG  2   1  -1  11  -1
M  END
>  <UniqueID>  (83) 
75

>  <SMILES>  (83) 
[NH-]C(=O)Cc1ccc(O)c([O-])c1

>  <Energy>  (83) 
15.193646421242429

>  <Genealogy>  (83) 
[NH-]C(=O)Cc1ccc(O)c([O-])c1 (protonated)
[NH-]C(=O)Cc1ccc(O)c([O-])c1 (3D coordinates assigned)
[NH-]C(=O)Cc1ccc(O)c([O-])c1 (optimized conformer: 15.193646421242429 kcal/mol)

>  <smiles>  (83) 
NC(=O)Cc1ccc(O)c(O)c1

>  <score_type>  (83) 
oracle

>  <origin>  (83) 
adg

>  <m_score__min__energy>  (83) 
-10.539999999999999

>  <m_primary>  (83) 
energy

$$$$
83:0
     RDKit          3D

 38 41  0  0  0  0  0  0  0  0999 V2000
   62.9680   33.8300   46.3190 O   0  0  0  0  0  0  0  0  0  0  0  0
   62.2940   33.3890   47.2920 C   0  0  0  0  0  0  0  0  0  0  0  0
   62.9400   33.0150   48.4870 C   0  0  0  0  0  0  0  0  0  0  0  0
   64.3360   33.1140   48.6410 C   0  0  0  0  0  0  0  0  0  0  0  0
   64.9400   32.7320   49.8430 C   0  0  0  0  0  0  0  0  0  0  0  0
   64.1640   32.2480   50.8990 C   0  0  0  0  0  0  0  0  0  0  0  0
   62.7780   32.1430   50.7590 C   0  0  0  0  0  0  0  0  0  0  0  0
   62.1610   32.5220   49.5610 C   0  0  0  0  0  0  0  0  0  0  0  0
   60.8130   32.4170   49.4340 N   0  0  0  0  0  0  0  0  0  0  0  0
   60.1660   32.7710   48.2930 C   0  0  0  0  0  0  0  0  0  0  0  0
   58.7770   32.6430   48.2160 C   0  0  0  0  0  0  0  0  0  0  0  0
   58.1010   33.0010   47.0490 C   0  0  0  0  0  0  0  0  0  0  0  0
   58.8020   33.4900   45.9370 C   0  0  0  0  0  0  0  0  0  0  0  0
   58.0700   33.8390   44.7450 N   0  0  0  0  0  0  0  0  0  0  0  0
   57.8210   32.9270   43.6270 C   0  0  0  0  0  0  0  0  0  0  0  0
   57.7290   31.5030   44.1110 C   0  0  0  0  0  0  0  0  0  0  0  0
   58.8930   30.7620   44.3750 C   0  0  0  0  0  0  0  0  0  0  0  0
   58.8000   29.4400   44.8240 C   0  0  0  0  0  0  0  0  0  0  0  0
   57.5470   28.8470   45.0040 C   0  0  0  0  0  0  0  0  0  0  0  0
   56.3840   29.5740   44.7320 C   0  0  0  0  0  0  0  0  0  0  0  0
   55.1400   28.9820   44.9070 O   0  0  0  0  0  0  0  0  0  0  0  0
   56.4730   30.8960   44.2840 C   0  0  0  0  0  0  0  0  0  0  0  0
   60.2020   33.6300   46.0160 C   0  0  0  0  0  0  0  0  0  0  0  0
   60.8930   33.2690   47.1880 C   0  0  0  0  0  0  0  0  0  0  0  0
   64.9534   33.4930   47.8133 H   0  0  0  0  0  0  0  0  0  0  0  0
   66.0310   32.8130   49.9575 H   0  0  0  0  0  0  0  0  0  0  0  0
   64.6450   31.9492   51.8421 H   0  0  0  0  0  0  0  0  0  0  0  0
   62.1699   31.7615   51.5924 H   0  0  0  0  0  0  0  0  0  0  0  0
   58.2138   32.2583   49.0790 H   0  0  0  0  0  0  0  0  0  0  0  0
   57.0068   32.8986   47.0007 H   0  0  0  0  0  0  0  0  0  0  0  0
   57.6400   34.7910   44.6850 H   0  0  0  0  0  0  0  0  0  0  0  0
   56.8750   33.2042   43.1388 H   0  0  0  0  0  0  0  0  0  0  0  0
   58.6556   33.0050   42.9146 H   0  0  0  0  0  0  0  0  0  0  0  0
   59.8810   31.2227   44.2282 H   0  0  0  0  0  0  0  0  0  0  0  0
   59.7144   28.8664   45.0357 H   0  0  0  0  0  0  0  0  0  0  0  0
   57.4759   27.8085   45.3596 H   0  0  0  0  0  0  0  0  0  0  0  0
   55.5561   31.4632   44.0661 H   0  0  0  0  0  0  0  0  0  0  0  0
   60.7598   34.0249   45.1541 H   0  0  0  0  0  0  0  0  0  0  0  0
  1  2  2  0
  2  3  1  0
  3  4  2  0
  4  5  1  0
  5  6  2  0
  6  7  1  0
  7  8  2  0
  8  9  1  0
  9 10  1  0
 10 11  2  0
 11 12  1  0
 12 13  2  0
 13 14  1  0
 14 15  1  0
 15 16  1  0
 16 17  2  0
 17 18  1  0
 18 19  2  0
 19 20  1  0
 20 21  1  0
 20 22  2  0
 13 23  1  0
 23 24  2  0
 24  2  1  0
  8  3  1  0
 24 10  1  0
 22 16  1  0
  4 25  1  0
  5 26  1  0
  6 27  1  0
  7 28  1  0
 11 29  1  0
 12 30  1  0
 14 31  1  0
 15 32  1  0
 15 33  1  0
 17 34  1  0
 18 35  1  0
 19 36  1  0
 22 37  1  0
 23 38  1  0
M  CHG  2   9  -1  21  -1
M  END
>  <UniqueID>  (84) 
76

>  <SMILES>  (84) 
O=c1c2ccccc2[n-]c2ccc(NCc3cccc([O-])c3)cc12

>  <Energy>  (84) 
50.36215293760698

>  <Genealogy>  (84) 
O=c1c2ccccc2[n-]c2ccc(NCc3cccc([O-])c3)cc12 (protonated)
O=c1c2ccccc2[n-]c2ccc(NCc3cccc([O-])c3)cc12 (3D coordinates assigned)
O=c1c2ccccc2[n-]c2ccc(NCc3cccc([O-])c3)cc12 (optimized conformer: 50.36215293760698 kcal/mol)

>  <smiles>  (84) 
O=c1c2ccccc2[nH]c2ccc(NCc3cccc(O)c3)cc12

>  <score_type>  (84) 
oracle

>  <origin>  (84) 
adg

>  <m_score__min__energy>  (84) 
-12.699999999999999

>  <m_primary>  (84) 
energy

$$$$
84:0
     RDKit          3D

 41 42  0  0  0  0  0  0  0  0999 V2000
   63.8610   33.5500   48.3140 C   0  0  0  0  0  0  0  0  0  0  0  0
   62.8620   33.0390   49.2880 N   0  0  0  0  0  0  0  0  0  0  0  0
   63.5920   32.4600   50.4490 C   0  0  0  0  0  0  0  0  0  0  0  0
   61.9760   32.0160   48.6460 C   0  0  0  0  0  0  0  0  0  0  0  0
   61.8380   32.1130   47.1110 C   0  0  0  0  0  0  0  0  0  0  0  0
   61.6420   33.4450   46.7190 O   0  0  0  0  0  0  0  0  0  0  0  0
   62.0480   34.2200   49.7320 C   0  0  0  0  0  0  0  0  0  0  0  0
   60.5680   33.9280   50.0910 C   0  0  0  0  0  0  0  0  0  0  0  0
   59.6390   34.7140   49.2730 N   0  0  0  0  0  0  0  0  0  0  0  0
   59.2990   34.3440   47.9550 N   0  0  0  0  0  0  0  0  0  0  0  0
   59.5360   35.2130   46.9650 N   0  0  0  0  0  0  0  0  0  0  0  0
   59.2480   34.9250   45.6970 N   0  0  0  0  0  0  0  0  0  0  0  0
   58.6870   33.7430   45.3560 C   0  0  0  0  0  0  0  0  0  0  0  0
   58.3950   33.4610   44.0160 C   0  0  0  0  0  0  0  0  0  0  0  0
   57.8080   32.2400   43.6730 C   0  0  0  0  0  0  0  0  0  0  0  0
   57.5090   31.3010   44.6650 C   0  0  0  0  0  0  0  0  0  0  0  0
   57.7980   31.5790   46.0050 C   0  0  0  0  0  0  0  0  0  0  0  0
   58.3930   32.8050   46.3580 C   0  0  0  0  0  0  0  0  0  0  0  0
   58.7030   33.1390   47.6840 C   0  0  0  0  0  0  0  0  0  0  0  0
   58.4130   32.3440   48.6190 O   0  0  0  0  0  0  0  0  0  0  0  0
   64.7128   33.9857   48.8568 H   0  0  0  0  0  0  0  0  0  0  0  0
   64.2139   32.7217   47.6820 H   0  0  0  0  0  0  0  0  0  0  0  0
   63.3959   34.3209   47.6820 H   0  0  0  0  0  0  0  0  0  0  0  0
   63.1381   32.8200   51.3841 H   0  0  0  0  0  0  0  0  0  0  0  0
   63.5305   31.3624   50.4104 H   0  0  0  0  0  0  0  0  0  0  0  0
   64.6468   32.7698   50.4104 H   0  0  0  0  0  0  0  0  0  0  0  0
   62.3801   31.0215   48.8861 H   0  0  0  0  0  0  0  0  0  0  0  0
   60.9687   32.1994   49.0481 H   0  0  0  0  0  0  0  0  0  0  0  0
   62.7546   31.7281   46.6401 H   0  0  0  0  0  0  0  0  0  0  0  0
   60.9697   31.5171   46.7934 H   0  0  0  0  0  0  0  0  0  0  0  0
   60.8220   33.4510   46.1590 H   0  0  0  0  0  0  0  0  0  0  0  0
   62.5325   34.6473   50.6223 H   0  0  0  0  0  0  0  0  0  0  0  0
   62.0154   34.8999   48.8679 H   0  0  0  0  0  0  0  0  0  0  0  0
   60.3673   32.8588   49.9281 H   0  0  0  0  0  0  0  0  0  0  0  0
   60.4125   34.2061   51.1438 H   0  0  0  0  0  0  0  0  0  0  0  0
   59.3450   35.6580   49.6120 H   0  0  0  0  0  0  0  0  0  0  0  0
   59.9760   36.1360   47.1790 H   0  0  0  0  0  0  0  0  0  0  0  0
   58.6273   34.1994   43.2344 H   0  0  0  0  0  0  0  0  0  0  0  0
   57.5806   32.0171   42.6201 H   0  0  0  0  0  0  0  0  0  0  0  0
   57.0456   30.3417   44.3910 H   0  0  0  0  0  0  0  0  0  0  0  0
   57.5602   30.8391   46.7835 H   0  0  0  0  0  0  0  0  0  0  0  0
  1  2  1  0
  2  3  1  0
  2  4  1  0
  4  5  1  0
  5  6  1  0
  2  7  1  0
  7  8  1  0
  8  9  1  0
  9 10  1  0
 10 11  1  0
 11 12  2  0
 12 13  1  0
 13 14  2  0
 14 15  1  0
 15 16  2  0
 16 17  1  0
 17 18  2  0
 18 19  1  0
 19 20  2  0
 19 10  1  0
 18 13  1  0
  1 21  1  0
  1 22  1  0
  1 23  1  0
  3 24  1  0
  3 25  1  0
  3 26  1  0
  4 27  1  0
  4 28  1  0
  5 29  1  0
  5 30  1  0
  6 31  1  0
  7 32  1  0
  7 33  1  0
  8 34  1  0
  8 35  1  0
  9 36  1  0
 11 37  1  0
 14 38  1  0
 15 39  1  0
 16 40  1  0
 17 41  1  0
M  CHG  2   2   1  11   1
M  END
>  <UniqueID>  (85) 
77

>  <SMILES>  (85) 
C[N+](C)(CCO)CCNn1[nH+]nc2ccccc2c1=O

>  <Energy>  (85) 
60.18454372568706

>  <Genealogy>  (85) 
C[N+](C)(CCO)CCNn1[nH+]nc2ccccc2c1=O (protonated)
C[N+](C)(CCO)CCNn1[nH+]nc2ccccc2c1=O (3D coordinates assigned)
C[N+](C)(CCO)CCNn1[nH+]nc2ccccc2c1=O (optimized conformer: 60.18454372568706 kcal/mol)

>  <smiles>  (85) 
C[N+](C)(CCO)CCNn1nnc2ccccc2c1=O

>  <score_type>  (85) 
oracle

>  <origin>  (85) 
adg

>  <m_score__min__energy>  (85) 
-4.6600000000000001

>  <m_primary>  (85) 
energy

$$$$
85:0
     RDKit          3D

 49 51  0  0  0  0  0  0  0  0999 V2000
   55.5810   29.0340   44.9420 O   0  0  0  0  0  0  0  0  0  0  0  0
   56.5520   29.8340   44.8580 C   0  0  0  0  0  0  0  0  0  0  0  0
   56.3370   31.2010   44.4870 N   0  0  0  0  0  0  0  0  0  0  0  0
   57.2110   32.3050   44.7630 C   0  0  0  0  0  0  0  0  0  0  0  0
   58.1760   32.7430   43.8360 C   0  0  0  0  0  0  0  0  0  0  0  0
   58.9940   33.8380   44.1360 C   0  0  0  0  0  0  0  0  0  0  0  0
   58.8470   34.5110   45.3530 C   0  0  0  0  0  0  0  0  0  0  0  0
   59.6390   35.5730   45.6400 F   0  0  0  0  0  0  0  0  0  0  0  0
   57.8740   34.0950   46.2660 C   0  0  0  0  0  0  0  0  0  0  0  0
   57.0540   33.0030   45.9680 C   0  0  0  0  0  0  0  0  0  0  0  0
   57.8920   29.3650   45.0510 N   0  0  0  0  0  0  0  0  0  0  0  0
   58.2050   28.0510   45.5450 C   0  0  0  0  0  0  0  0  0  0  0  0
   57.3970   26.9630   45.1710 C   0  0  0  0  0  0  0  0  0  0  0  0
   57.6220   25.6930   45.7030 C   0  0  0  0  0  0  0  0  0  0  0  0
   58.6470   25.4950   46.6240 C   0  0  0  0  0  0  0  0  0  0  0  0
   59.4580   26.5630   47.0120 C   0  0  0  0  0  0  0  0  0  0  0  0
   59.2560   27.8510   46.4780 C   0  0  0  0  0  0  0  0  0  0  0  0
   60.1770   28.9430   46.8790 C   0  0  0  0  0  0  0  0  0  0  0  0
   60.5320   29.8200   46.0450 O   0  0  0  0  0  0  0  0  0  0  0  0
   60.6960   28.9850   48.2130 N   0  0  0  0  0  0  0  0  0  0  0  0
   60.4210   30.0790   49.1350 C   0  0  0  0  0  0  0  0  0  0  0  0
   60.2580   31.3840   48.3510 C   0  0  0  0  0  0  0  0  0  0  0  0
   61.4560   32.2440   48.4750 N   0  0  0  0  0  0  0  0  0  0  0  0
   61.2080   33.6010   47.9300 C   0  0  0  0  0  0  0  0  0  0  0  0
   61.7890   33.7650   46.5140 C   0  0  0  0  0  0  0  0  0  0  0  0
   63.1930   33.5510   46.4430 O   0  0  0  0  0  0  0  0  0  0  0  0
   63.6850   32.6560   47.4330 C   0  0  0  0  0  0  0  0  0  0  0  0
   62.6540   31.6060   47.8760 C   0  0  0  0  0  0  0  0  0  0  0  0
   58.2872   32.2229   42.8731 H   0  0  0  0  0  0  0  0  0  0  0  0
   59.7539   34.1700   43.4133 H   0  0  0  0  0  0  0  0  0  0  0  0
   57.7533   34.6279   47.2207 H   0  0  0  0  0  0  0  0  0  0  0  0
   56.2802   32.6894   46.6842 H   0  0  0  0  0  0  0  0  0  0  0  0
   58.6770   30.0110   44.8060 H   0  0  0  0  0  0  0  0  0  0  0  0
   56.5789   27.1146   44.4515 H   0  0  0  0  0  0  0  0  0  0  0  0
   56.9892   24.8478   45.3946 H   0  0  0  0  0  0  0  0  0  0  0  0
   58.8183   24.4942   47.0472 H   0  0  0  0  0  0  0  0  0  0  0  0
   60.2635   26.3971   47.7426 H   0  0  0  0  0  0  0  0  0  0  0  0
   59.4946   29.8667   49.6888 H   0  0  0  0  0  0  0  0  0  0  0  0
   61.2580   30.1799   49.8415 H   0  0  0  0  0  0  0  0  0  0  0  0
   60.0974   31.1455   47.2892 H   0  0  0  0  0  0  0  0  0  0  0  0
   59.3969   31.9298   48.7641 H   0  0  0  0  0  0  0  0  0  0  0  0
   60.1227   33.7762   47.8917 H   0  0  0  0  0  0  0  0  0  0  0  0
   61.7038   34.3292   48.5887 H   0  0  0  0  0  0  0  0  0  0  0  0
   61.2936   33.0417   45.8496 H   0  0  0  0  0  0  0  0  0  0  0  0
   61.6073   34.8067   46.2111 H   0  0  0  0  0  0  0  0  0  0  0  0
   64.5618   32.1324   47.0243 H   0  0  0  0  0  0  0  0  0  0  0  0
   63.9347   33.2585   48.3188 H   0  0  0  0  0  0  0  0  0  0  0  0
   62.3453   31.0157   47.0006 H   0  0  0  0  0  0  0  0  0  0  0  0
   63.1201   30.9618   48.6361 H   0  0  0  0  0  0  0  0  0  0  0  0
  1  2  2  0
  2  3  1  0
  3  4  1  0
  4  5  2  0
  5  6  1  0
  6  7  2  0
  7  8  1  0
  7  9  1  0
  9 10  2  0
  2 11  1  0
 11 12  1  0
 12 13  2  0
 13 14  1  0
 14 15  2  0
 15 16  1  0
 16 17  2  0
 17 18  1  0
 18 19  2  0
 18 20  1  0
 20 21  1  0
 21 22  1  0
 22 23  1  0
 23 24  1  0
 24 25  1  0
 25 26  1  0
 26 27  1  0
 27 28  1  0
 10  4  1  0
 17 12  1  0
 28 23  1  0
  5 29  1  0
  6 30  1  0
  9 31  1  0
 10 32  1  0
 11 33  1  0
 13 34  1  0
 14 35  1  0
 15 36  1  0
 16 37  1  0
 21 38  1  0
 21 39  1  0
 22 40  1  0
 22 41  1  0
 24 42  1  0
 24 43  1  0
 25 44  1  0
 25 45  1  0
 27 46  1  0
 27 47  1  0
 28 48  1  0
 28 49  1  0
M  CHG  2   3  -1  20  -1
M  END
>  <UniqueID>  (86) 
78

>  <SMILES>  (86) 
O=C([N-]c1ccc(F)cc1)Nc1ccccc1C(=O)[N-]CCN1CCOCC1

>  <Energy>  (86) 
72.20910078579274

>  <Genealogy>  (86) 
O=C([N-]c1ccc(F)cc1)Nc1ccccc1C(=O)[N-]CCN1CCOCC1 (protonated)
O=C([N-]c1ccc(F)cc1)Nc1ccccc1C(=O)[N-]CCN1CCOCC1 (3D coordinates assigned)
O=C([N-]c1ccc(F)cc1)Nc1ccccc1C(=O)[N-]CCN1CCOCC1 (nonaromatic ring conformer: 72.20910078579274 kcal/mol)

>  <smiles>  (86) 
O=C(Nc1ccc(F)cc1)Nc1ccccc1C(=O)NCCN1CCOCC1

>  <score_type>  (86) 
oracle

>  <origin>  (86) 
adg

>  <m_score__min__energy>  (86) 
-12.1

>  <m_primary>  (86) 
energy

$$$$
86:0
     RDKit          3D

 49 52  0  0  0  0  0  0  0  0999 V2000
   58.7700   31.0120   50.3020 C   0  0  0  0  0  0  0  0  0  0  0  0
   58.9310   32.0030   49.1840 C   0  0  0  0  0  0  0  0  0  0  0  0
   58.5780   31.6430   47.8730 C   0  0  0  0  0  0  0  0  0  0  0  0
   58.7230   32.5520   46.8220 C   0  0  0  0  0  0  0  0  0  0  0  0
   58.3810   32.1910   45.5880 O   0  0  0  0  0  0  0  0  0  0  0  0
   58.4880   33.0030   44.5390 C   0  0  0  0  0  0  0  0  0  0  0  0
   58.0770   32.5100   43.2130 C   0  0  0  0  0  0  0  0  0  0  0  0
   58.5080   33.0640   42.1650 O   0  0  0  0  0  0  0  0  0  0  0  0
   57.2160   31.3670   43.1300 N   0  0  0  0  0  0  0  0  0  0  0  0
   57.3140   30.1680   43.9110 C   0  0  0  0  0  0  0  0  0  0  0  0
   56.1800   29.5380   44.4530 C   0  0  0  0  0  0  0  0  0  0  0  0
   56.3220   28.3950   45.2460 C   0  0  0  0  0  0  0  0  0  0  0  0
   57.5930   27.8730   45.5140 C   0  0  0  0  0  0  0  0  0  0  0  0
   57.7580   26.4600   46.5520 S   0  0  0  0  0  0  0  0  0  0  0  0
   58.3930   26.8340   47.8630 O   0  0  0  0  0  0  0  0  0  0  0  0
   58.6360   25.4480   45.8710 O   0  0  0  0  0  0  0  0  0  0  0  0
   56.1950   25.7650   46.8390 N   0  0  0  0  0  0  0  0  0  0  0  0
   55.9020   24.5230   46.5940 C   0  0  0  0  0  0  0  0  0  0  0  0
   54.6520   24.1710   46.1880 N   0  0  0  0  0  0  0  0  0  0  0  0
   54.3270   22.8790   45.9310 C   0  0  0  0  0  0  0  0  0  0  0  0
   53.1580   22.5960   45.5590 O   0  0  0  0  0  0  0  0  0  0  0  0
   55.2940   21.8740   46.0840 C   0  0  0  0  0  0  0  0  0  0  0  0
   54.9630   20.4280   45.8330 C   0  0  0  0  0  0  0  0  0  0  0  0
   56.5760   22.2550   46.5000 C   0  0  0  0  0  0  0  0  0  0  0  0
   56.8550   23.5630   46.7450 N   0  0  0  0  0  0  0  0  0  0  0  0
   58.7260   28.5100   44.9900 C   0  0  0  0  0  0  0  0  0  0  0  0
   58.5850   29.6570   44.2020 C   0  0  0  0  0  0  0  0  0  0  0  0
   58.9820   34.3060   44.7100 C   0  0  0  0  0  0  0  0  0  0  0  0
   59.3550   34.7300   45.9870 C   0  0  0  0  0  0  0  0  0  0  0  0
   59.7990   35.8990   46.1500 O   0  0  0  0  0  0  0  0  0  0  0  0
   59.2280   33.8460   47.0720 C   0  0  0  0  0  0  0  0  0  0  0  0
   59.5850   34.2080   48.3810 C   0  0  0  0  0  0  0  0  0  0  0  0
   59.4390   33.2950   49.4320 C   0  0  0  0  0  0  0  0  0  0  0  0
   59.9010   33.8020   51.0540 Cl  0  0  0  0  0  0  0  0  0  0  0  0
   58.8545   31.5318   51.2677 H   0  0  0  0  0  0  0  0  0  0  0  0
   57.7823   30.5334   50.2283 H   0  0  0  0  0  0  0  0  0  0  0  0
   59.5554   30.2453   50.2283 H   0  0  0  0  0  0  0  0  0  0  0  0
   58.1837   30.6360   47.6719 H   0  0  0  0  0  0  0  0  0  0  0  0
   55.1781   29.9454   44.2527 H   0  0  0  0  0  0  0  0  0  0  0  0
   55.4300   27.9033   45.6615 H   0  0  0  0  0  0  0  0  0  0  0  0
   54.8437   19.9069   46.7944 H   0  0  0  0  0  0  0  0  0  0  0  0
   54.0261   20.3603   45.2605 H   0  0  0  0  0  0  0  0  0  0  0  0
   55.7771   19.9595   45.2605 H   0  0  0  0  0  0  0  0  0  0  0  0
   57.3595   21.4937   46.6289 H   0  0  0  0  0  0  0  0  0  0  0  0
   57.8200   23.8260   47.0550 H   0  0  0  0  0  0  0  0  0  0  0  0
   59.7281   28.1072   45.1988 H   0  0  0  0  0  0  0  0  0  0  0  0
   59.4794   30.1616   43.8078 H   0  0  0  0  0  0  0  0  0  0  0  0
   59.0740   34.9843   43.8489 H   0  0  0  0  0  0  0  0  0  0  0  0
   59.9815   35.2143   48.5815 H   0  0  0  0  0  0  0  0  0  0  0  0
  1  2  1  0
  2  3  2  0
  3  4  1  0
  4  5  1  0
  5  6  1  0
  6  7  1  0
  7  8  2  0
  7  9  1  0
  9 10  1  0
 10 11  2  0
 11 12  1  0
 12 13  2  0
 13 14  1  0
 14 15  2  0
 14 16  2  0
 14 17  1  0
 17 18  2  3
 18 19  1  0
 19 20  1  0
 20 21  2  0
 20 22  1  0
 22 23  1  0
 22 24  2  0
 24 25  1  0
 13 26  1  0
 26 27  2  0
  6 28  2  0
 28 29  1  0
 29 30  2  0
 29 31  1  0
 31 32  1  0
 32 33  2  0
 33 34  1  0
 33  2  1  0
 31  4  2  0
 27 10  1  0
 25 18  1  0
  1 35  1  0
  1 36  1  0
  1 37  1  0
  3 38  1  0
 11 39  1  0
 12 40  1  0
 23 41  1  0
 23 42  1  0
 23 43  1  0
 24 44  1  0
 25 45  1  0
 26 46  1  0
 27 47  1  0
 28 48  1  0
 32 49  1  0
M  CHG  2   9  -1  19  -1
M  END
>  <UniqueID>  (87) 
79

>  <SMILES>  (87) 
Cc1cc2oc(C(=O)[N-]c3ccc(S(=O)(=O)N=c4[n-]c(=O)c(C)c[nH]4)cc3)cc(=O)c2cc1Cl

>  <Energy>  (87) 
66.01601485308711

>  <Genealogy>  (87) 
Cc1cc2oc(C(=O)[N-]c3ccc(S(=O)(=O)N=c4[n-]c(=O)c(C)c[nH]4)cc3)cc(=O)c2cc1Cl (protonated)
Cc1cc2oc(C(=O)[N-]c3ccc(S(=O)(=O)N=c4[n-]c(=O)c(C)c[nH]4)cc3)cc(=O)c2cc1Cl (3D coordinates assigned)
Cc1cc2oc(C(=O)[N-]c3ccc(S(=O)(=O)N=c4[n-]c(=O)c(C)c[nH]4)cc3)cc(=O)c2cc1Cl (optimized conformer: 66.01601485308711 kcal/mol)

>  <smiles>  (87) 
Cc1cc2oc(C(=O)Nc3ccc(S(=O)(=O)N=c4[nH]cc(C)c(=O)[nH]4)cc3)cc(=O)c2cc1Cl

>  <score_type>  (87) 
oracle

>  <origin>  (87) 
adg

>  <m_score__min__energy>  (87) 
-12.18

>  <m_primary>  (87) 
energy

$$$$
87:0
     RDKit          3D

 47 48  0  0  0  0  0  0  0  0999 V2000
   56.1464   32.6466   44.4581 H   0  0  0  0  0  0  0  0  0  0  0  0
   57.1180   32.3400   44.8730 C   0  0  0  0  0  0  0  0  0  0  0  0
   57.4550   31.0410   44.7750 C   0  0  0  0  0  0  0  0  0  0  0  0
   56.3950   30.0730   44.6280 C   0  0  0  0  0  0  0  0  0  0  0  0
   55.5450   29.2970   44.5080 N   0  0  0  0  0  0  0  0  0  0  0  0
   58.8440   30.5710   45.0040 C   0  0  0  0  0  0  0  0  0  0  0  0
   59.4375   30.2675   44.1290 H   0  0  0  0  0  0  0  0  0  0  0  0
   59.4030   30.4960   46.1780 N   0  0  0  0  0  0  0  0  0  0  0  0
   60.4980   29.6050   46.5580 C   0  0  0  0  0  0  0  0  0  0  0  0
   61.4449   30.1645   46.5409 H   0  0  0  0  0  0  0  0  0  0  0  0
   60.5448   28.7681   45.8457 H   0  0  0  0  0  0  0  0  0  0  0  0
   60.2620   29.0520   47.9660 C   0  0  0  0  0  0  0  0  0  0  0  0
   60.9072   28.1741   48.1176 H   0  0  0  0  0  0  0  0  0  0  0  0
   59.2002   28.7789   48.0551 H   0  0  0  0  0  0  0  0  0  0  0  0
   60.5840   30.1060   49.0530 C   0  0  0  0  0  0  0  0  0  0  0  0
   61.5845   30.5141   48.8469 H   0  0  0  0  0  0  0  0  0  0  0  0
   60.5162   29.5829   50.0183 H   0  0  0  0  0  0  0  0  0  0  0  0
   59.6300   31.2410   49.1280 N   0  0  2  0  0  0  0  0  0  0  0  0
   59.1720   31.2790   48.1890 H   0  0  0  0  0  0  0  0  0  0  0  0
   60.3070   32.5020   49.3700 C   0  0  0  0  0  0  0  0  0  0  0  0
   59.7930   33.3600   50.1430 O   0  0  0  0  0  0  0  0  0  0  0  0
   61.6270   32.8000   48.7600 C   0  0  0  0  0  0  0  0  0  0  0  0
   62.7870   32.9160   49.5500 C   0  0  0  0  0  0  0  0  0  0  0  0
   62.7192   32.7995   50.6417 H   0  0  0  0  0  0  0  0  0  0  0  0
   64.0270   33.1790   48.9530 C   0  0  0  0  0  0  0  0  0  0  0  0
   64.9281   33.2715   49.5770 H   0  0  0  0  0  0  0  0  0  0  0  0
   64.1210   33.3240   47.5660 C   0  0  0  0  0  0  0  0  0  0  0  0
   65.0940   33.5378   47.0995 H   0  0  0  0  0  0  0  0  0  0  0  0
   62.9770   33.1970   46.7720 C   0  0  0  0  0  0  0  0  0  0  0  0
   63.0522   33.3071   45.6801 H   0  0  0  0  0  0  0  0  0  0  0  0
   61.7360   32.9300   47.3630 C   0  0  0  0  0  0  0  0  0  0  0  0
   60.8416   32.8213   46.7320 H   0  0  0  0  0  0  0  0  0  0  0  0
   58.5430   31.0290   50.0990 C   0  0  0  0  0  0  0  0  0  0  0  0
   58.9435   31.1071   51.1205 H   0  0  0  0  0  0  0  0  0  0  0  0
   57.7649   31.7923   49.9508 H   0  0  0  0  0  0  0  0  0  0  0  0
   58.1088   30.0292   49.9508 H   0  0  0  0  0  0  0  0  0  0  0  0
   57.9580   33.3880   45.4980 C   0  0  0  0  0  0  0  0  0  0  0  0
   58.7820   34.1780   44.6820 C   0  0  0  0  0  0  0  0  0  0  0  0
   58.7714   34.0338   43.5915 H   0  0  0  0  0  0  0  0  0  0  0  0
   59.6170   35.1480   45.2470 C   0  0  0  0  0  0  0  0  0  0  0  0
   60.2495   35.7733   44.5998 H   0  0  0  0  0  0  0  0  0  0  0  0
   59.6480   35.3230   46.6340 C   0  0  0  0  0  0  0  0  0  0  0  0
   60.2993   36.0908   47.0770 H   0  0  0  0  0  0  0  0  0  0  0  0
   58.8520   34.5230   47.4570 C   0  0  0  0  0  0  0  0  0  0  0  0
   58.8816   34.6573   48.5484 H   0  0  0  0  0  0  0  0  0  0  0  0
   58.0170   33.5510   46.8950 C   0  0  0  0  0  0  0  0  0  0  0  0
   57.4042   32.9116   47.5475 H   0  0  0  0  0  0  0  0  0  0  0  0
  1  2  1  0
  2  3  2  0
  3  4  1  0
  4  5  3  0
  3  6  1  0
  6  7  1  0
  6  8  2  0
  8  9  1  0
  9 10  1  0
  9 11  1  0
  9 12  1  0
 12 13  1  0
 12 14  1  0
 12 15  1  0
 15 16  1  0
 15 17  1  0
 15 18  1  0
 18 19  1  6
 18 20  1  0
 20 21  2  0
 20 22  1  0
 22 23  2  0
 23 24  1  0
 23 25  1  0
 25 26  1  0
 25 27  2  0
 27 28  1  0
 27 29  1  0
 29 30  1  0
 29 31  2  0
 31 32  1  0
 18 33  1  0
 33 34  1  0
 33 35  1  0
 33 36  1  0
  2 37  1  0
 37 38  2  0
 38 39  1  0
 38 40  1  0
 40 41  1  0
 40 42  2  0
 42 43  1  0
 42 44  1  0
 44 45  1  0
 44 46  2  0
 46 47  1  0
 31 22  1  0
 46 37  1  0
M  CHG  1  18   1
M  END
>  <UniqueID>  (88) 
80

>  <SMILES>  (88) 
C[N@H+](CCC/N=C\C(C#N)=Cc1ccccc1)C(=O)c1ccccc1

>  <Energy>  (88) 
62.457853023858696

>  <Genealogy>  (88) 
C[NH+](CCCN=CC(C#N)=Cc1ccccc1)C(=O)c1ccccc1 (protonated)
C[N@H+](CCCN=CC(C#N)=Cc1ccccc1)C(=O)c1ccccc1 (chirality)
C[N@H+](CCC/N=C\C(C#N)=Cc1ccccc1)C(=O)c1ccccc1 (cis-trans isomerization)
C[N@H+](CCC/N=C\C(C#N)=Cc1ccccc1)C(=O)c1ccccc1 (3D coordinates assigned)
C[N@H+](CCC/N=C\C(C#N)=Cc1ccccc1)C(=O)c1ccccc1 (optimized conformer: 62.457853023858696 kcal/mol)

>  <smiles>  (88) 
CN(CCCN=CC(C#N)=Cc1ccccc1)C(=O)c1ccccc1

>  <score_type>  (88) 
oracle

>  <origin>  (88) 
adg

>  <m_score__min__energy>  (88) 
-6.6299999999999999

>  <m_primary>  (88) 
energy

$$$$
88:0
     RDKit          3D

 47 49  0  0  0  0  0  0  0  0999 V2000
   58.4320   27.1420   43.8050 C   0  0  0  0  0  0  0  0  0  0  0  0
   59.2800   28.2200   44.1850 O   0  0  0  0  0  0  0  0  0  0  0  0
   59.3310   28.7760   45.4740 C   0  0  0  0  0  0  0  0  0  0  0  0
   60.0890   28.1920   46.5070 C   0  0  0  0  0  0  0  0  0  0  0  0
   60.0890   28.7530   47.7880 C   0  0  0  0  0  0  0  0  0  0  0  0
   59.3410   29.9040   48.0540 C   0  0  0  0  0  0  0  0  0  0  0  0
   59.3110   30.6010   49.6700 S   0  0  0  0  0  0  0  0  0  0  0  0
   58.1760   30.0330   50.4740 O   0  0  0  0  0  0  0  0  0  0  0  0
   60.6100   30.2840   50.3560 O   0  0  0  0  0  0  0  0  0  0  0  0
   59.1270   32.3240   49.5600 N   0  0  0  0  0  0  0  0  0  0  0  0
   59.5030   33.0670   48.3870 C   0  0  0  0  0  0  0  0  0  0  0  0
   58.5340   33.7390   47.6210 C   0  0  0  0  0  0  0  0  0  0  0  0
   58.8980   34.4500   46.4760 C   0  0  0  0  0  0  0  0  0  0  0  0
   60.2330   34.5020   46.0730 C   0  0  0  0  0  0  0  0  0  0  0  0
   61.2140   33.8340   46.8160 C   0  0  0  0  0  0  0  0  0  0  0  0
   62.5580   33.8520   46.4190 C   0  0  0  0  0  0  0  0  0  0  0  0
   63.5140   33.1660   47.1690 C   0  0  0  0  0  0  0  0  0  0  0  0
   63.1180   32.4660   48.3110 C   0  0  0  0  0  0  0  0  0  0  0  0
   61.8110   32.4560   48.6860 N   0  0  0  0  0  0  0  0  0  0  0  0
   60.8520   33.1170   47.9810 C   0  0  0  0  0  0  0  0  0  0  0  0
   58.6030   30.5000   47.0260 C   0  0  0  0  0  0  0  0  0  0  0  0
   58.5890   29.9410   45.7400 C   0  0  0  0  0  0  0  0  0  0  0  0
   57.8000   30.5580   44.7130 N   0  0  0  0  0  0  0  0  0  0  0  0
   58.1790   31.8730   44.2010 C   0  0  0  0  0  0  0  0  0  0  0  0
   56.2790   29.8490   44.2610 S   0  0  0  0  0  0  0  0  0  0  0  0
   56.3120   29.3720   42.5460 C   0  0  0  0  0  0  0  0  0  0  0  0
   56.0320   28.6180   45.0870 O   0  0  0  0  0  0  0  0  0  0  0  0
   55.1710   30.8360   44.4990 O   0  0  0  0  0  0  0  0  0  0  0  0
   58.0423   26.6466   44.7065 H   0  0  0  0  0  0  0  0  0  0  0  0
   57.5932   27.5284   43.2074 H   0  0  0  0  0  0  0  0  0  0  0  0
   59.0050   26.4178   43.2074 H   0  0  0  0  0  0  0  0  0  0  0  0
   60.6845   27.2894   46.3052 H   0  0  0  0  0  0  0  0  0  0  0  0
   60.6801   28.2867   48.5899 H   0  0  0  0  0  0  0  0  0  0  0  0
   58.9160   32.8330   50.4470 H   0  0  0  0  0  0  0  0  0  0  0  0
   57.4780   33.7041   47.9272 H   0  0  0  0  0  0  0  0  0  0  0  0
   58.1284   34.9720   45.8884 H   0  0  0  0  0  0  0  0  0  0  0  0
   60.5145   35.0673   45.1723 H   0  0  0  0  0  0  0  0  0  0  0  0
   62.8587   34.4061   45.5176 H   0  0  0  0  0  0  0  0  0  0  0  0
   64.5707   33.1764   46.8634 H   0  0  0  0  0  0  0  0  0  0  0  0
   63.8647   31.9219   48.9080 H   0  0  0  0  0  0  0  0  0  0  0  0
   58.0282   31.4158   47.2283 H   0  0  0  0  0  0  0  0  0  0  0  0
   58.3747   32.5522   45.0439 H   0  0  0  0  0  0  0  0  0  0  0  0
   59.0868   31.7797   43.5868 H   0  0  0  0  0  0  0  0  0  0  0  0
   57.3608   32.2771   43.5868 H   0  0  0  0  0  0  0  0  0  0  0  0
   56.3877   28.2772   42.4713 H   0  0  0  0  0  0  0  0  0  0  0  0
   55.3883   29.7101   42.0535 H   0  0  0  0  0  0  0  0  0  0  0  0
   57.1803   29.8341   42.0535 H   0  0  0  0  0  0  0  0  0  0  0  0
  1  2  1  0
  2  3  1  0
  3  4  2  0
  4  5  1  0
  5  6  2  0
  6  7  1  0
  7  8  2  0
  7  9  2  0
  7 10  1  0
 10 11  1  0
 11 12  2  0
 12 13  1  0
 13 14  2  0
 14 15  1  0
 15 16  2  0
 16 17  1  0
 17 18  2  0
 18 19  1  0
 19 20  2  0
  6 21  1  0
 21 22  2  0
 22 23  1  0
 23 24  1  0
 23 25  1  0
 25 26  1  0
 25 27  2  0
 25 28  2  0
 22  3  1  0
 20 11  1  0
 20 15  1  0
  1 29  1  0
  1 30  1  0
  1 31  1  0
  4 32  1  0
  5 33  1  0
 10 34  1  0
 12 35  1  0
 13 36  1  0
 14 37  1  0
 16 38  1  0
 17 39  1  0
 18 40  1  0
 21 41  1  0
 24 42  1  0
 24 43  1  0
 24 44  1  0
 26 45  1  0
 26 46  1  0
 26 47  1  0
M  END
>  <UniqueID>  (89) 
81

>  <SMILES>  (89) 
COc1ccc(S(=O)(=O)Nc2cccc3cccnc23)cc1N(C)S(C)(=O)=O

>  <Energy>  (89) 
54.38601764200934

>  <Genealogy>  (89) 
COc1ccc(S(=O)(=O)Nc2cccc3cccnc23)cc1N(C)S(C)(=O)=O (3D coordinates assigned)
COc1ccc(S(=O)(=O)Nc2cccc3cccnc23)cc1N(C)S(C)(=O)=O (optimized conformer: 54.38601764200934 kcal/mol)

>  <smiles>  (89) 
COc1ccc(S(=O)(=O)Nc2cccc3cccnc23)cc1N(C)S(C)(=O)=O

>  <score_type>  (89) 
oracle

>  <origin>  (89) 
adg

>  <m_score__min__energy>  (89) 
-9.2100000000000009

>  <m_primary>  (89) 
energy

$$$$
89:0
     RDKit          3D

 29 30  0  0  0  0  0  0  0  0999 V2000
   59.6520   34.9500   47.1980 C   0  0  0  0  0  0  0  0  0  0  0  0
   58.9000   33.8790   46.4650 C   0  0  0  0  0  0  0  0  0  0  0  0
   58.8750   32.5670   46.9630 C   0  0  0  0  0  0  0  0  0  0  0  0
   58.1440   31.5750   46.3020 C   0  0  0  0  0  0  0  0  0  0  0  0
   57.4270   31.8840   45.1320 C   0  0  0  0  0  0  0  0  0  0  0  0
   56.6450   30.9020   44.4360 N   0  0  0  0  0  0  0  0  0  0  0  0
   56.3580   29.5690   44.8760 C   0  0  0  0  0  0  0  0  0  0  0  0
   55.1730   29.1370   44.8780 O   0  0  0  0  0  0  0  0  0  0  0  0
   57.4370   28.7360   45.3220 N   0  0  0  0  0  0  0  0  0  0  0  0
   57.2650   27.4630   45.9690 C   0  0  0  0  0  0  0  0  0  0  0  0
   58.2910   26.8730   46.7270 C   0  0  0  0  0  0  0  0  0  0  0  0
   58.0930   25.6240   47.3190 C   0  0  0  0  0  0  0  0  0  0  0  0
   56.8760   24.9650   47.1360 C   0  0  0  0  0  0  0  0  0  0  0  0
   55.9010   25.5370   46.3800 N   0  0  0  0  0  0  0  0  0  0  0  0
   56.0700   26.7520   45.7950 C   0  0  0  0  0  0  0  0  0  0  0  0
   57.4190   33.2030   44.6630 C   0  0  0  0  0  0  0  0  0  0  0  0
   58.1510   34.1960   45.3230 C   0  0  0  0  0  0  0  0  0  0  0  0
   59.5446   34.7970   48.2820 H   0  0  0  0  0  0  0  0  0  0  0  0
   60.7165   34.9031   46.9248 H   0  0  0  0  0  0  0  0  0  0  0  0
   59.2464   35.9353   46.9248 H   0  0  0  0  0  0  0  0  0  0  0  0
   59.4331   32.3179   47.8776 H   0  0  0  0  0  0  0  0  0  0  0  0
   58.1296   30.5491   46.6985 H   0  0  0  0  0  0  0  0  0  0  0  0
   58.4080   29.0370   45.0770 H   0  0  0  0  0  0  0  0  0  0  0  0
   59.2506   27.3955   46.8540 H   0  0  0  0  0  0  0  0  0  0  0  0
   58.8883   25.1638   47.9237 H   0  0  0  0  0  0  0  0  0  0  0  0
   56.7058   23.9837   47.6030 H   0  0  0  0  0  0  0  0  0  0  0  0
   55.2638   27.1800   45.1811 H   0  0  0  0  0  0  0  0  0  0  0  0
   56.8327   33.4607   43.7687 H   0  0  0  0  0  0  0  0  0  0  0  0
   58.1388   35.2288   44.9447 H   0  0  0  0  0  0  0  0  0  0  0  0
  1  2  1  0
  2  3  2  0
  3  4  1  0
  4  5  2  0
  5  6  1  0
  6  7  1  0
  7  8  2  0
  7  9  1  0
  9 10  1  0
 10 11  2  0
 11 12  1  0
 12 13  2  0
 13 14  1  0
 14 15  2  0
  5 16  1  0
 16 17  2  0
 17  2  1  0
 15 10  1  0
  1 18  1  0
  1 19  1  0
  1 20  1  0
  3 21  1  0
  4 22  1  0
  9 23  1  0
 11 24  1  0
 12 25  1  0
 13 26  1  0
 15 27  1  0
 16 28  1  0
 17 29  1  0
M  CHG  1   6  -1
M  END
>  <UniqueID>  (90) 
82

>  <SMILES>  (90) 
Cc1ccc([N-]C(=O)Nc2cccnc2)cc1

>  <Energy>  (90) 
36.264525034536014

>  <Genealogy>  (90) 
Cc1ccc([N-]C(=O)Nc2cccnc2)cc1 (protonated)
Cc1ccc([N-]C(=O)Nc2cccnc2)cc1 (3D coordinates assigned)
Cc1ccc([N-]C(=O)Nc2cccnc2)cc1 (optimized conformer: 36.264525034536014 kcal/mol)

>  <smiles>  (90) 
Cc1ccc(NC(=O)Nc2cccnc2)cc1

>  <score_type>  (90) 
oracle

>  <origin>  (90) 
adg

>  <m_score__min__energy>  (90) 
-8.3399999999999999

>  <m_primary>  (90) 
energy

$$$$
90:0
     RDKit          3D

 47 49  0  0  0  0  0  0  0  0999 V2000
   62.2960   31.4860   50.6620 O   0  0  0  0  0  0  0  0  0  0  0  0
   61.1880   31.3090   50.0840 C   0  0  0  0  0  0  0  0  0  0  0  0
   60.3780   30.1800   50.4310 N   0  0  0  0  0  0  0  0  0  0  0  0
   60.5220   28.8600   49.8240 C   0  0  0  0  0  0  0  0  0  0  0  0
   59.6510   28.7430   48.5780 C   0  0  0  0  0  0  0  0  0  0  0  0
   60.4200   28.1270   47.5010 N   0  0  0  0  0  0  0  0  0  0  0  0
   59.9070   27.1420   46.5950 C   0  0  0  0  0  0  0  0  0  0  0  0
   60.7190   26.4160   45.9620 O   0  0  0  0  0  0  0  0  0  0  0  0
   58.4590   26.9180   46.4250 C   0  0  0  0  0  0  0  0  0  0  0  0
   57.8600   25.7330   46.8790 C   0  0  0  0  0  0  0  0  0  0  0  0
   56.4910   25.5180   46.6910 C   0  0  0  0  0  0  0  0  0  0  0  0
   55.9150   24.3350   47.1420 O   0  0  0  0  0  0  0  0  0  0  0  0
   55.7060   26.4930   46.0510 C   0  0  0  0  0  0  0  0  0  0  0  0
   54.3420   26.2930   45.8420 O   0  0  0  0  0  0  0  0  0  0  0  0
   56.3010   27.6850   45.6180 C   0  0  0  0  0  0  0  0  0  0  0  0
   55.5330   28.6580   44.9880 O   0  0  0  0  0  0  0  0  0  0  0  0
   57.6680   27.9020   45.8140 C   0  0  0  0  0  0  0  0  0  0  0  0
   60.7370   32.2560   49.0370 C   0  0  0  0  0  0  0  0  0  0  0  0
   61.4240   32.3460   47.8130 C   0  0  0  0  0  0  0  0  0  0  0  0
   60.9900   33.2250   46.8180 C   0  0  0  0  0  0  0  0  0  0  0  0
   59.8640   34.0370   47.0250 C   0  0  0  0  0  0  0  0  0  0  0  0
   59.3880   34.9370   45.9460 C   0  0  0  0  0  0  0  0  0  0  0  0
   60.0200   35.9980   45.7020 O   0  0  0  0  0  0  0  0  0  0  0  0
   58.2600   34.6090   45.1210 N   0  0  0  0  0  0  0  0  0  0  0  0
   57.9120   33.3010   44.6480 C   0  0  0  0  0  0  0  0  0  0  0  0
   58.1420   32.9070   43.3190 C   0  0  0  0  0  0  0  0  0  0  0  0
   57.8170   31.6120   42.9110 C   0  0  0  0  0  0  0  0  0  0  0  0
   57.2740   30.7190   43.8370 C   0  0  0  0  0  0  0  0  0  0  0  0
   57.0700   31.1120   45.1240 N   0  0  0  0  0  0  0  0  0  0  0  0
   57.3790   32.3680   45.5450 C   0  0  0  0  0  0  0  0  0  0  0  0
   59.1750   33.9480   48.2450 C   0  0  0  0  0  0  0  0  0  0  0  0
   59.6110   33.0720   49.2440 C   0  0  0  0  0  0  0  0  0  0  0  0
   61.5745   28.7035   49.5451 H   0  0  0  0  0  0  0  0  0  0  0  0
   60.2033   28.0990   50.5516 H   0  0  0  0  0  0  0  0  0  0  0  0
   58.7719   28.1211   48.8026 H   0  0  0  0  0  0  0  0  0  0  0  0
   59.3221   29.7452   48.2660 H   0  0  0  0  0  0  0  0  0  0  0  0
   58.4698   24.9700   47.3849 H   0  0  0  0  0  0  0  0  0  0  0  0
   53.8110   25.6100   46.3690 H   0  0  0  0  0  0  0  0  0  0  0  0
   58.1250   28.8479   45.4878 H   0  0  0  0  0  0  0  0  0  0  0  0
   62.3106   31.7189   47.6378 H   0  0  0  0  0  0  0  0  0  0  0  0
   61.5352   33.2813   45.8643 H   0  0  0  0  0  0  0  0  0  0  0  0
   58.5774   33.6178   42.6012 H   0  0  0  0  0  0  0  0  0  0  0  0
   57.9870   31.2983   41.8705 H   0  0  0  0  0  0  0  0  0  0  0  0
   57.0109   29.6972   43.5261 H   0  0  0  0  0  0  0  0  0  0  0  0
   57.2094   32.6515   46.5942 H   0  0  0  0  0  0  0  0  0  0  0  0
   58.2855   34.5720   48.4163 H   0  0  0  0  0  0  0  0  0  0  0  0
   59.0686   33.0209   50.1996 H   0  0  0  0  0  0  0  0  0  0  0  0
  1  2  2  0
  2  3  1  0
  3  4  1  0
  4  5  1  0
  5  6  1  0
  6  7  1  0
  7  8  2  0
  7  9  1  0
  9 10  2  0
 10 11  1  0
 11 12  1  0
 11 13  2  0
 13 14  1  0
 13 15  1  0
 15 16  1  0
 15 17  2  0
  2 18  1  0
 18 19  2  0
 19 20  1  0
 20 21  2  0
 21 22  1  0
 22 23  2  0
 22 24  1  0
 24 25  1  0
 25 26  2  0
 26 27  1  0
 27 28  2  0
 28 29  1  0
 29 30  2  0
 21 31  1  0
 31 32  2  0
 17  9  1  0
 32 18  1  0
 30 25  1  0
  4 33  1  0
  4 34  1  0
  5 35  1  0
  5 36  1  0
 10 37  1  0
 14 38  1  0
 17 39  1  0
 19 40  1  0
 20 41  1  0
 26 42  1  0
 27 43  1  0
 28 44  1  0
 30 45  1  0
 31 46  1  0
 32 47  1  0
M  CHG  5   3  -1   6  -1  12  -1  16  -1  24  -1
M  END
>  <UniqueID>  (91) 
83

>  <SMILES>  (91) 
O=C([N-]CC[N-]C(=O)c1cc([O-])c(O)c([O-])c1)c1ccc(C(=O)[N-]c2cccnc2)cc1

>  <Energy>  (91) 
58.99720899354865

>  <Genealogy>  (91) 
O=C([N-]CC[N-]C(=O)c1cc([O-])c(O)c([O-])c1)c1ccc(C(=O)[N-]c2cccnc2)cc1 (protonated)
O=C([N-]CC[N-]C(=O)c1cc([O-])c(O)c([O-])c1)c1ccc(C(=O)[N-]c2cccnc2)cc1 (3D coordinates assigned)
O=C([N-]CC[N-]C(=O)c1cc([O-])c(O)c([O-])c1)c1ccc(C(=O)[N-]c2cccnc2)cc1 (optimized conformer: 58.99720899354865 kcal/mol)

>  <smiles>  (91) 
O=C(NCCNC(=O)c1cc(O)c(O)c(O)c1)c1ccc(C(=O)Nc2cccnc2)cc1

>  <score_type>  (91) 
oracle

>  <origin>  (91) 
adg

>  <m_score__min__energy>  (91) 
-18.43

>  <m_primary>  (91) 
energy

$$$$
91:0
     RDKit          3D

 54 56  0  0  0  0  0  0  0  0999 V2000
   54.7110   24.4740   45.4940 C   0  0  0  0  0  0  0  0  0  0  0  0
   55.1510   25.7620   46.0120 O   0  0  0  0  0  0  0  0  0  0  0  0
   56.4930   26.2410   45.9570 C   0  0  0  0  0  0  0  0  0  0  0  0
   57.6510   25.4560   45.9930 C   0  0  0  0  0  0  0  0  0  0  0  0
   58.8600   26.0690   45.5740 C   0  0  0  0  0  0  0  0  0  0  0  0
   58.9110   27.5010   45.2730 C   0  0  0  0  0  0  0  0  0  0  0  0
   60.1160   28.0520   44.7300 O   0  0  0  0  0  0  0  0  0  0  0  0
   60.7450   29.2150   45.2460 C   0  0  0  0  0  0  0  0  0  0  0  0
   57.9420   28.2810   45.5160 C   0  0  0  0  0  0  0  0  0  0  0  0
   57.2670   29.7510   45.3180 C   0  0  0  0  0  0  0  0  0  0  0  0
   56.1010   29.7360   44.8440 O   0  0  0  0  0  0  0  0  0  0  0  0
   57.9910   31.0210   45.3620 N   0  0  0  0  0  0  0  0  0  0  0  0
   57.9210   31.9520   44.2270 C   0  0  0  0  0  0  0  0  0  0  0  0
   57.7470   33.4520   44.6220 C   0  0  0  0  0  0  0  0  0  0  0  0
   59.0920   34.2380   44.4960 C   0  0  0  0  0  0  0  0  0  0  0  0
   60.0950   33.8590   45.6180 C   0  0  0  0  0  0  0  0  0  0  0  0
   59.4070   33.1960   46.7320 N   0  0  0  0  0  0  0  0  0  0  0  0
   60.2810   32.6680   47.7990 C   0  0  0  0  0  0  0  0  0  0  0  0
   60.0740   31.2120   48.1190 C   0  0  0  0  0  0  0  0  0  0  0  0
   61.1290   30.3740   48.4850 C   0  0  0  0  0  0  0  0  0  0  0  0
   60.8870   29.0180   48.7610 C   0  0  0  0  0  0  0  0  0  0  0  0
   59.5770   28.5180   48.7280 C   0  0  0  0  0  0  0  0  0  0  0  0
   58.5200   29.3840   48.3860 C   0  0  0  0  0  0  0  0  0  0  0  0
   58.8030   30.6990   48.0640 N   0  0  0  0  0  0  0  0  0  0  0  0
   58.1480   33.9110   47.1170 C   0  0  0  0  0  0  0  0  0  0  0  0
   57.1060   33.6820   46.0120 C   0  0  0  0  0  0  0  0  0  0  0  0
   56.6580   27.6130   45.8040 C   0  0  0  0  0  0  0  0  0  0  0  0
   54.4810   23.8006   46.3328 H   0  0  0  0  0  0  0  0  0  0  0  0
   53.8099   24.6146   44.8789 H   0  0  0  0  0  0  0  0  0  0  0  0
   55.5098   24.0339   44.8789 H   0  0  0  0  0  0  0  0  0  0  0  0
   57.6250   24.4096   46.3313 H   0  0  0  0  0  0  0  0  0  0  0  0
   59.7709   25.4605   45.4740 H   0  0  0  0  0  0  0  0  0  0  0  0
   60.7281   29.1838   46.3454 H   0  0  0  0  0  0  0  0  0  0  0  0
   61.7872   29.2540   44.8962 H   0  0  0  0  0  0  0  0  0  0  0  0
   60.2072   30.1085   44.8962 H   0  0  0  0  0  0  0  0  0  0  0  0
   58.8720   31.1290   45.9410 H   0  0  0  0  0  0  0  0  0  0  0  0
   58.8512   31.8562   43.6477 H   0  0  0  0  0  0  0  0  0  0  0  0
   57.0233   31.6759   43.6544 H   0  0  0  0  0  0  0  0  0  0  0  0
   57.0265   33.8517   43.8932 H   0  0  0  0  0  0  0  0  0  0  0  0
   59.5469   34.0091   43.5210 H   0  0  0  0  0  0  0  0  0  0  0  0
   58.8681   35.3110   44.5890 H   0  0  0  0  0  0  0  0  0  0  0  0
   60.8548   33.1779   45.2071 H   0  0  0  0  0  0  0  0  0  0  0  0
   60.5671   34.7789   45.9934 H   0  0  0  0  0  0  0  0  0  0  0  0
   61.3262   32.8044   47.4845 H   0  0  0  0  0  0  0  0  0  0  0  0
   60.0274   33.2258   48.7125 H   0  0  0  0  0  0  0  0  0  0  0  0
   62.1504   30.7758   48.5573 H   0  0  0  0  0  0  0  0  0  0  0  0
   61.7252   28.3481   49.0031 H   0  0  0  0  0  0  0  0  0  0  0  0
   59.3775   27.4628   48.9662 H   0  0  0  0  0  0  0  0  0  0  0  0
   57.4824   29.0190   48.3752 H   0  0  0  0  0  0  0  0  0  0  0  0
   57.7716   33.5138   48.0712 H   0  0  0  0  0  0  0  0  0  0  0  0
   58.3443   34.9868   47.2357 H   0  0  0  0  0  0  0  0  0  0  0  0
   56.5055   32.7980   46.2728 H   0  0  0  0  0  0  0  0  0  0  0  0
   56.4882   34.5897   45.9459 H   0  0  0  0  0  0  0  0  0  0  0  0
   55.7653   28.2477   45.9051 H   0  0  0  0  0  0  0  0  0  0  0  0
  1  2  1  0
  2  3  1  0
  3  4  2  0
  4  5  1  0
  5  6  2  0
  6  7  1  0
  7  8  1  0
  6  9  1  0
  9 10  1  0
 10 11  2  0
 10 12  1  0
 12 13  1  0
 13 14  1  0
 14 15  1  0
 15 16  1  0
 16 17  1  0
 17 18  1  0
 18 19  1  0
 19 20  2  0
 20 21  1  0
 21 22  2  0
 22 23  1  0
 23 24  2  0
 17 25  1  0
 25 26  1  0
  9 27  2  0
 27  3  1  0
 26 14  1  0
 24 19  1  0
  1 28  1  0
  1 29  1  0
  1 30  1  0
  4 31  1  0
  5 32  1  0
  8 33  1  0
  8 34  1  0
  8 35  1  0
 12 36  1  0
 13 37  1  0
 13 38  1  0
 14 39  1  0
 15 40  1  0
 15 41  1  0
 16 42  1  0
 16 43  1  0
 18 44  1  0
 18 45  1  0
 20 46  1  0
 21 47  1  0
 22 48  1  0
 23 49  1  0
 25 50  1  0
 25 51  1  0
 26 52  1  0
 26 53  1  0
 27 54  1  0
M  END
>  <UniqueID>  (92) 
84

>  <SMILES>  (92) 
COc1ccc(OC)c(C(=O)NCC2CCN(Cc3ccccn3)CC2)c1

>  <Energy>  (92) 
177.9825663732207

>  <Genealogy>  (92) 
COc1ccc(OC)c(C(=O)NCC2CCN(Cc3ccccn3)CC2)c1 (3D coordinates assigned)
COc1ccc(OC)c(C(=O)NCC2CCN(Cc3ccccn3)CC2)c1 (nonaromatic ring conformer: 177.9825663732207 kcal/mol)

>  <smiles>  (92) 
COc1ccc(OC)c(C(=O)NCC2CCN(Cc3ccccn3)CC2)c1

>  <score_type>  (92) 
oracle

>  <origin>  (92) 
adg

>  <m_score__min__energy>  (92) 
-8.4299999999999997

>  <m_primary>  (92) 
energy

$$$$
92:0
     RDKit          3D

 25 26  0  0  0  0  0  0  0  0999 V2000
   57.1709   27.3443   47.1686 H   0  0  0  0  0  0  0  0  0  0  0  0
   57.1240   27.0600   46.1070 C   0  0  0  0  0  0  0  0  0  0  0  0
   57.9520   27.6910   45.2570 C   0  0  0  0  0  0  0  0  0  0  0  0
   58.8592   27.1572   44.9377 H   0  0  0  0  0  0  0  0  0  0  0  0
   57.7300   29.0610   44.7160 C   0  0  0  0  0  0  0  0  0  0  0  0
   56.9220   29.3340   43.5900 C   0  0  0  0  0  0  0  0  0  0  0  0
   56.4184   28.5083   43.0660 H   0  0  0  0  0  0  0  0  0  0  0  0
   56.7580   30.6460   43.1370 C   0  0  0  0  0  0  0  0  0  0  0  0
   56.1267   30.8469   42.2589 H   0  0  0  0  0  0  0  0  0  0  0  0
   57.3910   31.7020   43.7930 C   0  0  0  0  0  0  0  0  0  0  0  0
   57.2579   32.7329   43.4331 H   0  0  0  0  0  0  0  0  0  0  0  0
   58.1930   31.4490   44.9060 C   0  0  0  0  0  0  0  0  0  0  0  0
   58.6931   32.2811   45.4232 H   0  0  0  0  0  0  0  0  0  0  0  0
   58.3620   30.1390   45.3650 C   0  0  0  0  0  0  0  0  0  0  0  0
   58.9961   29.9484   46.2434 H   0  0  0  0  0  0  0  0  0  0  0  0
   56.1510   26.0080   45.7200 C   0  0  0  0  0  0  0  0  0  0  0  0
   54.8310   26.2580   45.9380 N   0  0  0  0  0  0  0  0  0  0  0  0
   53.8770   25.3790   45.6260 N   0  0  0  0  0  0  0  0  0  0  0  0
   52.8800   25.6260   45.8180 H   0  0  0  0  0  0  0  0  0  0  0  0
   54.1800   24.1770   45.0680 C   0  0  0  0  0  0  0  0  0  0  0  0
   53.2600   23.3640   44.7820 O   0  0  0  0  0  0  0  0  0  0  0  0
   55.5160   23.8560   44.8160 C   0  0  0  0  0  0  0  0  0  0  0  0
   55.8240   22.7490   44.2990 O   0  0  0  0  0  0  0  0  0  0  0  0
   56.5110   24.7760   45.1430 C   0  0  0  0  0  0  0  0  0  0  0  0
   57.5684   24.5410   44.9517 H   0  0  0  0  0  0  0  0  0  0  0  0
  1  2  1  0
  2  3  2  0
  3  4  1  0
  3  5  1  0
  5  6  2  0
  6  7  1  0
  6  8  1  0
  8  9  1  0
  8 10  2  0
 10 11  1  0
 10 12  1  0
 12 13  1  0
 12 14  2  0
 14 15  1  0
  2 16  1  0
 16 17  1  0
 17 18  1  0
 18 19  1  0
 18 20  1  0
 20 21  2  0
 20 22  1  0
 22 23  2  0
 22 24  1  0
 24 25  1  0
 14  5  1  0
 24 16  2  0
M  CHG  1  17  -1
M  END
>  <UniqueID>  (93) 
85

>  <SMILES>  (93) 
O=c1cc(/C=C/c2ccccc2)[n-][nH]c1=O

>  <Energy>  (93) 
32.260459002562186

>  <Genealogy>  (93) 
O=c1cc(C=Cc2ccccc2)[n-][nH]c1=O (protonated)
O=c1cc(/C=C/c2ccccc2)[n-][nH]c1=O (cis-trans isomerization)
O=c1cc(/C=C/c2ccccc2)[n-][nH]c1=O (3D coordinates assigned)
O=c1cc(/C=C/c2ccccc2)[n-][nH]c1=O (optimized conformer: 32.260459002562186 kcal/mol)

>  <smiles>  (93) 
O=c1cc(C=Cc2ccccc2)[nH][nH]c1=O

>  <score_type>  (93) 
oracle

>  <origin>  (93) 
adg

>  <m_score__min__energy>  (93) 
-8.7899999999999991

>  <m_primary>  (93) 
energy

$$$$
93:0
     RDKit          3D

 36 37  0  0  0  0  0  0  0  0999 V2000
   61.2140   30.5290   47.2190 C   0  0  0  0  0  0  0  0  0  0  0  0
   60.6210   31.8430   46.7840 C   0  0  0  0  0  0  0  0  0  0  0  0
   59.2870   31.8670   46.3420 C   0  0  0  0  0  0  0  0  0  0  0  0
   58.6790   33.0640   45.9350 C   0  0  0  0  0  0  0  0  0  0  0  0
   57.2910   33.0570   45.4240 C   0  0  0  0  0  0  0  0  0  0  0  0
   56.6660   34.1420   45.2630 O   0  0  0  0  0  0  0  0  0  0  0  0
   56.6840   31.8420   45.0900 O   0  0  0  0  0  0  0  0  0  0  0  0
   56.7410   31.2630   43.7880 C   0  0  0  0  0  0  0  0  0  0  0  0
   56.4770   29.7810   43.8350 C   0  0  0  0  0  0  0  0  0  0  0  0
   56.4920   29.1300   42.7580 O   0  0  0  0  0  0  0  0  0  0  0  0
   56.2430   29.0740   45.0630 N   0  0  0  0  0  0  0  0  0  0  0  0
   57.0770   28.0580   45.6360 C   0  0  0  0  0  0  0  0  0  0  0  0
   58.4610   28.2430   45.7840 C   0  0  0  0  0  0  0  0  0  0  0  0
   59.2510   27.2340   46.3430 C   0  0  0  0  0  0  0  0  0  0  0  0
   58.6630   26.0400   46.7690 C   0  0  0  0  0  0  0  0  0  0  0  0
   57.2820   25.8600   46.6500 C   0  0  0  0  0  0  0  0  0  0  0  0
   56.4890   26.8690   46.0940 C   0  0  0  0  0  0  0  0  0  0  0  0
   55.1510   26.6790   45.9740 F   0  0  0  0  0  0  0  0  0  0  0  0
   59.4180   34.2540   45.9880 C   0  0  0  0  0  0  0  0  0  0  0  0
   60.7440   34.2450   46.4220 C   0  0  0  0  0  0  0  0  0  0  0  0
   61.3710   33.0480   46.8020 C   0  0  0  0  0  0  0  0  0  0  0  0
   62.7520   33.0830   47.2060 N   0  0  0  0  0  0  0  0  0  0  0  0
   63.1090   32.6220   48.3100 O   0  0  0  0  0  0  0  0  0  0  0  0
   63.7220   33.4640   46.3070 O   0  0  0  0  0  0  0  0  0  0  0  0
   61.2352   30.4821   48.3178 H   0  0  0  0  0  0  0  0  0  0  0  0
   60.6014   29.7031   46.8285 H   0  0  0  0  0  0  0  0  0  0  0  0
   62.2387   30.4419   46.8285 H   0  0  0  0  0  0  0  0  0  0  0  0
   58.7097   30.9310   46.3147 H   0  0  0  0  0  0  0  0  0  0  0  0
   55.9837   31.7416   43.1497 H   0  0  0  0  0  0  0  0  0  0  0  0
   57.7506   31.4226   43.3814 H   0  0  0  0  0  0  0  0  0  0  0  0
   58.9255   29.1856   45.4588 H   0  0  0  0  0  0  0  0  0  0  0  0
   60.3362   27.3801   46.4476 H   0  0  0  0  0  0  0  0  0  0  0  0
   59.2868   25.2420   47.1979 H   0  0  0  0  0  0  0  0  0  0  0  0
   56.8184   24.9237   46.9940 H   0  0  0  0  0  0  0  0  0  0  0  0
   58.9491   35.2018   45.6852 H   0  0  0  0  0  0  0  0  0  0  0  0
   61.3061   35.1895   46.4670 H   0  0  0  0  0  0  0  0  0  0  0  0
  1  2  1  0
  2  3  2  0
  3  4  1  0
  4  5  1  0
  5  6  2  0
  5  7  1  0
  7  8  1  0
  8  9  1  0
  9 10  2  0
  9 11  1  0
 11 12  1  0
 12 13  2  0
 13 14  1  0
 14 15  2  0
 15 16  1  0
 16 17  2  0
 17 18  1  0
  4 19  2  0
 19 20  1  0
 20 21  2  0
 21 22  1  0
 22 23  2  0
 22 24  1  0
 21  2  1  0
 17 12  1  0
  1 25  1  0
  1 26  1  0
  1 27  1  0
  3 28  1  0
  8 29  1  0
  8 30  1  0
 13 31  1  0
 14 32  1  0
 15 33  1  0
 16 34  1  0
 19 35  1  0
 20 36  1  0
M  CHG  3  11  -1  22   1  24  -1
M  END
>  <UniqueID>  (94) 
86

>  <SMILES>  (94) 
Cc1cc(C(=O)OCC(=O)[N-]c2ccccc2F)ccc1[N+](=O)[O-]

>  <Energy>  (94) 
41.67547226204134

>  <Genealogy>  (94) 
Cc1cc(C(=O)OCC(=O)[N-]c2ccccc2F)ccc1[N+](=O)[O-] (protonated)
Cc1cc(C(=O)OCC(=O)[N-]c2ccccc2F)ccc1[N+](=O)[O-] (3D coordinates assigned)
Cc1cc(C(=O)OCC(=O)[N-]c2ccccc2F)ccc1[N+](=O)[O-] (optimized conformer: 41.67547226204134 kcal/mol)

>  <smiles>  (94) 
Cc1cc(C(=O)OCC(=O)Nc2ccccc2F)ccc1[N+](=O)[O-]

>  <score_type>  (94) 
oracle

>  <origin>  (94) 
adg

>  <m_score__min__energy>  (94) 
-9.8499999999999996

>  <m_primary>  (94) 
energy

$$$$
94:0
     RDKit          3D

 49 52  0  0  0  0  0  0  0  0999 V2000
   64.3320   33.0470   48.8810 C   0  0  0  0  0  0  0  0  0  0  0  0
   63.0240   32.6680   48.2640 C   0  0  0  0  0  0  0  0  0  0  0  0
   62.6710   31.4580   48.2520 O   0  0  0  0  0  0  0  0  0  0  0  0
   62.2090   33.6780   47.6490 N   0  0  0  0  0  0  0  0  0  0  0  0
   60.8760   33.4510   47.1590 C   0  0  0  0  0  0  0  0  0  0  0  0
   59.8810   34.4590   47.2330 C   0  0  0  0  0  0  0  0  0  0  0  0
   58.5900   34.2320   46.7290 C   0  0  0  0  0  0  0  0  0  0  0  0
   58.3110   33.0000   46.1420 C   0  0  0  0  0  0  0  0  0  0  0  0
   59.2820   32.0130   46.0510 C   0  0  0  0  0  0  0  0  0  0  0  0
   60.5730   32.2190   46.5440 C   0  0  0  0  0  0  0  0  0  0  0  0
   58.7750   30.9480   45.4420 C   0  0  0  0  0  0  0  0  0  0  0  0
   59.4760   29.6900   45.0160 C   0  0  0  0  0  0  0  0  0  0  0  0
   58.6460   28.4860   45.3670 C   0  0  0  0  0  0  0  0  0  0  0  0
   58.2610   27.5710   44.3740 C   0  0  0  0  0  0  0  0  0  0  0  0
   57.4530   26.4770   44.6950 C   0  0  0  0  0  0  0  0  0  0  0  0
   57.0110   26.2840   46.0180 C   0  0  0  0  0  0  0  0  0  0  0  0
   56.1910   25.2080   46.3940 O   0  0  0  0  0  0  0  0  0  0  0  0
   55.3550   24.4610   45.5090 C   0  0  0  0  0  0  0  0  0  0  0  0
   56.1550   23.4210   44.7690 C   0  0  0  0  0  0  0  0  0  0  0  0
   55.8160   23.0620   43.4530 C   0  0  0  0  0  0  0  0  0  0  0  0
   56.5710   22.1030   42.7680 C   0  0  0  0  0  0  0  0  0  0  0  0
   57.6710   21.5030   43.3880 C   0  0  0  0  0  0  0  0  0  0  0  0
   58.0210   21.8650   44.6920 C   0  0  0  0  0  0  0  0  0  0  0  0
   57.2690   22.8230   45.3800 C   0  0  0  0  0  0  0  0  0  0  0  0
   57.3990   27.1970   47.0060 C   0  0  0  0  0  0  0  0  0  0  0  0
   58.2050   28.2920   46.6850 C   0  0  0  0  0  0  0  0  0  0  0  0
   57.4110   31.3510   45.1360 C   0  0  0  0  0  0  0  0  0  0  0  0
   56.5510   30.6570   44.5310 O   0  0  0  0  0  0  0  0  0  0  0  0
   57.1740   32.6700   45.6150 N   0  0  0  0  0  0  0  0  0  0  0  0
   64.2417   33.0208   49.9770 H   0  0  0  0  0  0  0  0  0  0  0  0
   65.1083   32.3368   48.5600 H   0  0  0  0  0  0  0  0  0  0  0  0
   64.6084   34.0622   48.5600 H   0  0  0  0  0  0  0  0  0  0  0  0
   62.6480   34.6080   47.4640 H   0  0  0  0  0  0  0  0  0  0  0  0
   60.1233   35.4296   47.6904 H   0  0  0  0  0  0  0  0  0  0  0  0
   57.8157   35.0104   46.7963 H   0  0  0  0  0  0  0  0  0  0  0  0
   61.3388   31.4345   46.4540 H   0  0  0  0  0  0  0  0  0  0  0  0
   59.6373   29.7150   43.9282 H   0  0  0  0  0  0  0  0  0  0  0  0
   60.4417   29.6238   45.5386 H   0  0  0  0  0  0  0  0  0  0  0  0
   58.5975   27.7162   43.3369 H   0  0  0  0  0  0  0  0  0  0  0  0
   57.1609   25.7633   43.9106 H   0  0  0  0  0  0  0  0  0  0  0  0
   54.5668   23.9623   46.0922 H   0  0  0  0  0  0  0  0  0  0  0  0
   54.9104   25.1512   44.7768 H   0  0  0  0  0  0  0  0  0  0  0  0
   54.9546   23.5362   42.9599 H   0  0  0  0  0  0  0  0  0  0  0  0
   56.2985   21.8210   41.7403 H   0  0  0  0  0  0  0  0  0  0  0  0
   58.2609   20.7463   42.8499 H   0  0  0  0  0  0  0  0  0  0  0  0
   58.8892   21.3958   45.1779 H   0  0  0  0  0  0  0  0  0  0  0  0
   57.5514   23.1091   46.4039 H   0  0  0  0  0  0  0  0  0  0  0  0
   57.0662   27.0508   48.0442 H   0  0  0  0  0  0  0  0  0  0  0  0
   58.4955   29.0060   47.4697 H   0  0  0  0  0  0  0  0  0  0  0  0
  1  2  1  0
  2  3  2  0
  2  4  1  0
  4  5  1  0
  5  6  1  0
  6  7  2  0
  7  8  1  0
  8  9  1  0
  9 10  1  0
  9 11  2  0
 11 12  1  0
 12 13  1  0
 13 14  2  0
 14 15  1  0
 15 16  2  0
 16 17  1  0
 17 18  1  0
 18 19  1  0
 19 20  2  0
 20 21  1  0
 21 22  2  0
 22 23  1  0
 23 24  2  0
 16 25  1  0
 25 26  2  0
 11 27  1  0
 27 28  2  0
 27 29  1  0
 10  5  2  0
 26 13  1  0
 29  8  2  0
 24 19  1  0
  1 30  1  0
  1 31  1  0
  1 32  1  0
  4 33  1  0
  6 34  1  0
  7 35  1  0
 10 36  1  0
 12 37  1  0
 12 38  1  0
 14 39  1  0
 15 40  1  0
 18 41  1  0
 18 42  1  0
 20 43  1  0
 21 44  1  0
 22 45  1  0
 23 46  1  0
 24 47  1  0
 25 48  1  0
 26 49  1  0
M  END
>  <UniqueID>  (95) 
87

>  <SMILES>  (95) 
CC(=O)Nc1ccc2c(c1)=C(Cc1ccc(OCc3ccccc3)cc1)C(=O)N=2

>  <Energy>  (95) 
84.82705597075196

>  <Genealogy>  (95) 
CC(=O)Nc1ccc2c(c1)=C(Cc1ccc(OCc3ccccc3)cc1)C(=O)N=2 (3D coordinates assigned)
CC(=O)Nc1ccc2c(c1)=C(Cc1ccc(OCc3ccccc3)cc1)C(=O)N=2 (nonaromatic ring conformer: 84.82705597075196 kcal/mol)

>  <smiles>  (95) 
CC(=O)Nc1ccc2c(c1)=C(Cc1ccc(OCc3ccccc3)cc1)C(=O)N=2

>  <score_type>  (95) 
oracle

>  <origin>  (95) 
adg

>  <m_score__min__energy>  (95) 
-9.1500000000000004

>  <m_primary>  (95) 
energy

$$$$
95:0
     RDKit          3D

 42 44  0  0  0  0  0  0  0  0999 V2000
   58.0173   33.5577   44.9701 H   0  0  0  0  0  0  0  0  0  0  0  0
   57.7590   32.5920   44.5110 C   0  0  0  0  0  0  0  0  0  0  0  0
   57.4610   31.5250   45.2980 N   0  0  0  0  0  0  0  0  0  0  0  0
   57.1410   30.3060   44.7810 C   0  0  0  0  0  0  0  0  0  0  0  0
   56.8590   29.3390   45.6070 N   0  0  0  0  0  0  0  0  0  0  0  0
   57.7740   28.4250   46.2290 C   0  0  0  0  0  0  0  0  0  0  0  0
   57.5190   27.1920   46.1850 O   0  0  0  0  0  0  0  0  0  0  0  0
   58.8820   28.9380   47.1240 C   0  0  0  0  0  0  0  0  0  0  0  0
   58.6872   28.5939   48.1505 H   0  0  0  0  0  0  0  0  0  0  0  0
   59.8281   28.5451   46.7234 H   0  0  0  0  0  0  0  0  0  0  0  0
   58.9970   30.4190   47.1390 N   0  0  0  0  0  0  0  0  0  0  0  0
   58.1890   30.8040   46.5920 H   0  0  0  0  0  0  0  0  0  0  0  0
   60.2340   30.8420   46.4110 C   0  0  0  0  0  0  0  0  0  0  0  0
   60.9343   29.9940   46.3899 H   0  0  0  0  0  0  0  0  0  0  0  0
   59.9285   31.1514   45.4006 H   0  0  0  0  0  0  0  0  0  0  0  0
   60.9370   32.0370   47.0590 C   0  0  0  0  0  0  0  0  0  0  0  0
   61.8668   32.2594   46.5150 H   0  0  0  0  0  0  0  0  0  0  0  0
   60.2835   32.9211   47.0245 H   0  0  0  0  0  0  0  0  0  0  0  0
   61.2480   31.6990   48.4500 N   0  0  0  0  0  0  0  0  0  0  0  0
   62.5680   31.9020   48.9840 C   0  0  0  0  0  0  0  0  0  0  0  0
   63.0080   31.1610   50.0950 C   0  0  0  0  0  0  0  0  0  0  0  0
   62.3429   30.4142   50.5532 H   0  0  0  0  0  0  0  0  0  0  0  0
   64.2870   31.3690   50.6200 C   0  0  0  0  0  0  0  0  0  0  0  0
   64.6261   30.7845   51.4880 H   0  0  0  0  0  0  0  0  0  0  0  0
   65.1350   32.3180   50.0440 C   0  0  0  0  0  0  0  0  0  0  0  0
   66.1414   32.4797   50.4575 H   0  0  0  0  0  0  0  0  0  0  0  0
   64.7040   33.0620   48.9420 C   0  0  0  0  0  0  0  0  0  0  0  0
   65.3720   33.8094   48.4891 H   0  0  0  0  0  0  0  0  0  0  0  0
   63.4250   32.8580   48.4140 C   0  0  0  0  0  0  0  0  0  0  0  0
   63.0889   33.4485   47.5490 H   0  0  0  0  0  0  0  0  0  0  0  0
   60.2280   31.0240   49.2600 C   0  0  0  0  0  0  0  0  0  0  0  0
   60.5592   29.9970   49.4736 H   0  0  0  0  0  0  0  0  0  0  0  0
   60.0931   31.5864   50.1957 H   0  0  0  0  0  0  0  0  0  0  0  0
   58.8830   30.9750   48.5180 C   0  0  0  0  0  0  0  0  0  0  0  0
   58.1883   30.3454   49.0933 H   0  0  0  0  0  0  0  0  0  0  0  0
   58.5205   32.0095   48.4262 H   0  0  0  0  0  0  0  0  0  0  0  0
   57.0900   30.1510   43.3810 C   0  0  0  0  0  0  0  0  0  0  0  0
   56.8105   29.1827   42.9403 H   0  0  0  0  0  0  0  0  0  0  0  0
   57.3970   31.2360   42.5580 C   0  0  0  0  0  0  0  0  0  0  0  0
   57.3699   31.1215   41.4643 H   0  0  0  0  0  0  0  0  0  0  0  0
   57.7380   32.4650   43.1220 C   0  0  0  0  0  0  0  0  0  0  0  0
   57.9871   33.3229   42.4801 H   0  0  0  0  0  0  0  0  0  0  0  0
  1  2  1  0
  2  3  1  0
  3  4  1  0
  4  5  2  0
  5  6  1  0
  6  7  2  0
  6  8  1  0
  8  9  1  0
  8 10  1  0
  8 11  1  0
 11 12  1  0
 11 13  1  0
 13 14  1  0
 13 15  1  0
 13 16  1  0
 16 17  1  0
 16 18  1  0
 16 19  1  0
 19 20  1  0
 20 21  2  0
 21 22  1  0
 21 23  1  0
 23 24  1  0
 23 25  2  0
 25 26  1  0
 25 27  1  0
 27 28  1  0
 27 29  2  0
 29 30  1  0
 19 31  1  0
 31 32  1  0
 31 33  1  0
 31 34  1  0
 34 35  1  0
 34 36  1  0
  4 37  1  0
 37 38  1  0
 37 39  2  0
 39 40  1  0
 39 41  1  0
 41 42  1  0
 41  2  2  0
 34 11  1  0
 29 20  1  0
M  CHG  2   3  -1  11   1
M  END
>  <UniqueID>  (96) 
88

>  <SMILES>  (96) 
O=C(C[NH+]1CCN(c2ccccc2)CC1)/N=c1\cccc[n-]1

>  <Energy>  (96) 
68.45073691861252

>  <Genealogy>  (96) 
O=C(C[NH+]1CCN(c2ccccc2)CC1)N=c1cccc[n-]1 (protonated)
O=C(C[NH+]1CCN(c2ccccc2)CC1)/N=c1\cccc[n-]1 (cis-trans isomerization)
O=C(C[NH+]1CCN(c2ccccc2)CC1)/N=c1\cccc[n-]1 (3D coordinates assigned)
O=C(C[NH+]1CCN(c2ccccc2)CC1)/N=c1\cccc[n-]1 (nonaromatic ring conformer: 68.45073691861252 kcal/mol)

>  <smiles>  (96) 
O=C(CN1CCN(c2ccccc2)CC1)N=c1cccc[nH]1

>  <score_type>  (96) 
oracle

>  <origin>  (96) 
adg

>  <m_score__min__energy>  (96) 
-7.71

>  <m_primary>  (96) 
energy

$$$$
96:0
     RDKit          3D

 56 59  0  0  0  0  0  0  0  0999 V2000
   55.9920   31.0040   44.8370 O   0  0  0  0  0  0  0  0  0  0  0  0
   56.8670   30.5490   44.0510 C   0  0  0  0  0  0  0  0  0  0  0  0
   56.4360   29.7200   42.8840 C   0  0  0  0  0  0  0  0  0  0  0  0
   57.0250   28.4260   42.9850 O   0  0  0  0  0  0  0  0  0  0  0  0
   57.7570   27.9730   44.0940 C   0  0  0  0  0  0  0  0  0  0  0  0
   59.1650   27.9960   44.1340 C   0  0  0  0  0  0  0  0  0  0  0  0
   59.8450   27.5380   45.2670 C   0  0  0  0  0  0  0  0  0  0  0  0
   59.1300   27.0550   46.3670 C   0  0  0  0  0  0  0  0  0  0  0  0
   59.9860   26.4820   47.7870 Cl  0  0  0  0  0  0  0  0  0  0  0  0
   57.7330   27.0280   46.3330 C   0  0  0  0  0  0  0  0  0  0  0  0
   57.0510   27.4850   45.2020 C   0  0  0  0  0  0  0  0  0  0  0  0
   58.2520   30.8850   44.2250 N   0  0  0  0  0  0  0  0  0  0  0  0
   58.7870   31.5070   45.4060 C   0  0  0  0  0  0  0  0  0  0  0  0
   58.5540   32.8710   45.6320 C   0  0  0  0  0  0  0  0  0  0  0  0
   59.0780   33.5000   46.7650 C   0  0  0  0  0  0  0  0  0  0  0  0
   59.8510   32.7770   47.6830 C   0  0  0  0  0  0  0  0  0  0  0  0
   60.3680   33.4390   48.8430 N   0  0  0  0  0  0  0  0  0  0  0  0
   59.9550   32.9870   50.1780 C   0  0  0  0  0  0  0  0  0  0  0  0
   60.6050   33.8380   51.2720 C   0  0  0  0  0  0  0  0  0  0  0  0
   62.0470   33.9730   51.0040 N   0  0  0  0  0  0  0  0  0  0  0  0
   63.0190   33.5980   52.0100 C   0  0  0  0  0  0  0  0  0  0  0  0
   62.6510   33.0090   53.0650 O   0  0  0  0  0  0  0  0  0  0  0  0
   64.4590   33.8630   51.8290 C   0  0  0  0  0  0  0  0  0  0  0  0
   65.0710   34.9550   52.4690 C   0  0  0  0  0  0  0  0  0  0  0  0
   66.4380   35.1950   52.2950 C   0  0  0  0  0  0  0  0  0  0  0  0
   67.1990   34.3500   51.4830 C   0  0  0  0  0  0  0  0  0  0  0  0
   66.5990   33.2500   50.8590 C   0  0  0  0  0  0  0  0  0  0  0  0
   65.2340   33.0020   51.0370 C   0  0  0  0  0  0  0  0  0  0  0  0
   62.4940   34.3740   49.6570 C   0  0  0  0  0  0  0  0  0  0  0  0
   61.3190   34.5450   48.6850 C   0  0  0  0  0  0  0  0  0  0  0  0
   60.1000   31.4110   47.4580 C   0  0  0  0  0  0  0  0  0  0  0  0
   61.1200   30.3680   48.7000 Br  0  0  0  0  0  0  0  0  0  0  0  0
   59.5820   30.7860   46.3180 C   0  0  0  0  0  0  0  0  0  0  0  0
   55.3400   29.6263   42.8841 H   0  0  0  0  0  0  0  0  0  0  0  0
   56.7596   30.2013   41.9493 H   0  0  0  0  0  0  0  0  0  0  0  0
   59.7316   28.3756   43.2709 H   0  0  0  0  0  0  0  0  0  0  0  0
   60.9445   27.5578   45.2927 H   0  0  0  0  0  0  0  0  0  0  0  0
   57.1697   26.6466   47.1974 H   0  0  0  0  0  0  0  0  0  0  0  0
   55.9514   27.4615   45.1813 H   0  0  0  0  0  0  0  0  0  0  0  0
   58.8970   30.7360   43.4140 H   0  0  0  0  0  0  0  0  0  0  0  0
   57.9552   33.4497   44.9133 H   0  0  0  0  0  0  0  0  0  0  0  0
   58.8823   34.5687   46.9368 H   0  0  0  0  0  0  0  0  0  0  0  0
   58.8612   33.0673   50.2623 H   0  0  0  0  0  0  0  0  0  0  0  0
   60.2766   31.9433   50.3091 H   0  0  0  0  0  0  0  0  0  0  0  0
   60.1404   34.8350   51.2844 H   0  0  0  0  0  0  0  0  0  0  0  0
   60.4595   33.3509   52.2475 H   0  0  0  0  0  0  0  0  0  0  0  0
   64.4736   35.6220   53.1079 H   0  0  0  0  0  0  0  0  0  0  0  0
   66.9143   36.0496   52.7978 H   0  0  0  0  0  0  0  0  0  0  0  0
   68.2705   34.5494   51.3340 H   0  0  0  0  0  0  0  0  0  0  0  0
   67.2015   32.5800   50.2281 H   0  0  0  0  0  0  0  0  0  0  0  0
   64.7671   32.1303   50.5552 H   0  0  0  0  0  0  0  0  0  0  0  0
   63.0337   35.3295   49.7324 H   0  0  0  0  0  0  0  0  0  0  0  0
   63.1441   33.5778   49.2652 H   0  0  0  0  0  0  0  0  0  0  0  0
   60.8085   35.4964   48.8953 H   0  0  0  0  0  0  0  0  0  0  0  0
   61.7022   34.5454   47.6539 H   0  0  0  0  0  0  0  0  0  0  0  0
   59.7974   29.7233   46.1328 H   0  0  0  0  0  0  0  0  0  0  0  0
  1  2  2  0
  2  3  1  0
  3  4  1  0
  4  5  1  0
  5  6  2  0
  6  7  1  0
  7  8  2  0
  8  9  1  0
  8 10  1  0
 10 11  2  0
  2 12  1  0
 12 13  1  0
 13 14  2  0
 14 15  1  0
 15 16  2  0
 16 17  1  0
 17 18  1  0
 18 19  1  0
 19 20  1  0
 20 21  1  0
 21 22  2  0
 21 23  1  0
 23 24  2  0
 24 25  1  0
 25 26  2  0
 26 27  1  0
 27 28  2  0
 20 29  1  0
 29 30  1  0
 16 31  1  0
 31 32  1  0
 31 33  2  0
 11  5  1  0
 33 13  1  0
 30 17  1  0
 28 23  1  0
  3 34  1  0
  3 35  1  0
  6 36  1  0
  7 37  1  0
 10 38  1  0
 11 39  1  0
 12 40  1  0
 14 41  1  0
 15 42  1  0
 18 43  1  0
 18 44  1  0
 19 45  1  0
 19 46  1  0
 24 47  1  0
 25 48  1  0
 26 49  1  0
 27 50  1  0
 28 51  1  0
 29 52  1  0
 29 53  1  0
 30 54  1  0
 30 55  1  0
 33 56  1  0
M  END
>  <UniqueID>  (97) 
89

>  <SMILES>  (97) 
O=C(COc1ccc(Cl)cc1)Nc1ccc(N2CCN(C(=O)c3ccccc3)CC2)c(Br)c1

>  <Energy>  (97) 
74.15477304867123

>  <Genealogy>  (97) 
O=C(COc1ccc(Cl)cc1)Nc1ccc(N2CCN(C(=O)c3ccccc3)CC2)c(Br)c1 (3D coordinates assigned)
O=C(COc1ccc(Cl)cc1)Nc1ccc(N2CCN(C(=O)c3ccccc3)CC2)c(Br)c1 (nonaromatic ring conformer: 74.15477304867123 kcal/mol)

>  <smiles>  (97) 
O=C(COc1ccc(Cl)cc1)Nc1ccc(N2CCN(C(=O)c3ccccc3)CC2)c(Br)c1

>  <score_type>  (97) 
oracle

>  <origin>  (97) 
adg

>  <m_score__min__energy>  (97) 
-8.75

>  <m_primary>  (97) 
energy

$$$$
