0:0
     RDKit          3D

 35 37  0  0  0  0  0  0  0  0999 V2000
   56.2810   25.2180   47.0190 O   0  0  0  0  0  0  0  0  0  0  0  0
   55.9260   26.2240   46.3500 C   0  0  0  0  0  0  0  0  0  0  0  0
   54.6040   26.3390   45.9410 O   0  0  0  0  0  0  0  0  0  0  0  0
   56.9080   27.2520   45.9570 C   0  0  0  0  0  0  0  0  0  0  0  0
   57.9820   27.3460   46.6050 O   0  0  0  0  0  0  0  0  0  0  0  0
   56.6500   28.1990   44.9090 N   0  0  0  0  0  0  0  0  0  0  0  0
   57.0330   29.4410   44.8960 C   0  0  0  0  0  0  0  0  0  0  0  0
   57.3890   30.1380   46.0010 N   0  0  0  0  0  0  0  0  0  0  0  0
   57.7080   31.4210   45.6880 C   0  0  0  0  0  0  0  0  0  0  0  0
   57.5730   31.7450   44.3470 C   0  0  0  0  0  0  0  0  0  0  0  0
   57.0770   30.3810   43.4990 S   0  0  0  0  0  0  0  0  0  0  0  0
   57.9390   33.0730   43.7720 C   0  0  0  0  0  0  0  0  0  0  0  0
   57.8450   34.1510   44.8570 C   0  0  0  0  0  0  0  0  0  0  0  0
   58.5200   33.7070   46.0900 N   0  0  0  0  0  0  0  0  0  0  0  0
   59.4360   34.5810   46.7790 C   0  0  0  0  0  0  0  0  0  0  0  0
   59.6500   35.7380   46.3310 O   0  0  0  0  0  0  0  0  0  0  0  0
   60.0750   34.1880   48.0010 N   0  0  0  0  0  0  0  0  0  0  0  0
   61.4600   33.8500   48.1500 C   0  0  0  0  0  0  0  0  0  0  0  0
   62.1370   33.2700   47.0690 C   0  0  0  0  0  0  0  0  0  0  0  0
   63.4840   32.9150   47.1890 C   0  0  0  0  0  0  0  0  0  0  0  0
   64.1600   33.1250   48.3930 C   0  0  0  0  0  0  0  0  0  0  0  0
   63.4860   33.6820   49.4850 C   0  0  0  0  0  0  0  0  0  0  0  0
   64.1540   33.8780   50.6880 O   0  0  0  0  0  0  0  0  0  0  0  0
   62.1380   34.0370   49.3680 C   0  0  0  0  0  0  0  0  0  0  0  0
   58.1480   32.4230   46.7140 C   0  0  0  0  0  0  0  0  0  0  0  0
   58.9680   33.0326   43.3852 H   0  0  0  0  0  0  0  0  0  0  0  0
   57.2456   33.3187   42.9542 H   0  0  0  0  0  0  0  0  0  0  0  0
   58.3246   35.0720   44.4940 H   0  0  0  0  0  0  0  0  0  0  0  0
   56.7842   34.3369   45.0809 H   0  0  0  0  0  0  0  0  0  0  0  0
   61.6064   33.0932   46.1218 H   0  0  0  0  0  0  0  0  0  0  0  0
   64.0125   32.4694   46.3333 H   0  0  0  0  0  0  0  0  0  0  0  0
   65.2220   32.8525   48.4826 H   0  0  0  0  0  0  0  0  0  0  0  0
   61.6065   34.4638   50.2314 H   0  0  0  0  0  0  0  0  0  0  0  0
   59.0184   32.0227   47.2545 H   0  0  0  0  0  0  0  0  0  0  0  0
   57.3092   32.6036   47.4023 H   0  0  0  0  0  0  0  0  0  0  0  0
  1  2  2  0
  2  3  1  0
  2  4  1  0
  4  5  2  0
  4  6  1  0
  6  7  2  3
  7  8  1  0
  8  9  1  0
  9 10  2  0
 10 11  1  0
 10 12  1  0
 12 13  1  0
 13 14  1  0
 14 15  1  0
 15 16  2  0
 15 17  1  0
 17 18  1  0
 18 19  2  0
 19 20  1  0
 20 21  2  0
 21 22  1  0
 22 23  1  0
 22 24  2  0
 14 25  1  0
 11  7  1  0
 24 18  1  0
 25  9  1  0
 12 26  1  0
 12 27  1  0
 13 28  1  0
 13 29  1  0
 19 30  1  0
 20 31  1  0
 21 32  1  0
 24 33  1  0
 25 34  1  0
 25 35  1  0
M  CHG  4   3  -1   8  -1  17  -1  23  -1
M  END
>  <UniqueID>  (1) 
1

>  <SMILES>  (1) 
O=C([O-])C(=O)N=c1[n-]c2c(s1)CCN(C(=O)[N-]c1cccc([O-])c1)C2

>  <Energy>  (1) 
79.60499661544537

>  <Genealogy>  (1) 
O=C([O-])C(=O)N=c1[n-]c2c(s1)CCN(C(=O)[N-]c1cccc([O-])c1)C2 (protonated)
O=C([O-])C(=O)N=c1[n-]c2c(s1)CCN(C(=O)[N-]c1cccc([O-])c1)C2 (3D coordinates assigned)
O=C([O-])C(=O)N=c1[n-]c2c(s1)CCN(C(=O)[N-]c1cccc([O-])c1)C2 (nonaromatic ring conformer: 79.60499661544537 kcal/mol)

>  <smiles>  (1) 
O=C(O)C(=O)N=c1[nH]c2c(s1)CCN(C(=O)Nc1cccc(O)c1)C2

>  <score_type>  (1) 
oracle

>  <origin>  (1) 
adg

>  <m_score__min__energy>  (1) 
-14.890000000000001

>  <m_primary>  (1) 
energy

$$$$
1:0
     RDKit          3D

 34 35  0  0  0  0  0  0  0  0999 V2000
   58.1890   21.5390   44.5620 H   0  0  0  0  0  0  0  0  0  0  0  0
   58.4070   22.4340   44.9820 O   0  0  0  0  0  0  0  0  0  0  0  0
   57.4410   23.4210   45.1960 C   0  0  0  0  0  0  0  0  0  0  0  0
   56.0900   23.1550   44.9140 C   0  0  0  0  0  0  0  0  0  0  0  0
   55.7290   21.9190   44.3730 O   0  0  0  0  0  0  0  0  0  0  0  0
   55.9540   20.7080   45.0870 C   0  0  0  0  0  0  0  0  0  0  0  0
   55.9169   20.9075   46.1681 H   0  0  0  0  0  0  0  0  0  0  0  0
   55.1764   19.9764   44.8223 H   0  0  0  0  0  0  0  0  0  0  0  0
   56.9425   20.3045   44.8223 H   0  0  0  0  0  0  0  0  0  0  0  0
   55.1040   24.1220   45.1840 C   0  0  0  0  0  0  0  0  0  0  0  0
   53.6540   23.8410   44.8870 C   0  0  0  0  0  0  0  0  0  0  0  0
   53.1004   23.7337   45.8315 H   0  0  0  0  0  0  0  0  0  0  0  0
   53.2306   24.6738   44.3063 H   0  0  0  0  0  0  0  0  0  0  0  0
   53.5723   22.9103   44.3063 H   0  0  0  0  0  0  0  0  0  0  0  0
   55.4870   25.3790   45.6820 C   0  0  0  0  0  0  0  0  0  0  0  0
   54.5140   26.3400   45.9490 O   0  0  0  0  0  0  0  0  0  0  0  0
   56.8430   25.6700   45.9260 C   0  0  0  0  0  0  0  0  0  0  0  0
   57.2260   26.9930   46.4730 C   0  0  0  0  0  0  0  0  0  0  0  0
   56.8868   27.2457   47.4884 H   0  0  0  0  0  0  0  0  0  0  0  0
   57.9580   27.9030   45.8140 C   0  0  0  0  0  0  0  0  0  0  0  0
   58.9863   27.6340   45.5308 H   0  0  0  0  0  0  0  0  0  0  0  0
   57.4770   29.2100   45.4560 N   0  0  0  0  0  0  0  0  0  0  0  0
   56.3710   29.5390   44.7550 C   0  0  0  0  0  0  0  0  0  0  0  0
   55.6221   28.8082   44.4158 H   0  0  0  0  0  0  0  0  0  0  0  0
   56.2870   30.8650   44.5170 N   0  0  0  0  0  0  0  0  0  0  0  0
   57.3970   31.3770   45.0850 C   0  0  0  0  0  0  0  0  0  0  0  0
   57.6691   32.4427   45.0968 H   0  0  0  0  0  0  0  0  0  0  0  0
   58.1380   30.3630   45.6480 C   0  0  0  0  0  0  0  0  0  0  0  0
   59.1024   30.4771   46.1646 H   0  0  0  0  0  0  0  0  0  0  0  0
   57.8270   24.6800   45.6960 C   0  0  0  0  0  0  0  0  0  0  0  0
   59.2810   24.9680   45.9930 C   0  0  0  0  0  0  0  0  0  0  0  0
   59.4338   24.9983   47.0819 H   0  0  0  0  0  0  0  0  0  0  0  0
   59.9081   24.1766   45.5566 H   0  0  0  0  0  0  0  0  0  0  0  0
   59.5591   25.9387   45.5566 H   0  0  0  0  0  0  0  0  0  0  0  0
  1  2  1  0
  2  3  1  0
  3  4  2  0
  4  5  1  0
  5  6  1  0
  6  7  1  0
  6  8  1  0
  6  9  1  0
  4 10  1  0
 10 11  1  0
 11 12  1  0
 11 13  1  0
 11 14  1  0
 10 15  2  0
 15 16  1  0
 15 17  1  0
 17 18  1  0
 18 19  1  0
 18 20  2  0
 20 21  1  0
 20 22  1  0
 22 23  1  0
 23 24  1  0
 23 25  2  0
 25 26  1  0
 26 27  1  0
 26 28  2  0
 28 29  1  0
 17 30  2  0
 30 31  1  0
 31 32  1  0
 31 33  1  0
 31 34  1  0
 30  3  1  0
 28 22  1  0
M  CHG  1  16  -1
M  END
>  <UniqueID>  (2) 
2

>  <SMILES>  (2) 
COc1c(C)c([O-])c(/C=C\n2ccnc2)c(C)c1O

>  <Energy>  (2) 
81.77763636085369

>  <Genealogy>  (2) 
COc1c(C)c([O-])c(C=Cn2ccnc2)c(C)c1O (protonated)
COc1c(C)c([O-])c(/C=C\n2ccnc2)c(C)c1O (cis-trans isomerization)
COc1c(C)c([O-])c(/C=C\n2ccnc2)c(C)c1O (3D coordinates assigned)
COc1c(C)c([O-])c(/C=C\n2ccnc2)c(C)c1O (optimized conformer: 81.77763636085369 kcal/mol)

>  <smiles>  (2) 
COc1c(C)c(O)c(C=Cn2ccnc2)c(C)c1O

>  <score_type>  (2) 
oracle

>  <origin>  (2) 
adg

>  <m_score__min__energy>  (2) 
-9.4499999999999993

>  <m_primary>  (2) 
energy

$$$$
2:0
     RDKit          3D

 54 57  0  0  0  0  0  0  0  0999 V2000
   58.5200   30.2750   47.7400 O   0  0  0  0  0  0  0  0  0  0  0  0
   59.6880   30.1600   48.2000 C   0  0  0  0  0  0  0  0  0  0  0  0
   60.0780   30.9270   49.4300 C   0  0  0  0  0  0  0  0  0  0  0  0
   60.4750   32.3690   49.0900 C   0  0  0  0  0  0  0  0  0  0  0  0
   61.7080   32.4200   48.2360 C   0  0  0  0  0  0  0  0  0  0  0  0
   62.2950   33.5640   47.7350 C   0  0  0  0  0  0  0  0  0  0  0  0
   63.4050   33.1380   47.0390 C   0  0  0  0  0  0  0  0  0  0  0  0
   63.4240   31.7610   47.1540 C   0  0  0  0  0  0  0  0  0  0  0  0
   62.3970   31.3640   47.8730 O   0  0  0  0  0  0  0  0  0  0  0  0
   60.6240   29.2580   47.5940 N   0  0  0  0  0  0  0  0  0  0  0  0
   60.2700   28.3630   46.4890 C   0  0  0  0  0  0  0  0  0  0  0  0
   59.1750   27.3740   46.9430 C   0  0  0  0  0  0  0  0  0  0  0  0
   57.7810   27.8950   46.5780 C   0  0  0  0  0  0  0  0  0  0  0  0
   57.6090   28.0230   45.1100 N   0  0  0  0  0  0  0  0  0  0  0  0
   56.4780   28.9200   44.7970 C   0  0  0  0  0  0  0  0  0  0  0  0
   56.9860   30.2180   44.2250 C   0  0  0  0  0  0  0  0  0  0  0  0
   56.9300   30.4390   42.8420 C   0  0  0  0  0  0  0  0  0  0  0  0
   57.3960   31.6390   42.3010 C   0  0  0  0  0  0  0  0  0  0  0  0
   57.9160   32.6280   43.1380 C   0  0  0  0  0  0  0  0  0  0  0  0
   57.9850   32.4260   44.5290 C   0  0  0  0  0  0  0  0  0  0  0  0
   58.5410   33.4820   45.4100 C   0  0  0  0  0  0  0  0  0  0  0  0
   59.3490   34.5520   45.0250 C   0  0  0  0  0  0  0  0  0  0  0  0
   59.7180   35.3860   46.0880 C   0  0  0  0  0  0  0  0  0  0  0  0
   59.2080   34.9890   47.3160 C   0  0  0  0  0  0  0  0  0  0  0  0
   58.2960   33.6000   47.0760 S   0  0  0  0  0  0  0  0  0  0  0  0
   57.5150   31.2130   45.0640 C   0  0  0  0  0  0  0  0  0  0  0  0
   58.8490   28.4110   44.3820 C   0  0  0  0  0  0  0  0  0  0  0  0
   59.8330   29.1960   45.2610 C   0  0  0  0  0  0  0  0  0  0  0  0
   59.2258   30.9452   50.1252 H   0  0  0  0  0  0  0  0  0  0  0  0
   60.9454   30.4286   49.8874 H   0  0  0  0  0  0  0  0  0  0  0  0
   59.6463   32.8483   48.5482 H   0  0  0  0  0  0  0  0  0  0  0  0
   60.6886   32.8963   50.0315 H   0  0  0  0  0  0  0  0  0  0  0  0
   61.9488   34.6001   47.8644 H   0  0  0  0  0  0  0  0  0  0  0  0
   64.1295   33.7667   46.5007 H   0  0  0  0  0  0  0  0  0  0  0  0
   64.1824   31.0982   46.7117 H   0  0  0  0  0  0  0  0  0  0  0  0
   61.6300   29.3350   47.8680 H   0  0  0  0  0  0  0  0  0  0  0  0
   61.1466   27.7687   46.1919 H   0  0  0  0  0  0  0  0  0  0  0  0
   59.3379   26.4049   46.4488 H   0  0  0  0  0  0  0  0  0  0  0  0
   59.2333   27.2631   48.0358 H   0  0  0  0  0  0  0  0  0  0  0  0
   57.0262   27.1949   46.9655 H   0  0  0  0  0  0  0  0  0  0  0  0
   57.6603   28.8927   47.0252 H   0  0  0  0  0  0  0  0  0  0  0  0
   55.8199   28.4323   44.0628 H   0  0  0  0  0  0  0  0  0  0  0  0
   55.9196   29.1293   45.7213 H   0  0  0  0  0  0  0  0  0  0  0  0
   56.5171   29.6637   42.1799 H   0  0  0  0  0  0  0  0  0  0  0  0
   57.3533   31.8052   41.2145 H   0  0  0  0  0  0  0  0  0  0  0  0
   58.2751   33.5738   42.7062 H   0  0  0  0  0  0  0  0  0  0  0  0
   59.6660   34.7243   43.9859 H   0  0  0  0  0  0  0  0  0  0  0  0
   60.3540   36.2745   45.9610 H   0  0  0  0  0  0  0  0  0  0  0  0
   59.3725   35.4957   48.2784 H   0  0  0  0  0  0  0  0  0  0  0  0
   57.5621   31.0418   46.1496 H   0  0  0  0  0  0  0  0  0  0  0  0
   59.3476   27.4977   44.0253 H   0  0  0  0  0  0  0  0  0  0  0  0
   58.5533   29.0659   43.5491 H   0  0  0  0  0  0  0  0  0  0  0  0
   60.7219   29.4513   44.6654 H   0  0  0  0  0  0  0  0  0  0  0  0
   59.3317   30.1077   45.6180 H   0  0  0  0  0  0  0  0  0  0  0  0
  1  2  2  0
  2  3  1  0
  3  4  1  0
  4  5  1  0
  5  6  2  0
  6  7  1  0
  7  8  2  0
  8  9  1  0
  2 10  1  0
 10 11  1  0
 11 12  1  0
 12 13  1  0
 13 14  1  0
 14 15  1  0
 15 16  1  0
 16 17  2  0
 17 18  1  0
 18 19  2  0
 19 20  1  0
 20 21  1  0
 21 22  2  0
 22 23  1  0
 23 24  2  0
 24 25  1  0
 20 26  2  0
 14 27  1  0
 27 28  1  0
  9  5  1  0
 28 11  1  0
 26 16  1  0
 25 21  1  0
  3 29  1  0
  3 30  1  0
  4 31  1  0
  4 32  1  0
  6 33  1  0
  7 34  1  0
  8 35  1  0
 10 36  1  0
 11 37  1  0
 12 38  1  0
 12 39  1  0
 13 40  1  0
 13 41  1  0
 15 42  1  0
 15 43  1  0
 17 44  1  0
 18 45  1  0
 19 46  1  0
 22 47  1  0
 23 48  1  0
 24 49  1  0
 26 50  1  0
 27 51  1  0
 27 52  1  0
 28 53  1  0
 28 54  1  0
M  END
>  <UniqueID>  (3) 
3

>  <SMILES>  (3) 
O=C(CCc1ccco1)NC1CCN(Cc2cccc(-c3cccs3)c2)CC1

>  <Energy>  (3) 
112.57751496580806

>  <Genealogy>  (3) 
O=C(CCc1ccco1)NC1CCN(Cc2cccc(-c3cccs3)c2)CC1 (3D coordinates assigned)
O=C(CCc1ccco1)NC1CCN(Cc2cccc(-c3cccs3)c2)CC1 (nonaromatic ring conformer: 112.57751496580806 kcal/mol)

>  <smiles>  (3) 
O=C(CCc1ccco1)NC1CCN(Cc2cccc(-c3cccs3)c2)CC1

>  <score_type>  (3) 
oracle

>  <origin>  (3) 
adg

>  <m_score__min__energy>  (3) 
-9.4600000000000009

>  <m_primary>  (3) 
energy

$$$$
3:0
     RDKit          3D

 58 61  0  0  0  0  0  0  0  0999 V2000
   59.9780   32.6110   51.2490 O   0  0  0  0  0  0  0  0  0  0  0  0
   58.7410   32.8600   51.1430 C   0  0  0  0  0  0  0  0  0  0  0  0
   58.0830   33.7480   52.1620 C   0  0  0  0  0  0  0  0  0  0  0  0
   58.5100   33.4000   53.5920 C   0  0  0  0  0  0  0  0  0  0  0  0
   58.0030   32.0200   54.0400 C   0  0  0  0  0  0  0  0  0  0  0  0
   59.1260   31.0860   54.1630 N   0  0  0  0  0  0  0  0  0  0  0  0
   60.2880   31.3590   54.7900 C   0  0  0  0  0  0  0  0  0  0  0  0
   61.2120   30.3680   54.5270 C   0  0  0  0  0  0  0  0  0  0  0  0
   60.5920   29.4580   53.6910 C   0  0  0  0  0  0  0  0  0  0  0  0
   59.3070   29.9220   53.4960 C   0  0  0  0  0  0  0  0  0  0  0  0
   58.3430   29.3150   52.5630 C   0  0  0  0  0  0  0  0  0  0  0  0
   57.0350   29.2210   52.7940 C   0  0  0  0  0  0  0  0  0  0  0  0
   56.3710   27.8780   53.7780 S   0  0  0  0  0  0  0  0  0  0  0  0
   54.7610   28.6710   53.6450 C   0  0  0  0  0  0  0  0  0  0  0  0
   53.7670   28.2570   54.2930 O   0  0  0  0  0  0  0  0  0  0  0  0
   54.7050   29.8510   52.8450 N   0  0  0  0  0  0  0  0  0  0  0  0
   53.5230   30.6430   52.6320 C   0  0  0  0  0  0  0  0  0  0  0  0
   53.2510   31.1910   51.3660 C   0  0  0  0  0  0  0  0  0  0  0  0
   52.1020   31.9610   51.1650 C   0  0  0  0  0  0  0  0  0  0  0  0
   51.2130   32.1930   52.2170 C   0  0  0  0  0  0  0  0  0  0  0  0
   50.0800   32.9710   52.0120 O   0  0  0  0  0  0  0  0  0  0  0  0
   51.4650   31.6360   53.4730 C   0  0  0  0  0  0  0  0  0  0  0  0
   52.6060   30.8530   53.6780 C   0  0  0  0  0  0  0  0  0  0  0  0
   56.0030   30.1720   52.3670 C   0  0  0  0  0  0  0  0  0  0  0  0
   56.2240   31.1840   51.6550 O   0  0  0  0  0  0  0  0  0  0  0  0
   57.9640   32.2700   50.0790 N   0  0  0  0  0  0  0  0  0  0  0  0
   58.5910   31.4430   49.0440 C   0  0  0  0  0  0  0  0  0  0  0  0
   59.6750   32.2190   48.2870 C   0  0  0  0  0  0  0  0  0  0  0  0
   59.1130   32.9250   47.0820 C   0  0  0  0  0  0  0  0  0  0  0  0
   58.2560   32.2590   46.2060 C   0  0  0  0  0  0  0  0  0  0  0  0
   57.7390   32.9270   45.0930 C   0  0  0  0  0  0  0  0  0  0  0  0
   58.0740   34.2640   44.8550 C   0  0  0  0  0  0  0  0  0  0  0  0
   58.9430   34.9310   45.7240 C   0  0  0  0  0  0  0  0  0  0  0  0
   59.4520   34.2680   46.8350 C   0  0  0  0  0  0  0  0  0  0  0  0
   58.3592   34.7922   51.9536 H   0  0  0  0  0  0  0  0  0  0  0  0
   56.9955   33.6003   52.0880 H   0  0  0  0  0  0  0  0  0  0  0  0
   59.6088   33.4054   53.6429 H   0  0  0  0  0  0  0  0  0  0  0  0
   58.0695   34.1514   54.2638 H   0  0  0  0  0  0  0  0  0  0  0  0
   57.5010   32.1155   55.0141 H   0  0  0  0  0  0  0  0  0  0  0  0
   57.2957   31.6357   53.2903 H   0  0  0  0  0  0  0  0  0  0  0  0
   60.4726   32.2423   55.4191 H   0  0  0  0  0  0  0  0  0  0  0  0
   62.2422   30.3129   54.9086 H   0  0  0  0  0  0  0  0  0  0  0  0
   61.0350   28.5454   53.2657 H   0  0  0  0  0  0  0  0  0  0  0  0
   58.7282   28.9134   51.6141 H   0  0  0  0  0  0  0  0  0  0  0  0
   53.9447   31.0131   50.5311 H   0  0  0  0  0  0  0  0  0  0  0  0
   51.8965   32.3870   50.1719 H   0  0  0  0  0  0  0  0  0  0  0  0
   50.7648   31.8134   54.3026 H   0  0  0  0  0  0  0  0  0  0  0  0
   52.7873   30.3987   54.6632 H   0  0  0  0  0  0  0  0  0  0  0  0
   56.9260   32.4310   50.0610 H   0  0  0  0  0  0  0  0  0  0  0  0
   59.0473   30.5615   49.5182 H   0  0  0  0  0  0  0  0  0  0  0  0
   57.8151   31.1422   48.3247 H   0  0  0  0  0  0  0  0  0  0  0  0
   60.1179   32.9650   48.9633 H   0  0  0  0  0  0  0  0  0  0  0  0
   60.4339   31.5013   47.9420 H   0  0  0  0  0  0  0  0  0  0  0  0
   57.9873   31.2085   46.3912 H   0  0  0  0  0  0  0  0  0  0  0  0
   57.0659   32.3994   44.4012 H   0  0  0  0  0  0  0  0  0  0  0  0
   57.6542   34.7902   43.9850 H   0  0  0  0  0  0  0  0  0  0  0  0
   59.2230   35.9768   45.5293 H   0  0  0  0  0  0  0  0  0  0  0  0
   60.1247   34.7973   47.5259 H   0  0  0  0  0  0  0  0  0  0  0  0
  1  2  2  0
  2  3  1  0
  3  4  1  0
  4  5  1  0
  5  6  1  0
  6  7  1  0
  7  8  2  0
  8  9  1  0
  9 10  2  0
 10 11  1  0
 11 12  2  3
 12 13  1  0
 13 14  1  0
 14 15  2  0
 14 16  1  0
 16 17  1  0
 17 18  2  0
 18 19  1  0
 19 20  2  0
 20 21  1  0
 20 22  1  0
 22 23  2  0
 16 24  1  0
 24 25  2  0
  2 26  1  0
 26 27  1  0
 27 28  1  0
 28 29  1  0
 29 30  2  0
 30 31  1  0
 31 32  2  0
 32 33  1  0
 33 34  2  0
 10  6  1  0
 24 12  1  0
 34 29  1  0
 23 17  1  0
  3 35  1  0
  3 36  1  0
  4 37  1  0
  4 38  1  0
  5 39  1  0
  5 40  1  0
  7 41  1  0
  8 42  1  0
  9 43  1  0
 11 44  1  0
 18 45  1  0
 19 46  1  0
 22 47  1  0
 23 48  1  0
 26 49  1  0
 27 50  1  0
 27 51  1  0
 28 52  1  0
 28 53  1  0
 30 54  1  0
 31 55  1  0
 32 56  1  0
 33 57  1  0
 34 58  1  0
M  CHG  1  21  -1
M  END
>  <UniqueID>  (4) 
4

>  <SMILES>  (4) 
O=C(CCCn1cccc1C=C1SC(=O)N(c2ccc([O-])cc2)C1=O)NCCc1ccccc1

>  <Energy>  (4) 
108.1595250569118

>  <Genealogy>  (4) 
O=C(CCCn1cccc1C=C1SC(=O)N(c2ccc([O-])cc2)C1=O)NCCc1ccccc1 (protonated)
O=C(CCCn1cccc1C=C1SC(=O)N(c2ccc([O-])cc2)C1=O)NCCc1ccccc1 (3D coordinates assigned)
O=C(CCCn1cccc1C=C1SC(=O)N(c2ccc([O-])cc2)C1=O)NCCc1ccccc1 (nonaromatic ring conformer: 108.1595250569118 kcal/mol)

>  <smiles>  (4) 
O=C(CCCn1cccc1C=C1SC(=O)N(c2ccc(O)cc2)C1=O)NCCc1ccccc1

>  <score_type>  (4) 
oracle

>  <origin>  (4) 
adg

>  <m_score__min__energy>  (4) 
-12.890000000000001

>  <m_primary>  (4) 
energy

$$$$
4:0
     RDKit          3D

 37 39  0  0  0  0  0  0  0  0999 V2000
   57.4970   34.9030   44.5260 O   0  0  0  0  0  0  0  0  0  0  0  0
   57.6370   33.8290   45.1690 C   0  0  0  0  0  0  0  0  0  0  0  0
   56.6730   32.7750   45.0380 N   0  0  0  0  0  0  0  0  0  0  0  0
   56.9070   31.4600   44.5180 C   0  0  0  0  0  0  0  0  0  0  0  0
   56.6250   31.0700   43.2050 C   0  0  0  0  0  0  0  0  0  0  0  0
   57.0000   29.4370   43.0680 S   0  0  0  0  0  0  0  0  0  0  0  0
   57.5070   29.3010   44.6640 C   0  0  0  0  0  0  0  0  0  0  0  0
   57.9440   28.0290   45.3170 C   0  0  0  0  0  0  0  0  0  0  0  0
   57.4690   26.8190   44.5090 C   0  0  0  0  0  0  0  0  0  0  0  0
   57.2450   25.6680   45.3980 N   0  0  0  0  0  0  0  0  0  0  0  0
   58.2370   24.7400   45.5500 C   0  0  0  0  0  0  0  0  0  0  0  0
   58.0660   23.6520   46.4030 C   0  0  0  0  0  0  0  0  0  0  0  0
   56.8680   23.5400   47.1050 C   0  0  0  0  0  0  0  0  0  0  0  0
   56.6770   22.5700   47.8840 O   0  0  0  0  0  0  0  0  0  0  0  0
   55.9050   24.4830   46.9500 N   0  0  0  0  0  0  0  0  0  0  0  0
   56.0810   25.5410   46.1140 C   0  0  0  0  0  0  0  0  0  0  0  0
   55.1630   26.3970   46.0110 O   0  0  0  0  0  0  0  0  0  0  0  0
   57.3770   30.4710   45.3230 N   0  0  0  0  0  0  0  0  0  0  0  0
   58.8510   33.6080   45.9860 C   0  0  0  0  0  0  0  0  0  0  0  0
   60.0240   34.3130   45.6550 C   0  0  0  0  0  0  0  0  0  0  0  0
   61.1740   34.1880   46.4380 C   0  0  0  0  0  0  0  0  0  0  0  0
   61.1710   33.3580   47.5580 C   0  0  0  0  0  0  0  0  0  0  0  0
   60.0230   32.6370   47.8900 C   0  0  0  0  0  0  0  0  0  0  0  0
   58.8660   32.7360   47.1050 C   0  0  0  0  0  0  0  0  0  0  0  0
   57.7770   31.9340   47.4470 O   0  0  0  0  0  0  0  0  0  0  0  0
   56.2295   31.7149   42.4065 H   0  0  0  0  0  0  0  0  0  0  0  0
   59.0421   28.0134   45.3799 H   0  0  0  0  0  0  0  0  0  0  0  0
   57.5049   27.9779   46.3242 H   0  0  0  0  0  0  0  0  0  0  0  0
   56.5284   27.0708   43.9972 H   0  0  0  0  0  0  0  0  0  0  0  0
   58.2408   26.5562   43.7706 H   0  0  0  0  0  0  0  0  0  0  0  0
   59.1791   24.8534   44.9936 H   0  0  0  0  0  0  0  0  0  0  0  0
   58.8589   22.8985   46.5196 H   0  0  0  0  0  0  0  0  0  0  0  0
   60.0349   34.9683   44.7716 H   0  0  0  0  0  0  0  0  0  0  0  0
   62.0837   34.7455   46.1703 H   0  0  0  0  0  0  0  0  0  0  0  0
   62.0738   33.2713   48.1804 H   0  0  0  0  0  0  0  0  0  0  0  0
   60.0262   31.9850   48.7759 H   0  0  0  0  0  0  0  0  0  0  0  0
   57.1030   31.5920   46.7770 H   0  0  0  0  0  0  0  0  0  0  0  0
  1  2  2  0
  2  3  1  0
  3  4  1  0
  4  5  2  0
  5  6  1  0
  6  7  1  0
  7  8  1  0
  8  9  1  0
  9 10  1  0
 10 11  1  0
 11 12  2  0
 12 13  1  0
 13 14  2  0
 13 15  1  0
 15 16  1  0
 16 17  2  0
  7 18  2  0
  2 19  1  0
 19 20  2  0
 20 21  1  0
 21 22  2  0
 22 23  1  0
 23 24  2  0
 24 25  1  0
 18  4  1  0
 24 19  1  0
 16 10  1  0
  5 26  1  0
  8 27  1  0
  8 28  1  0
  9 29  1  0
  9 30  1  0
 11 31  1  0
 12 32  1  0
 20 33  1  0
 21 34  1  0
 22 35  1  0
 23 36  1  0
 25 37  1  0
M  CHG  2   3  -1  15  -1
M  END
>  <UniqueID>  (5) 
5

>  <SMILES>  (5) 
O=C([N-]c1csc(CCn2ccc(=O)[n-]c2=O)n1)c1ccccc1O

>  <Energy>  (5) 
76.0724692228738

>  <Genealogy>  (5) 
O=C([N-]c1csc(CCn2ccc(=O)[n-]c2=O)n1)c1ccccc1O (protonated)
O=C([N-]c1csc(CCn2ccc(=O)[n-]c2=O)n1)c1ccccc1O (3D coordinates assigned)
O=C([N-]c1csc(CCn2ccc(=O)[n-]c2=O)n1)c1ccccc1O (optimized conformer: 76.0724692228738 kcal/mol)

>  <smiles>  (5) 
O=C(Nc1csc(CCn2ccc(=O)[nH]c2=O)n1)c1ccccc1O

>  <score_type>  (5) 
oracle

>  <origin>  (5) 
adg

>  <m_score__min__energy>  (5) 
-11.56

>  <m_primary>  (5) 
energy

$$$$
5:0
     RDKit          3D

 61 64  0  0  0  0  0  0  0  0999 V2000
   56.8580   20.8130   43.6630 C   0  0  0  0  0  0  0  0  0  0  0  0
   55.8610   21.3330   44.5390 O   0  0  0  0  0  0  0  0  0  0  0  0
   55.7160   22.6910   44.8560 C   0  0  0  0  0  0  0  0  0  0  0  0
   54.6260   23.0750   45.6450 C   0  0  0  0  0  0  0  0  0  0  0  0
   54.4440   24.4130   45.9990 C   0  0  0  0  0  0  0  0  0  0  0  0
   55.3450   25.3880   45.5630 C   0  0  0  0  0  0  0  0  0  0  0  0
   55.1590   26.7060   45.9680 O   0  0  0  0  0  0  0  0  0  0  0  0
   56.4340   25.0270   44.7420 C   0  0  0  0  0  0  0  0  0  0  0  0
   57.4010   26.0360   44.2430 C   0  0  0  0  0  0  0  0  0  0  0  0
   57.6960   26.0410   43.0160 O   0  0  0  0  0  0  0  0  0  0  0  0
   58.0340   27.0410   45.1340 C   0  0  0  0  0  0  0  0  0  0  0  0
   58.1040   28.3750   44.7160 C   0  0  0  0  0  0  0  0  0  0  0  0
   58.6870   29.3410   45.4910 N   0  0  0  0  0  0  0  0  0  0  0  0
   58.7280   30.7140   44.9480 C   0  0  0  0  0  0  0  0  0  0  0  0
   57.3720   31.3690   45.0270 C   0  0  0  0  0  0  0  0  0  0  0  0
   56.3380   30.6750   44.8360 O   0  0  0  0  0  0  0  0  0  0  0  0
   57.2250   32.7750   45.2450 N   0  0  0  0  0  0  0  0  0  0  0  0
   57.3040   33.4210   46.5500 C   0  0  0  0  0  0  0  0  0  0  0  0
   58.7470   33.5490   46.9540 C   0  0  0  0  0  0  0  0  0  0  0  0
   59.6790   34.0810   46.0470 C   0  0  0  0  0  0  0  0  0  0  0  0
   61.0160   34.2360   46.4180 C   0  0  0  0  0  0  0  0  0  0  0  0
   61.4330   33.8710   47.6980 C   0  0  0  0  0  0  0  0  0  0  0  0
   60.5160   33.3560   48.6160 C   0  0  0  0  0  0  0  0  0  0  0  0
   59.1620   33.1950   48.2560 C   0  0  0  0  0  0  0  0  0  0  0  0
   58.2110   32.6930   49.1610 O   0  0  0  0  0  0  0  0  0  0  0  0
   58.5220   32.1220   50.4270 C   0  0  0  0  0  0  0  0  0  0  0  0
   59.1950   29.0260   46.7370 C   0  0  0  0  0  0  0  0  0  0  0  0
   59.7730   30.0040   47.5800 C   0  0  0  0  0  0  0  0  0  0  0  0
   60.2850   29.6620   48.8310 C   0  0  0  0  0  0  0  0  0  0  0  0
   60.2380   28.3460   49.2860 C   0  0  0  0  0  0  0  0  0  0  0  0
   60.7750   28.0610   50.5510 O   0  0  0  0  0  0  0  0  0  0  0  0
   61.6890   28.9020   51.2480 C   0  0  0  0  0  0  0  0  0  0  0  0
   59.6570   27.3590   48.4730 C   0  0  0  0  0  0  0  0  0  0  0  0
   59.1330   27.6860   47.2060 C   0  0  0  0  0  0  0  0  0  0  0  0
   58.5400   26.6990   46.3980 C   0  0  0  0  0  0  0  0  0  0  0  0
   58.4400   25.5110   46.8160 O   0  0  0  0  0  0  0  0  0  0  0  0
   56.6220   23.6730   44.4110 C   0  0  0  0  0  0  0  0  0  0  0  0
   57.6796   20.3845   44.2558 H   0  0  0  0  0  0  0  0  0  0  0  0
   56.4166   20.0303   43.0286 H   0  0  0  0  0  0  0  0  0  0  0  0
   57.2473   21.6229   43.0286 H   0  0  0  0  0  0  0  0  0  0  0  0
   53.9071   22.3168   45.9889 H   0  0  0  0  0  0  0  0  0  0  0  0
   53.5865   24.7014   46.6247 H   0  0  0  0  0  0  0  0  0  0  0  0
   57.6799   28.6541   43.7402 H   0  0  0  0  0  0  0  0  0  0  0  0
   59.4487   31.3087   45.5285 H   0  0  0  0  0  0  0  0  0  0  0  0
   59.0309   30.6634   43.8917 H   0  0  0  0  0  0  0  0  0  0  0  0
   56.8481   34.4205   46.4936 H   0  0  0  0  0  0  0  0  0  0  0  0
   56.7650   32.8162   47.2941 H   0  0  0  0  0  0  0  0  0  0  0  0
   59.3534   34.3771   45.0389 H   0  0  0  0  0  0  0  0  0  0  0  0
   61.7413   34.6464   45.7001 H   0  0  0  0  0  0  0  0  0  0  0  0
   62.4882   33.9894   47.9851 H   0  0  0  0  0  0  0  0  0  0  0  0
   60.8512   33.0744   49.6251 H   0  0  0  0  0  0  0  0  0  0  0  0
   58.1609   32.7851   51.2270 H   0  0  0  0  0  0  0  0  0  0  0  0
   58.0340   31.1402   50.5163 H   0  0  0  0  0  0  0  0  0  0  0  0
   59.6115   31.9994   50.5163 H   0  0  0  0  0  0  0  0  0  0  0  0
   59.8192   31.0502   47.2434 H   0  0  0  0  0  0  0  0  0  0  0  0
   60.7316   30.4409   49.4666 H   0  0  0  0  0  0  0  0  0  0  0  0
   61.5508   28.7749   52.3319 H   0  0  0  0  0  0  0  0  0  0  0  0
   62.7192   28.6294   50.9752 H   0  0  0  0  0  0  0  0  0  0  0  0
   61.5029   29.9513   50.9752 H   0  0  0  0  0  0  0  0  0  0  0  0
   59.6104   26.3192   48.8290 H   0  0  0  0  0  0  0  0  0  0  0  0
   57.4862   23.3779   43.7978 H   0  0  0  0  0  0  0  0  0  0  0  0
  1  2  1  0
  2  3  1  0
  3  4  2  0
  4  5  1  0
  5  6  2  0
  6  7  1  0
  6  8  1  0
  8  9  1  0
  9 10  2  0
  9 11  1  0
 11 12  2  0
 12 13  1  0
 13 14  1  0
 14 15  1  0
 15 16  2  0
 15 17  1  0
 17 18  1  0
 18 19  1  0
 19 20  2  0
 20 21  1  0
 21 22  2  0
 22 23  1  0
 23 24  2  0
 24 25  1  0
 25 26  1  0
 13 27  1  0
 27 28  2  0
 28 29  1  0
 29 30  2  0
 30 31  1  0
 31 32  1  0
 30 33  1  0
 33 34  2  0
 34 35  1  0
 35 36  2  0
  8 37  2  0
 37  3  1  0
 35 11  1  0
 24 19  1  0
 34 27  1  0
  1 38  1  0
  1 39  1  0
  1 40  1  0
  4 41  1  0
  5 42  1  0
 12 43  1  0
 14 44  1  0
 14 45  1  0
 18 46  1  0
 18 47  1  0
 20 48  1  0
 21 49  1  0
 22 50  1  0
 23 51  1  0
 26 52  1  0
 26 53  1  0
 26 54  1  0
 28 55  1  0
 29 56  1  0
 32 57  1  0
 32 58  1  0
 32 59  1  0
 33 60  1  0
 37 61  1  0
M  CHG  2   7  -1  17  -1
M  END
>  <UniqueID>  (6) 
6

>  <SMILES>  (6) 
COc1ccc([O-])c(C(=O)c2cn(CC(=O)[N-]Cc3ccccc3OC)c3ccc(OC)cc3c2=O)c1

>  <Energy>  (6) 
80.1809529286052

>  <Genealogy>  (6) 
COc1ccc([O-])c(C(=O)c2cn(CC(=O)[N-]Cc3ccccc3OC)c3ccc(OC)cc3c2=O)c1 (protonated)
COc1ccc([O-])c(C(=O)c2cn(CC(=O)[N-]Cc3ccccc3OC)c3ccc(OC)cc3c2=O)c1 (3D coordinates assigned)
COc1ccc([O-])c(C(=O)c2cn(CC(=O)[N-]Cc3ccccc3OC)c3ccc(OC)cc3c2=O)c1 (optimized conformer: 80.1809529286052 kcal/mol)

>  <smiles>  (6) 
COc1ccc(O)c(C(=O)c2cn(CC(=O)NCc3ccccc3OC)c3ccc(OC)cc3c2=O)c1

>  <score_type>  (6) 
oracle

>  <origin>  (6) 
adg

>  <m_score__min__energy>  (6) 
-13.35

>  <m_primary>  (6) 
energy

$$$$
6:0
     RDKit          3D

 46 48  0  0  0  0  0  0  0  0999 V2000
   55.5220   28.9810   45.1810 N   0  0  0  0  0  0  0  0  0  0  0  0
   56.6660   29.6730   44.0820 S   0  0  0  0  0  0  0  0  0  0  0  0
   55.9440   30.1820   42.8660 O   0  0  0  0  0  0  0  0  0  0  0  0
   57.6520   28.6210   43.6520 O   0  0  0  0  0  0  0  0  0  0  0  0
   57.5250   30.9910   44.8740 C   0  0  0  0  0  0  0  0  0  0  0  0
   58.4230   30.7100   45.9080 C   0  0  0  0  0  0  0  0  0  0  0  0
   59.1090   31.7470   46.5460 C   0  0  0  0  0  0  0  0  0  0  0  0
   58.9120   33.0820   46.1500 C   0  0  0  0  0  0  0  0  0  0  0  0
   59.6460   34.1870   46.8040 C   0  0  0  0  0  0  0  0  0  0  0  0
   59.7020   35.3100   46.2310 O   0  0  0  0  0  0  0  0  0  0  0  0
   60.3280   34.0090   48.0600 N   0  0  0  0  0  0  0  0  0  0  0  0
   59.6920   34.5450   49.2740 C   0  0  0  0  0  0  0  0  0  0  0  0
   59.2810   33.4160   50.1750 C   0  0  0  0  0  0  0  0  0  0  0  0
   59.3780   33.5580   51.5680 C   0  0  0  0  0  0  0  0  0  0  0  0
   58.9250   32.5390   52.4100 C   0  0  0  0  0  0  0  0  0  0  0  0
   58.3710   31.3740   51.8680 C   0  0  0  0  0  0  0  0  0  0  0  0
   58.2650   31.2290   50.4830 C   0  0  0  0  0  0  0  0  0  0  0  0
   58.7150   32.2470   49.6360 C   0  0  0  0  0  0  0  0  0  0  0  0
   61.4730   33.0780   48.1880 C   0  0  1  0  0  0  0  0  0  0  0  0
   62.3960   33.1070   46.9510 C   0  0  0  0  0  0  0  0  0  0  0  0
   63.6940   32.3780   47.3090 C   0  0  0  0  0  0  0  0  0  0  0  0
   63.8700   32.5520   49.0640 S   0  0  0  0  0  0  0  0  0  0  0  0
   65.0440   33.4180   49.4200 O   0  0  0  0  0  0  0  0  0  0  0  0
   63.9650   31.2150   49.7420 O   0  0  0  0  0  0  0  0  0  0  0  0
   62.3340   33.3500   49.4240 C   0  0  0  0  0  0  0  0  0  0  0  0
   58.0090   33.3580   45.1120 C   0  0  0  0  0  0  0  0  0  0  0  0
   57.3120   32.3210   44.4860 C   0  0  0  0  0  0  0  0  0  0  0  0
   54.5850   29.3580   44.9260 H   0  0  0  0  0  0  0  0  0  0  0  0
   58.5902   29.6687   46.2206 H   0  0  0  0  0  0  0  0  0  0  0  0
   59.8080   31.5174   47.3637 H   0  0  0  0  0  0  0  0  0  0  0  0
   60.4052   35.1936   49.8037 H   0  0  0  0  0  0  0  0  0  0  0  0
   58.8017   35.1257   48.9909 H   0  0  0  0  0  0  0  0  0  0  0  0
   59.8114   34.4732   51.9977 H   0  0  0  0  0  0  0  0  0  0  0  0
   59.0041   32.6529   53.5012 H   0  0  0  0  0  0  0  0  0  0  0  0
   58.0187   30.5719   52.5332 H   0  0  0  0  0  0  0  0  0  0  0  0
   57.8274   30.3136   50.0580 H   0  0  0  0  0  0  0  0  0  0  0  0
   58.6259   32.1329   48.5456 H   0  0  0  0  0  0  0  0  0  0  0  0
   61.0072   32.0862   48.2845 H   0  0  0  0  0  0  0  0  0  0  0  0
   61.9045   32.6007   46.1071 H   0  0  0  0  0  0  0  0  0  0  0  0
   62.6102   34.1458   46.6596 H   0  0  0  0  0  0  0  0  0  0  0  0
   63.6261   31.3152   47.0334 H   0  0  0  0  0  0  0  0  0  0  0  0
   64.5572   32.7955   46.7700 H   0  0  0  0  0  0  0  0  0  0  0  0
   61.8717   32.9191   50.3244 H   0  0  0  0  0  0  0  0  0  0  0  0
   62.4539   34.4245   49.6267 H   0  0  0  0  0  0  0  0  0  0  0  0
   57.8487   34.3972   44.7890 H   0  0  0  0  0  0  0  0  0  0  0  0
   56.5931   32.5495   43.6853 H   0  0  0  0  0  0  0  0  0  0  0  0
  1  2  1  0
  2  3  2  0
  2  4  2  0
  2  5  1  0
  5  6  2  0
  6  7  1  0
  7  8  2  0
  8  9  1  0
  9 10  2  0
  9 11  1  0
 11 12  1  0
 12 13  1  0
 13 14  2  0
 14 15  1  0
 15 16  2  0
 16 17  1  0
 17 18  2  0
 11 19  1  0
 19 20  1  0
 20 21  1  0
 21 22  1  0
 22 23  2  0
 22 24  2  0
 22 25  1  0
  8 26  1  0
 26 27  2  0
 27  5  1  0
 18 13  1  0
 25 19  1  0
  1 28  1  0
  6 29  1  0
  7 30  1  0
 12 31  1  0
 12 32  1  0
 14 33  1  0
 15 34  1  0
 16 35  1  0
 17 36  1  0
 18 37  1  0
 19 38  1  1
 20 39  1  0
 20 40  1  0
 21 41  1  0
 21 42  1  0
 25 43  1  0
 25 44  1  0
 26 45  1  0
 27 46  1  0
M  CHG  1   1  -1
M  END
>  <UniqueID>  (7) 
7

>  <SMILES>  (7) 
[NH-]S(=O)(=O)c1ccc(C(=O)N(Cc2ccccc2)[C@H]2CCS(=O)(=O)C2)cc1

>  <Energy>  (7) 
50.874371885538444

>  <Genealogy>  (7) 
[NH-]S(=O)(=O)c1ccc(C(=O)N(Cc2ccccc2)C2CCS(=O)(=O)C2)cc1 (protonated)
[NH-]S(=O)(=O)c1ccc(C(=O)N(Cc2ccccc2)[C@H]2CCS(=O)(=O)C2)cc1 (chirality)
[NH-]S(=O)(=O)c1ccc(C(=O)N(Cc2ccccc2)[C@H]2CCS(=O)(=O)C2)cc1 (3D coordinates assigned)
[NH-]S(=O)(=O)c1ccc(C(=O)N(Cc2ccccc2)[C@H]2CCS(=O)(=O)C2)cc1 (nonaromatic ring conformer: 50.874371885538444 kcal/mol)

>  <smiles>  (7) 
NS(=O)(=O)c1ccc(C(=O)N(Cc2ccccc2)C2CCS(=O)(=O)C2)cc1

>  <score_type>  (7) 
oracle

>  <origin>  (7) 
adg

>  <m_score__min__energy>  (7) 
-11.75

>  <m_primary>  (7) 
energy

$$$$
7:0
     RDKit          3D

 56 59  0  0  0  0  0  0  0  0999 V2000
   57.0300   32.5030   53.0680 O   0  0  0  0  0  0  0  0  0  0  0  0
   57.8460   32.9440   52.2140 C   0  0  0  0  0  0  0  0  0  0  0  0
   58.2470   34.2730   52.2910 O   0  0  0  0  0  0  0  0  0  0  0  0
   58.3690   32.0620   51.1460 C   0  0  0  0  0  0  0  0  0  0  0  0
   58.0160   30.7050   51.1050 C   0  0  0  0  0  0  0  0  0  0  0  0
   58.5070   29.8760   50.0970 C   0  0  0  0  0  0  0  0  0  0  0  0
   59.3570   30.3880   49.1060 C   0  0  0  0  0  0  0  0  0  0  0  0
   59.9740   29.3180   47.8390 S   0  0  0  0  0  0  0  0  0  0  0  0
   61.3350   29.7740   47.3920 O   0  0  0  0  0  0  0  0  0  0  0  0
   60.1050   27.9330   48.4090 O   0  0  0  0  0  0  0  0  0  0  0  0
   58.8900   29.2860   46.4330 C   0  0  0  0  0  0  0  0  0  0  0  0
   58.6490   30.4970   45.7610 C   0  0  0  0  0  0  0  0  0  0  0  0
   57.7710   30.5510   44.6780 C   0  0  0  0  0  0  0  0  0  0  0  0
   57.1220   29.3980   44.2490 C   0  0  0  0  0  0  0  0  0  0  0  0
   57.3560   28.1830   44.8910 C   0  0  0  0  0  0  0  0  0  0  0  0
   58.2430   28.1000   45.9820 C   0  0  0  0  0  0  0  0  0  0  0  0
   58.4720   26.7660   46.5990 C   0  0  0  0  0  0  0  0  0  0  0  0
   59.6140   26.2390   46.5540 O   0  0  0  0  0  0  0  0  0  0  0  0
   57.3780   25.9740   47.0870 N   0  0  0  0  0  0  0  0  0  0  0  0
   56.6270   25.1220   46.4440 C   0  0  0  0  0  0  0  0  0  0  0  0
   57.0710   23.8390   46.3470 N   0  0  0  0  0  0  0  0  0  0  0  0
   56.3800   22.8710   45.6890 C   0  0  0  0  0  0  0  0  0  0  0  0
   55.1640   23.1730   45.0820 C   0  0  0  0  0  0  0  0  0  0  0  0
   54.6590   24.4680   45.1790 C   0  0  0  0  0  0  0  0  0  0  0  0
   55.3710   25.4510   45.8720 C   0  0  0  0  0  0  0  0  0  0  0  0
   54.7920   26.7060   46.0140 O   0  0  0  0  0  0  0  0  0  0  0  0
   59.7360   31.7420   49.1410 C   0  0  0  0  0  0  0  0  0  0  0  0
   60.6120   32.2240   48.1500 O   0  0  0  0  0  0  0  0  0  0  0  0
   61.2080   33.5190   48.1190 C   0  0  0  0  0  0  0  0  0  0  0  0
   60.1340   34.6060   48.0190 C   0  0  0  0  0  0  0  0  0  0  0  0
   59.2030   34.3240   46.8710 C   0  0  0  0  0  0  0  0  0  0  0  0
   59.6310   34.5140   45.5470 C   0  0  0  0  0  0  0  0  0  0  0  0
   58.7740   34.2210   44.4800 C   0  0  0  0  0  0  0  0  0  0  0  0
   57.4900   33.7270   44.7290 C   0  0  0  0  0  0  0  0  0  0  0  0
   57.0620   33.5230   46.0440 C   0  0  0  0  0  0  0  0  0  0  0  0
   57.9160   33.8150   47.1120 C   0  0  0  0  0  0  0  0  0  0  0  0
   59.2300   32.5740   50.1600 C   0  0  0  0  0  0  0  0  0  0  0  0
   57.3467   30.2917   51.8739 H   0  0  0  0  0  0  0  0  0  0  0  0
   58.2256   28.8128   50.0790 H   0  0  0  0  0  0  0  0  0  0  0  0
   59.1589   31.4133   46.0931 H   0  0  0  0  0  0  0  0  0  0  0  0
   57.5919   31.5063   44.1630 H   0  0  0  0  0  0  0  0  0  0  0  0
   56.4226   29.4450   43.4013 H   0  0  0  0  0  0  0  0  0  0  0  0
   56.8408   27.2764   44.5407 H   0  0  0  0  0  0  0  0  0  0  0  0
   56.7818   21.8484   45.6360 H   0  0  0  0  0  0  0  0  0  0  0  0
   54.6086   22.3986   44.5325 H   0  0  0  0  0  0  0  0  0  0  0  0
   53.6965   24.7176   44.7085 H   0  0  0  0  0  0  0  0  0  0  0  0
   61.7908   33.6706   49.0395 H   0  0  0  0  0  0  0  0  0  0  0  0
   61.8629   33.5863   47.2378 H   0  0  0  0  0  0  0  0  0  0  0  0
   59.5568   34.6316   48.9551 H   0  0  0  0  0  0  0  0  0  0  0  0
   60.6245   35.5758   47.8489 H   0  0  0  0  0  0  0  0  0  0  0  0
   60.6437   34.8946   45.3478 H   0  0  0  0  0  0  0  0  0  0  0  0
   59.1108   34.3795   43.4449 H   0  0  0  0  0  0  0  0  0  0  0  0
   56.8164   33.4988   43.8899 H   0  0  0  0  0  0  0  0  0  0  0  0
   56.0523   33.1324   46.2388 H   0  0  0  0  0  0  0  0  0  0  0  0
   57.5787   33.6454   48.1452 H   0  0  0  0  0  0  0  0  0  0  0  0
   59.5123   33.6369   50.1839 H   0  0  0  0  0  0  0  0  0  0  0  0
  1  2  2  0
  2  3  1  0
  2  4  1  0
  4  5  2  0
  5  6  1  0
  6  7  2  0
  7  8  1  0
  8  9  2  0
  8 10  2  0
  8 11  1  0
 11 12  2  0
 12 13  1  0
 13 14  2  0
 14 15  1  0
 15 16  2  0
 16 17  1  0
 17 18  2  0
 17 19  1  0
 19 20  2  3
 20 21  1  0
 21 22  1  0
 22 23  2  0
 23 24  1  0
 24 25  2  0
 25 26  1  0
  7 27  1  0
 27 28  1  0
 28 29  1  0
 29 30  1  0
 30 31  1  0
 31 32  2  0
 32 33  1  0
 33 34  2  0
 34 35  1  0
 35 36  2  0
 27 37  2  0
 37  4  1  0
 16 11  1  0
 25 20  1  0
 36 31  1  0
  5 38  1  0
  6 39  1  0
 12 40  1  0
 13 41  1  0
 14 42  1  0
 15 43  1  0
 22 44  1  0
 23 45  1  0
 24 46  1  0
 29 47  1  0
 29 48  1  0
 30 49  1  0
 30 50  1  0
 32 51  1  0
 33 52  1  0
 34 53  1  0
 35 54  1  0
 36 55  1  0
 37 56  1  0
M  CHG  3   3  -1  21  -1  26  -1
M  END
>  <UniqueID>  (8) 
8

>  <SMILES>  (8) 
O=C([O-])c1ccc(S(=O)(=O)c2ccccc2C(=O)N=c2[n-]cccc2[O-])c(OCCc2ccccc2)c1

>  <Energy>  (8) 
81.30036093758832

>  <Genealogy>  (8) 
O=C([O-])c1ccc(S(=O)(=O)c2ccccc2C(=O)N=c2[n-]cccc2[O-])c(OCCc2ccccc2)c1 (protonated)
O=C([O-])c1ccc(S(=O)(=O)c2ccccc2C(=O)N=c2[n-]cccc2[O-])c(OCCc2ccccc2)c1 (3D coordinates assigned)
O=C([O-])c1ccc(S(=O)(=O)c2ccccc2C(=O)N=c2[n-]cccc2[O-])c(OCCc2ccccc2)c1 (optimized conformer: 81.30036093758832 kcal/mol)

>  <smiles>  (8) 
O=C(O)c1ccc(S(=O)(=O)c2ccccc2C(=O)N=c2[nH]cccc2O)c(OCCc2ccccc2)c1

>  <score_type>  (8) 
oracle

>  <origin>  (8) 
adg

>  <m_score__min__energy>  (8) 
-15.210000000000001

>  <m_primary>  (8) 
energy

$$$$
8:0
     RDKit          3D

 33 34  0  0  0  0  0  0  0  0999 V2000
   58.8660   34.7370   44.8960 C   0  0  0  0  0  0  0  0  0  0  0  0
   59.1380   33.7800   46.0230 C   0  0  0  0  0  0  0  0  0  0  0  0
   60.2890   33.9580   46.8120 C   0  0  0  0  0  0  0  0  0  0  0  0
   60.5600   33.0970   47.8760 C   0  0  0  0  0  0  0  0  0  0  0  0
   59.6930   32.0440   48.1610 C   0  0  0  0  0  0  0  0  0  0  0  0
   58.5520   31.8460   47.3820 C   0  0  0  0  0  0  0  0  0  0  0  0
   58.2570   32.7080   46.3080 C   0  0  0  0  0  0  0  0  0  0  0  0
   57.0800   32.4930   45.5060 N   0  0  0  0  0  0  0  0  0  0  0  0
   56.9280   31.1740   44.3880 S   0  0  0  0  0  0  0  0  0  0  0  0
   57.4710   31.5970   43.0510 O   0  0  0  0  0  0  0  0  0  0  0  0
   55.4780   30.8120   44.2370 O   0  0  0  0  0  0  0  0  0  0  0  0
   57.7980   29.7710   45.0040 C   0  0  0  0  0  0  0  0  0  0  0  0
   59.1880   29.6990   44.8590 C   0  0  0  0  0  0  0  0  0  0  0  0
   59.8860   28.5880   45.3370 C   0  0  0  0  0  0  0  0  0  0  0  0
   59.1990   27.5390   45.9540 C   0  0  0  0  0  0  0  0  0  0  0  0
   57.7990   27.5910   46.0880 C   0  0  0  0  0  0  0  0  0  0  0  0
   57.0550   26.5470   46.7340 N   0  0  0  0  0  0  0  0  0  0  0  0
   55.9690   25.8010   46.1740 C   0  0  0  0  0  0  0  0  0  0  0  0
   54.8360   26.3220   46.0030 O   0  0  0  0  0  0  0  0  0  0  0  0
   57.1100   28.7210   45.6280 C   0  0  0  0  0  0  0  0  0  0  0  0
   58.5871   35.7183   45.3075 H   0  0  0  0  0  0  0  0  0  0  0  0
   59.7699   34.8420   44.2779 H   0  0  0  0  0  0  0  0  0  0  0  0
   58.0420   34.3509   44.2779 H   0  0  0  0  0  0  0  0  0  0  0  0
   60.9813   34.7830   46.5882 H   0  0  0  0  0  0  0  0  0  0  0  0
   61.4593   33.2497   48.4907 H   0  0  0  0  0  0  0  0  0  0  0  0
   59.9082   31.3677   49.0014 H   0  0  0  0  0  0  0  0  0  0  0  0
   57.8763   31.0082   47.6092 H   0  0  0  0  0  0  0  0  0  0  0  0
   56.2250   33.0720   45.6610 H   0  0  0  0  0  0  0  0  0  0  0  0
   59.7318   30.5192   44.3675 H   0  0  0  0  0  0  0  0  0  0  0  0
   60.9794   28.5384   45.2276 H   0  0  0  0  0  0  0  0  0  0  0  0
   59.7544   26.6698   46.3362 H   0  0  0  0  0  0  0  0  0  0  0  0
   56.1279   24.7510   45.8873 H   0  0  0  0  0  0  0  0  0  0  0  0
   56.0195   28.7848   45.7577 H   0  0  0  0  0  0  0  0  0  0  0  0
  1  2  1  0
  2  3  2  0
  3  4  1  0
  4  5  2  0
  5  6  1  0
  6  7  2  0
  7  8  1  0
  8  9  1  0
  9 10  2  0
  9 11  2  0
  9 12  1  0
 12 13  2  0
 13 14  1  0
 14 15  2  0
 15 16  1  0
 16 17  1  0
 17 18  1  0
 18 19  2  0
 16 20  2  0
  7  2  1  0
 20 12  1  0
  1 21  1  0
  1 22  1  0
  1 23  1  0
  3 24  1  0
  4 25  1  0
  5 26  1  0
  6 27  1  0
  8 28  1  0
 13 29  1  0
 14 30  1  0
 15 31  1  0
 18 32  1  0
 20 33  1  0
M  CHG  1  17  -1
M  END
>  <UniqueID>  (9) 
9

>  <SMILES>  (9) 
Cc1ccccc1NS(=O)(=O)c1cccc([N-]C=O)c1

>  <Energy>  (9) 
40.6073918695447

>  <Genealogy>  (9) 
Cc1ccccc1NS(=O)(=O)c1cccc([N-]C=O)c1 (protonated)
Cc1ccccc1NS(=O)(=O)c1cccc([N-]C=O)c1 (3D coordinates assigned)
Cc1ccccc1NS(=O)(=O)c1cccc([N-]C=O)c1 (optimized conformer: 40.6073918695447 kcal/mol)

>  <smiles>  (9) 
Cc1ccccc1NS(=O)(=O)c1cccc(NC=O)c1

>  <score_type>  (9) 
oracle

>  <origin>  (9) 
adg

>  <m_score__min__energy>  (9) 
-9.6300000000000008

>  <m_primary>  (9) 
energy

$$$$
9:0
     RDKit          3D

 40 42  0  0  0  0  0  0  0  0999 V2000
   56.5730   30.1590   42.6420 O   0  0  0  0  0  0  0  0  0  0  0  0
   56.4670   30.0130   44.1330 S   0  0  0  0  0  0  0  0  0  0  0  0
   55.1370   29.3980   44.4670 O   0  0  0  0  0  0  0  0  0  0  0  0
   56.5700   31.5810   44.8660 N   0  0  0  0  0  0  0  0  0  0  0  0
   57.7550   32.1460   45.4410 C   0  0  0  0  0  0  0  0  0  0  0  0
   58.3930   33.2700   44.8980 C   0  0  0  0  0  0  0  0  0  0  0  0
   59.5490   33.7720   45.4950 C   0  0  0  0  0  0  0  0  0  0  0  0
   60.0640   33.1520   46.6430 C   0  0  0  0  0  0  0  0  0  0  0  0
   61.2610   33.6540   47.2680 N   0  0  0  0  0  0  0  0  0  0  0  0
   62.5330   33.6610   46.5360 C   0  0  0  0  0  0  0  0  0  0  0  0
   63.7130   33.8380   47.5030 C   0  0  0  0  0  0  0  0  0  0  0  0
   63.4920   33.0620   48.7300 N   0  0  0  0  0  0  0  0  0  0  0  0
   62.3240   33.5350   49.4990 C   0  0  0  0  0  0  0  0  0  0  0  0
   61.2300   34.1920   48.6330 C   0  0  0  0  0  0  0  0  0  0  0  0
   59.4290   32.0560   47.1530 N   0  0  0  0  0  0  0  0  0  0  0  0
   58.3010   31.5520   46.5840 C   0  0  0  0  0  0  0  0  0  0  0  0
   57.7470   28.9720   44.7570 C   0  0  0  0  0  0  0  0  0  0  0  0
   59.0940   29.3020   44.5410 C   0  0  0  0  0  0  0  0  0  0  0  0
   60.1080   28.4830   45.0480 C   0  0  0  0  0  0  0  0  0  0  0  0
   59.7830   27.3310   45.7680 C   0  0  0  0  0  0  0  0  0  0  0  0
   58.4450   26.9940   45.9810 C   0  0  0  0  0  0  0  0  0  0  0  0
   57.4260   27.8090   45.4770 C   0  0  0  0  0  0  0  0  0  0  0  0
   56.1310   27.4650   45.6910 F   0  0  0  0  0  0  0  0  0  0  0  0
   57.9818   33.7560   44.0010 H   0  0  0  0  0  0  0  0  0  0  0  0
   60.0548   34.6503   45.0675 H   0  0  0  0  0  0  0  0  0  0  0  0
   62.6460   32.7079   45.9986 H   0  0  0  0  0  0  0  0  0  0  0  0
   62.5282   34.5006   45.8254 H   0  0  0  0  0  0  0  0  0  0  0  0
   64.6358   33.4902   47.0158 H   0  0  0  0  0  0  0  0  0  0  0  0
   63.8016   34.9025   47.7658 H   0  0  0  0  0  0  0  0  0  0  0  0
   63.3400   32.0600   48.4640 H   0  0  0  0  0  0  0  0  0  0  0  0
   61.8816   32.6740   50.0215 H   0  0  0  0  0  0  0  0  0  0  0  0
   62.6894   34.3073   50.1919 H   0  0  0  0  0  0  0  0  0  0  0  0
   60.2452   33.9896   49.0793 H   0  0  0  0  0  0  0  0  0  0  0  0
   61.4129   35.2759   48.5918 H   0  0  0  0  0  0  0  0  0  0  0  0
   59.8240   31.5650   47.9870 H   0  0  0  0  0  0  0  0  0  0  0  0
   57.8141   30.6702   47.0261 H   0  0  0  0  0  0  0  0  0  0  0  0
   59.3528   30.2069   43.9716 H   0  0  0  0  0  0  0  0  0  0  0  0
   61.1627   28.7463   44.8796 H   0  0  0  0  0  0  0  0  0  0  0  0
   60.5818   26.6889   46.1675 H   0  0  0  0  0  0  0  0  0  0  0  0
   58.1915   26.0852   46.5466 H   0  0  0  0  0  0  0  0  0  0  0  0
  1  2  2  0
  2  3  2  0
  2  4  1  0
  4  5  1  0
  5  6  2  0
  6  7  1  0
  7  8  2  0
  8  9  1  0
  9 10  1  0
 10 11  1  0
 11 12  1  0
 12 13  1  0
 13 14  1  0
  8 15  1  0
 15 16  2  0
  2 17  1  0
 17 18  2  0
 18 19  1  0
 19 20  2  0
 20 21  1  0
 21 22  2  0
 22 23  1  0
 16  5  1  0
 22 17  1  0
 14  9  1  0
  6 24  1  0
  7 25  1  0
 10 26  1  0
 10 27  1  0
 11 28  1  0
 11 29  1  0
 12 30  1  0
 13 31  1  0
 13 32  1  0
 14 33  1  0
 14 34  1  0
 15 35  1  0
 16 36  1  0
 18 37  1  0
 19 38  1  0
 20 39  1  0
 21 40  1  0
M  CHG  2   4  -1  15   1
M  END
>  <UniqueID>  (10) 
10

>  <SMILES>  (10) 
O=S(=O)([N-]c1ccc(N2CCNCC2)[nH+]c1)c1ccccc1F

>  <Energy>  (10) 
53.06380709965546

>  <Genealogy>  (10) 
O=S(=O)([N-]c1ccc(N2CCNCC2)[nH+]c1)c1ccccc1F (protonated)
O=S(=O)([N-]c1ccc(N2CCNCC2)[nH+]c1)c1ccccc1F (3D coordinates assigned)
O=S(=O)([N-]c1ccc(N2CCNCC2)[nH+]c1)c1ccccc1F (nonaromatic ring conformer: 53.06380709965546 kcal/mol)

>  <smiles>  (10) 
O=S(=O)(Nc1ccc(N2CCNCC2)nc1)c1ccccc1F

>  <score_type>  (10) 
oracle

>  <origin>  (10) 
adg

>  <m_score__min__energy>  (10) 
-8.2100000000000009

>  <m_primary>  (10) 
energy

$$$$
10:0
     RDKit          3D

 33 34  0  0  0  0  0  0  0  0999 V2000
   59.1140   34.9010   45.8350 O   0  0  0  0  0  0  0  0  0  0  0  0
   58.6650   33.5990   45.6420 C   0  0  0  0  0  0  0  0  0  0  0  0
   57.3970   33.3860   45.0970 C   0  0  0  0  0  0  0  0  0  0  0  0
   56.9240   32.0880   44.9010 C   0  0  0  0  0  0  0  0  0  0  0  0
   57.7290   30.9820   45.2290 C   0  0  0  0  0  0  0  0  0  0  0  0
   59.0050   31.1950   45.7830 C   0  0  0  0  0  0  0  0  0  0  0  0
   59.4740   32.5060   45.9980 C   0  0  0  0  0  0  0  0  0  0  0  0
   60.7330   32.7130   46.5660 O   0  0  0  0  0  0  0  0  0  0  0  0
   59.8070   29.9870   46.2000 C   0  0  0  0  0  0  0  0  0  0  0  0
   59.7670   28.8960   45.1190 C   0  0  0  0  0  0  0  0  0  0  0  0
   58.3640   28.6760   44.4610 C   0  0  1  0  0  0  0  0  0  0  0  0
   57.9480   27.2610   44.5250 N   0  0  0  0  0  0  0  0  0  0  0  0
   57.8920   26.7460   45.9030 C   0  0  0  0  0  0  0  0  0  0  0  0
   56.4740   26.2870   46.2520 C   0  0  0  0  0  0  0  0  0  0  0  0
   55.5220   27.1030   45.6230 O   0  0  0  0  0  0  0  0  0  0  0  0
   57.2450   29.5550   45.0730 C   0  0  2  0  0  0  0  0  0  0  0  0
   56.1050   29.5020   44.2520 O   0  0  0  0  0  0  0  0  0  0  0  0
   56.7683   34.2454   44.8210 H   0  0  0  0  0  0  0  0  0  0  0  0
   55.9169   31.9288   44.4881 H   0  0  0  0  0  0  0  0  0  0  0  0
   61.1080   33.6410   46.7230 H   0  0  0  0  0  0  0  0  0  0  0  0
   60.8514   30.2893   46.3667 H   0  0  0  0  0  0  0  0  0  0  0  0
   59.3701   29.5796   47.1237 H   0  0  0  0  0  0  0  0  0  0  0  0
   60.4772   29.1735   44.3262 H   0  0  0  0  0  0  0  0  0  0  0  0
   60.0251   27.9521   45.6215 H   0  0  0  0  0  0  0  0  0  0  0  0
   58.4956   28.9818   43.4126 H   0  0  0  0  0  0  0  0  0  0  0  0
   57.0090   27.1510   44.0750 H   0  0  0  0  0  0  0  0  0  0  0  0
   58.5811   25.8939   45.9983 H   0  0  0  0  0  0  0  0  0  0  0  0
   58.1830   27.5513   46.5935 H   0  0  0  0  0  0  0  0  0  0  0  0
   56.3376   25.2482   45.9170 H   0  0  0  0  0  0  0  0  0  0  0  0
   56.3367   26.3568   47.3412 H   0  0  0  0  0  0  0  0  0  0  0  0
   55.9360   27.4260   44.7790 H   0  0  0  0  0  0  0  0  0  0  0  0
   56.9821   29.1717   46.0700 H   0  0  0  0  0  0  0  0  0  0  0  0
   55.9680   28.5500   44.0070 H   0  0  0  0  0  0  0  0  0  0  0  0
  1  2  1  0
  2  3  2  0
  3  4  1  0
  4  5  2  0
  5  6  1  0
  6  7  2  0
  7  8  1  0
  6  9  1  0
  9 10  1  0
 10 11  1  0
 11 12  1  0
 12 13  1  0
 13 14  1  0
 14 15  1  0
 11 16  1  0
 16 17  1  0
  7  2  1  0
 16  5  1  0
  3 18  1  0
  4 19  1  0
  8 20  1  0
  9 21  1  0
  9 22  1  0
 10 23  1  0
 10 24  1  0
 11 25  1  6
 12 26  1  0
 13 27  1  0
 13 28  1  0
 14 29  1  0
 14 30  1  0
 15 31  1  0
 16 32  1  1
 17 33  1  0
M  CHG  1   1  -1
M  END
>  <UniqueID>  (11) 
11

>  <SMILES>  (11) 
[O-]c1ccc2c(c1O)CC[C@@H](NCCO)[C@@H]2O

>  <Energy>  (11) 
39.988748200179934

>  <Genealogy>  (11) 
[O-]c1ccc2c(c1O)CCC(NCCO)C2O (protonated)
[O-]c1ccc2c(c1O)CC[C@@H](NCCO)[C@@H]2O (chirality)
[O-]c1ccc2c(c1O)CC[C@@H](NCCO)[C@@H]2O (3D coordinates assigned)
[O-]c1ccc2c(c1O)CC[C@@H](NCCO)[C@@H]2O (nonaromatic ring conformer: 39.988748200179934 kcal/mol)

>  <smiles>  (11) 
OCCNC1CCc2c(ccc(O)c2O)C1O

>  <score_type>  (11) 
oracle

>  <origin>  (11) 
adg

>  <m_score__min__energy>  (11) 
-7.4800000000000004

>  <m_primary>  (11) 
energy

$$$$
11:0
     RDKit          3D

 36 39  0  0  0  0  0  0  0  0999 V2000
   53.8560   29.1070   52.0770 O   0  0  0  0  0  0  0  0  0  0  0  0
   54.2790   30.2700   51.8360 C   0  0  0  0  0  0  0  0  0  0  0  0
   53.4470   31.2040   50.9890 C   0  0  0  0  0  0  0  0  0  0  0  0
   52.2030   31.6540   51.6960 C   0  0  0  0  0  0  0  0  0  0  0  0
   51.9860   31.5030   53.0150 N   0  0  0  0  0  0  0  0  0  0  0  0
   50.7870   32.0990   53.2010 C   0  0  0  0  0  0  0  0  0  0  0  0
   50.2290   32.1600   54.3280 O   0  0  0  0  0  0  0  0  0  0  0  0
   50.2350   32.6270   52.0860 N   0  0  0  0  0  0  0  0  0  0  0  0
   51.1480   32.3400   51.1450 C   0  0  0  0  0  0  0  0  0  0  0  0
   51.0230   32.7050   49.8100 O   0  0  0  0  0  0  0  0  0  0  0  0
   55.5540   30.6520   52.3810 N   0  0  0  0  0  0  0  0  0  0  0  0
   56.7370   30.2860   51.9830 C   0  0  0  0  0  0  0  0  0  0  0  0
   57.5200   29.4020   52.6430 N   0  0  0  0  0  0  0  0  0  0  0  0
   58.6390   29.3500   51.9010 C   0  0  0  0  0  0  0  0  0  0  0  0
   58.5010   30.1930   50.8230 C   0  0  0  0  0  0  0  0  0  0  0  0
   59.5460   30.4870   49.7970 C   0  0  0  0  0  0  0  0  0  0  0  0
   59.4230   31.9050   49.3310 C   0  0  0  0  0  0  0  0  0  0  0  0
   59.6660   33.0530   50.0850 C   0  0  0  0  0  0  0  0  0  0  0  0
   59.3690   34.1620   49.3680 N   0  0  0  0  0  0  0  0  0  0  0  0
   58.9310   33.7170   48.1790 C   0  0  0  0  0  0  0  0  0  0  0  0
   58.4950   34.4850   47.1500 N   0  0  0  0  0  0  0  0  0  0  0  0
   58.0530   33.8740   46.0080 C   0  0  0  0  0  0  0  0  0  0  0  0
   58.0450   32.4650   45.9050 C   0  0  0  0  0  0  0  0  0  0  0  0
   57.6000   31.8690   44.7710 F   0  0  0  0  0  0  0  0  0  0  0  0
   58.4950   31.6810   46.9820 C   0  0  0  0  0  0  0  0  0  0  0  0
   58.9410   32.3520   48.1170 C   0  0  0  0  0  0  0  0  0  0  0  0
   57.3040   30.8030   50.8750 N   0  0  0  0  0  0  0  0  0  0  0  0
   54.0515   32.0882   50.7385 H   0  0  0  0  0  0  0  0  0  0  0  0
   53.1421   30.6578   50.0842 H   0  0  0  0  0  0  0  0  0  0  0  0
   59.5228   28.7329   52.1203 H   0  0  0  0  0  0  0  0  0  0  0  0
   60.5422   30.3336   50.2376 H   0  0  0  0  0  0  0  0  0  0  0  0
   59.4091   29.8122   48.9391 H   0  0  0  0  0  0  0  0  0  0  0  0
   60.0457   33.0566   51.1174 H   0  0  0  0  0  0  0  0  0  0  0  0
   59.4480   35.1550   49.6820 H   0  0  0  0  0  0  0  0  0  0  0  0
   57.7012   34.4848   45.1635 H   0  0  0  0  0  0  0  0  0  0  0  0
   58.4946   30.5822   46.9297 H   0  0  0  0  0  0  0  0  0  0  0  0
  1  2  2  0
  2  3  1  0
  3  4  1  0
  4  5  1  0
  5  6  1  0
  6  7  2  0
  6  8  1  0
  8  9  1  0
  9 10  1  0
  2 11  1  0
 11 12  2  3
 12 13  1  0
 13 14  1  0
 14 15  2  0
 15 16  1  0
 16 17  1  0
 17 18  2  0
 18 19  1  0
 19 20  1  0
 20 21  2  0
 21 22  1  0
 22 23  2  0
 23 24  1  0
 23 25  1  0
 25 26  2  0
 15 27  1  0
  9  4  2  0
 27 12  1  0
 26 17  1  0
 26 20  1  0
  3 28  1  0
  3 29  1  0
 14 30  1  0
 16 31  1  0
 16 32  1  0
 18 33  1  0
 19 34  1  0
 22 35  1  0
 25 36  1  0
M  CHG  5   5  -1   8  -1  10  -1  13  -1  27  -1
M  END
>  <UniqueID>  (12) 
12

>  <SMILES>  (12) 
O=C(Cc1[n-]c(=O)[n-]c1[O-])N=c1[n-]cc(Cc2c[nH]c3ncc(F)cc23)[n-]1

>  <Energy>  (12) 
133.58332920568694

>  <Genealogy>  (12) 
O=C(Cc1[n-]c(=O)[n-]c1[O-])N=c1[n-]cc(Cc2c[nH]c3ncc(F)cc23)[n-]1 (protonated)
O=C(Cc1[n-]c(=O)[n-]c1[O-])N=c1[n-]cc(Cc2c[nH]c3ncc(F)cc23)[n-]1 (3D coordinates assigned)
O=C(Cc1[n-]c(=O)[n-]c1[O-])N=c1[n-]cc(Cc2c[nH]c3ncc(F)cc23)[n-]1 (optimized conformer: 133.58332920568694 kcal/mol)

>  <smiles>  (12) 
O=C(Cc1[nH]c(=O)[nH]c1O)N=c1[nH]cc(Cc2c[nH]c3ncc(F)cc23)[nH]1

>  <score_type>  (12) 
oracle

>  <origin>  (12) 
adg

>  <m_score__min__energy>  (12) 
-19.059999999999999

>  <m_primary>  (12) 
energy

$$$$
12:0
     RDKit          3D

 38 39  0  0  0  0  0  0  0  0999 V2000
   59.6420   35.2610   45.6340 C   0  0  0  0  0  0  0  0  0  0  0  0
   58.8370   34.2100   46.3970 C   0  0  0  0  0  0  0  0  0  0  0  0
   58.4580   33.0580   45.4940 C   0  0  0  0  0  0  0  0  0  0  0  0
   58.1120   33.3470   44.1630 C   0  0  0  0  0  0  0  0  0  0  0  0
   57.7440   32.3310   43.2870 C   0  0  0  0  0  0  0  0  0  0  0  0
   57.7110   31.0090   43.7230 C   0  0  0  0  0  0  0  0  0  0  0  0
   58.0500   30.6860   45.0460 C   0  0  0  0  0  0  0  0  0  0  0  0
   57.9780   29.3210   45.4890 N   0  0  0  0  0  0  0  0  0  0  0  0
   56.7550   28.5670   45.5160 C   0  0  0  0  0  0  0  0  0  0  0  0
   55.6960   29.0510   45.0310 O   0  0  0  0  0  0  0  0  0  0  0  0
   56.7330   27.1670   46.0890 C   0  0  2  0  0  0  0  0  0  0  0  0
   57.7320   26.2490   45.3780 C   0  0  0  0  0  0  0  0  0  0  0  0
   56.8870   25.2010   44.6930 C   0  0  0  0  0  0  0  0  0  0  0  0
   55.5750   25.2160   45.4520 C   0  0  0  0  0  0  0  0  0  0  0  0
   55.3960   26.5580   46.0020 N   0  0  0  0  0  0  0  0  0  0  0  0
   58.4110   31.7140   45.9460 C   0  0  0  0  0  0  0  0  0  0  0  0
   58.8970   31.2700   47.6330 S   0  0  0  0  0  0  0  0  0  0  0  0
   60.6700   31.0640   47.2570 C   0  0  0  0  0  0  0  0  0  0  0  0
   60.1501   35.9243   46.3494 H   0  0  0  0  0  0  0  0  0  0  0  0
   60.3907   34.7615   45.0016 H   0  0  0  0  0  0  0  0  0  0  0  0
   58.9647   35.8538   45.0016 H   0  0  0  0  0  0  0  0  0  0  0  0
   59.4433   33.8285   47.2318 H   0  0  0  0  0  0  0  0  0  0  0  0
   57.9157   34.6787   46.7730 H   0  0  0  0  0  0  0  0  0  0  0  0
   58.1324   34.3886   43.8098 H   0  0  0  0  0  0  0  0  0  0  0  0
   57.4784   32.5726   42.2472 H   0  0  0  0  0  0  0  0  0  0  0  0
   57.4169   30.2114   43.0249 H   0  0  0  0  0  0  0  0  0  0  0  0
   58.8630   28.8370   45.7540 H   0  0  0  0  0  0  0  0  0  0  0  0
   57.0165   27.2699   47.1469 H   0  0  0  0  0  0  0  0  0  0  0  0
   58.3184   26.8152   44.6394 H   0  0  0  0  0  0  0  0  0  0  0  0
   58.4523   25.8029   46.0795 H   0  0  0  0  0  0  0  0  0  0  0  0
   56.7276   25.4600   43.6359 H   0  0  0  0  0  0  0  0  0  0  0  0
   57.3632   24.2094   44.7002 H   0  0  0  0  0  0  0  0  0  0  0  0
   54.7452   24.9764   44.7708 H   0  0  0  0  0  0  0  0  0  0  0  0
   55.5872   24.4675   46.2580 H   0  0  0  0  0  0  0  0  0  0  0  0
   54.7790   27.0930   45.3450 H   0  0  0  0  0  0  0  0  0  0  0  0
   61.2387   30.9979   48.1962 H   0  0  0  0  0  0  0  0  0  0  0  0
   60.8166   30.1428   46.6740 H   0  0  0  0  0  0  0  0  0  0  0  0
   61.0239   31.9271   46.6740 H   0  0  0  0  0  0  0  0  0  0  0  0
  1  2  1  0
  2  3  1  0
  3  4  2  0
  4  5  1  0
  5  6  2  0
  6  7  1  0
  7  8  1  0
  8  9  1  0
  9 10  2  0
  9 11  1  0
 11 12  1  0
 12 13  1  0
 13 14  1  0
 14 15  1  0
  7 16  2  0
 16 17  1  0
 17 18  1  0
 16  3  1  0
 15 11  1  0
  1 19  1  0
  1 20  1  0
  1 21  1  0
  2 22  1  0
  2 23  1  0
  4 24  1  0
  5 25  1  0
  6 26  1  0
  8 27  1  0
 11 28  1  1
 12 29  1  0
 12 30  1  0
 13 31  1  0
 13 32  1  0
 14 33  1  0
 14 34  1  0
 15 35  1  0
 18 36  1  0
 18 37  1  0
 18 38  1  0
M  END
>  <UniqueID>  (13) 
13

>  <SMILES>  (13) 
CCc1cccc(NC(=O)[C@@H]2CCCN2)c1SC

>  <Energy>  (13) 
37.958179168272686

>  <Genealogy>  (13) 
CCc1cccc(NC(=O)[C@@H]2CCCN2)c1SC (chirality)
CCc1cccc(NC(=O)[C@@H]2CCCN2)c1SC (3D coordinates assigned)
CCc1cccc(NC(=O)[C@@H]2CCCN2)c1SC (nonaromatic ring conformer: 37.958179168272686 kcal/mol)

>  <smiles>  (13) 
CCc1cccc(NC(=O)C2CCCN2)c1SC

>  <score_type>  (13) 
oracle

>  <origin>  (13) 
adg

>  <m_score__min__energy>  (13) 
-7.21

>  <m_primary>  (13) 
energy

$$$$
13:0
     RDKit          3D

 34 35  0  0  0  0  0  0  0  0999 V2000
   57.9660   32.7160   42.3950 O   0  0  0  0  0  0  0  0  0  0  0  0
   57.6870   32.2110   43.5140 C   0  0  0  0  0  0  0  0  0  0  0  0
   57.7160   30.7150   43.6640 C   0  0  0  0  0  0  0  0  0  0  0  0
   57.1020   30.3300   44.9280 N   0  0  0  0  0  0  0  0  0  0  0  0
   56.3800   29.1100   45.1160 C   0  0  0  0  0  0  0  0  0  0  0  0
   55.1530   29.0660   44.8220 O   0  0  0  0  0  0  0  0  0  0  0  0
   57.0700   27.8920   45.6150 C   0  0  0  0  0  0  0  0  0  0  0  0
   58.4770   27.8740   45.6840 C   0  0  0  0  0  0  0  0  0  0  0  0
   59.1530   26.7570   46.1820 C   0  0  0  0  0  0  0  0  0  0  0  0
   58.4360   25.6420   46.6190 C   0  0  0  0  0  0  0  0  0  0  0  0
   57.0430   25.6380   46.5510 C   0  0  0  0  0  0  0  0  0  0  0  0
   56.3550   26.7490   46.0490 C   0  0  0  0  0  0  0  0  0  0  0  0
   54.9680   26.6920   45.9790 O   0  0  0  0  0  0  0  0  0  0  0  0
   57.3290   33.0840   44.5970 N   0  0  0  0  0  0  0  0  0  0  0  0
   58.2360   33.6470   45.5550 C   0  0  0  0  0  0  0  0  0  0  0  0
   58.8800   34.8680   45.3020 C   0  0  0  0  0  0  0  0  0  0  0  0
   59.7730   35.3960   46.2330 C   0  0  0  0  0  0  0  0  0  0  0  0
   60.0350   34.7110   47.4190 C   0  0  0  0  0  0  0  0  0  0  0  0
   59.3950   33.4930   47.6980 C   0  0  0  0  0  0  0  0  0  0  0  0
   59.7380   32.7810   48.8960 N   0  0  0  0  0  0  0  0  0  0  0  0
   59.1510   33.0370   49.9690 O   0  0  0  0  0  0  0  0  0  0  0  0
   60.5200   31.6520   48.8240 O   0  0  0  0  0  0  0  0  0  0  0  0
   58.4550   32.9800   46.7710 C   0  0  0  0  0  0  0  0  0  0  0  0
   57.7200   31.8210   47.0340 O   0  0  0  0  0  0  0  0  0  0  0  0
   57.1604   30.2546   42.8337 H   0  0  0  0  0  0  0  0  0  0  0  0
   58.7605   30.3704   43.6497 H   0  0  0  0  0  0  0  0  0  0  0  0
   59.0497   28.7487   45.3421 H   0  0  0  0  0  0  0  0  0  0  0  0
   60.2520   26.7564   46.2297 H   0  0  0  0  0  0  0  0  0  0  0  0
   58.9697   24.7664   47.0171 H   0  0  0  0  0  0  0  0  0  0  0  0
   56.4815   24.7565   46.8939 H   0  0  0  0  0  0  0  0  0  0  0  0
   58.6794   35.4100   44.3661 H   0  0  0  0  0  0  0  0  0  0  0  0
   60.2722   36.3553   46.0317 H   0  0  0  0  0  0  0  0  0  0  0  0
   60.7500   35.1290   48.1429 H   0  0  0  0  0  0  0  0  0  0  0  0
   57.0160   31.4570   46.4060 H   0  0  0  0  0  0  0  0  0  0  0  0
  1  2  2  0
  2  3  1  0
  3  4  1  0
  4  5  1  0
  5  6  2  0
  5  7  1  0
  7  8  2  0
  8  9  1  0
  9 10  2  0
 10 11  1  0
 11 12  2  0
 12 13  1  0
  2 14  1  0
 14 15  1  0
 15 16  2  0
 16 17  1  0
 17 18  2  0
 18 19  1  0
 19 20  1  0
 20 21  2  0
 20 22  1  0
 19 23  2  0
 23 24  1  0
 12  7  1  0
 23 15  1  0
  3 25  1  0
  3 26  1  0
  8 27  1  0
  9 28  1  0
 10 29  1  0
 11 30  1  0
 16 31  1  0
 17 32  1  0
 18 33  1  0
 24 34  1  0
M  CHG  5   4  -1  13  -1  14  -1  20   1  22  -1
M  END
>  <UniqueID>  (14) 
14

>  <SMILES>  (14) 
O=C(C[N-]C(=O)c1ccccc1[O-])[N-]c1cccc([N+](=O)[O-])c1O

>  <Energy>  (14) 
43.9423442807372

>  <Genealogy>  (14) 
O=C(C[N-]C(=O)c1ccccc1[O-])[N-]c1cccc([N+](=O)[O-])c1O (protonated)
O=C(C[N-]C(=O)c1ccccc1[O-])[N-]c1cccc([N+](=O)[O-])c1O (3D coordinates assigned)
O=C(C[N-]C(=O)c1ccccc1[O-])[N-]c1cccc([N+](=O)[O-])c1O (optimized conformer: 43.9423442807372 kcal/mol)

>  <smiles>  (14) 
O=C(CNC(=O)c1ccccc1O)Nc1cccc([N+](=O)[O-])c1O

>  <score_type>  (14) 
oracle

>  <origin>  (14) 
adg

>  <m_score__min__energy>  (14) 
-13.470000000000001

>  <m_primary>  (14) 
energy

$$$$
14:0
     RDKit          3D

 56 59  0  0  1  0  0  0  0  0999 V2000
   57.4830   24.1600   44.7120 C   0  0  0  0  0  0  0  0  0  0  0  0
   57.2070   24.5710   45.9370 C   0  0  0  0  0  0  0  0  0  0  0  0
   57.0230   25.9580   46.3220 C   0  0  0  0  0  0  0  0  0  0  0  0
   55.8190   26.3970   46.2520 O   0  0  0  0  0  0  0  0  0  0  0  0
   58.0760   26.8050   46.7530 N   0  0  0  0  0  0  0  0  0  0  0  0
   59.4960   26.8010   46.9900 C   0  0  0  0  0  0  0  0  0  0  0  0
   59.5020   28.2550   47.4160 C   0  0  0  0  0  0  0  0  0  0  0  0
   59.9500   28.5010   48.7180 O   0  0  0  0  0  0  0  0  0  0  0  0
   60.7760   29.5840   48.9750 C   0  0  0  0  0  0  0  0  0  0  0  0
   60.8390   30.6910   48.1070 C   0  0  0  0  0  0  0  0  0  0  0  0
   61.6790   31.7130   48.4380 C   0  0  0  0  0  0  0  0  0  0  0  0
   61.7890   32.8230   47.6370 C   0  0  0  0  0  0  0  0  0  0  0  0
   61.1350   32.9270   46.6050 N   0  0  0  0  0  0  0  0  0  0  0  0
   59.8170   32.9360   46.2220 C   0  0  0  0  0  0  0  0  0  0  0  0
   59.2610   31.7240   45.7400 C   0  0  0  0  0  0  0  0  0  0  0  0
   57.9770   31.6790   45.2570 C   0  0  0  0  0  0  0  0  0  0  0  0
   57.3660   30.4530   44.7510 C   0  0  0  0  0  0  0  0  0  0  0  0
   56.0950   30.3100   44.7450 O   0  0  0  0  0  0  0  0  0  0  0  0
   58.1150   29.3710   44.2470 N   0  0  0  0  0  0  0  0  0  0  0  0
   57.4010   28.1920   43.7660 C   0  0  0  0  0  0  0  0  0  0  0  0
   58.3440   27.2570   43.0150 C   0  0  0  0  0  0  0  0  0  0  0  0
   57.2300   32.8390   45.2490 C   0  0  0  0  0  0  0  0  0  0  0  0
   57.7190   34.0470   45.7060 C   0  0  0  0  0  0  0  0  0  0  0  0
   59.0100   34.1000   46.1940 C   0  0  0  0  0  0  0  0  0  0  0  0
   59.6450   35.3300   46.7100 C   0  0  0  0  0  0  0  0  0  0  0  0
   62.6340   33.8230   47.9930 N   0  0  0  0  0  0  0  0  0  0  0  0
   63.3880   33.7990   49.1000 C   0  0  0  0  0  0  0  0  0  0  0  0
   63.2900   32.7150   49.8940 N   0  0  0  0  0  0  0  0  0  0  0  0
   62.4580   31.7030   49.5690 C   0  0  0  0  0  0  0  0  0  0  0  0
   62.3820   30.6140   50.3980 C   0  0  0  0  0  0  0  0  0  0  0  0
   61.5500   29.6300   50.0500 N   0  0  0  0  0  0  0  0  0  0  0  0
   58.0390   28.2170   47.1710 C   0  0  0  0  0  0  0  0  0  0  0  0
   57.6069   23.0864   44.5069 H   0  0  0  0  0  0  0  0  0  0  0  0
   57.5889   24.8914   43.8972 H   0  0  0  0  0  0  0  0  0  0  0  0
   57.1096   23.8065   46.7218 H   0  0  0  0  0  0  0  0  0  0  0  0
   59.8053   26.1094   47.7875 H   0  0  0  0  0  0  0  0  0  0  0  0
   60.1696   26.4805   46.1816 H   0  0  0  0  0  0  0  0  0  0  0  0
   60.1387   29.0246   46.9552 H   0  0  0  0  0  0  0  0  0  0  0  0
   60.2303   30.7301   47.1916 H   0  0  0  0  0  0  0  0  0  0  0  0
   59.8675   30.8064   45.7533 H   0  0  0  0  0  0  0  0  0  0  0  0
   59.1460   29.4060   44.2170 H   0  0  0  0  0  0  0  0  0  0  0  0
   56.9699   27.6562   44.6245 H   0  0  0  0  0  0  0  0  0  0  0  0
   56.6056   28.5171   43.0792 H   0  0  0  0  0  0  0  0  0  0  0  0
   58.9332   26.6728   43.7372 H   0  0  0  0  0  0  0  0  0  0  0  0
   57.7570   26.5742   42.3831 H   0  0  0  0  0  0  0  0  0  0  0  0
   59.0218   27.8498   42.3831 H   0  0  0  0  0  0  0  0  0  0  0  0
   56.2010   32.8000   44.8621 H   0  0  0  0  0  0  0  0  0  0  0  0
   57.0918   34.9504   45.6818 H   0  0  0  0  0  0  0  0  0  0  0  0
   59.6364   35.3134   47.8098 H   0  0  0  0  0  0  0  0  0  0  0  0
   60.6838   35.3842   46.3522 H   0  0  0  0  0  0  0  0  0  0  0  0
   59.0876   36.2082   46.3522 H   0  0  0  0  0  0  0  0  0  0  0  0
   62.7270   34.6760   47.3910 H   0  0  0  0  0  0  0  0  0  0  0  0
   64.0611   34.6321   49.3510 H   0  0  0  0  0  0  0  0  0  0  0  0
   62.9845   30.5533   51.3163 H   0  0  0  0  0  0  0  0  0  0  0  0
   57.4382   28.3908   48.0759 H   0  0  0  0  0  0  0  0  0  0  0  0
   57.5926   28.9611   46.4950 H   0  0  0  0  0  0  0  0  0  0  0  0
  1  2  2  0
  2  3  1  0
  3  4  2  0
  3  5  1  0
  5  6  1  0
  6  7  1  0
  7  8  1  0
  8  9  1  0
  9 10  2  0
 10 11  1  0
 11 12  1  0
 12 13  2  0
 13 14  1  0
 14 15  2  0
 15 16  1  0
 16 17  1  0
 17 18  2  0
 17 19  1  0
 19 20  1  0
 20 21  1  0
 16 22  2  0
 22 23  1  0
 23 24  2  0
 24 25  1  0
 12 26  1  0
 26 27  1  0
 27 28  2  0
 28 29  1  0
 29 30  1  0
 30 31  2  0
  7 32  1  0
 32  5  1  0
 31  9  1  0
 29 11  2  0
 24 14  1  0
  1 33  1  0
  1 34  1  0
  2 35  1  0
  6 36  1  0
  6 37  1  0
  7 38  1  0
 10 39  1  0
 15 40  1  0
 19 41  1  0
 20 42  1  0
 20 43  1  0
 21 44  1  0
 21 45  1  0
 21 46  1  0
 22 47  1  0
 23 48  1  0
 25 49  1  0
 25 50  1  0
 25 51  1  0
 26 52  1  0
 27 53  1  0
 30 54  1  0
 32 55  1  0
 32 56  1  0
M  END
>  <smiles>  (15) 
C=CC(=O)N1CC(Oc2cc3c(=Nc4cc(C(=O)NCC)ccc4C)[nH]cnc3cn2)C1

>  <score_type>  (15) 
oracle

>  <origin>  (15) 
adg

>  <m_score__min__energy>  (15) 
-9.0500000000000007

>  <m_primary>  (15) 
energy

$$$$
15:0
     RDKit          3D

 32 34  0  0  0  0  0  0  0  0999 V2000
   55.1770   29.3340   44.8350 N   0  0  0  0  0  0  0  0  0  0  0  0
   56.8350   29.5220   44.3840 S   0  0  0  0  0  0  0  0  0  0  0  0
   56.9300   29.5190   42.8840 O   0  0  0  0  0  0  0  0  0  0  0  0
   57.6370   28.3780   44.9360 O   0  0  0  0  0  0  0  0  0  0  0  0
   57.4610   31.0380   45.0240 C   0  0  0  0  0  0  0  0  0  0  0  0
   57.3320   32.2200   44.2820 C   0  0  0  0  0  0  0  0  0  0  0  0
   57.8240   33.4260   44.7900 C   0  0  0  0  0  0  0  0  0  0  0  0
   58.4450   33.4580   46.0440 C   0  0  0  0  0  0  0  0  0  0  0  0
   59.0840   35.0030   46.6910 S   0  0  0  0  0  0  0  0  0  0  0  0
   60.5930   34.2340   47.2620 C   0  0  0  0  0  0  0  0  0  0  0  0
   61.6490   34.1050   46.4150 N   0  0  0  0  0  0  0  0  0  0  0  0
   62.8050   33.5150   46.8150 C   0  0  0  0  0  0  0  0  0  0  0  0
   63.7610   33.4140   45.9990 O   0  0  0  0  0  0  0  0  0  0  0  0
   62.9190   33.0250   48.1270 C   0  0  0  0  0  0  0  0  0  0  0  0
   64.0870   32.4010   48.6020 C   0  0  0  0  0  0  0  0  0  0  0  0
   64.1430   31.9320   49.9180 C   0  0  0  0  0  0  0  0  0  0  0  0
   63.0390   32.0790   50.7700 C   0  0  0  0  0  0  0  0  0  0  0  0
   63.0890   31.6130   52.0820 O   0  0  0  0  0  0  0  0  0  0  0  0
   61.8750   32.6980   50.3020 C   0  0  0  0  0  0  0  0  0  0  0  0
   61.8100   33.1710   48.9870 C   0  0  0  0  0  0  0  0  0  0  0  0
   60.6790   33.7710   48.5340 N   0  0  0  0  0  0  0  0  0  0  0  0
   58.5650   32.2810   46.7920 C   0  0  0  0  0  0  0  0  0  0  0  0
   58.0740   31.0740   46.2850 C   0  0  0  0  0  0  0  0  0  0  0  0
   55.1510   28.6460   45.6220 H   0  0  0  0  0  0  0  0  0  0  0  0
   56.8423   32.1987   43.2972 H   0  0  0  0  0  0  0  0  0  0  0  0
   57.7229   34.3510   44.2034 H   0  0  0  0  0  0  0  0  0  0  0  0
   64.9560   32.2821   47.9382 H   0  0  0  0  0  0  0  0  0  0  0  0
   65.0578   31.4452   50.2869 H   0  0  0  0  0  0  0  0  0  0  0  0
   62.2840   31.1790   52.5210 H   0  0  0  0  0  0  0  0  0  0  0  0
   61.0085   32.8131   50.9698 H   0  0  0  0  0  0  0  0  0  0  0  0
   59.0465   32.3057   47.7807 H   0  0  0  0  0  0  0  0  0  0  0  0
   58.1686   30.1511   46.8761 H   0  0  0  0  0  0  0  0  0  0  0  0
  1  2  1  0
  2  3  2  0
  2  4  2  0
  2  5  1  0
  5  6  2  0
  6  7  1  0
  7  8  2  0
  8  9  1  0
  9 10  1  0
 10 11  2  0
 11 12  1  0
 12 13  2  0
 12 14  1  0
 14 15  2  0
 15 16  1  0
 16 17  2  0
 17 18  1  0
 17 19  1  0
 19 20  2  0
 20 21  1  0
  8 22  1  0
 22 23  2  0
 23  5  1  0
 21 10  1  0
 20 14  1  0
  1 24  1  0
  6 25  1  0
  7 26  1  0
 15 27  1  0
 16 28  1  0
 18 29  1  0
 19 30  1  0
 22 31  1  0
 23 32  1  0
M  CHG  2   1  -1  21  -1
M  END
>  <UniqueID>  (16) 
15

>  <SMILES>  (16) 
[NH-]S(=O)(=O)c1ccc(Sc2nc(=O)c3ccc(O)cc3[n-]2)cc1

>  <Energy>  (16) 
34.52034924264581

>  <Genealogy>  (16) 
[NH-]S(=O)(=O)c1ccc(Sc2nc(=O)c3ccc(O)cc3[n-]2)cc1 (protonated)
[NH-]S(=O)(=O)c1ccc(Sc2nc(=O)c3ccc(O)cc3[n-]2)cc1 (3D coordinates assigned)
[NH-]S(=O)(=O)c1ccc(Sc2nc(=O)c3ccc(O)cc3[n-]2)cc1 (optimized conformer: 34.52034924264581 kcal/mol)

>  <smiles>  (16) 
NS(=O)(=O)c1ccc(Sc2nc(=O)c3ccc(O)cc3[nH]2)cc1

>  <score_type>  (16) 
oracle

>  <origin>  (16) 
adg

>  <m_score__min__energy>  (16) 
-11.880000000000001

>  <m_primary>  (16) 
energy

$$$$
16:0
     RDKit          3D

 44 46  0  0  1  0  0  0  0  0999 V2000
   53.7490   24.8350   45.6140 C   0  0  0  0  0  0  0  0  0  0  0  0
   54.7970   25.7190   45.8830 O   0  0  0  0  0  0  0  0  0  0  0  0
   56.1060   25.2680   45.8040 C   0  0  0  0  0  0  0  0  0  0  0  0
   56.3640   23.9140   45.7600 C   0  0  0  0  0  0  0  0  0  0  0  0
   57.6350   23.3870   45.6820 C   0  0  0  0  0  0  0  0  0  0  0  0
   58.6750   24.2900   45.6470 C   0  0  0  0  0  0  0  0  0  0  0  0
   58.4150   25.6640   45.6930 C   0  0  0  0  0  0  0  0  0  0  0  0
   57.1500   26.1810   45.7700 C   0  0  0  0  0  0  0  0  0  0  0  0
   56.8220   27.5510   45.8180 N   0  0  0  0  0  0  0  0  0  0  0  0
   57.4210   28.5800   45.0540 C   0  0  0  0  0  0  0  0  0  0  0  0
   58.3380   28.3790   44.2250 O   0  0  0  0  0  0  0  0  0  0  0  0
   56.9840   29.9260   45.2070 N   0  0  0  0  0  0  0  0  0  0  0  0
   57.3940   30.8360   44.4170 C   0  0  0  0  0  0  0  0  0  0  0  0
   57.5860   30.6310   43.0930 N   0  0  0  0  0  0  0  0  0  0  0  0
   58.0100   31.7460   42.5300 N   0  0  0  0  0  0  0  0  0  0  0  0
   58.0990   32.7000   43.4990 C   0  0  0  0  0  0  0  0  0  0  0  0
   57.7090   32.1380   44.7190 C   0  0  0  0  0  0  0  0  0  0  0  0
   57.6750   32.8520   45.9840 C   0  0  0  0  0  0  0  0  0  0  0  0
   56.6250   33.4430   46.4110 O   0  0  0  0  0  0  0  0  0  0  0  0
   58.8370   32.9220   46.8100 N   0  0  0  0  0  0  0  0  0  0  0  0
   60.0990   32.2880   46.4310 C   0  0  0  0  0  0  0  0  0  0  0  0
   61.1460   33.3630   46.4410 C   0  0  0  0  0  0  0  0  0  0  0  0
   60.6280   34.6150   46.7750 O   0  0  0  0  0  0  0  0  0  0  0  0
   60.0770   34.5260   48.0620 C   0  0  0  0  0  0  0  0  0  0  0  0
   58.8350   33.6310   48.0770 C   0  0  0  0  0  0  0  0  0  0  0  0
   53.3213   24.4743   46.5611 H   0  0  0  0  0  0  0  0  0  0  0  0
   52.9712   25.3539   45.0346 H   0  0  0  0  0  0  0  0  0  0  0  0
   54.1294   23.9809   45.0346 H   0  0  0  0  0  0  0  0  0  0  0  0
   55.5118   23.2191   45.7886 H   0  0  0  0  0  0  0  0  0  0  0  0
   57.8101   22.3015   45.6494 H   0  0  0  0  0  0  0  0  0  0  0  0
   59.7124   23.9298   45.5827 H   0  0  0  0  0  0  0  0  0  0  0  0
   59.2660   26.3605   45.6661 H   0  0  0  0  0  0  0  0  0  0  0  0
   56.0560   27.8730   46.4810 H   0  0  0  0  0  0  0  0  0  0  0  0
   57.4220   29.7220   42.5870 H   0  0  0  0  0  0  0  0  0  0  0  0
   58.2500   31.9110   41.5070 H   0  0  0  0  0  0  0  0  0  0  0  0
   58.4238   33.7399   43.3469 H   0  0  0  0  0  0  0  0  0  0  0  0
   60.3586   31.5001   47.1534 H   0  0  0  0  0  0  0  0  0  0  0  0
   60.0229   31.8212   45.4379 H   0  0  0  0  0  0  0  0  0  0  0  0
   61.9193   33.0945   47.1758 H   0  0  0  0  0  0  0  0  0  0  0  0
   61.5591   33.4344   45.4240 H   0  0  0  0  0  0  0  0  0  0  0  0
   60.8295   34.1054   48.7452 H   0  0  0  0  0  0  0  0  0  0  0  0
   59.7802   35.5356   48.3822 H   0  0  0  0  0  0  0  0  0  0  0  0
   58.8873   32.9187   48.9136 H   0  0  0  0  0  0  0  0  0  0  0  0
   57.9154   34.2203   48.2073 H   0  0  0  0  0  0  0  0  0  0  0  0
  1  2  1  0
  2  3  1  0
  3  4  2  0
  4  5  1  0
  5  6  2  0
  6  7  1  0
  7  8  2  0
  8  9  1  0
  9 10  1  0
 10 11  2  0
 10 12  1  0
 12 13  2  0
 13 14  1  0
 14 15  1  0
 15 16  1  0
 16 17  2  0
 17 18  1  0
 18 19  2  0
 18 20  1  0
 20 21  1  0
 21 22  1  0
 22 23  1  0
 23 24  1  0
 24 25  1  0
  8  3  1  0
 17 13  1  0
 25 20  1  0
  1 26  1  0
  1 27  1  0
  1 28  1  0
  4 29  1  0
  5 30  1  0
  6 31  1  0
  7 32  1  0
  9 33  1  0
 14 34  1  0
 15 35  1  0
 16 36  1  0
 21 37  1  0
 21 38  1  0
 22 39  1  0
 22 40  1  0
 24 41  1  0
 24 42  1  0
 25 43  1  0
 25 44  1  0
M  END
>  <smiles>  (17) 
COc1ccccc1NC(=O)N=c1[nH][nH]cc1C(=O)N1CCOCC1

>  <score_type>  (17) 
oracle

>  <origin>  (17) 
adg

>  <m_score__min__energy>  (17) 
-7.9800000000000004

>  <m_primary>  (17) 
energy

$$$$
17:0
     RDKit          3D

 37 39  0  0  0  0  0  0  0  0999 V2000
   57.0170   26.5910   45.7320 C   0  0  0  0  0  0  0  0  0  0  0  0
   56.1970   27.7490   45.6070 O   0  0  0  0  0  0  0  0  0  0  0  0
   56.6500   28.9990   45.1540 C   0  0  0  0  0  0  0  0  0  0  0  0
   56.1420   29.5990   43.9870 C   0  0  0  0  0  0  0  0  0  0  0  0
   56.6180   30.8430   43.5680 C   0  0  0  0  0  0  0  0  0  0  0  0
   57.6080   31.5070   44.3040 C   0  0  0  0  0  0  0  0  0  0  0  0
   58.1550   32.8250   43.8270 C   0  0  0  0  0  0  0  0  0  0  0  0
   57.5700   34.2000   44.8800 S   0  0  0  0  0  0  0  0  0  0  0  0
   58.9920   34.1630   45.9690 C   0  0  0  0  0  0  0  0  0  0  0  0
   58.8900   34.2830   47.3190 N   0  0  0  0  0  0  0  0  0  0  0  0
   60.1680   34.1620   47.7200 C   0  0  0  0  0  0  0  0  0  0  0  0
   60.6580   34.1900   49.0230 C   0  0  0  0  0  0  0  0  0  0  0  0
   62.0440   34.0270   49.2040 C   0  0  0  0  0  0  0  0  0  0  0  0
   62.8950   33.8400   48.0900 C   0  0  0  0  0  0  0  0  0  0  0  0
   62.3660   33.8140   46.7850 C   0  0  0  0  0  0  0  0  0  0  0  0
   60.9890   33.9810   46.6470 C   0  0  0  0  0  0  0  0  0  0  0  0
   60.2590   33.9820   45.5250 N   0  0  0  0  0  0  0  0  0  0  0  0
   58.1180   30.9120   45.4670 C   0  0  0  0  0  0  0  0  0  0  0  0
   57.6410   29.6580   45.8970 C   0  0  0  0  0  0  0  0  0  0  0  0
   58.1310   29.0340   47.0560 O   0  0  0  0  0  0  0  0  0  0  0  0
   59.2570   29.4850   47.8020 C   0  0  0  0  0  0  0  0  0  0  0  0
   57.1755   26.3672   46.7973 H   0  0  0  0  0  0  0  0  0  0  0  0
   56.5214   25.7367   45.2476 H   0  0  0  0  0  0  0  0  0  0  0  0
   57.9874   26.7748   45.2476 H   0  0  0  0  0  0  0  0  0  0  0  0
   55.3654   29.0851   43.4014 H   0  0  0  0  0  0  0  0  0  0  0  0
   56.2134   31.3042   42.6550 H   0  0  0  0  0  0  0  0  0  0  0  0
   59.2540   32.7906   43.8588 H   0  0  0  0  0  0  0  0  0  0  0  0
   57.8033   32.9979   42.7992 H   0  0  0  0  0  0  0  0  0  0  0  0
   59.9851   34.3345   49.8811 H   0  0  0  0  0  0  0  0  0  0  0  0
   62.4683   34.0452   50.2187 H   0  0  0  0  0  0  0  0  0  0  0  0
   63.9769   33.7141   48.2438 H   0  0  0  0  0  0  0  0  0  0  0  0
   63.0144   33.6676   45.9086 H   0  0  0  0  0  0  0  0  0  0  0  0
   60.5860   33.8540   44.5420 H   0  0  0  0  0  0  0  0  0  0  0  0
   58.8964   31.4283   46.0479 H   0  0  0  0  0  0  0  0  0  0  0  0
   59.0426   29.3991   48.8775 H   0  0  0  0  0  0  0  0  0  0  0  0
   60.1331   28.8684   47.5524 H   0  0  0  0  0  0  0  0  0  0  0  0
   59.4652   30.5359   47.5524 H   0  0  0  0  0  0  0  0  0  0  0  0
  1  2  1  0
  2  3  1  0
  3  4  2  0
  4  5  1  0
  5  6  2  0
  6  7  1  0
  7  8  1  0
  8  9  1  0
  9 10  2  0
 10 11  1  0
 11 12  2  0
 12 13  1  0
 13 14  2  0
 14 15  1  0
 15 16  2  0
 16 17  1  0
  6 18  1  0
 18 19  2  0
 19 20  1  0
 20 21  1  0
 19  3  1  0
 17  9  1  0
 16 11  1  0
  1 22  1  0
  1 23  1  0
  1 24  1  0
  4 25  1  0
  5 26  1  0
  7 27  1  0
  7 28  1  0
 12 29  1  0
 13 30  1  0
 14 31  1  0
 15 32  1  0
 17 33  1  0
 18 34  1  0
 21 35  1  0
 21 36  1  0
 21 37  1  0
M  END
>  <UniqueID>  (18) 
16

>  <SMILES>  (18) 
COc1ccc(CSc2nc3ccccc3[nH]2)cc1OC

>  <Energy>  (18) 
69.33199087090028

>  <Genealogy>  (18) 
COc1ccc(CSc2nc3ccccc3[nH]2)cc1OC (3D coordinates assigned)
COc1ccc(CSc2nc3ccccc3[nH]2)cc1OC (optimized conformer: 69.33199087090028 kcal/mol)

>  <smiles>  (18) 
COc1ccc(CSc2nc3ccccc3[nH]2)cc1OC

>  <score_type>  (18) 
oracle

>  <origin>  (18) 
adg

>  <m_score__min__energy>  (18) 
-7.5700000000000003

>  <m_primary>  (18) 
energy

$$$$
18:0
     RDKit          3D

 42 44  0  0  0  0  0  0  0  0999 V2000
   59.2140   33.3170   46.4750 C   0  0  0  0  0  0  0  0  0  0  0  0
   60.6430   32.9210   46.7420 C   0  0  0  0  0  0  0  0  0  0  0  0
   61.6560   33.8670   46.5080 C   0  0  0  0  0  0  0  0  0  0  0  0
   62.9910   33.5620   46.7790 C   0  0  0  0  0  0  0  0  0  0  0  0
   63.3330   32.3080   47.2830 C   0  0  0  0  0  0  0  0  0  0  0  0
   62.3430   31.3490   47.5040 C   0  0  0  0  0  0  0  0  0  0  0  0
   60.9970   31.6310   47.2150 C   0  0  0  0  0  0  0  0  0  0  0  0
   59.9970   30.5660   47.4370 C   0  0  0  0  0  0  0  0  0  0  0  0
   59.2200   30.6550   48.4260 O   0  0  0  0  0  0  0  0  0  0  0  0
   59.9170   29.4440   46.5410 N   0  0  0  0  0  0  0  0  0  0  0  0
   58.9730   28.3690   46.6780 C   0  0  0  0  0  0  0  0  0  0  0  0
   59.2960   27.1910   47.3710 C   0  0  0  0  0  0  0  0  0  0  0  0
   58.3680   26.1510   47.4630 C   0  0  0  0  0  0  0  0  0  0  0  0
   57.1190   26.2530   46.8370 C   0  0  0  0  0  0  0  0  0  0  0  0
   56.2030   25.1530   46.9490 N   0  0  0  0  0  0  0  0  0  0  0  0
   55.4280   24.5920   45.8810 C   0  0  0  0  0  0  0  0  0  0  0  0
   54.2630   25.0290   45.6840 O   0  0  0  0  0  0  0  0  0  0  0  0
   55.9460   23.5060   45.0180 C   0  0  0  0  0  0  0  0  0  0  0  0
   55.8460   23.6450   43.6230 C   0  0  0  0  0  0  0  0  0  0  0  0
   56.3480   22.6540   42.7740 C   0  0  0  0  0  0  0  0  0  0  0  0
   56.9380   21.5090   43.3090 C   0  0  0  0  0  0  0  0  0  0  0  0
   57.0160   21.3430   44.6930 C   0  0  0  0  0  0  0  0  0  0  0  0
   56.5160   22.3290   45.5540 C   0  0  0  0  0  0  0  0  0  0  0  0
   56.5380   22.0030   47.2840 Cl  0  0  0  0  0  0  0  0  0  0  0  0
   56.7840   27.4420   46.1610 C   0  0  0  0  0  0  0  0  0  0  0  0
   55.5190   27.6200   45.6120 O   0  0  0  0  0  0  0  0  0  0  0  0
   57.7180   28.4780   46.0630 C   0  0  0  0  0  0  0  0  0  0  0  0
   58.6891   33.4624   47.4307 H   0  0  0  0  0  0  0  0  0  0  0  0
   59.1946   34.2544   45.8997 H   0  0  0  0  0  0  0  0  0  0  0  0
   58.7149   32.5233   45.8997 H   0  0  0  0  0  0  0  0  0  0  0  0
   61.3942   34.8574   46.1074 H   0  0  0  0  0  0  0  0  0  0  0  0
   63.7742   34.3121   46.5946 H   0  0  0  0  0  0  0  0  0  0  0  0
   64.3843   32.0739   47.5068 H   0  0  0  0  0  0  0  0  0  0  0  0
   62.6189   30.3638   47.9080 H   0  0  0  0  0  0  0  0  0  0  0  0
   60.5320   29.4390   45.6980 H   0  0  0  0  0  0  0  0  0  0  0  0
   60.2839   27.0868   47.8433 H   0  0  0  0  0  0  0  0  0  0  0  0
   58.6202   25.2440   48.0320 H   0  0  0  0  0  0  0  0  0  0  0  0
   55.3694   24.5398   43.1961 H   0  0  0  0  0  0  0  0  0  0  0  0
   56.2776   22.7775   41.6832 H   0  0  0  0  0  0  0  0  0  0  0  0
   57.3425   20.7356   42.6395 H   0  0  0  0  0  0  0  0  0  0  0  0
   57.4725   20.4331   45.1099 H   0  0  0  0  0  0  0  0  0  0  0  0
   57.4655   29.3873   45.4979 H   0  0  0  0  0  0  0  0  0  0  0  0
  1  2  1  0
  2  3  2  0
  3  4  1  0
  4  5  2  0
  5  6  1  0
  6  7  2  0
  7  8  1  0
  8  9  2  0
  8 10  1  0
 10 11  1  0
 11 12  2  0
 12 13  1  0
 13 14  2  0
 14 15  1  0
 15 16  1  0
 16 17  2  0
 16 18  1  0
 18 19  2  0
 19 20  1  0
 20 21  2  0
 21 22  1  0
 22 23  2  0
 23 24  1  0
 14 25  1  0
 25 26  1  0
 25 27  2  0
  7  2  1  0
 27 11  1  0
 23 18  1  0
  1 28  1  0
  1 29  1  0
  1 30  1  0
  3 31  1  0
  4 32  1  0
  5 33  1  0
  6 34  1  0
 10 35  1  0
 12 36  1  0
 13 37  1  0
 19 38  1  0
 20 39  1  0
 21 40  1  0
 22 41  1  0
 27 42  1  0
M  CHG  2  15  -1  26  -1
M  END
>  <UniqueID>  (19) 
17

>  <SMILES>  (19) 
Cc1ccccc1C(=O)Nc1ccc([N-]C(=O)c2ccccc2Cl)c([O-])c1

>  <Energy>  (19) 
66.60764196020708

>  <Genealogy>  (19) 
Cc1ccccc1C(=O)Nc1ccc([N-]C(=O)c2ccccc2Cl)c([O-])c1 (protonated)
Cc1ccccc1C(=O)Nc1ccc([N-]C(=O)c2ccccc2Cl)c([O-])c1 (3D coordinates assigned)
Cc1ccccc1C(=O)Nc1ccc([N-]C(=O)c2ccccc2Cl)c([O-])c1 (optimized conformer: 66.60764196020708 kcal/mol)

>  <smiles>  (19) 
Cc1ccccc1C(=O)Nc1ccc(NC(=O)c2ccccc2Cl)c(O)c1

>  <score_type>  (19) 
oracle

>  <origin>  (19) 
adg

>  <m_score__min__energy>  (19) 
-14.130000000000001

>  <m_primary>  (19) 
energy

$$$$
19:0
     RDKit          3D

 49 52  0  0  0  0  0  0  0  0999 V2000
   62.2310   29.7100   51.1920 C   0  0  0  0  0  0  0  0  0  0  0  0
   61.7300   30.2390   49.9680 O   0  0  0  0  0  0  0  0  0  0  0  0
   62.3730   31.2210   49.1980 C   0  0  0  0  0  0  0  0  0  0  0  0
   63.5270   31.8840   49.6630 C   0  0  0  0  0  0  0  0  0  0  0  0
   64.1770   32.8250   48.8610 C   0  0  0  0  0  0  0  0  0  0  0  0
   63.6900   33.1130   47.5880 C   0  0  0  0  0  0  0  0  0  0  0  0
   62.5460   32.4700   47.1120 C   0  0  0  0  0  0  0  0  0  0  0  0
   61.8680   31.5360   47.9140 C   0  0  0  0  0  0  0  0  0  0  0  0
   60.6590   30.8690   47.3780 C   0  0  0  0  0  0  0  0  0  0  0  0
   60.1860   31.2560   46.2750 O   0  0  0  0  0  0  0  0  0  0  0  0
   60.0290   29.7980   48.1010 N   0  0  0  0  0  0  0  0  0  0  0  0
   59.2260   28.7980   47.4610 C   0  0  0  0  0  0  0  0  0  0  0  0
   59.4260   27.4320   47.7070 C   0  0  0  0  0  0  0  0  0  0  0  0
   58.6150   26.4780   47.0870 C   0  0  0  0  0  0  0  0  0  0  0  0
   57.5830   26.8770   46.2210 C   0  0  0  0  0  0  0  0  0  0  0  0
   56.6940   25.8420   45.5870 C   0  0  0  0  0  0  0  0  0  0  0  0
   57.3690   28.2480   45.9790 C   0  0  0  0  0  0  0  0  0  0  0  0
   56.2960   28.6590   45.1150 N   0  0  0  0  0  0  0  0  0  0  0  0
   56.2890   29.8040   44.2510 C   0  0  0  0  0  0  0  0  0  0  0  0
   55.5930   29.7660   43.2030 O   0  0  0  0  0  0  0  0  0  0  0  0
   57.0260   31.0420   44.5680 C   0  0  0  0  0  0  0  0  0  0  0  0
   57.8180   31.7830   43.6900 C   0  0  0  0  0  0  0  0  0  0  0  0
   58.2660   32.8400   44.4470 C   0  0  0  0  0  0  0  0  0  0  0  0
   59.0680   33.9270   44.1090 C   0  0  0  0  0  0  0  0  0  0  0  0
   59.3470   34.8710   45.1160 C   0  0  0  0  0  0  0  0  0  0  0  0
   58.8270   34.7020   46.4180 C   0  0  0  0  0  0  0  0  0  0  0  0
   58.0190   33.5910   46.7250 C   0  0  0  0  0  0  0  0  0  0  0  0
   57.7560   32.6790   45.7060 C   0  0  0  0  0  0  0  0  0  0  0  0
   57.0190   31.5970   45.7680 O   0  0  0  0  0  0  0  0  0  0  0  0
   58.2290   29.1950   46.5620 C   0  0  0  0  0  0  0  0  0  0  0  0
   61.7472   30.2209   52.0375 H   0  0  0  0  0  0  0  0  0  0  0  0
   62.0142   28.6327   51.2418 H   0  0  0  0  0  0  0  0  0  0  0  0
   63.3185   29.8679   51.2418 H   0  0  0  0  0  0  0  0  0  0  0  0
   63.9188   31.6584   50.6658 H   0  0  0  0  0  0  0  0  0  0  0  0
   65.0745   33.3393   49.2351 H   0  0  0  0  0  0  0  0  0  0  0  0
   64.2084   33.8492   46.9561 H   0  0  0  0  0  0  0  0  0  0  0  0
   62.1726   32.6959   46.1023 H   0  0  0  0  0  0  0  0  0  0  0  0
   60.3380   29.6130   49.0820 H   0  0  0  0  0  0  0  0  0  0  0  0
   60.2249   27.1101   48.3912 H   0  0  0  0  0  0  0  0  0  0  0  0
   58.7855   25.4082   47.2780 H   0  0  0  0  0  0  0  0  0  0  0  0
   56.1926   25.2582   46.3730 H   0  0  0  0  0  0  0  0  0  0  0  0
   55.9384   26.3407   44.9622 H   0  0  0  0  0  0  0  0  0  0  0  0
   57.3010   25.1703   44.9622 H   0  0  0  0  0  0  0  0  0  0  0  0
   58.0347   31.5700   42.6328 H   0  0  0  0  0  0  0  0  0  0  0  0
   59.4693   34.0441   43.0916 H   0  0  0  0  0  0  0  0  0  0  0  0
   59.9739   35.7454   44.8870 H   0  0  0  0  0  0  0  0  0  0  0  0
   59.0549   35.4437   47.1977 H   0  0  0  0  0  0  0  0  0  0  0  0
   57.6092   33.4480   47.7357 H   0  0  0  0  0  0  0  0  0  0  0  0
   58.1173   30.2597   46.3090 H   0  0  0  0  0  0  0  0  0  0  0  0
  1  2  1  0
  2  3  1  0
  3  4  2  0
  4  5  1  0
  5  6  2  0
  6  7  1  0
  7  8  2  0
  8  9  1  0
  9 10  2  0
  9 11  1  0
 11 12  1  0
 12 13  2  0
 13 14  1  0
 14 15  2  0
 15 16  1  0
 15 17  1  0
 17 18  1  0
 18 19  1  0
 19 20  2  0
 19 21  1  0
 21 22  2  0
 22 23  1  0
 23 24  2  0
 24 25  1  0
 25 26  2  0
 26 27  1  0
 27 28  2  0
 28 29  1  0
 17 30  2  0
  8  3  1  0
 30 12  1  0
 29 21  1  0
 28 23  1  0
  1 31  1  0
  1 32  1  0
  1 33  1  0
  4 34  1  0
  5 35  1  0
  6 36  1  0
  7 37  1  0
 11 38  1  0
 13 39  1  0
 14 40  1  0
 16 41  1  0
 16 42  1  0
 16 43  1  0
 22 44  1  0
 24 45  1  0
 25 46  1  0
 26 47  1  0
 27 48  1  0
 30 49  1  0
M  CHG  1  18  -1
M  END
>  <UniqueID>  (20) 
18

>  <SMILES>  (20) 
COc1ccccc1C(=O)Nc1ccc(C)c([N-]C(=O)c2cc3ccccc3o2)c1

>  <Energy>  (20) 
97.88289261961151

>  <Genealogy>  (20) 
COc1ccccc1C(=O)Nc1ccc(C)c([N-]C(=O)c2cc3ccccc3o2)c1 (protonated)
COc1ccccc1C(=O)Nc1ccc(C)c([N-]C(=O)c2cc3ccccc3o2)c1 (3D coordinates assigned)
COc1ccccc1C(=O)Nc1ccc(C)c([N-]C(=O)c2cc3ccccc3o2)c1 (optimized conformer: 97.88289261961151 kcal/mol)

>  <smiles>  (20) 
COc1ccccc1C(=O)Nc1ccc(C)c(NC(=O)c2cc3ccccc3o2)c1

>  <score_type>  (20) 
oracle

>  <origin>  (20) 
adg

>  <m_score__min__energy>  (20) 
-10.66

>  <m_primary>  (20) 
energy

$$$$
20:0
     RDKit          3D

 43 45  0  0  0  0  0  0  0  0999 V2000
   58.8060   32.1140   49.2480 C   0  0  0  0  0  0  0  0  0  0  0  0
   58.0660   32.5640   48.1170 O   0  0  0  0  0  0  0  0  0  0  0  0
   58.5360   33.4900   47.1720 C   0  0  0  0  0  0  0  0  0  0  0  0
   59.1970   34.6740   47.5630 C   0  0  0  0  0  0  0  0  0  0  0  0
   59.6500   35.5820   46.6050 C   0  0  0  0  0  0  0  0  0  0  0  0
   59.4540   35.3250   45.2490 C   0  0  0  0  0  0  0  0  0  0  0  0
   58.8040   34.1580   44.8450 C   0  0  0  0  0  0  0  0  0  0  0  0
   58.3410   33.2330   45.7970 C   0  0  0  0  0  0  0  0  0  0  0  0
   57.6690   31.9660   45.3180 C   0  0  0  0  0  0  0  0  0  0  0  0
   58.4700   30.7850   45.6870 N   0  0  0  0  0  0  0  0  0  0  0  0
   59.7870   30.9590   46.0190 C   0  0  0  0  0  0  0  0  0  0  0  0
   60.5710   29.8780   46.4160 C   0  0  0  0  0  0  0  0  0  0  0  0
   60.0110   28.6070   46.4670 C   0  0  0  0  0  0  0  0  0  0  0  0
   58.6700   28.4140   46.1120 C   0  0  0  0  0  0  0  0  0  0  0  0
   58.0990   27.0480   46.1710 C   0  0  0  0  0  0  0  0  0  0  0  0
   58.5520   26.2330   47.0210 O   0  0  0  0  0  0  0  0  0  0  0  0
   57.0470   26.6510   45.2730 N   0  0  0  0  0  0  0  0  0  0  0  0
   56.4350   25.3490   45.2850 C   0  0  0  0  0  0  0  0  0  0  0  0
   57.1590   24.2030   44.9080 C   0  0  0  0  0  0  0  0  0  0  0  0
   56.5400   22.9490   44.8970 C   0  0  0  0  0  0  0  0  0  0  0  0
   55.1940   22.8290   45.2510 C   0  0  0  0  0  0  0  0  0  0  0  0
   54.4620   23.9630   45.6070 C   0  0  0  0  0  0  0  0  0  0  0  0
   55.0750   25.2210   45.6200 C   0  0  0  0  0  0  0  0  0  0  0  0
   54.3300   26.3410   45.9770 O   0  0  0  0  0  0  0  0  0  0  0  0
   57.8980   29.5370   45.7430 C   0  0  0  0  0  0  0  0  0  0  0  0
   56.6710   29.3930   45.4870 O   0  0  0  0  0  0  0  0  0  0  0  0
   58.2929   32.4260   50.1696 H   0  0  0  0  0  0  0  0  0  0  0  0
   58.8816   31.0169   49.2239 H   0  0  0  0  0  0  0  0  0  0  0  0
   59.8149   32.5517   49.2239 H   0  0  0  0  0  0  0  0  0  0  0  0
   59.3564   34.8828   48.6312 H   0  0  0  0  0  0  0  0  0  0  0  0
   60.1629   36.5025   46.9206 H   0  0  0  0  0  0  0  0  0  0  0  0
   59.8121   36.0429   44.4965 H   0  0  0  0  0  0  0  0  0  0  0  0
   58.6528   33.9604   43.7735 H   0  0  0  0  0  0  0  0  0  0  0  0
   56.6739   31.8872   45.7802 H   0  0  0  0  0  0  0  0  0  0  0  0
   57.5766   32.0048   44.2226 H   0  0  0  0  0  0  0  0  0  0  0  0
   60.2312   31.9642   45.9717 H   0  0  0  0  0  0  0  0  0  0  0  0
   61.6262   30.0294   46.6873 H   0  0  0  0  0  0  0  0  0  0  0  0
   60.6225   27.7505   46.7870 H   0  0  0  0  0  0  0  0  0  0  0  0
   56.6680   27.3530   44.6000 H   0  0  0  0  0  0  0  0  0  0  0  0
   58.2169   24.2938   44.6206 H   0  0  0  0  0  0  0  0  0  0  0  0
   57.1139   22.0558   44.6092 H   0  0  0  0  0  0  0  0  0  0  0  0
   54.7109   21.8408   45.2492 H   0  0  0  0  0  0  0  0  0  0  0  0
   53.4002   23.8675   45.8781 H   0  0  0  0  0  0  0  0  0  0  0  0
  1  2  1  0
  2  3  1  0
  3  4  2  0
  4  5  1  0
  5  6  2  0
  6  7  1  0
  7  8  2  0
  8  9  1  0
  9 10  1  0
 10 11  1  0
 11 12  2  0
 12 13  1  0
 13 14  2  0
 14 15  1  0
 15 16  2  0
 15 17  1  0
 17 18  1  0
 18 19  2  0
 19 20  1  0
 20 21  2  0
 21 22  1  0
 22 23  2  0
 23 24  1  0
 14 25  1  0
 25 26  2  0
  8  3  1  0
 25 10  1  0
 23 18  1  0
  1 27  1  0
  1 28  1  0
  1 29  1  0
  4 30  1  0
  5 31  1  0
  6 32  1  0
  7 33  1  0
  9 34  1  0
  9 35  1  0
 11 36  1  0
 12 37  1  0
 13 38  1  0
 17 39  1  0
 19 40  1  0
 20 41  1  0
 21 42  1  0
 22 43  1  0
M  CHG  1  24  -1
M  END
>  <UniqueID>  (21) 
19

>  <SMILES>  (21) 
COc1ccccc1Cn1cccc(C(=O)Nc2ccccc2[O-])c1=O

>  <Energy>  (21) 
57.22883147550017

>  <Genealogy>  (21) 
COc1ccccc1Cn1cccc(C(=O)Nc2ccccc2[O-])c1=O (protonated)
COc1ccccc1Cn1cccc(C(=O)Nc2ccccc2[O-])c1=O (3D coordinates assigned)
COc1ccccc1Cn1cccc(C(=O)Nc2ccccc2[O-])c1=O (optimized conformer: 57.22883147550017 kcal/mol)

>  <smiles>  (21) 
COc1ccccc1Cn1cccc(C(=O)Nc2ccccc2O)c1=O

>  <score_type>  (21) 
oracle

>  <origin>  (21) 
adg

>  <m_score__min__energy>  (21) 
-12.109999999999999

>  <m_primary>  (21) 
energy

$$$$
21:0
     RDKit          3D

 43 45  0  0  0  0  0  0  0  0999 V2000
   60.9230   27.3860   47.8860 O   0  0  0  0  0  0  0  0  0  0  0  0
   59.9740   28.1330   47.5180 C   0  0  0  0  0  0  0  0  0  0  0  0
   60.1450   29.5600   47.5330 N   0  0  0  0  0  0  0  0  0  0  0  0
   61.4100   30.1910   47.9040 C   0  0  0  0  0  0  0  0  0  0  0  0
   61.4530   31.5950   47.3930 C   0  0  0  0  0  0  0  0  0  0  0  0
   62.6460   32.2380   47.2730 N   0  0  0  0  0  0  0  0  0  0  0  0
   62.7060   33.5240   46.8390 C   0  0  0  0  0  0  0  0  0  0  0  0
   61.5330   34.2050   46.5170 C   0  0  0  0  0  0  0  0  0  0  0  0
   60.3100   33.5360   46.6490 C   0  0  0  0  0  0  0  0  0  0  0  0
   59.0220   34.2340   46.3260 C   0  0  0  0  0  0  0  0  0  0  0  0
   57.9570   33.3980   46.6030 F   0  0  0  0  0  0  0  0  0  0  0  0
   58.8940   35.3890   47.0780 F   0  0  0  0  0  0  0  0  0  0  0  0
   59.0010   34.5690   44.9840 F   0  0  0  0  0  0  0  0  0  0  0  0
   60.2990   32.2480   47.0890 N   0  0  0  0  0  0  0  0  0  0  0  0
   58.6970   27.5330   47.0740 C   0  0  0  0  0  0  0  0  0  0  0  0
   58.3720   26.2060   47.3910 C   0  0  0  0  0  0  0  0  0  0  0  0
   57.1600   25.6690   46.9520 C   0  0  0  0  0  0  0  0  0  0  0  0
   56.2750   26.4530   46.1950 C   0  0  0  0  0  0  0  0  0  0  0  0
   55.0220   25.9420   45.7140 N   0  0  0  0  0  0  0  0  0  0  0  0
   54.5750   24.2670   45.6750 S   0  0  0  0  0  0  0  0  0  0  0  0
   53.2770   24.1220   44.9330 O   0  0  0  0  0  0  0  0  0  0  0  0
   54.3940   23.7750   47.0830 O   0  0  0  0  0  0  0  0  0  0  0  0
   55.8130   23.3300   44.8440 C   0  0  0  0  0  0  0  0  0  0  0  0
   55.6600   22.9970   43.4900 C   0  0  0  0  0  0  0  0  0  0  0  0
   56.6410   22.2440   42.8370 C   0  0  0  0  0  0  0  0  0  0  0  0
   57.7790   21.8230   43.5320 C   0  0  0  0  0  0  0  0  0  0  0  0
   58.7280   21.0920   42.8960 F   0  0  0  0  0  0  0  0  0  0  0  0
   57.9380   22.1570   44.8810 C   0  0  0  0  0  0  0  0  0  0  0  0
   59.0430   21.7520   45.5570 F   0  0  0  0  0  0  0  0  0  0  0  0
   56.9580   22.9120   45.5350 C   0  0  0  0  0  0  0  0  0  0  0  0
   56.6350   27.7760   45.9020 C   0  0  0  0  0  0  0  0  0  0  0  0
   55.8660   28.5110   45.2270 O   0  0  0  0  0  0  0  0  0  0  0  0
   57.8210   28.2740   46.3420 N   0  0  0  0  0  0  0  0  0  0  0  0
   59.3440   30.1800   47.2800 H   0  0  0  0  0  0  0  0  0  0  0  0
   61.5046   30.1996   48.9999 H   0  0  0  0  0  0  0  0  0  0  0  0
   62.2401   29.6211   47.4611 H   0  0  0  0  0  0  0  0  0  0  0  0
   63.6792   34.0274   46.7418 H   0  0  0  0  0  0  0  0  0  0  0  0
   61.5675   35.2470   46.1663 H   0  0  0  0  0  0  0  0  0  0  0  0
   59.0676   25.5920   47.9818 H   0  0  0  0  0  0  0  0  0  0  0  0
   56.8982   24.6297   47.1998 H   0  0  0  0  0  0  0  0  0  0  0  0
   54.7666   23.3288   42.9407 H   0  0  0  0  0  0  0  0  0  0  0  0
   56.5173   21.9827   41.7757 H   0  0  0  0  0  0  0  0  0  0  0  0
   57.0869   23.1781   46.5945 H   0  0  0  0  0  0  0  0  0  0  0  0
  1  2  2  0
  2  3  1  0
  3  4  1  0
  4  5  1  0
  5  6  2  0
  6  7  1  0
  7  8  2  0
  8  9  1  0
  9 10  1  0
 10 11  1  0
 10 12  1  0
 10 13  1  0
  9 14  2  0
  2 15  1  0
 15 16  2  0
 16 17  1  0
 17 18  2  0
 18 19  1  0
 19 20  1  0
 20 21  2  0
 20 22  2  0
 20 23  1  0
 23 24  2  0
 24 25  1  0
 25 26  2  0
 26 27  1  0
 26 28  1  0
 28 29  1  0
 28 30  2  0
 18 31  1  0
 31 32  2  0
 31 33  1  0
 14  5  1  0
 33 15  1  0
 30 23  1  0
  3 34  1  0
  4 35  1  0
  4 36  1  0
  7 37  1  0
  8 38  1  0
 16 39  1  0
 17 40  1  0
 24 41  1  0
 25 42  1  0
 30 43  1  0
M  CHG  2  19  -1  33  -1
M  END
>  <UniqueID>  (22) 
20

>  <SMILES>  (22) 
O=C(NCc1nccc(C(F)(F)F)n1)c1ccc([N-]S(=O)(=O)c2ccc(F)c(F)c2)c(=O)[n-]1

>  <Energy>  (22) 
47.628435274953574

>  <Genealogy>  (22) 
O=C(NCc1nccc(C(F)(F)F)n1)c1ccc([N-]S(=O)(=O)c2ccc(F)c(F)c2)c(=O)[n-]1 (protonated)
O=C(NCc1nccc(C(F)(F)F)n1)c1ccc([N-]S(=O)(=O)c2ccc(F)c(F)c2)c(=O)[n-]1 (3D coordinates assigned)
O=C(NCc1nccc(C(F)(F)F)n1)c1ccc([N-]S(=O)(=O)c2ccc(F)c(F)c2)c(=O)[n-]1 (optimized conformer: 47.628435274953574 kcal/mol)

>  <smiles>  (22) 
O=C(NCc1nccc(C(F)(F)F)n1)c1ccc(NS(=O)(=O)c2ccc(F)c(F)c2)c(=O)[nH]1

>  <score_type>  (22) 
oracle

>  <origin>  (22) 
adg

>  <m_score__min__energy>  (22) 
-11.76

>  <m_primary>  (22) 
energy

$$$$
22:0
     RDKit          3D

 52 54  0  0  0  0  0  0  0  0999 V2000
   59.3600   31.3090   52.3600 C   0  0  0  0  0  0  0  0  0  0  0  0
   58.7500   29.7550   51.7500 S   0  0  0  0  0  0  0  0  0  0  0  0
   59.1700   28.6630   52.6930 O   0  0  0  0  0  0  0  0  0  0  0  0
   57.2490   29.7870   51.6790 O   0  0  0  0  0  0  0  0  0  0  0  0
   59.3990   29.4430   50.1740 N   0  0  0  0  0  0  0  0  0  0  0  0
   60.0580   28.3270   49.8030 C   0  0  0  0  0  0  0  0  0  0  0  0
   60.3930   28.3980   48.4650 C   0  0  0  0  0  0  0  0  0  0  0  0
   59.9110   29.6190   48.0160 C   0  0  0  0  0  0  0  0  0  0  0  0
   59.9840   30.1500   46.7210 O   0  0  0  0  0  0  0  0  0  0  0  0
   60.5040   29.4490   45.5910 C   0  0  0  0  0  0  0  0  0  0  0  0
   59.6460   28.2260   45.2510 C   0  0  0  0  0  0  0  0  0  0  0  0
   58.1450   28.5240   45.3210 C   0  0  0  0  0  0  0  0  0  0  0  0
   57.5830   28.6140   43.9720 N   0  0  0  0  0  0  0  0  0  0  0  0
   56.4810   29.9550   43.8890 S   0  0  0  0  0  0  0  0  0  0  0  0
   55.9170   30.0820   42.5000 O   0  0  0  0  0  0  0  0  0  0  0  0
   55.3420   29.7170   44.8430 O   0  0  0  0  0  0  0  0  0  0  0  0
   57.3130   31.4400   44.3430 C   0  0  0  0  0  0  0  0  0  0  0  0
   57.8420   32.2910   43.3620 C   0  0  0  0  0  0  0  0  0  0  0  0
   58.5220   33.4560   43.7360 C   0  0  0  0  0  0  0  0  0  0  0  0
   58.6840   33.7700   45.0900 C   0  0  0  0  0  0  0  0  0  0  0  0
   59.5660   35.2520   45.5760 S   0  0  0  0  0  0  0  0  0  0  0  0
   60.5350   34.3820   46.8070 C   0  0  0  0  0  0  0  0  0  0  0  0
   61.5390   33.4930   46.4040 C   0  0  0  0  0  0  0  0  0  0  0  0
   62.2880   32.8020   47.3610 C   0  0  0  0  0  0  0  0  0  0  0  0
   62.0360   32.9990   48.7230 C   0  0  0  0  0  0  0  0  0  0  0  0
   61.0380   33.8920   49.1280 C   0  0  0  0  0  0  0  0  0  0  0  0
   60.2900   34.5850   48.1720 C   0  0  0  0  0  0  0  0  0  0  0  0
   58.1600   32.9190   46.0700 C   0  0  0  0  0  0  0  0  0  0  0  0
   57.4810   31.7560   45.6990 C   0  0  0  0  0  0  0  0  0  0  0  0
   59.3100   30.2380   49.0890 C   0  0  0  0  0  0  0  0  0  0  0  0
   58.5230   31.8070   49.0440 Cl  0  0  0  0  0  0  0  0  0  0  0  0
   59.3558   31.2983   53.4599 H   0  0  0  0  0  0  0  0  0  0  0  0
   60.3869   31.4671   51.9988 H   0  0  0  0  0  0  0  0  0  0  0  0
   58.7148   32.1234   51.9988 H   0  0  0  0  0  0  0  0  0  0  0  0
   60.2943   27.4835   50.4684 H   0  0  0  0  0  0  0  0  0  0  0  0
   60.9318   27.6413   47.8759 H   0  0  0  0  0  0  0  0  0  0  0  0
   60.5202   30.1272   44.7251 H   0  0  0  0  0  0  0  0  0  0  0  0
   61.5197   29.1036   45.8341 H   0  0  0  0  0  0  0  0  0  0  0  0
   59.8926   27.8946   44.2315 H   0  0  0  0  0  0  0  0  0  0  0  0
   59.8667   27.4460   45.9946 H   0  0  0  0  0  0  0  0  0  0  0  0
   57.6398   27.7169   45.8718 H   0  0  0  0  0  0  0  0  0  0  0  0
   57.9937   29.4835   45.8372 H   0  0  0  0  0  0  0  0  0  0  0  0
   57.0160   27.7530   43.7920 H   0  0  0  0  0  0  0  0  0  0  0  0
   57.7224   32.0427   42.2971 H   0  0  0  0  0  0  0  0  0  0  0  0
   58.9296   34.1257   42.9644 H   0  0  0  0  0  0  0  0  0  0  0  0
   61.7385   33.3382   45.3334 H   0  0  0  0  0  0  0  0  0  0  0  0
   63.0757   32.1032   47.0431 H   0  0  0  0  0  0  0  0  0  0  0  0
   62.6226   32.4517   49.4756 H   0  0  0  0  0  0  0  0  0  0  0  0
   60.8420   34.0487   50.1990 H   0  0  0  0  0  0  0  0  0  0  0  0
   59.5085   35.2902   48.4912 H   0  0  0  0  0  0  0  0  0  0  0  0
   58.2832   33.1666   47.1347 H   0  0  0  0  0  0  0  0  0  0  0  0
   57.0770   31.0863   46.4725 H   0  0  0  0  0  0  0  0  0  0  0  0
  1  2  1  0
  2  3  2  0
  2  4  2  0
  2  5  1  0
  5  6  1  0
  6  7  2  0
  7  8  1  0
  8  9  1  0
  9 10  1  0
 10 11  1  0
 11 12  1  0
 12 13  1  0
 13 14  1  0
 14 15  2  0
 14 16  2  0
 14 17  1  0
 17 18  2  0
 18 19  1  0
 19 20  2  0
 20 21  1  0
 21 22  1  0
 22 23  2  0
 23 24  1  0
 24 25  2  0
 25 26  1  0
 26 27  2  0
 20 28  1  0
 28 29  2  0
  8 30  2  0
 30 31  1  0
 30  5  1  0
 29 17  1  0
 27 22  1  0
  1 32  1  0
  1 33  1  0
  1 34  1  0
  6 35  1  0
  7 36  1  0
 10 37  1  0
 10 38  1  0
 11 39  1  0
 11 40  1  0
 12 41  1  0
 12 42  1  0
 13 43  1  0
 18 44  1  0
 19 45  1  0
 23 46  1  0
 24 47  1  0
 25 48  1  0
 26 49  1  0
 27 50  1  0
 28 51  1  0
 29 52  1  0
M  END
>  <UniqueID>  (23) 
21

>  <SMILES>  (23) 
CS(=O)(=O)n1ccc(OCCCNS(=O)(=O)c2ccc(Sc3ccccc3)cc2)c1Cl

>  <Energy>  (23) 
63.85495428922316

>  <Genealogy>  (23) 
CS(=O)(=O)n1ccc(OCCCNS(=O)(=O)c2ccc(Sc3ccccc3)cc2)c1Cl (3D coordinates assigned)
CS(=O)(=O)n1ccc(OCCCNS(=O)(=O)c2ccc(Sc3ccccc3)cc2)c1Cl (optimized conformer: 63.85495428922316 kcal/mol)

>  <smiles>  (23) 
CS(=O)(=O)n1ccc(OCCCNS(=O)(=O)c2ccc(Sc3ccccc3)cc2)c1Cl

>  <score_type>  (23) 
oracle

>  <origin>  (23) 
adg

>  <m_score__min__energy>  (23) 
-10.66

>  <m_primary>  (23) 
energy

$$$$
23:0
     RDKit          3D

 40 42  0  0  0  0  0  0  0  0999 V2000
   57.2055   30.9181   43.6214 H   0  0  0  0  0  0  0  0  0  0  0  0
   57.4820   30.6710   44.6570 C   0  0  0  0  0  0  0  0  0  0  0  0
   57.9810   31.6400   45.4330 C   0  0  0  0  0  0  0  0  0  0  0  0
   58.6495   31.3727   46.2647 H   0  0  0  0  0  0  0  0  0  0  0  0
   57.6480   33.0860   45.1930 C   0  0  0  0  0  0  0  0  0  0  0  0
   56.6146   33.1552   44.8224 H   0  0  0  0  0  0  0  0  0  0  0  0
   58.3635   33.4806   44.4565 H   0  0  0  0  0  0  0  0  0  0  0  0
   57.7730   33.9280   46.4720 C   0  0  0  0  0  0  0  0  0  0  0  0
   57.3676   33.3528   47.3175 H   0  0  0  0  0  0  0  0  0  0  0  0
   57.2111   34.8616   46.3218 H   0  0  0  0  0  0  0  0  0  0  0  0
   59.2060   34.2880   46.7700 C   0  0  0  0  0  0  0  0  0  0  0  0
   59.8270   35.0490   45.9780 O   0  0  0  0  0  0  0  0  0  0  0  0
   59.8970   33.7180   47.8950 N   0  0  0  0  0  0  0  0  0  0  0  0
   61.3360   33.6010   47.9280 C   0  0  0  0  0  0  0  0  0  0  0  0
   62.0870   33.4000   46.7560 C   0  0  0  0  0  0  0  0  0  0  0  0
   61.5764   33.3118   45.7857 H   0  0  0  0  0  0  0  0  0  0  0  0
   63.4800   33.3120   46.8210 C   0  0  0  0  0  0  0  0  0  0  0  0
   64.0632   33.1642   45.9001 H   0  0  0  0  0  0  0  0  0  0  0  0
   64.1350   33.4110   48.0510 C   0  0  0  0  0  0  0  0  0  0  0  0
   65.2325   33.3520   48.0958 H   0  0  0  0  0  0  0  0  0  0  0  0
   63.3960   33.5850   49.2250 C   0  0  0  0  0  0  0  0  0  0  0  0
   63.9123   33.6584   50.1935 H   0  0  0  0  0  0  0  0  0  0  0  0
   61.9970   33.6660   49.1690 C   0  0  0  0  0  0  0  0  0  0  0  0
   61.2290   33.8160   50.3690 N   0  0  0  0  0  0  0  0  0  0  0  0
   61.7080   33.9880   51.2810 H   0  0  0  0  0  0  0  0  0  0  0  0
   59.8040   33.6930   50.3340 C   0  0  0  0  0  0  0  0  0  0  0  0
   59.1310   33.8720   51.3840 O   0  0  0  0  0  0  0  0  0  0  0  0
   59.1170   33.2840   49.0620 C   0  0  0  0  0  0  0  0  0  0  0  0
   59.0139   32.1890   49.0419 H   0  0  0  0  0  0  0  0  0  0  0  0
   58.1253   33.7584   49.0242 H   0  0  0  0  0  0  0  0  0  0  0  0
   57.2850   29.2820   45.1280 C   0  0  0  0  0  0  0  0  0  0  0  0
   56.0150   28.6680   45.1960 C   0  0  0  0  0  0  0  0  0  0  0  0
   54.8640   29.3550   44.8320 O   0  0  0  0  0  0  0  0  0  0  0  0
   55.9020   27.3910   45.6500 N   0  0  0  0  0  0  0  0  0  0  0  0
   56.9790   26.6750   46.0660 C   0  0  0  0  0  0  0  0  0  0  0  0
   56.8280   25.4950   46.4770 O   0  0  0  0  0  0  0  0  0  0  0  0
   58.2500   27.2530   46.0450 C   0  0  0  0  0  0  0  0  0  0  0  0
   59.1252   26.6829   46.3900 H   0  0  0  0  0  0  0  0  0  0  0  0
   58.3990   28.5610   45.5820 C   0  0  0  0  0  0  0  0  0  0  0  0
   59.3946   29.0286   45.5731 H   0  0  0  0  0  0  0  0  0  0  0  0
  1  2  1  0
  2  3  2  0
  3  4  1  0
  3  5  1  0
  5  6  1  0
  5  7  1  0
  5  8  1  0
  8  9  1  0
  8 10  1  0
  8 11  1  0
 11 12  2  0
 11 13  1  0
 13 14  1  0
 14 15  2  0
 15 16  1  0
 15 17  1  0
 17 18  1  0
 17 19  2  0
 19 20  1  0
 19 21  1  0
 21 22  1  0
 21 23  2  0
 23 24  1  0
 24 25  1  0
 24 26  1  0
 26 27  2  0
 26 28  1  0
 28 29  1  0
 28 30  1  0
  2 31  1  0
 31 32  2  0
 32 33  1  0
 32 34  1  0
 34 35  1  0
 35 36  2  0
 35 37  1  0
 37 38  1  0
 37 39  2  0
 39 40  1  0
 28 13  1  0
 39 31  1  0
 23 14  1  0
M  CHG  2  33  -1  34  -1
M  END
>  <UniqueID>  (24) 
22

>  <SMILES>  (24) 
O=C1CN(C(=O)CC/C=C/c2ccc(=O)[n-]c2[O-])c2ccccc2N1

>  <Energy>  (24) 
48.927146999129185

>  <Genealogy>  (24) 
O=C1CN(C(=O)CCC=Cc2ccc(=O)[n-]c2[O-])c2ccccc2N1 (protonated)
O=C1CN(C(=O)CC/C=C/c2ccc(=O)[n-]c2[O-])c2ccccc2N1 (cis-trans isomerization)
O=C1CN(C(=O)CC/C=C/c2ccc(=O)[n-]c2[O-])c2ccccc2N1 (3D coordinates assigned)
O=C1CN(C(=O)CC/C=C/c2ccc(=O)[n-]c2[O-])c2ccccc2N1 (nonaromatic ring conformer: 48.927146999129185 kcal/mol)

>  <smiles>  (24) 
O=C1CN(C(=O)CCC=Cc2ccc(=O)[nH]c2O)c2ccccc2N1

>  <score_type>  (24) 
oracle

>  <origin>  (24) 
adg

>  <m_score__min__energy>  (24) 
-14.029999999999999

>  <m_primary>  (24) 
energy

$$$$
24:0
     RDKit          3D

 45 48  0  0  0  0  0  0  0  0999 V2000
   55.3856   29.2651   44.4963 H   0  0  0  0  0  0  0  0  0  0  0  0
   56.0470   30.0370   44.0760 C   0  0  0  0  0  0  0  0  0  0  0  0
   56.6090   31.0100   44.8400 N   0  0  0  0  0  0  0  0  0  0  0  0
   57.3870   31.8370   44.1110 C   0  0  0  0  0  0  0  0  0  0  0  0
   58.0230   32.8370   44.6510 N   0  0  0  0  0  0  0  0  0  0  0  0
   57.8400   33.3840   45.9670 C   0  0  0  0  0  0  0  0  0  0  0  0
   56.6980   33.4650   46.4940 O   0  0  0  0  0  0  0  0  0  0  0  0
   59.0380   33.8110   46.7510 C   0  0  0  0  0  0  0  0  0  0  0  0
   59.0511   34.9085   46.8243 H   0  0  0  0  0  0  0  0  0  0  0  0
   59.9449   33.4561   46.2395 H   0  0  0  0  0  0  0  0  0  0  0  0
   58.9860   33.0970   48.4280 S   0  0  0  0  0  0  0  0  0  0  0  0
   59.1740   31.3990   47.8690 C   0  0  0  0  0  0  0  0  0  0  0  0
   60.0630   30.5100   48.3890 N   0  0  0  0  0  0  0  0  0  0  0  0
   60.9260   30.6880   49.5610 C   0  0  0  0  0  0  0  0  0  0  0  0
   61.2637   29.7036   49.9171 H   0  0  0  0  0  0  0  0  0  0  0  0
   60.3575   31.1974   50.3530 H   0  0  0  0  0  0  0  0  0  0  0  0
   62.1250   31.5250   49.1980 C   0  0  0  0  0  0  0  0  0  0  0  0
   63.2160   31.6240   50.0780 C   0  0  0  0  0  0  0  0  0  0  0  0
   63.2139   31.0534   51.0184 H   0  0  0  0  0  0  0  0  0  0  0  0
   64.3030   32.4430   49.7650 C   0  0  0  0  0  0  0  0  0  0  0  0
   65.1497   32.5205   50.4630 H   0  0  0  0  0  0  0  0  0  0  0  0
   64.3190   33.1640   48.5690 C   0  0  0  0  0  0  0  0  0  0  0  0
   65.1884   33.7887   48.3162 H   0  0  0  0  0  0  0  0  0  0  0  0
   63.2280   33.0930   47.6890 C   0  0  0  0  0  0  0  0  0  0  0  0
   63.2550   33.8420   46.3900 C   0  0  0  0  0  0  0  0  0  0  0  0
   63.2940   34.9228   46.5907 H   0  0  0  0  0  0  0  0  0  0  0  0
   64.1430   33.5439   45.8133 H   0  0  0  0  0  0  0  0  0  0  0  0
   62.3479   33.6086   45.8133 H   0  0  0  0  0  0  0  0  0  0  0  0
   62.1420   32.2590   48.0010 C   0  0  0  0  0  0  0  0  0  0  0  0
   61.2969   32.1800   47.3013 H   0  0  0  0  0  0  0  0  0  0  0  0
   59.8910   29.3990   47.6410 C   0  0  0  0  0  0  0  0  0  0  0  0
   60.5550   28.1730   47.7130 C   0  0  0  0  0  0  0  0  0  0  0  0
   61.3454   27.9962   48.4573 H   0  0  0  0  0  0  0  0  0  0  0  0
   60.1770   27.1710   46.7990 C   0  0  0  0  0  0  0  0  0  0  0  0
   60.6749   26.1906   46.8281 H   0  0  0  0  0  0  0  0  0  0  0  0
   59.1630   27.4140   45.8440 C   0  0  0  0  0  0  0  0  0  0  0  0
   58.8735   26.6203   45.1395 H   0  0  0  0  0  0  0  0  0  0  0  0
   58.5230   28.6640   45.7900 C   0  0  0  0  0  0  0  0  0  0  0  0
   57.7381   28.8701   45.0474 H   0  0  0  0  0  0  0  0  0  0  0  0
   58.9170   29.6320   46.7090 C   0  0  0  0  0  0  0  0  0  0  0  0
   58.4570   30.8850   46.8400 N   0  0  0  0  0  0  0  0  0  0  0  0
   57.7280   31.3650   46.2670 H   0  0  0  0  0  0  0  0  0  0  0  0
   57.3890   31.4040   42.4840 S   0  0  0  0  0  0  0  0  0  0  0  0
   56.3680   30.0880   42.7280 C   0  0  0  0  0  0  0  0  0  0  0  0
   56.0168   29.3904   41.9534 H   0  0  0  0  0  0  0  0  0  0  0  0
  1  2  1  0
  2  3  1  0
  3  4  1  0
  4  5  2  0
  5  6  1  0
  6  7  2  0
  6  8  1  0
  8  9  1  0
  8 10  1  0
  8 11  1  0
 11 12  1  0
 12 13  1  0
 13 14  1  0
 14 15  1  0
 14 16  1  0
 14 17  1  0
 17 18  2  0
 18 19  1  0
 18 20  1  0
 20 21  1  0
 20 22  2  0
 22 23  1  0
 22 24  1  0
 24 25  1  0
 25 26  1  0
 25 27  1  0
 25 28  1  0
 24 29  2  0
 29 30  1  0
 13 31  1  0
 31 32  2  0
 32 33  1  0
 32 34  1  0
 34 35  1  0
 34 36  2  0
 36 37  1  0
 36 38  1  0
 38 39  1  0
 38 40  2  0
 40 41  1  0
 41 42  1  0
  4 43  1  0
 43 44  1  0
 44 45  1  0
 44  2  2  0
 41 12  2  0
 29 17  1  0
 40 31  1  0
M  CHG  2   3  -1  41   1
M  END
>  <UniqueID>  (25) 
23

>  <SMILES>  (25) 
Cc1cccc(Cn2c(SCC(=O)/N=c3/[n-]ccs3)[nH+]c3ccccc32)c1

>  <Energy>  (25) 
113.11744982775453

>  <Genealogy>  (25) 
Cc1cccc(Cn2c(SCC(=O)N=c3[n-]ccs3)[nH+]c3ccccc32)c1 (protonated)
Cc1cccc(Cn2c(SCC(=O)/N=c3/[n-]ccs3)[nH+]c3ccccc32)c1 (cis-trans isomerization)
Cc1cccc(Cn2c(SCC(=O)/N=c3/[n-]ccs3)[nH+]c3ccccc32)c1 (3D coordinates assigned)
Cc1cccc(Cn2c(SCC(=O)/N=c3/[n-]ccs3)[nH+]c3ccccc32)c1 (optimized conformer: 113.11744982775453 kcal/mol)

>  <smiles>  (25) 
Cc1cccc(Cn2c(SCC(=O)N=c3[nH]ccs3)nc3ccccc32)c1

>  <score_type>  (25) 
oracle

>  <origin>  (25) 
adg

>  <m_score__min__energy>  (25) 
-9.5899999999999999

>  <m_primary>  (25) 
energy

$$$$
25:0
     RDKit          3D

 34 35  0  0  0  0  0  0  0  0999 V2000
   57.4900   31.6240   43.0110 O   0  0  0  0  0  0  0  0  0  0  0  0
   57.5140   32.0160   44.2090 C   0  0  0  0  0  0  0  0  0  0  0  0
   57.4180   33.4890   44.5240 C   0  0  0  0  0  0  0  0  0  0  0  0
   58.7570   34.1310   44.9170 C   0  0  0  0  0  0  0  0  0  0  0  0
   59.1260   33.9720   46.6650 S   0  0  0  0  0  0  0  0  0  0  0  0
   58.0230   33.1940   47.3230 O   0  0  0  0  0  0  0  0  0  0  0  0
   59.1840   35.3460   47.2730 O   0  0  0  0  0  0  0  0  0  0  0  0
   60.6530   33.1330   46.9440 C   0  0  0  0  0  0  0  0  0  0  0  0
   61.8670   33.8320   46.8520 C   0  0  0  0  0  0  0  0  0  0  0  0
   63.0790   33.1710   47.0730 C   0  0  0  0  0  0  0  0  0  0  0  0
   63.0860   31.8120   47.3950 C   0  0  0  0  0  0  0  0  0  0  0  0
   61.8810   31.1130   47.5050 C   0  0  0  0  0  0  0  0  0  0  0  0
   60.6670   31.7720   47.2850 C   0  0  0  0  0  0  0  0  0  0  0  0
   57.3950   31.0430   45.2540 N   0  0  0  0  0  0  0  0  0  0  0  0
   58.0770   29.9390   45.3740 C   0  0  0  0  0  0  0  0  0  0  0  0
   58.1940   29.3560   46.6440 C   0  0  0  0  0  0  0  0  0  0  0  0
   58.9220   28.1760   46.7980 C   0  0  0  0  0  0  0  0  0  0  0  0
   59.5160   27.5790   45.6880 C   0  0  0  0  0  0  0  0  0  0  0  0
   59.3630   28.1670   44.4320 C   0  0  0  0  0  0  0  0  0  0  0  0
   58.6500   29.3190   44.2960 N   0  0  0  0  0  0  0  0  0  0  0  0
   57.0328   34.0088   43.6344 H   0  0  0  0  0  0  0  0  0  0  0  0
   56.7505   33.5864   45.3929 H   0  0  0  0  0  0  0  0  0  0  0  0
   59.5602   33.6448   44.3438 H   0  0  0  0  0  0  0  0  0  0  0  0
   58.6843   35.2055   44.6931 H   0  0  0  0  0  0  0  0  0  0  0  0
   61.8646   34.9039   46.6051 H   0  0  0  0  0  0  0  0  0  0  0  0
   64.0278   33.7217   46.9932 H   0  0  0  0  0  0  0  0  0  0  0  0
   64.0406   31.2916   47.5621 H   0  0  0  0  0  0  0  0  0  0  0  0
   61.8872   30.0441   47.7647 H   0  0  0  0  0  0  0  0  0  0  0  0
   59.7196   31.2211   47.3797 H   0  0  0  0  0  0  0  0  0  0  0  0
   57.7140   29.8269   47.5146 H   0  0  0  0  0  0  0  0  0  0  0  0
   59.0268   27.7183   47.7927 H   0  0  0  0  0  0  0  0  0  0  0  0
   60.0997   26.6535   45.8008 H   0  0  0  0  0  0  0  0  0  0  0  0
   59.8202   27.6981   43.5482 H   0  0  0  0  0  0  0  0  0  0  0  0
   58.5220   29.6940   43.3320 H   0  0  0  0  0  0  0  0  0  0  0  0
  1  2  2  0
  2  3  1  0
  3  4  1  0
  4  5  1  0
  5  6  2  0
  5  7  2  0
  5  8  1  0
  8  9  2  0
  9 10  1  0
 10 11  2  0
 11 12  1  0
 12 13  2  0
  2 14  1  0
 14 15  2  3
 15 16  1  0
 16 17  2  0
 17 18  1  0
 18 19  2  0
 19 20  1  0
 13  8  1  0
 20 15  1  0
  3 21  1  0
  3 22  1  0
  4 23  1  0
  4 24  1  0
  9 25  1  0
 10 26  1  0
 11 27  1  0
 12 28  1  0
 13 29  1  0
 16 30  1  0
 17 31  1  0
 18 32  1  0
 19 33  1  0
 20 34  1  0
M  END
>  <UniqueID>  (26) 
24

>  <SMILES>  (26) 
O=C(CCS(=O)(=O)c1ccccc1)N=c1cccc[nH]1

>  <Energy>  (26) 
38.77996859452726

>  <Genealogy>  (26) 
O=C(CCS(=O)(=O)c1ccccc1)N=c1cccc[nH]1 (3D coordinates assigned)
O=C(CCS(=O)(=O)c1ccccc1)N=c1cccc[nH]1 (optimized conformer: 38.77996859452726 kcal/mol)

>  <smiles>  (26) 
O=C(CCS(=O)(=O)c1ccccc1)N=c1cccc[nH]1

>  <score_type>  (26) 
oracle

>  <origin>  (26) 
adg

>  <m_score__min__energy>  (26) 
-7.2699999999999996

>  <m_primary>  (26) 
energy

$$$$
26:0
     RDKit          3D

 36 38  0  0  0  0  0  0  0  0999 V2000
   55.8720   29.3550   44.2390 C   0  0  0  0  0  0  0  0  0  0  0  0
   56.8800   28.6980   45.0670 N   0  0  0  0  0  0  0  0  0  0  0  0
   56.9430   27.3890   45.2490 N   0  0  0  0  0  0  0  0  0  0  0  0
   57.9770   27.1260   46.0660 C   0  0  0  0  0  0  0  0  0  0  0  0
   58.3250   25.8090   46.4990 N   0  0  0  0  0  0  0  0  0  0  0  0
   57.1460   24.5750   46.8080 S   0  0  0  0  0  0  0  0  0  0  0  0
   55.9570   25.2160   47.4650 O   0  0  0  0  0  0  0  0  0  0  0  0
   57.7450   23.5600   47.7400 O   0  0  0  0  0  0  0  0  0  0  0  0
   56.6730   23.7740   45.2990 C   0  0  0  0  0  0  0  0  0  0  0  0
   57.6290   22.9810   44.6420 C   0  0  0  0  0  0  0  0  0  0  0  0
   57.3510   22.4090   43.4010 C   0  0  0  0  0  0  0  0  0  0  0  0
   56.1140   22.6170   42.7970 C   0  0  0  0  0  0  0  0  0  0  0  0
   55.1410   23.3800   43.4430 C   0  0  0  0  0  0  0  0  0  0  0  0
   55.3940   23.9520   44.7050 C   0  0  0  0  0  0  0  0  0  0  0  0
   54.2960   24.6930   45.3670 C   0  0  0  0  0  0  0  0  0  0  0  0
   53.2640   24.0830   45.7520 O   0  0  0  0  0  0  0  0  0  0  0  0
   54.4110   26.0530   45.6300 O   0  0  0  0  0  0  0  0  0  0  0  0
   58.6030   28.3070   46.4260 C   0  0  0  0  0  0  0  0  0  0  0  0
   57.8750   29.2880   45.7720 C   0  0  0  0  0  0  0  0  0  0  0  0
   58.1370   30.7400   45.8430 C   0  0  0  0  0  0  0  0  0  0  0  0
   59.2690   31.3340   46.3690 C   0  0  0  0  0  0  0  0  0  0  0  0
   59.0790   32.6920   46.2260 C   0  0  0  0  0  0  0  0  0  0  0  0
   57.8470   32.8440   45.6240 C   0  0  0  0  0  0  0  0  0  0  0  0
   57.3120   31.6640   45.4080 O   0  0  0  0  0  0  0  0  0  0  0  0
   55.1264   29.8410   44.8855 H   0  0  0  0  0  0  0  0  0  0  0  0
   56.3556   30.1118   43.6040 H   0  0  0  0  0  0  0  0  0  0  0  0
   55.3748   28.6070   43.6040 H   0  0  0  0  0  0  0  0  0  0  0  0
   56.2910   26.6880   44.8300 H   0  0  0  0  0  0  0  0  0  0  0  0
   58.6085   22.8094   45.1123 H   0  0  0  0  0  0  0  0  0  0  0  0
   58.1106   21.7922   42.8983 H   0  0  0  0  0  0  0  0  0  0  0  0
   55.9037   22.1795   41.8099 H   0  0  0  0  0  0  0  0  0  0  0  0
   54.1647   23.5367   42.9611 H   0  0  0  0  0  0  0  0  0  0  0  0
   59.4773   28.4369   47.0807 H   0  0  0  0  0  0  0  0  0  0  0  0
   60.1405   30.8281   46.8101 H   0  0  0  0  0  0  0  0  0  0  0  0
   59.7697   33.4922   46.5303 H   0  0  0  0  0  0  0  0  0  0  0  0
   57.3832   33.8071   45.3644 H   0  0  0  0  0  0  0  0  0  0  0  0
  1  2  1  0
  2  3  1  0
  3  4  2  0
  4  5  1  0
  5  6  1  0
  6  7  2  0
  6  8  2  0
  6  9  1  0
  9 10  2  0
 10 11  1  0
 11 12  2  0
 12 13  1  0
 13 14  2  0
 14 15  1  0
 15 16  2  0
 15 17  1  0
  4 18  1  0
 18 19  2  0
 19 20  1  0
 20 21  2  0
 21 22  1  0
 22 23  2  0
 23 24  1  0
 19  2  1  0
 24 20  1  0
 14  9  1  0
  1 25  1  0
  1 26  1  0
  1 27  1  0
  3 28  1  0
 10 29  1  0
 11 30  1  0
 12 31  1  0
 13 32  1  0
 18 33  1  0
 21 34  1  0
 22 35  1  0
 23 36  1  0
M  CHG  3   3   1   5  -1  17  -1
M  END
>  <UniqueID>  (27) 
25

>  <SMILES>  (27) 
Cn1[nH+]c([N-]S(=O)(=O)c2ccccc2C(=O)[O-])cc1-c1ccco1

>  <Energy>  (27) 
103.45855483257066

>  <Genealogy>  (27) 
Cn1[nH+]c([N-]S(=O)(=O)c2ccccc2C(=O)[O-])cc1-c1ccco1 (protonated)
Cn1[nH+]c([N-]S(=O)(=O)c2ccccc2C(=O)[O-])cc1-c1ccco1 (3D coordinates assigned)
Cn1[nH+]c([N-]S(=O)(=O)c2ccccc2C(=O)[O-])cc1-c1ccco1 (optimized conformer: 103.45855483257066 kcal/mol)

>  <smiles>  (27) 
Cn1nc(NS(=O)(=O)c2ccccc2C(=O)O)cc1-c1ccco1

>  <score_type>  (27) 
oracle

>  <origin>  (27) 
adg

>  <m_score__min__energy>  (27) 
-10.359999999999999

>  <m_primary>  (27) 
energy

$$$$
27:0
     RDKit          3D

 48 51  0  0  0  0  0  0  0  0999 V2000
   60.8410   26.6300   48.2060 O   0  0  0  0  0  0  0  0  0  0  0  0
   60.1110   27.5880   47.8290 C   0  0  0  0  0  0  0  0  0  0  0  0
   60.4810   28.9880   48.2090 C   0  0  0  0  0  0  0  0  0  0  0  0
   59.7560   30.2010   47.0480 S   0  0  0  0  0  0  0  0  0  0  0  0
   60.9970   31.4760   47.3300 C   0  0  0  0  0  0  0  0  0  0  0  0
   62.1910   31.1020   47.8610 N   0  0  0  0  0  0  0  0  0  0  0  0
   63.1950   31.9960   48.0420 C   0  0  0  0  0  0  0  0  0  0  0  0
   63.0240   33.2930   47.6830 N   0  0  0  0  0  0  0  0  0  0  0  0
   61.8510   33.7190   47.1510 C   0  0  0  0  0  0  0  0  0  0  0  0
   60.7890   32.8220   46.9680 C   0  0  0  0  0  0  0  0  0  0  0  0
   59.5180   33.3000   46.3800 C   0  0  0  0  0  0  0  0  0  0  0  0
   58.2970   33.0140   47.0130 C   0  0  0  0  0  0  0  0  0  0  0  0
   57.0930   33.4610   46.4590 C   0  0  0  0  0  0  0  0  0  0  0  0
   57.1000   34.1870   45.2650 C   0  0  0  0  0  0  0  0  0  0  0  0
   58.3090   34.4670   44.6230 C   0  0  0  0  0  0  0  0  0  0  0  0
   59.5140   34.0220   45.1740 C   0  0  0  0  0  0  0  0  0  0  0  0
   58.9410   27.3450   47.0320 N   0  0  0  0  0  0  0  0  0  0  0  0
   58.6540   26.0870   46.3990 C   0  0  0  0  0  0  0  0  0  0  0  0
   59.6550   25.1010   46.3210 C   0  0  0  0  0  0  0  0  0  0  0  0
   59.4340   23.9160   45.6200 C   0  0  0  0  0  0  0  0  0  0  0  0
   58.2170   23.7030   44.9760 C   0  0  0  0  0  0  0  0  0  0  0  0
   57.2150   24.6720   45.0340 C   0  0  0  0  0  0  0  0  0  0  0  0
   57.4130   25.8690   45.7470 C   0  0  0  0  0  0  0  0  0  0  0  0
   56.3050   26.8510   45.8180 C   0  0  0  0  0  0  0  0  0  0  0  0
   55.1340   26.4570   46.0660 O   0  0  0  0  0  0  0  0  0  0  0  0
   56.5790   28.2430   45.5700 N   0  0  0  0  0  0  0  0  0  0  0  0
   56.7780   28.9800   44.3140 C   0  0  0  0  0  0  0  0  0  0  0  0
   56.6740   30.4930   44.3970 C   0  0  0  0  0  0  0  0  0  0  0  0
   58.0370   29.8260   44.2230 C   0  0  0  0  0  0  0  0  0  0  0  0
   60.1087   29.1950   49.2232 H   0  0  0  0  0  0  0  0  0  0  0  0
   61.5764   29.0814   48.1718 H   0  0  0  0  0  0  0  0  0  0  0  0
   64.1493   31.6688   48.4805 H   0  0  0  0  0  0  0  0  0  0  0  0
   61.7324   34.7736   46.8617 H   0  0  0  0  0  0  0  0  0  0  0  0
   58.2877   32.4358   47.9487 H   0  0  0  0  0  0  0  0  0  0  0  0
   56.1405   33.2410   46.9633 H   0  0  0  0  0  0  0  0  0  0  0  0
   56.1527   34.5384   44.8301 H   0  0  0  0  0  0  0  0  0  0  0  0
   58.3125   35.0382   43.6830 H   0  0  0  0  0  0  0  0  0  0  0  0
   60.4632   34.2377   44.6617 H   0  0  0  0  0  0  0  0  0  0  0  0
   58.2780   28.1380   46.8790 H   0  0  0  0  0  0  0  0  0  0  0  0
   60.6221   25.2668   46.8183 H   0  0  0  0  0  0  0  0  0  0  0  0
   60.2211   23.1488   45.5754 H   0  0  0  0  0  0  0  0  0  0  0  0
   58.0459   22.7690   44.4207 H   0  0  0  0  0  0  0  0  0  0  0  0
   56.2598   24.4985   44.5168 H   0  0  0  0  0  0  0  0  0  0  0  0
   56.3165   28.2032   43.6866 H   0  0  0  0  0  0  0  0  0  0  0  0
   56.2289   31.0605   43.5665 H   0  0  0  0  0  0  0  0  0  0  0  0
   56.2417   31.2056   45.1148 H   0  0  0  0  0  0  0  0  0  0  0  0
   58.5743   29.9125   43.2670 H   0  0  0  0  0  0  0  0  0  0  0  0
   58.9947   29.8582   44.7632 H   0  0  0  0  0  0  0  0  0  0  0  0
  1  2  2  0
  2  3  1  0
  3  4  1  0
  4  5  1  0
  5  6  2  0
  6  7  1  0
  7  8  2  0
  8  9  1  0
  9 10  2  0
 10 11  1  0
 11 12  2  0
 12 13  1  0
 13 14  2  0
 14 15  1  0
 15 16  2  0
  2 17  1  0
 17 18  1  0
 18 19  2  0
 19 20  1  0
 20 21  2  0
 21 22  1  0
 22 23  2  0
 23 24  1  0
 24 25  2  0
 24 26  1  0
 26 27  1  0
 27 28  1  0
 28 29  1  0
 10  5  1  0
 16 11  1  0
 23 18  1  0
 29 27  1  0
  3 30  1  0
  3 31  1  0
  7 32  1  0
  9 33  1  0
 12 34  1  0
 13 35  1  0
 14 36  1  0
 15 37  1  0
 16 38  1  0
 17 39  1  0
 19 40  1  0
 20 41  1  0
 21 42  1  0
 22 43  1  0
 27 44  1  0
 28 45  1  0
 28 46  1  0
 29 47  1  0
 29 48  1  0
M  CHG  1  26  -1
M  END
>  <UniqueID>  (28) 
26

>  <SMILES>  (28) 
O=C(CSc1ncncc1-c1ccccc1)Nc1ccccc1C(=O)[N-]C1CC1

>  <Energy>  (28) 
331.1595159702702

>  <Genealogy>  (28) 
O=C(CSc1ncncc1-c1ccccc1)Nc1ccccc1C(=O)[N-]C1CC1 (protonated)
O=C(CSc1ncncc1-c1ccccc1)Nc1ccccc1C(=O)[N-]C1CC1 (3D coordinates assigned)
O=C(CSc1ncncc1-c1ccccc1)Nc1ccccc1C(=O)[N-]C1CC1 (nonaromatic ring conformer: 331.1595159702702 kcal/mol)

>  <smiles>  (28) 
O=C(CSc1ncncc1-c1ccccc1)Nc1ccccc1C(=O)NC1CC1

>  <score_type>  (28) 
oracle

>  <origin>  (28) 
adg

>  <m_score__min__energy>  (28) 
-10.84

>  <m_primary>  (28) 
energy

$$$$
28:0
     RDKit          3D

 41 44  0  0  0  0  0  0  0  0999 V2000
   60.4160   30.9330   50.0910 H   0  0  0  0  0  0  0  0  0  0  0  0
   60.6260   30.2750   50.8320 O   0  0  0  0  0  0  0  0  0  0  0  0
   60.6630   28.9050   50.5850 C   0  0  0  0  0  0  0  0  0  0  0  0
   60.7910   28.0430   51.6270 N   0  0  0  0  0  0  0  0  0  0  0  0
   60.8200   26.7010   51.4290 C   0  0  0  0  0  0  0  0  0  0  0  0
   60.9360   25.9230   52.4110 O   0  0  0  0  0  0  0  0  0  0  0  0
   60.7280   26.1980   50.1730 N   0  0  0  0  0  0  0  0  0  0  0  0
   60.6020   27.0140   49.0950 C   0  0  0  0  0  0  0  0  0  0  0  0
   60.5530   26.5030   47.9450 O   0  0  0  0  0  0  0  0  0  0  0  0
   60.5550   28.4110   49.2720 C   0  0  0  0  0  0  0  0  0  0  0  0
   60.4180   29.3480   48.1300 C   0  0  0  0  0  0  0  0  0  0  0  0
   61.4510   29.7040   47.4990 O   0  0  0  0  0  0  0  0  0  0  0  0
   59.0790   29.9340   47.7330 C   0  0  1  0  0  0  0  0  0  0  0  0
   58.2917   29.5812   48.4155 H   0  0  0  0  0  0  0  0  0  0  0  0
   59.1390   31.4430   47.8530 C   0  0  0  0  0  0  0  0  0  0  0  0
   59.6560   31.9440   48.8900 O   0  0  0  0  0  0  0  0  0  0  0  0
   58.5440   32.3400   46.8320 C   0  0  0  0  0  0  0  0  0  0  0  0
   58.6020   33.7380   46.9970 C   0  0  0  0  0  0  0  0  0  0  0  0
   59.1131   34.1638   47.8730 H   0  0  0  0  0  0  0  0  0  0  0  0
   58.0150   34.5870   46.0560 C   0  0  0  0  0  0  0  0  0  0  0  0
   58.0665   35.6773   46.1926 H   0  0  0  0  0  0  0  0  0  0  0  0
   57.3640   34.0550   44.9440 C   0  0  0  0  0  0  0  0  0  0  0  0
   56.9002   34.7259   44.2059 H   0  0  0  0  0  0  0  0  0  0  0  0
   57.3000   32.6720   44.7660 C   0  0  0  0  0  0  0  0  0  0  0  0
   56.7836   32.2573   43.8878 H   0  0  0  0  0  0  0  0  0  0  0  0
   57.8920   31.8050   45.7030 C   0  0  0  0  0  0  0  0  0  0  0  0
   57.8400   30.3450   45.5040 C   0  0  0  0  0  0  0  0  0  0  0  0
   57.0540   29.8570   44.6470 O   0  0  0  0  0  0  0  0  0  0  0  0
   58.6750   29.4570   46.3520 C   0  0  0  0  0  0  0  0  0  0  0  0
   58.9470   28.2220   46.0190 N   0  0  0  0  0  0  0  0  0  0  0  0
   58.0600   27.0950   45.9980 C   0  0  0  0  0  0  0  0  0  0  0  0
   58.5910   25.8120   45.8250 C   0  0  0  0  0  0  0  0  0  0  0  0
   59.6801   25.6757   45.7523 H   0  0  0  0  0  0  0  0  0  0  0  0
   57.7440   24.7020   45.7440 C   0  0  0  0  0  0  0  0  0  0  0  0
   58.1685   23.6940   45.6267 H   0  0  0  0  0  0  0  0  0  0  0  0
   56.3580   24.8730   45.8120 C   0  0  0  0  0  0  0  0  0  0  0  0
   55.6932   23.9982   45.7593 H   0  0  0  0  0  0  0  0  0  0  0  0
   55.8160   26.1550   45.9470 C   0  0  0  0  0  0  0  0  0  0  0  0
   54.4390   26.3260   45.9950 O   0  0  0  0  0  0  0  0  0  0  0  0
   56.6630   27.2660   46.0290 C   0  0  0  0  0  0  0  0  0  0  0  0
   56.2359   28.2758   46.1179 H   0  0  0  0  0  0  0  0  0  0  0  0
  1  2  1  0
  2  3  1  0
  3  4  1  0
  4  5  1  0
  5  6  2  0
  5  7  1  0
  7  8  1  0
  8  9  2  0
  8 10  1  0
 10 11  1  0
 11 12  2  0
 11 13  1  0
 13 14  1  1
 13 15  1  0
 15 16  2  0
 15 17  1  0
 17 18  2  0
 18 19  1  0
 18 20  1  0
 20 21  1  0
 20 22  2  0
 22 23  1  0
 22 24  1  0
 24 25  1  0
 24 26  2  0
 26 27  1  0
 27 28  2  0
 27 29  1  0
 29 30  2  0
 30 31  1  0
 31 32  2  0
 32 33  1  0
 32 34  1  0
 34 35  1  0
 34 36  2  0
 36 37  1  0
 36 38  1  0
 38 39  1  0
 38 40  2  0
 40 41  1  0
 10  3  2  0
 29 13  1  0
 40 31  1  0
 26 17  1  0
M  CHG  3   4  -1   7  -1  39  -1
M  END
>  <UniqueID>  (29) 
27

>  <SMILES>  (29) 
O=C1/C(=N\c2cccc([O-])c2)[C@@H](C(=O)c2c(O)[n-]c(=O)[n-]c2=O)C(=O)c2ccccc21

>  <Energy>  (29) 
67.9257373765692

>  <Genealogy>  (29) 
O=C1C(=Nc2cccc([O-])c2)C(C(=O)c2c(O)[n-]c(=O)[n-]c2=O)C(=O)c2ccccc21 (protonated)
O=C1C(=Nc2cccc([O-])c2)[C@@H](C(=O)c2c(O)[n-]c(=O)[n-]c2=O)C(=O)c2ccccc21 (chirality)
O=C1/C(=N\c2cccc([O-])c2)[C@@H](C(=O)c2c(O)[n-]c(=O)[n-]c2=O)C(=O)c2ccccc21 (cis-trans isomerization)
O=C1/C(=N\c2cccc([O-])c2)[C@@H](C(=O)c2c(O)[n-]c(=O)[n-]c2=O)C(=O)c2ccccc21 (3D coordinates assigned)
O=C1/C(=N\c2cccc([O-])c2)[C@@H](C(=O)c2c(O)[n-]c(=O)[n-]c2=O)C(=O)c2ccccc21 (nonaromatic ring conformer: 67.9257373765692 kcal/mol)

>  <smiles>  (29) 
O=C1C(=Nc2cccc(O)c2)C(C(=O)c2c(O)[nH]c(=O)[nH]c2=O)C(=O)c2ccccc21

>  <score_type>  (29) 
oracle

>  <origin>  (29) 
adg

>  <m_score__min__energy>  (29) 
-13.880000000000001

>  <m_primary>  (29) 
energy

$$$$
29:0
     RDKit          3D

 38 40  0  0  0  0  0  0  0  0999 V2000
   59.6200   27.4790   44.9230 O   0  0  0  0  0  0  0  0  0  0  0  0
   59.3150   28.6790   45.1610 C   0  0  0  0  0  0  0  0  0  0  0  0
   60.2600   29.5380   45.8120 N   0  0  0  0  0  0  0  0  0  0  0  0
   60.4690   29.6150   47.2290 C   0  0  0  0  0  0  0  0  0  0  0  0
   59.9620   28.5860   48.0340 C   0  0  0  0  0  0  0  0  0  0  0  0
   60.1180   28.6300   49.4190 C   0  0  0  0  0  0  0  0  0  0  0  0
   60.7670   29.7110   50.0150 C   0  0  0  0  0  0  0  0  0  0  0  0
   61.2470   30.7610   49.2290 C   0  0  0  0  0  0  0  0  0  0  0  0
   61.0870   30.7350   47.8280 C   0  0  0  0  0  0  0  0  0  0  0  0
   61.5010   31.8020   47.0120 O   0  0  0  0  0  0  0  0  0  0  0  0
   61.1440   33.1720   47.1930 C   0  0  0  0  0  0  0  0  0  0  0  0
   59.8020   33.4550   46.5730 C   0  0  0  0  0  0  0  0  0  0  0  0
   58.6300   32.9030   47.1150 C   0  0  0  0  0  0  0  0  0  0  0  0
   57.3890   33.1750   46.5320 C   0  0  0  0  0  0  0  0  0  0  0  0
   57.3080   34.0030   45.4080 C   0  0  0  0  0  0  0  0  0  0  0  0
   58.4680   34.5630   44.8690 C   0  0  0  0  0  0  0  0  0  0  0  0
   59.7110   34.2950   45.4490 C   0  0  0  0  0  0  0  0  0  0  0  0
   57.9500   29.1650   44.8470 C   0  0  0  0  0  0  0  0  0  0  0  0
   57.8090   30.3840   44.1620 C   0  0  0  0  0  0  0  0  0  0  0  0
   56.5450   30.8690   43.8290 C   0  0  0  0  0  0  0  0  0  0  0  0
   55.4170   30.1370   44.1920 C   0  0  0  0  0  0  0  0  0  0  0  0
   55.5540   28.9700   44.8730 N   0  0  0  0  0  0  0  0  0  0  0  0
   56.7710   28.4640   45.2120 C   0  0  0  0  0  0  0  0  0  0  0  0
   56.8060   27.0860   46.1020 S   0  0  0  0  0  0  0  0  0  0  0  0
   59.4374   27.7377   47.5701 H   0  0  0  0  0  0  0  0  0  0  0  0
   59.7288   27.8113   50.0421 H   0  0  0  0  0  0  0  0  0  0  0  0
   60.9011   29.7367   51.1065 H   0  0  0  0  0  0  0  0  0  0  0  0
   61.7530   31.6135   49.7056 H   0  0  0  0  0  0  0  0  0  0  0  0
   61.0995   33.3950   48.2692 H   0  0  0  0  0  0  0  0  0  0  0  0
   61.9009   33.8036   46.7050 H   0  0  0  0  0  0  0  0  0  0  0  0
   58.6887   32.2543   48.0014 H   0  0  0  0  0  0  0  0  0  0  0  0
   56.4744   32.7369   46.9582 H   0  0  0  0  0  0  0  0  0  0  0  0
   56.3308   34.2131   44.9486 H   0  0  0  0  0  0  0  0  0  0  0  0
   58.4034   35.2162   43.9863 H   0  0  0  0  0  0  0  0  0  0  0  0
   60.6216   34.7429   45.0246 H   0  0  0  0  0  0  0  0  0  0  0  0
   58.7041   30.9608   43.8860 H   0  0  0  0  0  0  0  0  0  0  0  0
   56.4397   31.8195   43.2854 H   0  0  0  0  0  0  0  0  0  0  0  0
   54.4146   30.5043   43.9269 H   0  0  0  0  0  0  0  0  0  0  0  0
  1  2  2  0
  2  3  1  0
  3  4  1  0
  4  5  2  0
  5  6  1  0
  6  7  2  0
  7  8  1  0
  8  9  2  0
  9 10  1  0
 10 11  1  0
 11 12  1  0
 12 13  2  0
 13 14  1  0
 14 15  2  0
 15 16  1  0
 16 17  2  0
  2 18  1  0
 18 19  2  0
 19 20  1  0
 20 21  2  0
 21 22  1  0
 22 23  1  0
 23 24  2  0
  9  4  1  0
 17 12  1  0
 23 18  1  0
  5 25  1  0
  6 26  1  0
  7 27  1  0
  8 28  1  0
 11 29  1  0
 11 30  1  0
 13 31  1  0
 14 32  1  0
 15 33  1  0
 16 34  1  0
 17 35  1  0
 19 36  1  0
 20 37  1  0
 21 38  1  0
M  CHG  2   3  -1  22  -1
M  END
>  <UniqueID>  (30) 
28

>  <SMILES>  (30) 
O=C([N-]c1ccccc1OCc1ccccc1)c1ccc[n-]c1=S

>  <Energy>  (30) 
52.225873276039806

>  <Genealogy>  (30) 
O=C([N-]c1ccccc1OCc1ccccc1)c1ccc[n-]c1=S (protonated)
O=C([N-]c1ccccc1OCc1ccccc1)c1ccc[n-]c1=S (3D coordinates assigned)
O=C([N-]c1ccccc1OCc1ccccc1)c1ccc[n-]c1=S (optimized conformer: 52.225873276039806 kcal/mol)

>  <smiles>  (30) 
O=C(Nc1ccccc1OCc1ccccc1)c1ccc[nH]c1=S

>  <score_type>  (30) 
oracle

>  <origin>  (30) 
adg

>  <m_score__min__energy>  (30) 
-11.19

>  <m_primary>  (30) 
energy

$$$$
30:0
     RDKit          3D

 65 68  0  0  1  0  0  0  0  0999 V2000
   50.6510   23.6960   44.3870 C   0  0  0  0  0  0  0  0  0  0  0  0
   51.6550   23.0990   45.2940 C   0  0  0  0  0  0  0  0  0  0  0  0
   51.4170   21.8840   45.8870 C   0  0  0  0  0  0  0  0  0  0  0  0
   52.3980   21.3850   46.7150 C   0  0  0  0  0  0  0  0  0  0  0  0
   53.5860   22.0780   46.9460 C   0  0  0  0  0  0  0  0  0  0  0  0
   53.8340   23.2850   46.3620 C   0  0  0  0  0  0  0  0  0  0  0  0
   55.0000   24.1090   46.4520 C   0  0  0  0  0  0  0  0  0  0  0  0
   56.0530   23.9550   46.9500 O   0  0  0  0  0  0  0  0  0  0  0  0
   54.7720   25.6180   45.6620 N   0  0  0  0  0  0  0  0  0  0  0  0
   56.0880   26.1120   45.9640 C   0  0  0  0  0  0  0  0  0  0  0  0
   57.0970   25.7480   46.4470 O   0  0  0  0  0  0  0  0  0  0  0  0
   56.0620   27.5390   45.4900 N   0  0  0  0  0  0  0  0  0  0  0  0
   57.1750   28.3760   45.6350 C   0  0  0  0  0  0  0  0  0  0  0  0
   56.8920   29.8100   45.2000 C   0  0  0  0  0  0  0  0  0  0  0  0
   57.9120   30.6720   45.8990 C   0  0  0  0  0  0  0  0  0  0  0  0
   59.1790   29.9410   45.8050 N   0  0  0  0  0  0  0  0  0  0  0  0
   60.1330   30.1930   46.8130 C   0  0  0  0  0  0  0  0  0  0  0  0
   59.9190   29.6110   48.0550 C   0  0  0  0  0  0  0  0  0  0  0  0
   60.7770   29.8170   49.1270 C   0  0  0  0  0  0  0  0  0  0  0  0
   61.8450   30.6290   48.8750 N   0  0  0  0  0  0  0  0  0  0  0  0
   62.0600   31.1920   47.6850 C   0  0  0  0  0  0  0  0  0  0  0  0
   63.0500   31.9710   47.5400 N   0  0  0  0  0  0  0  0  0  0  0  0
   63.0400   33.4120   47.5370 C   0  0  0  0  0  0  0  0  0  0  0  0
   61.9150   34.0270   48.2810 C   0  0  0  0  0  0  0  0  0  0  0  0
   60.5920   33.9590   47.6830 C   0  0  0  0  0  0  0  0  0  0  0  0
   60.4200   34.5040   46.4070 C   0  0  0  0  0  0  0  0  0  0  0  0
   59.1580   34.4180   45.8820 C   0  0  0  0  0  0  0  0  0  0  0  0
   58.0750   33.8570   46.4860 C   0  0  0  0  0  0  0  0  0  0  0  0
   56.8100   33.7720   45.9560 O   0  0  0  0  0  0  0  0  0  0  0  0
   58.2430   33.3010   47.7800 C   0  0  0  0  0  0  0  0  0  0  0  0
   59.5060   33.4010   48.2770 C   0  0  0  0  0  0  0  0  0  0  0  0
   61.2130   30.9710   46.6730 N   0  0  0  0  0  0  0  0  0  0  0  0
   59.3610   29.0020   44.7150 C   0  0  0  0  0  0  0  0  0  0  0  0
   58.3890   27.8670   44.8770 C   0  0  0  0  0  0  0  0  0  0  0  0
   52.8210   23.7720   45.5240 C   0  0  0  0  0  0  0  0  0  0  0  0
   49.8554   24.1691   44.9813 H   0  0  0  0  0  0  0  0  0  0  0  0
   51.1345   24.4535   43.7525 H   0  0  0  0  0  0  0  0  0  0  0  0
   50.2164   22.9095   43.7525 H   0  0  0  0  0  0  0  0  0  0  0  0
   50.4823   21.3323   45.7084 H   0  0  0  0  0  0  0  0  0  0  0  0
   52.2403   20.4140   47.2072 H   0  0  0  0  0  0  0  0  0  0  0  0
   54.3412   21.6404   47.6155 H   0  0  0  0  0  0  0  0  0  0  0  0
   54.0110   25.3300   45.4870 H   0  0  0  0  0  0  0  0  0  0  0  0
   55.1450   27.8550   45.0440 H   0  0  0  0  0  0  0  0  0  0  0  0
   57.3951   28.3670   46.7127 H   0  0  0  0  0  0  0  0  0  0  0  0
   56.9962   29.9049   44.1091 H   0  0  0  0  0  0  0  0  0  0  0  0
   55.8668   30.1123   45.4601 H   0  0  0  0  0  0  0  0  0  0  0  0
   57.9949   31.6491   45.4006 H   0  0  0  0  0  0  0  0  0  0  0  0
   57.6316   30.8664   46.9448 H   0  0  0  0  0  0  0  0  0  0  0  0
   59.0399   28.9647   48.1946 H   0  0  0  0  0  0  0  0  0  0  0  0
   60.6077   29.3574   50.1119 H   0  0  0  0  0  0  0  0  0  0  0  0
   62.4930   30.7770   49.6540 H   0  0  0  0  0  0  0  0  0  0  0  0
   63.9804   33.7617   47.9879 H   0  0  0  0  0  0  0  0  0  0  0  0
   62.9218   33.7188   46.4873 H   0  0  0  0  0  0  0  0  0  0  0  0
   61.8586   33.5302   49.2608 H   0  0  0  0  0  0  0  0  0  0  0  0
   62.1532   35.1006   48.3076 H   0  0  0  0  0  0  0  0  0  0  0  0
   61.2490   34.9739   45.8575 H   0  0  0  0  0  0  0  0  0  0  0  0
   59.0054   34.8419   44.8785 H   0  0  0  0  0  0  0  0  0  0  0  0
   56.0680   34.3940   46.3060 H   0  0  0  0  0  0  0  0  0  0  0  0
   57.4202   32.8279   48.3361 H   0  0  0  0  0  0  0  0  0  0  0  0
   59.6662   32.9792   49.2802 H   0  0  0  0  0  0  0  0  0  0  0  0
   59.1779   29.5100   43.7566 H   0  0  0  0  0  0  0  0  0  0  0  0
   60.3901   28.6137   44.7280 H   0  0  0  0  0  0  0  0  0  0  0  0
   58.0808   27.4984   43.8875 H   0  0  0  0  0  0  0  0  0  0  0  0
   58.8612   27.0429   45.4318 H   0  0  0  0  0  0  0  0  0  0  0  0
   52.9725   24.7422   45.0282 H   0  0  0  0  0  0  0  0  0  0  0  0
  1  2  1  0
  2  3  2  0
  3  4  1  0
  4  5  2  0
  5  6  1  0
  6  7  1  0
  7  8  2  0
  7  9  1  0
  9 10  1  0
 10 11  2  0
 10 12  1  0
 12 13  1  0
 13 14  1  0
 14 15  1  0
 15 16  1  0
 16 17  1  0
 17 18  1  0
 18 19  2  0
 19 20  1  0
 20 21  1  0
 21 22  2  0
 22 23  1  0
 23 24  1  0
 24 25  1  0
 25 26  2  0
 26 27  1  0
 27 28  2  0
 28 29  1  0
 28 30  1  0
 30 31  2  0
 21 32  1  0
 16 33  1  0
 33 34  1  0
  6 35  2  0
 35  2  1  0
 34 13  1  0
 32 17  2  0
 31 25  1  0
  1 36  1  0
  1 37  1  0
  1 38  1  0
  3 39  1  0
  4 40  1  0
  5 41  1  0
  9 42  1  0
 12 43  1  0
 13 44  1  0
 14 45  1  0
 14 46  1  0
 15 47  1  0
 15 48  1  0
 18 49  1  0
 19 50  1  0
 20 51  1  0
 23 52  1  0
 23 53  1  0
 24 54  1  0
 24 55  1  0
 26 56  1  0
 27 57  1  0
 29 58  1  0
 30 59  1  0
 31 60  1  0
 33 61  1  0
 33 62  1  0
 34 63  1  0
 34 64  1  0
 35 65  1  0
M  END
>  <smiles>  (31) 
Cc1cccc(C(=O)NC(=O)NC2CCN(c3cc[nH]c(=NCCc4ccc(O)cc4)n3)CC2)c1

>  <score_type>  (31) 
oracle

>  <origin>  (31) 
adg

>  <m_score__min__energy>  (31) 
-10.18

>  <m_primary>  (31) 
energy

$$$$
31:0
     RDKit          3D

 43 46  0  0  0  0  0  0  0  0999 V2000
   55.4330   29.4100   45.2190 O   0  0  0  0  0  0  0  0  0  0  0  0
   56.6330   29.3510   44.8410 C   0  0  0  0  0  0  0  0  0  0  0  0
   57.4590   28.2410   45.2110 N   0  0  0  0  0  0  0  0  0  0  0  0
   58.3140   28.1640   46.3600 C   0  0  0  0  0  0  0  0  0  0  0  0
   59.2540   27.1310   46.4290 C   0  0  0  0  0  0  0  0  0  0  0  0
   60.0870   27.0040   47.5430 C   0  0  0  0  0  0  0  0  0  0  0  0
   59.9830   27.9050   48.6110 C   0  0  0  0  0  0  0  0  0  0  0  0
   60.7930   27.7440   49.7350 O   0  0  0  0  0  0  0  0  0  0  0  0
   59.0430   28.9540   48.5530 C   0  0  0  0  0  0  0  0  0  0  0  0
   58.8990   29.9210   49.6590 C   0  0  0  0  0  0  0  0  0  0  0  0
   58.0750   29.7170   50.7060 N   0  0  0  0  0  0  0  0  0  0  0  0
   58.2030   30.7330   51.5480 N   0  0  0  0  0  0  0  0  0  0  0  0
   59.1070   31.5960   51.0480 C   0  0  0  0  0  0  0  0  0  0  0  0
   59.5690   31.1240   49.8360 C   0  0  0  0  0  0  0  0  0  0  0  0
   60.4970   31.8260   48.9190 C   0  0  0  0  0  0  0  0  0  0  0  0
   60.5830   33.2310   48.9170 C   0  0  0  0  0  0  0  0  0  0  0  0
   61.4630   33.8820   48.0480 C   0  0  0  0  0  0  0  0  0  0  0  0
   62.2730   33.1410   47.1840 C   0  0  0  0  0  0  0  0  0  0  0  0
   62.2070   31.7450   47.1920 C   0  0  0  0  0  0  0  0  0  0  0  0
   61.3270   31.0890   48.0580 C   0  0  0  0  0  0  0  0  0  0  0  0
   58.1940   29.0580   47.4390 C   0  0  0  0  0  0  0  0  0  0  0  0
   57.2200   30.4410   44.1240 N   0  0  0  0  0  0  0  0  0  0  0  0
   57.6460   31.6850   44.6980 C   0  0  0  0  0  0  0  0  0  0  0  0
   57.7670   31.7740   46.0920 C   0  0  0  0  0  0  0  0  0  0  0  0
   58.1910   32.9640   46.6900 C   0  0  0  0  0  0  0  0  0  0  0  0
   58.5170   34.0680   45.9000 C   0  0  0  0  0  0  0  0  0  0  0  0
   58.4320   33.9790   44.5070 C   0  0  0  0  0  0  0  0  0  0  0  0
   58.0070   32.7910   43.9030 C   0  0  0  0  0  0  0  0  0  0  0  0
   58.0060   32.7110   42.5480 F   0  0  0  0  0  0  0  0  0  0  0  0
   59.3381   26.4131   45.5998 H   0  0  0  0  0  0  0  0  0  0  0  0
   60.8285   26.1924   47.5821 H   0  0  0  0  0  0  0  0  0  0  0  0
   60.5620   28.1730   50.6240 H   0  0  0  0  0  0  0  0  0  0  0  0
   59.4275   32.5314   51.5301 H   0  0  0  0  0  0  0  0  0  0  0  0
   59.9549   33.8191   49.6023 H   0  0  0  0  0  0  0  0  0  0  0  0
   61.5180   34.9806   48.0444 H   0  0  0  0  0  0  0  0  0  0  0  0
   62.9620   33.6557   46.4982 H   0  0  0  0  0  0  0  0  0  0  0  0
   62.8487   31.1612   46.5156 H   0  0  0  0  0  0  0  0  0  0  0  0
   61.2843   29.9899   48.0652 H   0  0  0  0  0  0  0  0  0  0  0  0
   57.4276   29.8465   47.4102 H   0  0  0  0  0  0  0  0  0  0  0  0
   57.5269   30.9024   46.7186 H   0  0  0  0  0  0  0  0  0  0  0  0
   58.2680   33.0309   47.7853 H   0  0  0  0  0  0  0  0  0  0  0  0
   58.8404   35.0070   46.3729 H   0  0  0  0  0  0  0  0  0  0  0  0
   58.7000   34.8455   43.8846 H   0  0  0  0  0  0  0  0  0  0  0  0
  1  2  2  0
  2  3  1  0
  3  4  1  0
  4  5  2  0
  5  6  1  0
  6  7  2  0
  7  8  1  0
  7  9  1  0
  9 10  1  0
 10 11  2  0
 11 12  1  0
 12 13  1  0
 13 14  2  0
 14 15  1  0
 15 16  2  0
 16 17  1  0
 17 18  2  0
 18 19  1  0
 19 20  2  0
  9 21  2  0
  2 22  1  0
 22 23  1  0
 23 24  2  0
 24 25  1  0
 25 26  2  0
 26 27  1  0
 27 28  2  0
 28 29  1  0
 21  4  1  0
 28 23  1  0
 14 10  1  0
 20 15  1  0
  5 30  1  0
  6 31  1  0
  8 32  1  0
 13 33  1  0
 16 34  1  0
 17 35  1  0
 18 36  1  0
 19 37  1  0
 20 38  1  0
 21 39  1  0
 24 40  1  0
 25 41  1  0
 26 42  1  0
 27 43  1  0
M  CHG  3   3  -1  12  -1  22  -1
M  END
>  <UniqueID>  (32) 
29

>  <SMILES>  (32) 
O=C([N-]c1ccc(O)c(-c2n[n-]cc2-c2ccccc2)c1)[N-]c1ccccc1F

>  <Energy>  (32) 
94.73781807548005

>  <Genealogy>  (32) 
O=C([N-]c1ccc(O)c(-c2n[n-]cc2-c2ccccc2)c1)[N-]c1ccccc1F (protonated)
O=C([N-]c1ccc(O)c(-c2n[n-]cc2-c2ccccc2)c1)[N-]c1ccccc1F (3D coordinates assigned)
O=C([N-]c1ccc(O)c(-c2n[n-]cc2-c2ccccc2)c1)[N-]c1ccccc1F (optimized conformer: 94.73781807548005 kcal/mol)

>  <smiles>  (32) 
O=C(Nc1ccc(O)c(-c2n[nH]cc2-c2ccccc2)c1)Nc1ccccc1F

>  <score_type>  (32) 
oracle

>  <origin>  (32) 
adg

>  <m_score__min__energy>  (32) 
-12.609999999999999

>  <m_primary>  (32) 
energy

$$$$
32:0
     RDKit          3D

 65 69  0  0  0  0  0  0  0  0999 V2000
   66.2700   35.0260   53.1430 N   0  0  0  0  0  0  0  0  0  0  0  0
   64.6590   35.2170   52.5500 S   0  0  0  0  0  0  0  0  0  0  0  0
   64.4700   36.6310   52.0790 O   0  0  0  0  0  0  0  0  0  0  0  0
   63.6780   34.9370   53.6530 O   0  0  0  0  0  0  0  0  0  0  0  0
   64.3880   34.0890   51.2270 C   0  0  0  0  0  0  0  0  0  0  0  0
   65.4080   33.2300   50.7980 C   0  0  0  0  0  0  0  0  0  0  0  0
   65.1820   32.3470   49.7390 C   0  0  0  0  0  0  0  0  0  0  0  0
   63.9400   32.3160   49.1030 C   0  0  0  0  0  0  0  0  0  0  0  0
   62.9020   33.1610   49.5340 C   0  0  0  0  0  0  0  0  0  0  0  0
   61.6250   33.1730   48.8720 N   0  0  0  0  0  0  0  0  0  0  0  0
   61.4060   32.6300   47.5600 C   0  0  0  0  0  0  0  0  0  0  0  0
   62.1910   31.7430   47.1120 O   0  0  0  0  0  0  0  0  0  0  0  0
   60.2370   33.0460   46.7520 C   0  0  0  0  0  0  0  0  0  0  0  0
   60.0420   34.3970   46.4130 C   0  0  0  0  0  0  0  0  0  0  0  0
   58.9250   34.7860   45.6690 C   0  0  0  0  0  0  0  0  0  0  0  0
   57.9800   33.8350   45.2750 C   0  0  0  0  0  0  0  0  0  0  0  0
   58.1510   32.4880   45.6120 C   0  0  0  0  0  0  0  0  0  0  0  0
   57.1320   31.5500   45.2370 N   0  0  0  0  0  0  0  0  0  0  0  0
   57.2310   30.5110   44.2480 C   0  0  0  0  0  0  0  0  0  0  0  0
   56.9500   30.8080   43.0520 O   0  0  0  0  0  0  0  0  0  0  0  0
   57.6110   29.1060   44.5810 C   0  0  0  0  0  0  0  0  0  0  0  0
   57.7600   28.1590   43.5510 C   0  0  0  0  0  0  0  0  0  0  0  0
   58.1460   26.8480   43.8380 C   0  0  0  0  0  0  0  0  0  0  0  0
   58.4210   26.4700   45.1530 C   0  0  0  0  0  0  0  0  0  0  0  0
   58.2790   27.3870   46.1990 C   0  0  0  0  0  0  0  0  0  0  0  0
   58.6960   26.9920   47.5160 N   0  0  0  0  0  0  0  0  0  0  0  0
   59.8650   27.4330   48.2190 C   0  0  0  0  0  0  0  0  0  0  0  0
   60.8780   26.6850   48.2300 O   0  0  0  0  0  0  0  0  0  0  0  0
   59.8980   28.7090   48.9670 C   0  0  0  0  0  0  0  0  0  0  0  0
   58.9090   29.6790   48.7580 C   0  0  0  0  0  0  0  0  0  0  0  0
   58.9270   30.8740   49.4810 C   0  0  0  0  0  0  0  0  0  0  0  0
   59.9760   31.1170   50.3940 C   0  0  0  0  0  0  0  0  0  0  0  0
   60.0890   32.2160   51.0890 N   0  0  0  0  0  0  0  0  0  0  0  0
   59.3100   33.4250   51.0640 C   0  0  0  0  0  0  0  0  0  0  0  0
   59.3480   34.2230   50.0890 O   0  0  0  0  0  0  0  0  0  0  0  0
   58.5260   33.8070   52.2810 C   0  0  0  0  0  0  0  0  0  0  0  0
   59.3390   33.9000   53.5640 C   0  0  0  0  0  0  0  0  0  0  0  0
   58.4210   32.7110   53.3310 C   0  0  0  0  0  0  0  0  0  0  0  0
   60.9200   30.1530   50.5780 N   0  0  0  0  0  0  0  0  0  0  0  0
   60.9070   28.9740   49.9020 C   0  0  0  0  0  0  0  0  0  0  0  0
   57.8420   28.6930   45.9090 C   0  0  0  0  0  0  0  0  0  0  0  0
   59.3050   32.0900   46.3110 C   0  0  0  0  0  0  0  0  0  0  0  0
   63.1390   34.0530   50.5920 C   0  0  0  0  0  0  0  0  0  0  0  0
   66.7500   34.3440   52.5130 H   0  0  0  0  0  0  0  0  0  0  0  0
   66.3887   33.2507   51.2958 H   0  0  0  0  0  0  0  0  0  0  0  0
   65.9856   31.6740   49.4054 H   0  0  0  0  0  0  0  0  0  0  0  0
   63.7725   31.6279   48.2613 H   0  0  0  0  0  0  0  0  0  0  0  0
   60.7900   33.4860   49.4180 H   0  0  0  0  0  0  0  0  0  0  0  0
   60.7736   35.1524   46.7357 H   0  0  0  0  0  0  0  0  0  0  0  0
   58.7894   35.8422   45.3931 H   0  0  0  0  0  0  0  0  0  0  0  0
   57.0975   34.1470   44.6972 H   0  0  0  0  0  0  0  0  0  0  0  0
   57.5704   28.4545   42.5085 H   0  0  0  0  0  0  0  0  0  0  0  0
   58.2335   26.1115   43.0257 H   0  0  0  0  0  0  0  0  0  0  0  0
   58.7519   25.4432   45.3681 H   0  0  0  0  0  0  0  0  0  0  0  0
   58.1135   29.4985   48.0201 H   0  0  0  0  0  0  0  0  0  0  0  0
   58.1305   31.6195   49.3402 H   0  0  0  0  0  0  0  0  0  0  0  0
   57.8138   34.4655   51.7622 H   0  0  0  0  0  0  0  0  0  0  0  0
   60.4304   33.7662   53.5344 H   0  0  0  0  0  0  0  0  0  0  0  0
   59.4525   34.6506   54.3601 H   0  0  0  0  0  0  0  0  0  0  0  0
   58.8483   31.7169   53.1329 H   0  0  0  0  0  0  0  0  0  0  0  0
   57.5953   32.2451   53.8888 H   0  0  0  0  0  0  0  0  0  0  0  0
   61.6911   28.2256   50.0896 H   0  0  0  0  0  0  0  0  0  0  0  0
   57.6779   29.4036   46.7325 H   0  0  0  0  0  0  0  0  0  0  0  0
   59.4796   31.0231   46.5141 H   0  0  0  0  0  0  0  0  0  0  0  0
   62.3379   34.7291   50.9253 H   0  0  0  0  0  0  0  0  0  0  0  0
  1  2  1  0
  2  3  2  0
  2  4  2  0
  2  5  1  0
  5  6  2  0
  6  7  1  0
  7  8  2  0
  8  9  1  0
  9 10  1  0
 10 11  1  0
 11 12  2  0
 11 13  1  0
 13 14  2  0
 14 15  1  0
 15 16  2  0
 16 17  1  0
 17 18  1  0
 18 19  1  0
 19 20  2  0
 19 21  1  0
 21 22  2  0
 22 23  1  0
 23 24  2  0
 24 25  1  0
 25 26  1  0
 26 27  1  0
 27 28  2  0
 27 29  1  0
 29 30  1  0
 30 31  2  0
 31 32  1  0
 32 33  2  3
 33 34  1  0
 34 35  2  0
 34 36  1  0
 36 37  1  0
 37 38  1  0
 32 39  1  0
 39 40  1  0
 25 41  2  0
 17 42  2  0
  9 43  2  0
 43  5  1  0
 42 13  1  0
 41 21  1  0
 40 29  2  0
 38 36  1  0
  1 44  1  0
  6 45  1  0
  7 46  1  0
  8 47  1  0
 10 48  1  0
 14 49  1  0
 15 50  1  0
 16 51  1  0
 22 52  1  0
 23 53  1  0
 24 54  1  0
 30 55  1  0
 31 56  1  0
 36 57  1  0
 37 58  1  0
 37 59  1  0
 38 60  1  0
 38 61  1  0
 40 62  1  0
 41 63  1  0
 42 64  1  0
 43 65  1  0
M  CHG  4   1  -1  18  -1  26  -1  39  -1
M  END
>  <UniqueID>  (33) 
30

>  <SMILES>  (33) 
[NH-]S(=O)(=O)c1cccc(NC(=O)c2cccc([N-]C(=O)c3cccc([N-]C(=O)c4ccc(=NC(=O)C5CC5)[n-]c4)c3)c2)c1

>  <Energy>  (33) 
360.5647054790456

>  <Genealogy>  (33) 
[NH-]S(=O)(=O)c1cccc(NC(=O)c2cccc([N-]C(=O)c3cccc([N-]C(=O)c4ccc(=NC(=O)C5CC5)[n-]c4)c3)c2)c1 (protonated)
[NH-]S(=O)(=O)c1cccc(NC(=O)c2cccc([N-]C(=O)c3cccc([N-]C(=O)c4ccc(=NC(=O)C5CC5)[n-]c4)c3)c2)c1 (3D coordinates assigned)
[NH-]S(=O)(=O)c1cccc(NC(=O)c2cccc([N-]C(=O)c3cccc([N-]C(=O)c4ccc(=NC(=O)C5CC5)[n-]c4)c3)c2)c1 (nonaromatic ring conformer: 360.5647054790456 kcal/mol)

>  <smiles>  (33) 
NS(=O)(=O)c1cccc(NC(=O)c2cccc(NC(=O)c3cccc(NC(=O)c4ccc(=NC(=O)C5CC5)[nH]c4)c3)c2)c1

>  <score_type>  (33) 
oracle

>  <origin>  (33) 
adg

>  <m_score__min__energy>  (33) 
-16.100000000000001

>  <m_primary>  (33) 
energy

$$$$
33:0
     RDKit          3D

 39 40  0  0  0  0  0  0  0  0999 V2000
   59.6466   28.3129   48.4935 H   0  0  0  0  0  0  0  0  0  0  0  0
   59.5920   29.3180   48.9370 C   0  0  0  0  0  0  0  0  0  0  0  0
   60.1176   29.5327   49.8792 H   0  0  0  0  0  0  0  0  0  0  0  0
   58.8880   30.2770   48.3320 C   0  0  0  0  0  0  0  0  0  0  0  0
   58.3652   30.0544   47.3901 H   0  0  0  0  0  0  0  0  0  0  0  0
   58.8000   31.6580   48.9210 C   0  0  0  0  0  0  0  0  0  0  0  0
   57.8213   31.7806   49.4080 H   0  0  0  0  0  0  0  0  0  0  0  0
   59.6107   31.7808   49.6542 H   0  0  0  0  0  0  0  0  0  0  0  0
   58.9540   32.7070   47.8510 C   0  0  0  0  0  0  0  0  0  0  0  0
   58.5360   32.4300   46.5380 C   0  0  0  0  0  0  0  0  0  0  0  0
   58.0743   31.4589   46.3061 H   0  0  0  0  0  0  0  0  0  0  0  0
   58.7030   33.3840   45.5180 C   0  0  0  0  0  0  0  0  0  0  0  0
   58.3140   33.0940   44.1190 C   0  0  0  0  0  0  0  0  0  0  0  0
   58.8075   33.6778   43.3280 H   0  0  0  0  0  0  0  0  0  0  0  0
   57.4100   32.1790   43.7340 C   0  0  0  0  0  0  0  0  0  0  0  0
   56.6671   32.4920   42.9856 H   0  0  0  0  0  0  0  0  0  0  0  0
   57.3250   30.7860   44.2280 C   0  0  0  0  0  0  0  0  0  0  0  0
   56.2200   30.3760   44.6770 O   0  0  0  0  0  0  0  0  0  0  0  0
   58.4750   29.8620   44.1450 C   0  0  0  0  0  0  0  0  0  0  0  0
   58.9969   29.7466   43.1836 H   0  0  0  0  0  0  0  0  0  0  0  0
   58.9020   29.1610   45.2020 C   0  0  0  0  0  0  0  0  0  0  0  0
   59.7981   29.5127   45.7342 H   0  0  0  0  0  0  0  0  0  0  0  0
   58.2290   27.9350   45.6920 C   0  0  0  0  0  0  0  0  0  0  0  0
   58.9430   26.8720   46.2860 C   0  0  0  0  0  0  0  0  0  0  0  0
   60.0381   26.9286   46.3730 H   0  0  0  0  0  0  0  0  0  0  0  0
   58.2640   25.7480   46.7640 C   0  0  0  0  0  0  0  0  0  0  0  0
   58.8279   24.9193   47.2171 H   0  0  0  0  0  0  0  0  0  0  0  0
   56.8720   25.6720   46.6690 C   0  0  0  0  0  0  0  0  0  0  0  0
   56.2070   24.5490   47.1470 O   0  0  0  0  0  0  0  0  0  0  0  0
   56.1530   26.7270   46.0970 C   0  0  0  0  0  0  0  0  0  0  0  0
   54.7690   26.6590   46.0040 O   0  0  0  0  0  0  0  0  0  0  0  0
   56.8290   27.8550   45.6180 C   0  0  0  0  0  0  0  0  0  0  0  0
   56.2582   28.6868   45.1794 H   0  0  0  0  0  0  0  0  0  0  0  0
   59.2050   34.6510   45.8390 C   0  0  0  0  0  0  0  0  0  0  0  0
   59.2962   35.4181   45.0559 H   0  0  0  0  0  0  0  0  0  0  0  0
   59.5910   34.9460   47.1500 C   0  0  0  0  0  0  0  0  0  0  0  0
   59.9899   35.9420   47.3926 H   0  0  0  0  0  0  0  0  0  0  0  0
   59.4720   33.9800   48.1540 C   0  0  0  0  0  0  0  0  0  0  0  0
   59.8670   34.2940   49.4500 O   0  0  0  0  0  0  0  0  0  0  0  0
  1  2  1  0
  2  3  1  0
  2  4  2  0
  4  5  1  0
  4  6  1  0
  6  7  1  0
  6  8  1  0
  6  9  1  0
  9 10  2  0
 10 11  1  0
 10 12  1  0
 12 13  1  0
 13 14  1  0
 13 15  2  0
 15 16  1  0
 15 17  1  0
 17 18  2  0
 17 19  1  0
 19 20  1  0
 19 21  2  3
 21 22  1  0
 21 23  1  0
 23 24  2  0
 24 25  1  0
 24 26  1  0
 26 27  1  0
 26 28  2  0
 28 29  1  0
 28 30  1  0
 30 31  1  0
 30 32  2  0
 32 33  1  0
 12 34  2  0
 34 35  1  0
 34 36  1  0
 36 37  1  0
 36 38  2  0
 38 39  1  0
 38  9  1  0
 32 23  1  0
M  CHG  3  29  -1  31  -1  39  -1
M  END
>  <UniqueID>  (34) 
31

>  <SMILES>  (34) 
C=CCc1cc(/C=C\C(=O)C=Cc2ccc([O-])c([O-])c2)ccc1[O-]

>  <Energy>  (34) 
45.734281758492834

>  <Genealogy>  (34) 
C=CCc1cc(C=CC(=O)C=Cc2ccc([O-])c([O-])c2)ccc1[O-] (protonated)
C=CCc1cc(/C=C\C(=O)C=Cc2ccc([O-])c([O-])c2)ccc1[O-] (cis-trans isomerization)
C=CCc1cc(/C=C\C(=O)C=Cc2ccc([O-])c([O-])c2)ccc1[O-] (3D coordinates assigned)
C=CCc1cc(/C=C\C(=O)C=Cc2ccc([O-])c([O-])c2)ccc1[O-] (optimized conformer: 45.734281758492834 kcal/mol)

>  <smiles>  (34) 
C=CCc1cc(C=CC(=O)C=Cc2ccc(O)c(O)c2)ccc1O

>  <score_type>  (34) 
oracle

>  <origin>  (34) 
adg

>  <m_score__min__energy>  (34) 
-16.870000000000001

>  <m_primary>  (34) 
energy

$$$$
34:0
     RDKit          3D

 46 49  0  0  0  0  0  0  0  0999 V2000
   58.8210   30.3020   43.2350 H   0  0  0  0  0  0  0  0  0  0  0  0
   59.2130   29.8470   44.0490 O   0  0  0  0  0  0  0  0  0  0  0  0
   58.4740   28.9240   44.7850 C   0  0  0  0  0  0  0  0  0  0  0  0
   58.9690   28.0900   45.7730 C   0  0  0  0  0  0  0  0  0  0  0  0
   57.8960   27.3690   46.2510 C   0  0  0  0  0  0  0  0  0  0  0  0
   56.8020   27.7560   45.5060 C   0  0  0  0  0  0  0  0  0  0  0  0
   55.5200   27.2290   45.6260 O   0  0  0  0  0  0  0  0  0  0  0  0
   57.1480   28.7180   44.6240 N   0  0  0  0  0  0  0  0  0  0  0  0
   56.2740   29.3500   43.6340 C   0  0  0  0  0  0  0  0  0  0  0  0
   55.2294   29.2650   43.9680 H   0  0  0  0  0  0  0  0  0  0  0  0
   56.4083   28.8416   42.6678 H   0  0  0  0  0  0  0  0  0  0  0  0
   56.6230   30.8050   43.4680 C   0  0  0  0  0  0  0  0  0  0  0  0
   57.0320   31.2140   42.3500 O   0  0  0  0  0  0  0  0  0  0  0  0
   56.4590   31.7570   44.5300 N   0  0  0  0  0  0  0  0  0  0  0  0
   57.3860   32.2590   45.2930 C   0  0  0  0  0  0  0  0  0  0  0  0
   57.7910   31.6400   46.4230 N   0  0  0  0  0  0  0  0  0  0  0  0
   58.7360   32.3590   47.0850 C   0  0  0  0  0  0  0  0  0  0  0  0
   59.1900   32.0161   48.0264 H   0  0  0  0  0  0  0  0  0  0  0  0
   59.0840   33.5610   46.4800 C   0  0  0  0  0  0  0  0  0  0  0  0
   60.0420   34.5740   47.0240 C   0  0  0  0  0  0  0  0  0  0  0  0
   60.2325   35.3415   46.2594 H   0  0  0  0  0  0  0  0  0  0  0  0
   59.6040   35.0378   47.9201 H   0  0  0  0  0  0  0  0  0  0  0  0
   61.3400   33.9120   47.3980 C   0  0  0  0  0  0  0  0  0  0  0  0
   62.3850   33.8220   46.4640 C   0  0  0  0  0  0  0  0  0  0  0  0
   62.2625   34.2572   45.4612 H   0  0  0  0  0  0  0  0  0  0  0  0
   63.5810   33.1810   46.8040 C   0  0  0  0  0  0  0  0  0  0  0  0
   64.3997   33.1203   46.0718 H   0  0  0  0  0  0  0  0  0  0  0  0
   63.7360   32.6180   48.0730 C   0  0  0  0  0  0  0  0  0  0  0  0
   64.6779   32.1168   48.3407 H   0  0  0  0  0  0  0  0  0  0  0  0
   62.6960   32.6910   49.0020 C   0  0  0  0  0  0  0  0  0  0  0  0
   62.8182   32.2432   49.9993 H   0  0  0  0  0  0  0  0  0  0  0  0
   61.5000   33.3320   48.6670 C   0  0  0  0  0  0  0  0  0  0  0  0
   60.6812   33.3824   49.3998 H   0  0  0  0  0  0  0  0  0  0  0  0
   58.1640   33.7450   45.0830 S   0  0  0  0  0  0  0  0  0  0  0  0
   58.0050   26.2890   47.2830 C   0  0  0  0  0  0  0  0  0  0  0  0
   57.9986   25.3086   46.7843 H   0  0  0  0  0  0  0  0  0  0  0  0
   57.1520   26.3662   47.9733 H   0  0  0  0  0  0  0  0  0  0  0  0
   59.3130   26.4440   48.0830 C   0  0  0  0  0  0  0  0  0  0  0  0
   59.4941   25.5203   48.6521 H   0  0  0  0  0  0  0  0  0  0  0  0
   59.2026   27.3071   48.7560 H   0  0  0  0  0  0  0  0  0  0  0  0
   60.5220   26.7070   47.1580 C   0  0  0  0  0  0  0  0  0  0  0  0
   60.6264   25.8629   46.4604 H   0  0  0  0  0  0  0  0  0  0  0  0
   61.4172   26.8131   47.7884 H   0  0  0  0  0  0  0  0  0  0  0  0
   60.3520   28.0070   46.3460 C   0  0  0  0  0  0  0  0  0  0  0  0
   61.0852   28.0204   45.5261 H   0  0  0  0  0  0  0  0  0  0  0  0
   60.5136   28.8670   47.0126 H   0  0  0  0  0  0  0  0  0  0  0  0
  1  2  1  0
  2  3  1  0
  3  4  2  0
  4  5  1  0
  5  6  2  0
  6  7  1  0
  6  8  1  0
  8  9  1  0
  9 10  1  0
  9 11  1  0
  9 12  1  0
 12 13  2  0
 12 14  1  0
 14 15  2  0
 15 16  1  0
 16 17  1  0
 17 18  1  0
 17 19  2  0
 19 20  1  0
 20 21  1  0
 20 22  1  0
 20 23  1  0
 23 24  2  0
 24 25  1  0
 24 26  1  0
 26 27  1  0
 26 28  2  0
 28 29  1  0
 28 30  1  0
 30 31  1  0
 30 32  2  0
 32 33  1  0
 19 34  1  0
  5 35  1  0
 35 36  1  0
 35 37  1  0
 35 38  1  0
 38 39  1  0
 38 40  1  0
 38 41  1  0
 41 42  1  0
 41 43  1  0
 41 44  1  0
 44 45  1  0
 44 46  1  0
  8  3  1  0
 34 15  1  0
 44  4  1  0
 32 23  1  0
M  CHG  2   7  -1  16  -1
M  END
>  <UniqueID>  (35) 
32

>  <SMILES>  (35) 
O=C(Cn1c([O-])c2c(c1O)CCCC2)/N=c1/[n-]cc(Cc2ccccc2)s1

>  <Energy>  (35) 
110.75093202351425

>  <Genealogy>  (35) 
O=C(Cn1c([O-])c2c(c1O)CCCC2)N=c1[n-]cc(Cc2ccccc2)s1 (protonated)
O=C(Cn1c([O-])c2c(c1O)CCCC2)/N=c1/[n-]cc(Cc2ccccc2)s1 (cis-trans isomerization)
O=C(Cn1c([O-])c2c(c1O)CCCC2)/N=c1/[n-]cc(Cc2ccccc2)s1 (3D coordinates assigned)
O=C(Cn1c([O-])c2c(c1O)CCCC2)/N=c1/[n-]cc(Cc2ccccc2)s1 (nonaromatic ring conformer: 110.75093202351425 kcal/mol)

>  <smiles>  (35) 
O=C(Cn1c(O)c2c(c1O)CCCC2)N=c1[nH]cc(Cc2ccccc2)s1

>  <score_type>  (35) 
oracle

>  <origin>  (35) 
adg

>  <m_score__min__energy>  (35) 
-13.960000000000001

>  <m_primary>  (35) 
energy

$$$$
35:0
     RDKit          3D

 46 48  0  0  0  0  0  0  0  0999 V2000
   59.7581   33.7812   48.6515 H   0  0  0  0  0  0  0  0  0  0  0  0
   59.5290   32.7760   48.2680 C   0  0  0  0  0  0  0  0  0  0  0  0
   60.3390   31.8060   48.5870 N   0  0  0  0  0  0  0  0  0  0  0  0
   60.8280   30.7730   47.7210 C   0  0  0  0  0  0  0  0  0  0  0  0
   61.9920   30.8780   47.2520 O   0  0  0  0  0  0  0  0  0  0  0  0
   60.0370   29.5580   47.4260 C   0  0  0  0  0  0  0  0  0  0  0  0
   59.2010   29.3650   46.3340 C   0  0  0  0  0  0  0  0  0  0  0  0
   58.9600   30.3290   45.2110 C   0  0  0  0  0  0  0  0  0  0  0  0
   58.7127   31.3182   45.6236 H   0  0  0  0  0  0  0  0  0  0  0  0
   59.8666   30.4058   44.5928 H   0  0  0  0  0  0  0  0  0  0  0  0
   58.1239   29.9701   44.5928 H   0  0  0  0  0  0  0  0  0  0  0  0
   58.6770   28.0850   46.4630 C   0  0  0  0  0  0  0  0  0  0  0  0
   57.7750   27.3840   45.4910 C   0  0  0  0  0  0  0  0  0  0  0  0
   56.9581   28.0609   45.2004 H   0  0  0  0  0  0  0  0  0  0  0  0
   58.3582   27.0962   44.6038 H   0  0  0  0  0  0  0  0  0  0  0  0
   57.1980   26.1530   46.1160 C   0  0  0  0  0  0  0  0  0  0  0  0
   57.9330   25.1480   46.6250 N   0  0  0  0  0  0  0  0  0  0  0  0
   57.0020   24.3050   47.1240 C   0  0  0  0  0  0  0  0  0  0  0  0
   57.3030   23.2220   47.6900 O   0  0  0  0  0  0  0  0  0  0  0  0
   55.7250   24.7160   46.9730 N   0  0  0  0  0  0  0  0  0  0  0  0
   55.8680   25.8900   46.3380 C   0  0  0  0  0  0  0  0  0  0  0  0
   54.8050   26.7080   45.9730 O   0  0  0  0  0  0  0  0  0  0  0  0
   59.1530   27.5020   47.5810 N   0  0  0  0  0  0  0  0  0  0  0  0
   58.9360   26.5360   47.9170 H   0  0  0  0  0  0  0  0  0  0  0  0
   59.9810   28.3860   48.1710 C   0  0  0  0  0  0  0  0  0  0  0  0
   60.7150   28.0970   49.4430 C   0  0  0  0  0  0  0  0  0  0  0  0
   60.0747   28.3491   50.3012 H   0  0  0  0  0  0  0  0  0  0  0  0
   60.9758   27.0291   49.4813 H   0  0  0  0  0  0  0  0  0  0  0  0
   61.6339   28.7005   49.4813 H   0  0  0  0  0  0  0  0  0  0  0  0
   58.3000   32.6160   47.4100 C   0  0  0  0  0  0  0  0  0  0  0  0
   58.5420   31.9867   46.5409 H   0  0  0  0  0  0  0  0  0  0  0  0
   57.5044   32.1423   48.0038 H   0  0  0  0  0  0  0  0  0  0  0  0
   57.8340   33.9390   46.9420 N   0  0  0  0  0  0  0  0  0  0  0  0
   57.2000   33.8580   45.6120 C   0  0  0  0  0  0  0  0  0  0  0  0
   56.4605   33.0437   45.6194 H   0  0  0  0  0  0  0  0  0  0  0  0
   56.7214   34.8260   45.4027 H   0  0  0  0  0  0  0  0  0  0  0  0
   58.2370   33.5830   44.4940 C   0  0  0  0  0  0  0  0  0  0  0  0
   58.1550   32.5281   44.1934 H   0  0  0  0  0  0  0  0  0  0  0  0
   58.0114   34.2690   43.6642 H   0  0  0  0  0  0  0  0  0  0  0  0
   59.5730   33.8340   44.8950 O   0  0  0  0  0  0  0  0  0  0  0  0
   59.6470   35.0570   45.5960 C   0  0  0  0  0  0  0  0  0  0  0  0
   60.7031   35.3070   45.7754 H   0  0  0  0  0  0  0  0  0  0  0  0
   59.1666   35.8406   44.9917 H   0  0  0  0  0  0  0  0  0  0  0  0
   58.9140   34.9550   46.9490 C   0  0  0  0  0  0  0  0  0  0  0  0
   59.6451   34.6855   47.7254 H   0  0  0  0  0  0  0  0  0  0  0  0
   58.4488   35.9317   47.1482 H   0  0  0  0  0  0  0  0  0  0  0  0
  1  2  1  0
  2  3  2  0
  3  4  1  0
  4  5  2  0
  4  6  1  0
  6  7  1  0
  7  8  1  0
  8  9  1  0
  8 10  1  0
  8 11  1  0
  7 12  2  0
 12 13  1  0
 13 14  1  0
 13 15  1  0
 13 16  1  0
 16 17  1  0
 17 18  1  0
 18 19  2  0
 18 20  1  0
 20 21  1  0
 21 22  1  0
 12 23  1  0
 23 24  1  0
 23 25  1  0
 25 26  1  0
 26 27  1  0
 26 28  1  0
 26 29  1  0
  2 30  1  0
 30 31  1  0
 30 32  1  0
 30 33  1  0
 33 34  1  0
 34 35  1  0
 34 36  1  0
 34 37  1  0
 37 38  1  0
 37 39  1  0
 37 40  1  0
 40 41  1  0
 41 42  1  0
 41 43  1  0
 41 44  1  0
 44 45  1  0
 44 46  1  0
 25  6  2  0
 44 33  1  0
 21 16  2  0
M  CHG  3  17  -1  20  -1  22  -1
M  END
>  <UniqueID>  (36) 
33

>  <SMILES>  (36) 
Cc1[nH]c(Cc2[n-]c(=O)[n-]c2[O-])c(C)c1C(=O)/N=C\CN1CCOCC1

>  <Energy>  (36) 
118.1484900722439

>  <Genealogy>  (36) 
Cc1[nH]c(Cc2[n-]c(=O)[n-]c2[O-])c(C)c1C(=O)N=CCN1CCOCC1 (protonated)
Cc1[nH]c(Cc2[n-]c(=O)[n-]c2[O-])c(C)c1C(=O)/N=C\CN1CCOCC1 (cis-trans isomerization)
Cc1[nH]c(Cc2[n-]c(=O)[n-]c2[O-])c(C)c1C(=O)/N=C\CN1CCOCC1 (3D coordinates assigned)
Cc1[nH]c(Cc2[n-]c(=O)[n-]c2[O-])c(C)c1C(=O)/N=C\CN1CCOCC1 (nonaromatic ring conformer: 118.1484900722439 kcal/mol)

>  <smiles>  (36) 
Cc1[nH]c(Cc2[nH]c(=O)[nH]c2O)c(C)c1C(=O)N=CCN1CCOCC1

>  <score_type>  (36) 
oracle

>  <origin>  (36) 
adg

>  <m_score__min__energy>  (36) 
-15.77

>  <m_primary>  (36) 
energy

$$$$
36:0
     RDKit          3D

 40 41  0  0  0  0  0  0  0  0999 V2000
   57.0420   33.8340   44.8600 C   0  0  0  0  0  0  0  0  0  0  0  0
   58.4870   33.8290   44.6260 N   0  0  0  0  0  0  0  0  0  0  0  0
   59.1280   34.9190   45.3730 C   0  0  0  0  0  0  0  0  0  0  0  0
   58.8990   34.7590   46.8830 C   0  0  0  0  0  0  0  0  0  0  0  0
   58.9100   33.2930   47.3500 C   0  0  0  0  0  0  0  0  0  0  0  0
   60.2980   32.6840   47.2920 C   0  0  0  0  0  0  0  0  0  0  0  0
   61.3990   33.5250   47.5460 C   0  0  0  0  0  0  0  0  0  0  0  0
   62.6970   33.0140   47.5740 C   0  0  0  0  0  0  0  0  0  0  0  0
   62.9180   31.6550   47.3540 C   0  0  0  0  0  0  0  0  0  0  0  0
   61.8430   30.8050   47.0950 C   0  0  0  0  0  0  0  0  0  0  0  0
   60.5300   31.3030   47.0490 C   0  0  0  0  0  0  0  0  0  0  0  0
   59.4390   30.3550   46.7360 C   0  0  0  0  0  0  0  0  0  0  0  0
   59.3930   29.1070   47.3710 C   0  0  0  0  0  0  0  0  0  0  0  0
   58.3740   28.2040   47.0730 C   0  0  0  0  0  0  0  0  0  0  0  0
   57.3990   28.5260   46.1250 C   0  0  0  0  0  0  0  0  0  0  0  0
   56.4000   27.5980   45.8470 O   0  0  0  0  0  0  0  0  0  0  0  0
   57.4450   29.7660   45.4520 C   0  0  0  0  0  0  0  0  0  0  0  0
   56.4170   30.1280   44.4440 C   0  0  0  0  0  0  0  0  0  0  0  0
   55.1090   29.5520   44.4830 N   0  0  0  0  0  0  0  0  0  0  0  0
   56.6910   30.9570   43.5350 O   0  0  0  0  0  0  0  0  0  0  0  0
   58.4770   30.6710   45.7630 C   0  0  0  0  0  0  0  0  0  0  0  0
   56.8458   33.8347   45.9424 H   0  0  0  0  0  0  0  0  0  0  0  0
   56.6003   34.7337   44.4067 H   0  0  0  0  0  0  0  0  0  0  0  0
   56.5940   32.9374   44.4067 H   0  0  0  0  0  0  0  0  0  0  0  0
   58.6340   33.9980   43.6020 H   0  0  0  0  0  0  0  0  0  0  0  0
   60.2090   34.9075   45.1697 H   0  0  0  0  0  0  0  0  0  0  0  0
   58.6858   35.8731   45.0502 H   0  0  0  0  0  0  0  0  0  0  0  0
   59.6944   35.3008   47.4158 H   0  0  0  0  0  0  0  0  0  0  0  0
   57.9004   35.1634   47.1050 H   0  0  0  0  0  0  0  0  0  0  0  0
   58.5468   33.2489   48.3874 H   0  0  0  0  0  0  0  0  0  0  0  0
   58.2603   32.7181   46.6737 H   0  0  0  0  0  0  0  0  0  0  0  0
   61.2335   34.5977   47.7245 H   0  0  0  0  0  0  0  0  0  0  0  0
   63.5470   33.6841   47.7699 H   0  0  0  0  0  0  0  0  0  0  0  0
   63.9414   31.2528   47.3847 H   0  0  0  0  0  0  0  0  0  0  0  0
   62.0250   29.7336   46.9250 H   0  0  0  0  0  0  0  0  0  0  0  0
   60.1644   28.8387   48.1079 H   0  0  0  0  0  0  0  0  0  0  0  0
   58.3370   27.2322   47.5870 H   0  0  0  0  0  0  0  0  0  0  0  0
   54.4170   29.7770   43.7340 H   0  0  0  0  0  0  0  0  0  0  0  0
   54.7930   28.9670   45.2880 H   0  0  0  0  0  0  0  0  0  0  0  0
   58.5306   31.6363   45.2382 H   0  0  0  0  0  0  0  0  0  0  0  0
  1  2  1  0
  2  3  1  0
  3  4  1  0
  4  5  1  0
  5  6  1  0
  6  7  2  0
  7  8  1  0
  8  9  2  0
  9 10  1  0
 10 11  2  0
 11 12  1  0
 12 13  2  0
 13 14  1  0
 14 15  2  0
 15 16  1  0
 15 17  1  0
 17 18  1  0
 18 19  1  0
 18 20  2  0
 17 21  2  0
 11  6  1  0
 21 12  1  0
  1 22  1  0
  1 23  1  0
  1 24  1  0
  2 25  1  0
  3 26  1  0
  3 27  1  0
  4 28  1  0
  4 29  1  0
  5 30  1  0
  5 31  1  0
  7 32  1  0
  8 33  1  0
  9 34  1  0
 10 35  1  0
 13 36  1  0
 14 37  1  0
 19 38  1  0
 19 39  1  0
 21 40  1  0
M  CHG  1  16  -1
M  END
>  <UniqueID>  (37) 
34

>  <SMILES>  (37) 
CNCCCc1ccccc1-c1ccc([O-])c(C(N)=O)c1

>  <Energy>  (37) 
43.72320887861036

>  <Genealogy>  (37) 
CNCCCc1ccccc1-c1ccc([O-])c(C(N)=O)c1 (protonated)
CNCCCc1ccccc1-c1ccc([O-])c(C(N)=O)c1 (3D coordinates assigned)
CNCCCc1ccccc1-c1ccc([O-])c(C(N)=O)c1 (optimized conformer: 43.72320887861036 kcal/mol)

>  <smiles>  (37) 
CNCCCc1ccccc1-c1ccc(O)c(C(N)=O)c1

>  <score_type>  (37) 
oracle

>  <origin>  (37) 
adg

>  <m_score__min__energy>  (37) 
-9.2799999999999994

>  <m_primary>  (37) 
energy

$$$$
37:0
     RDKit          3D

 47 50  0  0  0  0  0  0  0  0999 V2000
   58.5564   32.7158   41.3027 H   0  0  0  0  0  0  0  0  0  0  0  0
   58.1070   32.4130   42.2600 C   0  0  0  0  0  0  0  0  0  0  0  0
   58.4960   33.0460   43.4450 C   0  0  0  0  0  0  0  0  0  0  0  0
   59.2525   33.8442   43.4196 H   0  0  0  0  0  0  0  0  0  0  0  0
   57.9230   32.6640   44.6620 C   0  0  0  0  0  0  0  0  0  0  0  0
   58.4040   33.4670   46.1460 Cl  0  0  0  0  0  0  0  0  0  0  0  0
   56.9640   31.6460   44.6960 C   0  0  0  0  0  0  0  0  0  0  0  0
   56.5088   31.3541   45.6539 H   0  0  0  0  0  0  0  0  0  0  0  0
   56.5800   30.9950   43.5120 C   0  0  0  0  0  0  0  0  0  0  0  0
   55.5230   29.9290   43.5420 C   0  0  0  0  0  0  0  0  0  0  0  0
   55.7460   29.1688   42.7788 H   0  0  0  0  0  0  0  0  0  0  0  0
   54.5407   30.3779   43.3332 H   0  0  0  0  0  0  0  0  0  0  0  0
   55.5050   29.3050   44.8610 N   0  0  0  0  0  0  0  0  0  0  0  0
   56.3610   28.4100   45.2540 C   0  0  0  0  0  0  0  0  0  0  0  0
   57.6950   28.6800   45.2730 N   0  0  0  0  0  0  0  0  0  0  0  0
   58.5950   27.7480   45.6760 C   0  0  0  0  0  0  0  0  0  0  0  0
   59.9620   28.0490   45.6710 C   0  0  0  0  0  0  0  0  0  0  0  0
   60.3034   29.0472   45.3594 H   0  0  0  0  0  0  0  0  0  0  0  0
   60.8930   27.0840   46.0610 C   0  0  0  0  0  0  0  0  0  0  0  0
   61.9663   27.3248   46.0597 H   0  0  0  0  0  0  0  0  0  0  0  0
   60.4640   25.8130   46.4530 C   0  0  0  0  0  0  0  0  0  0  0  0
   61.2016   25.0549   46.7549 H   0  0  0  0  0  0  0  0  0  0  0  0
   59.1010   25.5010   46.4630 C   0  0  0  0  0  0  0  0  0  0  0  0
   58.7695   24.4967   46.7657 H   0  0  0  0  0  0  0  0  0  0  0  0
   58.1520   26.4710   46.0860 C   0  0  0  0  0  0  0  0  0  0  0  0
   56.7650   26.2190   46.0760 C   0  0  0  0  0  0  0  0  0  0  0  0
   56.2250   24.9590   46.5030 N   0  0  0  0  0  0  0  0  0  0  0  0
   56.5280   24.4570   47.8450 C   0  0  0  0  0  0  0  0  0  0  0  0
   55.7217   24.7553   48.5312 H   0  0  0  0  0  0  0  0  0  0  0  0
   57.4883   24.8836   48.1702 H   0  0  0  0  0  0  0  0  0  0  0  0
   56.6480   22.9190   47.8460 C   0  0  0  0  0  0  0  0  0  0  0  0
   56.3540   22.5514   48.8402 H   0  0  0  0  0  0  0  0  0  0  0  0
   57.6930   22.6849   47.5948 H   0  0  0  0  0  0  0  0  0  0  0  0
   55.8040   22.2380   46.8300 N   0  0  0  0  0  0  0  0  0  0  0  0
   56.6000   21.7400   45.6940 C   0  0  0  0  0  0  0  0  0  0  0  0
   57.4757   21.1921   46.0721 H   0  0  0  0  0  0  0  0  0  0  0  0
   55.9828   21.0667   45.0810 H   0  0  0  0  0  0  0  0  0  0  0  0
   56.9356   22.5895   45.0810 H   0  0  0  0  0  0  0  0  0  0  0  0
   54.6550   23.0530   46.3820 C   0  0  0  0  0  0  0  0  0  0  0  0
   54.0123   23.2688   47.2482 H   0  0  0  0  0  0  0  0  0  0  0  0
   54.1087   22.4821   45.6167 H   0  0  0  0  0  0  0  0  0  0  0  0
   55.1070   24.3810   45.7550 C   0  0  0  0  0  0  0  0  0  0  0  0
   54.2645   25.0882   45.7632 H   0  0  0  0  0  0  0  0  0  0  0  0
   55.4371   24.1879   44.7236 H   0  0  0  0  0  0  0  0  0  0  0  0
   55.9140   27.1910   45.6520 N   0  0  0  0  0  0  0  0  0  0  0  0
   57.1480   31.3960   42.2900 C   0  0  0  0  0  0  0  0  0  0  0  0
   56.8369   30.9080   41.3545 H   0  0  0  0  0  0  0  0  0  0  0  0
  1  2  1  0
  2  3  2  0
  3  4  1  0
  3  5  1  0
  5  6  1  0
  5  7  2  0
  7  8  1  0
  7  9  1  0
  9 10  1  0
 10 11  1  0
 10 12  1  0
 10 13  1  0
 13 14  2  0
 14 15  1  0
 15 16  2  0
 16 17  1  0
 17 18  1  0
 17 19  2  0
 19 20  1  0
 19 21  1  0
 21 22  1  0
 21 23  2  0
 23 24  1  0
 23 25  1  0
 25 26  2  0
 26 27  1  0
 27 28  1  0
 28 29  1  0
 28 30  1  0
 28 31  1  0
 31 32  1  0
 31 33  1  0
 31 34  1  0
 34 35  1  0
 35 36  1  0
 35 37  1  0
 35 38  1  0
 34 39  1  0
 39 40  1  0
 39 41  1  0
 39 42  1  0
 42 43  1  0
 42 44  1  0
 26 45  1  0
  9 46  2  0
 46 47  1  0
 46  2  1  0
 45 14  1  0
 25 16  1  0
 42 27  1  0
M  CHG  1  45  -1
M  END
>  <UniqueID>  (38) 
35

>  <SMILES>  (38) 
CN1CCN(c2[n-]/c(=N/Cc3cccc(Cl)c3)nc3ccccc23)CC1

>  <Energy>  (38) 
64.80179477243574

>  <Genealogy>  (38) 
CN1CCN(c2[n-]c(=NCc3cccc(Cl)c3)nc3ccccc23)CC1 (protonated)
CN1CCN(c2[n-]/c(=N/Cc3cccc(Cl)c3)nc3ccccc23)CC1 (cis-trans isomerization)
CN1CCN(c2[n-]/c(=N/Cc3cccc(Cl)c3)nc3ccccc23)CC1 (3D coordinates assigned)
CN1CCN(c2[n-]/c(=N/Cc3cccc(Cl)c3)nc3ccccc23)CC1 (nonaromatic ring conformer: 64.80179477243574 kcal/mol)

>  <smiles>  (38) 
CN1CCN(c2[nH]c(=NCc3cccc(Cl)c3)nc3ccccc23)CC1

>  <score_type>  (38) 
oracle

>  <origin>  (38) 
adg

>  <m_score__min__energy>  (38) 
-9.4000000000000004

>  <m_primary>  (38) 
energy

$$$$
38:0
     RDKit          3D

 51 53  0  0  0  0  0  0  0  0999 V2000
   54.8510   24.7290   45.6040 C   0  0  0  0  0  0  0  0  0  0  0  0
   55.1690   26.0350   46.0770 O   0  0  0  0  0  0  0  0  0  0  0  0
   56.4600   26.5870   46.0700 C   0  0  0  0  0  0  0  0  0  0  0  0
   57.5860   25.8630   46.5080 C   0  0  0  0  0  0  0  0  0  0  0  0
   58.8490   26.4600   46.5100 C   0  0  0  0  0  0  0  0  0  0  0  0
   59.0090   27.7830   46.0660 C   0  0  0  0  0  0  0  0  0  0  0  0
   60.3580   28.4520   46.1140 C   0  0  0  0  0  0  0  0  0  0  0  0
   60.2650   29.7300   46.8480 N   0  0  0  0  0  0  0  0  0  0  0  0
   59.8880   29.5130   48.2700 C   0  0  0  0  0  0  0  0  0  0  0  0
   60.0600   30.7890   49.1250 C   0  0  0  0  0  0  0  0  0  0  0  0
   60.2500   31.9640   48.2690 N   0  0  0  0  0  0  0  0  0  0  0  0
   59.3920   33.1050   48.3990 C   0  0  0  0  0  0  0  0  0  0  0  0
   59.8240   34.1530   48.9550 O   0  0  0  0  0  0  0  0  0  0  0  0
   57.9930   33.0700   47.8500 C   0  0  0  0  0  0  0  0  0  0  0  0
   58.0140   32.8730   46.3570 C   0  0  0  0  0  0  0  0  0  0  0  0
   57.7490   31.6100   45.7960 C   0  0  0  0  0  0  0  0  0  0  0  0
   57.7440   31.4440   44.4040 C   0  0  0  0  0  0  0  0  0  0  0  0
   58.0000   32.5360   43.5580 C   0  0  0  0  0  0  0  0  0  0  0  0
   58.0530   32.3440   42.0720 C   0  0  0  0  0  0  0  0  0  0  0  0
   58.2840   33.7940   44.1180 C   0  0  0  0  0  0  0  0  0  0  0  0
   58.2850   33.9630   45.5080 C   0  0  0  0  0  0  0  0  0  0  0  0
   61.2590   31.9360   47.2060 C   0  0  0  0  0  0  0  0  0  0  0  0
   61.5250   30.4920   46.7640 C   0  0  0  0  0  0  0  0  0  0  0  0
   57.8900   28.4970   45.6120 C   0  0  0  0  0  0  0  0  0  0  0  0
   56.6250   27.9030   45.6170 C   0  0  0  0  0  0  0  0  0  0  0  0
   55.5270   28.6290   45.1750 O   0  0  0  0  0  0  0  0  0  0  0  0
   54.6877   24.0585   46.4606 H   0  0  0  0  0  0  0  0  0  0  0  0
   53.9372   24.7727   44.9931 H   0  0  0  0  0  0  0  0  0  0  0  0
   55.6825   24.3477   44.9931 H   0  0  0  0  0  0  0  0  0  0  0  0
   57.4705   24.8238   46.8497 H   0  0  0  0  0  0  0  0  0  0  0  0
   59.7226   25.8912   46.8610 H   0  0  0  0  0  0  0  0  0  0  0  0
   61.0740   27.7908   46.6240 H   0  0  0  0  0  0  0  0  0  0  0  0
   60.6980   28.6507   45.0869 H   0  0  0  0  0  0  0  0  0  0  0  0
   58.8348   29.1983   48.3124 H   0  0  0  0  0  0  0  0  0  0  0  0
   60.5555   28.7410   48.6805 H   0  0  0  0  0  0  0  0  0  0  0  0
   59.1614   30.9337   49.7428 H   0  0  0  0  0  0  0  0  0  0  0  0
   60.9472   30.6697   49.7643 H   0  0  0  0  0  0  0  0  0  0  0  0
   57.4423   32.2398   48.3164 H   0  0  0  0  0  0  0  0  0  0  0  0
   57.5000   34.0274   48.0744 H   0  0  0  0  0  0  0  0  0  0  0  0
   57.5452   30.7505   46.4516 H   0  0  0  0  0  0  0  0  0  0  0  0
   57.5386   30.4535   43.9719 H   0  0  0  0  0  0  0  0  0  0  0  0
   58.3395   31.3062   41.8464 H   0  0  0  0  0  0  0  0  0  0  0  0
   57.0634   32.5535   41.6397 H   0  0  0  0  0  0  0  0  0  0  0  0
   58.7950   33.0315   41.6397 H   0  0  0  0  0  0  0  0  0  0  0  0
   58.5062   34.6485   43.4619 H   0  0  0  0  0  0  0  0  0  0  0  0
   58.4986   34.9523   45.9388 H   0  0  0  0  0  0  0  0  0  0  0  0
   60.8964   32.5180   46.3459 H   0  0  0  0  0  0  0  0  0  0  0  0
   62.1940   32.3717   47.5880 H   0  0  0  0  0  0  0  0  0  0  0  0
   61.8933   30.4844   45.7275 H   0  0  0  0  0  0  0  0  0  0  0  0
   62.2829   30.0346   47.4170 H   0  0  0  0  0  0  0  0  0  0  0  0
   58.0088   29.5291   45.2504 H   0  0  0  0  0  0  0  0  0  0  0  0
  1  2  1  0
  2  3  1  0
  3  4  2  0
  4  5  1  0
  5  6  2  0
  6  7  1  0
  7  8  1  0
  8  9  1  0
  9 10  1  0
 10 11  1  0
 11 12  1  0
 12 13  2  0
 12 14  1  0
 14 15  1  0
 15 16  2  0
 16 17  1  0
 17 18  2  0
 18 19  1  0
 18 20  1  0
 20 21  2  0
 11 22  1  0
 22 23  1  0
  6 24  1  0
 24 25  2  0
 25 26  1  0
 25  3  1  0
 23  8  1  0
 21 15  1  0
  1 27  1  0
  1 28  1  0
  1 29  1  0
  4 30  1  0
  5 31  1  0
  7 32  1  0
  7 33  1  0
  9 34  1  0
  9 35  1  0
 10 36  1  0
 10 37  1  0
 14 38  1  0
 14 39  1  0
 16 40  1  0
 17 41  1  0
 19 42  1  0
 19 43  1  0
 19 44  1  0
 20 45  1  0
 21 46  1  0
 22 47  1  0
 22 48  1  0
 23 49  1  0
 23 50  1  0
 24 51  1  0
M  CHG  1  26  -1
M  END
>  <UniqueID>  (39) 
36

>  <SMILES>  (39) 
COc1ccc(CN2CCN(C(=O)Cc3ccc(C)cc3)CC2)cc1[O-]

>  <Energy>  (39) 
59.16532419701681

>  <Genealogy>  (39) 
COc1ccc(CN2CCN(C(=O)Cc3ccc(C)cc3)CC2)cc1[O-] (protonated)
COc1ccc(CN2CCN(C(=O)Cc3ccc(C)cc3)CC2)cc1[O-] (3D coordinates assigned)
COc1ccc(CN2CCN(C(=O)Cc3ccc(C)cc3)CC2)cc1[O-] (nonaromatic ring conformer: 59.16532419701681 kcal/mol)

>  <smiles>  (39) 
COc1ccc(CN2CCN(C(=O)Cc3ccc(C)cc3)CC2)cc1O

>  <score_type>  (39) 
oracle

>  <origin>  (39) 
adg

>  <m_score__min__energy>  (39) 
-12.300000000000001

>  <m_primary>  (39) 
energy

$$$$
39:0
     RDKit          3D

 43 45  0  0  0  0  0  0  0  0999 V2000
   58.1830   25.3980   46.4060 H   0  0  0  0  0  0  0  0  0  0  0  0
   58.3150   24.5920   45.8060 O   0  0  0  0  0  0  0  0  0  0  0  0
   57.2630   24.0430   45.0730 C   0  0  0  0  0  0  0  0  0  0  0  0
   57.4950   22.9370   44.2410 C   0  0  0  0  0  0  0  0  0  0  0  0
   58.4961   22.4829   44.2006 H   0  0  0  0  0  0  0  0  0  0  0  0
   56.4610   22.4100   43.4640 C   0  0  0  0  0  0  0  0  0  0  0  0
   56.6960   21.3120   42.6460 O   0  0  0  0  0  0  0  0  0  0  0  0
   55.1910   22.9900   43.5050 C   0  0  0  0  0  0  0  0  0  0  0  0
   54.3804   22.5821   42.8833 H   0  0  0  0  0  0  0  0  0  0  0  0
   54.9490   24.0880   44.3350 C   0  0  0  0  0  0  0  0  0  0  0  0
   53.9503   24.5486   44.3545 H   0  0  0  0  0  0  0  0  0  0  0  0
   55.9720   24.6070   45.1440 C   0  0  0  0  0  0  0  0  0  0  0  0
   55.6690   25.7340   46.0520 C   0  0  0  0  0  0  0  0  0  0  0  0
   54.5480   26.3010   45.9850 O   0  0  0  0  0  0  0  0  0  0  0  0
   56.5960   26.1480   47.0580 N   0  0  0  0  0  0  0  0  0  0  0  0
   57.0950   27.4320   47.0890 O   0  0  0  0  0  0  0  0  0  0  0  0
   58.1240   27.8370   46.2360 C   0  0  0  0  0  0  0  0  0  0  0  0
   59.4220   27.3770   46.5100 C   0  0  0  0  0  0  0  0  0  0  0  0
   59.6170   26.5720   47.6440 O   0  0  0  0  0  0  0  0  0  0  0  0
   60.3580   26.9640   48.7950 C   0  0  0  0  0  0  0  0  0  0  0  0
   59.8078   26.6729   49.7019 H   0  0  0  0  0  0  0  0  0  0  0  0
   61.3393   26.4670   48.7861 H   0  0  0  0  0  0  0  0  0  0  0  0
   60.4993   28.0548   48.7861 H   0  0  0  0  0  0  0  0  0  0  0  0
   60.4770   27.7190   45.6460 C   0  0  0  0  0  0  0  0  0  0  0  0
   61.4949   27.3582   45.8551 H   0  0  0  0  0  0  0  0  0  0  0  0
   60.2390   28.5130   44.5260 C   0  0  0  0  0  0  0  0  0  0  0  0
   61.0651   28.7566   43.8417 H   0  0  0  0  0  0  0  0  0  0  0  0
   58.9580   29.0000   44.2690 C   0  0  0  0  0  0  0  0  0  0  0  0
   58.7813   29.6291   43.3841 H   0  0  0  0  0  0  0  0  0  0  0  0
   57.8900   28.6940   45.1310 C   0  0  0  0  0  0  0  0  0  0  0  0
   56.5740   29.3380   44.8820 C   0  0  0  0  0  0  0  0  0  0  0  0
   55.5230   28.6710   45.0770 O   0  0  0  0  0  0  0  0  0  0  0  0
   56.4410   30.7150   44.4880 N   0  0  0  0  0  0  0  0  0  0  0  0
   57.1680   31.7400   44.8400 C   0  0  0  0  0  0  0  0  0  0  0  0
   57.3850   31.9480   46.1670 N   0  0  0  0  0  0  0  0  0  0  0  0
   58.1530   32.9700   46.6280 C   0  0  0  0  0  0  0  0  0  0  0  0
   58.3056   33.0988   47.7097 H   0  0  0  0  0  0  0  0  0  0  0  0
   58.7480   33.8560   45.7290 C   0  0  0  0  0  0  0  0  0  0  0  0
   59.8480   35.2830   46.3650 Br  0  0  0  0  0  0  0  0  0  0  0  0
   58.5200   33.6950   44.3630 C   0  0  0  0  0  0  0  0  0  0  0  0
   58.9694   34.3957   43.6439 H   0  0  0  0  0  0  0  0  0  0  0  0
   57.7210   32.6440   43.9080 C   0  0  0  0  0  0  0  0  0  0  0  0
   57.5244   32.5218   42.8326 H   0  0  0  0  0  0  0  0  0  0  0  0
  1  2  1  0
  2  3  1  0
  3  4  2  0
  4  5  1  0
  4  6  1  0
  6  7  1  0
  6  8  2  0
  8  9  1  0
  8 10  1  0
 10 11  1  0
 10 12  2  0
 12 13  1  0
 13 14  2  0
 13 15  1  0
 15 16  1  0
 16 17  1  0
 17 18  2  0
 18 19  1  0
 19 20  1  0
 20 21  1  0
 20 22  1  0
 20 23  1  0
 18 24  1  0
 24 25  1  0
 24 26  2  0
 26 27  1  0
 26 28  1  0
 28 29  1  0
 28 30  2  0
 30 31  1  0
 31 32  2  0
 31 33  1  0
 33 34  2  0
 34 35  1  0
 35 36  1  0
 36 37  1  0
 36 38  2  0
 38 39  1  0
 38 40  1  0
 40 41  1  0
 40 42  2  0
 42 43  1  0
 12  3  1  0
 30 17  1  0
 42 34  1  0
M  CHG  3   7  -1  15  -1  35  -1
M  END
>  <UniqueID>  (40) 
37

>  <SMILES>  (40) 
COc1cccc(C(=O)/N=c2\ccc(Br)c[n-]2)c1O[N-]C(=O)c1ccc([O-])cc1O

>  <Energy>  (40) 
63.83003011133075

>  <Genealogy>  (40) 
COc1cccc(C(=O)N=c2ccc(Br)c[n-]2)c1O[N-]C(=O)c1ccc([O-])cc1O (protonated)
COc1cccc(C(=O)/N=c2\ccc(Br)c[n-]2)c1O[N-]C(=O)c1ccc([O-])cc1O (cis-trans isomerization)
COc1cccc(C(=O)/N=c2\ccc(Br)c[n-]2)c1O[N-]C(=O)c1ccc([O-])cc1O (3D coordinates assigned)
COc1cccc(C(=O)/N=c2\ccc(Br)c[n-]2)c1O[N-]C(=O)c1ccc([O-])cc1O (optimized conformer: 63.83003011133075 kcal/mol)

>  <smiles>  (40) 
COc1cccc(C(=O)N=c2ccc(Br)c[nH]2)c1ONC(=O)c1ccc(O)cc1O

>  <score_type>  (40) 
oracle

>  <origin>  (40) 
adg

>  <m_score__min__energy>  (40) 
-13.970000000000001

>  <m_primary>  (40) 
energy

$$$$
40:0
     RDKit          3D

 48 50  0  0  0  0  0  0  0  0999 V2000
   55.1420   28.0520   44.9160 H   0  0  0  0  0  0  0  0  0  0  0  0
   55.4490   28.9740   44.6340 O   0  0  0  0  0  0  0  0  0  0  0  0
   56.6630   29.5280   45.0470 C   0  0  0  0  0  0  0  0  0  0  0  0
   56.7470   30.8730   45.1850 N   0  0  0  0  0  0  0  0  0  0  0  0
   57.8890   31.4820   45.5900 C   0  0  0  0  0  0  0  0  0  0  0  0
   57.8960   32.7360   45.7110 O   0  0  0  0  0  0  0  0  0  0  0  0
   59.0130   30.7410   45.8560 N   0  0  0  0  0  0  0  0  0  0  0  0
   60.2460   31.3940   46.3450 C   0  0  0  0  0  0  0  0  0  0  0  0
   61.0148   30.6288   46.5277 H   0  0  0  0  0  0  0  0  0  0  0  0
   60.6001   32.1075   45.5864 H   0  0  0  0  0  0  0  0  0  0  0  0
   59.9670   32.1360   47.6270 C   0  0  0  0  0  0  0  0  0  0  0  0
   59.3830   31.4690   48.7180 C   0  0  0  0  0  0  0  0  0  0  0  0
   59.0924   30.4125   48.6219 H   0  0  0  0  0  0  0  0  0  0  0  0
   59.1700   32.1420   49.9240 C   0  0  0  0  0  0  0  0  0  0  0  0
   58.7075   31.6161   50.7722 H   0  0  0  0  0  0  0  0  0  0  0  0
   59.5440   33.4830   50.0540 C   0  0  0  0  0  0  0  0  0  0  0  0
   59.3784   34.0105   51.0050 H   0  0  0  0  0  0  0  0  0  0  0  0
   60.1280   34.1530   48.9760 C   0  0  0  0  0  0  0  0  0  0  0  0
   60.4207   35.2083   49.0790 H   0  0  0  0  0  0  0  0  0  0  0  0
   60.3410   33.4850   47.7670 C   0  0  0  0  0  0  0  0  0  0  0  0
   60.8029   34.0161   46.9216 H   0  0  0  0  0  0  0  0  0  0  0  0
   58.9710   29.3760   45.7170 C   0  0  0  0  0  0  0  0  0  0  0  0
   60.0050   28.6860   45.9300 O   0  0  0  0  0  0  0  0  0  0  0  0
   57.7830   28.7330   45.3310 C   0  0  0  0  0  0  0  0  0  0  0  0
   57.7150   27.2590   45.2010 C   0  0  0  0  0  0  0  0  0  0  0  0
   57.9464   26.8090   44.2243 H   0  0  0  0  0  0  0  0  0  0  0  0
   57.3840   26.4430   46.2190 C   0  0  0  0  0  0  0  0  0  0  0  0
   56.0120   25.8980   46.2940 C   0  0  0  0  0  0  0  0  0  0  0  0
   55.0410   26.6950   46.2640 O   0  0  0  0  0  0  0  0  0  0  0  0
   55.7450   24.4930   46.4120 N   0  0  0  0  0  0  0  0  0  0  0  0
   55.5960   23.5500   45.3060 C   0  0  0  0  0  0  0  0  0  0  0  0
   54.9259   22.7353   45.6177 H   0  0  0  0  0  0  0  0  0  0  0  0
   55.1778   24.0899   44.4437 H   0  0  0  0  0  0  0  0  0  0  0  0
   56.9270   22.9640   44.9010 C   0  0  0  0  0  0  0  0  0  0  0  0
   58.1000   23.3960   45.5410 C   0  0  0  0  0  0  0  0  0  0  0  0
   58.0424   24.1680   46.3225 H   0  0  0  0  0  0  0  0  0  0  0  0
   59.3400   22.8530   45.1930 C   0  0  0  0  0  0  0  0  0  0  0  0
   60.2502   23.1815   45.7160 H   0  0  0  0  0  0  0  0  0  0  0  0
   59.4240   21.8940   44.1820 C   0  0  0  0  0  0  0  0  0  0  0  0
   60.3991   21.4600   43.9159 H   0  0  0  0  0  0  0  0  0  0  0  0
   58.2710   21.4850   43.5080 C   0  0  0  0  0  0  0  0  0  0  0  0
   58.3421   20.7396   42.7022 H   0  0  0  0  0  0  0  0  0  0  0  0
   57.0250   22.0210   43.8550 C   0  0  0  0  0  0  0  0  0  0  0  0
   55.8950   21.6140   43.1540 O   0  0  0  0  0  0  0  0  0  0  0  0
   58.2910   26.2530   47.4070 C   0  0  0  0  0  0  0  0  0  0  0  0
   57.7114   26.3744   48.3340 H   0  0  0  0  0  0  0  0  0  0  0  0
   58.7278   25.2439   47.3772 H   0  0  0  0  0  0  0  0  0  0  0  0
   59.0961   27.0020   47.3772 H   0  0  0  0  0  0  0  0  0  0  0  0
  1  2  1  0
  2  3  1  0
  3  4  1  0
  4  5  1  0
  5  6  2  0
  5  7  1  0
  7  8  1  0
  8  9  1  0
  8 10  1  0
  8 11  1  0
 11 12  2  0
 12 13  1  0
 12 14  1  0
 14 15  1  0
 14 16  2  0
 16 17  1  0
 16 18  1  0
 18 19  1  0
 18 20  2  0
 20 21  1  0
  7 22  1  0
 22 23  2  0
 22 24  1  0
 24 25  1  0
 25 26  1  0
 25 27  2  0
 27 28  1  0
 28 29  2  0
 28 30  1  0
 30 31  1  0
 31 32  1  0
 31 33  1  0
 31 34  1  0
 34 35  2  0
 35 36  1  0
 35 37  1  0
 37 38  1  0
 37 39  2  0
 39 40  1  0
 39 41  1  0
 41 42  1  0
 41 43  2  0
 43 44  1  0
 27 45  1  0
 45 46  1  0
 45 47  1  0
 45 48  1  0
 24  3  2  0
 43 34  1  0
 20 11  1  0
M  CHG  3   4  -1  30  -1  44  -1
M  END
>  <UniqueID>  (41) 
38

>  <SMILES>  (41) 
C/C(=C\c1c(O)[n-]c(=O)n(Cc2ccccc2)c1=O)C(=O)[N-]Cc1ccccc1[O-]

>  <Energy>  (41) 
65.02421971108478

>  <Genealogy>  (41) 
CC(=Cc1c(O)[n-]c(=O)n(Cc2ccccc2)c1=O)C(=O)[N-]Cc1ccccc1[O-] (protonated)
C/C(=C\c1c(O)[n-]c(=O)n(Cc2ccccc2)c1=O)C(=O)[N-]Cc1ccccc1[O-] (cis-trans isomerization)
C/C(=C\c1c(O)[n-]c(=O)n(Cc2ccccc2)c1=O)C(=O)[N-]Cc1ccccc1[O-] (3D coordinates assigned)
C/C(=C\c1c(O)[n-]c(=O)n(Cc2ccccc2)c1=O)C(=O)[N-]Cc1ccccc1[O-] (optimized conformer: 65.02421971108478 kcal/mol)

>  <smiles>  (41) 
CC(=Cc1c(O)[nH]c(=O)n(Cc2ccccc2)c1=O)C(=O)NCc1ccccc1O

>  <score_type>  (41) 
oracle

>  <origin>  (41) 
adg

>  <m_score__min__energy>  (41) 
-15.699999999999999

>  <m_primary>  (41) 
energy

$$$$
41:0
     RDKit          3D

 44 47  0  0  0  0  0  0  0  0999 V2000
   59.2610   30.4610   48.7320 C   0  0  0  0  0  0  0  0  0  0  0  0
   58.9380   29.7440   47.4480 C   0  0  0  0  0  0  0  0  0  0  0  0
   58.9400   28.3400   47.4330 C   0  0  0  0  0  0  0  0  0  0  0  0
   58.6850   27.6410   46.2500 C   0  0  0  0  0  0  0  0  0  0  0  0
   58.7040   25.7310   46.2450 Br  0  0  0  0  0  0  0  0  0  0  0  0
   58.4250   28.3390   45.0690 C   0  0  0  0  0  0  0  0  0  0  0  0
   58.4010   29.7350   45.0730 C   0  0  0  0  0  0  0  0  0  0  0  0
   58.6280   30.4480   46.2580 C   0  0  0  0  0  0  0  0  0  0  0  0
   58.5750   31.8810   46.2220 N   0  0  0  0  0  0  0  0  0  0  0  0
   57.5340   32.5940   45.5390 C   0  0  0  0  0  0  0  0  0  0  0  0
   56.6620   31.9710   44.8750 O   0  0  0  0  0  0  0  0  0  0  0  0
   57.5230   34.0890   45.5470 C   0  0  0  0  0  0  0  0  0  0  0  0
   59.1200   34.7060   44.9270 S   0  0  0  0  0  0  0  0  0  0  0  0
   59.9980   34.2760   46.4240 C   0  0  0  0  0  0  0  0  0  0  0  0
   61.2790   33.8090   46.3470 N   0  0  0  0  0  0  0  0  0  0  0  0
   61.9090   33.4920   47.5020 C   0  0  0  0  0  0  0  0  0  0  0  0
   63.1830   33.0120   47.6750 C   0  0  0  0  0  0  0  0  0  0  0  0
   63.2800   32.8710   49.0660 C   0  0  0  0  0  0  0  0  0  0  0  0
   64.4570   32.3790   49.8230 C   0  0  0  0  0  0  0  0  0  0  0  0
   64.3840   31.2160   50.6150 C   0  0  0  0  0  0  0  0  0  0  0  0
   65.5060   30.7680   51.3200 C   0  0  0  0  0  0  0  0  0  0  0  0
   66.7080   31.4730   51.2490 C   0  0  0  0  0  0  0  0  0  0  0  0
   66.7940   32.6270   50.4670 C   0  0  0  0  0  0  0  0  0  0  0  0
   65.6770   33.0790   49.7570 C   0  0  0  0  0  0  0  0  0  0  0  0
   62.1190   33.2530   49.6570 N   0  0  0  0  0  0  0  0  0  0  0  0
   61.3080   33.6260   48.6840 N   0  0  0  0  0  0  0  0  0  0  0  0
   60.0390   34.0850   48.7830 C   0  0  0  0  0  0  0  0  0  0  0  0
   59.4770   34.2070   49.9030 O   0  0  0  0  0  0  0  0  0  0  0  0
   59.3800   34.4110   47.6370 N   0  0  0  0  0  0  0  0  0  0  0  0
   58.9764   29.8292   49.5863 H   0  0  0  0  0  0  0  0  0  0  0  0
   60.3402   30.6699   48.7739 H   0  0  0  0  0  0  0  0  0  0  0  0
   58.7024   31.4077   48.7739 H   0  0  0  0  0  0  0  0  0  0  0  0
   59.1441   27.7853   48.3607 H   0  0  0  0  0  0  0  0  0  0  0  0
   58.2390   27.7887   44.1349 H   0  0  0  0  0  0  0  0  0  0  0  0
   58.2023   30.2798   44.1383 H   0  0  0  0  0  0  0  0  0  0  0  0
   59.4190   32.4130   46.5300 H   0  0  0  0  0  0  0  0  0  0  0  0
   56.7118   34.4539   44.8998 H   0  0  0  0  0  0  0  0  0  0  0  0
   57.3615   34.4508   46.5732 H   0  0  0  0  0  0  0  0  0  0  0  0
   63.9418   32.7919   46.9097 H   0  0  0  0  0  0  0  0  0  0  0  0
   63.4389   30.6569   50.6793 H   0  0  0  0  0  0  0  0  0  0  0  0
   65.4405   29.8567   51.9325 H   0  0  0  0  0  0  0  0  0  0  0  0
   67.5870   31.1203   51.8084 H   0  0  0  0  0  0  0  0  0  0  0  0
   67.7422   33.1816   50.4094 H   0  0  0  0  0  0  0  0  0  0  0  0
   65.7521   33.9882   49.1424 H   0  0  0  0  0  0  0  0  0  0  0  0
  1  2  1  0
  2  3  2  0
  3  4  1  0
  4  5  1  0
  4  6  2  0
  6  7  1  0
  7  8  2  0
  8  9  1  0
  9 10  1  0
 10 11  2  0
 10 12  1  0
 12 13  1  0
 13 14  1  0
 14 15  2  0
 15 16  1  0
 16 17  2  0
 17 18  1  0
 18 19  1  0
 19 20  2  0
 20 21  1  0
 21 22  2  0
 22 23  1  0
 23 24  2  0
 18 25  2  0
 25 26  1  0
 26 27  1  0
 27 28  2  0
 27 29  1  0
  8  2  1  0
 29 14  1  0
 26 16  1  0
 24 19  1  0
  1 30  1  0
  1 31  1  0
  1 32  1  0
  3 33  1  0
  6 34  1  0
  7 35  1  0
  9 36  1  0
 12 37  1  0
 12 38  1  0
 17 39  1  0
 20 40  1  0
 21 41  1  0
 22 42  1  0
 23 43  1  0
 24 44  1  0
M  CHG  1  29  -1
M  END
>  <UniqueID>  (42) 
39

>  <SMILES>  (42) 
Cc1cc(Br)ccc1NC(=O)CSc1nc2cc(-c3ccccc3)nn2c(=O)[n-]1

>  <Energy>  (42) 
88.14843751063913

>  <Genealogy>  (42) 
Cc1cc(Br)ccc1NC(=O)CSc1nc2cc(-c3ccccc3)nn2c(=O)[n-]1 (protonated)
Cc1cc(Br)ccc1NC(=O)CSc1nc2cc(-c3ccccc3)nn2c(=O)[n-]1 (3D coordinates assigned)
Cc1cc(Br)ccc1NC(=O)CSc1nc2cc(-c3ccccc3)nn2c(=O)[n-]1 (optimized conformer: 88.14843751063913 kcal/mol)

>  <smiles>  (42) 
Cc1cc(Br)ccc1NC(=O)CSc1nc2cc(-c3ccccc3)nn2c(=O)[nH]1

>  <score_type>  (42) 
oracle

>  <origin>  (42) 
adg

>  <m_score__min__energy>  (42) 
-10.119999999999999

>  <m_primary>  (42) 
energy

$$$$
42:0
     RDKit          3D

 33 36  0  0  0  0  0  0  0  0999 V2000
   56.5880   18.9190   43.3600 H   0  0  0  0  0  0  0  0  0  0  0  0
   55.9310   19.6610   43.5670 O   0  0  0  0  0  0  0  0  0  0  0  0
   56.1910   20.5930   44.5670 C   0  0  0  0  0  0  0  0  0  0  0  0
   56.0260   21.9260   44.3560 N   0  0  0  0  0  0  0  0  0  0  0  0
   56.3280   22.6470   45.4590 C   0  0  0  0  0  0  0  0  0  0  0  0
   56.2740   24.0910   45.5040 N   0  0  0  0  0  0  0  0  0  0  0  0
   55.1420   24.7310   45.9440 C   0  0  0  0  0  0  0  0  0  0  0  0
   54.1240   24.0790   46.2990 O   0  0  0  0  0  0  0  0  0  0  0  0
   55.0910   26.0850   45.9770 N   0  0  0  0  0  0  0  0  0  0  0  0
   56.1400   26.8470   45.5870 C   0  0  0  0  0  0  0  0  0  0  0  0
   56.0170   28.2320   45.6020 O   0  0  0  0  0  0  0  0  0  0  0  0
   57.3210   26.2340   45.1520 C   0  0  0  0  0  0  0  0  0  0  0  0
   58.4820   27.0300   44.6990 C   0  0  0  0  0  0  0  0  0  0  0  0
   59.0878   26.6450   43.8655 H   0  0  0  0  0  0  0  0  0  0  0  0
   58.8310   28.1970   45.2550 C   0  0  0  0  0  0  0  0  0  0  0  0
   59.7910   28.4490   46.3450 C   0  0  0  0  0  0  0  0  0  0  0  0
   60.3296   27.6572   46.8863 H   0  0  0  0  0  0  0  0  0  0  0  0
   59.9250   29.7180   46.5900 N   0  0  0  0  0  0  0  0  0  0  0  0
   59.0660   30.3990   45.6790 C   0  0  0  0  0  0  0  0  0  0  0  0
   58.8850   31.7760   45.5730 C   0  0  0  0  0  0  0  0  0  0  0  0
   59.4263   32.4701   46.2327 H   0  0  0  0  0  0  0  0  0  0  0  0
   57.9900   32.2540   44.5980 C   0  0  0  0  0  0  0  0  0  0  0  0
   57.8242   33.3362   44.4916 H   0  0  0  0  0  0  0  0  0  0  0  0
   57.3040   31.3530   43.7560 C   0  0  0  0  0  0  0  0  0  0  0  0
   56.6076   31.7374   42.9962 H   0  0  0  0  0  0  0  0  0  0  0  0
   57.5050   29.9670   43.8820 C   0  0  0  0  0  0  0  0  0  0  0  0
   56.9758   29.2547   43.2319 H   0  0  0  0  0  0  0  0  0  0  0  0
   58.3980   29.5250   44.8590 C   0  0  0  0  0  0  0  0  0  0  0  0
   57.3570   24.8310   45.0980 C   0  0  0  0  0  0  0  0  0  0  0  0
   58.4090   24.2560   44.6980 O   0  0  0  0  0  0  0  0  0  0  0  0
   56.8260   21.6500   46.7270 S   0  0  0  0  0  0  0  0  0  0  0  0
   56.6330   20.2360   45.8370 C   0  0  0  0  0  0  0  0  0  0  0  0
   56.8222   19.2131   46.1946 H   0  0  0  0  0  0  0  0  0  0  0  0
  1  2  1  0
  2  3  1  0
  3  4  1  0
  4  5  2  0
  5  6  1  0
  6  7  1  0
  7  8  2  0
  7  9  1  0
  9 10  1  0
 10 11  1  0
 10 12  2  0
 12 13  1  0
 13 14  1  0
 13 15  2  0
 15 16  1  0
 16 17  1  0
 16 18  2  0
 18 19  1  0
 19 20  2  0
 20 21  1  0
 20 22  1  0
 22 23  1  0
 22 24  2  0
 24 25  1  0
 24 26  1  0
 26 27  1  0
 26 28  2  0
 12 29  1  0
 29 30  2  0
  5 31  1  0
 31 32  1  0
 32 33  1  0
 32  3  2  0
 29  6  1  0
 28 15  1  0
 28 19  1  0
M  CHG  2   9  -1  11  -1
M  END
>  <UniqueID>  (43) 
40

>  <SMILES>  (43) 
O=c1[n-]c([O-])c(/C=C2\C=Nc3ccccc32)c(=O)n1-c1nc(O)cs1

>  <Energy>  (43) 
114.88306340294145

>  <Genealogy>  (43) 
O=c1[n-]c([O-])c(C=C2C=Nc3ccccc32)c(=O)n1-c1nc(O)cs1 (protonated)
O=c1[n-]c([O-])c(/C=C2\C=Nc3ccccc32)c(=O)n1-c1nc(O)cs1 (cis-trans isomerization)
O=c1[n-]c([O-])c(/C=C2\C=Nc3ccccc32)c(=O)n1-c1nc(O)cs1 (3D coordinates assigned)
O=c1[n-]c([O-])c(/C=C2\C=Nc3ccccc32)c(=O)n1-c1nc(O)cs1 (nonaromatic ring conformer: 114.88306340294145 kcal/mol)

>  <smiles>  (43) 
O=c1[nH]c(O)c(C=C2C=Nc3ccccc32)c(=O)n1-c1nc(O)cs1

>  <score_type>  (43) 
oracle

>  <origin>  (43) 
adg

>  <m_score__min__energy>  (43) 
-12.6

>  <m_primary>  (43) 
energy

$$$$
43:0
     RDKit          3D

 47 49  0  0  0  0  0  0  0  0999 V2000
   65.5830   32.8410   50.0850 C   0  0  0  0  0  0  0  0  0  0  0  0
   64.5900   33.4830   49.2870 O   0  0  0  0  0  0  0  0  0  0  0  0
   63.2820   33.0070   49.1130 C   0  0  0  0  0  0  0  0  0  0  0  0
   63.0720   31.6240   49.1280 C   0  0  0  0  0  0  0  0  0  0  0  0
   61.7920   31.0980   48.9580 C   0  0  0  0  0  0  0  0  0  0  0  0
   60.6860   31.9500   48.7730 C   0  0  0  0  0  0  0  0  0  0  0  0
   59.3860   31.4460   48.5990 O   0  0  0  0  0  0  0  0  0  0  0  0
   59.0680   30.2570   47.8850 C   0  0  0  0  0  0  0  0  0  0  0  0
   60.8870   33.3470   48.7700 C   0  0  0  0  0  0  0  0  0  0  0  0
   59.7360   34.2980   48.5480 C   0  0  0  0  0  0  0  0  0  0  0  0
   59.0670   34.0130   47.2400 C   0  0  0  0  0  0  0  0  0  0  0  0
   57.7050   33.7960   47.0440 C   0  0  0  0  0  0  0  0  0  0  0  0
   57.3490   33.5400   45.7580 N   0  0  0  0  0  0  0  0  0  0  0  0
   58.4250   33.5470   44.9360 C   0  0  0  0  0  0  0  0  0  0  0  0
   58.3630   33.3570   43.6520 N   0  0  0  0  0  0  0  0  0  0  0  0
   57.7670   32.2220   43.0070 C   0  0  0  0  0  0  0  0  0  0  0  0
   57.4520   32.3160   41.7910 O   0  0  0  0  0  0  0  0  0  0  0  0
   57.5660   30.9300   43.7080 C   0  0  0  0  0  0  0  0  0  0  0  0
   56.2730   30.4790   44.0310 C   0  0  0  0  0  0  0  0  0  0  0  0
   56.0930   29.2730   44.7150 C   0  0  0  0  0  0  0  0  0  0  0  0
   57.2010   28.5020   45.0930 C   0  0  0  0  0  0  0  0  0  0  0  0
   56.9650   26.9990   45.9800 S   0  0  0  0  0  0  0  0  0  0  0  0
   55.2830   26.6010   46.0070 N   0  0  0  0  0  0  0  0  0  0  0  0
   57.4660   27.1510   47.3900 O   0  0  0  0  0  0  0  0  0  0  0  0
   57.7330   25.8930   45.3130 O   0  0  0  0  0  0  0  0  0  0  0  0
   58.4920   28.9570   44.7950 C   0  0  0  0  0  0  0  0  0  0  0  0
   58.6740   30.1640   44.1090 C   0  0  0  0  0  0  0  0  0  0  0  0
   59.8530   33.8800   45.7560 S   0  0  0  0  0  0  0  0  0  0  0  0
   62.1830   33.8660   48.9290 C   0  0  0  0  0  0  0  0  0  0  0  0
   65.3510   32.9910   51.1498 H   0  0  0  0  0  0  0  0  0  0  0  0
   65.5942   31.7643   49.8603 H   0  0  0  0  0  0  0  0  0  0  0  0
   66.5695   33.2727   49.8603 H   0  0  0  0  0  0  0  0  0  0  0  0
   63.9248   30.9451   49.2753 H   0  0  0  0  0  0  0  0  0  0  0  0
   61.6447   30.0080   48.9685 H   0  0  0  0  0  0  0  0  0  0  0  0
   58.8516   29.4479   48.5981 H   0  0  0  0  0  0  0  0  0  0  0  0
   58.1856   30.4340   47.2525 H   0  0  0  0  0  0  0  0  0  0  0  0
   59.9209   29.9699   47.2525 H   0  0  0  0  0  0  0  0  0  0  0  0
   59.0057   34.1790   49.3619 H   0  0  0  0  0  0  0  0  0  0  0  0
   60.1224   35.3278   48.5336 H   0  0  0  0  0  0  0  0  0  0  0  0
   56.9749   33.8293   47.8661 H   0  0  0  0  0  0  0  0  0  0  0  0
   55.3975   31.0796   43.7433 H   0  0  0  0  0  0  0  0  0  0  0  0
   55.0772   28.9276   44.9577 H   0  0  0  0  0  0  0  0  0  0  0  0
   54.7740   27.4570   46.3200 H   0  0  0  0  0  0  0  0  0  0  0  0
   55.1530   25.8830   46.7540 H   0  0  0  0  0  0  0  0  0  0  0  0
   59.3662   28.3637   45.1011 H   0  0  0  0  0  0  0  0  0  0  0  0
   59.6915   30.5152   43.8823 H   0  0  0  0  0  0  0  0  0  0  0  0
   62.3399   34.9546   48.9094 H   0  0  0  0  0  0  0  0  0  0  0  0
  1  2  1  0
  2  3  1  0
  3  4  2  0
  4  5  1  0
  5  6  2  0
  6  7  1  0
  7  8  1  0
  6  9  1  0
  9 10  1  0
 10 11  1  0
 11 12  2  0
 12 13  1  0
 13 14  1  0
 14 15  2  3
 15 16  1  0
 16 17  2  0
 16 18  1  0
 18 19  2  0
 19 20  1  0
 20 21  2  0
 21 22  1  0
 22 23  1  0
 22 24  2  0
 22 25  2  0
 21 26  1  0
 26 27  2  0
 14 28  1  0
  9 29  2  0
 29  3  1  0
 28 11  1  0
 27 18  1  0
  1 30  1  0
  1 31  1  0
  1 32  1  0
  4 33  1  0
  5 34  1  0
  8 35  1  0
  8 36  1  0
  8 37  1  0
 10 38  1  0
 10 39  1  0
 12 40  1  0
 19 41  1  0
 20 42  1  0
 23 43  1  0
 23 44  1  0
 26 45  1  0
 27 46  1  0
 29 47  1  0
M  CHG  1  13  -1
M  END
>  <UniqueID>  (44) 
41

>  <SMILES>  (44) 
COc1ccc(OC)c(Cc2c[n-]c(=NC(=O)c3ccc(S(N)(=O)=O)cc3)s2)c1

>  <Energy>  (44) 
82.75998647776093

>  <Genealogy>  (44) 
COc1ccc(OC)c(Cc2c[n-]c(=NC(=O)c3ccc(S(N)(=O)=O)cc3)s2)c1 (protonated)
COc1ccc(OC)c(Cc2c[n-]c(=NC(=O)c3ccc(S(N)(=O)=O)cc3)s2)c1 (3D coordinates assigned)
COc1ccc(OC)c(Cc2c[n-]c(=NC(=O)c3ccc(S(N)(=O)=O)cc3)s2)c1 (optimized conformer: 82.75998647776093 kcal/mol)

>  <smiles>  (44) 
COc1ccc(OC)c(Cc2c[nH]c(=NC(=O)c3ccc(S(N)(=O)=O)cc3)s2)c1

>  <score_type>  (44) 
oracle

>  <origin>  (44) 
adg

>  <m_score__min__energy>  (44) 
-10.48

>  <m_primary>  (44) 
energy

$$$$
44:0
     RDKit          3D

 35 37  0  0  0  0  0  0  0  0999 V2000
   55.8288   29.2136   44.3273 H   0  0  0  0  0  0  0  0  0  0  0  0
   56.7040   29.4260   44.9590 C   0  0  0  0  0  0  0  0  0  0  0  0
   57.1070   30.7110   45.1470 N   0  0  0  0  0  0  0  0  0  0  0  0
   58.1940   31.0320   45.9030 C   0  0  0  0  0  0  0  0  0  0  0  0
   58.5690   32.4600   46.0670 C   0  0  0  0  0  0  0  0  0  0  0  0
   58.5340   33.3580   44.9820 C   0  0  0  0  0  0  0  0  0  0  0  0
   58.2302   33.0011   43.9869 H   0  0  0  0  0  0  0  0  0  0  0  0
   58.8830   34.7000   45.1620 C   0  0  0  0  0  0  0  0  0  0  0  0
   58.8559   35.3927   44.3080 H   0  0  0  0  0  0  0  0  0  0  0  0
   59.2660   35.1640   46.4230 C   0  0  0  0  0  0  0  0  0  0  0  0
   59.5449   36.2191   46.5606 H   0  0  0  0  0  0  0  0  0  0  0  0
   59.2940   34.2860   47.5080 C   0  0  0  0  0  0  0  0  0  0  0  0
   59.5921   34.6510   48.5019 H   0  0  0  0  0  0  0  0  0  0  0  0
   58.9440   32.9440   47.3340 C   0  0  0  0  0  0  0  0  0  0  0  0
   58.9619   32.2600   48.1953 H   0  0  0  0  0  0  0  0  0  0  0  0
   58.9250   29.9990   46.5160 C   0  0  0  0  0  0  0  0  0  0  0  0
   59.8043   30.2349   47.1333 H   0  0  0  0  0  0  0  0  0  0  0  0
   58.5290   28.6730   46.3370 C   0  0  0  0  0  0  0  0  0  0  0  0
   59.1062   27.8606   46.8027 H   0  0  0  0  0  0  0  0  0  0  0  0
   57.3970   28.3730   45.5650 C   0  0  0  0  0  0  0  0  0  0  0  0
   56.9720   27.0180   45.3360 N   0  0  0  0  0  0  0  0  0  0  0  0
   56.3400   26.8390   44.5230 H   0  0  0  0  0  0  0  0  0  0  0  0
   57.2530   25.9200   46.2200 C   0  0  0  0  0  0  0  0  0  0  0  0
   57.9160   26.0960   47.2760 O   0  0  0  0  0  0  0  0  0  0  0  0
   56.8300   24.5950   45.8790 N   0  0  0  0  0  0  0  0  0  0  0  0
   55.6120   24.1310   45.8140 C   0  0  0  0  0  0  0  0  0  0  0  0
   55.4410   22.7850   45.9300 N   0  0  0  0  0  0  0  0  0  0  0  0
   54.2190   22.1940   45.8670 C   0  0  0  0  0  0  0  0  0  0  0  0
   54.1316   21.1018   45.9638 H   0  0  0  0  0  0  0  0  0  0  0  0
   53.0770   22.9690   45.6800 C   0  0  0  0  0  0  0  0  0  0  0  0
   52.0872   22.4940   45.6113 H   0  0  0  0  0  0  0  0  0  0  0  0
   53.2030   24.3530   45.5810 C   0  0  0  0  0  0  0  0  0  0  0  0
   52.3077   24.9759   45.4378 H   0  0  0  0  0  0  0  0  0  0  0  0
   54.4630   24.9530   45.6630 C   0  0  0  0  0  0  0  0  0  0  0  0
   54.5380   26.3410   45.6380 O   0  0  0  0  0  0  0  0  0  0  0  0
  1  2  1  0
  2  3  2  0
  3  4  1  0
  4  5  1  0
  5  6  2  0
  6  7  1  0
  6  8  1  0
  8  9  1  0
  8 10  2  0
 10 11  1  0
 10 12  1  0
 12 13  1  0
 12 14  2  0
 14 15  1  0
  4 16  2  0
 16 17  1  0
 16 18  1  0
 18 19  1  0
 18 20  2  0
 20 21  1  0
 21 22  1  0
 21 23  1  0
 23 24  2  0
 23 25  1  0
 25 26  2  0
 26 27  1  0
 27 28  1  0
 28 29  1  0
 28 30  2  0
 30 31  1  0
 30 32  1  0
 32 33  1  0
 32 34  2  0
 34 35  1  0
 20  2  1  0
 34 26  1  0
 14  5  1  0
M  CHG  2  27  -1  35  -1
M  END
>  <UniqueID>  (45) 
42

>  <SMILES>  (45) 
O=C(/N=c1/[n-]cccc1[O-])Nc1ccc(-c2ccccc2)nc1

>  <Energy>  (45) 
59.33008233456581

>  <Genealogy>  (45) 
O=C(N=c1[n-]cccc1[O-])Nc1ccc(-c2ccccc2)nc1 (protonated)
O=C(/N=c1/[n-]cccc1[O-])Nc1ccc(-c2ccccc2)nc1 (cis-trans isomerization)
O=C(/N=c1/[n-]cccc1[O-])Nc1ccc(-c2ccccc2)nc1 (3D coordinates assigned)
O=C(/N=c1/[n-]cccc1[O-])Nc1ccc(-c2ccccc2)nc1 (optimized conformer: 59.33008233456581 kcal/mol)

>  <smiles>  (45) 
O=C(N=c1[nH]cccc1O)Nc1ccc(-c2ccccc2)nc1

>  <score_type>  (45) 
oracle

>  <origin>  (45) 
adg

>  <m_score__min__energy>  (45) 
-12.880000000000001

>  <m_primary>  (45) 
energy

$$$$
45:0
     RDKit          3D

 38 40  0  0  0  0  0  0  0  0999 V2000
   55.3160   29.2210   45.0690 O   0  0  0  0  0  0  0  0  0  0  0  0
   56.5740   29.2320   44.9930 C   0  0  0  0  0  0  0  0  0  0  0  0
   57.2620   30.3960   44.5130 N   0  0  0  0  0  0  0  0  0  0  0  0
   57.5690   31.5810   45.2630 C   0  0  0  0  0  0  0  0  0  0  0  0
   57.0150   32.8330   44.9390 C   0  0  0  0  0  0  0  0  0  0  0  0
   57.3300   33.9580   45.7050 C   0  0  0  0  0  0  0  0  0  0  0  0
   58.1830   33.8450   46.8040 C   0  0  0  0  0  0  0  0  0  0  0  0
   58.7140   32.5950   47.1600 C   0  0  0  0  0  0  0  0  0  0  0  0
   59.6550   32.4750   48.3280 C   0  0  0  0  0  0  0  0  0  0  0  0
   61.0800   32.5910   47.8610 C   0  0  0  0  0  0  0  0  0  0  0  0
   62.0040   31.5710   48.1420 C   0  0  0  0  0  0  0  0  0  0  0  0
   63.3370   31.6960   47.7370 C   0  0  0  0  0  0  0  0  0  0  0  0
   63.7580   32.8440   47.0610 C   0  0  0  0  0  0  0  0  0  0  0  0
   62.8480   33.8690   46.7890 C   0  0  0  0  0  0  0  0  0  0  0  0
   61.5140   33.7470   47.1910 C   0  0  0  0  0  0  0  0  0  0  0  0
   58.4020   31.4680   46.3820 C   0  0  0  0  0  0  0  0  0  0  0  0
   57.3380   28.0400   45.4150 C   0  0  0  0  0  0  0  0  0  0  0  0
   58.7410   28.0820   45.3600 C   0  0  0  0  0  0  0  0  0  0  0  0
   59.4950   26.9520   45.6730 C   0  0  0  0  0  0  0  0  0  0  0  0
   58.8410   25.7780   46.0490 C   0  0  0  0  0  0  0  0  0  0  0  0
   59.5040   24.7430   46.3210 O   0  0  0  0  0  0  0  0  0  0  0  0
   57.4850   25.7520   46.1260 N   0  0  0  0  0  0  0  0  0  0  0  0
   56.7180   26.8400   45.8390 C   0  0  0  0  0  0  0  0  0  0  0  0
   55.3370   26.7320   46.0140 O   0  0  0  0  0  0  0  0  0  0  0  0
   56.3327   32.9262   44.0812 H   0  0  0  0  0  0  0  0  0  0  0  0
   56.9039   34.9371   45.4409 H   0  0  0  0  0  0  0  0  0  0  0  0
   58.4399   34.7379   47.3929 H   0  0  0  0  0  0  0  0  0  0  0  0
   59.4426   33.2776   49.0496 H   0  0  0  0  0  0  0  0  0  0  0  0
   59.5122   31.4940   48.8046 H   0  0  0  0  0  0  0  0  0  0  0  0
   61.6780   30.6703   48.6827 H   0  0  0  0  0  0  0  0  0  0  0  0
   64.0543   30.8899   47.9509 H   0  0  0  0  0  0  0  0  0  0  0  0
   64.8065   32.9410   46.7427 H   0  0  0  0  0  0  0  0  0  0  0  0
   63.1813   34.7729   46.2581 H   0  0  0  0  0  0  0  0  0  0  0  0
   60.8021   34.5591   46.9818 H   0  0  0  0  0  0  0  0  0  0  0  0
   58.8166   30.4864   46.6550 H   0  0  0  0  0  0  0  0  0  0  0  0
   59.2484   29.0132   45.0678 H   0  0  0  0  0  0  0  0  0  0  0  0
   60.5934   26.9854   45.6241 H   0  0  0  0  0  0  0  0  0  0  0  0
   54.7620   27.4870   46.3610 H   0  0  0  0  0  0  0  0  0  0  0  0
  1  2  2  0
  2  3  1  0
  3  4  1  0
  4  5  2  0
  5  6  1  0
  6  7  2  0
  7  8  1  0
  8  9  1  0
  9 10  1  0
 10 11  2  0
 11 12  1  0
 12 13  2  0
 13 14  1  0
 14 15  2  0
  8 16  2  0
  2 17  1  0
 17 18  1  0
 18 19  2  0
 19 20  1  0
 20 21  2  0
 20 22  1  0
 22 23  1  0
 23 24  1  0
 16  4  1  0
 23 17  2  0
 15 10  1  0
  5 25  1  0
  6 26  1  0
  7 27  1  0
  9 28  1  0
  9 29  1  0
 11 30  1  0
 12 31  1  0
 13 32  1  0
 14 33  1  0
 15 34  1  0
 16 35  1  0
 18 36  1  0
 19 37  1  0
 24 38  1  0
M  CHG  2   3  -1  22  -1
M  END
>  <UniqueID>  (46) 
43

>  <SMILES>  (46) 
O=C([N-]c1cccc(Cc2ccccc2)c1)c1ccc(=O)[n-]c1O

>  <Energy>  (46) 
49.58058103470682

>  <Genealogy>  (46) 
O=C([N-]c1cccc(Cc2ccccc2)c1)c1ccc(=O)[n-]c1O (protonated)
O=C([N-]c1cccc(Cc2ccccc2)c1)c1ccc(=O)[n-]c1O (3D coordinates assigned)
O=C([N-]c1cccc(Cc2ccccc2)c1)c1ccc(=O)[n-]c1O (optimized conformer: 49.58058103470682 kcal/mol)

>  <smiles>  (46) 
O=C(Nc1cccc(Cc2ccccc2)c1)c1ccc(=O)[nH]c1O

>  <score_type>  (46) 
oracle

>  <origin>  (46) 
adg

>  <m_score__min__energy>  (46) 
-13.27

>  <m_primary>  (46) 
energy

$$$$
46:0
     RDKit          3D

 39 40  0  0  0  0  0  0  0  0999 V2000
   66.0430   31.6390   50.7320 C   0  0  0  0  0  0  0  0  0  0  0  0
   65.7800   32.7660   49.7390 C   0  0  0  0  0  0  0  0  0  0  0  0
   64.3500   33.1000   49.7090 N   0  0  0  0  0  0  0  0  0  0  0  0
   63.6710   33.2680   50.8820 C   0  0  0  0  0  0  0  0  0  0  0  0
   62.3220   33.6200   50.8760 C   0  0  0  0  0  0  0  0  0  0  0  0
   61.6450   33.7850   52.0800 O   0  0  0  0  0  0  0  0  0  0  0  0
   61.6610   33.8050   49.6590 C   0  0  0  0  0  0  0  0  0  0  0  0
   60.4370   34.1080   49.6600 O   0  0  0  0  0  0  0  0  0  0  0  0
   62.3630   33.6370   48.4480 C   0  0  0  0  0  0  0  0  0  0  0  0
   61.7020   33.8490   47.1340 C   0  0  0  0  0  0  0  0  0  0  0  0
   62.3730   33.7320   46.0730 O   0  0  0  0  0  0  0  0  0  0  0  0
   60.3080   34.1930   47.0570 N   0  0  0  0  0  0  0  0  0  0  0  0
   59.6330   34.4320   45.7840 C   0  0  0  0  0  0  0  0  0  0  0  0
   58.9240   33.1840   45.3350 C   0  0  0  0  0  0  0  0  0  0  0  0
   58.0920   33.1980   44.2050 C   0  0  0  0  0  0  0  0  0  0  0  0
   57.4070   32.0420   43.8180 C   0  0  0  0  0  0  0  0  0  0  0  0
   57.5450   30.8590   44.5580 C   0  0  0  0  0  0  0  0  0  0  0  0
   56.6770   29.3990   44.0940 S   0  0  0  0  0  0  0  0  0  0  0  0
   55.1360   29.3710   44.8770 N   0  0  0  0  0  0  0  0  0  0  0  0
   57.4730   28.1920   44.5030 O   0  0  0  0  0  0  0  0  0  0  0  0
   56.4750   29.3640   42.6050 O   0  0  0  0  0  0  0  0  0  0  0  0
   58.3660   30.8460   45.6940 C   0  0  0  0  0  0  0  0  0  0  0  0
   59.0500   32.0020   46.0820 C   0  0  0  0  0  0  0  0  0  0  0  0
   63.7250   33.2930   48.5080 C   0  0  0  0  0  0  0  0  0  0  0  0
   65.9528   32.0257   51.7578 H   0  0  0  0  0  0  0  0  0  0  0  0
   65.3083   30.8351   50.5772 H   0  0  0  0  0  0  0  0  0  0  0  0
   67.0576   31.2433   50.5772 H   0  0  0  0  0  0  0  0  0  0  0  0
   66.3534   33.6551   50.0399 H   0  0  0  0  0  0  0  0  0  0  0  0
   66.0903   32.4371   48.7362 H   0  0  0  0  0  0  0  0  0  0  0  0
   64.1929   33.1244   51.8396 H   0  0  0  0  0  0  0  0  0  0  0  0
   59.7790   34.4090   47.9310 H   0  0  0  0  0  0  0  0  0  0  0  0
   58.9001   35.2430   45.9070 H   0  0  0  0  0  0  0  0  0  0  0  0
   60.3795   34.7151   45.0273 H   0  0  0  0  0  0  0  0  0  0  0  0
   57.9781   34.1230   43.6207 H   0  0  0  0  0  0  0  0  0  0  0  0
   56.7578   32.0607   42.9302 H   0  0  0  0  0  0  0  0  0  0  0  0
   55.1890   28.6460   45.6280 H   0  0  0  0  0  0  0  0  0  0  0  0
   58.4726   29.9228   46.2825 H   0  0  0  0  0  0  0  0  0  0  0  0
   59.6898   31.9853   46.9766 H   0  0  0  0  0  0  0  0  0  0  0  0
   64.2963   33.1774   47.5751 H   0  0  0  0  0  0  0  0  0  0  0  0
  1  2  1  0
  2  3  1  0
  3  4  1  0
  4  5  2  0
  5  6  1  0
  5  7  1  0
  7  8  2  0
  7  9  1  0
  9 10  1  0
 10 11  2  0
 10 12  1  0
 12 13  1  0
 13 14  1  0
 14 15  2  0
 15 16  1  0
 16 17  2  0
 17 18  1  0
 18 19  1  0
 18 20  2  0
 18 21  2  0
 17 22  1  0
 22 23  2  0
  9 24  2  0
 24  3  1  0
 23 14  1  0
  1 25  1  0
  1 26  1  0
  1 27  1  0
  2 28  1  0
  2 29  1  0
  4 30  1  0
 12 31  1  0
 13 32  1  0
 13 33  1  0
 15 34  1  0
 16 35  1  0
 19 36  1  0
 22 37  1  0
 23 38  1  0
 24 39  1  0
M  CHG  2   6  -1  19  -1
M  END
>  <UniqueID>  (47) 
44

>  <SMILES>  (47) 
CCn1cc([O-])c(=O)c(C(=O)NCc2ccc(S([NH-])(=O)=O)cc2)c1

>  <Energy>  (47) 
39.0451881939588

>  <Genealogy>  (47) 
CCn1cc([O-])c(=O)c(C(=O)NCc2ccc(S([NH-])(=O)=O)cc2)c1 (protonated)
CCn1cc([O-])c(=O)c(C(=O)NCc2ccc(S([NH-])(=O)=O)cc2)c1 (3D coordinates assigned)
CCn1cc([O-])c(=O)c(C(=O)NCc2ccc(S([NH-])(=O)=O)cc2)c1 (optimized conformer: 39.0451881939588 kcal/mol)

>  <smiles>  (47) 
CCn1cc(O)c(=O)c(C(=O)NCc2ccc(S(N)(=O)=O)cc2)c1

>  <score_type>  (47) 
oracle

>  <origin>  (47) 
adg

>  <m_score__min__energy>  (47) 
-11.23

>  <m_primary>  (47) 
energy

$$$$
47:0
     RDKit          3D

 48 50  0  0  0  0  0  0  0  0999 V2000
   60.4700   29.5940   46.2370 C   0  0  0  0  0  0  0  0  0  0  0  0
   59.4580   29.7120   45.1670 N   0  0  1  0  0  0  0  0  0  0  0  0
   59.2280   28.4120   44.4860 C   0  0  0  0  0  0  0  0  0  0  0  0
   58.3940   27.4370   45.2930 C   0  0  0  0  0  0  0  0  0  0  0  0
   59.0130   26.4430   46.0700 C   0  0  0  0  0  0  0  0  0  0  0  0
   58.2420   25.5500   46.8210 C   0  0  0  0  0  0  0  0  0  0  0  0
   56.8470   25.6380   46.7980 C   0  0  0  0  0  0  0  0  0  0  0  0
   56.2210   26.6160   46.0200 C   0  0  0  0  0  0  0  0  0  0  0  0
   54.8340   26.7000   45.9940 O   0  0  0  0  0  0  0  0  0  0  0  0
   56.9900   27.5100   45.2670 C   0  0  0  0  0  0  0  0  0  0  0  0
   58.1920   30.3030   45.6660 C   0  0  0  0  0  0  0  0  0  0  0  0
   58.2750   31.8080   45.7600 C   0  0  0  0  0  0  0  0  0  0  0  0
   58.1340   32.6000   44.6100 C   0  0  0  0  0  0  0  0  0  0  0  0
   58.2650   33.9890   44.6940 C   0  0  0  0  0  0  0  0  0  0  0  0
   58.5630   34.5930   45.9180 C   0  0  0  0  0  0  0  0  0  0  0  0
   58.7320   33.8180   47.0700 C   0  0  0  0  0  0  0  0  0  0  0  0
   59.0890   34.4660   48.2640 O   0  0  0  0  0  0  0  0  0  0  0  0
   60.0690   33.9960   49.1920 C   0  0  0  0  0  0  0  0  0  0  0  0
   61.2640   33.4230   48.4690 C   0  0  0  0  0  0  0  0  0  0  0  0
   61.7010   32.1150   48.7370 C   0  0  0  0  0  0  0  0  0  0  0  0
   62.7930   31.5820   48.0460 C   0  0  0  0  0  0  0  0  0  0  0  0
   63.4620   32.3530   47.0910 C   0  0  0  0  0  0  0  0  0  0  0  0
   63.0440   33.6610   46.8310 C   0  0  0  0  0  0  0  0  0  0  0  0
   61.9510   34.1970   47.5210 C   0  0  0  0  0  0  0  0  0  0  0  0
   58.5570   32.4240   46.9900 C   0  0  0  0  0  0  0  0  0  0  0  0
   59.9751   29.6517   47.2177 H   0  0  0  0  0  0  0  0  0  0  0  0
   60.9901   28.6291   46.1450 H   0  0  0  0  0  0  0  0  0  0  0  0
   61.1982   30.4133   46.1450 H   0  0  0  0  0  0  0  0  0  0  0  0
   59.8510   30.3560   44.4390 H   0  0  0  0  0  0  0  0  0  0  0  0
   58.7110   28.6057   43.5346 H   0  0  0  0  0  0  0  0  0  0  0  0
   60.2145   27.9469   44.3424 H   0  0  0  0  0  0  0  0  0  0  0  0
   60.1102   26.3669   46.0876 H   0  0  0  0  0  0  0  0  0  0  0  0
   58.7338   24.7775   47.4305 H   0  0  0  0  0  0  0  0  0  0  0  0
   56.2419   24.9375   47.3923 H   0  0  0  0  0  0  0  0  0  0  0  0
   56.4934   28.2743   44.6512 H   0  0  0  0  0  0  0  0  0  0  0  0
   57.3775   30.0335   44.9776 H   0  0  0  0  0  0  0  0  0  0  0  0
   58.0039   29.9070   46.6749 H   0  0  0  0  0  0  0  0  0  0  0  0
   57.9199   32.1266   43.6404 H   0  0  0  0  0  0  0  0  0  0  0  0
   58.1332   34.6080   43.7943 H   0  0  0  0  0  0  0  0  0  0  0  0
   58.6655   35.6867   45.9762 H   0  0  0  0  0  0  0  0  0  0  0  0
   60.3981   34.8342   49.8237 H   0  0  0  0  0  0  0  0  0  0  0  0
   59.6182   33.2043   49.8085 H   0  0  0  0  0  0  0  0  0  0  0  0
   61.1819   31.5080   49.4934 H   0  0  0  0  0  0  0  0  0  0  0  0
   63.1263   30.5546   48.2540 H   0  0  0  0  0  0  0  0  0  0  0  0
   64.3176   31.9301   46.5440 H   0  0  0  0  0  0  0  0  0  0  0  0
   63.5744   34.2694   46.0837 H   0  0  0  0  0  0  0  0  0  0  0  0
   61.6289   35.2293   47.3196 H   0  0  0  0  0  0  0  0  0  0  0  0
   58.6419   31.8111   47.8995 H   0  0  0  0  0  0  0  0  0  0  0  0
  1  2  1  0
  2  3  1  0
  3  4  1  0
  4  5  2  0
  5  6  1  0
  6  7  2  0
  7  8  1  0
  8  9  1  0
  8 10  2  0
  2 11  1  0
 11 12  1  0
 12 13  2  0
 13 14  1  0
 14 15  2  0
 15 16  1  0
 16 17  1  0
 17 18  1  0
 18 19  1  0
 19 20  2  0
 20 21  1  0
 21 22  2  0
 22 23  1  0
 23 24  2  0
 16 25  2  0
 10  4  1  0
 25 12  1  0
 24 19  1  0
  1 26  1  0
  1 27  1  0
  1 28  1  0
  2 29  1  6
  3 30  1  0
  3 31  1  0
  5 32  1  0
  6 33  1  0
  7 34  1  0
 10 35  1  0
 11 36  1  0
 11 37  1  0
 13 38  1  0
 14 39  1  0
 15 40  1  0
 18 41  1  0
 18 42  1  0
 20 43  1  0
 21 44  1  0
 22 45  1  0
 23 46  1  0
 24 47  1  0
 25 48  1  0
M  CHG  2   2   1   9  -1
M  END
>  <UniqueID>  (48) 
45

>  <SMILES>  (48) 
C[N@@H+](Cc1cccc([O-])c1)Cc1cccc(OCc2ccccc2)c1

>  <Energy>  (48) 
51.35153675778388

>  <Genealogy>  (48) 
C[NH+](Cc1cccc([O-])c1)Cc1cccc(OCc2ccccc2)c1 (protonated)
C[N@@H+](Cc1cccc([O-])c1)Cc1cccc(OCc2ccccc2)c1 (chirality)
C[N@@H+](Cc1cccc([O-])c1)Cc1cccc(OCc2ccccc2)c1 (3D coordinates assigned)
C[N@@H+](Cc1cccc([O-])c1)Cc1cccc(OCc2ccccc2)c1 (optimized conformer: 51.35153675778388 kcal/mol)

>  <smiles>  (48) 
CN(Cc1cccc(O)c1)Cc1cccc(OCc2ccccc2)c1

>  <score_type>  (48) 
oracle

>  <origin>  (48) 
adg

>  <m_score__min__energy>  (48) 
-10.66

>  <m_primary>  (48) 
energy

$$$$
48:0
     RDKit          3D

 47 49  0  0  1  0  0  0  0  0999 V2000
   65.7020   32.3700   50.1790 C   0  0  0  0  0  0  0  0  0  0  0  0
   64.2970   32.3000   50.3800 O   0  0  0  0  0  0  0  0  0  0  0  0
   63.4550   32.1390   49.2850 C   0  0  0  0  0  0  0  0  0  0  0  0
   63.7030   32.8240   48.1140 C   0  0  0  0  0  0  0  0  0  0  0  0
   62.8550   32.6490   47.0400 C   0  0  0  0  0  0  0  0  0  0  0  0
   61.7650   31.7890   47.1440 C   0  0  0  0  0  0  0  0  0  0  0  0
   61.4940   31.0890   48.3080 C   0  0  0  0  0  0  0  0  0  0  0  0
   60.3180   30.1640   48.4180 C   0  0  0  0  0  0  0  0  0  0  0  0
   60.2690   29.2960   47.2950 N   0  0  0  0  0  0  0  0  0  0  0  0
   59.2590   29.0110   46.5810 C   0  0  0  0  0  0  0  0  0  0  0  0
   58.9630   27.6830   46.3580 C   0  0  0  0  0  0  0  0  0  0  0  0
   57.8560   27.4120   45.5780 C   0  0  0  0  0  0  0  0  0  0  0  0
   57.1420   28.4470   45.0870 N   0  0  0  0  0  0  0  0  0  0  0  0
   57.4620   29.7300   45.3260 C   0  0  0  0  0  0  0  0  0  0  0  0
   56.7670   30.6990   44.8490 N   0  0  0  0  0  0  0  0  0  0  0  0
   57.3990   31.9130   44.3990 C   0  0  0  0  0  0  0  0  0  0  0  0
   56.9530   33.1210   45.1950 C   0  0  0  0  0  0  0  0  0  0  0  0
   58.0460   33.6470   46.0240 C   0  0  0  0  0  0  0  0  0  0  0  0
   58.9900   34.5540   45.5920 C   0  0  0  0  0  0  0  0  0  0  0  0
   60.0010   35.0170   46.4190 C   0  0  0  0  0  0  0  0  0  0  0  0
   60.0660   34.5530   47.7200 C   0  0  0  0  0  0  0  0  0  0  0  0
   59.1390   33.6430   48.1920 C   0  0  0  0  0  0  0  0  0  0  0  0
   58.1440   33.2050   47.3370 C   0  0  0  0  0  0  0  0  0  0  0  0
   58.5330   30.0280   46.0830 N   0  0  0  0  0  0  0  0  0  0  0  0
   62.3680   31.2940   49.3590 C   0  0  0  0  0  0  0  0  0  0  0  0
   66.2110   32.3954   51.1538 H   0  0  0  0  0  0  0  0  0  0  0  0
   66.0360   31.4874   49.6138 H   0  0  0  0  0  0  0  0  0  0  0  0
   65.9466   33.2814   49.6138 H   0  0  0  0  0  0  0  0  0  0  0  0
   64.5662   33.5015   48.0373 H   0  0  0  0  0  0  0  0  0  0  0  0
   63.0403   33.1897   46.1001 H   0  0  0  0  0  0  0  0  0  0  0  0
   61.1001   31.6619   46.2770 H   0  0  0  0  0  0  0  0  0  0  0  0
   60.4115   29.5653   49.3360 H   0  0  0  0  0  0  0  0  0  0  0  0
   59.3944   30.7606   48.4506 H   0  0  0  0  0  0  0  0  0  0  0  0
   59.5799   26.8768   46.7817 H   0  0  0  0  0  0  0  0  0  0  0  0
   57.5622   26.3743   45.3614 H   0  0  0  0  0  0  0  0  0  0  0  0
   56.3220   28.2120   44.5070 H   0  0  0  0  0  0  0  0  0  0  0  0
   58.4887   31.8039   44.5020 H   0  0  0  0  0  0  0  0  0  0  0  0
   57.1093   32.0749   43.3502 H   0  0  0  0  0  0  0  0  0  0  0  0
   56.6211   33.9059   44.4994 H   0  0  0  0  0  0  0  0  0  0  0  0
   56.1302   32.8155   45.8581 H   0  0  0  0  0  0  0  0  0  0  0  0
   58.9391   34.9223   44.5568 H   0  0  0  0  0  0  0  0  0  0  0  0
   60.7398   35.7419   46.0466 H   0  0  0  0  0  0  0  0  0  0  0  0
   60.8641   34.9120   48.3865 H   0  0  0  0  0  0  0  0  0  0  0  0
   59.1915   33.2744   49.2271 H   0  0  0  0  0  0  0  0  0  0  0  0
   57.4044   32.4812   47.7100 H   0  0  0  0  0  0  0  0  0  0  0  0
   58.7990   30.9940   46.2810 H   0  0  0  0  0  0  0  0  0  0  0  0
   62.1873   30.7562   50.3014 H   0  0  0  0  0  0  0  0  0  0  0  0
  1  2  1  0
  2  3  1  0
  3  4  2  0
  4  5  1  0
  5  6  2  0
  6  7  1  0
  7  8  1  0
  8  9  1  0
  9 10  2  0
 10 11  1  0
 11 12  2  0
 12 13  1  0
 13 14  1  0
 14 15  2  0
 15 16  1  0
 16 17  1  0
 17 18  1  0
 18 19  2  0
 19 20  1  0
 20 21  2  0
 21 22  1  0
 22 23  2  0
 14 24  1  0
  7 25  2  0
 25  3  1  0
 24 10  1  0
 23 18  1  0
  1 26  1  0
  1 27  1  0
  1 28  1  0
  4 29  1  0
  5 30  1  0
  6 31  1  0
  8 32  1  0
  8 33  1  0
 11 34  1  0
 12 35  1  0
 13 36  1  0
 16 37  1  0
 16 38  1  0
 17 39  1  0
 17 40  1  0
 19 41  1  0
 20 42  1  0
 21 43  1  0
 22 44  1  0
 23 45  1  0
 24 46  1  0
 25 47  1  0
M  END
>  <smiles>  (49) 
COc1cccc(CN=c2cc[nH]c(=NCCc3ccccc3)[nH]2)c1

>  <score_type>  (49) 
oracle

>  <origin>  (49) 
adg

>  <m_score__min__energy>  (49) 
-7.8899999999999997

>  <m_primary>  (49) 
energy

$$$$
49:0
     RDKit          3D

 59 62  0  0  0  0  0  0  0  0999 V2000
   62.4430   32.9890   49.6520 C   0  0  0  0  0  0  0  0  0  0  0  0
   61.4830   33.3410   48.5530 C   0  0  0  0  0  0  0  0  0  0  0  0
   61.4850   32.5990   47.3560 C   0  0  0  0  0  0  0  0  0  0  0  0
   60.5430   32.8700   46.3570 C   0  0  0  0  0  0  0  0  0  0  0  0
   59.5700   33.8630   46.5530 C   0  0  0  0  0  0  0  0  0  0  0  0
   58.4010   34.1780   45.2700 S   0  0  0  0  0  0  0  0  0  0  0  0
   58.8730   35.3810   44.4960 O   0  0  0  0  0  0  0  0  0  0  0  0
   57.0270   34.4700   45.8170 O   0  0  0  0  0  0  0  0  0  0  0  0
   58.3510   32.8250   44.1880 N   0  0  0  0  0  0  0  0  0  0  0  0
   57.8300   31.5150   44.4650 C   0  0  0  0  0  0  0  0  0  0  0  0
   56.5500   31.2000   43.9890 C   0  0  0  0  0  0  0  0  0  0  0  0
   55.9660   29.9670   44.2800 C   0  0  0  0  0  0  0  0  0  0  0  0
   56.6430   29.0410   45.0900 C   0  0  0  0  0  0  0  0  0  0  0  0
   56.0180   27.8230   45.3610 O   0  0  0  0  0  0  0  0  0  0  0  0
   57.9300   29.3520   45.6080 C   0  0  0  0  0  0  0  0  0  0  0  0
   58.5730   28.4960   46.6360 C   0  0  0  0  0  0  0  0  0  0  0  0
   59.1040   29.1090   47.7860 C   0  0  0  0  0  0  0  0  0  0  0  0
   59.7390   28.3480   48.7780 C   0  0  0  0  0  0  0  0  0  0  0  0
   60.2470   29.0100   50.0310 C   0  0  0  0  0  0  0  0  0  0  0  0
   59.2640   30.0490   50.5110 C   0  0  0  0  0  0  0  0  0  0  0  0
   58.3310   29.7370   51.5170 C   0  0  0  0  0  0  0  0  0  0  0  0
   57.4380   30.7230   51.9580 C   0  0  0  0  0  0  0  0  0  0  0  0
   57.4880   31.9800   51.4230 N   0  0  0  0  0  0  0  0  0  0  0  0
   58.3950   32.3130   50.4600 C   0  0  0  0  0  0  0  0  0  0  0  0
   59.3010   31.3550   49.9870 C   0  0  0  0  0  0  0  0  0  0  0  0
   59.8460   26.9590   48.6170 C   0  0  0  0  0  0  0  0  0  0  0  0
   59.3330   26.3390   47.4750 C   0  0  0  0  0  0  0  0  0  0  0  0
   58.6820   27.0960   46.4780 C   0  0  0  0  0  0  0  0  0  0  0  0
   58.1030   26.4660   45.3240 N   0  0  0  0  0  0  0  0  0  0  0  0
   57.0000   25.1230   45.3710 S   0  0  0  0  0  0  0  0  0  0  0  0
   57.8710   23.6630   45.8940 C   0  0  0  0  0  0  0  0  0  0  0  0
   56.4280   24.8750   44.0010 O   0  0  0  0  0  0  0  0  0  0  0  0
   55.8960   25.4240   46.3520 O   0  0  0  0  0  0  0  0  0  0  0  0
   58.5290   30.5730   45.2530 C   0  0  0  0  0  0  0  0  0  0  0  0
   59.5530   34.5950   47.7560 C   0  0  0  0  0  0  0  0  0  0  0  0
   60.5120   34.3390   48.7460 C   0  0  0  0  0  0  0  0  0  0  0  0
   61.9646   33.1644   50.6269 H   0  0  0  0  0  0  0  0  0  0  0  0
   62.7247   31.9291   49.5672 H   0  0  0  0  0  0  0  0  0  0  0  0
   63.3431   33.6156   49.5672 H   0  0  0  0  0  0  0  0  0  0  0  0
   62.2297   31.8035   47.2057 H   0  0  0  0  0  0  0  0  0  0  0  0
   60.5650   32.3029   45.4147 H   0  0  0  0  0  0  0  0  0  0  0  0
   56.0003   31.9325   43.3797 H   0  0  0  0  0  0  0  0  0  0  0  0
   54.9738   29.7198   43.8744 H   0  0  0  0  0  0  0  0  0  0  0  0
   56.2180   26.9730   44.8530 H   0  0  0  0  0  0  0  0  0  0  0  0
   59.0199   30.1989   47.9083 H   0  0  0  0  0  0  0  0  0  0  0  0
   60.3819   28.2492   50.8140 H   0  0  0  0  0  0  0  0  0  0  0  0
   61.2069   29.5005   49.8120 H   0  0  0  0  0  0  0  0  0  0  0  0
   58.3028   28.7278   51.9536 H   0  0  0  0  0  0  0  0  0  0  0  0
   56.6965   30.4853   52.7350 H   0  0  0  0  0  0  0  0  0  0  0  0
   58.4150   33.3353   50.0543 H   0  0  0  0  0  0  0  0  0  0  0  0
   60.0353   31.6211   49.2124 H   0  0  0  0  0  0  0  0  0  0  0  0
   60.3365   26.3544   49.3941 H   0  0  0  0  0  0  0  0  0  0  0  0
   59.4375   25.2509   47.3520 H   0  0  0  0  0  0  0  0  0  0  0  0
   57.8943   23.6239   46.9931 H   0  0  0  0  0  0  0  0  0  0  0  0
   57.3573   22.7709   45.5062 H   0  0  0  0  0  0  0  0  0  0  0  0
   58.9000   23.6912   45.5062 H   0  0  0  0  0  0  0  0  0  0  0  0
   59.5512   30.7973   45.5917 H   0  0  0  0  0  0  0  0  0  0  0  0
   58.7872   35.3677   47.9188 H   0  0  0  0  0  0  0  0  0  0  0  0
   60.5046   34.9221   49.6787 H   0  0  0  0  0  0  0  0  0  0  0  0
  1  2  1  0
  2  3  2  0
  3  4  1  0
  4  5  2  0
  5  6  1  0
  6  7  2  0
  6  8  2  0
  6  9  1  0
  9 10  1  0
 10 11  2  0
 11 12  1  0
 12 13  2  0
 13 14  1  0
 13 15  1  0
 15 16  1  0
 16 17  2  0
 17 18  1  0
 18 19  1  0
 19 20  1  0
 20 21  2  0
 21 22  1  0
 22 23  2  0
 23 24  1  0
 24 25  2  0
 18 26  2  0
 26 27  1  0
 27 28  2  0
 28 29  1  0
 29 30  1  0
 30 31  1  0
 30 32  2  0
 30 33  2  0
 15 34  2  0
  5 35  1  0
 35 36  2  0
 36  2  1  0
 34 10  1  0
 28 16  1  0
 25 20  1  0
  1 37  1  0
  1 38  1  0
  1 39  1  0
  3 40  1  0
  4 41  1  0
 11 42  1  0
 12 43  1  0
 14 44  1  0
 17 45  1  0
 19 46  1  0
 19 47  1  0
 21 48  1  0
 22 49  1  0
 24 50  1  0
 25 51  1  0
 26 52  1  0
 27 53  1  0
 31 54  1  0
 31 55  1  0
 31 56  1  0
 34 57  1  0
 35 58  1  0
 36 59  1  0
M  CHG  2   9  -1  29  -1
M  END
>  <UniqueID>  (50) 
46

>  <SMILES>  (50) 
Cc1ccc(S(=O)(=O)[N-]c2ccc(O)c(-c3cc(Cc4ccncc4)ccc3[N-]S(C)(=O)=O)c2)cc1

>  <Energy>  (50) 
74.08649978021505

>  <Genealogy>  (50) 
Cc1ccc(S(=O)(=O)[N-]c2ccc(O)c(-c3cc(Cc4ccncc4)ccc3[N-]S(C)(=O)=O)c2)cc1 (protonated)
Cc1ccc(S(=O)(=O)[N-]c2ccc(O)c(-c3cc(Cc4ccncc4)ccc3[N-]S(C)(=O)=O)c2)cc1 (3D coordinates assigned)
Cc1ccc(S(=O)(=O)[N-]c2ccc(O)c(-c3cc(Cc4ccncc4)ccc3[N-]S(C)(=O)=O)c2)cc1 (optimized conformer: 74.08649978021505 kcal/mol)

>  <smiles>  (50) 
Cc1ccc(S(=O)(=O)Nc2ccc(O)c(-c3cc(Cc4ccncc4)ccc3NS(C)(=O)=O)c2)cc1

>  <score_type>  (50) 
oracle

>  <origin>  (50) 
adg

>  <m_score__min__energy>  (50) 
-13.31

>  <m_primary>  (50) 
energy

$$$$
50:0
     RDKit          3D

 54 56  0  0  0  0  0  0  0  0999 V2000
   65.4390   32.3450   50.3300 C   0  0  0  0  0  0  0  0  0  0  0  0
   65.1070   33.2350   49.2750 O   0  0  0  0  0  0  0  0  0  0  0  0
   63.8290   33.3500   48.7070 C   0  0  0  0  0  0  0  0  0  0  0  0
   63.6010   33.1770   47.3300 C   0  0  0  0  0  0  0  0  0  0  0  0
   62.3080   33.2750   46.8110 C   0  0  0  0  0  0  0  0  0  0  0  0
   61.2240   33.5670   47.6550 C   0  0  0  0  0  0  0  0  0  0  0  0
   59.8870   33.6830   47.1540 N   0  0  0  0  0  0  0  0  0  0  0  0
   58.6680   32.4540   47.2760 S   0  0  0  0  0  0  0  0  0  0  0  0
   57.4020   33.0890   47.7810 O   0  0  0  0  0  0  0  0  0  0  0  0
   58.4130   31.8860   45.9080 O   0  0  0  0  0  0  0  0  0  0  0  0
   59.1610   31.1450   48.3490 C   0  0  0  0  0  0  0  0  0  0  0  0
   59.5920   29.9220   47.8180 C   0  0  0  0  0  0  0  0  0  0  0  0
   60.0270   28.9040   48.6720 C   0  0  0  0  0  0  0  0  0  0  0  0
   60.0490   29.1060   50.0550 C   0  0  0  0  0  0  0  0  0  0  0  0
   59.6320   30.3320   50.5940 C   0  0  0  0  0  0  0  0  0  0  0  0
   59.6940   30.5840   52.0450 C   0  0  0  0  0  0  0  0  0  0  0  0
   59.4900   31.7510   52.4640 O   0  0  0  0  0  0  0  0  0  0  0  0
   60.0360   29.5610   52.9920 N   0  0  0  0  0  0  0  0  0  0  0  0
   59.1020   28.7600   53.7790 C   0  0  0  0  0  0  0  0  0  0  0  0
   57.6980   28.9500   53.2920 C   0  0  0  0  0  0  0  0  0  0  0  0
   56.9630   27.9440   53.1210 O   0  0  0  0  0  0  0  0  0  0  0  0
   57.1860   30.2640   53.0440 N   0  0  0  0  0  0  0  0  0  0  0  0
   55.7790   30.5310   52.9670 C   0  0  0  0  0  0  0  0  0  0  0  0
   54.9550   30.2750   54.0650 C   0  0  0  0  0  0  0  0  0  0  0  0
   53.5890   30.5620   54.0070 C   0  0  0  0  0  0  0  0  0  0  0  0
   53.0280   31.0810   52.8330 C   0  0  0  0  0  0  0  0  0  0  0  0
   51.3110   31.4560   52.7700 S   0  0  0  0  0  0  0  0  0  0  0  0
   51.0290   32.6870   51.5900 N   0  0  0  0  0  0  0  0  0  0  0  0
   50.8580   31.9380   54.1180 O   0  0  0  0  0  0  0  0  0  0  0  0
   50.5260   30.2320   52.3930 O   0  0  0  0  0  0  0  0  0  0  0  0
   53.8420   31.2870   51.7120 C   0  0  0  0  0  0  0  0  0  0  0  0
   55.2100   31.0150   51.7820 C   0  0  0  0  0  0  0  0  0  0  0  0
   59.1600   31.3370   49.7380 C   0  0  0  0  0  0  0  0  0  0  0  0
   61.4550   33.7660   49.0230 C   0  0  0  0  0  0  0  0  0  0  0  0
   62.7460   33.6450   49.5480 C   0  0  0  0  0  0  0  0  0  0  0  0
   65.2554   32.8372   51.2964 H   0  0  0  0  0  0  0  0  0  0  0  0
   64.8179   31.4402   50.2555 H   0  0  0  0  0  0  0  0  0  0  0  0
   66.5009   32.0680   50.2555 H   0  0  0  0  0  0  0  0  0  0  0  0
   64.4454   32.9634   46.6582 H   0  0  0  0  0  0  0  0  0  0  0  0
   62.1377   33.1226   45.7350 H   0  0  0  0  0  0  0  0  0  0  0  0
   59.5881   29.7629   46.7296 H   0  0  0  0  0  0  0  0  0  0  0  0
   60.3532   27.9403   48.2539 H   0  0  0  0  0  0  0  0  0  0  0  0
   60.3940   28.3020   50.7218 H   0  0  0  0  0  0  0  0  0  0  0  0
   59.3740   27.6979   53.6903 H   0  0  0  0  0  0  0  0  0  0  0  0
   59.1581   29.0828   54.8291 H   0  0  0  0  0  0  0  0  0  0  0  0
   57.8560   31.0340   52.8260 H   0  0  0  0  0  0  0  0  0  0  0  0
   55.3844   29.8445   54.9817 H   0  0  0  0  0  0  0  0  0  0  0  0
   52.9524   30.3800   54.8854 H   0  0  0  0  0  0  0  0  0  0  0  0
   50.2830   32.3360   50.9500 H   0  0  0  0  0  0  0  0  0  0  0  0
   53.4035   31.6632   50.7759 H   0  0  0  0  0  0  0  0  0  0  0  0
   55.8456   31.1821   50.8999 H   0  0  0  0  0  0  0  0  0  0  0  0
   58.7865   32.2822   50.1587 H   0  0  0  0  0  0  0  0  0  0  0  0
   60.6160   34.0189   49.6879 H   0  0  0  0  0  0  0  0  0  0  0  0
   62.9127   33.7820   50.6266 H   0  0  0  0  0  0  0  0  0  0  0  0
  1  2  1  0
  2  3  1  0
  3  4  2  0
  4  5  1  0
  5  6  2  0
  6  7  1  0
  7  8  1  0
  8  9  2  0
  8 10  2  0
  8 11  1  0
 11 12  2  0
 12 13  1  0
 13 14  2  0
 14 15  1  0
 15 16  1  0
 16 17  2  0
 16 18  1  0
 18 19  1  0
 19 20  1  0
 20 21  2  0
 20 22  1  0
 22 23  1  0
 23 24  2  0
 24 25  1  0
 25 26  2  0
 26 27  1  0
 27 28  1  0
 27 29  2  0
 27 30  2  0
 26 31  1  0
 31 32  2  0
 15 33  2  0
  6 34  1  0
 34 35  2  0
 35  3  1  0
 33 11  1  0
 32 23  1  0
  1 36  1  0
  1 37  1  0
  1 38  1  0
  4 39  1  0
  5 40  1  0
 12 41  1  0
 13 42  1  0
 14 43  1  0
 19 44  1  0
 19 45  1  0
 22 46  1  0
 24 47  1  0
 25 48  1  0
 28 49  1  0
 31 50  1  0
 32 51  1  0
 33 52  1  0
 34 53  1  0
 35 54  1  0
M  CHG  3   7  -1  18  -1  28  -1
M  END
>  <UniqueID>  (51) 
47

>  <SMILES>  (51) 
COc1ccc([N-]S(=O)(=O)c2cccc(C(=O)[N-]CC(=O)Nc3ccc(S([NH-])(=O)=O)cc3)c2)cc1

>  <Energy>  (51) 
60.008412295298704

>  <Genealogy>  (51) 
COc1ccc([N-]S(=O)(=O)c2cccc(C(=O)[N-]CC(=O)Nc3ccc(S([NH-])(=O)=O)cc3)c2)cc1 (protonated)
COc1ccc([N-]S(=O)(=O)c2cccc(C(=O)[N-]CC(=O)Nc3ccc(S([NH-])(=O)=O)cc3)c2)cc1 (3D coordinates assigned)
COc1ccc([N-]S(=O)(=O)c2cccc(C(=O)[N-]CC(=O)Nc3ccc(S([NH-])(=O)=O)cc3)c2)cc1 (optimized conformer: 60.008412295298704 kcal/mol)

>  <smiles>  (51) 
COc1ccc(NS(=O)(=O)c2cccc(C(=O)NCC(=O)Nc3ccc(S(N)(=O)=O)cc3)c2)cc1

>  <score_type>  (51) 
oracle

>  <origin>  (51) 
adg

>  <m_score__min__energy>  (51) 
-13.720000000000001

>  <m_primary>  (51) 
energy

$$$$
51:0
     RDKit          3D

 66 68  0  0  0  0  0  0  0  0999 V2000
   59.6730   34.3410   49.3900 C   0  0  0  0  0  0  0  0  0  0  0  0
   58.8920   33.0230   49.3470 C   0  0  0  0  0  0  0  0  0  0  0  0
   59.2620   31.9630   50.4250 C   0  0  1  0  0  0  0  0  0  0  0  0
   58.1740   30.9150   50.7290 C   0  0  0  0  0  0  0  0  0  0  0  0
   60.5670   31.3190   50.1320 N   0  0  0  0  0  0  0  0  0  0  0  0
   60.7010   29.8840   50.1070 C   0  0  0  0  0  0  0  0  0  0  0  0
   60.8700   29.2590   51.1900 O   0  0  0  0  0  0  0  0  0  0  0  0
   60.6720   29.1150   48.8190 C   0  0  0  0  0  0  0  0  0  0  0  0
   59.4160   28.4620   48.6520 O   0  0  0  0  0  0  0  0  0  0  0  0
   59.2120   27.4050   47.7560 C   0  0  0  0  0  0  0  0  0  0  0  0
   59.4600   26.2200   48.1110 O   0  0  0  0  0  0  0  0  0  0  0  0
   58.7170   27.6890   46.3910 C   0  0  0  0  0  0  0  0  0  0  0  0
   58.9040   26.7620   45.3500 C   0  0  0  0  0  0  0  0  0  0  0  0
   58.4570   27.0510   44.0580 C   0  0  0  0  0  0  0  0  0  0  0  0
   57.8260   28.2670   43.7890 C   0  0  0  0  0  0  0  0  0  0  0  0
   57.6190   29.1960   44.8180 C   0  0  0  0  0  0  0  0  0  0  0  0
   56.8470   30.7440   44.4750 S   0  0  0  0  0  0  0  0  0  0  0  0
   57.3130   31.2450   43.1370 O   0  0  0  0  0  0  0  0  0  0  0  0
   55.3530   30.5900   44.4130 O   0  0  0  0  0  0  0  0  0  0  0  0
   57.3010   31.9020   45.6850 N   0  0  0  0  0  0  0  0  0  0  0  0
   58.6400   32.2770   46.0360 C   0  0  0  0  0  0  0  0  0  0  0  0
   59.0210   33.6150   45.8880 C   0  0  0  0  0  0  0  0  0  0  0  0
   60.3210   34.0230   46.2040 C   0  0  0  0  0  0  0  0  0  0  0  0
   61.2540   33.0960   46.6860 C   0  0  0  0  0  0  0  0  0  0  0  0
   62.8980   33.5920   47.0850 S   0  0  0  0  0  0  0  0  0  0  0  0
   63.9330   32.2070   47.1390 N   0  0  0  0  0  0  0  0  0  0  0  0
   62.8990   34.2800   48.4240 O   0  0  0  0  0  0  0  0  0  0  0  0
   63.4200   34.5480   46.0470 O   0  0  0  0  0  0  0  0  0  0  0  0
   60.8700   31.7630   46.8620 C   0  0  0  0  0  0  0  0  0  0  0  0
   59.5730   31.3540   46.5430 C   0  0  0  0  0  0  0  0  0  0  0  0
   58.0610   28.9000   46.1150 C   0  0  0  0  0  0  0  0  0  0  0  0
   61.8190   32.1080   50.1070 C   0  0  1  0  0  0  0  0  0  0  0  0
   62.0780   32.8660   51.4250 C   0  0  0  0  0  0  0  0  0  0  0  0
   63.5280   33.3410   51.4050 C   0  0  0  0  0  0  0  0  0  0  0  0
   64.4080   32.0820   50.5270 S   0  0  0  0  0  0  0  0  0  0  0  0
   65.3380   32.6660   49.5020 O   0  0  0  0  0  0  0  0  0  0  0  0
   65.1540   31.1770   51.4660 O   0  0  0  0  0  0  0  0  0  0  0  0
   63.0440   31.2450   49.7730 C   0  0  0  0  0  0  0  0  0  0  0  0
   59.8450   34.6313   50.4370 H   0  0  0  0  0  0  0  0  0  0  0  0
   60.6399   34.2110   48.8819 H   0  0  0  0  0  0  0  0  0  0  0  0
   59.0946   35.1267   48.8819 H   0  0  0  0  0  0  0  0  0  0  0  0
   57.8249   33.2624   49.4657 H   0  0  0  0  0  0  0  0  0  0  0  0
   59.1512   32.5614   48.3828 H   0  0  0  0  0  0  0  0  0  0  0  0
   59.3488   32.5442   51.3549 H   0  0  0  0  0  0  0  0  0  0  0  0
   58.0625   30.8076   51.8180 H   0  0  0  0  0  0  0  0  0  0  0  0
   57.2183   31.2415   50.2930 H   0  0  0  0  0  0  0  0  0  0  0  0
   58.4645   29.9478   50.2930 H   0  0  0  0  0  0  0  0  0  0  0  0
   60.8331   29.8084   47.9804 H   0  0  0  0  0  0  0  0  0  0  0  0
   61.4664   28.3545   48.8424 H   0  0  0  0  0  0  0  0  0  0  0  0
   59.4049   25.8042   45.5540 H   0  0  0  0  0  0  0  0  0  0  0  0
   58.6027   26.3183   43.2506 H   0  0  0  0  0  0  0  0  0  0  0  0
   57.4904   28.4966   42.7669 H   0  0  0  0  0  0  0  0  0  0  0  0
   58.2922   34.3522   45.5201 H   0  0  0  0  0  0  0  0  0  0  0  0
   60.6118   35.0758   46.0735 H   0  0  0  0  0  0  0  0  0  0  0  0
   64.5320   32.3060   47.9900 H   0  0  0  0  0  0  0  0  0  0  0  0
   64.5690   32.2640   46.3130 H   0  0  0  0  0  0  0  0  0  0  0  0
   61.5932   31.0325   47.2538 H   0  0  0  0  0  0  0  0  0  0  0  0
   59.2794   30.3040   46.6891 H   0  0  0  0  0  0  0  0  0  0  0  0
   57.8922   29.6242   46.9256 H   0  0  0  0  0  0  0  0  0  0  0  0
   61.6721   32.8475   49.3061 H   0  0  0  0  0  0  0  0  0  0  0  0
   61.4011   33.7298   51.5005 H   0  0  0  0  0  0  0  0  0  0  0  0
   61.8973   32.2110   52.2900 H   0  0  0  0  0  0  0  0  0  0  0  0
   63.6118   34.3064   50.8844 H   0  0  0  0  0  0  0  0  0  0  0  0
   63.9271   33.4949   52.4184 H   0  0  0  0  0  0  0  0  0  0  0  0
   63.1850   31.1777   48.6841 H   0  0  0  0  0  0  0  0  0  0  0  0
   62.9367   30.2134   50.1395 H   0  0  0  0  0  0  0  0  0  0  0  0
  1  2  1  0
  2  3  1  0
  3  4  1  0
  3  5  1  0
  5  6  1  0
  6  7  2  0
  6  8  1  0
  8  9  1  0
  9 10  1  0
 10 11  2  0
 10 12  1  0
 12 13  2  0
 13 14  1  0
 14 15  2  0
 15 16  1  0
 16 17  1  0
 17 18  2  0
 17 19  2  0
 17 20  1  0
 20 21  1  0
 21 22  2  0
 22 23  1  0
 23 24  2  0
 24 25  1  0
 25 26  1  0
 25 27  2  0
 25 28  2  0
 24 29  1  0
 29 30  2  0
 16 31  2  0
  5 32  1  0
 32 33  1  0
 33 34  1  0
 34 35  1  0
 35 36  2  0
 35 37  2  0
 35 38  1  0
 31 12  1  0
 38 32  1  0
 30 21  1  0
  1 39  1  0
  1 40  1  0
  1 41  1  0
  2 42  1  0
  2 43  1  0
  3 44  1  1
  4 45  1  0
  4 46  1  0
  4 47  1  0
  8 48  1  0
  8 49  1  0
 13 50  1  0
 14 51  1  0
 15 52  1  0
 22 53  1  0
 23 54  1  0
 26 55  1  0
 26 56  1  0
 29 57  1  0
 30 58  1  0
 31 59  1  0
 32 60  1  6
 33 61  1  0
 33 62  1  0
 34 63  1  0
 34 64  1  0
 38 65  1  0
 38 66  1  0
M  CHG  1  20  -1
M  END
>  <UniqueID>  (52) 
48

>  <SMILES>  (52) 
CC[C@@H](C)N(C(=O)COC(=O)c1cccc(S(=O)(=O)[N-]c2ccc(S(N)(=O)=O)cc2)c1)[C@H]1CCS(=O)(=O)C1

>  <Energy>  (52) 
72.71041473611079

>  <Genealogy>  (52) 
CCC(C)N(C(=O)COC(=O)c1cccc(S(=O)(=O)[N-]c2ccc(S(N)(=O)=O)cc2)c1)C1CCS(=O)(=O)C1 (protonated)
CC[C@@H](C)N(C(=O)COC(=O)c1cccc(S(=O)(=O)[N-]c2ccc(S(N)(=O)=O)cc2)c1)[C@H]1CCS(=O)(=O)C1 (chirality)
CC[C@@H](C)N(C(=O)COC(=O)c1cccc(S(=O)(=O)[N-]c2ccc(S(N)(=O)=O)cc2)c1)[C@H]1CCS(=O)(=O)C1 (3D coordinates assigned)
CC[C@@H](C)N(C(=O)COC(=O)c1cccc(S(=O)(=O)[N-]c2ccc(S(N)(=O)=O)cc2)c1)[C@H]1CCS(=O)(=O)C1 (nonaromatic ring conformer: 72.71041473611079 kcal/mol)

>  <smiles>  (52) 
CCC(C)N(C(=O)COC(=O)c1cccc(S(=O)(=O)Nc2ccc(S(N)(=O)=O)cc2)c1)C1CCS(=O)(=O)C1

>  <score_type>  (52) 
oracle

>  <origin>  (52) 
adg

>  <m_score__min__energy>  (52) 
-12.07

>  <m_primary>  (52) 
energy

$$$$
52:0
     RDKit          3D

 51 55  0  0  0  0  0  0  0  0999 V2000
   55.4900   29.7130   43.3350 O   0  0  0  0  0  0  0  0  0  0  0  0
   56.3990   30.2210   44.0360 C   0  0  0  0  0  0  0  0  0  0  0  0
   56.3070   31.4880   44.4980 N   0  0  0  0  0  0  0  0  0  0  0  0
   57.3300   31.9530   45.2430 C   0  0  0  0  0  0  0  0  0  0  0  0
   57.3040   33.3380   45.7880 C   0  0  0  0  0  0  0  0  0  0  0  0
   58.2050   33.3650   46.9270 N   0  0  0  0  0  0  0  0  0  0  0  0
   58.2070   32.4490   47.9020 N   0  0  0  0  0  0  0  0  0  0  0  0
   59.1600   32.7750   48.7950 C   0  0  0  0  0  0  0  0  0  0  0  0
   59.4290   31.9800   49.9880 C   0  0  0  0  0  0  0  0  0  0  0  0
   58.9480   32.3080   51.2400 C   0  0  0  0  0  0  0  0  0  0  0  0
   59.2820   31.4590   52.2840 C   0  0  0  0  0  0  0  0  0  0  0  0
   60.0580   30.3330   52.1100 C   0  0  0  0  0  0  0  0  0  0  0  0
   60.4010   29.4730   53.1460 O   0  0  0  0  0  0  0  0  0  0  0  0
   60.5430   30.0020   50.8480 C   0  0  0  0  0  0  0  0  0  0  0  0
   60.2050   30.8480   49.8230 C   0  0  0  0  0  0  0  0  0  0  0  0
   59.7760   33.9030   48.3960 N   0  0  0  0  0  0  0  0  0  0  0  0
   60.8470   34.5910   49.0580 C   0  0  0  0  0  0  0  0  0  0  0  0
   62.1220   33.8240   49.0970 C   0  0  0  0  0  0  0  0  0  0  0  0
   62.8660   33.6640   50.2500 C   0  0  0  0  0  0  0  0  0  0  0  0
   64.0350   32.9290   50.1680 C   0  0  0  0  0  0  0  0  0  0  0  0
   64.4830   32.3580   48.9970 C   0  0  0  0  0  0  0  0  0  0  0  0
   63.7270   32.5280   47.8520 C   0  0  0  0  0  0  0  0  0  0  0  0
   62.5540   33.2570   47.9040 C   0  0  0  0  0  0  0  0  0  0  0  0
   59.1550   34.2380   47.2350 C   0  0  0  0  0  0  0  0  0  0  0  0
   59.4490   35.2480   46.5420 O   0  0  0  0  0  0  0  0  0  0  0  0
   58.4120   31.2030   45.5320 N   0  0  0  0  0  0  0  0  0  0  0  0
   58.5410   29.9320   45.0910 C   0  0  0  0  0  0  0  0  0  0  0  0
   59.6480   29.1620   45.3840 C   0  0  0  0  0  0  0  0  0  0  0  0
   59.7300   27.8650   44.9060 C   0  0  0  0  0  0  0  0  0  0  0  0
   58.7020   27.3620   44.1420 C   0  0  0  0  0  0  0  0  0  0  0  0
   57.5850   28.1390   43.8450 C   0  0  0  0  0  0  0  0  0  0  0  0
   57.4900   29.4410   44.3180 C   0  0  0  0  0  0  0  0  0  0  0  0
   57.6423   34.0514   45.0221 H   0  0  0  0  0  0  0  0  0  0  0  0
   56.2845   33.6219   46.0881 H   0  0  0  0  0  0  0  0  0  0  0  0
   58.3281   33.2021   51.4018 H   0  0  0  0  0  0  0  0  0  0  0  0
   58.9124   31.6937   53.2931 H   0  0  0  0  0  0  0  0  0  0  0  0
   60.1480   29.7960   54.0930 H   0  0  0  0  0  0  0  0  0  0  0  0
   61.1642   29.1095   50.6817 H   0  0  0  0  0  0  0  0  0  0  0  0
   60.5719   30.6126   48.8131 H   0  0  0  0  0  0  0  0  0  0  0  0
   61.0287   35.5388   48.5301 H   0  0  0  0  0  0  0  0  0  0  0  0
   60.5331   34.7428   50.1013 H   0  0  0  0  0  0  0  0  0  0  0  0
   62.5394   34.1068   51.2025 H   0  0  0  0  0  0  0  0  0  0  0  0
   64.6348   32.7942   51.0802 H   0  0  0  0  0  0  0  0  0  0  0  0
   65.4192   31.7810   48.9736 H   0  0  0  0  0  0  0  0  0  0  0  0
   64.0584   32.0840   46.9017 H   0  0  0  0  0  0  0  0  0  0  0  0
   61.9555   33.3899   46.9907 H   0  0  0  0  0  0  0  0  0  0  0  0
   59.1950   31.5700   46.1080 H   0  0  0  0  0  0  0  0  0  0  0  0
   60.4627   29.5772   45.9954 H   0  0  0  0  0  0  0  0  0  0  0  0
   60.6080   27.2431   45.1347 H   0  0  0  0  0  0  0  0  0  0  0  0
   58.7633   26.3321   43.7606 H   0  0  0  0  0  0  0  0  0  0  0  0
   56.7736   27.7190   43.2324 H   0  0  0  0  0  0  0  0  0  0  0  0
  1  2  2  0
  2  3  1  0
  3  4  2  0
  4  5  1  0
  5  6  1  0
  6  7  1  0
  7  8  2  0
  8  9  1  0
  9 10  2  0
 10 11  1  0
 11 12  2  0
 12 13  1  0
 12 14  1  0
 14 15  2  0
  8 16  1  0
 16 17  1  0
 17 18  1  0
 18 19  2  0
 19 20  1  0
 20 21  2  0
 21 22  1  0
 22 23  2  0
 16 24  1  0
 24 25  2  0
  4 26  1  0
 26 27  1  0
 27 28  2  0
 28 29  1  0
 29 30  2  0
 30 31  1  0
 31 32  2  0
 32  2  1  0
 24  6  1  0
 32 27  1  0
 15  9  1  0
 23 18  1  0
  5 33  1  0
  5 34  1  0
 10 35  1  0
 11 36  1  0
 13 37  1  0
 14 38  1  0
 15 39  1  0
 17 40  1  0
 17 41  1  0
 19 42  1  0
 20 43  1  0
 21 44  1  0
 22 45  1  0
 23 46  1  0
 26 47  1  0
 28 48  1  0
 29 49  1  0
 30 50  1  0
 31 51  1  0
M  END
>  <smiles>  (53) 
O=c1nc(Cn2nc(-c3ccc(O)cc3)n(Cc3ccccc3)c2=O)[nH]c2ccccc12

>  <score_type>  (53) 
oracle

>  <origin>  (53) 
adg

>  <m_score__min__energy>  (53) 
-8.75

>  <m_primary>  (53) 
energy

$$$$
53:0
     RDKit          3D

 37 39  0  0  0  0  0  0  0  0999 V2000
   55.1460   29.3470   44.9070 N   0  0  0  0  0  0  0  0  0  0  0  0
   56.7680   29.9350   44.8040 S   0  0  0  0  0  0  0  0  0  0  0  0
   57.4410   29.7580   46.1360 O   0  0  0  0  0  0  0  0  0  0  0  0
   57.5310   29.1670   43.7610 O   0  0  0  0  0  0  0  0  0  0  0  0
   56.7550   31.6200   44.3990 N   0  0  0  0  0  0  0  0  0  0  0  0
   57.5510   32.6290   45.0350 C   0  0  0  0  0  0  0  0  0  0  0  0
   57.9760   33.7870   44.3550 C   0  0  0  0  0  0  0  0  0  0  0  0
   58.7500   34.7450   45.0170 C   0  0  0  0  0  0  0  0  0  0  0  0
   59.1090   34.5580   46.3540 C   0  0  0  0  0  0  0  0  0  0  0  0
   58.6980   33.4060   47.0330 C   0  0  0  0  0  0  0  0  0  0  0  0
   59.1650   33.1550   48.7450 S   0  0  0  0  0  0  0  0  0  0  0  0
   60.8580   32.7340   48.3210 C   0  0  0  0  0  0  0  0  0  0  0  0
   61.8360   33.6560   48.5360 N   0  0  0  0  0  0  0  0  0  0  0  0
   63.1360   33.4100   48.2220 C   0  0  0  0  0  0  0  0  0  0  0  0
   63.4990   32.1880   47.6520 C   0  0  0  0  0  0  0  0  0  0  0  0
   62.5180   31.2240   47.4200 C   0  0  0  0  0  0  0  0  0  0  0  0
   61.1900   31.4780   47.7780 C   0  0  0  0  0  0  0  0  0  0  0  0
   60.1820   30.5040   47.4820 N   0  0  0  0  0  0  0  0  0  0  0  0
   60.2400   29.2010   47.5650 C   0  0  0  0  0  0  0  0  0  0  0  0
   60.3650   28.3290   46.4440 C   0  0  0  0  0  0  0  0  0  0  0  0
   60.3200   28.8380   44.7560 Cl  0  0  0  0  0  0  0  0  0  0  0  0
   60.4580   26.9500   46.6650 C   0  0  0  0  0  0  0  0  0  0  0  0
   60.4110   26.4440   47.9220 N   0  0  0  0  0  0  0  0  0  0  0  0
   60.2670   27.2460   49.0060 C   0  0  0  0  0  0  0  0  0  0  0  0
   60.1710   28.6300   48.8500 C   0  0  0  0  0  0  0  0  0  0  0  0
   59.9830   29.6290   50.2880 Cl  0  0  0  0  0  0  0  0  0  0  0  0
   57.9140   32.4510   46.3750 C   0  0  0  0  0  0  0  0  0  0  0  0
   55.1360   28.6070   45.6440 H   0  0  0  0  0  0  0  0  0  0  0  0
   57.6985   33.9379   43.3013 H   0  0  0  0  0  0  0  0  0  0  0  0
   59.0774   35.6492   44.4830 H   0  0  0  0  0  0  0  0  0  0  0  0
   59.7144   35.3160   46.8725 H   0  0  0  0  0  0  0  0  0  0  0  0
   63.9025   34.1744   48.4172 H   0  0  0  0  0  0  0  0  0  0  0  0
   64.5480   31.9877   47.3886 H   0  0  0  0  0  0  0  0  0  0  0  0
   62.7887   30.2643   46.9556 H   0  0  0  0  0  0  0  0  0  0  0  0
   60.5706   26.2687   45.8087 H   0  0  0  0  0  0  0  0  0  0  0  0
   60.2257   26.8042   50.0125 H   0  0  0  0  0  0  0  0  0  0  0  0
   57.5804   31.5530   46.9157 H   0  0  0  0  0  0  0  0  0  0  0  0
  1  2  1  0
  2  3  2  0
  2  4  2  0
  2  5  1  0
  5  6  1  0
  6  7  2  0
  7  8  1  0
  8  9  2  0
  9 10  1  0
 10 11  1  0
 11 12  1  0
 12 13  2  0
 13 14  1  0
 14 15  2  0
 15 16  1  0
 16 17  2  0
 17 18  1  0
 18 19  2  3
 19 20  1  0
 20 21  1  0
 20 22  2  0
 22 23  1  0
 23 24  1  0
 24 25  2  0
 25 26  1  0
 10 27  2  0
 27  6  1  0
 17 12  1  0
 25 19  1  0
  1 28  1  0
  7 29  1  0
  8 30  1  0
  9 31  1  0
 14 32  1  0
 15 33  1  0
 16 34  1  0
 22 35  1  0
 24 36  1  0
 27 37  1  0
M  CHG  3   1  -1   5  -1  23  -1
M  END
>  <UniqueID>  (54) 
49

>  <SMILES>  (54) 
[NH-]S(=O)(=O)[N-]c1cccc(Sc2ncccc2N=c2c(Cl)c[n-]cc2Cl)c1

>  <Energy>  (54) 
54.535686809533416

>  <Genealogy>  (54) 
[NH-]S(=O)(=O)[N-]c1cccc(Sc2ncccc2N=c2c(Cl)c[n-]cc2Cl)c1 (protonated)
[NH-]S(=O)(=O)[N-]c1cccc(Sc2ncccc2N=c2c(Cl)c[n-]cc2Cl)c1 (3D coordinates assigned)
[NH-]S(=O)(=O)[N-]c1cccc(Sc2ncccc2N=c2c(Cl)c[n-]cc2Cl)c1 (optimized conformer: 54.535686809533416 kcal/mol)

>  <smiles>  (54) 
NS(=O)(=O)Nc1cccc(Sc2ncccc2N=c2c(Cl)c[nH]cc2Cl)c1

>  <score_type>  (54) 
oracle

>  <origin>  (54) 
adg

>  <m_score__min__energy>  (54) 
-14.08

>  <m_primary>  (54) 
energy

$$$$
54:0
     RDKit          3D

 87 88  0  0  0  0  0  0  0  0999 V2000
   63.5770   32.7050   48.6860 C   0  0  0  0  0  0  0  0  0  0  0  0
   63.2280   32.5960   47.2030 C   0  0  0  0  0  0  0  0  0  0  0  0
   62.4790   33.8430   46.7150 C   0  0  0  0  0  0  0  0  0  0  0  0
   61.0380   33.4940   46.3130 C   0  0  0  0  0  0  0  0  0  0  0  0
   60.0630   34.6560   46.5570 C   0  0  0  0  0  0  0  0  0  0  0  0
   58.5950   34.2350   46.3910 C   0  0  0  0  0  0  0  0  0  0  0  0
   58.1910   34.2080   44.9120 C   0  0  0  0  0  0  0  0  0  0  0  0
   58.3290   32.7960   44.3340 C   0  0  0  0  0  0  0  0  0  0  0  0
   57.4790   31.7830   45.1130 C   0  0  0  0  0  0  0  0  0  0  0  0
   56.6870   30.8910   44.1470 C   0  0  0  0  0  0  0  0  0  0  0  0
   56.9230   29.3840   44.3970 C   0  0  0  0  0  0  0  0  0  0  0  0
   57.2780   28.5910   43.1200 C   0  0  0  0  0  0  0  0  0  0  0  0
   58.1890   27.3710   43.3630 C   0  0  0  0  0  0  0  0  0  0  0  0
   57.7700   26.0830   42.6170 C   0  0  0  0  0  0  0  0  0  0  0  0
   57.2480   24.9370   43.5080 C   0  0  0  0  0  0  0  0  0  0  0  0
   56.6800   23.7570   42.7010 C   0  0  0  0  0  0  0  0  0  0  0  0
   55.8570   22.8160   43.5940 C   0  0  0  0  0  0  0  0  0  0  0  0
   54.6630   23.5280   44.2500 C   0  0  0  0  0  0  0  0  0  0  0  0
   54.8650   23.7060   45.7380 C   0  0  0  0  0  0  0  0  0  0  0  0
   55.9470   23.3170   46.4280 C   0  0  0  0  0  0  0  0  0  0  0  0
   57.3000   23.9030   46.2880 C   0  0  0  0  0  0  0  0  0  0  0  0
   58.3630   23.0880   45.8880 C   0  0  0  0  0  0  0  0  0  0  0  0
   58.1480   21.7480   45.5750 O   0  0  0  0  0  0  0  0  0  0  0  0
   59.6110   23.6080   45.7920 N   0  0  0  0  0  0  0  0  0  0  0  0
   59.8650   24.9060   46.0840 C   0  0  0  0  0  0  0  0  0  0  0  0
   61.0490   25.3330   45.9880 O   0  0  0  0  0  0  0  0  0  0  0  0
   58.8500   25.7360   46.4900 N   0  0  0  0  0  0  0  0  0  0  0  0
   59.1310   27.1190   46.7950 C   0  0  0  0  0  0  0  0  0  0  0  0
   58.6750   27.6850   47.9970 C   0  0  0  0  0  0  0  0  0  0  0  0
   58.8960   29.0360   48.2770 C   0  0  0  0  0  0  0  0  0  0  0  0
   59.5880   29.8450   47.3550 C   0  0  0  0  0  0  0  0  0  0  0  0
   59.8220   31.2140   47.5690 O   0  0  0  0  0  0  0  0  0  0  0  0
   59.9450   31.8440   48.8460 C   0  0  0  0  0  0  0  0  0  0  0  0
   58.5920   32.3490   49.3350 C   0  0  0  0  0  0  0  0  0  0  0  0
   60.0580   29.2730   46.1650 C   0  0  0  0  0  0  0  0  0  0  0  0
   59.8300   27.9230   45.8830 C   0  0  0  0  0  0  0  0  0  0  0  0
   57.5750   25.2420   46.6200 C   0  0  0  0  0  0  0  0  0  0  0  0
   56.6450   25.9860   47.0390 O   0  0  0  0  0  0  0  0  0  0  0  0
   62.6996   32.4310   49.2903 H   0  0  0  0  0  0  0  0  0  0  0  0
   64.4091   32.0240   48.9179 H   0  0  0  0  0  0  0  0  0  0  0  0
   63.8736   33.7386   48.9179 H   0  0  0  0  0  0  0  0  0  0  0  0
   64.1563   32.4855   46.6233 H   0  0  0  0  0  0  0  0  0  0  0  0
   62.5759   31.7213   47.0625 H   0  0  0  0  0  0  0  0  0  0  0  0
   62.4569   34.5892   47.5229 H   0  0  0  0  0  0  0  0  0  0  0  0
   63.0020   34.2454   45.8349 H   0  0  0  0  0  0  0  0  0  0  0  0
   61.0220   33.2384   45.2432 H   0  0  0  0  0  0  0  0  0  0  0  0
   60.7124   32.6473   46.9352 H   0  0  0  0  0  0  0  0  0  0  0  0
   60.2092   35.0305   47.5809 H   0  0  0  0  0  0  0  0  0  0  0  0
   60.2750   35.4338   45.8086 H   0  0  0  0  0  0  0  0  0  0  0  0
   58.4589   33.2307   46.8187 H   0  0  0  0  0  0  0  0  0  0  0  0
   57.9610   34.9672   46.9125 H   0  0  0  0  0  0  0  0  0  0  0  0
   57.1449   34.5350   44.8182 H   0  0  0  0  0  0  0  0  0  0  0  0
   58.8558   34.8833   44.3534 H   0  0  0  0  0  0  0  0  0  0  0  0
   58.0003   32.8059   43.2843 H   0  0  0  0  0  0  0  0  0  0  0  0
   59.3836   32.4932   44.4116 H   0  0  0  0  0  0  0  0  0  0  0  0
   58.1390   31.1538   45.7283 H   0  0  0  0  0  0  0  0  0  0  0  0
   56.7716   32.3299   45.7536 H   0  0  0  0  0  0  0  0  0  0  0  0
   55.6149   31.1044   44.2698 H   0  0  0  0  0  0  0  0  0  0  0  0
   57.0326   31.1167   43.1274 H   0  0  0  0  0  0  0  0  0  0  0  0
   57.7503   29.2763   45.1139 H   0  0  0  0  0  0  0  0  0  0  0  0
   55.9788   28.9700   44.7805 H   0  0  0  0  0  0  0  0  0  0  0  0
   56.3421   28.2365   42.6634 H   0  0  0  0  0  0  0  0  0  0  0  0
   57.8385   29.2777   42.4686 H   0  0  0  0  0  0  0  0  0  0  0  0
   59.2069   27.6359   43.0411 H   0  0  0  0  0  0  0  0  0  0  0  0
   58.1158   27.1419   44.4364 H   0  0  0  0  0  0  0  0  0  0  0  0
   56.9742   26.3478   41.9052 H   0  0  0  0  0  0  0  0  0  0  0  0
   58.6843   25.7006   42.1396 H   0  0  0  0  0  0  0  0  0  0  0  0
   58.0787   24.5694   44.1283 H   0  0  0  0  0  0  0  0  0  0  0  0
   56.4274   25.3429   44.1178 H   0  0  0  0  0  0  0  0  0  0  0  0
   56.0342   24.1477   41.9008 H   0  0  0  0  0  0  0  0  0  0  0  0
   57.5212   23.1879   42.2785 H   0  0  0  0  0  0  0  0  0  0  0  0
   55.4792   21.9858   42.9791 H   0  0  0  0  0  0  0  0  0  0  0  0
   56.5154   22.4545   44.3976 H   0  0  0  0  0  0  0  0  0  0  0  0
   54.5398   24.5178   43.7863 H   0  0  0  0  0  0  0  0  0  0  0  0
   53.7681   22.9066   44.0979 H   0  0  0  0  0  0  0  0  0  0  0  0
   54.0569   24.1954   46.3014 H   0  0  0  0  0  0  0  0  0  0  0  0
   55.8200   22.5001   47.1536 H   0  0  0  0  0  0  0  0  0  0  0  0
   58.9130   21.1540   45.2730 H   0  0  0  0  0  0  0  0  0  0  0  0
   58.1387   27.0586   48.7250 H   0  0  0  0  0  0  0  0  0  0  0  0
   58.5288   29.4685   49.2194 H   0  0  0  0  0  0  0  0  0  0  0  0
   60.3412   31.1167   49.5699 H   0  0  0  0  0  0  0  0  0  0  0  0
   60.6273   32.7016   48.7510 H   0  0  0  0  0  0  0  0  0  0  0  0
   58.5782   32.3541   50.4349 H   0  0  0  0  0  0  0  0  0  0  0  0
   58.4249   33.3700   48.9614 H   0  0  0  0  0  0  0  0  0  0  0  0
   57.7968   31.6872   48.9614 H   0  0  0  0  0  0  0  0  0  0  0  0
   60.6123   29.8931   45.4451 H   0  0  0  0  0  0  0  0  0  0  0  0
   60.2003   27.4897   44.9422 H   0  0  0  0  0  0  0  0  0  0  0  0
  1  2  1  0
  2  3  1  0
  3  4  1  0
  4  5  1  0
  5  6  1  0
  6  7  1  0
  7  8  1  0
  8  9  1  0
  9 10  1  0
 10 11  1  0
 11 12  1  0
 12 13  1  0
 13 14  1  0
 14 15  1  0
 15 16  1  0
 16 17  1  0
 17 18  1  0
 18 19  1  0
 19 20  2  3
 20 21  1  0
 21 22  2  0
 22 23  1  0
 22 24  1  0
 24 25  1  0
 25 26  2  0
 25 27  1  0
 27 28  1  0
 28 29  2  0
 29 30  1  0
 30 31  2  0
 31 32  1  0
 32 33  1  0
 33 34  1  0
 31 35  1  0
 35 36  2  0
 27 37  1  0
 37 38  2  0
 37 21  1  0
 36 28  1  0
  1 39  1  0
  1 40  1  0
  1 41  1  0
  2 42  1  0
  2 43  1  0
  3 44  1  0
  3 45  1  0
  4 46  1  0
  4 47  1  0
  5 48  1  0
  5 49  1  0
  6 50  1  0
  6 51  1  0
  7 52  1  0
  7 53  1  0
  8 54  1  0
  8 55  1  0
  9 56  1  0
  9 57  1  0
 10 58  1  0
 10 59  1  0
 11 60  1  0
 11 61  1  0
 12 62  1  0
 12 63  1  0
 13 64  1  0
 13 65  1  0
 14 66  1  0
 14 67  1  0
 15 68  1  0
 15 69  1  0
 16 70  1  0
 16 71  1  0
 17 72  1  0
 17 73  1  0
 18 74  1  0
 18 75  1  0
 19 76  1  0
 20 77  1  0
 23 78  1  0
 29 79  1  0
 30 80  1  0
 33 81  1  0
 33 82  1  0
 34 83  1  0
 34 84  1  0
 34 85  1  0
 35 86  1  0
 36 87  1  0
M  CHG  1  24  -1
M  END
>  <UniqueID>  (55) 
50

>  <SMILES>  (55) 
CCCCCCCCCCCCCCCCCCC=Cc1c(O)[n-]c(=O)n(-c2ccc(OCC)cc2)c1=O

>  <Energy>  (55) 
76.27330978884751

>  <Genealogy>  (55) 
CCCCCCCCCCCCCCCCCCC=Cc1c(O)[n-]c(=O)n(-c2ccc(OCC)cc2)c1=O (protonated)
CCCCCCCCCCCCCCCCCCC=Cc1c(O)[n-]c(=O)n(-c2ccc(OCC)cc2)c1=O (3D coordinates assigned)
CCCCCCCCCCCCCCCCCCC=Cc1c(O)[n-]c(=O)n(-c2ccc(OCC)cc2)c1=O (optimized conformer: 76.27330978884751 kcal/mol)

>  <smiles>  (55) 
CCCCCCCCCCCCCCCCCCC=Cc1c(O)[nH]c(=O)n(-c2ccc(OCC)cc2)c1=O

>  <score_type>  (55) 
oracle

>  <origin>  (55) 
adg

>  <m_score__min__energy>  (55) 
-9.7100000000000009

>  <m_primary>  (55) 
energy

$$$$
55:0
     RDKit          3D

 39 40  0  0  0  0  0  0  0  0999 V2000
   59.9750   35.6830   46.0100 C   0  0  0  0  0  0  0  0  0  0  0  0
   59.1620   34.7440   46.9080 C   0  0  0  0  0  0  0  0  0  0  0  0
   59.9750   34.3110   48.1340 C   0  0  0  0  0  0  0  0  0  0  0  0
   58.6630   33.5410   46.1310 C   0  0  0  0  0  0  0  0  0  0  0  0
   58.9950   32.2420   46.5560 C   0  0  0  0  0  0  0  0  0  0  0  0
   58.5390   31.1260   45.8490 C   0  0  0  0  0  0  0  0  0  0  0  0
   57.7520   31.2870   44.6990 C   0  0  0  0  0  0  0  0  0  0  0  0
   57.2300   30.0840   43.9620 C   0  0  0  0  0  0  0  0  0  0  0  0
   56.3930   29.2470   44.8740 C   0  0  0  0  0  0  0  0  0  0  0  0
   55.1370   29.3560   44.8480 O   0  0  0  0  0  0  0  0  0  0  0  0
   57.0270   28.3660   45.8070 N   0  0  0  0  0  0  0  0  0  0  0  0
   57.7120   27.1380   45.4190 C   0  0  0  0  0  0  0  0  0  0  0  0
   56.7250   26.0130   45.2730 C   0  0  0  0  0  0  0  0  0  0  0  0
   55.5250   26.0250   45.9980 C   0  0  0  0  0  0  0  0  0  0  0  0
   54.6440   24.9960   45.8820 N   0  0  0  0  0  0  0  0  0  0  0  0
   54.8900   23.9290   45.0760 C   0  0  0  0  0  0  0  0  0  0  0  0
   54.0440   22.9990   45.0000 O   0  0  0  0  0  0  0  0  0  0  0  0
   56.0800   23.8700   44.3370 C   0  0  0  0  0  0  0  0  0  0  0  0
   56.4320   22.5030   43.2900 Cl  0  0  0  0  0  0  0  0  0  0  0  0
   56.9980   24.9180   44.4410 C   0  0  0  0  0  0  0  0  0  0  0  0
   57.4060   32.5800   44.2780 C   0  0  0  0  0  0  0  0  0  0  0  0
   57.8610   33.6970   44.9840 C   0  0  0  0  0  0  0  0  0  0  0  0
   60.5672   36.3670   46.6356 H   0  0  0  0  0  0  0  0  0  0  0  0
   60.6496   35.0901   45.3749 H   0  0  0  0  0  0  0  0  0  0  0  0
   59.2916   36.2658   45.3749 H   0  0  0  0  0  0  0  0  0  0  0  0
   58.2833   35.3000   47.2668 H   0  0  0  0  0  0  0  0  0  0  0  0
   59.4376   34.5972   49.0501 H   0  0  0  0  0  0  0  0  0  0  0  0
   60.1131   33.2199   48.1157 H   0  0  0  0  0  0  0  0  0  0  0  0
   60.9575   34.8053   48.1157 H   0  0  0  0  0  0  0  0  0  0  0  0
   59.6183   32.1034   47.4517 H   0  0  0  0  0  0  0  0  0  0  0  0
   58.7988   30.1152   46.1964 H   0  0  0  0  0  0  0  0  0  0  0  0
   56.6189   30.4162   43.1098 H   0  0  0  0  0  0  0  0  0  0  0  0
   58.0797   29.4853   43.6021 H   0  0  0  0  0  0  0  0  0  0  0  0
   58.2256   27.2968   44.4593 H   0  0  0  0  0  0  0  0  0  0  0  0
   58.4421   26.8743   46.1984 H   0  0  0  0  0  0  0  0  0  0  0  0
   55.2954   26.8703   46.6633 H   0  0  0  0  0  0  0  0  0  0  0  0
   57.9369   24.8840   43.8689 H   0  0  0  0  0  0  0  0  0  0  0  0
   56.7737   32.7151   43.3881 H   0  0  0  0  0  0  0  0  0  0  0  0
   57.5904   34.7065   44.6409 H   0  0  0  0  0  0  0  0  0  0  0  0
  1  2  1  0
  2  3  1  0
  2  4  1  0
  4  5  2  0
  5  6  1  0
  6  7  2  0
  7  8  1  0
  8  9  1  0
  9 10  2  0
  9 11  1  0
 11 12  1  0
 12 13  1  0
 13 14  2  0
 14 15  1  0
 15 16  1  0
 16 17  2  0
 16 18  1  0
 18 19  1  0
 18 20  2  0
  7 21  1  0
 21 22  2  0
 22  4  1  0
 20 13  1  0
  1 23  1  0
  1 24  1  0
  1 25  1  0
  2 26  1  0
  3 27  1  0
  3 28  1  0
  3 29  1  0
  5 30  1  0
  6 31  1  0
  8 32  1  0
  8 33  1  0
 12 34  1  0
 12 35  1  0
 14 36  1  0
 20 37  1  0
 21 38  1  0
 22 39  1  0
M  CHG  2  11  -1  15  -1
M  END
>  <UniqueID>  (56) 
51

>  <SMILES>  (56) 
CC(C)c1ccc(CC(=O)[N-]Cc2c[n-]c(=O)c(Cl)c2)cc1

>  <Energy>  (56) 
32.48438375884392

>  <Genealogy>  (56) 
CC(C)c1ccc(CC(=O)[N-]Cc2c[n-]c(=O)c(Cl)c2)cc1 (protonated)
CC(C)c1ccc(CC(=O)[N-]Cc2c[n-]c(=O)c(Cl)c2)cc1 (3D coordinates assigned)
CC(C)c1ccc(CC(=O)[N-]Cc2c[n-]c(=O)c(Cl)c2)cc1 (optimized conformer: 32.48438375884392 kcal/mol)

>  <smiles>  (56) 
CC(C)c1ccc(CC(=O)NCc2c[nH]c(=O)c(Cl)c2)cc1

>  <score_type>  (56) 
oracle

>  <origin>  (56) 
adg

>  <m_score__min__energy>  (56) 
-11.970000000000001

>  <m_primary>  (56) 
energy

$$$$
56:0
     RDKit          3D

 22 22  0  0  0  0  0  0  0  0999 V2000
   57.5275   33.7685   43.6331 H   0  0  0  0  0  0  0  0  0  0  0  0
   58.2090   33.0500   44.1120 C   0  0  0  0  0  0  0  0  0  0  0  0
   58.3160   31.8680   43.5730 N   0  0  0  0  0  0  0  0  0  0  0  0
   57.8630   30.6380   44.1490 C   0  0  0  0  0  0  0  0  0  0  0  0
   56.4920   30.3830   44.2740 C   0  0  0  0  0  0  0  0  0  0  0  0
   55.7622   31.1185   43.9047 H   0  0  0  0  0  0  0  0  0  0  0  0
   56.0470   29.1980   44.8660 C   0  0  0  0  0  0  0  0  0  0  0  0
   54.9682   28.9987   44.9460 H   0  0  0  0  0  0  0  0  0  0  0  0
   56.9690   28.2590   45.3600 C   0  0  0  0  0  0  0  0  0  0  0  0
   56.4960   27.0040   45.9850 C   0  0  0  0  0  0  0  0  0  0  0  0
   57.3110   26.2080   46.5210 O   0  0  0  0  0  0  0  0  0  0  0  0
   55.1420   26.6870   45.9880 O   0  0  0  0  0  0  0  0  0  0  0  0
   58.3460   28.5360   45.2590 C   0  0  0  0  0  0  0  0  0  0  0  0
   59.0788   27.8141   45.6486 H   0  0  0  0  0  0  0  0  0  0  0  0
   58.7870   29.7220   44.6670 C   0  0  0  0  0  0  0  0  0  0  0  0
   59.8641   29.9372   44.6075 H   0  0  0  0  0  0  0  0  0  0  0  0
   58.9520   33.5060   45.3460 C   0  0  0  0  0  0  0  0  0  0  0  0
   59.8719   32.9057   45.4042 H   0  0  0  0  0  0  0  0  0  0  0  0
   58.1700   33.2670   46.5650 C   0  0  0  0  0  0  0  0  0  0  0  0
   57.5540   33.0830   47.5270 N   0  0  0  0  0  0  0  0  0  0  0  0
   59.3330   34.9190   45.2550 C   0  0  0  0  0  0  0  0  0  0  0  0
   59.6290   36.0360   45.1840 N   0  0  0  0  0  0  0  0  0  0  0  0
  1  2  1  0
  2  3  2  0
  3  4  1  0
  4  5  2  0
  5  6  1  0
  5  7  1  0
  7  8  1  0
  7  9  2  0
  9 10  1  0
 10 11  2  0
 10 12  1  0
  9 13  1  0
 13 14  1  0
 13 15  2  0
 15 16  1  0
  2 17  1  0
 17 18  1  0
 17 19  1  0
 19 20  3  0
 17 21  1  0
 21 22  3  0
 15  4  1  0
M  CHG  1  12  -1
M  END
>  <UniqueID>  (57) 
52

>  <SMILES>  (57) 
N#CC(C#N)/C=N\c1ccc(C(=O)[O-])cc1

>  <Energy>  (57) 
27.425801210105302

>  <Genealogy>  (57) 
N#CC(C#N)C=Nc1ccc(C(=O)[O-])cc1 (protonated)
N#CC(C#N)/C=N\c1ccc(C(=O)[O-])cc1 (cis-trans isomerization)
N#CC(C#N)/C=N\c1ccc(C(=O)[O-])cc1 (3D coordinates assigned)
N#CC(C#N)/C=N\c1ccc(C(=O)[O-])cc1 (optimized conformer: 27.425801210105302 kcal/mol)

>  <smiles>  (57) 
N#CC(C#N)C=Nc1ccc(C(=O)O)cc1

>  <score_type>  (57) 
oracle

>  <origin>  (57) 
adg

>  <m_score__min__energy>  (57) 
-8.3300000000000001

>  <m_primary>  (57) 
energy

$$$$
57:0
     RDKit          3D

 68 71  0  0  0  0  0  0  0  0999 V2000
   60.1860   33.3230   53.2020 C   0  0  0  0  0  0  0  0  0  0  0  0
   60.3040   33.4270   51.7200 C   0  0  0  0  0  0  0  0  0  0  0  0
   59.5080   34.1670   51.0820 O   0  0  0  0  0  0  0  0  0  0  0  0
   61.3230   32.7280   51.0590 O   0  0  0  0  0  0  0  0  0  0  0  0
   62.2810   31.9120   51.7340 C   0  0  2  0  0  0  0  0  0  0  0  0
   63.4890   31.6750   50.8200 C   0  0  0  0  0  0  0  0  0  0  0  0
   63.2530   32.2570   49.4520 C   0  0  0  0  0  0  0  0  0  0  0  0
   63.5550   33.6040   49.1900 C   0  0  0  0  0  0  0  0  0  0  0  0
   63.3650   34.1330   47.9090 C   0  0  0  0  0  0  0  0  0  0  0  0
   62.8830   33.3180   46.8800 C   0  0  0  0  0  0  0  0  0  0  0  0
   62.5910   31.9750   47.1300 C   0  0  0  0  0  0  0  0  0  0  0  0
   62.7780   31.4430   48.4090 C   0  0  0  0  0  0  0  0  0  0  0  0
   61.6700   30.5930   52.1090 C   0  0  0  0  0  0  0  0  0  0  0  0
   61.3600   30.3810   53.3110 O   0  0  0  0  0  0  0  0  0  0  0  0
   61.5120   29.5750   51.1090 N   0  0  0  0  0  0  0  0  0  0  0  0
   60.3310   29.2450   50.3030 C   0  0  2  0  0  0  0  0  0  0  0  0
   60.6470   28.2740   49.1420 C   0  0  0  0  0  0  0  0  0  0  0  0
   59.9030   28.5510   47.8580 C   0  0  0  0  0  0  0  0  0  0  0  0
   58.5710   28.1360   47.7030 C   0  0  0  0  0  0  0  0  0  0  0  0
   57.8930   28.3600   46.5010 C   0  0  0  0  0  0  0  0  0  0  0  0
   58.5350   29.0200   45.4360 C   0  0  0  0  0  0  0  0  0  0  0  0
   57.8740   29.2560   44.1800 N   0  0  0  0  0  0  0  0  0  0  0  0
   56.2790   29.9230   44.0330 S   0  0  0  0  0  0  0  0  0  0  0  0
   56.2700   31.3090   44.6170 O   0  0  0  0  0  0  0  0  0  0  0  0
   55.8890   30.0010   42.5850 O   0  0  0  0  0  0  0  0  0  0  0  0
   55.1850   28.9640   44.8730 O   0  0  0  0  0  0  0  0  0  0  0  0
   59.8520   29.4700   45.6090 C   0  0  0  0  0  0  0  0  0  0  0  0
   60.5280   29.2440   46.8100 C   0  0  0  0  0  0  0  0  0  0  0  0
   59.5580   30.4690   49.8790 C   0  0  0  0  0  0  0  0  0  0  0  0
   58.3880   30.9150   50.4490 C   0  0  0  0  0  0  0  0  0  0  0  0
   57.9470   31.9870   49.7680 N   0  0  0  0  0  0  0  0  0  0  0  0
   58.8650   32.1550   48.7900 C   0  0  0  0  0  0  0  0  0  0  0  0
   58.7830   33.2120   47.7590 C   0  0  0  0  0  0  0  0  0  0  0  0
   59.6920   34.1970   47.7150 C   0  0  0  0  0  0  0  0  0  0  0  0
   59.5870   35.2760   46.6810 C   0  0  0  0  0  0  0  0  0  0  0  0
   59.2350   34.6480   45.3340 C   0  0  0  0  0  0  0  0  0  0  0  0
   57.9260   33.8340   45.4100 C   0  0  0  0  0  0  0  0  0  0  0  0
   57.6030   33.2450   46.8070 C   0  0  0  0  0  0  0  0  0  0  0  0
   59.8570   31.2430   48.8240 N   0  0  0  0  0  0  0  0  0  0  0  0
   60.9307   33.9793   53.6761 H   0  0  0  0  0  0  0  0  0  0  0  0
   59.1763   33.6303   53.5119 H   0  0  0  0  0  0  0  0  0  0  0  0
   60.3640   32.2827   53.5119 H   0  0  0  0  0  0  0  0  0  0  0  0
   62.6052   32.4282   52.6496 H   0  0  0  0  0  0  0  0  0  0  0  0
   64.3755   32.1503   51.2651 H   0  0  0  0  0  0  0  0  0  0  0  0
   63.6435   30.5907   50.7176 H   0  0  0  0  0  0  0  0  0  0  0  0
   63.9424   34.2452   49.9955 H   0  0  0  0  0  0  0  0  0  0  0  0
   63.5948   35.1904   47.7111 H   0  0  0  0  0  0  0  0  0  0  0  0
   62.7337   33.7347   45.8730 H   0  0  0  0  0  0  0  0  0  0  0  0
   62.2133   31.3350   46.3190 H   0  0  0  0  0  0  0  0  0  0  0  0
   62.5526   30.3834   48.6001 H   0  0  0  0  0  0  0  0  0  0  0  0
   59.6514   28.6864   50.9634 H   0  0  0  0  0  0  0  0  0  0  0  0
   61.7250   28.3334   48.9313 H   0  0  0  0  0  0  0  0  0  0  0  0
   60.3216   27.2781   49.4771 H   0  0  0  0  0  0  0  0  0  0  0  0
   58.0567   27.6306   48.5337 H   0  0  0  0  0  0  0  0  0  0  0  0
   56.8534   28.0191   46.3869 H   0  0  0  0  0  0  0  0  0  0  0  0
   58.3400   28.9500   43.2960 H   0  0  0  0  0  0  0  0  0  0  0  0
   60.3569   30.0056   44.7916 H   0  0  0  0  0  0  0  0  0  0  0  0
   61.5571   29.6116   46.9353 H   0  0  0  0  0  0  0  0  0  0  0  0
   57.8925   30.4662   51.3225 H   0  0  0  0  0  0  0  0  0  0  0  0
   60.5181   34.2128   48.4411 H   0  0  0  0  0  0  0  0  0  0  0  0
   58.8010   35.9886   46.9714 H   0  0  0  0  0  0  0  0  0  0  0  0
   60.5472   35.8067   46.6017 H   0  0  0  0  0  0  0  0  0  0  0  0
   59.1151   35.4475   44.5881 H   0  0  0  0  0  0  0  0  0  0  0  0
   60.0488   33.9643   45.0506 H   0  0  0  0  0  0  0  0  0  0  0  0
   57.0960   34.4938   45.1173 H   0  0  0  0  0  0  0  0  0  0  0  0
   58.0580   32.9746   44.7362 H   0  0  0  0  0  0  0  0  0  0  0  0
   56.8096   33.8553   47.2630 H   0  0  0  0  0  0  0  0  0  0  0  0
   57.2995   32.2001   46.6455 H   0  0  0  0  0  0  0  0  0  0  0  0
  1  2  1  0
  2  3  2  0
  2  4  1  0
  4  5  1  0
  5  6  1  0
  6  7  1  0
  7  8  2  0
  8  9  1  0
  9 10  2  0
 10 11  1  0
 11 12  2  0
  5 13  1  0
 13 14  2  0
 13 15  1  0
 15 16  1  0
 16 17  1  0
 17 18  1  0
 18 19  2  0
 19 20  1  0
 20 21  2  0
 21 22  1  0
 22 23  1  0
 23 24  2  0
 23 25  2  0
 23 26  1  0
 21 27  1  0
 27 28  2  0
 16 29  1  0
 29 30  2  0
 30 31  1  0
 31 32  1  0
 32 33  1  0
 33 34  2  0
 34 35  1  0
 35 36  1  0
 36 37  1  0
 37 38  1  0
 32 39  2  0
 12  7  1  0
 28 18  1  0
 39 29  1  0
 38 33  1  0
  1 40  1  0
  1 41  1  0
  1 42  1  0
  5 43  1  1
  6 44  1  0
  6 45  1  0
  8 46  1  0
  9 47  1  0
 10 48  1  0
 11 49  1  0
 12 50  1  0
 16 51  1  1
 17 52  1  0
 17 53  1  0
 19 54  1  0
 20 55  1  0
 22 56  1  0
 27 57  1  0
 28 58  1  0
 30 59  1  0
 34 60  1  0
 35 61  1  0
 35 62  1  0
 36 63  1  0
 36 64  1  0
 37 65  1  0
 37 66  1  0
 38 67  1  0
 38 68  1  0
M  CHG  3  15  -1  26  -1  31  -1
M  END
>  <UniqueID>  (58) 
53

>  <SMILES>  (58) 
CC(=O)O[C@H](Cc1ccccc1)C(=O)[N-][C@H](Cc1ccc(NS(=O)(=O)[O-])cc1)c1c[n-]c(C2=CCCCC2)n1

>  <Energy>  (58) 
95.08811017086224

>  <Genealogy>  (58) 
CC(=O)OC(Cc1ccccc1)C(=O)[N-]C(Cc1ccc(NS(=O)(=O)[O-])cc1)c1c[n-]c(C2=CCCCC2)n1 (protonated)
CC(=O)O[C@H](Cc1ccccc1)C(=O)[N-][C@H](Cc1ccc(NS(=O)(=O)[O-])cc1)c1c[n-]c(C2=CCCCC2)n1 (chirality)
CC(=O)O[C@H](Cc1ccccc1)C(=O)[N-][C@H](Cc1ccc(NS(=O)(=O)[O-])cc1)c1c[n-]c(C2=CCCCC2)n1 (3D coordinates assigned)
CC(=O)O[C@H](Cc1ccccc1)C(=O)[N-][C@H](Cc1ccc(NS(=O)(=O)[O-])cc1)c1c[n-]c(C2=CCCCC2)n1 (nonaromatic ring conformer: 95.08811017086224 kcal/mol)

>  <smiles>  (58) 
CC(=O)OC(Cc1ccccc1)C(=O)NC(Cc1ccc(NS(=O)(=O)O)cc1)c1c[nH]c(C2=CCCCC2)n1

>  <score_type>  (58) 
oracle

>  <origin>  (58) 
adg

>  <m_score__min__energy>  (58) 
-15.68

>  <m_primary>  (58) 
energy

$$$$
58:0
     RDKit          3D

 37 40  0  0  0  0  0  0  0  0999 V2000
   54.4640   26.3120   45.2450 H   0  0  0  0  0  0  0  0  0  0  0  0
   55.3710   26.3920   45.7550 N   0  0  0  0  0  0  0  0  0  0  0  0
   56.1230   27.4380   45.6360 C   0  0  0  0  0  0  0  0  0  0  0  0
   55.6120   28.5960   45.1030 N   0  0  0  0  0  0  0  0  0  0  0  0
   56.3790   29.7160   44.9610 C   0  0  0  0  0  0  0  0  0  0  0  0
   55.8900   30.7640   44.4680 O   0  0  0  0  0  0  0  0  0  0  0  0
   57.7040   29.6540   45.3800 C   0  0  0  0  0  0  0  0  0  0  0  0
   58.7830   30.5260   45.3740 C   0  0  0  0  0  0  0  0  0  0  0  0
   58.8450   31.9050   44.7880 C   0  0  0  0  0  0  0  0  0  0  0  0
   59.5701   31.9159   43.9609 H   0  0  0  0  0  0  0  0  0  0  0  0
   57.8473   32.1821   44.4168 H   0  0  0  0  0  0  0  0  0  0  0  0
   59.2720   32.8980   45.8370 C   0  0  0  0  0  0  0  0  0  0  0  0
   58.4670   34.0070   46.1350 C   0  0  0  0  0  0  0  0  0  0  0  0
   57.5059   34.1426   45.6174 H   0  0  0  0  0  0  0  0  0  0  0  0
   58.8830   34.9390   47.0870 C   0  0  0  0  0  0  0  0  0  0  0  0
   58.2448   35.8036   47.3219 H   0  0  0  0  0  0  0  0  0  0  0  0
   60.1060   34.7790   47.7430 C   0  0  0  0  0  0  0  0  0  0  0  0
   60.4249   35.5191   48.4917 H   0  0  0  0  0  0  0  0  0  0  0  0
   60.9330   33.6780   47.4530 C   0  0  0  0  0  0  0  0  0  0  0  0
   62.2380   33.5100   48.1430 C   0  0  0  0  0  0  0  0  0  0  0  0
   62.6290   34.0410   49.3590 C   0  0  0  0  0  0  0  0  0  0  0  0
   62.0087   34.6804   50.0044 H   0  0  0  0  0  0  0  0  0  0  0  0
   63.8890   33.6510   49.6270 N   0  0  0  0  0  0  0  0  0  0  0  0
   64.3190   32.8940   48.6300 N   0  0  0  0  0  0  0  0  0  0  0  0
   63.3380   32.7900   47.7150 C   0  0  0  0  0  0  0  0  0  0  0  0
   63.4012   32.2220   46.7751 H   0  0  0  0  0  0  0  0  0  0  0  0
   60.5040   32.7410   46.4940 C   0  0  0  0  0  0  0  0  0  0  0  0
   61.1406   31.8760   46.2563 H   0  0  0  0  0  0  0  0  0  0  0  0
   59.8540   29.8660   45.8790 N   0  0  0  0  0  0  0  0  0  0  0  0
   60.8270   30.2400   45.9610 H   0  0  0  0  0  0  0  0  0  0  0  0
   59.4870   28.6360   46.2220 N   0  0  0  0  0  0  0  0  0  0  0  0
   60.3920   27.6010   46.7080 C   0  0  0  0  0  0  0  0  0  0  0  0
   60.3920   27.6010   47.8080 H   0  0  0  0  0  0  0  0  0  0  0  0
   60.0572   26.6195   46.3413 H   0  0  0  0  0  0  0  0  0  0  0  0
   61.4094   27.8019   46.3413 H   0  0  0  0  0  0  0  0  0  0  0  0
   58.1870   28.4960   45.9110 C   0  0  0  0  0  0  0  0  0  0  0  0
   57.4270   27.3820   46.0420 N   0  0  0  0  0  0  0  0  0  0  0  0
  1  2  1  0
  2  3  2  0
  3  4  1  0
  4  5  1  0
  5  6  2  0
  5  7  1  0
  7  8  1  0
  8  9  1  0
  9 10  1  0
  9 11  1  0
  9 12  1  0
 12 13  2  0
 13 14  1  0
 13 15  1  0
 15 16  1  0
 15 17  2  0
 17 18  1  0
 17 19  1  0
 19 20  1  0
 20 21  1  0
 21 22  1  0
 21 23  2  0
 23 24  1  0
 24 25  1  0
 25 26  1  0
 19 27  2  0
 27 28  1  0
  8 29  2  0
 29 30  1  0
 29 31  1  0
 31 32  1  0
 32 33  1  0
 32 34  1  0
 32 35  1  0
 31 36  1  0
 36 37  1  0
 37  3  1  0
 36  7  2  0
 27 12  1  0
 25 20  2  0
M  CHG  4   4  -1  24  -1  29   1  37  -1
M  END
>  <UniqueID>  (59) 
54

>  <SMILES>  (59) 
[H]/N=c1\[n-]c(=O)c2c(Cc3cccc(-c4cn[n-]c4)c3)[nH+]n(C)c2[n-]1

>  <Energy>  (59) 
113.57488790446469

>  <Genealogy>  (59) 
Cn1[nH+]c(Cc2cccc(-c3cn[n-]c3)c2)c2c(=O)[n-]c(=N)[n-]c21 (protonated)
[H]/N=c1\[n-]c(=O)c2c(Cc3cccc(-c4cn[n-]c4)c3)[nH+]n(C)c2[n-]1 (cis-trans isomerization)
[H]/N=c1\[n-]c(=O)c2c(Cc3cccc(-c4cn[n-]c4)c3)[nH+]n(C)c2[n-]1 (3D coordinates assigned)
[H]/N=c1\[n-]c(=O)c2c(Cc3cccc(-c4cn[n-]c4)c3)[nH+]n(C)c2[n-]1 (optimized conformer: 113.57488790446469 kcal/mol)

>  <smiles>  (59) 
Cn1nc(Cc2cccc(-c3cn[nH]c3)c2)c2c(=O)[nH]c(=N)[nH]c21

>  <score_type>  (59) 
oracle

>  <origin>  (59) 
adg

>  <m_score__min__energy>  (59) 
-10.960000000000001

>  <m_primary>  (59) 
energy

$$$$
59:0
     RDKit          3D

 40 41  0  0  0  0  0  0  0  0999 V2000
   55.2720   29.0990   44.5470 N   0  0  0  0  0  0  0  0  0  0  0  0
   55.9830   29.6850   43.4590 C   0  0  0  0  0  0  0  0  0  0  0  0
   55.9200   29.1520   42.3170 O   0  0  0  0  0  0  0  0  0  0  0  0
   56.7830   30.9040   43.6750 C   0  0  0  0  0  0  0  0  0  0  0  0
   57.4050   31.5660   42.6060 C   0  0  0  0  0  0  0  0  0  0  0  0
   58.1450   32.7210   42.8550 C   0  0  0  0  0  0  0  0  0  0  0  0
   58.2680   33.2060   44.1580 C   0  0  0  0  0  0  0  0  0  0  0  0
   57.6470   32.5140   45.2160 C   0  0  0  0  0  0  0  0  0  0  0  0
   57.7140   32.9650   46.6240 C   0  0  0  0  0  0  0  0  0  0  0  0
   58.6660   33.7770   47.1100 C   0  0  0  0  0  0  0  0  0  0  0  0
   60.1140   33.5890   46.8650 C   0  0  0  0  0  0  0  0  0  0  0  0
   60.5040   33.4710   45.6720 O   0  0  0  0  0  0  0  0  0  0  0  0
   61.1470   33.5600   47.9600 C   0  0  0  0  0  0  0  0  0  0  0  0
   60.9610   32.3540   48.8460 C   0  0  0  0  0  0  0  0  0  0  0  0
   60.7520   32.5170   50.0770 O   0  0  0  0  0  0  0  0  0  0  0  0
   61.0790   30.9760   48.3290 C   0  0  0  0  0  0  0  0  0  0  0  0
   60.1190   30.0390   48.3840 C   0  0  0  0  0  0  0  0  0  0  0  0
   59.5070   29.3750   47.2140 C   0  0  0  0  0  0  0  0  0  0  0  0
   59.9840   29.6020   45.9110 C   0  0  0  0  0  0  0  0  0  0  0  0
   59.3690   28.9830   44.8190 C   0  0  0  0  0  0  0  0  0  0  0  0
   58.2600   28.1530   45.0080 C   0  0  0  0  0  0  0  0  0  0  0  0
   57.6670   27.5470   43.9010 O   0  0  0  0  0  0  0  0  0  0  0  0
   57.7600   27.9480   46.3050 C   0  0  0  0  0  0  0  0  0  0  0  0
   56.6520   27.1340   46.5130 O   0  0  0  0  0  0  0  0  0  0  0  0
   58.3770   28.5660   47.3990 C   0  0  0  0  0  0  0  0  0  0  0  0
   56.9200   31.3980   44.9370 N   0  0  0  0  0  0  0  0  0  0  0  0
   55.5200   28.1480   44.9000 H   0  0  0  0  0  0  0  0  0  0  0  0
   57.3098   31.1776   41.5813 H   0  0  0  0  0  0  0  0  0  0  0  0
   58.6326   33.2508   42.0234 H   0  0  0  0  0  0  0  0  0  0  0  0
   58.8451   34.1211   44.3570 H   0  0  0  0  0  0  0  0  0  0  0  0
   56.9347   32.6126   47.3157 H   0  0  0  0  0  0  0  0  0  0  0  0
   58.3519   34.6322   47.7264 H   0  0  0  0  0  0  0  0  0  0  0  0
   62.1493   33.5234   47.5082 H   0  0  0  0  0  0  0  0  0  0  0  0
   61.0337   34.4663   48.5730 H   0  0  0  0  0  0  0  0  0  0  0  0
   62.0329   30.6935   47.8597 H   0  0  0  0  0  0  0  0  0  0  0  0
   59.7590   29.7416   49.3800 H   0  0  0  0  0  0  0  0  0  0  0  0
   60.8439   30.2689   45.7504 H   0  0  0  0  0  0  0  0  0  0  0  0
   59.7601   29.1500   43.8045 H   0  0  0  0  0  0  0  0  0  0  0  0
   56.6760   27.6320   43.7100 H   0  0  0  0  0  0  0  0  0  0  0  0
   57.9725   28.4159   48.4108 H   0  0  0  0  0  0  0  0  0  0  0  0
  1  2  1  0
  2  3  2  0
  2  4  1  0
  4  5  2  0
  5  6  1  0
  6  7  2  0
  7  8  1  0
  8  9  1  0
  9 10  2  3
 10 11  1  0
 11 12  2  0
 11 13  1  0
 13 14  1  0
 14 15  2  0
 14 16  1  0
 16 17  2  3
 17 18  1  0
 18 19  2  0
 19 20  1  0
 20 21  2  0
 21 22  1  0
 21 23  1  0
 23 24  1  0
 23 25  2  0
  8 26  2  0
 26  4  1  0
 25 18  1  0
  1 27  1  0
  5 28  1  0
  6 29  1  0
  7 30  1  0
  9 31  1  0
 10 32  1  0
 13 33  1  0
 13 34  1  0
 16 35  1  0
 17 36  1  0
 19 37  1  0
 20 38  1  0
 22 39  1  0
 25 40  1  0
M  CHG  2   1  -1  24  -1
M  END
>  <UniqueID>  (60) 
55

>  <SMILES>  (60) 
[NH-]C(=O)c1cccc(C=CC(=O)CC(=O)C=Cc2ccc(O)c([O-])c2)n1

>  <Energy>  (60) 
50.685758255568636

>  <Genealogy>  (60) 
[NH-]C(=O)c1cccc(C=CC(=O)CC(=O)C=Cc2ccc(O)c([O-])c2)n1 (protonated)
[NH-]C(=O)c1cccc(C=CC(=O)CC(=O)C=Cc2ccc(O)c([O-])c2)n1 (3D coordinates assigned)
[NH-]C(=O)c1cccc(C=CC(=O)CC(=O)C=Cc2ccc(O)c([O-])c2)n1 (optimized conformer: 50.685758255568636 kcal/mol)

>  <smiles>  (60) 
NC(=O)c1cccc(C=CC(=O)CC(=O)C=Cc2ccc(O)c(O)c2)n1

>  <score_type>  (60) 
oracle

>  <origin>  (60) 
adg

>  <m_score__min__energy>  (60) 
-14.82

>  <m_primary>  (60) 
energy

$$$$
60:0
     RDKit          3D

 33 35  0  0  0  0  0  0  0  0999 V2000
   55.1460   26.2410   45.9960 O   0  0  0  0  0  0  0  0  0  0  0  0
   56.3970   26.3460   46.0800 C   0  0  0  0  0  0  0  0  0  0  0  0
   57.0440   27.4690   46.6800 N   0  0  0  0  0  0  0  0  0  0  0  0
   58.3170   27.2640   46.5370 C   0  0  0  0  0  0  0  0  0  0  0  0
   59.3630   28.1760   47.0980 C   0  0  0  0  0  0  0  0  0  0  0  0
   59.0230   29.6090   46.7850 C   0  0  0  0  0  0  0  0  0  0  0  0
   59.0480   30.5730   47.8080 C   0  0  0  0  0  0  0  0  0  0  0  0
   58.7680   31.9120   47.5250 C   0  0  0  0  0  0  0  0  0  0  0  0
   58.7900   32.8340   48.5190 F   0  0  0  0  0  0  0  0  0  0  0  0
   58.4690   32.3030   46.2170 C   0  0  0  0  0  0  0  0  0  0  0  0
   58.4520   31.3550   45.1910 C   0  0  0  0  0  0  0  0  0  0  0  0
   58.7320   30.0120   45.4680 C   0  0  0  0  0  0  0  0  0  0  0  0
   58.7170   29.1110   44.4530 F   0  0  0  0  0  0  0  0  0  0  0  0
   58.5600   25.9920   45.8630 C   0  0  0  0  0  0  0  0  0  0  0  0
   59.6870   25.4770   45.6360 O   0  0  0  0  0  0  0  0  0  0  0  0
   57.3130   25.3880   45.5510 N   0  0  0  0  0  0  0  0  0  0  0  0
   57.0520   24.1140   44.9360 C   0  0  0  0  0  0  0  0  0  0  0  0
   57.3430   22.9190   45.6170 C   0  0  0  0  0  0  0  0  0  0  0  0
   57.0880   21.6830   45.0150 C   0  0  0  0  0  0  0  0  0  0  0  0
   56.5410   21.6240   43.7310 C   0  0  0  0  0  0  0  0  0  0  0  0
   56.2930   20.3860   43.1440 O   0  0  0  0  0  0  0  0  0  0  0  0
   56.2490   22.8100   43.0460 C   0  0  0  0  0  0  0  0  0  0  0  0
   56.5030   24.0480   43.6450 C   0  0  0  0  0  0  0  0  0  0  0  0
   59.4133   28.0441   48.1889 H   0  0  0  0  0  0  0  0  0  0  0  0
   60.3350   27.9299   46.6456 H   0  0  0  0  0  0  0  0  0  0  0  0
   59.2896   30.2710   48.8378 H   0  0  0  0  0  0  0  0  0  0  0  0
   58.2470   33.3573   45.9953 H   0  0  0  0  0  0  0  0  0  0  0  0
   58.2178   31.6651   44.1620 H   0  0  0  0  0  0  0  0  0  0  0  0
   57.7735   22.9565   46.6286 H   0  0  0  0  0  0  0  0  0  0  0  0
   57.3192   20.7529   45.5549 H   0  0  0  0  0  0  0  0  0  0  0  0
   56.8960   19.5890   43.3110 H   0  0  0  0  0  0  0  0  0  0  0  0
   55.8189   22.7678   42.0345 H   0  0  0  0  0  0  0  0  0  0  0  0
   56.2713   24.9759   43.1015 H   0  0  0  0  0  0  0  0  0  0  0  0
  1  2  2  0
  2  3  1  0
  3  4  2  0
  4  5  1  0
  5  6  1  0
  6  7  2  0
  7  8  1  0
  8  9  1  0
  8 10  2  0
 10 11  1  0
 11 12  2  0
 12 13  1  0
  4 14  1  0
 14 15  2  0
 14 16  1  0
 16 17  1  0
 17 18  2  0
 18 19  1  0
 19 20  2  0
 20 21  1  0
 20 22  1  0
 22 23  2  0
 16  2  1  0
 23 17  1  0
 12  6  1  0
  5 24  1  0
  5 25  1  0
  7 26  1  0
 10 27  1  0
 11 28  1  0
 18 29  1  0
 19 30  1  0
 21 31  1  0
 22 32  1  0
 23 33  1  0
M  END
>  <UniqueID>  (61) 
56

>  <SMILES>  (61) 
O=C1N=C(Cc2cc(F)ccc2F)C(=O)N1c1ccc(O)cc1

>  <Energy>  (61) 
67.99002211015437

>  <Genealogy>  (61) 
O=C1N=C(Cc2cc(F)ccc2F)C(=O)N1c1ccc(O)cc1 (3D coordinates assigned)
O=C1N=C(Cc2cc(F)ccc2F)C(=O)N1c1ccc(O)cc1 (nonaromatic ring conformer: 67.99002211015437 kcal/mol)

>  <smiles>  (61) 
O=C1N=C(Cc2cc(F)ccc2F)C(=O)N1c1ccc(O)cc1

>  <score_type>  (61) 
oracle

>  <origin>  (61) 
adg

>  <m_score__min__energy>  (61) 
-7.25

>  <m_primary>  (61) 
energy

$$$$
61:0
     RDKit          3D

 29 31  0  0  0  0  0  0  0  0999 V2000
   57.3780   28.3240   42.5680 O   0  0  0  0  0  0  0  0  0  0  0  0
   57.0250   29.0370   43.5450 C   0  0  0  0  0  0  0  0  0  0  0  0
   56.9100   28.6080   44.9290 C   0  0  0  0  0  0  0  0  0  0  0  0
   57.2980   27.2990   45.5000 C   0  0  0  0  0  0  0  0  0  0  0  0
   58.6510   26.9160   45.4850 C   0  0  0  0  0  0  0  0  0  0  0  0
   59.0480   25.6900   46.0260 C   0  0  0  0  0  0  0  0  0  0  0  0
   58.0980   24.8290   46.5790 C   0  0  0  0  0  0  0  0  0  0  0  0
   56.7490   25.1880   46.5830 C   0  0  0  0  0  0  0  0  0  0  0  0
   56.3420   26.4120   46.0380 C   0  0  0  0  0  0  0  0  0  0  0  0
   54.9840   26.7160   46.0090 O   0  0  0  0  0  0  0  0  0  0  0  0
   56.3470   29.5410   45.6220 N   0  0  0  0  0  0  0  0  0  0  0  0
   56.0840   30.6260   44.8130 O   0  0  0  0  0  0  0  0  0  0  0  0
   56.4950   30.4260   43.4640 C   0  0  1  0  0  0  0  0  0  0  0  0
   57.5740   31.4450   43.0850 C   0  0  0  0  0  0  0  0  0  0  0  0
   57.9160   32.2920   44.2260 N   0  0  0  0  0  0  0  0  0  0  0  0
   58.7620   31.9990   45.2260 C   0  0  0  0  0  0  0  0  0  0  0  0
   58.8200   33.0930   46.0620 C   0  0  0  0  0  0  0  0  0  0  0  0
   58.0180   34.0690   45.5860 N   0  0  0  0  0  0  0  0  0  0  0  0
   57.4850   33.5450   44.4630 C   0  0  0  0  0  0  0  0  0  0  0  0
   59.4030   27.5868   45.0439 H   0  0  0  0  0  0  0  0  0  0  0  0
   60.1099   25.4031   46.0161 H   0  0  0  0  0  0  0  0  0  0  0  0
   58.4126   23.8678   47.0115 H   0  0  0  0  0  0  0  0  0  0  0  0
   56.0023   24.5063   47.0163 H   0  0  0  0  0  0  0  0  0  0  0  0
   55.7136   30.5548   42.7006 H   0  0  0  0  0  0  0  0  0  0  0  0
   58.4748   30.9086   42.7520 H   0  0  0  0  0  0  0  0  0  0  0  0
   57.1861   32.0833   42.2775 H   0  0  0  0  0  0  0  0  0  0  0  0
   59.3109   31.0545   45.3551 H   0  0  0  0  0  0  0  0  0  0  0  0
   59.4268   33.1606   46.9770 H   0  0  0  0  0  0  0  0  0  0  0  0
   56.7775   34.0815   43.8137 H   0  0  0  0  0  0  0  0  0  0  0  0
  1  2  2  0
  2  3  1  0
  3  4  1  0
  4  5  2  0
  5  6  1  0
  6  7  2  0
  7  8  1  0
  8  9  2  0
  9 10  1  0
  3 11  2  0
 11 12  1  0
 12 13  1  0
 13 14  1  0
 14 15  1  0
 15 16  1  0
 16 17  2  0
 17 18  1  0
 18 19  2  0
 13  2  1  0
 19 15  1  0
  9  4  1  0
  5 20  1  0
  6 21  1  0
  7 22  1  0
  8 23  1  0
 13 24  1  6
 14 25  1  0
 14 26  1  0
 16 27  1  0
 17 28  1  0
 19 29  1  0
M  CHG  1  10  -1
M  END
>  <UniqueID>  (62) 
57

>  <SMILES>  (62) 
O=C1C(c2ccccc2[O-])=NO[C@H]1Cn1ccnc1

>  <Energy>  (62) 
83.87173063661159

>  <Genealogy>  (62) 
O=C1C(c2ccccc2[O-])=NOC1Cn1ccnc1 (protonated)
O=C1C(c2ccccc2[O-])=NO[C@H]1Cn1ccnc1 (chirality)
O=C1C(c2ccccc2[O-])=NO[C@H]1Cn1ccnc1 (3D coordinates assigned)
O=C1C(c2ccccc2[O-])=NO[C@H]1Cn1ccnc1 (nonaromatic ring conformer: 83.87173063661159 kcal/mol)

>  <smiles>  (62) 
O=C1C(c2ccccc2O)=NOC1Cn1ccnc1

>  <score_type>  (62) 
oracle

>  <origin>  (62) 
adg

>  <m_score__min__energy>  (62) 
-11.08

>  <m_primary>  (62) 
energy

$$$$
62:0
     RDKit          3D

 41 43  0  0  0  0  0  0  0  0999 V2000
   59.0150   35.2550   44.8860 C   0  0  0  0  0  0  0  0  0  0  0  0
   59.6010   34.1070   45.6440 C   0  0  0  0  0  0  0  0  0  0  0  0
   60.6850   34.2100   46.3780 O   0  0  0  0  0  0  0  0  0  0  0  0
   60.9530   33.0410   46.9160 C   0  0  0  0  0  0  0  0  0  0  0  0
   62.1120   32.8000   47.8070 C   0  0  0  0  0  0  0  0  0  0  0  0
   63.2780   33.5670   47.6510 C   0  0  0  0  0  0  0  0  0  0  0  0
   64.3840   33.3590   48.4790 C   0  0  0  0  0  0  0  0  0  0  0  0
   64.3490   32.3780   49.4840 C   0  0  0  0  0  0  0  0  0  0  0  0
   65.4870   32.1580   50.3380 N   0  0  0  0  0  0  0  0  0  0  0  0
   66.6150   32.5900   50.0200 O   0  0  0  0  0  0  0  0  0  0  0  0
   65.3540   31.4580   51.5160 O   0  0  0  0  0  0  0  0  0  0  0  0
   63.1840   31.6100   49.6420 C   0  0  0  0  0  0  0  0  0  0  0  0
   62.0770   31.8170   48.8130 C   0  0  0  0  0  0  0  0  0  0  0  0
   59.9980   32.1160   46.5190 C   0  0  0  0  0  0  0  0  0  0  0  0
   59.1240   32.8050   45.6990 C   0  0  0  0  0  0  0  0  0  0  0  0
   57.9420   32.2300   45.0290 C   0  0  0  0  0  0  0  0  0  0  0  0
   57.4520   32.8190   44.0280 O   0  0  0  0  0  0  0  0  0  0  0  0
   57.3910   30.9870   45.4780 N   0  0  0  0  0  0  0  0  0  0  0  0
   58.0110   29.6950   45.3930 C   0  0  0  0  0  0  0  0  0  0  0  0
   59.3790   29.5430   45.1000 C   0  0  0  0  0  0  0  0  0  0  0  0
   59.9370   28.2650   44.9970 C   0  0  0  0  0  0  0  0  0  0  0  0
   59.1370   27.1330   45.1710 C   0  0  0  0  0  0  0  0  0  0  0  0
   57.7690   27.2730   45.4420 C   0  0  0  0  0  0  0  0  0  0  0  0
   56.7410   25.8570   45.6420 S   0  0  0  0  0  0  0  0  0  0  0  0
   55.1320   26.3620   46.0210 N   0  0  0  0  0  0  0  0  0  0  0  0
   57.2760   25.0010   46.7560 O   0  0  0  0  0  0  0  0  0  0  0  0
   56.7190   25.0490   44.3760 O   0  0  0  0  0  0  0  0  0  0  0  0
   57.2100   28.5550   45.5420 C   0  0  0  0  0  0  0  0  0  0  0  0
   58.6323   36.0048   45.5941 H   0  0  0  0  0  0  0  0  0  0  0  0
   59.7908   35.7107   44.2531 H   0  0  0  0  0  0  0  0  0  0  0  0
   58.1909   34.8940   44.2531 H   0  0  0  0  0  0  0  0  0  0  0  0
   63.3210   34.3394   46.8690 H   0  0  0  0  0  0  0  0  0  0  0  0
   65.2896   33.9684   48.3429 H   0  0  0  0  0  0  0  0  0  0  0  0
   63.1418   30.8386   50.4250 H   0  0  0  0  0  0  0  0  0  0  0  0
   61.1720   31.2066   48.9484 H   0  0  0  0  0  0  0  0  0  0  0  0
   59.9469   31.0535   46.7990 H   0  0  0  0  0  0  0  0  0  0  0  0
   60.0106   30.4313   44.9517 H   0  0  0  0  0  0  0  0  0  0  0  0
   61.0090   28.1506   44.7783 H   0  0  0  0  0  0  0  0  0  0  0  0
   59.5816   26.1297   45.0952 H   0  0  0  0  0  0  0  0  0  0  0  0
   55.1430   27.4050   46.0660 H   0  0  0  0  0  0  0  0  0  0  0  0
   56.1336   28.6667   45.7391 H   0  0  0  0  0  0  0  0  0  0  0  0
  1  2  1  0
  2  3  1  0
  3  4  1  0
  4  5  1  0
  5  6  2  0
  6  7  1  0
  7  8  2  0
  8  9  1  0
  9 10  2  0
  9 11  1  0
  8 12  1  0
 12 13  2  0
  4 14  2  0
 14 15  1  0
 15 16  1  0
 16 17  2  0
 16 18  1  0
 18 19  1  0
 19 20  2  0
 20 21  1  0
 21 22  2  0
 22 23  1  0
 23 24  1  0
 24 25  1  0
 24 26  2  0
 24 27  2  0
 23 28  2  0
 15  2  2  0
 28 19  1  0
 13  5  1  0
  1 29  1  0
  1 30  1  0
  1 31  1  0
  6 32  1  0
  7 33  1  0
 12 34  1  0
 13 35  1  0
 14 36  1  0
 20 37  1  0
 21 38  1  0
 22 39  1  0
 25 40  1  0
 28 41  1  0
M  CHG  4   9   1  11  -1  18  -1  25  -1
M  END
>  <UniqueID>  (63) 
58

>  <SMILES>  (63) 
Cc1oc(-c2ccc([N+](=O)[O-])cc2)cc1C(=O)[N-]c1cccc(S([NH-])(=O)=O)c1

>  <Energy>  (63) 
74.58785956170024

>  <Genealogy>  (63) 
Cc1oc(-c2ccc([N+](=O)[O-])cc2)cc1C(=O)[N-]c1cccc(S([NH-])(=O)=O)c1 (protonated)
Cc1oc(-c2ccc([N+](=O)[O-])cc2)cc1C(=O)[N-]c1cccc(S([NH-])(=O)=O)c1 (3D coordinates assigned)
Cc1oc(-c2ccc([N+](=O)[O-])cc2)cc1C(=O)[N-]c1cccc(S([NH-])(=O)=O)c1 (optimized conformer: 74.58785956170024 kcal/mol)

>  <smiles>  (63) 
Cc1oc(-c2ccc([N+](=O)[O-])cc2)cc1C(=O)Nc1cccc(S(N)(=O)=O)c1

>  <score_type>  (63) 
oracle

>  <origin>  (63) 
adg

>  <m_score__min__energy>  (63) 
-13.199999999999999

>  <m_primary>  (63) 
energy

$$$$
63:0
     RDKit          3D

 36 38  0  0  0  0  0  0  0  0999 V2000
   54.7420   26.7860   46.8010 H   0  0  0  0  0  0  0  0  0  0  0  0
   55.3880   26.6490   45.9910 N   0  0  0  0  0  0  0  0  0  0  0  0
   56.6260   27.0290   46.0380 C   0  0  0  0  0  0  0  0  0  0  0  0
   57.5610   26.1990   46.5790 N   0  0  0  0  0  0  0  0  0  0  0  0
   58.8740   26.5370   46.6550 C   0  0  0  0  0  0  0  0  0  0  0  0
   59.5957   25.8365   47.1006 H   0  0  0  0  0  0  0  0  0  0  0  0
   59.3100   27.7690   46.1700 C   0  0  0  0  0  0  0  0  0  0  0  0
   60.3739   28.0422   46.2289 H   0  0  0  0  0  0  0  0  0  0  0  0
   58.3840   28.6570   45.6070 C   0  0  0  0  0  0  0  0  0  0  0  0
   58.8030   29.9020   45.1140 C   0  0  0  0  0  0  0  0  0  0  0  0
   59.8662   30.1799   45.1629 H   0  0  0  0  0  0  0  0  0  0  0  0
   57.8720   30.7960   44.5580 C   0  0  0  0  0  0  0  0  0  0  0  0
   58.2640   32.0690   44.0240 N   0  0  0  0  0  0  0  0  0  0  0  0
   58.6330   33.2360   44.7730 C   0  0  0  0  0  0  0  0  0  0  0  0
   58.7090   34.3560   44.1990 O   0  0  0  0  0  0  0  0  0  0  0  0
   58.9480   33.1250   46.1760 N   0  0  0  0  0  0  0  0  0  0  0  0
   60.3060   32.9060   46.6050 C   0  0  0  0  0  0  0  0  0  0  0  0
   61.2880   33.8880   46.3890 C   0  0  0  0  0  0  0  0  0  0  0  0
   61.0180   34.8321   45.8932 H   0  0  0  0  0  0  0  0  0  0  0  0
   62.6060   33.6710   46.8010 C   0  0  0  0  0  0  0  0  0  0  0  0
   63.3693   34.4446   46.6308 H   0  0  0  0  0  0  0  0  0  0  0  0
   62.9550   32.4720   47.4290 C   0  0  0  0  0  0  0  0  0  0  0  0
   63.9920   32.3033   47.7547 H   0  0  0  0  0  0  0  0  0  0  0  0
   61.9870   31.4880   47.6430 C   0  0  0  0  0  0  0  0  0  0  0  0
   62.2633   30.5443   48.1360 H   0  0  0  0  0  0  0  0  0  0  0  0
   60.6680   31.7000   47.2320 C   0  0  0  0  0  0  0  0  0  0  0  0
   59.9100   30.9206   47.3995 H   0  0  0  0  0  0  0  0  0  0  0  0
   57.8630   33.0790   47.1600 C   0  0  0  0  0  0  0  0  0  0  0  0
   58.2873   33.0970   48.1747 H   0  0  0  0  0  0  0  0  0  0  0  0
   57.2056   33.9501   47.0219 H   0  0  0  0  0  0  0  0  0  0  0  0
   57.2817   32.1554   47.0219 H   0  0  0  0  0  0  0  0  0  0  0  0
   56.5290   30.4170   44.4630 C   0  0  0  0  0  0  0  0  0  0  0  0
   55.8028   31.0998   43.9978 H   0  0  0  0  0  0  0  0  0  0  0  0
   56.1000   29.1820   44.9520 C   0  0  0  0  0  0  0  0  0  0  0  0
   55.0375   28.9058   44.8829 H   0  0  0  0  0  0  0  0  0  0  0  0
   57.0190   28.2880   45.5330 C   0  0  0  0  0  0  0  0  0  0  0  0
  1  2  1  0
  2  3  2  0
  3  4  1  0
  4  5  1  0
  5  6  1  0
  5  7  2  0
  7  8  1  0
  7  9  1  0
  9 10  2  0
 10 11  1  0
 10 12  1  0
 12 13  1  0
 13 14  1  0
 14 15  2  0
 14 16  1  0
 16 17  1  0
 17 18  2  0
 18 19  1  0
 18 20  1  0
 20 21  1  0
 20 22  2  0
 22 23  1  0
 22 24  1  0
 24 25  1  0
 24 26  2  0
 26 27  1  0
 16 28  1  0
 28 29  1  0
 28 30  1  0
 28 31  1  0
 12 32  2  0
 32 33  1  0
 32 34  1  0
 34 35  1  0
 34 36  2  0
 36  3  1  0
 36  9  1  0
 26 17  1  0
M  CHG  2   4  -1  13  -1
M  END
>  <UniqueID>  (64) 
59

>  <SMILES>  (64) 
[H]/N=c1\[n-]ccc2cc([N-]C(=O)N(C)c3ccccc3)ccc12

>  <Energy>  (64) 
52.274995460143586

>  <Genealogy>  (64) 
CN(C(=O)[N-]c1ccc2c(=N)[n-]ccc2c1)c1ccccc1 (protonated)
[H]/N=c1\[n-]ccc2cc([N-]C(=O)N(C)c3ccccc3)ccc12 (cis-trans isomerization)
[H]/N=c1\[n-]ccc2cc([N-]C(=O)N(C)c3ccccc3)ccc12 (3D coordinates assigned)
[H]/N=c1\[n-]ccc2cc([N-]C(=O)N(C)c3ccccc3)ccc12 (optimized conformer: 52.274995460143586 kcal/mol)

>  <smiles>  (64) 
CN(C(=O)Nc1ccc2c(=N)[nH]ccc2c1)c1ccccc1

>  <score_type>  (64) 
oracle

>  <origin>  (64) 
adg

>  <m_score__min__energy>  (64) 
-10.380000000000001

>  <m_primary>  (64) 
energy

$$$$
64:0
     RDKit          3D

 52 55  0  0  0  0  0  0  0  0999 V2000
   58.8270   27.4790   43.6890 C   0  0  0  0  0  0  0  0  0  0  0  0
   59.0560   27.9970   45.0830 C   0  0  0  0  0  0  0  0  0  0  0  0
   60.3730   28.0960   45.5650 C   0  0  0  0  0  0  0  0  0  0  0  0
   60.6230   28.5380   46.8640 C   0  0  0  0  0  0  0  0  0  0  0  0
   59.5640   28.8930   47.6980 C   0  0  0  0  0  0  0  0  0  0  0  0
   58.2520   28.8180   47.2330 C   0  0  0  0  0  0  0  0  0  0  0  0
   57.9790   28.3750   45.9270 C   0  0  0  0  0  0  0  0  0  0  0  0
   56.5670   28.3280   45.4690 C   0  0  0  0  0  0  0  0  0  0  0  0
   55.8920   27.2810   45.6420 O   0  0  0  0  0  0  0  0  0  0  0  0
   55.9640   29.4190   44.7600 N   0  0  0  0  0  0  0  0  0  0  0  0
   56.6520   30.4540   44.0420 C   0  0  0  0  0  0  0  0  0  0  0  0
   56.5730   30.5620   42.6420 C   0  0  0  0  0  0  0  0  0  0  0  0
   57.2530   31.5850   41.9760 C   0  0  0  0  0  0  0  0  0  0  0  0
   58.0260   32.4980   42.6970 C   0  0  0  0  0  0  0  0  0  0  0  0
   58.1430   32.3790   44.0900 C   0  0  0  0  0  0  0  0  0  0  0  0
   58.9300   33.3920   44.8760 C   0  0  0  0  0  0  0  0  0  0  0  0
   58.8500   33.0760   46.3410 C   0  0  0  0  0  0  0  0  0  0  0  0
   60.0050   32.9150   47.1130 C   0  0  0  0  0  0  0  0  0  0  0  0
   59.8900   32.6350   48.4790 C   0  0  0  0  0  0  0  0  0  0  0  0
   61.0820   32.4530   49.2650 N   0  0  0  0  0  0  0  0  0  0  0  0
   62.3730   32.9420   48.8650 C   0  0  0  0  0  0  0  0  0  0  0  0
   62.4540   33.8320   47.9730 O   0  0  0  0  0  0  0  0  0  0  0  0
   63.6110   32.4450   49.5100 C   0  0  0  0  0  0  0  0  0  0  0  0
   64.8360   33.1070   49.3100 C   0  0  0  0  0  0  0  0  0  0  0  0
   66.0010   32.6300   49.9100 C   0  0  0  0  0  0  0  0  0  0  0  0
   65.9420   31.4830   50.7010 C   0  0  0  0  0  0  0  0  0  0  0  0
   64.7580   30.8410   50.8790 N   0  0  0  0  0  0  0  0  0  0  0  0
   63.6050   31.2880   50.3100 C   0  0  0  0  0  0  0  0  0  0  0  0
   58.6020   32.5830   49.0450 C   0  0  0  0  0  0  0  0  0  0  0  0
   58.4410   32.4150   50.2830 O   0  0  0  0  0  0  0  0  0  0  0  0
   57.5160   32.7500   48.2490 N   0  0  0  0  0  0  0  0  0  0  0  0
   57.6350   32.9820   46.9400 N   0  0  0  0  0  0  0  0  0  0  0  0
   57.4540   31.3510   44.7560 C   0  0  0  0  0  0  0  0  0  0  0  0
   58.3827   26.4740   43.7397 H   0  0  0  0  0  0  0  0  0  0  0  0
   58.1440   28.1553   43.1541 H   0  0  0  0  0  0  0  0  0  0  0  0
   59.7869   27.4290   43.1541 H   0  0  0  0  0  0  0  0  0  0  0  0
   61.2143   27.8222   44.9114 H   0  0  0  0  0  0  0  0  0  0  0  0
   61.6577   28.6066   47.2310 H   0  0  0  0  0  0  0  0  0  0  0  0
   59.7640   29.2329   48.7249 H   0  0  0  0  0  0  0  0  0  0  0  0
   57.4223   29.1082   47.8943 H   0  0  0  0  0  0  0  0  0  0  0  0
   55.9739   29.8387   42.0694 H   0  0  0  0  0  0  0  0  0  0  0  0
   57.1794   31.6715   40.8819 H   0  0  0  0  0  0  0  0  0  0  0  0
   58.5447   33.3130   42.1709 H   0  0  0  0  0  0  0  0  0  0  0  0
   59.9816   33.3664   44.5542 H   0  0  0  0  0  0  0  0  0  0  0  0
   58.5110   34.3934   44.6981 H   0  0  0  0  0  0  0  0  0  0  0  0
   60.9980   33.0080   46.6490 H   0  0  0  0  0  0  0  0  0  0  0  0
   60.9680   32.1140   50.2480 H   0  0  0  0  0  0  0  0  0  0  0  0
   64.8752   34.0057   48.6769 H   0  0  0  0  0  0  0  0  0  0  0  0
   66.9570   33.1533   49.7608 H   0  0  0  0  0  0  0  0  0  0  0  0
   66.8540   31.0981   51.1807 H   0  0  0  0  0  0  0  0  0  0  0  0
   62.6646   30.7421   50.4765 H   0  0  0  0  0  0  0  0  0  0  0  0
   57.5460   31.2508   45.8476 H   0  0  0  0  0  0  0  0  0  0  0  0
  1  2  1  0
  2  3  2  0
  3  4  1  0
  4  5  2  0
  5  6  1  0
  6  7  2  0
  7  8  1  0
  8  9  2  0
  8 10  1  0
 10 11  1  0
 11 12  2  0
 12 13  1  0
 13 14  2  0
 14 15  1  0
 15 16  1  0
 16 17  1  0
 17 18  1  0
 18 19  2  0
 19 20  1  0
 20 21  1  0
 21 22  2  0
 21 23  1  0
 23 24  2  0
 24 25  1  0
 25 26  2  0
 26 27  1  0
 27 28  2  0
 19 29  1  0
 29 30  2  0
 29 31  1  0
 31 32  1  0
 15 33  2  0
  7  2  1  0
 33 11  1  0
 32 17  2  0
 28 23  1  0
  1 34  1  0
  1 35  1  0
  1 36  1  0
  3 37  1  0
  4 38  1  0
  5 39  1  0
  6 40  1  0
 12 41  1  0
 13 42  1  0
 14 43  1  0
 16 44  1  0
 16 45  1  0
 18 46  1  0
 20 47  1  0
 24 48  1  0
 25 49  1  0
 26 50  1  0
 28 51  1  0
 33 52  1  0
M  CHG  2  10  -1  31  -1
M  END
>  <UniqueID>  (65) 
60

>  <SMILES>  (65) 
Cc1ccccc1C(=O)[N-]c1cccc(Cc2cc(NC(=O)c3cccnc3)c(=O)[n-]n2)c1

>  <Energy>  (65) 
73.63693067037104

>  <Genealogy>  (65) 
Cc1ccccc1C(=O)[N-]c1cccc(Cc2cc(NC(=O)c3cccnc3)c(=O)[n-]n2)c1 (protonated)
Cc1ccccc1C(=O)[N-]c1cccc(Cc2cc(NC(=O)c3cccnc3)c(=O)[n-]n2)c1 (3D coordinates assigned)
Cc1ccccc1C(=O)[N-]c1cccc(Cc2cc(NC(=O)c3cccnc3)c(=O)[n-]n2)c1 (optimized conformer: 73.63693067037104 kcal/mol)

>  <smiles>  (65) 
Cc1ccccc1C(=O)Nc1cccc(Cc2cc(NC(=O)c3cccnc3)c(=O)[nH]n2)c1

>  <score_type>  (65) 
oracle

>  <origin>  (65) 
adg

>  <m_score__min__energy>  (65) 
-12.65

>  <m_primary>  (65) 
energy

$$$$
65:0
     RDKit          3D

 47 49  0  0  0  0  0  0  0  0999 V2000
   57.1120   31.0470   53.5730 C   0  0  0  0  0  0  0  0  0  0  0  0
   58.0010   30.7080   52.0670 S   0  0  0  0  0  0  0  0  0  0  0  0
   57.6090   29.3540   51.5450 O   0  0  0  0  0  0  0  0  0  0  0  0
   59.4730   30.7040   52.3720 O   0  0  0  0  0  0  0  0  0  0  0  0
   57.6740   31.9710   50.8390 C   0  0  0  0  0  0  0  0  0  0  0  0
   58.8890   32.2770   49.9520 C   0  0  0  0  0  0  0  0  0  0  0  0
   59.2160   31.1560   49.0670 N   0  0  0  0  0  0  0  0  0  0  0  0
   59.4770   29.9320   49.4980 N   0  0  0  0  0  0  0  0  0  0  0  0
   59.6870   29.1250   48.4390 C   0  0  0  0  0  0  0  0  0  0  0  0
   59.9740   27.6850   48.5770 C   0  0  0  0  0  0  0  0  0  0  0  0
   59.8450   26.8960   47.6060 O   0  0  0  0  0  0  0  0  0  0  0  0
   60.3900   27.1810   49.8040 O   0  0  0  0  0  0  0  0  0  0  0  0
   59.5580   29.8800   47.2710 C   0  0  0  0  0  0  0  0  0  0  0  0
   59.6820   29.4400   45.8350 C   0  0  0  0  0  0  0  0  0  0  0  0
   58.4460   29.7910   45.0370 C   0  0  0  0  0  0  0  0  0  0  0  0
   58.5050   30.7980   44.0560 C   0  0  0  0  0  0  0  0  0  0  0  0
   57.3740   31.1250   43.3050 C   0  0  0  0  0  0  0  0  0  0  0  0
   56.1660   30.4650   43.5350 C   0  0  0  0  0  0  0  0  0  0  0  0
   56.0850   29.4800   44.5210 C   0  0  0  0  0  0  0  0  0  0  0  0
   57.2140   29.1440   45.2760 C   0  0  0  0  0  0  0  0  0  0  0  0
   57.1000   28.1610   46.2540 O   0  0  0  0  0  0  0  0  0  0  0  0
   59.2560   31.1620   47.7170 C   0  0  0  0  0  0  0  0  0  0  0  0
   59.0110   32.3410   46.8710 C   0  0  0  0  0  0  0  0  0  0  0  0
   57.6990   32.7210   46.5500 C   0  0  0  0  0  0  0  0  0  0  0  0
   57.4680   33.8410   45.7470 C   0  0  0  0  0  0  0  0  0  0  0  0
   58.5460   34.5910   45.2660 C   0  0  0  0  0  0  0  0  0  0  0  0
   59.8540   34.2220   45.5900 C   0  0  0  0  0  0  0  0  0  0  0  0
   60.0880   33.1010   46.3930 C   0  0  0  0  0  0  0  0  0  0  0  0
   57.7482   30.8044   54.4369 H   0  0  0  0  0  0  0  0  0  0  0  0
   56.8394   32.1122   53.6060 H   0  0  0  0  0  0  0  0  0  0  0  0
   56.1994   30.4338   53.6060 H   0  0  0  0  0  0  0  0  0  0  0  0
   56.8487   31.6296   50.1968 H   0  0  0  0  0  0  0  0  0  0  0  0
   57.4205   32.8955   51.3786 H   0  0  0  0  0  0  0  0  0  0  0  0
   58.6668   33.1620   49.3376 H   0  0  0  0  0  0  0  0  0  0  0  0
   59.7534   32.4564   50.6082 H   0  0  0  0  0  0  0  0  0  0  0  0
   59.4960   29.6490   50.5030 H   0  0  0  0  0  0  0  0  0  0  0  0
   60.5523   29.9380   45.3828 H   0  0  0  0  0  0  0  0  0  0  0  0
   59.8031   28.3468   45.8191 H   0  0  0  0  0  0  0  0  0  0  0  0
   59.4502   31.3322   43.8791 H   0  0  0  0  0  0  0  0  0  0  0  0
   57.4353   31.9041   42.5309 H   0  0  0  0  0  0  0  0  0  0  0  0
   55.2775   30.7210   42.9392 H   0  0  0  0  0  0  0  0  0  0  0  0
   55.1300   28.9661   44.7050 H   0  0  0  0  0  0  0  0  0  0  0  0
   56.8496   32.1354   46.9317 H   0  0  0  0  0  0  0  0  0  0  0  0
   56.4382   34.1328   45.4932 H   0  0  0  0  0  0  0  0  0  0  0  0
   58.3640   35.4716   44.6324 H   0  0  0  0  0  0  0  0  0  0  0  0
   60.7010   34.8140   45.2130 H   0  0  0  0  0  0  0  0  0  0  0  0
   61.1187   32.8151   46.6500 H   0  0  0  0  0  0  0  0  0  0  0  0
  1  2  1  0
  2  3  2  0
  2  4  2  0
  2  5  1  0
  5  6  1  0
  6  7  1  0
  7  8  1  0
  8  9  2  0
  9 10  1  0
 10 11  2  0
 10 12  1  0
  9 13  1  0
 13 14  1  0
 14 15  1  0
 15 16  2  0
 16 17  1  0
 17 18  2  0
 18 19  1  0
 19 20  2  0
 20 21  1  0
 13 22  2  0
 22 23  1  0
 23 24  2  0
 24 25  1  0
 25 26  2  0
 26 27  1  0
 27 28  2  0
 22  7  1  0
 28 23  1  0
 20 15  1  0
  1 29  1  0
  1 30  1  0
  1 31  1  0
  5 32  1  0
  5 33  1  0
  6 34  1  0
  6 35  1  0
  8 36  1  0
 14 37  1  0
 14 38  1  0
 16 39  1  0
 17 40  1  0
 18 41  1  0
 19 42  1  0
 24 43  1  0
 25 44  1  0
 26 45  1  0
 27 46  1  0
 28 47  1  0
M  CHG  3   8   1  12  -1  21  -1
M  END
>  <UniqueID>  (66) 
61

>  <SMILES>  (66) 
CS(=O)(=O)CCn1[nH+]c(C(=O)[O-])c(Cc2ccccc2[O-])c1-c1ccccc1

>  <Energy>  (66) 
74.60758745074465

>  <Genealogy>  (66) 
CS(=O)(=O)CCn1[nH+]c(C(=O)[O-])c(Cc2ccccc2[O-])c1-c1ccccc1 (protonated)
CS(=O)(=O)CCn1[nH+]c(C(=O)[O-])c(Cc2ccccc2[O-])c1-c1ccccc1 (3D coordinates assigned)
CS(=O)(=O)CCn1[nH+]c(C(=O)[O-])c(Cc2ccccc2[O-])c1-c1ccccc1 (optimized conformer: 74.60758745074465 kcal/mol)

>  <smiles>  (66) 
CS(=O)(=O)CCn1nc(C(=O)O)c(Cc2ccccc2O)c1-c1ccccc1

>  <score_type>  (66) 
oracle

>  <origin>  (66) 
adg

>  <m_score__min__energy>  (66) 
-10.960000000000001

>  <m_primary>  (66) 
energy

$$$$
66:0
     RDKit          3D

 41 43  0  0  0  0  0  0  0  0999 V2000
   57.6970   21.8540   45.9880 C   0  0  0  0  0  0  0  0  0  0  0  0
   56.9640   23.1320   45.9550 N   0  0  0  0  0  0  0  0  0  0  0  0
   55.7310   23.2350   46.5450 C   0  0  0  0  0  0  0  0  0  0  0  0
   55.1950   22.2390   47.1030 O   0  0  0  0  0  0  0  0  0  0  0  0
   55.0700   24.4200   46.5450 N   0  0  0  0  0  0  0  0  0  0  0  0
   55.5970   25.5280   45.9710 C   0  0  0  0  0  0  0  0  0  0  0  0
   54.8740   26.7150   45.9920 O   0  0  0  0  0  0  0  0  0  0  0  0
   56.8520   25.4660   45.3600 C   0  0  0  0  0  0  0  0  0  0  0  0
   57.4370   26.6860   44.7570 C   0  0  0  0  0  0  0  0  0  0  0  0
   57.5830   27.8660   45.4000 C   0  0  0  0  0  0  0  0  0  0  0  0
   56.8570   29.0880   44.9770 C   0  0  0  0  0  0  0  0  0  0  0  0
   55.6160   29.1930   45.1780 O   0  0  0  0  0  0  0  0  0  0  0  0
   57.5860   30.1770   44.3970 N   0  0  0  0  0  0  0  0  0  0  0  0
   57.8840   31.4260   45.0350 C   0  0  0  0  0  0  0  0  0  0  0  0
   57.0310   32.5400   44.9230 C   0  0  0  0  0  0  0  0  0  0  0  0
   57.3700   33.7500   45.5390 C   0  0  0  0  0  0  0  0  0  0  0  0
   58.5660   33.8620   46.2540 C   0  0  0  0  0  0  0  0  0  0  0  0
   58.9000   35.0640   46.8660 O   0  0  0  0  0  0  0  0  0  0  0  0
   59.4280   32.7660   46.3490 C   0  0  0  0  0  0  0  0  0  0  0  0
   59.0910   31.5550   45.7350 C   0  0  0  0  0  0  0  0  0  0  0  0
   58.4650   27.9400   46.5960 C   0  0  0  0  0  0  0  0  0  0  0  0
   58.4020   29.0500   47.4580 C   0  0  0  0  0  0  0  0  0  0  0  0
   59.2350   29.1260   48.5780 C   0  0  0  0  0  0  0  0  0  0  0  0
   60.1380   28.0960   48.8500 C   0  0  0  0  0  0  0  0  0  0  0  0
   60.2120   26.9900   48.0010 C   0  0  0  0  0  0  0  0  0  0  0  0
   59.3820   26.9090   46.8790 C   0  0  0  0  0  0  0  0  0  0  0  0
   57.5490   24.2440   45.4020 C   0  0  0  0  0  0  0  0  0  0  0  0
   58.7240   24.1810   44.9410 O   0  0  0  0  0  0  0  0  0  0  0  0
   57.8678   21.5562   47.0330 H   0  0  0  0  0  0  0  0  0  0  0  0
   57.1061   21.0791   45.4778 H   0  0  0  0  0  0  0  0  0  0  0  0
   58.6643   21.9728   45.4778 H   0  0  0  0  0  0  0  0  0  0  0  0
   57.7765   26.6276   43.7123 H   0  0  0  0  0  0  0  0  0  0  0  0
   56.0956   32.4593   44.3499 H   0  0  0  0  0  0  0  0  0  0  0  0
   56.6942   34.6144   45.4604 H   0  0  0  0  0  0  0  0  0  0  0  0
   60.3718   32.8556   46.9068 H   0  0  0  0  0  0  0  0  0  0  0  0
   59.7780   30.6985   45.8022 H   0  0  0  0  0  0  0  0  0  0  0  0
   57.6922   29.8640   47.2492 H   0  0  0  0  0  0  0  0  0  0  0  0
   59.1792   29.9982   49.2459 H   0  0  0  0  0  0  0  0  0  0  0  0
   60.7910   28.1560   49.7332 H   0  0  0  0  0  0  0  0  0  0  0  0
   60.9251   26.1804   48.2155 H   0  0  0  0  0  0  0  0  0  0  0  0
   59.4454   26.0354   46.2136 H   0  0  0  0  0  0  0  0  0  0  0  0
  1  2  1  0
  2  3  1  0
  3  4  2  0
  3  5  1  0
  5  6  1  0
  6  7  1  0
  6  8  2  0
  8  9  1  0
  9 10  2  3
 10 11  1  0
 11 12  2  0
 11 13  1  0
 13 14  1  0
 14 15  2  0
 15 16  1  0
 16 17  2  0
 17 18  1  0
 17 19  1  0
 19 20  2  0
 10 21  1  0
 21 22  2  0
 22 23  1  0
 23 24  2  0
 24 25  1  0
 25 26  2  0
  8 27  1  0
 27 28  2  0
 27  2  1  0
 20 14  1  0
 26 21  1  0
  1 29  1  0
  1 30  1  0
  1 31  1  0
  9 32  1  0
 15 33  1  0
 16 34  1  0
 19 35  1  0
 20 36  1  0
 22 37  1  0
 23 38  1  0
 24 39  1  0
 25 40  1  0
 26 41  1  0
M  CHG  4   5  -1   7  -1  13  -1  18  -1
M  END
>  <UniqueID>  (67) 
62

>  <SMILES>  (67) 
Cn1c(=O)[n-]c([O-])c(C=C(C(=O)[N-]c2ccc([O-])cc2)c2ccccc2)c1=O

>  <Energy>  (67) 
66.79902494933093

>  <Genealogy>  (67) 
Cn1c(=O)[n-]c([O-])c(C=C(C(=O)[N-]c2ccc([O-])cc2)c2ccccc2)c1=O (protonated)
Cn1c(=O)[n-]c([O-])c(C=C(C(=O)[N-]c2ccc([O-])cc2)c2ccccc2)c1=O (3D coordinates assigned)
Cn1c(=O)[n-]c([O-])c(C=C(C(=O)[N-]c2ccc([O-])cc2)c2ccccc2)c1=O (optimized conformer: 66.79902494933093 kcal/mol)

>  <smiles>  (67) 
Cn1c(=O)[nH]c(O)c(C=C(C(=O)Nc2ccc(O)cc2)c2ccccc2)c1=O

>  <score_type>  (67) 
oracle

>  <origin>  (67) 
adg

>  <m_score__min__energy>  (67) 
-15.94

>  <m_primary>  (67) 
energy

$$$$
67:0
     RDKit          3D

 51 53  0  0  0  0  0  0  0  0999 V2000
   56.7100   30.7310   43.0390 C   0  0  0  0  0  0  0  0  0  0  0  0
   57.9630   31.6010   42.9900 C   0  0  0  0  0  0  0  0  0  0  0  0
   57.7570   32.9040   43.7720 C   0  0  0  0  0  0  0  0  0  0  0  0
   57.7510   32.6180   45.5410 S   0  0  0  0  0  0  0  0  0  0  0  0
   56.6500   33.4060   46.1910 O   0  0  0  0  0  0  0  0  0  0  0  0
   59.0710   33.0840   46.0890 O   0  0  0  0  0  0  0  0  0  0  0  0
   57.5660   30.9320   45.9100 N   0  0  0  0  0  0  0  0  0  0  0  0
   58.4990   30.2480   46.7500 C   0  0  0  0  0  0  0  0  0  0  0  0
   58.9260   30.8640   47.9350 C   0  0  0  0  0  0  0  0  0  0  0  0
   59.8630   30.2380   48.7580 C   0  0  0  0  0  0  0  0  0  0  0  0
   60.3700   28.9860   48.4110 C   0  0  0  0  0  0  0  0  0  0  0  0
   59.9320   28.3500   47.2470 C   0  0  0  0  0  0  0  0  0  0  0  0
   58.9850   28.9660   46.4080 C   0  0  0  0  0  0  0  0  0  0  0  0
   58.4800   28.2270   45.1890 C   0  0  0  0  0  0  0  0  0  0  0  0
   57.5100   27.1280   45.5750 C   0  0  0  0  0  0  0  0  0  0  0  0
   56.1260   27.3540   45.5970 C   0  0  0  0  0  0  0  0  0  0  0  0
   55.5950   28.5900   45.2470 O   0  0  0  0  0  0  0  0  0  0  0  0
   55.2840   26.3570   45.9570 N   0  0  0  0  0  0  0  0  0  0  0  0
   55.7400   25.1270   46.2970 C   0  0  0  0  0  0  0  0  0  0  0  0
   54.9040   24.2410   46.6240 O   0  0  0  0  0  0  0  0  0  0  0  0
   57.0850   24.8560   46.2830 N   0  0  0  0  0  0  0  0  0  0  0  0
   57.5810   23.5060   46.6190 C   0  0  0  0  0  0  0  0  0  0  0  0
   57.2790   22.5380   45.5030 C   0  0  0  0  0  0  0  0  0  0  0  0
   57.3470   22.9520   44.1620 C   0  0  0  0  0  0  0  0  0  0  0  0
   57.0390   22.0590   43.1310 C   0  0  0  0  0  0  0  0  0  0  0  0
   56.6580   20.7480   43.4300 C   0  0  0  0  0  0  0  0  0  0  0  0
   56.5850   20.3280   44.7610 C   0  0  0  0  0  0  0  0  0  0  0  0
   56.8920   21.2190   45.7960 C   0  0  0  0  0  0  0  0  0  0  0  0
   57.9700   25.8410   45.9160 C   0  0  0  0  0  0  0  0  0  0  0  0
   59.2090   25.5980   45.8800 O   0  0  0  0  0  0  0  0  0  0  0  0
   56.4363   30.5410   44.0873 H   0  0  0  0  0  0  0  0  0  0  0  0
   55.8831   31.2502   42.5325 H   0  0  0  0  0  0  0  0  0  0  0  0
   56.9075   29.7747   42.5325 H   0  0  0  0  0  0  0  0  0  0  0  0
   58.8041   31.0458   43.4308 H   0  0  0  0  0  0  0  0  0  0  0  0
   58.1753   31.8516   41.9402 H   0  0  0  0  0  0  0  0  0  0  0  0
   58.5719   33.6007   43.5258 H   0  0  0  0  0  0  0  0  0  0  0  0
   56.7811   33.3248   43.4883 H   0  0  0  0  0  0  0  0  0  0  0  0
   56.6450   30.4800   45.7180 H   0  0  0  0  0  0  0  0  0  0  0  0
   58.5200   31.8465   48.2175 H   0  0  0  0  0  0  0  0  0  0  0  0
   60.2018   30.7321   49.6806 H   0  0  0  0  0  0  0  0  0  0  0  0
   61.1164   28.4983   49.0553 H   0  0  0  0  0  0  0  0  0  0  0  0
   60.3308   27.3591   46.9840 H   0  0  0  0  0  0  0  0  0  0  0  0
   57.9690   28.9390   44.5243 H   0  0  0  0  0  0  0  0  0  0  0  0
   59.3402   27.7683   44.6795 H   0  0  0  0  0  0  0  0  0  0  0  0
   58.6689   23.5490   46.7760 H   0  0  0  0  0  0  0  0  0  0  0  0
   57.0784   23.1606   47.5345 H   0  0  0  0  0  0  0  0  0  0  0  0
   57.6440   23.9836   43.9221 H   0  0  0  0  0  0  0  0  0  0  0  0
   57.0967   22.3888   42.0832 H   0  0  0  0  0  0  0  0  0  0  0  0
   56.4156   20.0468   42.6179 H   0  0  0  0  0  0  0  0  0  0  0  0
   56.2859   19.2958   44.9956 H   0  0  0  0  0  0  0  0  0  0  0  0
   56.8301   20.8857   46.8425 H   0  0  0  0  0  0  0  0  0  0  0  0
  1  2  1  0
  2  3  1  0
  3  4  1  0
  4  5  2  0
  4  6  2  0
  4  7  1  0
  7  8  1  0
  8  9  2  0
  9 10  1  0
 10 11  2  0
 11 12  1  0
 12 13  2  0
 13 14  1  0
 14 15  1  0
 15 16  2  0
 16 17  1  0
 16 18  1  0
 18 19  1  0
 19 20  2  0
 19 21  1  0
 21 22  1  0
 22 23  1  0
 23 24  2  0
 24 25  1  0
 25 26  2  0
 26 27  1  0
 27 28  2  0
 21 29  1  0
 29 30  2  0
 13  8  1  0
 29 15  1  0
 28 23  1  0
  1 31  1  0
  1 32  1  0
  1 33  1  0
  2 34  1  0
  2 35  1  0
  3 36  1  0
  3 37  1  0
  7 38  1  0
  9 39  1  0
 10 40  1  0
 11 41  1  0
 12 42  1  0
 14 43  1  0
 14 44  1  0
 22 45  1  0
 22 46  1  0
 24 47  1  0
 25 48  1  0
 26 49  1  0
 27 50  1  0
 28 51  1  0
M  CHG  2  17  -1  18  -1
M  END
>  <UniqueID>  (68) 
63

>  <SMILES>  (68) 
CCCS(=O)(=O)Nc1ccccc1Cc1c([O-])[n-]c(=O)n(Cc2ccccc2)c1=O

>  <Energy>  (68) 
57.56683970962635

>  <Genealogy>  (68) 
CCCS(=O)(=O)Nc1ccccc1Cc1c([O-])[n-]c(=O)n(Cc2ccccc2)c1=O (protonated)
CCCS(=O)(=O)Nc1ccccc1Cc1c([O-])[n-]c(=O)n(Cc2ccccc2)c1=O (3D coordinates assigned)
CCCS(=O)(=O)Nc1ccccc1Cc1c([O-])[n-]c(=O)n(Cc2ccccc2)c1=O (optimized conformer: 57.56683970962635 kcal/mol)

>  <smiles>  (68) 
CCCS(=O)(=O)Nc1ccccc1Cc1c(O)[nH]c(=O)n(Cc2ccccc2)c1=O

>  <score_type>  (68) 
oracle

>  <origin>  (68) 
adg

>  <m_score__min__energy>  (68) 
-14.18

>  <m_primary>  (68) 
energy

$$$$
68:0
     RDKit          3D

 32 33  0  0  0  0  0  0  0  0999 V2000
   54.3940   26.7100   45.0870 H   0  0  0  0  0  0  0  0  0  0  0  0
   54.7320   26.3050   45.9890 N   0  0  0  0  0  0  0  0  0  0  0  0
   55.9850   26.3290   46.3090 C   0  0  0  0  0  0  0  0  0  0  0  0
   56.7930   27.3190   45.8440 N   0  0  0  0  0  0  0  0  0  0  0  0
   58.1110   27.3640   46.1690 C   0  0  0  0  0  0  0  0  0  0  0  0
   58.8990   28.4020   45.6610 O   0  0  0  0  0  0  0  0  0  0  0  0
   58.3900   29.6110   45.1590 C   0  0  0  0  0  0  0  0  0  0  0  0
   57.5570   29.5540   44.0350 C   0  0  0  0  0  0  0  0  0  0  0  0
   57.3320   28.5821   43.5715 H   0  0  0  0  0  0  0  0  0  0  0  0
   57.0090   30.7220   43.4970 C   0  0  0  0  0  0  0  0  0  0  0  0
   56.3495   30.6655   42.6184 H   0  0  0  0  0  0  0  0  0  0  0  0
   57.2980   31.9610   44.0740 C   0  0  0  0  0  0  0  0  0  0  0  0
   56.8596   32.8786   43.6546 H   0  0  0  0  0  0  0  0  0  0  0  0
   58.1440   32.0350   45.1840 C   0  0  0  0  0  0  0  0  0  0  0  0
   58.3765   33.0124   45.6320 H   0  0  0  0  0  0  0  0  0  0  0  0
   58.6960   30.8700   45.7270 C   0  0  0  0  0  0  0  0  0  0  0  0
   59.5150   30.9800   46.8030 F   0  0  0  0  0  0  0  0  0  0  0  0
   58.6550   26.3860   47.0220 C   0  0  0  0  0  0  0  0  0  0  0  0
   60.1020   26.4090   47.4500 C   0  0  0  0  0  0  0  0  0  0  0  0
   60.4507   25.3753   47.5908 H   0  0  0  0  0  0  0  0  0  0  0  0
   60.6880   26.9136   46.6677 H   0  0  0  0  0  0  0  0  0  0  0  0
   60.2810   27.1800   48.7630 C   0  0  0  0  0  0  0  0  0  0  0  0
   59.5141   26.8521   49.4801 H   0  0  0  0  0  0  0  0  0  0  0  0
   61.2881   26.9751   49.1552 H   0  0  0  0  0  0  0  0  0  0  0  0
   60.1430   28.6880   48.5370 C   0  0  0  0  0  0  0  0  0  0  0  0
   60.7113   29.2248   49.3108 H   0  0  0  0  0  0  0  0  0  0  0  0
   60.5356   28.9388   47.5405 H   0  0  0  0  0  0  0  0  0  0  0  0
   58.7950   29.0670   48.6060 O   0  0  0  0  0  0  0  0  0  0  0  0
   58.4440   29.0370   47.6750 H   0  0  0  0  0  0  0  0  0  0  0  0
   57.8030   25.3700   47.4770 C   0  0  0  0  0  0  0  0  0  0  0  0
   58.1962   24.5758   48.1286 H   0  0  0  0  0  0  0  0  0  0  0  0
   56.4940   25.3630   47.1160 N   0  0  0  0  0  0  0  0  0  0  0  0
  1  2  1  0
  2  3  2  0
  3  4  1  0
  4  5  2  0
  5  6  1  0
  6  7  1  0
  7  8  2  0
  8  9  1  0
  8 10  1  0
 10 11  1  0
 10 12  2  0
 12 13  1  0
 12 14  1  0
 14 15  1  0
 14 16  2  0
 16 17  1  0
  5 18  1  0
 18 19  1  0
 19 20  1  0
 19 21  1  0
 19 22  1  0
 22 23  1  0
 22 24  1  0
 22 25  1  0
 25 26  1  0
 25 27  1  0
 25 28  1  0
 28 29  1  0
 18 30  2  0
 30 31  1  0
 30 32  1  0
 32  3  1  0
 16  7  1  0
M  CHG  1  32  -1
M  END
>  <UniqueID>  (69) 
64

>  <SMILES>  (69) 
[H]/N=c1\nc(Oc2ccccc2F)c(CCCO)c[n-]1

>  <Energy>  (69) 
38.172439643865275

>  <Genealogy>  (69) 
N=c1nc(Oc2ccccc2F)c(CCCO)c[n-]1 (protonated)
[H]/N=c1\nc(Oc2ccccc2F)c(CCCO)c[n-]1 (cis-trans isomerization)
[H]/N=c1\nc(Oc2ccccc2F)c(CCCO)c[n-]1 (3D coordinates assigned)
[H]/N=c1\nc(Oc2ccccc2F)c(CCCO)c[n-]1 (optimized conformer: 38.172439643865275 kcal/mol)

>  <smiles>  (69) 
N=c1nc(Oc2ccccc2F)c(CCCO)c[nH]1

>  <score_type>  (69) 
oracle

>  <origin>  (69) 
adg

>  <m_score__min__energy>  (69) 
-7.9000000000000004

>  <m_primary>  (69) 
energy

$$$$
69:0
     RDKit          3D

 41 42  0  0  0  0  0  0  0  0999 V2000
   55.1580   26.6980   46.0050 N   0  0  0  0  0  0  0  0  0  0  0  0
   56.8720   26.9170   46.0630 S   0  0  0  0  0  0  0  0  0  0  0  0
   57.5230   25.9630   45.1020 O   0  0  0  0  0  0  0  0  0  0  0  0
   57.3670   26.6330   47.4530 O   0  0  0  0  0  0  0  0  0  0  0  0
   57.2930   28.5930   45.5980 C   0  0  0  0  0  0  0  0  0  0  0  0
   56.2000   29.2360   44.7460 C   0  0  0  0  0  0  0  0  0  0  0  0
   56.2540   30.6870   44.8680 N   0  0  0  0  0  0  0  0  0  0  0  0
   57.2800   31.4810   44.2650 C   0  0  0  0  0  0  0  0  0  0  0  0
   58.1130   30.9550   43.4790 O   0  0  0  0  0  0  0  0  0  0  0  0
   57.3520   32.9480   44.5560 C   0  0  0  0  0  0  0  0  0  0  0  0
   58.4650   33.2360   45.5280 C   0  0  0  0  0  0  0  0  0  0  0  0
   58.8890   34.5550   45.7540 C   0  0  0  0  0  0  0  0  0  0  0  0
   59.8860   34.8250   46.6960 C   0  0  0  0  0  0  0  0  0  0  0  0
   60.4600   33.7820   47.4420 C   0  0  0  0  0  0  0  0  0  0  0  0
   61.4920   34.0330   48.4120 N   0  0  0  0  0  0  0  0  0  0  0  0
   62.8510   33.5890   48.2600 C   0  0  0  0  0  0  0  0  0  0  0  0
   63.2920   33.3130   47.1100 O   0  0  0  0  0  0  0  0  0  0  0  0
   63.7570   33.4990   49.4290 C   0  0  0  0  0  0  0  0  0  0  0  0
   63.4710   34.2170   50.6050 C   0  0  0  0  0  0  0  0  0  0  0  0
   64.3370   34.1300   51.6980 C   0  0  0  0  0  0  0  0  0  0  0  0
   65.4540   33.3620   51.6250 N   0  0  0  0  0  0  0  0  0  0  0  0
   65.7650   32.6630   50.5010 C   0  0  0  0  0  0  0  0  0  0  0  0
   64.9270   32.7200   49.3850 C   0  0  0  0  0  0  0  0  0  0  0  0
   60.0460   32.4620   47.2030 C   0  0  0  0  0  0  0  0  0  0  0  0
   59.0500   32.1920   46.2600 C   0  0  0  0  0  0  0  0  0  0  0  0
   54.7680   27.0870   46.8930 H   0  0  0  0  0  0  0  0  0  0  0  0
   57.4319   29.1916   46.5104 H   0  0  0  0  0  0  0  0  0  0  0  0
   58.2171   28.5610   45.0022 H   0  0  0  0  0  0  0  0  0  0  0  0
   56.3475   28.9543   43.6930 H   0  0  0  0  0  0  0  0  0  0  0  0
   55.2186   28.8830   45.0957 H   0  0  0  0  0  0  0  0  0  0  0  0
   57.5380   33.4946   43.6197 H   0  0  0  0  0  0  0  0  0  0  0  0
   56.3985   33.2712   44.9992 H   0  0  0  0  0  0  0  0  0  0  0  0
   58.4343   35.3806   45.1868 H   0  0  0  0  0  0  0  0  0  0  0  0
   60.2231   35.8601   46.8541 H   0  0  0  0  0  0  0  0  0  0  0  0
   61.2700   34.6760   49.2040 H   0  0  0  0  0  0  0  0  0  0  0  0
   62.5693   34.8442   50.6635 H   0  0  0  0  0  0  0  0  0  0  0  0
   64.1130   34.6856   52.6206 H   0  0  0  0  0  0  0  0  0  0  0  0
   66.6787   32.0512   50.4705 H   0  0  0  0  0  0  0  0  0  0  0  0
   65.1814   32.1574   48.4746 H   0  0  0  0  0  0  0  0  0  0  0  0
   60.5084   31.6348   47.7614 H   0  0  0  0  0  0  0  0  0  0  0  0
   58.7232   31.1553   46.0910 H   0  0  0  0  0  0  0  0  0  0  0  0
  1  2  1  0
  2  3  2  0
  2  4  2  0
  2  5  1  0
  5  6  1  0
  6  7  1  0
  7  8  1  0
  8  9  2  0
  8 10  1  0
 10 11  1  0
 11 12  2  0
 12 13  1  0
 13 14  2  0
 14 15  1  0
 15 16  1  0
 16 17  2  0
 16 18  1  0
 18 19  2  0
 19 20  1  0
 20 21  2  0
 21 22  1  0
 22 23  2  0
 14 24  1  0
 24 25  2  0
 25 11  1  0
 23 18  1  0
  1 26  1  0
  5 27  1  0
  5 28  1  0
  6 29  1  0
  6 30  1  0
 10 31  1  0
 10 32  1  0
 12 33  1  0
 13 34  1  0
 15 35  1  0
 19 36  1  0
 20 37  1  0
 22 38  1  0
 23 39  1  0
 24 40  1  0
 25 41  1  0
M  CHG  2   1  -1   7  -1
M  END
>  <UniqueID>  (70) 
65

>  <SMILES>  (70) 
[NH-]S(=O)(=O)CC[N-]C(=O)Cc1ccc(NC(=O)c2ccncc2)cc1

>  <Energy>  (70) 
35.295967786719935

>  <Genealogy>  (70) 
[NH-]S(=O)(=O)CC[N-]C(=O)Cc1ccc(NC(=O)c2ccncc2)cc1 (protonated)
[NH-]S(=O)(=O)CC[N-]C(=O)Cc1ccc(NC(=O)c2ccncc2)cc1 (3D coordinates assigned)
[NH-]S(=O)(=O)CC[N-]C(=O)Cc1ccc(NC(=O)c2ccncc2)cc1 (optimized conformer: 35.295967786719935 kcal/mol)

>  <smiles>  (70) 
NS(=O)(=O)CCNC(=O)Cc1ccc(NC(=O)c2ccncc2)cc1

>  <score_type>  (70) 
oracle

>  <origin>  (70) 
adg

>  <m_score__min__energy>  (70) 
-12.91

>  <m_primary>  (70) 
energy

$$$$
70:0
     RDKit          3D

 68 72  0  0  0  0  0  0  0  0999 V2000
   55.7530   28.9600   44.8800 O   0  0  0  0  0  0  0  0  0  0  0  0
   56.9470   28.7670   45.2360 C   0  0  0  0  0  0  0  0  0  0  0  0
   58.0530   29.4800   44.5230 C   0  0  0  0  0  0  0  0  0  0  0  0
   58.3180   30.7820   45.1550 N   0  0  0  0  0  0  0  0  0  0  0  0
   59.4670   30.9640   45.8210 N   0  0  0  0  0  0  0  0  0  0  0  0
   59.7680   32.1440   46.4420 C   0  0  0  0  0  0  0  0  0  0  0  0
   61.0370   32.3130   47.1140 N   0  0  0  0  0  0  0  0  0  0  0  0
   61.4330   33.6350   47.6300 C   0  0  0  0  0  0  0  0  0  0  0  0
   62.3350   33.5020   48.8650 C   0  0  0  0  0  0  0  0  0  0  0  0
   63.3820   32.4880   48.6720 N   0  0  0  0  0  0  0  0  0  0  0  0
   64.3660   32.2770   49.7000 C   0  0  0  0  0  0  0  0  0  0  0  0
   64.1400   31.3270   50.7110 C   0  0  0  0  0  0  0  0  0  0  0  0
   65.0980   31.1170   51.7080 C   0  0  0  0  0  0  0  0  0  0  0  0
   66.2860   31.8530   51.7050 C   0  0  0  0  0  0  0  0  0  0  0  0
   66.5170   32.7990   50.7040 C   0  0  0  0  0  0  0  0  0  0  0  0
   65.5620   33.0140   49.7060 C   0  0  0  0  0  0  0  0  0  0  0  0
   63.4160   31.6910   47.4420 C   0  0  0  0  0  0  0  0  0  0  0  0
   62.0050   31.2050   47.1070 C   0  0  0  0  0  0  0  0  0  0  0  0
   58.8390   33.1890   46.3890 C   0  0  0  0  0  0  0  0  0  0  0  0
   57.6380   33.0030   45.7180 C   0  0  0  0  0  0  0  0  0  0  0  0
   57.3820   31.7820   45.0990 C   0  0  0  0  0  0  0  0  0  0  0  0
   56.2880   31.6130   44.4950 O   0  0  0  0  0  0  0  0  0  0  0  0
   57.2640   27.7910   46.2380 N   0  0  0  0  0  0  0  0  0  0  0  0
   58.3780   27.8340   47.1390 C   0  0  0  0  0  0  0  0  0  0  0  0
   59.3590   26.8390   47.0420 C   0  0  0  0  0  0  0  0  0  0  0  0
   60.4620   26.8490   47.8990 C   0  0  0  0  0  0  0  0  0  0  0  0
   60.6030   27.8640   48.8480 C   0  0  0  0  0  0  0  0  0  0  0  0
   59.6490   28.8850   48.9340 C   0  0  0  0  0  0  0  0  0  0  0  0
   59.8380   30.1600   50.1350 S   0  0  0  0  0  0  0  0  0  0  0  0
   61.1590   30.8490   49.9350 O   0  0  0  0  0  0  0  0  0  0  0  0
   59.8370   29.5270   51.4980 O   0  0  0  0  0  0  0  0  0  0  0  0
   58.5100   31.2960   50.0160 N   0  0  0  0  0  0  0  0  0  0  0  0
   58.9610   32.6680   49.7120 C   0  0  0  0  0  0  0  0  0  0  0  0
   59.4350   33.4140   50.9670 C   0  0  0  0  0  0  0  0  0  0  0  0
   58.4290   33.4140   51.9580 O   0  0  0  0  0  0  0  0  0  0  0  0
   58.1680   32.0880   52.3650 C   0  0  0  0  0  0  0  0  0  0  0  0
   57.6270   31.2490   51.1950 C   0  0  0  0  0  0  0  0  0  0  0  0
   58.5380   28.8700   48.0770 C   0  0  0  0  0  0  0  0  0  0  0  0
   58.9647   28.8658   44.5631 H   0  0  0  0  0  0  0  0  0  0  0  0
   57.7536   29.6462   43.4777 H   0  0  0  0  0  0  0  0  0  0  0  0
   60.1510   30.1760   45.8830 H   0  0  0  0  0  0  0  0  0  0  0  0
   61.9785   34.1781   46.8442 H   0  0  0  0  0  0  0  0  0  0  0  0
   60.5239   34.1820   47.9202 H   0  0  0  0  0  0  0  0  0  0  0  0
   62.8124   34.4730   49.0630 H   0  0  0  0  0  0  0  0  0  0  0  0
   61.7084   33.1882   49.7129 H   0  0  0  0  0  0  0  0  0  0  0  0
   63.2058   30.7463   50.7180 H   0  0  0  0  0  0  0  0  0  0  0  0
   64.9161   30.3712   52.4959 H   0  0  0  0  0  0  0  0  0  0  0  0
   67.0383   31.6874   52.4902 H   0  0  0  0  0  0  0  0  0  0  0  0
   67.4531   33.3766   50.7008 H   0  0  0  0  0  0  0  0  0  0  0  0
   65.7477   33.7632   48.9223 H   0  0  0  0  0  0  0  0  0  0  0  0
   63.7962   32.3093   46.6155 H   0  0  0  0  0  0  0  0  0  0  0  0
   64.0767   30.8235   47.5867 H   0  0  0  0  0  0  0  0  0  0  0  0
   62.0135   30.7441   46.1082 H   0  0  0  0  0  0  0  0  0  0  0  0
   61.7004   30.4759   47.8723 H   0  0  0  0  0  0  0  0  0  0  0  0
   59.0587   34.1508   46.8754 H   0  0  0  0  0  0  0  0  0  0  0  0
   56.8950   33.8130   45.6756 H   0  0  0  0  0  0  0  0  0  0  0  0
   59.2603   26.0453   46.2868 H   0  0  0  0  0  0  0  0  0  0  0  0
   61.2209   26.0561   47.8263 H   0  0  0  0  0  0  0  0  0  0  0  0
   61.4662   27.8612   49.5299 H   0  0  0  0  0  0  0  0  0  0  0  0
   59.7935   32.6165   48.9949 H   0  0  0  0  0  0  0  0  0  0  0  0
   58.1061   33.2197   49.2940 H   0  0  0  0  0  0  0  0  0  0  0  0
   60.3330   32.9181   51.3642 H   0  0  0  0  0  0  0  0  0  0  0  0
   59.6627   34.4551   50.6945 H   0  0  0  0  0  0  0  0  0  0  0  0
   59.1003   31.6343   52.7322 H   0  0  0  0  0  0  0  0  0  0  0  0
   57.4098   32.1086   53.1617 H   0  0  0  0  0  0  0  0  0  0  0  0
   57.5319   30.2037   51.5239 H   0  0  0  0  0  0  0  0  0  0  0  0
   56.6534   31.6690   50.9024 H   0  0  0  0  0  0  0  0  0  0  0  0
   57.7883   29.6726   48.1390 H   0  0  0  0  0  0  0  0  0  0  0  0
  1  2  2  0
  2  3  1  0
  3  4  1  0
  4  5  1  0
  5  6  2  0
  6  7  1  0
  7  8  1  0
  8  9  1  0
  9 10  1  0
 10 11  1  0
 11 12  2  0
 12 13  1  0
 13 14  2  0
 14 15  1  0
 15 16  2  0
 10 17  1  0
 17 18  1  0
  6 19  1  0
 19 20  2  0
 20 21  1  0
 21 22  2  0
  2 23  1  0
 23 24  1  0
 24 25  2  0
 25 26  1  0
 26 27  2  0
 27 28  1  0
 28 29  1  0
 29 30  2  0
 29 31  2  0
 29 32  1  0
 32 33  1  0
 33 34  1  0
 34 35  1  0
 35 36  1  0
 36 37  1  0
 28 38  2  0
 21  4  1  0
 38 24  1  0
 18  7  1  0
 37 32  1  0
 16 11  1  0
  3 39  1  0
  3 40  1  0
  5 41  1  0
  8 42  1  0
  8 43  1  0
  9 44  1  0
  9 45  1  0
 12 46  1  0
 13 47  1  0
 14 48  1  0
 15 49  1  0
 16 50  1  0
 17 51  1  0
 17 52  1  0
 18 53  1  0
 18 54  1  0
 19 55  1  0
 20 56  1  0
 25 57  1  0
 26 58  1  0
 27 59  1  0
 33 60  1  0
 33 61  1  0
 34 62  1  0
 34 63  1  0
 36 64  1  0
 36 65  1  0
 37 66  1  0
 37 67  1  0
 38 68  1  0
M  CHG  2   5   1  23  -1
M  END
>  <UniqueID>  (71) 
66

>  <SMILES>  (71) 
O=C(Cn1[nH+]c(N2CCN(c3ccccc3)CC2)ccc1=O)[N-]c1cccc(S(=O)(=O)N2CCOCC2)c1

>  <Energy>  (71) 
88.4611325751795

>  <Genealogy>  (71) 
O=C(Cn1[nH+]c(N2CCN(c3ccccc3)CC2)ccc1=O)[N-]c1cccc(S(=O)(=O)N2CCOCC2)c1 (protonated)
O=C(Cn1[nH+]c(N2CCN(c3ccccc3)CC2)ccc1=O)[N-]c1cccc(S(=O)(=O)N2CCOCC2)c1 (3D coordinates assigned)
O=C(Cn1[nH+]c(N2CCN(c3ccccc3)CC2)ccc1=O)[N-]c1cccc(S(=O)(=O)N2CCOCC2)c1 (nonaromatic ring conformer: 88.4611325751795 kcal/mol)

>  <smiles>  (71) 
O=C(Cn1nc(N2CCN(c3ccccc3)CC2)ccc1=O)Nc1cccc(S(=O)(=O)N2CCOCC2)c1

>  <score_type>  (71) 
oracle

>  <origin>  (71) 
adg

>  <m_score__min__energy>  (71) 
-11.369999999999999

>  <m_primary>  (71) 
energy

$$$$
71:0
     RDKit          3D

 43 46  0  0  0  0  0  0  0  0999 V2000
   61.9510   30.2820   50.3960 C   0  0  0  0  0  0  0  0  0  0  0  0
   61.5210   31.0330   49.2200 N   0  0  0  0  0  0  0  0  0  0  0  0
   60.3420   30.8950   48.5690 C   0  0  0  0  0  0  0  0  0  0  0  0
   60.2950   31.7530   47.4730 C   0  0  0  0  0  0  0  0  0  0  0  0
   59.1720   31.9080   46.5290 C   0  0  0  0  0  0  0  0  0  0  0  0
   58.4900   30.9240   45.9250 C   0  0  0  0  0  0  0  0  0  0  0  0
   58.7960   29.4750   45.9580 C   0  0  0  0  0  0  0  0  0  0  0  0
   60.1260   29.0220   45.9370 C   0  0  0  0  0  0  0  0  0  0  0  0
   60.4050   27.6540   45.9730 C   0  0  0  0  0  0  0  0  0  0  0  0
   59.3620   26.7260   46.0190 C   0  0  0  0  0  0  0  0  0  0  0  0
   58.0310   27.1640   46.0190 C   0  0  0  0  0  0  0  0  0  0  0  0
   56.7140   25.9990   46.0970 S   0  0  0  0  0  0  0  0  0  0  0  0
   56.8680   24.8460   44.7520 C   0  0  0  0  0  0  0  0  0  0  0  0
   56.7670   25.2590   47.4030 O   0  0  0  0  0  0  0  0  0  0  0  0
   55.3940   26.7110   45.9990 O   0  0  0  0  0  0  0  0  0  0  0  0
   57.7510   28.5370   45.9910 C   0  0  0  0  0  0  0  0  0  0  0  0
   57.3850   31.5430   45.1870 C   0  0  0  0  0  0  0  0  0  0  0  0
   56.5420   30.9290   44.4780 O   0  0  0  0  0  0  0  0  0  0  0  0
   57.3920   32.9510   45.3500 N   0  0  0  0  0  0  0  0  0  0  0  0
   58.5070   33.1730   46.2000 C   0  0  0  0  0  0  0  0  0  0  0  0
   58.8210   34.3060   46.6500 O   0  0  0  0  0  0  0  0  0  0  0  0
   61.5040   32.4260   47.4690 C   0  0  0  0  0  0  0  0  0  0  0  0
   62.0360   33.3610   46.5810 C   0  0  0  0  0  0  0  0  0  0  0  0
   63.3330   33.8450   46.8300 C   0  0  0  0  0  0  0  0  0  0  0  0
   64.0690   33.3800   47.9410 C   0  0  0  0  0  0  0  0  0  0  0  0
   63.5170   32.4220   48.8100 C   0  0  0  0  0  0  0  0  0  0  0  0
   62.2250   31.9620   48.5430 C   0  0  0  0  0  0  0  0  0  0  0  0
   61.6439   30.8183   51.3060 H   0  0  0  0  0  0  0  0  0  0  0  0
   61.4871   29.2847   50.3840 H   0  0  0  0  0  0  0  0  0  0  0  0
   63.0459   30.1772   50.3840 H   0  0  0  0  0  0  0  0  0  0  0  0
   59.5375   30.2049   48.8632 H   0  0  0  0  0  0  0  0  0  0  0  0
   60.9511   29.7481   45.8920 H   0  0  0  0  0  0  0  0  0  0  0  0
   61.4486   27.3065   45.9651 H   0  0  0  0  0  0  0  0  0  0  0  0
   59.5859   25.6496   46.0553 H   0  0  0  0  0  0  0  0  0  0  0  0
   57.0036   23.8307   45.1531 H   0  0  0  0  0  0  0  0  0  0  0  0
   55.9576   24.8781   44.1355 H   0  0  0  0  0  0  0  0  0  0  0  0
   57.7381   25.1159   44.1355 H   0  0  0  0  0  0  0  0  0  0  0  0
   56.7065   28.8821   45.9949 H   0  0  0  0  0  0  0  0  0  0  0  0
   56.7190   33.6520   44.9680 H   0  0  0  0  0  0  0  0  0  0  0  0
   61.4585   33.7094   45.7120 H   0  0  0  0  0  0  0  0  0  0  0  0
   63.7767   34.5910   46.1543 H   0  0  0  0  0  0  0  0  0  0  0  0
   65.0806   33.7694   48.1283 H   0  0  0  0  0  0  0  0  0  0  0  0
   64.0851   32.0462   49.6737 H   0  0  0  0  0  0  0  0  0  0  0  0
  1  2  1  0
  2  3  1  0
  3  4  2  0
  4  5  1  0
  5  6  2  0
  6  7  1  0
  7  8  2  0
  8  9  1  0
  9 10  2  0
 10 11  1  0
 11 12  1  0
 12 13  1  0
 12 14  2  0
 12 15  2  0
 11 16  2  0
  6 17  1  0
 17 18  2  0
 17 19  1  0
 19 20  1  0
 20 21  2  0
  4 22  1  0
 22 23  2  0
 23 24  1  0
 24 25  2  0
 25 26  1  0
 26 27  2  0
 27  2  1  0
 20  5  1  0
 27 22  1  0
 16  7  1  0
  1 28  1  0
  1 29  1  0
  1 30  1  0
  3 31  1  0
  8 32  1  0
  9 33  1  0
 10 34  1  0
 13 35  1  0
 13 36  1  0
 13 37  1  0
 16 38  1  0
 19 39  1  0
 23 40  1  0
 24 41  1  0
 25 42  1  0
 26 43  1  0
M  END
>  <UniqueID>  (72) 
67

>  <SMILES>  (72) 
Cn1cc(C2=C(c3cccc(S(C)(=O)=O)c3)C(=O)NC2=O)c2ccccc21

>  <Energy>  (72) 
112.14837386369015

>  <Genealogy>  (72) 
Cn1cc(C2=C(c3cccc(S(C)(=O)=O)c3)C(=O)NC2=O)c2ccccc21 (3D coordinates assigned)
Cn1cc(C2=C(c3cccc(S(C)(=O)=O)c3)C(=O)NC2=O)c2ccccc21 (nonaromatic ring conformer: 112.14837386369015 kcal/mol)

>  <smiles>  (72) 
Cn1cc(C2=C(c3cccc(S(C)(=O)=O)c3)C(=O)NC2=O)c2ccccc21

>  <score_type>  (72) 
oracle

>  <origin>  (72) 
adg

>  <m_score__min__energy>  (72) 
-9.7899999999999991

>  <m_primary>  (72) 
energy

$$$$
72:0
     RDKit          3D

 45 48  0  0  0  0  0  0  0  0999 V2000
   57.1190   21.1867   43.1500 H   0  0  0  0  0  0  0  0  0  0  0  0
   56.8750   22.0330   43.8090 C   0  0  0  0  0  0  0  0  0  0  0  0
   57.5490   22.1900   45.0230 C   0  0  0  0  0  0  0  0  0  0  0  0
   58.3294   21.4720   45.3154 H   0  0  0  0  0  0  0  0  0  0  0  0
   57.2320   23.2590   45.8660 C   0  0  0  0  0  0  0  0  0  0  0  0
   57.7791   23.3924   46.8109 H   0  0  0  0  0  0  0  0  0  0  0  0
   56.2170   24.1640   45.5110 C   0  0  0  0  0  0  0  0  0  0  0  0
   55.8810   25.2790   46.3500 N   0  0  0  0  0  0  0  0  0  0  0  0
   56.4540   26.4460   46.3320 C   0  0  0  0  0  0  0  0  0  0  0  0
   57.6380   26.6130   46.9720 N   0  0  0  0  0  0  0  0  0  0  0  0
   58.2830   27.8090   46.9340 C   0  0  0  0  0  0  0  0  0  0  0  0
   59.4120   27.9820   47.5530 N   0  0  0  0  0  0  0  0  0  0  0  0
   56.8510   30.7650   44.3450 C   0  0  0  0  0  0  0  0  0  0  0  0
   57.0110   30.9290   42.9580 C   0  0  0  0  0  0  0  0  0  0  0  0
   56.5556   30.2067   42.2645 H   0  0  0  0  0  0  0  0  0  0  0  0
   57.7470   32.0070   42.4570 C   0  0  0  0  0  0  0  0  0  0  0  0
   57.8870   32.1203   41.3718 H   0  0  0  0  0  0  0  0  0  0  0  0
   58.3050   32.9410   43.3350 C   0  0  0  0  0  0  0  0  0  0  0  0
   58.8912   33.7844   42.9412 H   0  0  0  0  0  0  0  0  0  0  0  0
   58.1180   32.8030   44.7120 C   0  0  0  0  0  0  0  0  0  0  0  0
   58.5491   33.5436   45.4016 H   0  0  0  0  0  0  0  0  0  0  0  0
   57.3830   31.7240   45.2160 C   0  0  0  0  0  0  0  0  0  0  0  0
   57.2226   31.6288   46.3001 H   0  0  0  0  0  0  0  0  0  0  0  0
   57.7430   28.8380   46.2340 N   0  0  0  0  0  0  0  0  0  0  0  0
   56.5600   28.6860   45.5870 C   0  0  0  0  0  0  0  0  0  0  0  0
   56.0880   29.6750   44.8860 N   0  0  0  0  0  0  0  0  0  0  0  0
   59.6120   28.8760   48.6950 C   0  0  0  0  0  0  0  0  0  0  0  0
   60.5306   28.5851   49.2256 H   0  0  0  0  0  0  0  0  0  0  0  0
   58.7440   28.7950   49.3658 H   0  0  0  0  0  0  0  0  0  0  0  0
   59.7380   30.3040   48.2330 C   0  0  0  0  0  0  0  0  0  0  0  0
   60.7050   30.6660   47.2800 C   0  0  0  0  0  0  0  0  0  0  0  0
   61.3668   29.8987   46.8519 H   0  0  0  0  0  0  0  0  0  0  0  0
   60.8290   31.9980   46.8740 C   0  0  0  0  0  0  0  0  0  0  0  0
   61.5855   32.2759   46.1254 H   0  0  0  0  0  0  0  0  0  0  0  0
   59.9930   32.9770   47.4180 C   0  0  0  0  0  0  0  0  0  0  0  0
   60.0927   34.0246   47.0977 H   0  0  0  0  0  0  0  0  0  0  0  0
   59.0300   32.6260   48.3690 C   0  0  0  0  0  0  0  0  0  0  0  0
   58.3722   33.3973   48.7962 H   0  0  0  0  0  0  0  0  0  0  0  0
   58.9030   31.2950   48.7770 C   0  0  0  0  0  0  0  0  0  0  0  0
   58.1462   31.0221   49.5272 H   0  0  0  0  0  0  0  0  0  0  0  0
   55.9200   27.4860   45.6350 N   0  0  0  0  0  0  0  0  0  0  0  0
   55.5710   24.0200   44.2760 C   0  0  0  0  0  0  0  0  0  0  0  0
   54.8086   24.7509   43.9685 H   0  0  0  0  0  0  0  0  0  0  0  0
   55.8910   22.9510   43.4320 C   0  0  0  0  0  0  0  0  0  0  0  0
   55.3680   22.8331   42.4715 H   0  0  0  0  0  0  0  0  0  0  0  0
  1  2  1  0
  2  3  2  0
  3  4  1  0
  3  5  1  0
  5  6  1  0
  5  7  2  0
  7  8  1  0
  8  9  2  3
  9 10  1  0
 10 11  1  0
 11 12  2  0
 12 13  1  0
 13 14  2  0
 14 15  1  0
 14 16  1  0
 16 17  1  0
 16 18  2  0
 18 19  1  0
 18 20  1  0
 20 21  1  0
 20 22  2  0
 22 23  1  0
 11 24  1  0
 24 25  1  0
 25 26  2  0
 26 27  1  0
 27 28  1  0
 27 29  1  0
 27 30  1  0
 30 31  2  0
 31 32  1  0
 31 33  1  0
 33 34  1  0
 33 35  2  0
 35 36  1  0
 35 37  1  0
 37 38  1  0
 37 39  2  0
 39 40  1  0
 25 41  1  0
  7 42  1  0
 42 43  1  0
 42 44  2  0
 44 45  1  0
 44  2  1  0
 41  9  1  0
 22 13  1  0
 39 30  1  0
M  CHG  3  10  -1  24  -1  41  -1
M  END
>  <UniqueID>  (73) 
68

>  <SMILES>  (73) 
c1ccc(C/N=c2\[n-]c(=Nc3ccccc3)[n-]/c(=N\c3ccccc3)[n-]2)cc1

>  <Energy>  (73) 
61.171422748763746

>  <Genealogy>  (73) 
c1ccc(CN=c2[n-]c(=Nc3ccccc3)[n-]c(=Nc3ccccc3)[n-]2)cc1 (protonated)
c1ccc(C/N=c2\[n-]c(=Nc3ccccc3)[n-]/c(=N\c3ccccc3)[n-]2)cc1 (cis-trans isomerization)
c1ccc(C/N=c2\[n-]c(=Nc3ccccc3)[n-]/c(=N\c3ccccc3)[n-]2)cc1 (3D coordinates assigned)
c1ccc(C/N=c2\[n-]c(=Nc3ccccc3)[n-]/c(=N\c3ccccc3)[n-]2)cc1 (optimized conformer: 61.171422748763746 kcal/mol)

>  <smiles>  (73) 
c1ccc(CN=c2[nH]c(=Nc3ccccc3)[nH]c(=Nc3ccccc3)[nH]2)cc1

>  <score_type>  (73) 
oracle

>  <origin>  (73) 
adg

>  <m_score__min__energy>  (73) 
-13.130000000000001

>  <m_primary>  (73) 
energy

$$$$
73:0
     RDKit          3D

 37 38  0  0  0  0  0  0  0  0999 V2000
   54.2780   28.9550   44.5010 H   0  0  0  0  0  0  0  0  0  0  0  0
   55.1520   29.4520   44.3820 O   0  0  0  0  0  0  0  0  0  0  0  0
   56.3460   28.9270   44.8710 C   0  0  0  0  0  0  0  0  0  0  0  0
   56.3270   27.7820   45.5960 N   0  0  0  0  0  0  0  0  0  0  0  0
   57.4640   27.2320   46.0890 C   0  0  0  0  0  0  0  0  0  0  0  0
   57.3860   26.1650   46.7550 O   0  0  0  0  0  0  0  0  0  0  0  0
   58.6790   27.8350   45.8700 N   0  0  0  0  0  0  0  0  0  0  0  0
   59.9060   27.2380   46.4360 C   0  0  0  0  0  0  0  0  0  0  0  0
   60.7819   27.6483   45.9121 H   0  0  0  0  0  0  0  0  0  0  0  0
   59.8600   26.1466   46.3066 H   0  0  0  0  0  0  0  0  0  0  0  0
   60.0200   27.5460   47.9040 C   0  0  0  0  0  0  0  0  0  0  0  0
   60.0075   26.7173   48.6273 H   0  0  0  0  0  0  0  0  0  0  0  0
   60.1360   28.7990   48.3530 C   0  0  0  0  0  0  0  0  0  0  0  0
   60.2174   28.9909   49.4331 H   0  0  0  0  0  0  0  0  0  0  0  0
   60.1501   29.6387   47.6426 H   0  0  0  0  0  0  0  0  0  0  0  0
   58.7340   29.0100   45.1580 C   0  0  0  0  0  0  0  0  0  0  0  0
   59.8350   29.6080   45.0030 O   0  0  0  0  0  0  0  0  0  0  0  0
   57.5620   29.5640   44.6100 C   0  0  0  0  0  0  0  0  0  0  0  0
   57.5760   30.8200   43.8230 C   0  0  0  0  0  0  0  0  0  0  0  0
   57.8651   30.7538   42.7637 H   0  0  0  0  0  0  0  0  0  0  0  0
   57.2620   32.0330   44.3070 C   0  0  0  0  0  0  0  0  0  0  0  0
   56.3541   32.5149   43.9153 H   0  0  0  0  0  0  0  0  0  0  0  0
   58.0410   32.7730   45.3260 C   0  0  0  0  0  0  0  0  0  0  0  0
   58.1450   32.2450   46.6200 C   0  0  0  0  0  0  0  0  0  0  0  0
   57.6574   31.2888   46.8606 H   0  0  0  0  0  0  0  0  0  0  0  0
   58.8640   32.9250   47.6070 C   0  0  0  0  0  0  0  0  0  0  0  0
   58.9516   32.4914   48.6141 H   0  0  0  0  0  0  0  0  0  0  0  0
   59.4730   34.1520   47.3250 C   0  0  0  0  0  0  0  0  0  0  0  0
   60.1880   34.7920   48.3470 O   0  0  0  0  0  0  0  0  0  0  0  0
   61.2430   34.1890   49.0900 C   0  0  0  0  0  0  0  0  0  0  0  0
   61.0449   34.3022   50.1661 H   0  0  0  0  0  0  0  0  0  0  0  0
   61.3038   33.1198   48.8389 H   0  0  0  0  0  0  0  0  0  0  0  0
   62.1951   34.6793   48.8389 H   0  0  0  0  0  0  0  0  0  0  0  0
   59.3450   34.7010   46.0350 C   0  0  0  0  0  0  0  0  0  0  0  0
   59.8137   35.6687   45.8028 H   0  0  0  0  0  0  0  0  0  0  0  0
   58.6250   34.0220   45.0480 C   0  0  0  0  0  0  0  0  0  0  0  0
   58.5145   34.4670   44.0481 H   0  0  0  0  0  0  0  0  0  0  0  0
  1  2  1  0
  2  3  1  0
  3  4  1  0
  4  5  1  0
  5  6  2  0
  5  7  1  0
  7  8  1  0
  8  9  1  0
  8 10  1  0
  8 11  1  0
 11 12  1  0
 11 13  2  0
 13 14  1  0
 13 15  1  0
  7 16  1  0
 16 17  2  0
 16 18  1  0
 18 19  1  0
 19 20  1  0
 19 21  2  0
 21 22  1  0
 21 23  1  0
 23 24  2  0
 24 25  1  0
 24 26  1  0
 26 27  1  0
 26 28  2  0
 28 29  1  0
 29 30  1  0
 30 31  1  0
 30 32  1  0
 30 33  1  0
 28 34  1  0
 34 35  1  0
 34 36  2  0
 36 37  1  0
 18  3  2  0
 36 23  1  0
M  CHG  1   4  -1
M  END
>  <UniqueID>  (74) 
69

>  <SMILES>  (74) 
C=CCn1c(=O)[n-]c(O)c(/C=C\c2ccc(OC)cc2)c1=O

>  <Energy>  (74) 
48.985465304948704

>  <Genealogy>  (74) 
C=CCn1c(=O)[n-]c(O)c(C=Cc2ccc(OC)cc2)c1=O (protonated)
C=CCn1c(=O)[n-]c(O)c(/C=C\c2ccc(OC)cc2)c1=O (cis-trans isomerization)
C=CCn1c(=O)[n-]c(O)c(/C=C\c2ccc(OC)cc2)c1=O (3D coordinates assigned)
C=CCn1c(=O)[n-]c(O)c(/C=C\c2ccc(OC)cc2)c1=O (optimized conformer: 48.985465304948704 kcal/mol)

>  <smiles>  (74) 
C=CCn1c(=O)[nH]c(O)c(C=Cc2ccc(OC)cc2)c1=O

>  <score_type>  (74) 
oracle

>  <origin>  (74) 
adg

>  <m_score__min__energy>  (74) 
-9.1999999999999993

>  <m_primary>  (74) 
energy

$$$$
74:0
     RDKit          3D

 47 50  0  0  0  0  0  0  0  0999 V2000
   53.9460   24.4550   45.2690 C   0  0  0  0  0  0  0  0  0  0  0  0
   54.6720   25.5020   45.9060 O   0  0  0  0  0  0  0  0  0  0  0  0
   55.9270   25.3040   46.4870 C   0  0  0  0  0  0  0  0  0  0  0  0
   56.0750   24.4910   47.4400 O   0  0  0  0  0  0  0  0  0  0  0  0
   57.0850   26.0510   45.9920 C   0  0  0  0  0  0  0  0  0  0  0  0
   58.4120   25.7450   46.2330 C   0  0  0  0  0  0  0  0  0  0  0  0
   59.1450   26.7110   45.5770 C   0  0  0  0  0  0  0  0  0  0  0  0
   58.2170   27.5390   44.9730 C   0  0  0  0  0  0  0  0  0  0  0  0
   58.5270   28.7250   44.1130 C   0  0  0  0  0  0  0  0  0  0  0  0
   57.3050   29.4540   43.7790 N   0  0  0  0  0  0  0  0  0  0  0  0
   56.7900   30.6000   44.4730 C   0  0  0  0  0  0  0  0  0  0  0  0
   55.5440   30.7830   44.4990 O   0  0  0  0  0  0  0  0  0  0  0  0
   57.6730   31.5960   45.1070 C   0  0  0  0  0  0  0  0  0  0  0  0
   57.7330   32.9050   44.6070 C   0  0  0  0  0  0  0  0  0  0  0  0
   58.6070   33.8320   45.1760 C   0  0  0  0  0  0  0  0  0  0  0  0
   59.4180   33.4440   46.2460 C   0  0  0  0  0  0  0  0  0  0  0  0
   60.3060   34.3720   46.8050 O   0  0  0  0  0  0  0  0  0  0  0  0
   61.4900   34.0400   47.4800 C   0  0  0  0  0  0  0  0  0  0  0  0
   62.5480   33.4960   46.7440 C   0  0  0  0  0  0  0  0  0  0  0  0
   63.7500   33.1560   47.3700 C   0  0  0  0  0  0  0  0  0  0  0  0
   63.9040   33.3390   48.7510 C   0  0  0  0  0  0  0  0  0  0  0  0
   65.1110   33.0070   49.3890 C   0  0  0  0  0  0  0  0  0  0  0  0
   65.2430   33.1840   50.7700 C   0  0  0  0  0  0  0  0  0  0  0  0
   64.1770   33.6880   51.5210 C   0  0  0  0  0  0  0  0  0  0  0  0
   62.9740   34.0250   50.8960 C   0  0  0  0  0  0  0  0  0  0  0  0
   62.8280   33.8600   49.5110 C   0  0  0  0  0  0  0  0  0  0  0  0
   61.6260   34.1980   48.8710 C   0  0  0  0  0  0  0  0  0  0  0  0
   59.3070   32.1830   46.7520 N   0  0  0  0  0  0  0  0  0  0  0  0
   58.4600   31.2650   46.2200 C   0  0  0  0  0  0  0  0  0  0  0  0
   56.9980   27.1250   45.2400 O   0  0  0  0  0  0  0  0  0  0  0  0
   53.4949   23.8044   46.0326 H   0  0  0  0  0  0  0  0  0  0  0  0
   53.1532   24.8878   44.6412 H   0  0  0  0  0  0  0  0  0  0  0  0
   54.6293   23.8643   44.6412 H   0  0  0  0  0  0  0  0  0  0  0  0
   58.8021   24.9044   46.8257 H   0  0  0  0  0  0  0  0  0  0  0  0
   60.2405   26.8037   45.5415 H   0  0  0  0  0  0  0  0  0  0  0  0
   59.2107   29.3951   44.6547 H   0  0  0  0  0  0  0  0  0  0  0  0
   58.9954   28.3740   43.1816 H   0  0  0  0  0  0  0  0  0  0  0  0
   57.0901   33.2013   43.7650 H   0  0  0  0  0  0  0  0  0  0  0  0
   58.6572   34.8592   44.7858 H   0  0  0  0  0  0  0  0  0  0  0  0
   62.4325   33.3344   45.6621 H   0  0  0  0  0  0  0  0  0  0  0  0
   64.5789   32.7430   46.7765 H   0  0  0  0  0  0  0  0  0  0  0  0
   65.9518   32.6080   48.8025 H   0  0  0  0  0  0  0  0  0  0  0  0
   66.1895   32.9256   51.2673 H   0  0  0  0  0  0  0  0  0  0  0  0
   64.2859   33.8196   52.6077 H   0  0  0  0  0  0  0  0  0  0  0  0
   62.1386   34.4210   51.4921 H   0  0  0  0  0  0  0  0  0  0  0  0
   60.7842   34.5893   49.4612 H   0  0  0  0  0  0  0  0  0  0  0  0
   58.3908   30.2602   46.6624 H   0  0  0  0  0  0  0  0  0  0  0  0
  1  2  1  0
  2  3  1  0
  3  4  2  0
  3  5  1  0
  5  6  2  0
  6  7  1  0
  7  8  2  0
  8  9  1  0
  9 10  1  0
 10 11  1  0
 11 12  2  0
 11 13  1  0
 13 14  2  0
 14 15  1  0
 15 16  2  0
 16 17  1  0
 17 18  1  0
 18 19  2  0
 19 20  1  0
 20 21  2  0
 21 22  1  0
 22 23  2  0
 23 24  1  0
 24 25  2  0
 25 26  1  0
 26 27  2  0
 16 28  1  0
 28 29  2  0
  8 30  1  0
 30  5  1  0
 29 13  1  0
 27 18  1  0
 26 21  1  0
  1 31  1  0
  1 32  1  0
  1 33  1  0
  6 34  1  0
  7 35  1  0
  9 36  1  0
  9 37  1  0
 14 38  1  0
 15 39  1  0
 19 40  1  0
 20 41  1  0
 22 42  1  0
 23 43  1  0
 24 44  1  0
 25 45  1  0
 27 46  1  0
 29 47  1  0
M  CHG  1  10  -1
M  END
>  <UniqueID>  (75) 
70

>  <SMILES>  (75) 
COC(=O)c1ccc(C[N-]C(=O)c2ccc(Oc3ccc4ccccc4c3)nc2)o1

>  <Energy>  (75) 
83.88531963665527

>  <Genealogy>  (75) 
COC(=O)c1ccc(C[N-]C(=O)c2ccc(Oc3ccc4ccccc4c3)nc2)o1 (protonated)
COC(=O)c1ccc(C[N-]C(=O)c2ccc(Oc3ccc4ccccc4c3)nc2)o1 (3D coordinates assigned)
COC(=O)c1ccc(C[N-]C(=O)c2ccc(Oc3ccc4ccccc4c3)nc2)o1 (optimized conformer: 83.88531963665527 kcal/mol)

>  <smiles>  (75) 
COC(=O)c1ccc(CNC(=O)c2ccc(Oc3ccc4ccccc4c3)nc2)o1

>  <score_type>  (75) 
oracle

>  <origin>  (75) 
adg

>  <m_score__min__energy>  (75) 
-10.92

>  <m_primary>  (75) 
energy

$$$$
75:0
     RDKit          3D

 27 29  0  0  0  0  0  0  0  0999 V2000
   55.1420   27.4820   45.4740 H   0  0  0  0  0  0  0  0  0  0  0  0
   54.9450   26.6440   46.0080 O   0  0  0  0  0  0  0  0  0  0  0  0
   55.9330   25.6980   46.2640 C   0  0  0  0  0  0  0  0  0  0  0  0
   55.8640   24.8100   47.2690 N   0  0  0  0  0  0  0  0  0  0  0  0
   57.0230   24.1280   47.1460 C   0  0  0  0  0  0  0  0  0  0  0  0
   57.3440   23.1920   47.9230 O   0  0  0  0  0  0  0  0  0  0  0  0
   57.8140   24.5360   46.1310 N   0  0  0  0  0  0  0  0  0  0  0  0
   57.1010   25.5220   45.5560 C   0  0  0  0  0  0  0  0  0  0  0  0
   57.6000   26.3840   44.4730 C   0  0  0  0  0  0  0  0  0  0  0  0
   57.5025   26.0196   43.4397 H   0  0  0  0  0  0  0  0  0  0  0  0
   58.1650   27.5830   44.6630 C   0  0  0  0  0  0  0  0  0  0  0  0
   59.5320   27.8240   44.9000 C   0  0  0  0  0  0  0  0  0  0  0  0
   60.3085   27.0453   44.9250 H   0  0  0  0  0  0  0  0  0  0  0  0
   59.7620   29.1520   45.0940 N   0  0  0  0  0  0  0  0  0  0  0  0
   58.5730   29.7050   44.9530 N   0  0  0  0  0  0  0  0  0  0  0  0
   58.0320   30.8990   45.2090 C   0  0  0  0  0  0  0  0  0  0  0  0
   58.7220   31.9550   45.5220 N   0  0  0  0  0  0  0  0  0  0  0  0
   59.0810   32.3170   46.8920 C   0  0  0  0  0  0  0  0  0  0  0  0
   58.2265   32.8194   47.3689 H   0  0  0  0  0  0  0  0  0  0  0  0
   59.9510   32.9896   46.8648 H   0  0  0  0  0  0  0  0  0  0  0  0
   59.4390   31.0950   47.6840 C   0  0  0  0  0  0  0  0  0  0  0  0
   58.6561   30.3729   47.9592 H   0  0  0  0  0  0  0  0  0  0  0  0
   60.5940   30.8970   48.0250 O   0  0  0  0  0  0  0  0  0  0  0  0
   56.6730   30.8430   45.1540 N   0  0  0  0  0  0  0  0  0  0  0  0
   56.4160   29.5320   44.8720 C   0  0  0  0  0  0  0  0  0  0  0  0
   55.1390   28.9930   44.8350 O   0  0  0  0  0  0  0  0  0  0  0  0
   57.6130   28.8500   44.7400 C   0  0  0  0  0  0  0  0  0  0  0  0
  1  2  1  0
  2  3  1  0
  3  4  1  0
  4  5  1  0
  5  6  2  0
  5  7  1  0
  7  8  1  0
  8  9  1  0
  9 10  1  0
  9 11  2  0
 11 12  1  0
 12 13  1  0
 12 14  2  0
 14 15  1  0
 15 16  1  0
 16 17  2  0
 17 18  1  0
 18 19  1  0
 18 20  1  0
 18 21  1  0
 21 22  1  0
 21 23  2  0
 16 24  1  0
 24 25  1  0
 25 26  1  0
 25 27  2  0
  8  3  2  0
 27 11  1  0
 27 15  1  0
M  CHG  4   4  -1   7  -1  24  -1  26  -1
M  END
>  <UniqueID>  (76) 
71

>  <SMILES>  (76) 
O=CC/N=c1\[n-]c([O-])c2/c(=C\c3[n-]c(=O)[n-]c3O)cnn12

>  <Energy>  (76) 
156.48252438542983

>  <Genealogy>  (76) 
O=CCN=c1[n-]c([O-])c2c(=Cc3[n-]c(=O)[n-]c3O)cnn12 (protonated)
O=CC/N=c1\[n-]c([O-])c2/c(=C\c3[n-]c(=O)[n-]c3O)cnn12 (cis-trans isomerization)
O=CC/N=c1\[n-]c([O-])c2/c(=C\c3[n-]c(=O)[n-]c3O)cnn12 (3D coordinates assigned)
O=CC/N=c1\[n-]c([O-])c2/c(=C\c3[n-]c(=O)[n-]c3O)cnn12 (optimized conformer: 156.48252438542983 kcal/mol)

>  <smiles>  (76) 
O=CCN=c1[nH]c(O)c2c(=Cc3[nH]c(=O)[nH]c3O)cnn12

>  <score_type>  (76) 
oracle

>  <origin>  (76) 
adg

>  <m_score__min__energy>  (76) 
-16.550000000000001

>  <m_primary>  (76) 
energy

$$$$
76:0
     RDKit          3D

 50 52  0  0  0  0  0  0  0  0999 V2000
   58.8190   27.6300   47.7550 C   0  0  0  0  0  0  0  0  0  0  0  0
   58.1640   28.2450   46.6040 N   0  0  0  0  0  0  0  0  0  0  0  0
   58.4960   29.4310   46.0560 C   0  0  0  0  0  0  0  0  0  0  0  0
   57.6860   29.6840   44.9660 C   0  0  0  0  0  0  0  0  0  0  0  0
   57.6980   30.9150   44.1540 C   0  0  0  0  0  0  0  0  0  0  0  0
   57.0500   32.0430   44.4710 C   0  0  0  0  0  0  0  0  0  0  0  0
   57.5270   33.0300   45.4600 C   0  0  0  0  0  0  0  0  0  0  0  0
   56.9040   34.1160   45.6090 O   0  0  0  0  0  0  0  0  0  0  0  0
   58.7220   32.8070   46.2130 N   0  0  0  0  0  0  0  0  0  0  0  0
   59.7510   34.0950   46.7460 S   0  0  0  0  0  0  0  0  0  0  0  0
   59.9460   35.0920   45.6370 O   0  0  0  0  0  0  0  0  0  0  0  0
   59.1080   34.7980   47.9100 O   0  0  0  0  0  0  0  0  0  0  0  0
   61.2920   33.4080   47.2510 C   0  0  0  0  0  0  0  0  0  0  0  0
   62.4810   33.8470   46.6500 C   0  0  0  0  0  0  0  0  0  0  0  0
   63.7170   33.4010   47.1310 C   0  0  0  0  0  0  0  0  0  0  0  0
   63.7720   32.5270   48.2200 C   0  0  0  0  0  0  0  0  0  0  0  0
   62.5890   32.0800   48.8190 C   0  0  0  0  0  0  0  0  0  0  0  0
   62.6440   31.2040   49.9610 C   0  0  0  0  0  0  0  0  0  0  0  0
   62.6860   30.5000   50.8800 N   0  0  0  0  0  0  0  0  0  0  0  0
   61.3500   32.5130   48.3280 C   0  0  0  0  0  0  0  0  0  0  0  0
   56.8020   28.6250   44.8660 C   0  0  0  0  0  0  0  0  0  0  0  0
   57.1320   27.7500   45.8810 C   0  0  0  0  0  0  0  0  0  0  0  0
   56.4670   26.4540   46.0960 C   0  0  0  0  0  0  0  0  0  0  0  0
   55.2110   26.3560   46.0240 O   0  0  0  0  0  0  0  0  0  0  0  0
   57.2540   25.3190   46.4670 N   0  0  0  0  0  0  0  0  0  0  0  0
   58.3360   24.8060   45.6370 C   0  0  0  0  0  0  0  0  0  0  0  0
   57.8440   23.6000   44.8850 C   0  0  0  0  0  0  0  0  0  0  0  0
   56.8930   23.7370   43.8650 C   0  0  0  0  0  0  0  0  0  0  0  0
   56.5360   22.6340   43.0900 C   0  0  0  0  0  0  0  0  0  0  0  0
   57.1360   21.3980   43.3410 C   0  0  0  0  0  0  0  0  0  0  0  0
   58.0600   21.2760   44.3330 N   0  0  0  0  0  0  0  0  0  0  0  0
   58.4270   22.3410   45.0970 C   0  0  0  0  0  0  0  0  0  0  0  0
   58.3875   28.0351   48.6822 H   0  0  0  0  0  0  0  0  0  0  0  0
   58.6667   26.5410   47.7250 H   0  0  0  0  0  0  0  0  0  0  0  0
   59.8962   27.8505   47.7250 H   0  0  0  0  0  0  0  0  0  0  0  0
   59.2917   30.0967   46.4216 H   0  0  0  0  0  0  0  0  0  0  0  0
   58.2810   30.9058   43.2212 H   0  0  0  0  0  0  0  0  0  0  0  0
   56.0978   32.2482   43.9600 H   0  0  0  0  0  0  0  0  0  0  0  0
   62.4417   34.5430   45.7991 H   0  0  0  0  0  0  0  0  0  0  0  0
   64.6472   33.7390   46.6510 H   0  0  0  0  0  0  0  0  0  0  0  0
   64.7453   32.1904   48.6064 H   0  0  0  0  0  0  0  0  0  0  0  0
   60.4200   32.1493   48.7893 H   0  0  0  0  0  0  0  0  0  0  0  0
   55.9972   28.5043   44.1259 H   0  0  0  0  0  0  0  0  0  0  0  0
   58.6538   25.5812   44.9242 H   0  0  0  0  0  0  0  0  0  0  0  0
   59.1910   24.5268   46.2703 H   0  0  0  0  0  0  0  0  0  0  0  0
   56.4276   24.7155   43.6754 H   0  0  0  0  0  0  0  0  0  0  0  0
   55.7892   22.7364   42.2889 H   0  0  0  0  0  0  0  0  0  0  0  0
   56.8613   20.5215   42.7358 H   0  0  0  0  0  0  0  0  0  0  0  0
   58.5080   20.3470   44.5030 H   0  0  0  0  0  0  0  0  0  0  0  0
   59.1844   22.2143   45.8846 H   0  0  0  0  0  0  0  0  0  0  0  0
  1  2  1  0
  2  3  1  0
  3  4  2  0
  4  5  1  0
  5  6  2  3
  6  7  1  0
  7  8  2  0
  7  9  1  0
  9 10  1  0
 10 11  2  0
 10 12  2  0
 10 13  1  0
 13 14  2  0
 14 15  1  0
 15 16  2  0
 16 17  1  0
 17 18  1  0
 18 19  3  0
 17 20  2  0
  4 21  1  0
 21 22  2  0
 22 23  1  0
 23 24  2  0
 23 25  1  0
 25 26  1  0
 26 27  1  0
 27 28  2  0
 28 29  1  0
 29 30  2  0
 30 31  1  0
 31 32  2  0
 22  2  1  0
 32 27  1  0
 20 13  1  0
  1 33  1  0
  1 34  1  0
  1 35  1  0
  3 36  1  0
  5 37  1  0
  6 38  1  0
 14 39  1  0
 15 40  1  0
 16 41  1  0
 20 42  1  0
 21 43  1  0
 26 44  1  0
 26 45  1  0
 28 46  1  0
 29 47  1  0
 30 48  1  0
 31 49  1  0
 32 50  1  0
M  CHG  3   9  -1  25  -1  31   1
M  END
>  <UniqueID>  (77) 
72

>  <SMILES>  (77) 
Cn1cc(C=CC(=O)[N-]S(=O)(=O)c2cccc(C#N)c2)cc1C(=O)[N-]Cc1ccc[nH+]c1

>  <Energy>  (77) 
83.01460061428814

>  <Genealogy>  (77) 
Cn1cc(C=CC(=O)[N-]S(=O)(=O)c2cccc(C#N)c2)cc1C(=O)[N-]Cc1ccc[nH+]c1 (protonated)
Cn1cc(C=CC(=O)[N-]S(=O)(=O)c2cccc(C#N)c2)cc1C(=O)[N-]Cc1ccc[nH+]c1 (3D coordinates assigned)
Cn1cc(C=CC(=O)[N-]S(=O)(=O)c2cccc(C#N)c2)cc1C(=O)[N-]Cc1ccc[nH+]c1 (optimized conformer: 83.01460061428814 kcal/mol)

>  <smiles>  (77) 
Cn1cc(C=CC(=O)NS(=O)(=O)c2cccc(C#N)c2)cc1C(=O)NCc1cccnc1

>  <score_type>  (77) 
oracle

>  <origin>  (77) 
adg

>  <m_score__min__energy>  (77) 
-12.470000000000001

>  <m_primary>  (77) 
energy

$$$$
77:0
     RDKit          3D

 45 47  0  0  0  0  0  0  0  0999 V2000
   59.6400   35.7180   45.6660 C   0  0  0  0  0  0  0  0  0  0  0  0
   60.0570   34.4010   46.2500 C   0  0  0  0  0  0  0  0  0  0  0  0
   61.3770   34.1660   46.4730 N   0  0  0  0  0  0  0  0  0  0  0  0
   61.8230   33.0210   46.9970 N   0  0  0  0  0  0  0  0  0  0  0  0
   63.2650   32.8800   47.2250 C   0  0  0  0  0  0  0  0  0  0  0  0
   63.6010   33.2400   48.6470 C   0  0  0  0  0  0  0  0  0  0  0  0
   62.7610   34.0890   49.3860 C   0  0  0  0  0  0  0  0  0  0  0  0
   63.0960   34.4460   50.6960 C   0  0  0  0  0  0  0  0  0  0  0  0
   64.2740   33.9630   51.2740 C   0  0  0  0  0  0  0  0  0  0  0  0
   65.1190   33.1250   50.5410 C   0  0  0  0  0  0  0  0  0  0  0  0
   64.7870   32.7660   49.2310 C   0  0  0  0  0  0  0  0  0  0  0  0
   60.9430   32.0360   47.3600 C   0  0  0  0  0  0  0  0  0  0  0  0
   61.3500   30.9610   47.8780 O   0  0  0  0  0  0  0  0  0  0  0  0
   59.5780   32.2220   47.1510 C   0  0  0  0  0  0  0  0  0  0  0  0
   59.1220   33.4060   46.5720 C   0  0  0  0  0  0  0  0  0  0  0  0
   57.3560   33.6220   46.2900 S   0  0  0  0  0  0  0  0  0  0  0  0
   57.4240   33.2260   44.5070 C   0  0  0  0  0  0  0  0  0  0  0  0
   57.6730   31.7650   44.2880 C   0  0  0  0  0  0  0  0  0  0  0  0
   57.9710   31.3540   43.1340 O   0  0  0  0  0  0  0  0  0  0  0  0
   57.5310   30.8420   45.3790 N   0  0  0  0  0  0  0  0  0  0  0  0
   57.9600   29.4680   45.3370 C   0  0  0  0  0  0  0  0  0  0  0  0
   59.3230   29.1250   45.4120 C   0  0  0  0  0  0  0  0  0  0  0  0
   59.7160   27.7840   45.3990 C   0  0  0  0  0  0  0  0  0  0  0  0
   58.7560   26.7730   45.3200 C   0  0  0  0  0  0  0  0  0  0  0  0
   59.1390   25.4720   45.3060 F   0  0  0  0  0  0  0  0  0  0  0  0
   57.3990   27.1020   45.2640 C   0  0  0  0  0  0  0  0  0  0  0  0
   57.0000   28.4430   45.2810 C   0  0  0  0  0  0  0  0  0  0  0  0
   55.6770   28.7410   45.2270 F   0  0  0  0  0  0  0  0  0  0  0  0
   59.4162   36.4250   46.4785 H   0  0  0  0  0  0  0  0  0  0  0  0
   60.4553   36.1186   45.0456 H   0  0  0  0  0  0  0  0  0  0  0  0
   58.7428   35.5764   45.0456 H   0  0  0  0  0  0  0  0  0  0  0  0
   63.5637   31.8389   47.0329 H   0  0  0  0  0  0  0  0  0  0  0  0
   63.8049   33.5556   46.5452 H   0  0  0  0  0  0  0  0  0  0  0  0
   61.8360   34.4747   48.9326 H   0  0  0  0  0  0  0  0  0  0  0  0
   62.4322   35.1073   51.2722 H   0  0  0  0  0  0  0  0  0  0  0  0
   64.5356   34.2424   52.3052 H   0  0  0  0  0  0  0  0  0  0  0  0
   66.0468   32.7473   50.9954 H   0  0  0  0  0  0  0  0  0  0  0  0
   65.4571   32.1101   48.6559 H   0  0  0  0  0  0  0  0  0  0  0  0
   58.8630   31.4382   47.4415 H   0  0  0  0  0  0  0  0  0  0  0  0
   56.4662   33.5010   44.0412 H   0  0  0  0  0  0  0  0  0  0  0  0
   58.2509   33.7930   44.0545 H   0  0  0  0  0  0  0  0  0  0  0  0
   57.0230   31.1750   46.2300 H   0  0  0  0  0  0  0  0  0  0  0  0
   60.0832   29.9170   45.4812 H   0  0  0  0  0  0  0  0  0  0  0  0
   60.7836   27.5243   45.4511 H   0  0  0  0  0  0  0  0  0  0  0  0
   56.6429   26.3051   45.2064 H   0  0  0  0  0  0  0  0  0  0  0  0
  1  2  1  0
  2  3  2  0
  3  4  1  0
  4  5  1  0
  5  6  1  0
  6  7  2  0
  7  8  1  0
  8  9  2  0
  9 10  1  0
 10 11  2  0
  4 12  1  0
 12 13  2  0
 12 14  1  0
 14 15  2  0
 15 16  1  0
 16 17  1  0
 17 18  1  0
 18 19  2  0
 18 20  1  0
 20 21  1  0
 21 22  2  0
 22 23  1  0
 23 24  2  0
 24 25  1  0
 24 26  1  0
 26 27  2  0
 27 28  1  0
 15  2  1  0
 27 21  1  0
 11  6  1  0
  1 29  1  0
  1 30  1  0
  1 31  1  0
  5 32  1  0
  5 33  1  0
  7 34  1  0
  8 35  1  0
  9 36  1  0
 10 37  1  0
 11 38  1  0
 14 39  1  0
 17 40  1  0
 17 41  1  0
 20 42  1  0
 22 43  1  0
 23 44  1  0
 26 45  1  0
M  END
>  <UniqueID>  (78) 
73

>  <SMILES>  (78) 
Cc1nn(Cc2ccccc2)c(=O)cc1SCC(=O)Nc1ccc(F)cc1F

>  <Energy>  (78) 
45.49520729379231

>  <Genealogy>  (78) 
Cc1nn(Cc2ccccc2)c(=O)cc1SCC(=O)Nc1ccc(F)cc1F (3D coordinates assigned)
Cc1nn(Cc2ccccc2)c(=O)cc1SCC(=O)Nc1ccc(F)cc1F (optimized conformer: 45.49520729379231 kcal/mol)

>  <smiles>  (78) 
Cc1nn(Cc2ccccc2)c(=O)cc1SCC(=O)Nc1ccc(F)cc1F

>  <score_type>  (78) 
oracle

>  <origin>  (78) 
adg

>  <m_score__min__energy>  (78) 
-8.0399999999999991

>  <m_primary>  (78) 
energy

$$$$
78:0
     RDKit          3D

 38 39  0  0  0  0  0  0  0  0999 V2000
   59.8000   33.3340   47.4310 H   0  0  0  0  0  0  0  0  0  0  0  0
   59.8490   33.8110   48.3240 O   0  0  0  0  0  0  0  0  0  0  0  0
   59.3200   33.2450   49.4830 C   0  0  0  0  0  0  0  0  0  0  0  0
   59.4320   33.9060   50.7110 C   0  0  0  0  0  0  0  0  0  0  0  0
   59.9410   34.8797   50.7650 H   0  0  0  0  0  0  0  0  0  0  0  0
   58.8990   33.3330   51.8700 C   0  0  0  0  0  0  0  0  0  0  0  0
   58.9996   33.8559   52.8325 H   0  0  0  0  0  0  0  0  0  0  0  0
   58.2360   32.0950   51.8160 C   0  0  0  0  0  0  0  0  0  0  0  0
   57.6950   31.5250   53.0740 C   0  0  0  0  0  0  0  0  0  0  0  0
   58.0034   31.9830   54.0254 H   0  0  0  0  0  0  0  0  0  0  0  0
   56.8520   30.4840   53.1180 C   0  0  0  0  0  0  0  0  0  0  0  0
   57.1636   29.5655   53.6369 H   0  0  0  0  0  0  0  0  0  0  0  0
   55.5220   30.5350   52.4920 C   0  0  0  0  0  0  0  0  0  0  0  0
   54.9260   31.6420   52.4100 O   0  0  0  0  0  0  0  0  0  0  0  0
   54.9300   29.3680   51.9870 O   0  0  0  0  0  0  0  0  0  0  0  0
   54.1020   28.5030   52.7630 C   0  0  1  0  0  0  0  0  0  0  0  0
   53.7218   27.6808   52.1389 H   0  0  0  0  0  0  0  0  0  0  0  0
   54.9230   27.9420   53.8870 C   0  0  0  0  0  0  0  0  0  0  0  0
   55.1670   28.6430   54.9040 O   0  0  0  0  0  0  0  0  0  0  0  0
   55.4490   26.6590   53.7950 O   0  0  0  0  0  0  0  0  0  0  0  0
   52.8920   29.2820   53.3100 C   0  0  0  0  0  0  0  0  0  0  0  0
   52.1347   28.5645   53.6588 H   0  0  0  0  0  0  0  0  0  0  0  0
   53.2410   29.9207   54.1348 H   0  0  0  0  0  0  0  0  0  0  0  0
   52.2760   30.1690   52.2590 C   0  0  0  0  0  0  0  0  0  0  0  0
   52.2940   29.7900   50.9070 C   0  0  0  0  0  0  0  0  0  0  0  0
   52.7400   28.8281   50.6140 H   0  0  0  0  0  0  0  0  0  0  0  0
   51.7480   30.6290   49.9320 C   0  0  0  0  0  0  0  0  0  0  0  0
   51.7601   30.3233   48.8754 H   0  0  0  0  0  0  0  0  0  0  0  0
   51.1860   31.8570   50.2970 C   0  0  0  0  0  0  0  0  0  0  0  0
   50.6430   32.6870   49.3220 O   0  0  0  0  0  0  0  0  0  0  0  0
   51.1710   32.2460   51.6420 C   0  0  0  0  0  0  0  0  0  0  0  0
   50.6160   33.4660   52.0100 O   0  0  0  0  0  0  0  0  0  0  0  0
   51.7160   31.4070   52.6190 C   0  0  0  0  0  0  0  0  0  0  0  0
   51.7064   31.7173   53.6743 H   0  0  0  0  0  0  0  0  0  0  0  0
   58.1400   31.4290   50.5770 C   0  0  0  0  0  0  0  0  0  0  0  0
   57.6400   30.4509   50.5203 H   0  0  0  0  0  0  0  0  0  0  0  0
   58.6760   32.0030   49.4190 C   0  0  0  0  0  0  0  0  0  0  0  0
   58.5720   31.3340   48.2050 O   0  0  0  0  0  0  0  0  0  0  0  0
  1  2  1  0
  2  3  1  0
  3  4  2  0
  4  5  1  0
  4  6  1  0
  6  7  1  0
  6  8  2  0
  8  9  1  0
  9 10  1  0
  9 11  2  0
 11 12  1  0
 11 13  1  0
 13 14  2  0
 13 15  1  0
 15 16  1  0
 16 17  1  6
 16 18  1  0
 18 19  2  0
 18 20  1  0
 16 21  1  0
 21 22  1  0
 21 23  1  0
 21 24  1  0
 24 25  2  0
 25 26  1  0
 25 27  1  0
 27 28  1  0
 27 29  2  0
 29 30  1  0
 29 31  1  0
 31 32  1  0
 31 33  2  0
 33 34  1  0
  8 35  1  0
 35 36  1  0
 35 37  2  0
 37 38  1  0
 37  3  1  0
 33 24  1  0
M  CHG  4  20  -1  30  -1  32  -1  38  -1
M  END
>  <UniqueID>  (79) 
74

>  <SMILES>  (79) 
O=C(/C=C/c1ccc(O)c([O-])c1)O[C@H](Cc1ccc([O-])c([O-])c1)C(=O)[O-]

>  <Energy>  (79) 
36.06599782918371

>  <Genealogy>  (79) 
O=C(C=Cc1ccc(O)c([O-])c1)OC(Cc1ccc([O-])c([O-])c1)C(=O)[O-] (protonated)
O=C(C=Cc1ccc(O)c([O-])c1)O[C@H](Cc1ccc([O-])c([O-])c1)C(=O)[O-] (chirality)
O=C(/C=C/c1ccc(O)c([O-])c1)O[C@H](Cc1ccc([O-])c([O-])c1)C(=O)[O-] (cis-trans isomerization)
O=C(/C=C/c1ccc(O)c([O-])c1)O[C@H](Cc1ccc([O-])c([O-])c1)C(=O)[O-] (3D coordinates assigned)
O=C(/C=C/c1ccc(O)c([O-])c1)O[C@H](Cc1ccc([O-])c([O-])c1)C(=O)[O-] (optimized conformer: 36.06599782918371 kcal/mol)

>  <smiles>  (79) 
O=C(C=Cc1ccc(O)c(O)c1)OC(Cc1ccc(O)c(O)c1)C(=O)O

>  <score_type>  (79) 
oracle

>  <origin>  (79) 
adg

>  <m_score__min__energy>  (79) 
-16.66

>  <m_primary>  (79) 
energy

$$$$
79:0
     RDKit          3D

 48 50  0  0  0  0  0  0  0  0999 V2000
   62.7830   33.5100   47.1830 H   0  0  0  0  0  0  0  0  0  0  0  0
   63.3030   32.7250   46.8690 O   0  0  0  0  0  0  0  0  0  0  0  0
   62.6670   31.5970   47.4030 C   0  0  0  0  0  0  0  0  0  0  0  0
   63.4218   30.9153   47.8219 H   0  0  0  0  0  0  0  0  0  0  0  0
   62.1071   31.0830   46.6078 H   0  0  0  0  0  0  0  0  0  0  0  0
   61.6960   32.0290   48.5130 C   0  0  1  0  0  0  0  0  0  0  0  0
   62.2102   32.0302   49.4854 H   0  0  0  0  0  0  0  0  0  0  0  0
   61.2260   33.3460   48.1970 O   0  0  0  0  0  0  0  0  0  0  0  0
   60.1920   33.5360   47.2750 C   0  0  0  0  0  0  0  0  0  0  0  0
   60.0190   34.7660   46.6340 C   0  0  0  0  0  0  0  0  0  0  0  0
   60.6946   35.6049   46.8573 H   0  0  0  0  0  0  0  0  0  0  0  0
   58.9830   34.9260   45.7070 C   0  0  0  0  0  0  0  0  0  0  0  0
   58.8497   35.8896   45.1935 H   0  0  0  0  0  0  0  0  0  0  0  0
   58.1160   33.8620   45.4320 C   0  0  0  0  0  0  0  0  0  0  0  0
   57.1080   34.0230   44.5400 F   0  0  0  0  0  0  0  0  0  0  0  0
   58.2770   32.6360   46.0900 C   0  0  0  0  0  0  0  0  0  0  0  0
   57.5851   31.8054   45.8864 H   0  0  0  0  0  0  0  0  0  0  0  0
   59.3230   32.4710   47.0090 C   0  0  0  0  0  0  0  0  0  0  0  0
   59.4640   31.2400   47.8080 C   0  0  0  0  0  0  0  0  0  0  0  0
   58.6904   30.4606   47.7433 H   0  0  0  0  0  0  0  0  0  0  0  0
   60.5270   31.0550   48.6170 C   0  0  0  0  0  0  0  0  0  0  0  0
   60.3870   30.0290   49.6920 C   0  0  0  0  0  0  0  0  0  0  0  0
   59.8119   30.3529   50.5720 H   0  0  0  0  0  0  0  0  0  0  0  0
   60.8560   28.7680   49.7510 C   0  0  0  0  0  0  0  0  0  0  0  0
   61.4423   28.5201   50.6481 H   0  0  0  0  0  0  0  0  0  0  0  0
   60.6900   27.6750   48.7760 C   0  0  0  0  0  0  0  0  0  0  0  0
   60.7050   26.4780   49.1580 O   0  0  0  0  0  0  0  0  0  0  0  0
   60.1920   27.9580   47.4610 N   0  0  0  0  0  0  0  0  0  0  0  0
   59.0460   27.6740   46.8930 C   0  0  0  0  0  0  0  0  0  0  0  0
   58.3910   28.5070   45.9340 C   0  0  0  0  0  0  0  0  0  0  0  0
   59.1300   29.5490   45.1230 C   0  0  0  0  0  0  0  0  0  0  0  0
   59.6306   30.2549   45.8020 H   0  0  0  0  0  0  0  0  0  0  0  0
   59.8809   29.0552   44.4887 H   0  0  0  0  0  0  0  0  0  0  0  0
   58.4157   30.0944   44.4887 H   0  0  0  0  0  0  0  0  0  0  0  0
   57.0400   28.2220   45.6080 C   0  0  0  0  0  0  0  0  0  0  0  0
   56.2440   29.1290   44.6970 C   0  0  0  0  0  0  0  0  0  0  0  0
   55.6388   29.8186   45.3038 H   0  0  0  0  0  0  0  0  0  0  0  0
   56.9321   29.7066   44.0622 H   0  0  0  0  0  0  0  0  0  0  0  0
   55.5820   28.5217   44.0622 H   0  0  0  0  0  0  0  0  0  0  0  0
   56.4550   27.0330   46.0670 C   0  0  0  0  0  0  0  0  0  0  0  0
   55.1450   26.7080   45.7140 O   0  0  0  0  0  0  0  0  0  0  0  0
   57.1960   26.1570   46.8660 C   0  0  0  0  0  0  0  0  0  0  0  0
   56.5790   24.8770   47.3580 C   0  0  0  0  0  0  0  0  0  0  0  0
   56.5759   24.8706   48.4580 H   0  0  0  0  0  0  0  0  0  0  0  0
   55.5458   24.8020   46.9880 H   0  0  0  0  0  0  0  0  0  0  0  0
   57.1639   24.0221   46.9880 H   0  0  0  0  0  0  0  0  0  0  0  0
   58.4500   26.5040   47.2630 N   0  0  0  0  0  0  0  0  0  0  0  0
   58.9610   25.8690   47.9210 H   0  0  0  0  0  0  0  0  0  0  0  0
  1  2  1  0
  2  3  1  0
  3  4  1  0
  3  5  1  0
  3  6  1  0
  6  7  1  1
  6  8  1  0
  8  9  1  0
  9 10  2  0
 10 11  1  0
 10 12  1  0
 12 13  1  0
 12 14  2  0
 14 15  1  0
 14 16  1  0
 16 17  1  0
 16 18  2  0
 18 19  1  0
 19 20  1  0
 19 21  2  0
 21 22  1  0
 22 23  1  0
 22 24  2  0
 24 25  1  0
 24 26  1  0
 26 27  2  0
 26 28  1  0
 28 29  2  3
 29 30  1  0
 30 31  1  0
 31 32  1  0
 31 33  1  0
 31 34  1  0
 30 35  2  0
 35 36  1  0
 36 37  1  0
 36 38  1  0
 36 39  1  0
 35 40  1  0
 40 41  1  0
 40 42  2  0
 42 43  1  0
 43 44  1  0
 43 45  1  0
 43 46  1  0
 42 47  1  0
 47 48  1  0
 21  6  1  0
 47 29  1  0
 18  9  1  0
M  CHG  1  41  -1
M  END
>  <UniqueID>  (80) 
75

>  <SMILES>  (80) 
Cc1[nH]c(=NC(=O)/C=C\C2=Cc3cc(F)ccc3O[C@@H]2CO)c(C)c(C)c1[O-]

>  <Energy>  (80) 
89.091997228816

>  <Genealogy>  (80) 
Cc1[nH]c(=NC(=O)C=CC2=Cc3cc(F)ccc3OC2CO)c(C)c(C)c1[O-] (protonated)
Cc1[nH]c(=NC(=O)C=CC2=Cc3cc(F)ccc3O[C@@H]2CO)c(C)c(C)c1[O-] (chirality)
Cc1[nH]c(=NC(=O)/C=C\C2=Cc3cc(F)ccc3O[C@@H]2CO)c(C)c(C)c1[O-] (cis-trans isomerization)
Cc1[nH]c(=NC(=O)/C=C\C2=Cc3cc(F)ccc3O[C@@H]2CO)c(C)c(C)c1[O-] (3D coordinates assigned)
Cc1[nH]c(=NC(=O)/C=C\C2=Cc3cc(F)ccc3O[C@@H]2CO)c(C)c(C)c1[O-] (nonaromatic ring conformer: 89.091997228816 kcal/mol)

>  <smiles>  (80) 
Cc1[nH]c(=NC(=O)C=CC2=Cc3cc(F)ccc3OC2CO)c(C)c(C)c1O

>  <score_type>  (80) 
oracle

>  <origin>  (80) 
adg

>  <m_score__min__energy>  (80) 
-10.779999999999999

>  <m_primary>  (80) 
energy

$$$$
80:0
     RDKit          3D

 70 74  0  0  1  0  0  0  0  0999 V2000
   56.2860   20.4620   43.7010 C   0  0  0  0  0  0  0  0  0  0  0  0
   56.1550   21.0360   45.1180 C   0  0  0  0  0  0  0  0  0  0  0  0
   54.8010   20.6400   45.6210 C   0  0  0  0  0  0  0  0  0  0  0  0
   57.1730   20.2840   45.9460 C   0  0  0  0  0  0  0  0  0  0  0  0
   56.3900   22.5090   45.1100 C   0  0  1  0  0  0  0  0  0  0  0  0
   56.7580   23.0490   46.4820 C   0  0  0  0  0  0  0  0  0  0  0  0
   58.0720   23.7640   46.4510 C   0  0  0  0  0  0  0  0  0  0  0  0
   57.9740   24.9050   45.4420 C   0  0  0  0  0  0  0  0  0  0  0  0
   57.6890   24.3250   44.1700 C   0  0  0  0  0  0  0  0  0  0  0  0
   57.6890   25.6260   43.0030 S   0  0  0  0  0  0  0  0  0  0  0  0
   58.0590   26.8810   44.2270 C   0  0  0  0  0  0  0  0  0  0  0  0
   58.1790   28.2180   43.8470 N   0  0  0  0  0  0  0  0  0  0  0  0
   57.3170   29.1890   44.4150 C   0  0  0  0  0  0  0  0  0  0  0  0
   56.4520   28.8290   45.2570 O   0  0  0  0  0  0  0  0  0  0  0  0
   57.3980   30.6020   44.0550 C   0  0  0  0  0  0  0  0  0  0  0  0
   57.6380   31.6070   44.9650 C   0  0  0  0  0  0  0  0  0  0  0  0
   57.6320   32.7760   44.2040 C   0  0  0  0  0  0  0  0  0  0  0  0
   57.8450   34.1730   44.7020 C   0  0  0  0  0  0  0  0  0  0  0  0
   58.7810   34.1820   45.8520 C   0  0  0  0  0  0  0  0  0  0  0  0
   58.3420   34.1780   47.1730 C   0  0  0  0  0  0  0  0  0  0  0  0
   59.2560   34.1870   48.1960 C   0  0  0  0  0  0  0  0  0  0  0  0
   60.6300   34.2010   47.9860 C   0  0  0  0  0  0  0  0  0  0  0  0
   61.0480   34.2040   46.6610 C   0  0  0  0  0  0  0  0  0  0  0  0
   60.1280   34.1940   45.6120 C   0  0  0  0  0  0  0  0  0  0  0  0
   57.3960   32.4450   42.9030 N   0  0  0  0  0  0  0  0  0  0  0  0
   57.2560   31.1310   42.8260 N   0  0  0  0  0  0  0  0  0  0  0  0
   58.1610   26.2380   45.4660 C   0  0  0  0  0  0  0  0  0  0  0  0
   58.5030   27.1000   46.6040 C   0  0  0  0  0  0  0  0  0  0  0  0
   57.7470   26.8650   47.6510 O   0  0  0  0  0  0  0  0  0  0  0  0
   59.4370   28.0800   46.8160 N   0  0  0  0  0  0  0  0  0  0  0  0
   59.3510   28.7300   48.1790 C   0  0  0  0  0  0  0  0  0  0  0  0
   59.3690   30.2220   47.9390 C   0  0  0  0  0  0  0  0  0  0  0  0
   60.4340   30.6350   47.1370 O   0  0  0  0  0  0  0  0  0  0  0  0
   60.3360   30.0790   45.8560 C   0  0  0  0  0  0  0  0  0  0  0  0
   60.5430   28.5730   46.0500 C   0  0  0  0  0  0  0  0  0  0  0  0
   57.4460   22.8430   44.0840 C   0  0  0  0  0  0  0  0  0  0  0  0
   56.5304   19.3911   43.7603 H   0  0  0  0  0  0  0  0  0  0  0  0
   55.3351   20.5919   43.1634 H   0  0  0  0  0  0  0  0  0  0  0  0
   57.0864   20.9915   43.1634 H   0  0  0  0  0  0  0  0  0  0  0  0
   54.8038   20.6408   46.7210 H   0  0  0  0  0  0  0  0  0  0  0  0
   54.0502   21.3562   45.2557 H   0  0  0  0  0  0  0  0  0  0  0  0
   54.5545   19.6321   45.2557 H   0  0  0  0  0  0  0  0  0  0  0  0
   56.9631   20.4390   47.0146 H   0  0  0  0  0  0  0  0  0  0  0  0
   57.1145   19.2106   45.7128 H   0  0  0  0  0  0  0  0  0  0  0  0
   58.1818   20.6554   45.7128 H   0  0  0  0  0  0  0  0  0  0  0  0
   55.4467   23.0034   44.8350 H   0  0  0  0  0  0  0  0  0  0  0  0
   55.9768   23.7493   46.8126 H   0  0  0  0  0  0  0  0  0  0  0  0
   56.8408   22.2011   47.1778 H   0  0  0  0  0  0  0  0  0  0  0  0
   58.2989   24.1683   47.4485 H   0  0  0  0  0  0  0  0  0  0  0  0
   58.8742   23.0696   46.1606 H   0  0  0  0  0  0  0  0  0  0  0  0
   58.8930   28.5500   43.1460 H   0  0  0  0  0  0  0  0  0  0  0  0
   57.7985   31.5099   46.0489 H   0  0  0  0  0  0  0  0  0  0  0  0
   58.2642   34.7858   43.8903 H   0  0  0  0  0  0  0  0  0  0  0  0
   56.8783   34.5832   45.0294 H   0  0  0  0  0  0  0  0  0  0  0  0
   57.2649   34.1677   47.3960 H   0  0  0  0  0  0  0  0  0  0  0  0
   58.8840   34.1829   49.2312 H   0  0  0  0  0  0  0  0  0  0  0  0
   61.3457   34.2092   48.8213 H   0  0  0  0  0  0  0  0  0  0  0  0
   62.1244   34.2145   46.4347 H   0  0  0  0  0  0  0  0  0  0  0  0
   60.4920   34.1958   44.5740 H   0  0  0  0  0  0  0  0  0  0  0  0
   57.3370   33.1140   42.1120 H   0  0  0  0  0  0  0  0  0  0  0  0
   58.4183   28.4365   48.6828 H   0  0  0  0  0  0  0  0  0  0  0  0
   60.1859   28.4186   48.8240 H   0  0  0  0  0  0  0  0  0  0  0  0
   58.4282   30.5087   47.4464 H   0  0  0  0  0  0  0  0  0  0  0  0
   59.4870   30.7101   48.9177 H   0  0  0  0  0  0  0  0  0  0  0  0
   59.3441   30.2788   45.4244 H   0  0  0  0  0  0  0  0  0  0  0  0
   61.0768   30.5085   45.1655 H   0  0  0  0  0  0  0  0  0  0  0  0
   60.5765   28.0698   45.0724 H   0  0  0  0  0  0  0  0  0  0  0  0
   61.4920   28.3769   46.5704 H   0  0  0  0  0  0  0  0  0  0  0  0
   57.0925   22.5759   43.0772 H   0  0  0  0  0  0  0  0  0  0  0  0
   58.3720   22.2814   44.2764 H   0  0  0  0  0  0  0  0  0  0  0  0
  1  2  1  0
  2  3  1  0
  2  4  1  0
  2  5  1  0
  5  6  1  0
  6  7  1  0
  7  8  1  0
  8  9  2  0
  9 10  1  0
 10 11  1  0
 11 12  1  0
 12 13  1  0
 13 14  2  0
 13 15  1  0
 15 16  1  0
 16 17  2  0
 17 18  1  0
 18 19  1  0
 19 20  2  0
 20 21  1  0
 21 22  2  0
 22 23  1  0
 23 24  2  0
 17 25  1  0
 25 26  1  0
 11 27  2  0
 27 28  1  0
 28 29  2  0
 28 30  1  0
 30 31  1  0
 31 32  1  0
 32 33  1  0
 33 34  1  0
 34 35  1  0
  9 36  1  0
 36  5  1  0
 27  8  1  0
 35 30  1  0
 26 15  2  0
 24 19  1  0
  1 37  1  0
  1 38  1  0
  1 39  1  0
  3 40  1  0
  3 41  1  0
  3 42  1  0
  4 43  1  0
  4 44  1  0
  4 45  1  0
  5 46  1  6
  6 47  1  0
  6 48  1  0
  7 49  1  0
  7 50  1  0
 12 51  1  0
 16 52  1  0
 18 53  1  0
 18 54  1  0
 20 55  1  0
 21 56  1  0
 22 57  1  0
 23 58  1  0
 24 59  1  0
 25 60  1  0
 31 61  1  0
 31 62  1  0
 32 63  1  0
 32 64  1  0
 34 65  1  0
 34 66  1  0
 35 67  1  0
 35 68  1  0
 36 69  1  0
 36 70  1  0
M  END
>  <smiles>  (81) 
CC(C)(C)C1CCc2c(sc(NC(=O)c3cc(Cc4ccccc4)[nH]n3)c2C(=O)N2CCOCC2)C1

>  <score_type>  (81) 
oracle

>  <origin>  (81) 
adg

>  <m_score__min__energy>  (81) 
-10.1

>  <m_primary>  (81) 
energy

$$$$
81:0
     RDKit          3D

 88 93  0  0  0  0  0  0  0  0999 V2000
   63.7210   32.6920   46.9850 C   0  0  0  0  0  0  0  0  0  0  0  0
   64.0540   32.2760   48.3080 O   0  0  0  0  0  0  0  0  0  0  0  0
   63.3600   32.6650   49.4660 C   0  0  0  0  0  0  0  0  0  0  0  0
   62.0220   32.2900   49.7000 C   0  0  0  0  0  0  0  0  0  0  0  0
   61.3620   32.6950   50.8700 C   0  0  0  0  0  0  0  0  0  0  0  0
   60.0230   32.3390   51.1210 C   0  0  0  0  0  0  0  0  0  0  0  0
   59.3100   31.6100   50.1570 O   0  0  0  0  0  0  0  0  0  0  0  0
   59.6210   30.3270   49.6850 C   0  0  0  0  0  0  0  0  0  0  0  0
   59.5850   30.1050   48.3030 C   0  0  0  0  0  0  0  0  0  0  0  0
   59.9340   28.8620   47.7730 C   0  0  0  0  0  0  0  0  0  0  0  0
   60.3170   27.8160   48.6170 C   0  0  0  0  0  0  0  0  0  0  0  0
   60.7420   26.5830   48.0290 N   0  0  0  0  0  0  0  0  0  0  0  0
   60.2960   26.0270   46.7850 C   0  0  0  0  0  0  0  0  0  0  0  0
   61.1630   25.5700   45.9900 O   0  0  0  0  0  0  0  0  0  0  0  0
   58.8670   26.0250   46.3790 C   0  0  0  0  0  0  0  0  0  0  0  0
   57.8710   25.3270   47.2750 C   0  0  0  0  0  0  0  0  0  0  0  0
   58.4960   26.5180   45.1810 C   0  0  0  0  0  0  0  0  0  0  0  0
   57.7590   27.7920   45.0320 C   0  0  0  0  0  0  0  0  0  0  0  0
   56.3790   27.8690   45.2730 C   0  0  0  0  0  0  0  0  0  0  0  0
   55.6470   26.7730   45.7320 O   0  0  0  0  0  0  0  0  0  0  0  0
   55.7280   29.0370   45.0570 N   0  0  0  0  0  0  0  0  0  0  0  0
   56.3740   30.1520   44.6290 C   0  0  0  0  0  0  0  0  0  0  0  0
   55.7060   31.2040   44.4300 O   0  0  0  0  0  0  0  0  0  0  0  0
   57.7310   30.1270   44.4180 N   0  0  0  0  0  0  0  0  0  0  0  0
   58.4380   31.3330   43.9400 C   0  0  0  0  0  0  0  0  0  0  0  0
   58.5100   32.3730   45.0290 C   0  0  0  0  0  0  0  0  0  0  0  0
   58.1570   32.0470   46.3500 C   0  0  0  0  0  0  0  0  0  0  0  0
   58.2420   33.0100   47.3610 C   0  0  0  0  0  0  0  0  0  0  0  0
   58.6840   34.3030   47.0620 C   0  0  0  0  0  0  0  0  0  0  0  0
   59.0350   34.6350   45.7510 C   0  0  0  0  0  0  0  0  0  0  0  0
   58.9560   33.6730   44.7380 C   0  0  0  0  0  0  0  0  0  0  0  0
   58.4280   28.9580   44.6190 C   0  0  0  0  0  0  0  0  0  0  0  0
   59.6780   28.9220   44.4400 O   0  0  0  0  0  0  0  0  0  0  0  0
   60.3760   28.0340   50.0040 C   0  0  0  0  0  0  0  0  0  0  0  0
   60.0320   29.2840   50.5390 C   0  0  0  0  0  0  0  0  0  0  0  0
   60.1750   29.4910   51.8730 F   0  0  0  0  0  0  0  0  0  0  0  0
   59.4120   32.7780   52.3080 C   0  0  0  0  0  0  0  0  0  0  0  0
   60.1410   33.5360   53.2240 C   0  0  0  0  0  0  0  0  0  0  0  0
   61.4320   33.8680   52.9600 N   0  0  0  0  0  0  0  0  0  0  0  0
   62.0550   33.4760   51.8200 C   0  0  0  0  0  0  0  0  0  0  0  0
   63.3810   33.8490   51.5880 C   0  0  0  0  0  0  0  0  0  0  0  0
   64.0380   33.4500   50.4090 C   0  0  0  0  0  0  0  0  0  0  0  0
   65.3670   33.8090   50.1370 O   0  0  0  0  0  0  0  0  0  0  0  0
   66.4930   32.9390   50.2510 C   0  0  0  0  0  0  0  0  0  0  0  0
   66.3520   32.0710   51.5040 C   0  0  0  0  0  0  0  0  0  0  0  0
   65.9410   30.6280   51.1740 C   0  0  0  0  0  0  0  0  0  0  0  0
   65.5460   29.8950   52.4010 N   0  0  0  0  0  0  0  0  0  0  0  0
   64.7810   28.6670   52.0990 C   0  0  0  0  0  0  0  0  0  0  0  0
   63.3610   28.9940   51.5840 C   0  0  0  0  0  0  0  0  0  0  0  0
   62.9640   30.3290   51.8520 O   0  0  0  0  0  0  0  0  0  0  0  0
   63.2880   30.6760   53.1820 C   0  0  0  0  0  0  0  0  0  0  0  0
   64.8180   30.7460   53.3710 C   0  0  0  0  0  0  0  0  0  0  0  0
   63.0342   33.5500   47.0324 H   0  0  0  0  0  0  0  0  0  0  0  0
   64.6371   32.9847   46.4512 H   0  0  0  0  0  0  0  0  0  0  0  0
   63.2348   31.8622   46.4512 H   0  0  0  0  0  0  0  0  0  0  0  0
   61.4905   31.6746   48.9592 H   0  0  0  0  0  0  0  0  0  0  0  0
   59.2787   30.9182   47.6285 H   0  0  0  0  0  0  0  0  0  0  0  0
   59.9075   28.7047   46.6846 H   0  0  0  0  0  0  0  0  0  0  0  0
   58.1330   25.5106   48.3275 H   0  0  0  0  0  0  0  0  0  0  0  0
   56.8619   25.7166   47.0750 H   0  0  0  0  0  0  0  0  0  0  0  0
   57.8928   24.2456   47.0750 H   0  0  0  0  0  0  0  0  0  0  0  0
   58.7521   25.9488   44.2752 H   0  0  0  0  0  0  0  0  0  0  0  0
   55.5230   25.9310   45.1840 H   0  0  0  0  0  0  0  0  0  0  0  0
   59.4584   31.0570   43.6358 H   0  0  0  0  0  0  0  0  0  0  0  0
   57.8862   31.7520   43.0856 H   0  0  0  0  0  0  0  0  0  0  0  0
   57.8124   31.0302   46.5897 H   0  0  0  0  0  0  0  0  0  0  0  0
   57.9610   32.7502   48.3923 H   0  0  0  0  0  0  0  0  0  0  0  0
   58.7552   35.0581   47.8587 H   0  0  0  0  0  0  0  0  0  0  0  0
   59.3740   35.6544   45.5148 H   0  0  0  0  0  0  0  0  0  0  0  0
   59.2443   33.9357   43.7095 H   0  0  0  0  0  0  0  0  0  0  0  0
   60.6934   27.2206   50.6731 H   0  0  0  0  0  0  0  0  0  0  0  0
   58.3616   32.5245   52.5141 H   0  0  0  0  0  0  0  0  0  0  0  0
   59.6701   33.8657   54.1618 H   0  0  0  0  0  0  0  0  0  0  0  0
   63.9152   34.4586   52.3317 H   0  0  0  0  0  0  0  0  0  0  0  0
   66.5464   32.2923   49.3628 H   0  0  0  0  0  0  0  0  0  0  0  0
   67.4109   33.5405   50.3269 H   0  0  0  0  0  0  0  0  0  0  0  0
   67.3175   32.0516   52.0307 H   0  0  0  0  0  0  0  0  0  0  0  0
   65.5605   32.5104   52.1289 H   0  0  0  0  0  0  0  0  0  0  0  0
   65.0907   30.6466   50.4765 H   0  0  0  0  0  0  0  0  0  0  0  0
   66.8006   30.1136   50.7195 H   0  0  0  0  0  0  0  0  0  0  0  0
   65.3168   28.0929   51.3287 H   0  0  0  0  0  0  0  0  0  0  0  0
   64.6849   28.0843   53.0271 H   0  0  0  0  0  0  0  0  0  0  0  0
   63.3381   28.8340   50.4959 H   0  0  0  0  0  0  0  0  0  0  0  0
   62.6603   28.3316   52.1134 H   0  0  0  0  0  0  0  0  0  0  0  0
   62.8501   31.6576   53.4158 H   0  0  0  0  0  0  0  0  0  0  0  0
   62.8835   29.9069   53.8564 H   0  0  0  0  0  0  0  0  0  0  0  0
   65.1429   31.7887   53.2398 H   0  0  0  0  0  0  0  0  0  0  0  0
   65.0486   30.3763   54.3810 H   0  0  0  0  0  0  0  0  0  0  0  0
  1  2  1  0
  2  3  1  0
  3  4  2  0
  4  5  1  0
  5  6  2  0
  6  7  1  0
  7  8  1  0
  8  9  2  0
  9 10  1  0
 10 11  2  0
 11 12  1  0
 12 13  1  0
 13 14  2  0
 13 15  1  0
 15 16  1  0
 15 17  2  3
 17 18  1  0
 18 19  2  0
 19 20  1  0
 19 21  1  0
 21 22  1  0
 22 23  2  0
 22 24  1  0
 24 25  1  0
 25 26  1  0
 26 27  2  0
 27 28  1  0
 28 29  2  0
 29 30  1  0
 30 31  2  0
 24 32  1  0
 32 33  2  0
 11 34  1  0
 34 35  2  0
 35 36  1  0
  6 37  1  0
 37 38  2  0
 38 39  1  0
 39 40  2  0
 40 41  1  0
 41 42  2  0
 42 43  1  0
 43 44  1  0
 44 45  1  0
 45 46  1  0
 46 47  1  0
 47 48  1  0
 48 49  1  0
 49 50  1  0
 50 51  1  0
 51 52  1  0
 42  3  1  0
 52 47  1  0
 40  5  1  0
 35  8  1  0
 32 18  1  0
 31 26  1  0
  1 53  1  0
  1 54  1  0
  1 55  1  0
  4 56  1  0
  9 57  1  0
 10 58  1  0
 16 59  1  0
 16 60  1  0
 16 61  1  0
 17 62  1  0
 20 63  1  0
 25 64  1  0
 25 65  1  0
 27 66  1  0
 28 67  1  0
 29 68  1  0
 30 69  1  0
 31 70  1  0
 34 71  1  0
 37 72  1  0
 38 73  1  0
 41 74  1  0
 44 75  1  0
 44 76  1  0
 45 77  1  0
 45 78  1  0
 46 79  1  0
 46 80  1  0
 48 81  1  0
 48 82  1  0
 49 83  1  0
 49 84  1  0
 51 85  1  0
 51 86  1  0
 52 87  1  0
 52 88  1  0
M  CHG  2  12  -1  21  -1
M  END
>  <UniqueID>  (82) 
76

>  <SMILES>  (82) 
COc1cc2c(Oc3ccc([N-]C(=O)C(C)=Cc4c(O)[n-]c(=O)n(Cc5ccccc5)c4=O)cc3F)ccnc2cc1OCCCN1CCOCC1

>  <Energy>  (82) 
132.07886732319227

>  <Genealogy>  (82) 
COc1cc2c(Oc3ccc([N-]C(=O)C(C)=Cc4c(O)[n-]c(=O)n(Cc5ccccc5)c4=O)cc3F)ccnc2cc1OCCCN1CCOCC1 (protonated)
COc1cc2c(Oc3ccc([N-]C(=O)C(C)=Cc4c(O)[n-]c(=O)n(Cc5ccccc5)c4=O)cc3F)ccnc2cc1OCCCN1CCOCC1 (3D coordinates assigned)
COc1cc2c(Oc3ccc([N-]C(=O)C(C)=Cc4c(O)[n-]c(=O)n(Cc5ccccc5)c4=O)cc3F)ccnc2cc1OCCCN1CCOCC1 (nonaromatic ring conformer: 132.07886732319227 kcal/mol)

>  <smiles>  (82) 
COc1cc2c(Oc3ccc(NC(=O)C(C)=Cc4c(O)[nH]c(=O)n(Cc5ccccc5)c4=O)cc3F)ccnc2cc1OCCCN1CCOCC1

>  <score_type>  (82) 
oracle

>  <origin>  (82) 
adg

>  <m_score__min__energy>  (82) 
-13.609999999999999

>  <m_primary>  (82) 
energy

$$$$
82:0
     RDKit          3D

 58 61  0  0  0  0  0  0  0  0999 V2000
   61.9000   34.5810   49.1470 H   0  0  0  0  0  0  0  0  0  0  0  0
   62.8930   34.5480   49.1470 O   0  0  0  0  0  0  0  0  0  0  0  0
   63.2620   33.3760   49.8280 C   0  0  1  0  0  0  0  0  0  0  0  0
   63.2931   32.5505   49.1016 H   0  0  0  0  0  0  0  0  0  0  0  0
   64.6580   33.4820   50.4120 C   0  0  0  0  0  0  0  0  0  0  0  0
   64.9260   34.2520   51.5590 C   0  0  0  0  0  0  0  0  0  0  0  0
   64.1145   34.8168   52.0412 H   0  0  0  0  0  0  0  0  0  0  0  0
   66.1840   34.3010   52.0740 N   0  0  0  0  0  0  0  0  0  0  0  0
   67.2130   33.6140   51.5130 C   0  0  0  0  0  0  0  0  0  0  0  0
   68.2195   33.6766   51.9525 H   0  0  0  0  0  0  0  0  0  0  0  0
   66.9950   32.8290   50.3800 C   0  0  0  0  0  0  0  0  0  0  0  0
   67.8253   32.2698   49.9239 H   0  0  0  0  0  0  0  0  0  0  0  0
   65.7140   32.7600   49.8310 C   0  0  0  0  0  0  0  0  0  0  0  0
   65.5306   32.1392   48.9417 H   0  0  0  0  0  0  0  0  0  0  0  0
   62.2060   33.0210   50.9000 C   0  0  0  0  0  0  0  0  0  0  0  0
   62.4241   33.6099   51.8031 H   0  0  0  0  0  0  0  0  0  0  0  0
   62.2811   31.9354   51.0605 H   0  0  0  0  0  0  0  0  0  0  0  0
   60.8110   33.2860   50.5060 N   0  0  0  0  0  0  0  0  0  0  0  0
   60.7610   34.0830   49.8300 H   0  0  0  0  0  0  0  0  0  0  0  0
   60.1350   32.1100   49.9420 C   0  0  0  0  0  0  0  0  0  0  0  0
   59.1629   32.4136   49.5264 H   0  0  0  0  0  0  0  0  0  0  0  0
   59.9857   31.3647   50.7371 H   0  0  0  0  0  0  0  0  0  0  0  0
   60.9900   31.4940   48.8320 C   0  0  0  0  0  0  0  0  0  0  0  0
   61.9590   31.1891   49.2539 H   0  0  0  0  0  0  0  0  0  0  0  0
   61.1281   32.2474   48.0425 H   0  0  0  0  0  0  0  0  0  0  0  0
   60.3180   30.2890   48.2260 C   0  0  0  0  0  0  0  0  0  0  0  0
   59.1590   29.7580   48.8120 C   0  0  0  0  0  0  0  0  0  0  0  0
   58.7527   30.2105   49.7286 H   0  0  0  0  0  0  0  0  0  0  0  0
   58.5180   28.6570   48.2370 C   0  0  0  0  0  0  0  0  0  0  0  0
   57.6048   28.2527   48.6982 H   0  0  0  0  0  0  0  0  0  0  0  0
   59.0350   28.0640   47.0720 C   0  0  0  0  0  0  0  0  0  0  0  0
   58.3960   26.9440   46.4430 N   0  0  0  0  0  0  0  0  0  0  0  0
   56.9860   26.7620   46.2750 C   0  0  0  0  0  0  0  0  0  0  0  0
   56.3790   25.9870   47.0600 O   0  0  0  0  0  0  0  0  0  0  0  0
   56.2750   27.5030   45.2680 N   0  0  0  0  0  0  0  0  0  0  0  0
   56.4320   28.7530   44.9420 C   0  0  0  0  0  0  0  0  0  0  0  0
   55.3880   29.6040   44.8540 N   0  0  0  0  0  0  0  0  0  0  0  0
   55.7450   30.8430   44.5190 N   0  0  0  0  0  0  0  0  0  0  0  0
   57.0780   30.9890   44.3500 C   0  0  0  0  0  0  0  0  0  0  0  0
   57.7200   32.2660   43.9160 C   0  0  0  0  0  0  0  0  0  0  0  0
   58.4999   32.0470   43.1719 H   0  0  0  0  0  0  0  0  0  0  0  0
   56.9558   32.9220   43.4737 H   0  0  0  0  0  0  0  0  0  0  0  0
   58.3400   32.9580   45.0980 C   0  0  0  0  0  0  0  0  0  0  0  0
   59.3190   33.9480   44.9050 C   0  0  0  0  0  0  0  0  0  0  0  0
   59.6521   34.1981   43.8869 H   0  0  0  0  0  0  0  0  0  0  0  0
   59.8710   34.6160   46.0020 C   0  0  0  0  0  0  0  0  0  0  0  0
   60.6405   35.3864   45.8456 H   0  0  0  0  0  0  0  0  0  0  0  0
   59.4460   34.3060   47.2990 C   0  0  0  0  0  0  0  0  0  0  0  0
   59.9960   34.9710   48.3880 O   0  0  0  0  0  0  0  0  0  0  0  0
   58.4650   33.3300   47.4970 C   0  0  0  0  0  0  0  0  0  0  0  0
   58.1305   33.0869   48.5163 H   0  0  0  0  0  0  0  0  0  0  0  0
   57.9080   32.6620   46.4020 C   0  0  0  0  0  0  0  0  0  0  0  0
   57.1289   31.9021   46.5620 H   0  0  0  0  0  0  0  0  0  0  0  0
   57.8910   29.5330   44.5950 S   0  0  0  0  0  0  0  0  0  0  0  0
   60.1680   28.6220   46.4660 C   0  0  0  0  0  0  0  0  0  0  0  0
   60.5551   28.1908   45.5310 H   0  0  0  0  0  0  0  0  0  0  0  0
   60.8100   29.7220   47.0400 C   0  0  0  0  0  0  0  0  0  0  0  0
   61.7048   30.1456   46.5605 H   0  0  0  0  0  0  0  0  0  0  0  0
  1  2  1  0
  2  3  1  0
  3  4  1  6
  3  5  1  0
  5  6  2  0
  6  7  1  0
  6  8  1  0
  8  9  2  0
  9 10  1  0
  9 11  1  0
 11 12  1  0
 11 13  2  0
 13 14  1  0
  3 15  1  0
 15 16  1  0
 15 17  1  0
 15 18  1  0
 18 19  1  0
 18 20  1  0
 20 21  1  0
 20 22  1  0
 20 23  1  0
 23 24  1  0
 23 25  1  0
 23 26  1  0
 26 27  2  0
 27 28  1  0
 27 29  1  0
 29 30  1  0
 29 31  2  0
 31 32  1  0
 32 33  1  0
 33 34  2  0
 33 35  1  0
 35 36  2  0
 36 37  1  0
 37 38  1  0
 38 39  2  0
 39 40  1  0
 40 41  1  0
 40 42  1  0
 40 43  1  0
 43 44  2  0
 44 45  1  0
 44 46  1  0
 46 47  1  0
 46 48  2  0
 48 49  1  0
 48 50  1  0
 50 51  1  0
 50 52  2  0
 52 53  1  0
 39 54  1  0
 31 55  1  0
 55 56  1  0
 55 57  2  0
 57 58  1  0
 13  5  1  0
 57 26  1  0
 54 36  1  0
 52 43  1  0
M  CHG  3  32  -1  37  -1  49  -1
M  END
>  <UniqueID>  (83) 
77

>  <SMILES>  (83) 
O=C(/N=c1/[n-]nc(Cc2ccc([O-])cc2)s1)[N-]c1ccc(CCNC[C@@H](O)c2cccnc2)cc1

>  <Energy>  (83) 
101.04860267858902

>  <Genealogy>  (83) 
O=C(N=c1[n-]nc(Cc2ccc([O-])cc2)s1)[N-]c1ccc(CCNCC(O)c2cccnc2)cc1 (protonated)
O=C(N=c1[n-]nc(Cc2ccc([O-])cc2)s1)[N-]c1ccc(CCNC[C@@H](O)c2cccnc2)cc1 (chirality)
O=C(/N=c1/[n-]nc(Cc2ccc([O-])cc2)s1)[N-]c1ccc(CCNC[C@@H](O)c2cccnc2)cc1 (cis-trans isomerization)
O=C(/N=c1/[n-]nc(Cc2ccc([O-])cc2)s1)[N-]c1ccc(CCNC[C@@H](O)c2cccnc2)cc1 (3D coordinates assigned)
O=C(/N=c1/[n-]nc(Cc2ccc([O-])cc2)s1)[N-]c1ccc(CCNC[C@@H](O)c2cccnc2)cc1 (optimized conformer: 101.04860267858902 kcal/mol)

>  <smiles>  (83) 
O=C(N=c1[nH]nc(Cc2ccc(O)cc2)s1)Nc1ccc(CCNCC(O)c2cccnc2)cc1

>  <score_type>  (83) 
oracle

>  <origin>  (83) 
adg

>  <m_score__min__energy>  (83) 
-15.460000000000001

>  <m_primary>  (83) 
energy

$$$$
83:0
     RDKit          3D

 41 43  0  0  0  0  0  0  0  0999 V2000
   55.5480   25.3140   45.9920 C   0  0  0  0  0  0  0  0  0  0  0  0
   55.7730   26.7060   46.0000 O   0  0  0  0  0  0  0  0  0  0  0  0
   57.0350   27.0030   45.4370 C   0  0  0  0  0  0  0  0  0  0  0  0
   57.4170   28.4350   45.7070 C   0  0  0  0  0  0  0  0  0  0  0  0
   56.9940   29.6050   45.0570 C   0  0  0  0  0  0  0  0  0  0  0  0
   56.0620   29.6780   43.9090 C   0  0  0  0  0  0  0  0  0  0  0  0
   54.8520   29.3560   44.0250 O   0  0  0  0  0  0  0  0  0  0  0  0
   57.5950   30.6940   45.6180 N   0  0  0  0  0  0  0  0  0  0  0  0
   57.4140   32.1010   45.2520 C   0  0  0  0  0  0  0  0  0  0  0  0
   58.4010   30.2170   46.5950 C   0  0  0  0  0  0  0  0  0  0  0  0
   59.2640   30.9160   47.4520 C   0  0  0  0  0  0  0  0  0  0  0  0
   59.4050   32.3050   47.3610 O   0  0  0  0  0  0  0  0  0  0  0  0
   60.4300   32.9440   46.6020 C   0  0  0  0  0  0  0  0  0  0  0  0
   61.7350   32.8970   47.3470 C   0  0  0  0  0  0  0  0  0  0  0  0
   62.8800   33.4800   46.7840 C   0  0  0  0  0  0  0  0  0  0  0  0
   64.0820   33.4560   47.4930 C   0  0  0  0  0  0  0  0  0  0  0  0
   64.1330   32.8570   48.7520 C   0  0  0  0  0  0  0  0  0  0  0  0
   62.9750   32.2900   49.2860 C   0  0  0  0  0  0  0  0  0  0  0  0
   61.8080   32.3210   48.5840 N   0  0  0  0  0  0  0  0  0  0  0  0
   59.9740   30.1990   48.3750 N   0  0  0  0  0  0  0  0  0  0  0  0
   59.8730   28.8400   48.4800 C   0  0  0  0  0  0  0  0  0  0  0  0
   59.0270   28.1220   47.6210 C   0  0  0  0  0  0  0  0  0  0  0  0
   58.3020   28.8540   46.6810 C   0  0  0  0  0  0  0  0  0  0  0  0
   55.4886   24.9462   47.0270 H   0  0  0  0  0  0  0  0  0  0  0  0
   54.6033   25.0983   45.4714 H   0  0  0  0  0  0  0  0  0  0  0  0
   56.3766   24.8116   45.4714 H   0  0  0  0  0  0  0  0  0  0  0  0
   57.7923   26.3383   45.8782 H   0  0  0  0  0  0  0  0  0  0  0  0
   56.9803   26.8516   44.3488 H   0  0  0  0  0  0  0  0  0  0  0  0
   56.4362   30.0214   42.9333 H   0  0  0  0  0  0  0  0  0  0  0  0
   57.3356   32.7101   46.1646 H   0  0  0  0  0  0  0  0  0  0  0  0
   58.2760   32.4393   44.6583 H   0  0  0  0  0  0  0  0  0  0  0  0
   56.4944   32.2101   44.6583 H   0  0  0  0  0  0  0  0  0  0  0  0
   60.5435   32.4272   45.6376 H   0  0  0  0  0  0  0  0  0  0  0  0
   60.1502   33.9946   46.4349 H   0  0  0  0  0  0  0  0  0  0  0  0
   62.8309   33.9523   45.7918 H   0  0  0  0  0  0  0  0  0  0  0  0
   64.9866   33.9081   47.0603 H   0  0  0  0  0  0  0  0  0  0  0  0
   65.0760   32.8319   49.3178 H   0  0  0  0  0  0  0  0  0  0  0  0
   63.0047   31.8160   50.2782 H   0  0  0  0  0  0  0  0  0  0  0  0
   60.9580   31.8920   49.0130 H   0  0  0  0  0  0  0  0  0  0  0  0
   60.4586   28.3057   49.2427 H   0  0  0  0  0  0  0  0  0  0  0  0
   58.9393   27.0274   47.6863 H   0  0  0  0  0  0  0  0  0  0  0  0
  1  2  1  0
  2  3  1  0
  3  4  1  0
  4  5  2  0
  5  6  1  0
  6  7  2  0
  5  8  1  0
  8  9  1  0
  8 10  1  0
 10 11  2  0
 11 12  1  0
 12 13  1  0
 13 14  1  0
 14 15  2  0
 15 16  1  0
 16 17  2  0
 17 18  1  0
 18 19  2  0
 11 20  1  0
 20 21  2  0
 21 22  1  0
 22 23  2  0
 23  4  1  0
 23 10  1  0
 19 14  1  0
  1 24  1  0
  1 25  1  0
  1 26  1  0
  3 27  1  0
  3 28  1  0
  6 29  1  0
  9 30  1  0
  9 31  1  0
  9 32  1  0
 13 33  1  0
 13 34  1  0
 15 35  1  0
 16 36  1  0
 17 37  1  0
 18 38  1  0
 19 39  1  0
 21 40  1  0
 22 41  1  0
M  CHG  1  19   1
M  END
>  <UniqueID>  (84) 
78

>  <SMILES>  (84) 
COCc1c(C=O)n(C)c2c(OCc3cccc[nH+]3)nccc12

>  <Energy>  (84) 
81.15254489357395

>  <Genealogy>  (84) 
COCc1c(C=O)n(C)c2c(OCc3cccc[nH+]3)nccc12 (protonated)
COCc1c(C=O)n(C)c2c(OCc3cccc[nH+]3)nccc12 (3D coordinates assigned)
COCc1c(C=O)n(C)c2c(OCc3cccc[nH+]3)nccc12 (optimized conformer: 81.15254489357395 kcal/mol)

>  <smiles>  (84) 
COCc1c(C=O)n(C)c2c(OCc3ccccn3)nccc12

>  <score_type>  (84) 
oracle

>  <origin>  (84) 
adg

>  <m_score__min__energy>  (84) 
-4.9100000000000001

>  <m_primary>  (84) 
energy

$$$$
84:0
     RDKit          3D

 39 41  0  0  0  0  0  0  0  0999 V2000
   59.7940   26.3500   46.1280 C   0  0  0  0  0  0  0  0  0  0  0  0
   59.3060   27.7640   46.1420 C   0  0  0  0  0  0  0  0  0  0  0  0
   57.9930   28.0580   45.7750 C   0  0  0  0  0  0  0  0  0  0  0  0
   57.5600   29.3850   45.8010 C   0  0  0  0  0  0  0  0  0  0  0  0
   56.2380   29.6810   45.4670 O   0  0  0  0  0  0  0  0  0  0  0  0
   58.4560   30.4080   46.1840 C   0  0  0  0  0  0  0  0  0  0  0  0
   58.0040   31.8360   46.2000 C   0  0  0  0  0  0  0  0  0  0  0  0
   57.3400   32.2800   45.1710 N   0  0  0  0  0  0  0  0  0  0  0  0
   57.8500   33.1250   44.0960 C   0  0  0  0  0  0  0  0  0  0  0  0
   59.1510   33.8200   44.4930 C   0  0  0  0  0  0  0  0  0  0  0  0
   58.9120   34.9740   45.8860 S   0  0  0  0  0  0  0  0  0  0  0  0
   59.1770   33.8660   47.3270 C   0  0  2  0  0  0  0  0  0  0  0  0
   60.6510   33.5570   47.5740 C   0  0  0  0  0  0  0  0  0  0  0  0
   61.5830   33.8110   46.5470 C   0  0  0  0  0  0  0  0  0  0  0  0
   62.9390   33.5190   46.7210 C   0  0  0  0  0  0  0  0  0  0  0  0
   63.3870   32.9610   47.9180 C   0  0  0  0  0  0  0  0  0  0  0  0
   62.4790   32.6920   48.9420 C   0  0  0  0  0  0  0  0  0  0  0  0
   61.1210   32.9810   48.7730 C   0  0  0  0  0  0  0  0  0  0  0  0
   58.1760   32.6880   47.4400 C   0  0  0  0  0  0  0  0  0  0  0  0
   59.7690   30.0190   46.5420 C   0  0  0  0  0  0  0  0  0  0  0  0
   60.6290   30.8680   46.8890 O   0  0  0  0  0  0  0  0  0  0  0  0
   60.1300   28.7380   46.5060 O   0  0  0  0  0  0  0  0  0  0  0  0
   59.9168   25.9942   47.1616 H   0  0  0  0  0  0  0  0  0  0  0  0
   59.0630   25.7150   45.6060 H   0  0  0  0  0  0  0  0  0  0  0  0
   60.7610   26.3010   45.6060 H   0  0  0  0  0  0  0  0  0  0  0  0
   57.3071   27.2543   45.4689 H   0  0  0  0  0  0  0  0  0  0  0  0
   55.9460   30.6230   45.2320 H   0  0  0  0  0  0  0  0  0  0  0  0
   58.0353   32.5009   43.2093 H   0  0  0  0  0  0  0  0  0  0  0  0
   57.0986   33.8995   43.8826 H   0  0  0  0  0  0  0  0  0  0  0  0
   59.8863   33.0564   44.7866 H   0  0  0  0  0  0  0  0  0  0  0  0
   59.5039   34.4003   43.6278 H   0  0  0  0  0  0  0  0  0  0  0  0
   58.8926   34.4474   48.2165 H   0  0  0  0  0  0  0  0  0  0  0  0
   61.2387   34.2446   45.5965 H   0  0  0  0  0  0  0  0  0  0  0  0
   63.6541   33.7298   45.9121 H   0  0  0  0  0  0  0  0  0  0  0  0
   64.4545   32.7334   48.0543 H   0  0  0  0  0  0  0  0  0  0  0  0
   62.8322   32.2510   49.8858 H   0  0  0  0  0  0  0  0  0  0  0  0
   60.4119   32.7568   49.5835 H   0  0  0  0  0  0  0  0  0  0  0  0
   58.5202   32.0319   48.2530 H   0  0  0  0  0  0  0  0  0  0  0  0
   57.1944   33.1516   47.6173 H   0  0  0  0  0  0  0  0  0  0  0  0
  1  2  1  0
  2  3  2  0
  3  4  1  0
  4  5  1  0
  4  6  2  0
  6  7  1  0
  7  8  2  0
  8  9  1  0
  9 10  1  0
 10 11  1  0
 11 12  1  0
 12 13  1  0
 13 14  2  0
 14 15  1  0
 15 16  2  0
 16 17  1  0
 17 18  2  0
 12 19  1  0
  6 20  1  0
 20 21  2  0
 20 22  1  0
 22  2  1  0
 19  7  1  0
 18 13  1  0
  1 23  1  0
  1 24  1  0
  1 25  1  0
  3 26  1  0
  5 27  1  0
  9 28  1  0
  9 29  1  0
 10 30  1  0
 10 31  1  0
 12 32  1  1
 14 33  1  0
 15 34  1  0
 16 35  1  0
 17 36  1  0
 18 37  1  0
 19 38  1  0
 19 39  1  0
M  END
>  <UniqueID>  (85) 
79

>  <SMILES>  (85) 
Cc1cc(O)c(C2=NCCS[C@H](c3ccccc3)C2)c(=O)o1

>  <Energy>  (85) 
56.54524527983211

>  <Genealogy>  (85) 
Cc1cc(O)c(C2=NCCS[C@H](c3ccccc3)C2)c(=O)o1 (chirality)
Cc1cc(O)c(C2=NCCS[C@H](c3ccccc3)C2)c(=O)o1 (3D coordinates assigned)
Cc1cc(O)c(C2=NCCS[C@H](c3ccccc3)C2)c(=O)o1 (nonaromatic ring conformer: 56.54524527983211 kcal/mol)

>  <smiles>  (85) 
Cc1cc(O)c(C2=NCCSC(c3ccccc3)C2)c(=O)o1

>  <score_type>  (85) 
oracle

>  <origin>  (85) 
adg

>  <m_score__min__energy>  (85) 
-5.7400000000000002

>  <m_primary>  (85) 
energy

$$$$
85:0
     RDKit          3D

 46 46  0  0  0  0  0  0  0  0999 V2000
   58.6180   30.1810   52.6240 H   0  0  0  0  0  0  0  0  0  0  0  0
   57.8850   29.6310   53.0580 O   0  0  0  0  0  0  0  0  0  0  0  0
   56.5420   29.8100   52.7330 C   0  0  0  0  0  0  0  0  0  0  0  0
   55.5940   28.9030   53.2230 C   0  0  0  0  0  0  0  0  0  0  0  0
   55.9206   28.0544   53.8421 H   0  0  0  0  0  0  0  0  0  0  0  0
   54.2390   29.0660   52.9330 C   0  0  0  0  0  0  0  0  0  0  0  0
   53.5087   28.3364   53.3129 H   0  0  0  0  0  0  0  0  0  0  0  0
   53.8000   30.1510   52.1620 C   0  0  0  0  0  0  0  0  0  0  0  0
   52.3500   30.2730   51.8670 C   0  0  0  0  0  0  0  0  0  0  0  0
   51.9051   29.5628   51.1545 H   0  0  0  0  0  0  0  0  0  0  0  0
   51.5510   31.1980   52.4180 C   0  0  0  0  0  0  0  0  0  0  0  0
   51.2763   31.0996   53.4786 H   0  0  0  0  0  0  0  0  0  0  0  0
   51.0290   32.3410   51.6510 C   0  0  0  0  0  0  0  0  0  0  0  0
   50.5830   33.3670   52.2300 O   0  0  0  0  0  0  0  0  0  0  0  0
   51.0250   32.2860   50.2630 O   0  0  0  0  0  0  0  0  0  0  0  0
   54.7540   31.0560   51.6600 C   0  0  0  0  0  0  0  0  0  0  0  0
   54.4213   31.9060   51.0461 H   0  0  0  0  0  0  0  0  0  0  0  0
   56.1200   30.8940   51.9280 C   0  0  0  0  0  0  0  0  0  0  0  0
   56.9970   31.8350   51.3610 O   0  0  0  0  0  0  0  0  0  0  0  0
   58.1450   32.3960   51.9890 C   0  0  0  0  0  0  0  0  0  0  0  0
   58.5871   31.6554   52.6716 H   0  0  0  0  0  0  0  0  0  0  0  0
   57.8495   33.2908   52.5565 H   0  0  0  0  0  0  0  0  0  0  0  0
   59.1570   32.7800   50.9440 C   0  0  0  0  0  0  0  0  0  0  0  0
   59.9586   33.4745   51.2358 H   0  0  0  0  0  0  0  0  0  0  0  0
   59.1460   32.3270   49.6680 C   0  0  0  0  0  0  0  0  0  0  0  0
   58.9510   30.8520   49.4330 C   0  0  0  0  0  0  0  0  0  0  0  0
   58.8823   30.3325   50.4002 H   0  0  0  0  0  0  0  0  0  0  0  0
   58.0237   30.6909   48.8636 H   0  0  0  0  0  0  0  0  0  0  0  0
   59.8045   30.4554   48.8636 H   0  0  0  0  0  0  0  0  0  0  0  0
   59.3850   33.2260   48.4690 C   0  0  0  0  0  0  0  0  0  0  0  0
   60.0936   34.0198   48.7479 H   0  0  0  0  0  0  0  0  0  0  0  0
   58.4254   33.6646   48.1578 H   0  0  0  0  0  0  0  0  0  0  0  0
   59.9640   32.4220   47.2980 C   0  0  0  0  0  0  0  0  0  0  0  0
   59.9475   31.3519   47.5521 H   0  0  0  0  0  0  0  0  0  0  0  0
   60.9961   32.7565   47.1167 H   0  0  0  0  0  0  0  0  0  0  0  0
   59.1560   32.6450   46.0440 C   0  0  0  0  0  0  0  0  0  0  0  0
   59.0565   31.8036   45.3425 H   0  0  0  0  0  0  0  0  0  0  0  0
   58.5460   33.8070   45.7230 C   0  0  0  0  0  0  0  0  0  0  0  0
   57.0430   33.8250   45.6230 C   0  0  0  0  0  0  0  0  0  0  0  0
   56.6083   33.8302   46.6335 H   0  0  0  0  0  0  0  0  0  0  0  0
   56.7223   34.7271   45.0813 H   0  0  0  0  0  0  0  0  0  0  0  0
   56.7008   32.9309   45.0813 H   0  0  0  0  0  0  0  0  0  0  0  0
   59.3240   35.0790   45.4780 C   0  0  0  0  0  0  0  0  0  0  0  0
   59.6005   35.5311   46.4419 H   0  0  0  0  0  0  0  0  0  0  0  0
   60.2351   34.8473   44.9069 H   0  0  0  0  0  0  0  0  0  0  0  0
   58.7027   35.7846   44.9069 H   0  0  0  0  0  0  0  0  0  0  0  0
  1  2  1  0
  2  3  1  0
  3  4  2  0
  4  5  1  0
  4  6  1  0
  6  7  1  0
  6  8  2  0
  8  9  1  0
  9 10  1  0
  9 11  2  0
 11 12  1  0
 11 13  1  0
 13 14  2  0
 13 15  1  0
  8 16  1  0
 16 17  1  0
 16 18  2  0
 18 19  1  0
 19 20  1  0
 20 21  1  0
 20 22  1  0
 20 23  1  0
 23 24  1  0
 23 25  2  3
 25 26  1  0
 26 27  1  0
 26 28  1  0
 26 29  1  0
 25 30  1  0
 30 31  1  0
 30 32  1  0
 30 33  1  0
 33 34  1  0
 33 35  1  0
 33 36  1  0
 36 37  1  0
 36 38  2  3
 38 39  1  0
 39 40  1  0
 39 41  1  0
 39 42  1  0
 38 43  1  0
 43 44  1  0
 43 45  1  0
 43 46  1  0
 18  3  1  0
M  CHG  1  15  -1
M  END
>  <UniqueID>  (86) 
80

>  <SMILES>  (86) 
CC(C)=CCCC(C)=CCOc1cc(/C=C/C(=O)[O-])ccc1O

>  <Energy>  (86) 
35.65636918272882

>  <Genealogy>  (86) 
CC(C)=CCCC(C)=CCOc1cc(C=CC(=O)[O-])ccc1O (protonated)
CC(C)=CCCC(C)=CCOc1cc(/C=C/C(=O)[O-])ccc1O (cis-trans isomerization)
CC(C)=CCCC(C)=CCOc1cc(/C=C/C(=O)[O-])ccc1O (3D coordinates assigned)
CC(C)=CCCC(C)=CCOc1cc(/C=C/C(=O)[O-])ccc1O (optimized conformer: 35.65636918272882 kcal/mol)

>  <smiles>  (86) 
CC(C)=CCCC(C)=CCOc1cc(C=CC(=O)O)ccc1O

>  <score_type>  (86) 
oracle

>  <origin>  (86) 
adg

>  <m_score__min__energy>  (86) 
-9.8699999999999992

>  <m_primary>  (86) 
energy

$$$$
86:0
     RDKit          3D

 53 55  0  0  0  0  0  0  0  0999 V2000
   63.3260   33.8180   48.3120 C   0  0  0  0  0  0  0  0  0  0  0  0
   62.2210   33.8740   49.3600 C   0  0  0  0  0  0  0  0  0  0  0  0
   60.9470   33.6150   48.7680 O   0  0  0  0  0  0  0  0  0  0  0  0
   60.5300   32.3860   48.2300 C   0  0  0  0  0  0  0  0  0  0  0  0
   61.1850   31.7630   47.1500 C   0  0  0  0  0  0  0  0  0  0  0  0
   60.7240   30.5390   46.6570 C   0  0  0  0  0  0  0  0  0  0  0  0
   59.6050   29.9130   47.2290 C   0  0  0  0  0  0  0  0  0  0  0  0
   59.1390   28.6460   46.7150 N   0  0  0  0  0  0  0  0  0  0  0  0
   58.2210   27.8230   47.5230 C   0  0  0  0  0  0  0  0  0  0  0  0
   57.4710   26.8500   46.6650 C   0  0  0  0  0  0  0  0  0  0  0  0
   56.2650   27.0740   46.3680 O   0  0  0  0  0  0  0  0  0  0  0  0
   58.1030   25.6200   46.2850 N   0  0  0  0  0  0  0  0  0  0  0  0
   57.7490   24.8310   45.3120 C   0  0  0  0  0  0  0  0  0  0  0  0
   57.1280   25.2210   44.1730 N   0  0  0  0  0  0  0  0  0  0  0  0
   56.9340   24.1820   43.3190 C   0  0  0  0  0  0  0  0  0  0  0  0
   57.4030   22.9550   43.7730 C   0  0  0  0  0  0  0  0  0  0  0  0
   58.0920   23.1880   45.2920 S   0  0  0  0  0  0  0  0  0  0  0  0
   59.5470   28.2240   45.3930 C   0  0  0  0  0  0  0  0  0  0  0  0
   60.5310   27.4460   45.2630 O   0  0  0  0  0  0  0  0  0  0  0  0
   58.8450   28.7010   44.1560 C   0  0  0  0  0  0  0  0  0  0  0  0
   57.4500   28.2750   44.1920 N   0  0  0  0  0  0  0  0  0  0  0  0
   56.4040   29.6380   43.9400 S   0  0  0  0  0  0  0  0  0  0  0  0
   55.9000   29.6180   42.5250 O   0  0  0  0  0  0  0  0  0  0  0  0
   55.2250   29.5470   44.8680 O   0  0  0  0  0  0  0  0  0  0  0  0
   57.2800   31.1430   44.2170 C   0  0  0  0  0  0  0  0  0  0  0  0
   57.7930   31.8790   43.1380 C   0  0  0  0  0  0  0  0  0  0  0  0
   58.4620   33.0860   43.3660 C   0  0  0  0  0  0  0  0  0  0  0  0
   58.6180   33.5640   44.6700 C   0  0  0  0  0  0  0  0  0  0  0  0
   58.1050   32.8370   45.7470 C   0  0  0  0  0  0  0  0  0  0  0  0
   57.4370   31.6290   45.5210 C   0  0  0  0  0  0  0  0  0  0  0  0
   58.9580   30.5350   48.3120 C   0  0  0  0  0  0  0  0  0  0  0  0
   59.4190   31.7580   48.8040 C   0  0  0  0  0  0  0  0  0  0  0  0
   64.3041   33.7684   48.8128 H   0  0  0  0  0  0  0  0  0  0  0  0
   63.1903   32.9256   47.6834 H   0  0  0  0  0  0  0  0  0  0  0  0
   63.2812   34.7196   47.6834 H   0  0  0  0  0  0  0  0  0  0  0  0
   62.4194   33.1180   50.1340 H   0  0  0  0  0  0  0  0  0  0  0  0
   62.2059   34.8807   49.8031 H   0  0  0  0  0  0  0  0  0  0  0  0
   62.0633   32.2418   46.6924 H   0  0  0  0  0  0  0  0  0  0  0  0
   61.2429   30.0616   45.8127 H   0  0  0  0  0  0  0  0  0  0  0  0
   58.8029   27.2666   48.2726 H   0  0  0  0  0  0  0  0  0  0  0  0
   57.4949   28.4885   48.0128 H   0  0  0  0  0  0  0  0  0  0  0  0
   56.8600   26.1980   43.9280 H   0  0  0  0  0  0  0  0  0  0  0  0
   56.4429   24.3029   42.3422 H   0  0  0  0  0  0  0  0  0  0  0  0
   57.3359   21.9984   43.2341 H   0  0  0  0  0  0  0  0  0  0  0  0
   58.8917   29.7990   44.1085 H   0  0  0  0  0  0  0  0  0  0  0  0
   59.3355   28.2738   43.2689 H   0  0  0  0  0  0  0  0  0  0  0  0
   57.6687   31.5059   42.1107 H   0  0  0  0  0  0  0  0  0  0  0  0
   58.8656   33.6594   42.5184 H   0  0  0  0  0  0  0  0  0  0  0  0
   59.1449   34.5130   44.8484 H   0  0  0  0  0  0  0  0  0  0  0  0
   58.2264   33.2146   46.7730 H   0  0  0  0  0  0  0  0  0  0  0  0
   57.0335   31.0587   46.3706 H   0  0  0  0  0  0  0  0  0  0  0  0
   58.0830   30.0549   48.7745 H   0  0  0  0  0  0  0  0  0  0  0  0
   58.9033   32.2327   49.6518 H   0  0  0  0  0  0  0  0  0  0  0  0
  1  2  1  0
  2  3  1  0
  3  4  1  0
  4  5  2  0
  5  6  1  0
  6  7  2  0
  7  8  1  0
  8  9  1  0
  9 10  1  0
 10 11  2  0
 10 12  1  0
 12 13  2  3
 13 14  1  0
 14 15  1  0
 15 16  2  0
 16 17  1  0
  8 18  1  0
 18 19  2  0
 18 20  1  0
 20 21  1  0
 21 22  1  0
 22 23  2  0
 22 24  2  0
 22 25  1  0
 25 26  2  0
 26 27  1  0
 27 28  2  0
 28 29  1  0
 29 30  2  0
  7 31  1  0
 31 32  2  0
 32  4  1  0
 17 13  1  0
 30 25  1  0
  1 33  1  0
  1 34  1  0
  1 35  1  0
  2 36  1  0
  2 37  1  0
  5 38  1  0
  6 39  1  0
  9 40  1  0
  9 41  1  0
 14 42  1  0
 15 43  1  0
 16 44  1  0
 20 45  1  0
 20 46  1  0
 26 47  1  0
 27 48  1  0
 28 49  1  0
 29 50  1  0
 30 51  1  0
 31 52  1  0
 32 53  1  0
M  CHG  1  21  -1
M  END
>  <UniqueID>  (87) 
81

>  <SMILES>  (87) 
CCOc1ccc(N(CC(=O)N=c2[nH]ccs2)C(=O)C[N-]S(=O)(=O)c2ccccc2)cc1

>  <Energy>  (87) 
87.24377312844462

>  <Genealogy>  (87) 
CCOc1ccc(N(CC(=O)N=c2[nH]ccs2)C(=O)C[N-]S(=O)(=O)c2ccccc2)cc1 (protonated)
CCOc1ccc(N(CC(=O)N=c2[nH]ccs2)C(=O)C[N-]S(=O)(=O)c2ccccc2)cc1 (3D coordinates assigned)
CCOc1ccc(N(CC(=O)N=c2[nH]ccs2)C(=O)C[N-]S(=O)(=O)c2ccccc2)cc1 (optimized conformer: 87.24377312844462 kcal/mol)

>  <smiles>  (87) 
CCOc1ccc(N(CC(=O)N=c2[nH]ccs2)C(=O)CNS(=O)(=O)c2ccccc2)cc1

>  <score_type>  (87) 
oracle

>  <origin>  (87) 
adg

>  <m_score__min__energy>  (87) 
-10.279999999999999

>  <m_primary>  (87) 
energy

$$$$
87:0
     RDKit          3D

 41 42  0  0  0  0  0  0  0  0999 V2000
   57.0170   34.0920   45.2660 C   0  0  0  0  0  0  0  0  0  0  0  0
   58.2750   33.8210   46.0370 C   0  0  0  0  0  0  0  0  0  0  0  0
   59.4620   34.4720   45.6790 C   0  0  0  0  0  0  0  0  0  0  0  0
   60.6440   34.2160   46.3770 C   0  0  0  0  0  0  0  0  0  0  0  0
   60.6500   33.3040   47.4350 C   0  0  0  0  0  0  0  0  0  0  0  0
   59.4660   32.6380   47.8060 C   0  0  0  0  0  0  0  0  0  0  0  0
   59.4150   31.7110   48.8620 O   0  0  0  0  0  0  0  0  0  0  0  0
   60.4770   30.8360   49.2440 C   0  0  0  0  0  0  0  0  0  0  0  0
   60.6090   29.7180   48.2580 C   0  0  0  0  0  0  0  0  0  0  0  0
   60.2630   28.5510   48.5860 O   0  0  0  0  0  0  0  0  0  0  0  0
   61.1140   29.9780   46.9430 N   0  0  0  0  0  0  0  0  0  0  0  0
   60.7760   29.1270   45.8060 C   0  0  0  0  0  0  0  0  0  0  0  0
   59.2830   29.0990   45.6250 C   0  0  0  0  0  0  0  0  0  0  0  0
   58.5970   30.2370   45.1810 C   0  0  0  0  0  0  0  0  0  0  0  0
   57.2230   30.1820   44.9520 C   0  0  0  0  0  0  0  0  0  0  0  0
   56.5150   28.9940   45.1550 C   0  0  0  0  0  0  0  0  0  0  0  0
   55.1560   28.9720   44.8630 O   0  0  0  0  0  0  0  0  0  0  0  0
   57.1880   27.8380   45.6120 C   0  0  0  0  0  0  0  0  0  0  0  0
   56.4840   26.5490   45.8450 C   0  0  0  0  0  0  0  0  0  0  0  0
   55.2380   26.5590   46.0450 O   0  0  0  0  0  0  0  0  0  0  0  0
   57.2170   25.2370   45.8800 C   0  0  0  0  0  0  0  0  0  0  0  0
   57.3250   24.5960   47.5430 Cl  0  0  0  0  0  0  0  0  0  0  0  0
   58.5760   27.9030   45.8270 C   0  0  0  0  0  0  0  0  0  0  0  0
   58.2850   32.9000   47.0980 C   0  0  0  0  0  0  0  0  0  0  0  0
   56.1885   34.2705   45.9672 H   0  0  0  0  0  0  0  0  0  0  0  0
   57.1592   34.9801   44.6327 H   0  0  0  0  0  0  0  0  0  0  0  0
   56.7809   33.2241   44.6327 H   0  0  0  0  0  0  0  0  0  0  0  0
   59.4633   35.1883   44.8442 H   0  0  0  0  0  0  0  0  0  0  0  0
   61.5722   34.7335   46.0931 H   0  0  0  0  0  0  0  0  0  0  0  0
   61.5840   33.1051   47.9810 H   0  0  0  0  0  0  0  0  0  0  0  0
   61.4193   31.4025   49.2785 H   0  0  0  0  0  0  0  0  0  0  0  0
   60.2542   30.4144   50.2353 H   0  0  0  0  0  0  0  0  0  0  0  0
   61.5920   30.8880   46.7560 H   0  0  0  0  0  0  0  0  0  0  0  0
   61.2479   29.5265   44.8962 H   0  0  0  0  0  0  0  0  0  0  0  0
   61.1414   28.1062   45.9915 H   0  0  0  0  0  0  0  0  0  0  0  0
   59.1440   31.1764   45.0126 H   0  0  0  0  0  0  0  0  0  0  0  0
   56.6912   31.0816   44.6085 H   0  0  0  0  0  0  0  0  0  0  0  0
   56.6817   24.5109   45.2505 H   0  0  0  0  0  0  0  0  0  0  0  0
   58.2380   25.4005   45.5047 H   0  0  0  0  0  0  0  0  0  0  0  0
   59.1158   27.0036   46.1583 H   0  0  0  0  0  0  0  0  0  0  0  0
   57.3567   32.3793   47.3758 H   0  0  0  0  0  0  0  0  0  0  0  0
  1  2  1  0
  2  3  2  0
  3  4  1  0
  4  5  2  0
  5  6  1  0
  6  7  1  0
  7  8  1  0
  8  9  1  0
  9 10  2  0
  9 11  1  0
 11 12  1  0
 12 13  1  0
 13 14  2  0
 14 15  1  0
 15 16  2  0
 16 17  1  0
 16 18  1  0
 18 19  1  0
 19 20  2  0
 19 21  1  0
 21 22  1  0
 18 23  2  0
  6 24  2  0
 24  2  1  0
 23 13  1  0
  1 25  1  0
  1 26  1  0
  1 27  1  0
  3 28  1  0
  4 29  1  0
  5 30  1  0
  8 31  1  0
  8 32  1  0
 11 33  1  0
 12 34  1  0
 12 35  1  0
 14 36  1  0
 15 37  1  0
 21 38  1  0
 21 39  1  0
 23 40  1  0
 24 41  1  0
M  CHG  1  17  -1
M  END
>  <UniqueID>  (88) 
82

>  <SMILES>  (88) 
Cc1cccc(OCC(=O)NCc2ccc([O-])c(C(=O)CCl)c2)c1

>  <Energy>  (88) 
35.049668443937676

>  <Genealogy>  (88) 
Cc1cccc(OCC(=O)NCc2ccc([O-])c(C(=O)CCl)c2)c1 (protonated)
Cc1cccc(OCC(=O)NCc2ccc([O-])c(C(=O)CCl)c2)c1 (3D coordinates assigned)
Cc1cccc(OCC(=O)NCc2ccc([O-])c(C(=O)CCl)c2)c1 (optimized conformer: 35.049668443937676 kcal/mol)

>  <smiles>  (88) 
Cc1cccc(OCC(=O)NCc2ccc(O)c(C(=O)CCl)c2)c1

>  <score_type>  (88) 
oracle

>  <origin>  (88) 
adg

>  <m_score__min__energy>  (88) 
-11.460000000000001

>  <m_primary>  (88) 
energy

$$$$
88:0
     RDKit          3D

 40 42  0  0  0  0  0  0  0  0999 V2000
   54.2180   23.6570   45.6960 O   0  0  0  0  0  0  0  0  0  0  0  0
   54.7770   24.7730   45.8790 C   0  0  0  0  0  0  0  0  0  0  0  0
   54.0430   25.9450   45.7410 O   0  0  0  0  0  0  0  0  0  0  0  0
   56.2030   24.8390   46.3190 C   0  0  0  0  0  0  0  0  0  0  0  0
   56.6470   26.2260   46.3650 N   0  0  0  0  0  0  0  0  0  0  0  0
   57.5830   26.7890   45.4340 C   0  0  0  0  0  0  0  0  0  0  0  0
   57.7310   26.2590   44.3000 O   0  0  0  0  0  0  0  0  0  0  0  0
   58.3740   27.9860   45.8020 C   0  0  0  0  0  0  0  0  0  0  0  0
   59.3210   28.5190   44.9100 C   0  0  0  0  0  0  0  0  0  0  0  0
   60.0480   29.6640   45.2490 C   0  0  0  0  0  0  0  0  0  0  0  0
   59.8270   30.3050   46.4770 C   0  0  0  0  0  0  0  0  0  0  0  0
   60.5780   31.5320   46.8130 C   0  0  0  0  0  0  0  0  0  0  0  0
   61.8530   31.3920   47.3880 C   0  0  0  0  0  0  0  0  0  0  0  0
   62.6020   32.5160   47.7350 C   0  0  0  0  0  0  0  0  0  0  0  0
   62.0880   33.7930   47.5160 C   0  0  0  0  0  0  0  0  0  0  0  0
   60.8290   33.9510   46.9340 C   0  0  0  0  0  0  0  0  0  0  0  0
   60.0650   32.8310   46.5640 C   0  0  0  0  0  0  0  0  0  0  0  0
   58.5040   33.1110   45.7660 S   0  0  0  0  0  0  0  0  0  0  0  0
   57.4020   32.6470   46.6740 O   0  0  0  0  0  0  0  0  0  0  0  0
   58.3200   34.5790   45.4960 O   0  0  0  0  0  0  0  0  0  0  0  0
   58.3950   32.2580   44.2590 N   0  0  0  0  0  0  0  0  0  0  0  0
   57.4790   31.3780   43.9980 C   0  0  0  0  0  0  0  0  0  0  0  0
   57.1020   31.0430   42.7410 N   0  0  0  0  0  0  0  0  0  0  0  0
   56.1710   30.0920   42.9330 C   0  0  0  0  0  0  0  0  0  0  0  0
   56.0210   29.8910   44.2810 C   0  0  0  0  0  0  0  0  0  0  0  0
   55.1460   28.9860   44.8680 O   0  0  0  0  0  0  0  0  0  0  0  0
   56.8430   30.6950   44.9750 N   0  0  0  0  0  0  0  0  0  0  0  0
   58.9040   29.7630   47.3810 C   0  0  0  0  0  0  0  0  0  0  0  0
   58.1780   28.6170   47.0450 C   0  0  0  0  0  0  0  0  0  0  0  0
   56.2962   24.3934   47.3204 H   0  0  0  0  0  0  0  0  0  0  0  0
   56.8275   24.2837   45.6037 H   0  0  0  0  0  0  0  0  0  0  0  0
   59.4911   28.0317   43.9386 H   0  0  0  0  0  0  0  0  0  0  0  0
   60.7968   30.0641   44.5495 H   0  0  0  0  0  0  0  0  0  0  0  0
   62.2635   30.3871   47.5658 H   0  0  0  0  0  0  0  0  0  0  0  0
   63.5997   32.3947   48.1821 H   0  0  0  0  0  0  0  0  0  0  0  0
   62.6755   34.6778   47.8023 H   0  0  0  0  0  0  0  0  0  0  0  0
   60.4310   34.9622   46.7633 H   0  0  0  0  0  0  0  0  0  0  0  0
   55.6212   29.5632   42.1405 H   0  0  0  0  0  0  0  0  0  0  0  0
   58.7501   30.2415   48.3594 H   0  0  0  0  0  0  0  0  0  0  0  0
   57.4479   28.2050   47.7572 H   0  0  0  0  0  0  0  0  0  0  0  0
  1  2  2  0
  2  3  1  0
  2  4  1  0
  4  5  1  0
  5  6  1  0
  6  7  2  0
  6  8  1  0
  8  9  2  0
  9 10  1  0
 10 11  2  0
 11 12  1  0
 12 13  2  0
 13 14  1  0
 14 15  2  0
 15 16  1  0
 16 17  2  0
 17 18  1  0
 18 19  2  0
 18 20  2  0
 18 21  1  0
 21 22  2  3
 22 23  1  0
 23 24  1  0
 24 25  2  0
 25 26  1  0
 25 27  1  0
 11 28  1  0
 28 29  2  0
 29  8  1  0
 17 12  1  0
 27 22  1  0
  4 30  1  0
  4 31  1  0
  9 32  1  0
 10 33  1  0
 13 34  1  0
 14 35  1  0
 15 36  1  0
 16 37  1  0
 24 38  1  0
 28 39  1  0
 29 40  1  0
M  CHG  5   3  -1   5  -1  23  -1  26  -1  27  -1
M  END
>  <UniqueID>  (89) 
83

>  <SMILES>  (89) 
O=C([O-])C[N-]C(=O)c1ccc(-c2ccccc2S(=O)(=O)N=c2[n-]cc([O-])[n-]2)cc1

>  <Energy>  (89) 
78.95168613116995

>  <Genealogy>  (89) 
O=C([O-])C[N-]C(=O)c1ccc(-c2ccccc2S(=O)(=O)N=c2[n-]cc([O-])[n-]2)cc1 (protonated)
O=C([O-])C[N-]C(=O)c1ccc(-c2ccccc2S(=O)(=O)N=c2[n-]cc([O-])[n-]2)cc1 (3D coordinates assigned)
O=C([O-])C[N-]C(=O)c1ccc(-c2ccccc2S(=O)(=O)N=c2[n-]cc([O-])[n-]2)cc1 (optimized conformer: 78.95168613116995 kcal/mol)

>  <smiles>  (89) 
O=C(O)CNC(=O)c1ccc(-c2ccccc2S(=O)(=O)N=c2[nH]cc(O)[nH]2)cc1

>  <score_type>  (89) 
oracle

>  <origin>  (89) 
adg

>  <m_score__min__energy>  (89) 
-18.940000000000001

>  <m_primary>  (89) 
energy

$$$$
89:0
     RDKit          3D

 60 63  0  0  0  0  0  0  0  0999 V2000
   54.5830   29.3650   53.5500 C   0  0  0  0  0  0  0  0  0  0  0  0
   55.6160   30.3180   53.7670 O   0  0  0  0  0  0  0  0  0  0  0  0
   56.6000   30.6430   52.8210 C   0  0  0  0  0  0  0  0  0  0  0  0
   57.5140   29.6940   52.3260 C   0  0  0  0  0  0  0  0  0  0  0  0
   58.4690   30.0630   51.3720 C   0  0  0  0  0  0  0  0  0  0  0  0
   58.5410   31.3850   50.9190 C   0  0  0  0  0  0  0  0  0  0  0  0
   59.5130   31.7370   49.9340 N   0  0  0  0  0  0  0  0  0  0  0  0
   59.7650   30.8420   48.4700 S   0  0  0  0  0  0  0  0  0  0  0  0
   61.2170   30.4710   48.3700 O   0  0  0  0  0  0  0  0  0  0  0  0
   58.9660   29.5720   48.5440 O   0  0  0  0  0  0  0  0  0  0  0  0
   59.2220   31.7490   47.0510 C   0  0  0  0  0  0  0  0  0  0  0  0
   58.1030   31.2690   46.3550 C   0  0  0  0  0  0  0  0  0  0  0  0
   57.5780   31.9650   45.2620 C   0  0  0  0  0  0  0  0  0  0  0  0
   56.3680   31.4830   44.6630 N   0  0  0  0  0  0  0  0  0  0  0  0
   56.0810   30.1410   44.2610 C   0  0  0  0  0  0  0  0  0  0  0  0
   56.0950   29.8190   43.0450 O   0  0  0  0  0  0  0  0  0  0  0  0
   55.8020   29.1420   45.2450 N   0  0  0  0  0  0  0  0  0  0  0  0
   56.4620   27.8380   45.2710 C   0  0  0  0  0  0  0  0  0  0  0  0
   57.9570   28.0080   45.3750 C   0  0  0  0  0  0  0  0  0  0  0  0
   58.6730   28.6990   44.3790 C   0  0  0  0  0  0  0  0  0  0  0  0
   60.0540   28.8780   44.4980 C   0  0  0  0  0  0  0  0  0  0  0  0
   60.7300   28.3790   45.6110 C   0  0  0  0  0  0  0  0  0  0  0  0
   60.0260   27.6920   46.6050 C   0  0  0  0  0  0  0  0  0  0  0  0
   58.6460   27.5070   46.4910 C   0  0  0  0  0  0  0  0  0  0  0  0
   58.1830   33.1660   44.8590 C   0  0  0  0  0  0  0  0  0  0  0  0
   59.3100   33.6430   45.5290 C   0  0  0  0  0  0  0  0  0  0  0  0
   59.8350   32.9500   46.6260 C   0  0  0  0  0  0  0  0  0  0  0  0
   60.9700   33.5050   47.3050 N   0  0  0  0  0  0  0  0  0  0  0  0
   60.7830   34.1070   48.6280 C   0  0  0  0  0  0  0  0  0  0  0  0
   62.1380   34.3600   49.2830 C   0  0  0  0  0  0  0  0  0  0  0  0
   62.9460   33.2160   49.1080 O   0  0  0  0  0  0  0  0  0  0  0  0
   63.4070   33.1470   47.7670 C   0  0  0  0  0  0  0  0  0  0  0  0
   62.3050   33.3790   46.7020 C   0  0  0  0  0  0  0  0  0  0  0  0
   57.6190   32.3280   51.3980 C   0  0  0  0  0  0  0  0  0  0  0  0
   56.6620   31.9600   52.3510 C   0  0  0  0  0  0  0  0  0  0  0  0
   54.2003   29.0120   54.5190 H   0  0  0  0  0  0  0  0  0  0  0  0
   53.7658   29.8331   52.9816 H   0  0  0  0  0  0  0  0  0  0  0  0
   54.9838   28.5128   52.9816 H   0  0  0  0  0  0  0  0  0  0  0  0
   57.4775   28.6569   52.6909 H   0  0  0  0  0  0  0  0  0  0  0  0
   59.1665   29.3101   50.9763 H   0  0  0  0  0  0  0  0  0  0  0  0
   57.6302   30.3286   46.6746 H   0  0  0  0  0  0  0  0  0  0  0  0
   56.1009   27.2661   46.1385 H   0  0  0  0  0  0  0  0  0  0  0  0
   56.2276   27.3006   44.3403 H   0  0  0  0  0  0  0  0  0  0  0  0
   58.1428   29.1001   43.5026 H   0  0  0  0  0  0  0  0  0  0  0  0
   60.6083   29.4131   43.7129 H   0  0  0  0  0  0  0  0  0  0  0  0
   61.8159   28.5256   45.7070 H   0  0  0  0  0  0  0  0  0  0  0  0
   60.5612   27.2956   47.4804 H   0  0  0  0  0  0  0  0  0  0  0  0
   58.0979   26.9675   47.2775 H   0  0  0  0  0  0  0  0  0  0  0  0
   57.7674   33.7325   44.0127 H   0  0  0  0  0  0  0  0  0  0  0  0
   59.7908   34.5731   45.1917 H   0  0  0  0  0  0  0  0  0  0  0  0
   60.2462   35.0612   48.5214 H   0  0  0  0  0  0  0  0  0  0  0  0
   60.2002   33.4193   49.2584 H   0  0  0  0  0  0  0  0  0  0  0  0
   62.6202   35.2293   48.8120 H   0  0  0  0  0  0  0  0  0  0  0  0
   62.0036   34.5633   50.3557 H   0  0  0  0  0  0  0  0  0  0  0  0
   64.1851   33.9124   47.6302 H   0  0  0  0  0  0  0  0  0  0  0  0
   63.7825   32.1243   47.6148 H   0  0  0  0  0  0  0  0  0  0  0  0
   62.5337   34.3030   46.1506 H   0  0  0  0  0  0  0  0  0  0  0  0
   62.2928   32.5067   46.0320 H   0  0  0  0  0  0  0  0  0  0  0  0
   57.6484   33.3616   51.0228 H   0  0  0  0  0  0  0  0  0  0  0  0
   55.9543   32.7105   52.7329 H   0  0  0  0  0  0  0  0  0  0  0  0
  1  2  1  0
  2  3  1  0
  3  4  2  0
  4  5  1  0
  5  6  2  0
  6  7  1  0
  7  8  1  0
  8  9  2  0
  8 10  2  0
  8 11  1  0
 11 12  2  0
 12 13  1  0
 13 14  1  0
 14 15  1  0
 15 16  2  0
 15 17  1  0
 17 18  1  0
 18 19  1  0
 19 20  2  0
 20 21  1  0
 21 22  2  0
 22 23  1  0
 23 24  2  0
 13 25  2  0
 25 26  1  0
 26 27  2  0
 27 28  1  0
 28 29  1  0
 29 30  1  0
 30 31  1  0
 31 32  1  0
 32 33  1  0
  6 34  1  0
 34 35  2  0
 35  3  1  0
 27 11  1  0
 33 28  1  0
 24 19  1  0
  1 36  1  0
  1 37  1  0
  1 38  1  0
  4 39  1  0
  5 40  1  0
 12 41  1  0
 18 42  1  0
 18 43  1  0
 20 44  1  0
 21 45  1  0
 22 46  1  0
 23 47  1  0
 24 48  1  0
 25 49  1  0
 26 50  1  0
 29 51  1  0
 29 52  1  0
 30 53  1  0
 30 54  1  0
 32 55  1  0
 32 56  1  0
 33 57  1  0
 33 58  1  0
 34 59  1  0
 35 60  1  0
M  CHG  3   7  -1  14  -1  17  -1
M  END
>  <UniqueID>  (90) 
84

>  <SMILES>  (90) 
COc1ccc([N-]S(=O)(=O)c2cc([N-]C(=O)[N-]Cc3ccccc3)ccc2N2CCOCC2)cc1

>  <Energy>  (90) 
81.9551572021033

>  <Genealogy>  (90) 
COc1ccc([N-]S(=O)(=O)c2cc([N-]C(=O)[N-]Cc3ccccc3)ccc2N2CCOCC2)cc1 (protonated)
COc1ccc([N-]S(=O)(=O)c2cc([N-]C(=O)[N-]Cc3ccccc3)ccc2N2CCOCC2)cc1 (3D coordinates assigned)
COc1ccc([N-]S(=O)(=O)c2cc([N-]C(=O)[N-]Cc3ccccc3)ccc2N2CCOCC2)cc1 (nonaromatic ring conformer: 81.9551572021033 kcal/mol)

>  <smiles>  (90) 
COc1ccc(NS(=O)(=O)c2cc(NC(=O)NCc3ccccc3)ccc2N2CCOCC2)cc1

>  <score_type>  (90) 
oracle

>  <origin>  (90) 
adg

>  <m_score__min__energy>  (90) 
-13.369999999999999

>  <m_primary>  (90) 
energy

$$$$
90:0
     RDKit          3D

 35 37  0  0  0  0  0  0  0  0999 V2000
   55.8190   29.5340   42.6650 O   0  0  0  0  0  0  0  0  0  0  0  0
   56.2570   29.8130   43.8140 C   0  0  0  0  0  0  0  0  0  0  0  0
   55.9450   28.9780   44.9370 N   0  0  0  0  0  0  0  0  0  0  0  0
   56.7730   27.9450   45.4930 C   0  0  0  0  0  0  0  0  0  0  0  0
   58.1680   28.0930   45.5970 C   0  0  0  0  0  0  0  0  0  0  0  0
   58.9390   27.0920   46.1880 C   0  0  0  0  0  0  0  0  0  0  0  0
   58.3320   25.9350   46.6770 C   0  0  0  0  0  0  0  0  0  0  0  0
   56.9480   25.7640   46.5730 C   0  0  0  0  0  0  0  0  0  0  0  0
   56.3630   24.5680   47.1070 N   0  0  0  0  0  0  0  0  0  0  0  0
   56.7380   23.2290   46.7570 C   0  0  0  0  0  0  0  0  0  0  0  0
   57.0160   22.4020   47.6670 O   0  0  0  0  0  0  0  0  0  0  0  0
   56.7520   22.7940   45.3350 C   0  0  0  0  0  0  0  0  0  0  0  0
   55.8620   23.3840   44.4160 C   0  0  0  0  0  0  0  0  0  0  0  0
   55.8570   22.9900   43.0750 C   0  0  0  0  0  0  0  0  0  0  0  0
   56.7380   22.0050   42.6310 C   0  0  0  0  0  0  0  0  0  0  0  0
   57.6270   21.4080   43.5270 C   0  0  0  0  0  0  0  0  0  0  0  0
   57.6400   21.7950   44.8730 C   0  0  0  0  0  0  0  0  0  0  0  0
   58.5170   21.1850   45.7080 F   0  0  0  0  0  0  0  0  0  0  0  0
   56.1620   26.7930   46.0150 C   0  0  0  0  0  0  0  0  0  0  0  0
   54.7740   26.6940   45.9990 O   0  0  0  0  0  0  0  0  0  0  0  0
   57.0480   31.0330   44.0160 C   0  0  0  0  0  0  0  0  0  0  0  0
   57.3890   31.5960   45.2400 C   0  0  0  0  0  0  0  0  0  0  0  0
   58.1510   32.7640   45.1170 C   0  0  0  0  0  0  0  0  0  0  0  0
   58.4110   33.1260   43.8010 C   0  0  0  0  0  0  0  0  0  0  0  0
   57.6930   31.9900   42.7900 S   0  0  0  0  0  0  0  0  0  0  0  0
   58.6528   29.0017   45.2107 H   0  0  0  0  0  0  0  0  0  0  0  0
   60.0291   27.2153   46.2687 H   0  0  0  0  0  0  0  0  0  0  0  0
   58.9457   25.1525   47.1472 H   0  0  0  0  0  0  0  0  0  0  0  0
   55.1640   24.1626   44.7573 H   0  0  0  0  0  0  0  0  0  0  0  0
   55.1562   23.4583   42.3682 H   0  0  0  0  0  0  0  0  0  0  0  0
   56.7328   21.6981   41.5747 H   0  0  0  0  0  0  0  0  0  0  0  0
   58.3203   20.6302   43.1742 H   0  0  0  0  0  0  0  0  0  0  0  0
   57.0903   31.1671   46.2079 H   0  0  0  0  0  0  0  0  0  0  0  0
   58.5104   33.3413   45.9816 H   0  0  0  0  0  0  0  0  0  0  0  0
   58.9875   34.0047   43.4762 H   0  0  0  0  0  0  0  0  0  0  0  0
  1  2  2  0
  2  3  1  0
  3  4  1  0
  4  5  2  0
  5  6  1  0
  6  7  2  0
  7  8  1  0
  8  9  1  0
  9 10  1  0
 10 11  2  0
 10 12  1  0
 12 13  2  0
 13 14  1  0
 14 15  2  0
 15 16  1  0
 16 17  2  0
 17 18  1  0
  8 19  2  0
 19 20  1  0
  2 21  1  0
 21 22  2  0
 22 23  1  0
 23 24  2  0
 24 25  1  0
 19  4  1  0
 25 21  1  0
 17 12  1  0
  5 26  1  0
  6 27  1  0
  7 28  1  0
 13 29  1  0
 14 30  1  0
 15 31  1  0
 16 32  1  0
 22 33  1  0
 23 34  1  0
 24 35  1  0
M  CHG  3   3  -1   9  -1  20  -1
M  END
>  <UniqueID>  (91) 
85

>  <SMILES>  (91) 
O=C([N-]c1cccc([N-]C(=O)c2ccccc2F)c1[O-])c1cccs1

>  <Energy>  (91) 
74.78926652738636

>  <Genealogy>  (91) 
O=C([N-]c1cccc([N-]C(=O)c2ccccc2F)c1[O-])c1cccs1 (protonated)
O=C([N-]c1cccc([N-]C(=O)c2ccccc2F)c1[O-])c1cccs1 (3D coordinates assigned)
O=C([N-]c1cccc([N-]C(=O)c2ccccc2F)c1[O-])c1cccs1 (optimized conformer: 74.78926652738636 kcal/mol)

>  <smiles>  (91) 
O=C(Nc1cccc(NC(=O)c2ccccc2F)c1O)c1cccs1

>  <score_type>  (91) 
oracle

>  <origin>  (91) 
adg

>  <m_score__min__energy>  (91) 
-15.9

>  <m_primary>  (91) 
energy

$$$$
91:0
     RDKit          3D

 65 68  0  0  0  0  0  0  0  0999 V2000
   62.1125   30.7286   46.3662 H   0  0  0  0  0  0  0  0  0  0  0  0
   61.5760   31.3080   47.1320 C   0  0  0  0  0  0  0  0  0  0  0  0
   62.0520   32.5570   47.5440 C   0  0  0  0  0  0  0  0  0  0  0  0
   63.3030   33.1220   46.9500 C   0  0  0  0  0  0  0  0  0  0  0  0
   63.9850   33.4300   47.7562 H   0  0  0  0  0  0  0  0  0  0  0  0
   63.7917   32.3572   46.3285 H   0  0  0  0  0  0  0  0  0  0  0  0
   63.0523   33.9943   46.3285 H   0  0  0  0  0  0  0  0  0  0  0  0
   61.3740   33.2590   48.4910 N   0  0  0  0  0  0  0  0  0  0  0  0
   60.2330   32.7740   49.0450 C   0  0  0  0  0  0  0  0  0  0  0  0
   59.6390   33.4570   49.9790 N   0  0  0  0  0  0  0  0  0  0  0  0
   58.9000   32.9200   51.0910 C   0  0  0  0  0  0  0  0  0  0  0  0
   59.1170   33.3580   52.4060 C   0  0  0  0  0  0  0  0  0  0  0  0
   59.8642   34.1400   52.6064 H   0  0  0  0  0  0  0  0  0  0  0  0
   58.3890   32.8060   53.4610 C   0  0  0  0  0  0  0  0  0  0  0  0
   58.5542   33.1676   54.4866 H   0  0  0  0  0  0  0  0  0  0  0  0
   57.4450   31.7900   53.2220 C   0  0  0  0  0  0  0  0  0  0  0  0
   56.6900   31.2160   54.2570 O   0  0  0  0  0  0  0  0  0  0  0  0
   56.9580   29.9410   54.8380 C   0  0  0  0  0  0  0  0  0  0  0  0
   56.9400   30.0266   55.9345 H   0  0  0  0  0  0  0  0  0  0  0  0
   56.1914   29.2219   54.5137 H   0  0  0  0  0  0  0  0  0  0  0  0
   57.9493   29.5914   54.5137 H   0  0  0  0  0  0  0  0  0  0  0  0
   57.2460   31.3240   51.9140 C   0  0  0  0  0  0  0  0  0  0  0  0
   56.3050   30.3030   51.7050 O   0  0  0  0  0  0  0  0  0  0  0  0
   54.9120   30.4190   51.9800 C   0  0  0  0  0  0  0  0  0  0  0  0
   54.7530   30.4322   53.0684 H   0  0  0  0  0  0  0  0  0  0  0  0
   54.5283   31.3522   51.5420 H   0  0  0  0  0  0  0  0  0  0  0  0
   54.3792   29.5621   51.5420 H   0  0  0  0  0  0  0  0  0  0  0  0
   57.9880   31.8860   50.8560 C   0  0  0  0  0  0  0  0  0  0  0  0
   57.8482   31.5069   49.8329 H   0  0  0  0  0  0  0  0  0  0  0  0
   59.7640   31.5570   48.6560 N   0  0  0  0  0  0  0  0  0  0  0  0
   60.4010   30.8080   47.7140 C   0  0  0  0  0  0  0  0  0  0  0  0
   59.8490   29.5300   47.3360 N   0  0  0  0  0  0  0  0  0  0  0  0
   60.3370   28.2820   47.9030 C   0  0  0  0  0  0  0  0  0  0  0  0
   61.4189   28.1819   47.7316 H   0  0  0  0  0  0  0  0  0  0  0  0
   60.1733   28.2429   48.9900 H   0  0  0  0  0  0  0  0  0  0  0  0
   59.5830   27.1700   47.1860 C   0  0  0  0  0  0  0  0  0  0  0  0
   60.2317   26.6872   46.4403 H   0  0  0  0  0  0  0  0  0  0  0  0
   59.2547   26.3883   47.8868 H   0  0  0  0  0  0  0  0  0  0  0  0
   58.3960   27.8420   46.5010 C   0  0  0  0  0  0  0  0  0  0  0  0
   58.2335   27.4075   45.5036 H   0  0  0  0  0  0  0  0  0  0  0  0
   57.4667   27.7006   47.0723 H   0  0  0  0  0  0  0  0  0  0  0  0
   58.7640   29.3250   46.3830 C   0  0  2  0  0  0  0  0  0  0  0  0
   57.8969   29.9665   46.5992 H   0  0  0  0  0  0  0  0  0  0  0  0
   59.2040   29.7010   44.9520 C   0  0  0  0  0  0  0  0  0  0  0  0
   59.4648   30.7693   44.9249 H   0  0  0  0  0  0  0  0  0  0  0  0
   60.0736   29.0849   44.6795 H   0  0  0  0  0  0  0  0  0  0  0  0
   58.1290   29.4450   43.9870 N   0  0  0  0  0  0  0  0  0  0  0  0
   58.5530   29.3830   43.0330 H   0  0  0  0  0  0  0  0  0  0  0  0
   57.0330   30.7910   43.9560 S   0  0  0  0  0  0  0  0  0  0  0  0
   55.7920   30.4410   44.7290 O   0  0  0  0  0  0  0  0  0  0  0  0
   56.6470   31.0960   42.5350 O   0  0  0  0  0  0  0  0  0  0  0  0
   57.7930   32.1930   44.7040 C   0  0  0  0  0  0  0  0  0  0  0  0
   57.6730   32.3890   46.0840 C   0  0  0  0  0  0  0  0  0  0  0  0
   57.0987   31.6734   46.6907 H   0  0  0  0  0  0  0  0  0  0  0  0
   58.2800   33.4910   46.6960 C   0  0  0  0  0  0  0  0  0  0  0  0
   58.1676   33.6478   47.7789 H   0  0  0  0  0  0  0  0  0  0  0  0
   59.0320   34.3970   45.9320 C   0  0  0  0  0  0  0  0  0  0  0  0
   59.6520   35.5990   46.5840 C   0  0  0  0  0  0  0  0  0  0  0  0
   59.5970   35.4923   47.6774 H   0  0  0  0  0  0  0  0  0  0  0  0
   60.7049   35.6809   46.2761 H   0  0  0  0  0  0  0  0  0  0  0  0
   59.1084   36.5044   46.2761 H   0  0  0  0  0  0  0  0  0  0  0  0
   59.1430   34.2040   44.5470 C   0  0  0  0  0  0  0  0  0  0  0  0
   59.7124   34.9218   43.9383 H   0  0  0  0  0  0  0  0  0  0  0  0
   58.5330   33.1030   43.9360 C   0  0  0  0  0  0  0  0  0  0  0  0
   58.6342   32.9511   42.8512 H   0  0  0  0  0  0  0  0  0  0  0  0
  1  2  1  0
  2  3  1  0
  3  4  1  0
  4  5  1  0
  4  6  1  0
  4  7  1  0
  3  8  2  0
  8  9  1  0
  9 10  2  0
 10 11  1  0
 11 12  2  0
 12 13  1  0
 12 14  1  0
 14 15  1  0
 14 16  2  0
 16 17  1  0
 17 18  1  0
 18 19  1  0
 18 20  1  0
 18 21  1  0
 16 22  1  0
 22 23  1  0
 23 24  1  0
 24 25  1  0
 24 26  1  0
 24 27  1  0
 22 28  2  0
 28 29  1  0
  9 30  1  0
 30 31  1  0
 31 32  1  0
 32 33  1  0
 33 34  1  0
 33 35  1  0
 33 36  1  0
 36 37  1  0
 36 38  1  0
 36 39  1  0
 39 40  1  0
 39 41  1  0
 39 42  1  0
 42 43  1  1
 42 44  1  0
 44 45  1  0
 44 46  1  0
 44 47  1  0
 47 48  1  0
 47 49  1  0
 49 50  2  0
 49 51  2  0
 49 52  1  0
 52 53  2  0
 53 54  1  0
 53 55  1  0
 55 56  1  0
 55 57  2  0
 57 58  1  0
 58 59  1  0
 58 60  1  0
 58 61  1  0
 57 62  1  0
 62 63  1  0
 62 64  2  0
 64 65  1  0
 31  2  2  0
 42 32  1  0
 64 52  1  0
 28 11  1  0
M  CHG  1  30  -1
M  END
>  <UniqueID>  (92) 
86

>  <SMILES>  (92) 
COc1ccc(/N=c2/nc(C)cc(N3CCC[C@@H]3CNS(=O)(=O)c3ccc(C)cc3)[n-]2)cc1OC

>  <Energy>  (92) 
67.845630637985

>  <Genealogy>  (92) 
COc1ccc(N=c2nc(C)cc(N3CCCC3CNS(=O)(=O)c3ccc(C)cc3)[n-]2)cc1OC (protonated)
COc1ccc(N=c2nc(C)cc(N3CCC[C@@H]3CNS(=O)(=O)c3ccc(C)cc3)[n-]2)cc1OC (chirality)
COc1ccc(/N=c2/nc(C)cc(N3CCC[C@@H]3CNS(=O)(=O)c3ccc(C)cc3)[n-]2)cc1OC (cis-trans isomerization)
COc1ccc(/N=c2/nc(C)cc(N3CCC[C@@H]3CNS(=O)(=O)c3ccc(C)cc3)[n-]2)cc1OC (3D coordinates assigned)
COc1ccc(/N=c2/nc(C)cc(N3CCC[C@@H]3CNS(=O)(=O)c3ccc(C)cc3)[n-]2)cc1OC (nonaromatic ring conformer: 67.845630637985 kcal/mol)

>  <smiles>  (92) 
COc1ccc(N=c2nc(C)cc(N3CCCC3CNS(=O)(=O)c3ccc(C)cc3)[nH]2)cc1OC

>  <score_type>  (92) 
oracle

>  <origin>  (92) 
adg

>  <m_score__min__energy>  (92) 
-11.81

>  <m_primary>  (92) 
energy

$$$$
