0:0
     RDKit          3D

 53 56  0  0  0  0  0  0  0  0999 V2000
   62.8900   32.0930   49.0130 C   0  0  0  0  0  0  0  0  0  0  0  0
   63.0950   33.8600   48.9500 S   0  0  0  0  0  0  0  0  0  0  0  0
   63.6530   34.3250   50.2660 O   0  0  0  0  0  0  0  0  0  0  0  0
   64.0660   34.2110   47.8570 O   0  0  0  0  0  0  0  0  0  0  0  0
   61.5460   34.6180   48.6990 N   0  0  0  0  0  0  0  0  0  0  0  0
   60.6730   33.8310   47.8220 C   0  0  0  0  0  0  0  0  0  0  0  0
   59.3010   33.5730   48.4920 C   0  0  0  0  0  0  0  0  0  0  0  0
   58.1850   33.2820   47.4700 C   0  0  0  0  0  0  0  0  0  0  0  0
   58.7660   32.7850   46.2110 N   0  0  0  0  0  0  0  0  0  0  0  0
   57.7810   32.1260   45.3240 C   0  0  0  0  0  0  0  0  0  0  0  0
   57.7710   30.6140   45.4290 C   0  0  0  0  0  0  0  0  0  0  0  0
   57.0460   29.8440   44.5050 C   0  0  0  0  0  0  0  0  0  0  0  0
   57.0270   28.4500   44.6060 C   0  0  0  0  0  0  0  0  0  0  0  0
   57.7500   27.8030   45.6210 C   0  0  0  0  0  0  0  0  0  0  0  0
   57.6930   26.3070   45.7580 C   0  0  0  0  0  0  0  0  0  0  0  0
   56.2790   25.8370   45.6270 C   0  0  0  0  0  0  0  0  0  0  0  0
   55.8800   24.5950   45.1800 C   0  0  0  0  0  0  0  0  0  0  0  0
   54.5020   24.6210   45.3200 C   0  0  0  0  0  0  0  0  0  0  0  0
   53.5150   23.5290   44.9960 C   0  0  0  0  0  0  0  0  0  0  0  0
   52.3890   23.3200   45.9980 C   0  0  0  0  0  0  0  0  0  0  0  0
   52.1030   23.9860   44.6600 C   0  0  0  0  0  0  0  0  0  0  0  0
   54.1260   25.8090   45.8310 N   0  0  0  0  0  0  0  0  0  0  0  0
   55.2080   26.5480   46.0250 N   0  0  0  0  0  0  0  0  0  0  0  0
   58.4780   28.5720   46.5420 C   0  0  0  0  0  0  0  0  0  0  0  0
   58.4960   29.9650   46.4420 C   0  0  0  0  0  0  0  0  0  0  0  0
   59.5560   33.8320   45.5260 C   0  0  0  0  0  0  0  0  0  0  0  0
   60.4850   34.5890   46.5010 C   0  0  0  0  0  0  0  0  0  0  0  0
   62.8520   31.7655   50.0624 H   0  0  0  0  0  0  0  0  0  0  0  0
   61.9535   31.8143   48.5078 H   0  0  0  0  0  0  0  0  0  0  0  0
   63.7378   31.6073   48.5078 H   0  0  0  0  0  0  0  0  0  0  0  0
   61.1403   32.8539   47.6299 H   0  0  0  0  0  0  0  0  0  0  0  0
   59.3954   32.7085   49.1656 H   0  0  0  0  0  0  0  0  0  0  0  0
   59.0213   34.4859   49.0382 H   0  0  0  0  0  0  0  0  0  0  0  0
   57.5046   32.5218   47.8814 H   0  0  0  0  0  0  0  0  0  0  0  0
   57.6316   34.2110   47.2681 H   0  0  0  0  0  0  0  0  0  0  0  0
   56.7787   32.4973   45.5840 H   0  0  0  0  0  0  0  0  0  0  0  0
   58.0691   32.3712   44.2911 H   0  0  0  0  0  0  0  0  0  0  0  0
   56.4896   30.3410   43.6967 H   0  0  0  0  0  0  0  0  0  0  0  0
   56.4429   27.8570   43.8869 H   0  0  0  0  0  0  0  0  0  0  0  0
   58.3054   25.8450   44.9696 H   0  0  0  0  0  0  0  0  0  0  0  0
   58.0801   26.0190   46.7465 H   0  0  0  0  0  0  0  0  0  0  0  0
   56.5086   23.7757   44.8011 H   0  0  0  0  0  0  0  0  0  0  0  0
   54.2596   22.8767   44.5163 H   0  0  0  0  0  0  0  0  0  0  0  0
   52.0130   22.3060   46.1992 H   0  0  0  0  0  0  0  0  0  0  0  0
   52.2255   23.5897   47.0518 H   0  0  0  0  0  0  0  0  0  0  0  0
   51.5202   23.4535   43.8940 H   0  0  0  0  0  0  0  0  0  0  0  0
   51.6472   24.9366   44.3460 H   0  0  0  0  0  0  0  0  0  0  0  0
   59.0379   28.0746   47.3476 H   0  0  0  0  0  0  0  0  0  0  0  0
   59.0813   30.5573   47.1607 H   0  0  0  0  0  0  0  0  0  0  0  0
   60.1703   33.3593   44.7454 H   0  0  0  0  0  0  0  0  0  0  0  0
   58.8528   34.5593   45.0941 H   0  0  0  0  0  0  0  0  0  0  0  0
   61.4676   34.7213   46.0246 H   0  0  0  0  0  0  0  0  0  0  0  0
   60.0195   35.5591   46.7294 H   0  0  0  0  0  0  0  0  0  0  0  0
  1  2  1  0
  2  3  2  0
  2  4  2  0
  2  5  1  0
  5  6  1  0
  6  7  1  0
  7  8  1  0
  8  9  1  0
  9 10  1  0
 10 11  1  0
 11 12  2  0
 12 13  1  0
 13 14  2  0
 14 15  1  0
 15 16  1  0
 16 17  1  0
 17 18  2  0
 18 19  1  0
 19 20  1  0
 20 21  1  0
 18 22  1  0
 22 23  1  0
 14 24  1  0
 24 25  2  0
  9 26  1  0
 26 27  1  0
 27  6  1  0
 25 11  1  0
 23 16  2  0
 21 19  1  0
  1 28  1  0
  1 29  1  0
  1 30  1  0
  6 31  1  0
  7 32  1  0
  7 33  1  0
  8 34  1  0
  8 35  1  0
 10 36  1  0
 10 37  1  0
 12 38  1  0
 13 39  1  0
 15 40  1  0
 15 41  1  0
 17 42  1  0
 19 43  1  0
 20 44  1  0
 20 45  1  0
 21 46  1  0
 21 47  1  0
 24 48  1  0
 25 49  1  0
 26 50  1  0
 26 51  1  0
 27 52  1  0
 27 53  1  0
M  CHG  2   5  -1  22  -1
M  END
>  <UniqueID>  (1) 
1

>  <SMILES>  (1) 
CS(=O)(=O)[N-]C1CCN(Cc2ccc(Cc3cc(C4CC4)[n-]n3)cc2)CC1

>  <Energy>  (1) 
350.32991856439327

>  <Genealogy>  (1) 
CS(=O)(=O)[N-]C1CCN(Cc2ccc(Cc3cc(C4CC4)[n-]n3)cc2)CC1 (protonated)
CS(=O)(=O)[N-]C1CCN(Cc2ccc(Cc3cc(C4CC4)[n-]n3)cc2)CC1 (3D coordinates assigned)
CS(=O)(=O)[N-]C1CCN(Cc2ccc(Cc3cc(C4CC4)[n-]n3)cc2)CC1 (nonaromatic ring conformer: 350.32991856439327 kcal/mol)

>  <smiles>  (1) 
CS(=O)(=O)NC1CCN(Cc2ccc(Cc3cc(C4CC4)[nH]n3)cc2)CC1

>  <score_type>  (1) 
oracle

>  <origin>  (1) 
adg

>  <m_score__min__energy>  (1) 
-12.32

>  <m_primary>  (1) 
energy

$$$$
1:0
     RDKit          3D

 47 50  0  0  0  0  0  0  0  0999 V2000
   54.6540   26.3350   45.9970 N   0  0  0  0  0  0  0  0  0  0  0  0
   55.8660   25.1070   46.0960 S   0  0  0  0  0  0  0  0  0  0  0  0
   55.7400   24.1810   44.9180 O   0  0  0  0  0  0  0  0  0  0  0  0
   55.6690   24.3130   47.3570 O   0  0  0  0  0  0  0  0  0  0  0  0
   57.4620   25.8530   46.0930 C   0  0  0  0  0  0  0  0  0  0  0  0
   58.6170   25.0590   46.0690 C   0  0  0  0  0  0  0  0  0  0  0  0
   59.8780   25.6580   46.0660 C   0  0  0  0  0  0  0  0  0  0  0  0
   59.9960   27.0500   46.0940 C   0  0  0  0  0  0  0  0  0  0  0  0
   58.8470   27.8600   46.1330 C   0  0  0  0  0  0  0  0  0  0  0  0
   58.9690   29.3380   46.1730 C   0  0  0  0  0  0  0  0  0  0  0  0
   57.9650   30.1530   45.6210 C   0  0  0  0  0  0  0  0  0  0  0  0
   58.0820   31.5450   45.6570 C   0  0  0  0  0  0  0  0  0  0  0  0
   59.2040   32.1480   46.2430 C   0  0  0  0  0  0  0  0  0  0  0  0
   59.3620   33.6450   46.2440 C   0  0  0  0  0  0  0  0  0  0  0  0
   60.0740   34.0800   47.4570 N   0  0  0  0  0  0  0  0  0  0  0  0
   59.3200   34.6450   48.5860 C   0  0  0  0  0  0  0  0  0  0  0  0
   59.5990   33.8470   49.8610 C   0  0  0  0  0  0  0  0  0  0  0  0
   61.0780   33.7130   50.0900 C   0  0  0  0  0  0  0  0  0  0  0  0
   61.5100   33.5820   51.2660 O   0  0  0  0  0  0  0  0  0  0  0  0
   62.0060   33.6730   48.9380 C   0  0  0  0  0  0  0  0  0  0  0  0
   63.3820   33.4580   49.1250 C   0  0  0  0  0  0  0  0  0  0  0  0
   64.2440   33.4160   48.0270 C   0  0  0  0  0  0  0  0  0  0  0  0
   63.7430   33.5960   46.7380 C   0  0  0  0  0  0  0  0  0  0  0  0
   62.3790   33.8180   46.5390 C   0  0  0  0  0  0  0  0  0  0  0  0
   61.4930   33.8520   47.6340 C   0  0  0  0  0  0  0  0  0  0  0  0
   60.2080   31.3390   46.7940 C   0  0  0  0  0  0  0  0  0  0  0  0
   60.0910   29.9470   46.7630 C   0  0  0  0  0  0  0  0  0  0  0  0
   57.5800   27.2490   46.1340 C   0  0  0  0  0  0  0  0  0  0  0  0
   55.1480   27.2530   46.0640 H   0  0  0  0  0  0  0  0  0  0  0  0
   58.5296   23.9626   46.0525 H   0  0  0  0  0  0  0  0  0  0  0  0
   60.7820   25.0318   46.0415 H   0  0  0  0  0  0  0  0  0  0  0  0
   60.9929   27.5148   46.0855 H   0  0  0  0  0  0  0  0  0  0  0  0
   57.0808   29.6914   45.1573 H   0  0  0  0  0  0  0  0  0  0  0  0
   57.2889   32.1716   45.2229 H   0  0  0  0  0  0  0  0  0  0  0  0
   59.9358   33.9505   45.3566 H   0  0  0  0  0  0  0  0  0  0  0  0
   58.3658   34.1112   46.2257 H   0  0  0  0  0  0  0  0  0  0  0  0
   59.6239   35.6911   48.7385 H   0  0  0  0  0  0  0  0  0  0  0  0
   58.2447   34.5950   48.3598 H   0  0  0  0  0  0  0  0  0  0  0  0
   59.1463   34.3664   50.7185 H   0  0  0  0  0  0  0  0  0  0  0  0
   59.1653   32.8420   49.7516 H   0  0  0  0  0  0  0  0  0  0  0  0
   63.7820   33.3222   50.1407 H   0  0  0  0  0  0  0  0  0  0  0  0
   65.3193   33.2408   48.1790 H   0  0  0  0  0  0  0  0  0  0  0  0
   64.4247   33.5630   45.8753 H   0  0  0  0  0  0  0  0  0  0  0  0
   61.9932   33.9675   45.5198 H   0  0  0  0  0  0  0  0  0  0  0  0
   61.0932   31.8031   47.2535 H   0  0  0  0  0  0  0  0  0  0  0  0
   60.8824   29.3228   47.2034 H   0  0  0  0  0  0  0  0  0  0  0  0
   56.6741   27.8721   46.1672 H   0  0  0  0  0  0  0  0  0  0  0  0
  1  2  1  0
  2  3  2  0
  2  4  2  0
  2  5  1  0
  5  6  2  0
  6  7  1  0
  7  8  2  0
  8  9  1  0
  9 10  1  0
 10 11  2  0
 11 12  1  0
 12 13  2  0
 13 14  1  0
 14 15  1  0
 15 16  1  0
 16 17  1  0
 17 18  1  0
 18 19  2  0
 18 20  1  0
 20 21  2  0
 21 22  1  0
 22 23  2  0
 23 24  1  0
 24 25  2  0
 13 26  1  0
 26 27  2  0
  9 28  2  0
 28  5  1  0
 27 10  1  0
 25 15  1  0
 25 20  1  0
  1 29  1  0
  6 30  1  0
  7 31  1  0
  8 32  1  0
 11 33  1  0
 12 34  1  0
 14 35  1  0
 14 36  1  0
 16 37  1  0
 16 38  1  0
 17 39  1  0
 17 40  1  0
 21 41  1  0
 22 42  1  0
 23 43  1  0
 24 44  1  0
 26 45  1  0
 27 46  1  0
 28 47  1  0
M  CHG  1   1  -1
M  END
>  <UniqueID>  (2) 
2

>  <SMILES>  (2) 
[NH-]S(=O)(=O)c1cccc(-c2ccc(CN3CCC(=O)c4ccccc43)cc2)c1

>  <Energy>  (2) 
56.47919863364374

>  <Genealogy>  (2) 
[NH-]S(=O)(=O)c1cccc(-c2ccc(CN3CCC(=O)c4ccccc43)cc2)c1 (protonated)
[NH-]S(=O)(=O)c1cccc(-c2ccc(CN3CCC(=O)c4ccccc43)cc2)c1 (3D coordinates assigned)
[NH-]S(=O)(=O)c1cccc(-c2ccc(CN3CCC(=O)c4ccccc43)cc2)c1 (nonaromatic ring conformer: 56.47919863364374 kcal/mol)

>  <smiles>  (2) 
NS(=O)(=O)c1cccc(-c2ccc(CN3CCC(=O)c4ccccc43)cc2)c1

>  <score_type>  (2) 
oracle

>  <origin>  (2) 
adg

>  <m_score__min__energy>  (2) 
-12.380000000000001

>  <m_primary>  (2) 
energy

$$$$
2:0
     RDKit          3D

 48 51  0  0  0  0  0  0  0  0999 V2000
   60.9887   28.9802   46.8217 H   0  0  0  0  0  0  0  0  0  0  0  0
   60.7580   28.9110   47.8950 C   0  0  0  0  0  0  0  0  0  0  0  0
   60.5220   30.0420   48.6100 N   0  0  0  0  0  0  0  0  0  0  0  0
   60.2450   30.0110   49.9440 C   0  0  0  0  0  0  0  0  0  0  0  0
   60.0160   31.1060   50.6110 N   0  0  0  0  0  0  0  0  0  0  0  0
   59.3540   32.2800   50.1130 C   0  0  0  0  0  0  0  0  0  0  0  0
   58.3920   32.7530   50.7740 O   0  0  0  0  0  0  0  0  0  0  0  0
   59.8010   32.9820   48.8870 C   0  0  0  0  0  0  0  0  0  0  0  0
   58.8880   33.7060   48.1010 C   0  0  0  0  0  0  0  0  0  0  0  0
   57.8294   33.7536   48.3962 H   0  0  0  0  0  0  0  0  0  0  0  0
   59.3180   34.3660   46.9460 C   0  0  0  0  0  0  0  0  0  0  0  0
   58.5990   34.9356   46.3388 H   0  0  0  0  0  0  0  0  0  0  0  0
   60.6600   34.3030   46.5620 C   0  0  0  0  0  0  0  0  0  0  0  0
   60.9989   34.8319   45.6590 H   0  0  0  0  0  0  0  0  0  0  0  0
   61.5720   33.5680   47.3250 C   0  0  0  0  0  0  0  0  0  0  0  0
   63.4010   33.4670   46.7890 Br  0  0  0  0  0  0  0  0  0  0  0  0
   61.1440   32.9050   48.4810 C   0  0  0  0  0  0  0  0  0  0  0  0
   61.8626   32.3208   49.0746 H   0  0  0  0  0  0  0  0  0  0  0  0
   60.1730   28.7790   50.6020 C   0  0  0  0  0  0  0  0  0  0  0  0
   59.9336   28.7375   51.6748 H   0  0  0  0  0  0  0  0  0  0  0  0
   60.4070   27.6020   49.8880 C   0  0  0  0  0  0  0  0  0  0  0  0
   60.3549   26.6294   50.3993 H   0  0  0  0  0  0  0  0  0  0  0  0
   60.7090   27.6590   48.5170 C   0  0  0  0  0  0  0  0  0  0  0  0
   60.9650   26.5160   47.7460 O   0  0  0  0  0  0  0  0  0  0  0  0
   60.7900   26.4400   46.3340 C   0  0  0  0  0  0  0  0  0  0  0  0
   61.6906   26.8221   45.8311 H   0  0  0  0  0  0  0  0  0  0  0  0
   60.6239   25.3933   46.0394 H   0  0  0  0  0  0  0  0  0  0  0  0
   59.6030   27.2690   45.9350 C   0  0  0  0  0  0  0  0  0  0  0  0
   58.3260   26.9680   46.4270 C   0  0  0  0  0  0  0  0  0  0  0  0
   58.1823   26.1197   47.1123 H   0  0  0  0  0  0  0  0  0  0  0  0
   57.2390   27.7510   46.0420 C   0  0  0  0  0  0  0  0  0  0  0  0
   56.2325   27.5138   46.4171 H   0  0  0  0  0  0  0  0  0  0  0  0
   57.4240   28.8390   45.1790 C   0  0  0  0  0  0  0  0  0  0  0  0
   56.2620   29.6460   44.7460 C   0  0  0  0  0  0  0  0  0  0  0  0
   55.1730   29.0650   44.4960 O   0  0  0  0  0  0  0  0  0  0  0  0
   56.3170   31.0730   44.6260 N   0  0  0  0  0  0  0  0  0  0  0  0
   57.3960   31.9070   45.1420 C   0  0  0  0  0  0  0  0  0  0  0  0
   57.7240   31.2442   45.9563 H   0  0  0  0  0  0  0  0  0  0  0  0
   57.1010   33.3880   44.9950 C   0  0  0  0  0  0  0  0  0  0  0  0
   56.1298   33.7188   44.5983 H   0  0  0  0  0  0  0  0  0  0  0  0
   57.1206   34.2561   45.6703 H   0  0  0  0  0  0  0  0  0  0  0  0
   58.1090   32.7180   44.0760 C   0  0  0  0  0  0  0  0  0  0  0  0
   57.8676   32.5636   43.0140 H   0  0  0  0  0  0  0  0  0  0  0  0
   59.1608   32.8999   43.8102 H   0  0  0  0  0  0  0  0  0  0  0  0
   58.7150   29.0980   44.6960 C   0  0  0  0  0  0  0  0  0  0  0  0
   58.8801   29.9310   43.9968 H   0  0  0  0  0  0  0  0  0  0  0  0
   59.7650   28.3250   45.0870 N   0  0  0  0  0  0  0  0  0  0  0  0
   60.7150   28.5470   44.7110 H   0  0  0  0  0  0  0  0  0  0  0  0
  1  2  1  0
  2  3  1  0
  3  4  1  0
  4  5  2  0
  5  6  1  0
  6  7  2  0
  6  8  1  0
  8  9  2  0
  9 10  1  0
  9 11  1  0
 11 12  1  0
 11 13  2  0
 13 14  1  0
 13 15  1  0
 15 16  1  0
 15 17  2  0
 17 18  1  0
  4 19  1  0
 19 20  1  0
 19 21  2  0
 21 22  1  0
 21 23  1  0
 23 24  1  0
 24 25  1  0
 25 26  1  0
 25 27  1  0
 25 28  1  0
 28 29  2  0
 29 30  1  0
 29 31  1  0
 31 32  1  0
 31 33  2  0
 33 34  1  0
 34 35  2  0
 34 36  1  0
 36 37  1  0
 37 38  1  0
 37 39  1  0
 39 40  1  0
 39 41  1  0
 39 42  1  0
 42 43  1  0
 42 44  1  0
 33 45  1  0
 45 46  1  0
 45 47  2  0
 47 48  1  0
 23  2  2  0
 47 28  1  0
 17  8  1  0
 42 37  1  0
M  CHG  3   3  -1  36  -1  47   1
M  END
>  <UniqueID>  (3) 
3

>  <SMILES>  (3) 
O=C(/N=c1/ccc(OCc2ccc(C(=O)[N-]C3CC3)c[nH+]2)c[n-]1)c1cccc(Br)c1

>  <Energy>  (3) 
327.5061641187042

>  <Genealogy>  (3) 
O=C(N=c1ccc(OCc2ccc(C(=O)[N-]C3CC3)c[nH+]2)c[n-]1)c1cccc(Br)c1 (protonated)
O=C(/N=c1/ccc(OCc2ccc(C(=O)[N-]C3CC3)c[nH+]2)c[n-]1)c1cccc(Br)c1 (cis-trans isomerization)
O=C(/N=c1/ccc(OCc2ccc(C(=O)[N-]C3CC3)c[nH+]2)c[n-]1)c1cccc(Br)c1 (3D coordinates assigned)
O=C(/N=c1/ccc(OCc2ccc(C(=O)[N-]C3CC3)c[nH+]2)c[n-]1)c1cccc(Br)c1 (nonaromatic ring conformer: 327.5061641187042 kcal/mol)

>  <smiles>  (3) 
O=C(N=c1ccc(OCc2ccc(C(=O)NC3CC3)cn2)c[nH]1)c1cccc(Br)c1

>  <score_type>  (3) 
oracle

>  <origin>  (3) 
adg

>  <m_score__min__energy>  (3) 
-10.640000000000001

>  <m_primary>  (3) 
energy

$$$$
3:0
     RDKit          3D

 28 29  0  0  0  0  0  0  0  0999 V2000
   59.1162   35.0565   44.3173 H   0  0  0  0  0  0  0  0  0  0  0  0
   58.9940   34.4980   45.2570 C   0  0  0  0  0  0  0  0  0  0  0  0
   59.8108   34.4752   45.9935 H   0  0  0  0  0  0  0  0  0  0  0  0
   57.8530   33.8470   45.5040 C   0  0  0  0  0  0  0  0  0  0  0  0
   57.0446   33.8783   44.7587 H   0  0  0  0  0  0  0  0  0  0  0  0
   57.6490   33.0740   46.7750 C   0  0  0  0  0  0  0  0  0  0  0  0
   58.1718   33.5842   47.5974 H   0  0  0  0  0  0  0  0  0  0  0  0
   56.5715   33.0177   46.9893 H   0  0  0  0  0  0  0  0  0  0  0  0
   58.1760   31.7190   46.6370 N   0  0  0  0  0  0  0  0  0  0  0  0
   59.0540   31.1830   47.4700 N   0  0  0  0  0  0  0  0  0  0  0  0
   59.2640   29.9060   47.0820 C   0  0  0  0  0  0  0  0  0  0  0  0
   60.1070   29.0920   47.7220 C   0  0  0  0  0  0  0  0  0  0  0  0
   60.2472   28.0590   47.3710 H   0  0  0  0  0  0  0  0  0  0  0  0
   60.6613   29.4544   48.6003 H   0  0  0  0  0  0  0  0  0  0  0  0
   58.4870   29.6130   45.9580 C   0  0  0  0  0  0  0  0  0  0  0  0
   58.3990   28.4440   45.2950 C   0  0  0  0  0  0  0  0  0  0  0  0
   59.0170   28.3111   44.3947 H   0  0  0  0  0  0  0  0  0  0  0  0
   57.5200   27.3290   45.7070 C   0  0  0  0  0  0  0  0  0  0  0  0
   56.1210   27.4320   45.6240 C   0  0  0  0  0  0  0  0  0  0  0  0
   55.5200   28.6000   45.1690 O   0  0  0  0  0  0  0  0  0  0  0  0
   55.3430   26.3780   45.9800 N   0  0  0  0  0  0  0  0  0  0  0  0
   55.8930   25.2100   46.4010 C   0  0  0  0  0  0  0  0  0  0  0  0
   55.1520   24.2480   46.7280 O   0  0  0  0  0  0  0  0  0  0  0  0
   57.2440   25.0780   46.4620 N   0  0  0  0  0  0  0  0  0  0  0  0
   58.0660   26.1030   46.1190 C   0  0  0  0  0  0  0  0  0  0  0  0
   59.3130   25.9440   46.1830 O   0  0  0  0  0  0  0  0  0  0  0  0
   57.8050   30.7990   45.7260 C   0  0  0  0  0  0  0  0  0  0  0  0
   56.9370   31.0030   44.8350 O   0  0  0  0  0  0  0  0  0  0  0  0
  1  2  1  0
  2  3  1  0
  2  4  2  0
  4  5  1  0
  4  6  1  0
  6  7  1  0
  6  8  1  0
  6  9  1  0
  9 10  1  0
 10 11  1  0
 11 12  2  0
 12 13  1  0
 12 14  1  0
 11 15  1  0
 15 16  2  0
 16 17  1  0
 16 18  1  0
 18 19  2  0
 19 20  1  0
 19 21  1  0
 21 22  1  0
 22 23  2  0
 22 24  1  0
 24 25  1  0
 25 26  2  0
 15 27  1  0
 27 28  2  0
 27  9  1  0
 25 18  1  0
M  CHG  4  10  -1  20  -1  21  -1  24  -1
M  END
>  <UniqueID>  (4) 
4

>  <SMILES>  (4) 
C=CCn1[n-]c(=C)/c(=C/c2c([O-])[n-]c(=O)[n-]c2=O)c1=O

>  <Energy>  (4) 
69.92901790160937

>  <Genealogy>  (4) 
C=CCn1[n-]c(=C)c(=Cc2c([O-])[n-]c(=O)[n-]c2=O)c1=O (protonated)
C=CCn1[n-]c(=C)/c(=C/c2c([O-])[n-]c(=O)[n-]c2=O)c1=O (cis-trans isomerization)
C=CCn1[n-]c(=C)/c(=C/c2c([O-])[n-]c(=O)[n-]c2=O)c1=O (3D coordinates assigned)
C=CCn1[n-]c(=C)/c(=C/c2c([O-])[n-]c(=O)[n-]c2=O)c1=O (optimized conformer: 69.92901790160937 kcal/mol)

>  <smiles>  (4) 
C=CCn1[nH]c(=C)c(=Cc2c(O)[nH]c(=O)[nH]c2=O)c1=O

>  <score_type>  (4) 
oracle

>  <origin>  (4) 
adg

>  <m_score__min__energy>  (4) 
-15.09

>  <m_primary>  (4) 
energy

$$$$
4:0
     RDKit          3D

 59 63  0  0  0  0  0  0  0  0999 V2000
   54.6090   29.3570   45.0050 H   0  0  0  0  0  0  0  0  0  0  0  0
   55.5330   28.8960   45.1630 N   0  0  0  0  0  0  0  0  0  0  0  0
   56.7020   29.3490   44.4810 C   0  0  0  0  0  0  0  0  0  0  0  0
   56.7230   29.3330   43.2200 O   0  0  0  0  0  0  0  0  0  0  0  0
   57.8770   29.9000   45.2700 C   0  0  1  0  0  0  0  0  0  0  0  0
   59.2260   29.3690   44.7290 C   0  0  0  0  0  0  0  0  0  0  0  0
   59.2411   28.2722   44.8115 H   0  0  0  0  0  0  0  0  0  0  0  0
   59.3295   29.6751   43.6775 H   0  0  0  0  0  0  0  0  0  0  0  0
   60.4080   29.9540   45.5340 C   0  0  0  0  0  0  0  0  0  0  0  0
   60.9722   29.1268   45.9894 H   0  0  0  0  0  0  0  0  0  0  0  0
   61.0394   30.5310   44.8423 H   0  0  0  0  0  0  0  0  0  0  0  0
   59.9210   30.9200   46.6680 C   0  0  1  0  0  0  0  0  0  0  0  0
   61.0970   31.5570   47.4560 C   0  0  0  0  0  0  0  0  0  0  0  0
   62.4460   31.2900   47.1310 C   0  0  0  0  0  0  0  0  0  0  0  0
   62.6856   30.6339   46.2812 H   0  0  0  0  0  0  0  0  0  0  0  0
   63.4720   31.8540   47.8820 C   0  0  0  0  0  0  0  0  0  0  0  0
   64.5207   31.6573   47.6145 H   0  0  0  0  0  0  0  0  0  0  0  0
   63.1740   32.6650   48.9690 C   0  0  0  0  0  0  0  0  0  0  0  0
   64.1830   33.2020   49.7010 F   0  0  0  0  0  0  0  0  0  0  0  0
   61.8400   32.8980   49.3130 C   0  0  0  0  0  0  0  0  0  0  0  0
   61.5940   33.6460   50.3540 N   0  0  0  0  0  0  0  0  0  0  0  0
   61.1240   33.2560   51.6560 C   0  0  0  0  0  0  0  0  0  0  0  0
   61.8740   33.3680   52.6640 O   0  0  0  0  0  0  0  0  0  0  0  0
   59.7190   32.8190   51.8320 C   0  0  0  0  0  0  0  0  0  0  0  0
   58.7210   33.7450   52.1940 C   0  0  0  0  0  0  0  0  0  0  0  0
   58.9858   34.8020   52.3440 H   0  0  0  0  0  0  0  0  0  0  0  0
   57.3970   33.3310   52.3640 C   0  0  0  0  0  0  0  0  0  0  0  0
   56.6246   34.0618   52.6454 H   0  0  0  0  0  0  0  0  0  0  0  0
   57.0540   31.9910   52.1770 C   0  0  0  0  0  0  0  0  0  0  0  0
   56.0117   31.6664   52.3125 H   0  0  0  0  0  0  0  0  0  0  0  0
   58.0330   31.0620   51.8180 C   0  0  0  0  0  0  0  0  0  0  0  0
   57.7604   30.0067   51.6695 H   0  0  0  0  0  0  0  0  0  0  0  0
   59.3590   31.4710   51.6470 C   0  0  0  0  0  0  0  0  0  0  0  0
   60.1260   30.7343   51.3660 H   0  0  0  0  0  0  0  0  0  0  0  0
   60.8410   32.3660   48.5370 N   0  0  0  0  0  0  0  0  0  0  0  0
   59.8560   32.6040   48.7550 H   0  0  0  0  0  0  0  0  0  0  0  0
   59.1070   32.0360   45.9330 C   0  0  0  0  0  0  0  0  0  0  0  0
   58.7388   32.7583   46.6765 H   0  0  0  0  0  0  0  0  0  0  0  0
   59.7717   32.5264   45.2065 H   0  0  0  0  0  0  0  0  0  0  0  0
   57.8980   31.4440   45.1640 C   0  0  0  0  0  0  0  0  0  0  0  0
   56.9677   31.8468   45.5909 H   0  0  0  0  0  0  0  0  0  0  0  0
   57.9865   31.7218   44.1034 H   0  0  0  0  0  0  0  0  0  0  0  0
   58.9350   30.1310   47.6270 C   0  0  2  0  0  0  0  0  0  0  0  0
   58.3410   31.0620   48.5100 O   0  0  0  0  0  0  0  0  0  0  0  0
   58.1810   30.6050   49.3790 H   0  0  0  0  0  0  0  0  0  0  0  0
   59.7070   29.0800   48.4600 C   0  0  0  0  0  0  0  0  0  0  0  0
   59.6740   27.7210   48.0730 C   0  0  0  0  0  0  0  0  0  0  0  0
   59.1293   27.4313   47.1623 H   0  0  0  0  0  0  0  0  0  0  0  0
   60.3210   26.7400   48.8270 C   0  0  0  0  0  0  0  0  0  0  0  0
   60.2918   25.6899   48.5008 H   0  0  0  0  0  0  0  0  0  0  0  0
   61.0040   27.0870   49.9920 C   0  0  0  0  0  0  0  0  0  0  0  0
   61.6300   26.1250   50.7150 F   0  0  0  0  0  0  0  0  0  0  0  0
   61.0310   28.4190   50.4110 C   0  0  0  0  0  0  0  0  0  0  0  0
   61.8690   28.8630   51.8890 Cl  0  0  0  0  0  0  0  0  0  0  0  0
   60.3830   29.4050   49.6590 C   0  0  0  0  0  0  0  0  0  0  0  0
   60.3996   30.4488   50.0056 H   0  0  0  0  0  0  0  0  0  0  0  0
   57.7650   29.5080   46.7680 C   0  0  0  0  0  0  0  0  0  0  0  0
   57.8055   28.4120   46.8531 H   0  0  0  0  0  0  0  0  0  0  0  0
   56.8121   29.8998   47.1534 H   0  0  0  0  0  0  0  0  0  0  0  0
  1  2  1  0
  2  3  1  0
  3  4  2  0
  5  3  1  6
  5  6  1  0
  6  7  1  0
  6  8  1  0
  6  9  1  0
  9 10  1  0
  9 11  1  0
  9 12  1  0
 12 13  1  1
 13 14  2  0
 14 15  1  0
 14 16  1  0
 16 17  1  0
 16 18  2  0
 18 19  1  0
 18 20  1  0
 20 21  2  0
 21 22  1  0
 22 23  2  0
 22 24  1  0
 24 25  2  0
 25 26  1  0
 25 27  1  0
 27 28  1  0
 27 29  2  0
 29 30  1  0
 29 31  1  0
 31 32  1  0
 31 33  2  0
 33 34  1  0
 20 35  1  0
 35 36  1  0
 12 37  1  0
 37 38  1  0
 37 39  1  0
 37 40  1  0
 40 41  1  0
 40 42  1  0
 12 43  1  0
 43 44  1  1
 44 45  1  0
 43 46  1  0
 46 47  2  0
 47 48  1  0
 47 49  1  0
 49 50  1  0
 49 51  2  0
 51 52  1  0
 51 53  1  0
 53 54  1  0
 53 55  2  0
 55 56  1  0
 43 57  1  0
 57 58  1  0
 57 59  1  0
 40  5  1  0
 55 46  1  0
 57  5  1  0
 35 13  1  0
 33 24  1  0
M  CHG  1   2  -1
M  END
>  <UniqueID>  (5) 
5

>  <SMILES>  (5) 
[NH-]C(=O)C12CCC(c3ccc(F)/c(=N/C(=O)c4ccccc4)[nH]3)(CC1)[C@](O)(c1ccc(F)c(Cl)c1)C2

>  <Energy>  (5) 
101.06079136705458

>  <Genealogy>  (5) 
[NH-]C(=O)C12CCC(c3ccc(F)c(=NC(=O)c4ccccc4)[nH]3)(CC1)C(O)(c1ccc(F)c(Cl)c1)C2 (protonated)
[NH-]C(=O)C12CCC(c3ccc(F)c(=NC(=O)c4ccccc4)[nH]3)(CC1)[C@](O)(c1ccc(F)c(Cl)c1)C2 (chirality)
[NH-]C(=O)C12CCC(c3ccc(F)/c(=N/C(=O)c4ccccc4)[nH]3)(CC1)[C@](O)(c1ccc(F)c(Cl)c1)C2 (cis-trans isomerization)
[NH-]C(=O)C12CCC(c3ccc(F)/c(=N/C(=O)c4ccccc4)[nH]3)(CC1)[C@](O)(c1ccc(F)c(Cl)c1)C2 (3D coordinates assigned)
[NH-]C(=O)C12CCC(c3ccc(F)/c(=N/C(=O)c4ccccc4)[nH]3)(CC1)[C@](O)(c1ccc(F)c(Cl)c1)C2 (nonaromatic ring conformer: 101.06079136705458 kcal/mol)

>  <smiles>  (5) 
NC(=O)C12CCC(c3ccc(F)c(=NC(=O)c4ccccc4)[nH]3)(CC1)C(O)(c1ccc(F)c(Cl)c1)C2

>  <score_type>  (5) 
oracle

>  <origin>  (5) 
adg

>  <m_score__min__energy>  (5) 
-10.140000000000001

>  <m_primary>  (5) 
energy

$$$$
5:0
     RDKit          3D

 53 56  0  0  0  0  0  0  0  0999 V2000
   55.8960   27.6370   44.6610 H   0  0  0  0  0  0  0  0  0  0  0  0
   55.6540   27.4330   45.6230 O   0  0  0  0  0  0  0  0  0  0  0  0
   56.3680   26.4970   46.3680 C   0  0  0  0  0  0  0  0  0  0  0  0
   55.8650   25.3080   46.7400 N   0  0  0  0  0  0  0  0  0  0  0  0
   56.8970   24.7430   47.4040 C   0  0  0  0  0  0  0  0  0  0  0  0
   56.8270   23.5940   47.9150 O   0  0  0  0  0  0  0  0  0  0  0  0
   58.0150   25.4990   47.4680 N   0  0  0  0  0  0  0  0  0  0  0  0
   57.6610   26.6300   46.8270 C   0  0  0  0  0  0  0  0  0  0  0  0
   58.5820   27.7340   46.5110 C   0  0  0  0  0  0  0  0  0  0  0  0
   59.6338   27.6099   46.8082 H   0  0  0  0  0  0  0  0  0  0  0  0
   58.2510   28.8830   45.8900 C   0  0  0  0  0  0  0  0  0  0  0  0
   58.3010   30.1140   46.5210 C   0  0  0  0  0  0  0  0  0  0  0  0
   58.6509   30.3116   47.5450 H   0  0  0  0  0  0  0  0  0  0  0  0
   57.8280   31.0460   45.6200 C   0  0  0  0  0  0  0  0  0  0  0  0
   57.7520   32.4980   45.8700 C   0  0  0  0  0  0  0  0  0  0  0  0
   56.6170   33.0470   45.8370 O   0  0  0  0  0  0  0  0  0  0  0  0
   58.9210   33.2740   46.2110 N   0  0  0  0  0  0  0  0  0  0  0  0
   58.7810   34.5720   46.8790 C   0  0  0  0  0  0  0  0  0  0  0  0
   59.0976   35.3764   46.1988 H   0  0  0  0  0  0  0  0  0  0  0  0
   57.7315   34.7417   47.1615 H   0  0  0  0  0  0  0  0  0  0  0  0
   59.6690   34.5690   48.1260 C   0  0  0  0  0  0  0  0  0  0  0  0
   59.5782   35.5468   48.6217 H   0  0  0  0  0  0  0  0  0  0  0  0
   59.3254   33.7451   48.7688 H   0  0  0  0  0  0  0  0  0  0  0  0
   61.1090   34.3230   47.8240 N   0  0  0  0  0  0  0  0  0  0  0  0
   61.7920   33.5580   48.9030 C   0  0  0  0  0  0  0  0  0  0  0  0
   60.9663   33.0632   49.4354 H   0  0  0  0  0  0  0  0  0  0  0  0
   62.8190   32.5590   48.3430 C   0  0  0  0  0  0  0  0  0  0  0  0
   62.3816   31.5504   48.3065 H   0  0  0  0  0  0  0  0  0  0  0  0
   63.1173   32.8389   47.3219 H   0  0  0  0  0  0  0  0  0  0  0  0
   64.0250   32.5720   49.2810 C   0  0  0  0  0  0  0  0  0  0  0  0
   64.1908   31.5682   49.6992 H   0  0  0  0  0  0  0  0  0  0  0  0
   64.9397   32.8660   48.7454 H   0  0  0  0  0  0  0  0  0  0  0  0
   63.7030   33.5550   50.3920 C   0  0  0  0  0  0  0  0  0  0  0  0
   63.3396   33.0229   51.2835 H   0  0  0  0  0  0  0  0  0  0  0  0
   64.5897   34.1277   50.7015 H   0  0  0  0  0  0  0  0  0  0  0  0
   62.6190   34.4530   49.8320 C   0  0  0  0  0  0  0  0  0  0  0  0
   61.9913   34.8509   50.6430 H   0  0  0  0  0  0  0  0  0  0  0  0
   63.0387   35.3194   49.2999 H   0  0  0  0  0  0  0  0  0  0  0  0
   61.3460   33.7350   46.4760 C   0  0  0  0  0  0  0  0  0  0  0  0
   61.3586   34.5494   45.7367 H   0  0  0  0  0  0  0  0  0  0  0  0
   62.3059   33.1994   46.5174 H   0  0  0  0  0  0  0  0  0  0  0  0
   60.2720   32.7160   46.0620 C   0  0  0  0  0  0  0  0  0  0  0  0
   60.4301   32.4362   45.0100 H   0  0  0  0  0  0  0  0  0  0  0  0
   60.3581   31.8357   46.7160 H   0  0  0  0  0  0  0  0  0  0  0  0
   57.5100   30.4500   44.4480 N   0  0  0  0  0  0  0  0  0  0  0  0
   57.0480   31.1340   43.2350 C   0  0  0  0  0  0  0  0  0  0  0  0
   56.4526   32.0155   43.5153 H   0  0  0  0  0  0  0  0  0  0  0  0
   57.9168   31.4524   42.6401 H   0  0  0  0  0  0  0  0  0  0  0  0
   56.4282   30.4470   42.6401 H   0  0  0  0  0  0  0  0  0  0  0  0
   57.8110   29.1320   44.5800 C   0  0  0  0  0  0  0  0  0  0  0  0
   57.8260   28.2760   43.5470 C   0  0  0  0  0  0  0  0  0  0  0  0
   57.4504   28.5944   42.5634 H   0  0  0  0  0  0  0  0  0  0  0  0
   58.2139   27.2558   43.6837 H   0  0  0  0  0  0  0  0  0  0  0  0
  1  2  1  0
  2  3  1  0
  3  4  1  0
  4  5  1  0
  5  6  2  0
  5  7  1  0
  7  8  1  0
  8  9  1  0
  9 10  1  0
  9 11  2  0
 11 12  1  0
 12 13  1  0
 12 14  2  0
 14 15  1  0
 15 16  2  0
 15 17  1  0
 17 18  1  0
 18 19  1  0
 18 20  1  0
 18 21  1  0
 21 22  1  0
 21 23  1  0
 21 24  1  0
 24 25  1  0
 25 26  1  0
 25 27  1  0
 27 28  1  0
 27 29  1  0
 27 30  1  0
 30 31  1  0
 30 32  1  0
 30 33  1  0
 33 34  1  0
 33 35  1  0
 33 36  1  0
 36 37  1  0
 36 38  1  0
 24 39  1  0
 39 40  1  0
 39 41  1  0
 39 42  1  0
 42 43  1  0
 42 44  1  0
 14 45  1  0
 45 46  1  0
 46 47  1  0
 46 48  1  0
 46 49  1  0
 45 50  1  0
 50 51  2  0
 51 52  1  0
 51 53  1  0
  8  3  2  0
 50 11  1  0
 42 17  1  0
 36 25  1  0
M  CHG  2   4  -1   7  -1
M  END
>  <UniqueID>  (6) 
6

>  <SMILES>  (6) 
C=c1/c(=C\c2[n-]c(=O)[n-]c2O)cc(C(=O)N2CCN(C3CCCC3)CC2)n1C

>  <Energy>  (6) 
141.64621197159704

>  <Genealogy>  (6) 
C=c1c(=Cc2[n-]c(=O)[n-]c2O)cc(C(=O)N2CCN(C3CCCC3)CC2)n1C (protonated)
C=c1/c(=C\c2[n-]c(=O)[n-]c2O)cc(C(=O)N2CCN(C3CCCC3)CC2)n1C (cis-trans isomerization)
C=c1/c(=C\c2[n-]c(=O)[n-]c2O)cc(C(=O)N2CCN(C3CCCC3)CC2)n1C (3D coordinates assigned)
C=c1/c(=C\c2[n-]c(=O)[n-]c2O)cc(C(=O)N2CCN(C3CCCC3)CC2)n1C (nonaromatic ring conformer: 141.64621197159704 kcal/mol)

>  <smiles>  (6) 
C=c1c(=Cc2[nH]c(=O)[nH]c2O)cc(C(=O)N2CCN(C3CCCC3)CC2)n1C

>  <score_type>  (6) 
oracle

>  <origin>  (6) 
adg

>  <m_score__min__energy>  (6) 
-13.33

>  <m_primary>  (6) 
energy

$$$$
6:0
     RDKit          3D

 63 67  0  0  0  0  0  0  0  0999 V2000
   57.3810   33.8420   43.4090 H   0  0  0  0  0  0  0  0  0  0  0  0
   57.4100   32.8340   43.3280 O   0  0  0  0  0  0  0  0  0  0  0  0
   57.7910   32.0230   44.3950 C   0  0  0  0  0  0  0  0  0  0  0  0
   58.3460   32.5020   45.5790 C   0  0  0  0  0  0  0  0  0  0  0  0
   58.6440   33.9050   45.9090 C   0  0  0  0  0  0  0  0  0  0  0  0
   58.2310   34.8150   45.1440 O   0  0  0  0  0  0  0  0  0  0  0  0
   59.3820   34.2670   47.0850 N   0  0  0  0  0  0  0  0  0  0  0  0
   60.6920   33.7230   47.4440 C   0  0  0  0  0  0  0  0  0  0  0  0
   60.6317   32.6247   47.4548 H   0  0  0  0  0  0  0  0  0  0  0  0
   61.7320   34.1450   46.4070 C   0  0  0  0  0  0  0  0  0  0  0  0
   61.4132   33.7971   45.4134 H   0  0  0  0  0  0  0  0  0  0  0  0
   61.8177   35.2416   46.4176 H   0  0  0  0  0  0  0  0  0  0  0  0
   63.1150   33.5340   46.7400 C   0  0  0  0  0  0  0  0  0  0  0  0
   63.1517   32.5166   46.3235 H   0  0  0  0  0  0  0  0  0  0  0  0
   63.8696   34.2028   46.3002 H   0  0  0  0  0  0  0  0  0  0  0  0
   63.4130   33.4530   48.1960 N   0  0  0  0  0  0  0  0  0  0  0  0
   63.3370   32.0660   48.7110 C   0  0  0  0  0  0  0  0  0  0  0  0
   62.3188   31.8782   49.0824 H   0  0  0  0  0  0  0  0  0  0  0  0
   63.5878   31.3792   47.8892 H   0  0  0  0  0  0  0  0  0  0  0  0
   64.3180   31.8370   49.8340 C   0  0  0  0  0  0  0  0  0  0  0  0
   65.5230   32.5580   49.8730 C   0  0  0  0  0  0  0  0  0  0  0  0
   65.7607   33.2730   49.0716 H   0  0  0  0  0  0  0  0  0  0  0  0
   66.4210   32.3690   50.9280 C   0  0  0  0  0  0  0  0  0  0  0  0
   67.3629   32.9366   50.9551 H   0  0  0  0  0  0  0  0  0  0  0  0
   66.1250   31.4610   51.9480 C   0  0  0  0  0  0  0  0  0  0  0  0
   66.8339   31.3136   52.7761 H   0  0  0  0  0  0  0  0  0  0  0  0
   64.9280   30.7400   51.9160 C   0  0  0  0  0  0  0  0  0  0  0  0
   64.6968   30.0241   52.7185 H   0  0  0  0  0  0  0  0  0  0  0  0
   64.0240   30.9270   50.8660 C   0  0  0  0  0  0  0  0  0  0  0  0
   63.0808   30.3614   50.8467 H   0  0  0  0  0  0  0  0  0  0  0  0
   62.6230   34.4200   48.9920 C   0  0  0  0  0  0  0  0  0  0  0  0
   62.9035   34.3178   50.0507 H   0  0  0  0  0  0  0  0  0  0  0  0
   62.8450   35.4274   48.6101 H   0  0  0  0  0  0  0  0  0  0  0  0
   61.1050   34.1930   48.8590 C   0  0  0  0  0  0  0  0  0  0  0  0
   60.7988   33.4275   49.5872 H   0  0  0  0  0  0  0  0  0  0  0  0
   60.6079   35.1561   49.0469 H   0  0  0  0  0  0  0  0  0  0  0  0
   58.6380   31.1870   46.5860 S   0  0  0  0  0  0  0  0  0  0  0  0
   58.0360   30.0070   45.5460 C   0  0  0  0  0  0  0  0  0  0  0  0
   57.9420   28.5720   45.8840 C   0  0  0  0  0  0  0  0  0  0  0  0
   58.7420   28.0720   46.8640 N   0  0  0  0  0  0  0  0  0  0  0  0
   58.6720   26.7700   47.2460 C   0  0  0  0  0  0  0  0  0  0  0  0
   59.4650   26.3350   48.1780 N   0  0  0  0  0  0  0  0  0  0  0  0
   60.7750   26.8980   48.4990 C   0  0  0  0  0  0  0  0  0  0  0  0
   61.3272   26.1920   49.1367 H   0  0  0  0  0  0  0  0  0  0  0  0
   61.3284   27.0732   47.5646 H   0  0  0  0  0  0  0  0  0  0  0  0
   60.6160   28.2070   49.2280 C   0  0  0  0  0  0  0  0  0  0  0  0
   60.4270   28.2160   50.6190 C   0  0  0  0  0  0  0  0  0  0  0  0
   60.3699   27.2654   51.1695 H   0  0  0  0  0  0  0  0  0  0  0  0
   60.3110   29.4260   51.3080 C   0  0  0  0  0  0  0  0  0  0  0  0
   60.1629   29.4256   52.3980 H   0  0  0  0  0  0  0  0  0  0  0  0
   60.3830   30.6380   50.6130 C   0  0  0  0  0  0  0  0  0  0  0  0
   60.2420   32.1570   51.4810 Cl  0  0  0  0  0  0  0  0  0  0  0  0
   60.5750   30.6370   49.2270 C   0  0  0  0  0  0  0  0  0  0  0  0
   60.6340   31.5896   48.6801 H   0  0  0  0  0  0  0  0  0  0  0  0
   60.6920   29.4270   48.5360 C   0  0  0  0  0  0  0  0  0  0  0  0
   60.8441   29.4305   47.4466 H   0  0  0  0  0  0  0  0  0  0  0  0
   57.7760   25.9400   46.6430 N   0  0  0  0  0  0  0  0  0  0  0  0
   56.9550   26.3920   45.6640 C   0  0  0  0  0  0  0  0  0  0  0  0
   56.2360   25.7071   45.1908 H   0  0  0  0  0  0  0  0  0  0  0  0
   57.0200   27.7250   45.2550 C   0  0  0  0  0  0  0  0  0  0  0  0
   56.3627   28.1017   44.4575 H   0  0  0  0  0  0  0  0  0  0  0  0
   57.6130   30.6330   44.3730 C   0  0  0  0  0  0  0  0  0  0  0  0
   57.1834   30.0907   43.5178 H   0  0  0  0  0  0  0  0  0  0  0  0
  1  2  1  0
  2  3  1  0
  3  4  2  0
  4  5  1  0
  5  6  2  0
  5  7  1  0
  7  8  1  0
  8  9  1  0
  8 10  1  0
 10 11  1  0
 10 12  1  0
 10 13  1  0
 13 14  1  0
 13 15  1  0
 13 16  1  0
 16 17  1  0
 17 18  1  0
 17 19  1  0
 17 20  1  0
 20 21  2  0
 21 22  1  0
 21 23  1  0
 23 24  1  0
 23 25  2  0
 25 26  1  0
 25 27  1  0
 27 28  1  0
 27 29  2  0
 29 30  1  0
 16 31  1  0
 31 32  1  0
 31 33  1  0
 31 34  1  0
 34 35  1  0
 34 36  1  0
  4 37  1  0
 37 38  1  0
 38 39  1  0
 39 40  2  0
 40 41  1  0
 41 42  2  0
 42 43  1  0
 43 44  1  0
 43 45  1  0
 43 46  1  0
 46 47  2  0
 47 48  1  0
 47 49  1  0
 49 50  1  0
 49 51  2  0
 51 52  1  0
 51 53  1  0
 53 54  1  0
 53 55  2  0
 55 56  1  0
 41 57  1  0
 57 58  1  0
 58 59  1  0
 58 60  2  0
 60 61  1  0
 38 62  2  0
 62 63  1  0
 62  3  1  0
 34  8  1  0
 60 39  1  0
 29 20  1  0
 55 46  1  0
M  CHG  2   7  -1  57  -1
M  END
>  <UniqueID>  (7) 
7

>  <SMILES>  (7) 
O=C([N-]C1CCN(Cc2ccccc2)CC1)c1sc(-c2cc[n-]/c(=N\Cc3ccc(Cl)cc3)n2)cc1O

>  <Energy>  (7) 
107.4044781027167

>  <Genealogy>  (7) 
O=C([N-]C1CCN(Cc2ccccc2)CC1)c1sc(-c2cc[n-]c(=NCc3ccc(Cl)cc3)n2)cc1O (protonated)
O=C([N-]C1CCN(Cc2ccccc2)CC1)c1sc(-c2cc[n-]/c(=N\Cc3ccc(Cl)cc3)n2)cc1O (cis-trans isomerization)
O=C([N-]C1CCN(Cc2ccccc2)CC1)c1sc(-c2cc[n-]/c(=N\Cc3ccc(Cl)cc3)n2)cc1O (3D coordinates assigned)
O=C([N-]C1CCN(Cc2ccccc2)CC1)c1sc(-c2cc[n-]/c(=N\Cc3ccc(Cl)cc3)n2)cc1O (nonaromatic ring conformer: 107.4044781027167 kcal/mol)

>  <smiles>  (7) 
O=C(NC1CCN(Cc2ccccc2)CC1)c1sc(-c2cc[nH]c(=NCc3ccc(Cl)cc3)n2)cc1O

>  <score_type>  (7) 
oracle

>  <origin>  (7) 
adg

>  <m_score__min__energy>  (7) 
-11.93

>  <m_primary>  (7) 
energy

$$$$
7:0
     RDKit          3D

 25 26  0  0  0  0  0  0  0  0999 V2000
   58.6480   27.1870   46.4670 O   0  0  0  0  0  0  0  0  0  0  0  0
   57.5670   27.6830   46.0470 C   0  0  0  0  0  0  0  0  0  0  0  0
   56.3510   26.9240   46.1030 N   0  0  0  0  0  0  0  0  0  0  0  0
   56.1250   25.6230   45.5430 C   0  0  0  0  0  0  0  0  0  0  0  0
   57.1770   24.9960   44.8590 C   0  0  0  0  0  0  0  0  0  0  0  0
   56.9930   23.7360   44.2800 C   0  0  0  0  0  0  0  0  0  0  0  0
   55.7510   23.1000   44.3660 C   0  0  0  0  0  0  0  0  0  0  0  0
   55.5690   21.8480   43.7910 O   0  0  0  0  0  0  0  0  0  0  0  0
   54.6900   23.7280   45.0260 C   0  0  0  0  0  0  0  0  0  0  0  0
   54.8710   24.9880   45.6070 C   0  0  0  0  0  0  0  0  0  0  0  0
   57.5590   29.0600   45.5130 C   0  0  0  0  0  0  0  0  0  0  0  0
   58.7310   29.8280   45.6080 C   0  0  0  0  0  0  0  0  0  0  0  0
   58.7400   31.1580   45.1880 C   0  0  0  0  0  0  0  0  0  0  0  0
   57.5730   31.7170   44.6680 C   0  0  0  0  0  0  0  0  0  0  0  0
   57.5580   32.9200   44.2970 O   0  0  0  0  0  0  0  0  0  0  0  0
   56.4510   30.9610   44.5540 N   0  0  0  0  0  0  0  0  0  0  0  0
   56.4080   29.6570   44.9410 C   0  0  0  0  0  0  0  0  0  0  0  0
   55.2280   28.9450   44.7200 O   0  0  0  0  0  0  0  0  0  0  0  0
   58.1523   25.4981   44.7775 H   0  0  0  0  0  0  0  0  0  0  0  0
   57.8265   23.2450   43.7564 H   0  0  0  0  0  0  0  0  0  0  0  0
   53.7110   23.2304   45.0885 H   0  0  0  0  0  0  0  0  0  0  0  0
   54.0306   25.4835   46.1152 H   0  0  0  0  0  0  0  0  0  0  0  0
   59.6478   29.3777   46.0163 H   0  0  0  0  0  0  0  0  0  0  0  0
   59.6577   31.7595   45.2661 H   0  0  0  0  0  0  0  0  0  0  0  0
   55.1430   27.9500   44.8760 H   0  0  0  0  0  0  0  0  0  0  0  0
  1  2  2  0
  2  3  1  0
  3  4  1  0
  4  5  2  0
  5  6  1  0
  6  7  2  0
  7  8  1  0
  7  9  1  0
  9 10  2  0
  2 11  1  0
 11 12  1  0
 12 13  2  0
 13 14  1  0
 14 15  2  0
 14 16  1  0
 16 17  1  0
 17 18  1  0
 10  4  1  0
 17 11  2  0
  5 19  1  0
  6 20  1  0
  9 21  1  0
 10 22  1  0
 12 23  1  0
 13 24  1  0
 18 25  1  0
M  CHG  3   3  -1   8  -1  16  -1
M  END
>  <UniqueID>  (8) 
8

>  <SMILES>  (8) 
O=C([N-]c1ccc([O-])cc1)c1ccc(=O)[n-]c1O

>  <Energy>  (8) 
36.327175842000074

>  <Genealogy>  (8) 
O=C([N-]c1ccc([O-])cc1)c1ccc(=O)[n-]c1O (protonated)
O=C([N-]c1ccc([O-])cc1)c1ccc(=O)[n-]c1O (3D coordinates assigned)
O=C([N-]c1ccc([O-])cc1)c1ccc(=O)[n-]c1O (optimized conformer: 36.327175842000074 kcal/mol)

>  <smiles>  (8) 
O=C(Nc1ccc(O)cc1)c1ccc(=O)[nH]c1O

>  <score_type>  (8) 
oracle

>  <origin>  (8) 
adg

>  <m_score__min__energy>  (8) 
-12.039999999999999

>  <m_primary>  (8) 
energy

$$$$
8:0
     RDKit          3D

 66 69  0  0  0  0  0  0  0  0999 V2000
   59.5760   29.7070   48.9450 C   0  0  0  0  0  0  0  0  0  0  0  0
   59.5400   28.7680   47.9940 C   0  0  0  0  0  0  0  0  0  0  0  0
   59.7160   29.1070   46.5400 C   0  0  0  0  0  0  0  0  0  0  0  0
   58.5710   29.8850   46.0460 N   0  0  0  0  0  0  0  0  0  0  0  0
   57.4800   29.5090   45.2970 C   0  0  0  0  0  0  0  0  0  0  0  0
   57.0690   28.2890   45.0670 N   0  0  0  0  0  0  0  0  0  0  0  0
   57.7410   27.1390   44.4690 C   0  0  0  0  0  0  0  0  0  0  0  0
   57.6730   25.9140   45.3530 C   0  0  0  0  0  0  0  0  0  0  0  0
   57.4380   26.0150   46.7380 C   0  0  0  0  0  0  0  0  0  0  0  0
   57.3530   24.8640   47.5260 C   0  0  0  0  0  0  0  0  0  0  0  0
   57.4720   23.6010   46.9380 C   0  0  0  0  0  0  0  0  0  0  0  0
   57.3920   22.4580   47.7220 O   0  0  0  0  0  0  0  0  0  0  0  0
   57.6660   23.4900   45.5610 C   0  0  0  0  0  0  0  0  0  0  0  0
   57.7560   24.6400   44.7690 C   0  0  0  0  0  0  0  0  0  0  0  0
   56.7650   30.5580   44.8160 N   0  0  0  0  0  0  0  0  0  0  0  0
   57.4210   31.6250   45.2880 C   0  0  0  0  0  0  0  0  0  0  0  0
   57.0970   32.9640   45.0910 C   0  0  0  0  0  0  0  0  0  0  0  0
   57.9150   33.9330   45.6960 C   0  0  0  0  0  0  0  0  0  0  0  0
   59.0240   33.5450   46.4870 C   0  0  0  0  0  0  0  0  0  0  0  0
   59.8250   34.5660   47.1780 C   0  0  0  0  0  0  0  0  0  0  0  0
   59.9480   35.7070   46.6570 O   0  0  0  0  0  0  0  0  0  0  0  0
   60.4360   34.2970   48.4580 N   0  0  0  0  0  0  0  0  0  0  0  0
   59.6410   34.5370   49.6680 C   0  0  0  0  0  0  0  0  0  0  0  0
   59.2770   33.2150   50.3520 C   0  0  0  0  0  0  0  0  0  0  0  0
   59.1110   33.4200   51.8270 C   0  0  0  0  0  0  0  0  0  0  0  0
   58.5450   34.6300   52.3300 N   0  0  0  0  0  0  0  0  0  0  0  0
   59.5250   32.5420   52.6320 O   0  0  0  0  0  0  0  0  0  0  0  0
   61.7480   33.6230   48.5750 C   0  0  0  0  0  0  0  0  0  0  0  0
   62.6550   34.3130   49.6080 C   0  0  0  0  0  0  0  0  0  0  0  0
   63.9170   33.4720   49.8770 C   0  0  0  0  0  0  0  0  0  0  0  0
   64.4530   32.7490   48.6180 C   0  0  0  0  0  0  0  0  0  0  0  0
   64.0000   33.4290   47.3210 C   0  0  0  0  0  0  0  0  0  0  0  0
   62.4620   33.4740   47.2030 C   0  0  0  0  0  0  0  0  0  0  0  0
   59.3430   32.1770   46.6320 C   0  0  0  0  0  0  0  0  0  0  0  0
   58.5020   31.2360   46.0240 C   0  0  0  0  0  0  0  0  0  0  0  0
   59.4438   29.4263   50.0003 H   0  0  0  0  0  0  0  0  0  0  0  0
   59.7379   30.7603   48.6721 H   0  0  0  0  0  0  0  0  0  0  0  0
   59.3772   27.7193   48.2832 H   0  0  0  0  0  0  0  0  0  0  0  0
   60.6351   29.6985   46.4157 H   0  0  0  0  0  0  0  0  0  0  0  0
   59.7833   28.1721   45.9644 H   0  0  0  0  0  0  0  0  0  0  0  0
   57.2601   26.9086   43.5069 H   0  0  0  0  0  0  0  0  0  0  0  0
   58.8011   27.3998   44.3346 H   0  0  0  0  0  0  0  0  0  0  0  0
   57.3207   27.0054   47.2020 H   0  0  0  0  0  0  0  0  0  0  0  0
   57.1922   24.9518   48.6106 H   0  0  0  0  0  0  0  0  0  0  0  0
   57.7484   22.4962   45.0968 H   0  0  0  0  0  0  0  0  0  0  0  0
   57.8927   24.5452   43.6816 H   0  0  0  0  0  0  0  0  0  0  0  0
   56.2286   33.2543   44.4814 H   0  0  0  0  0  0  0  0  0  0  0  0
   57.6925   35.0009   45.5543 H   0  0  0  0  0  0  0  0  0  0  0  0
   60.2245   35.1553   50.3660 H   0  0  0  0  0  0  0  0  0  0  0  0
   58.7125   35.0533   49.3828 H   0  0  0  0  0  0  0  0  0  0  0  0
   58.3345   32.8359   49.9302 H   0  0  0  0  0  0  0  0  0  0  0  0
   60.0859   32.4894   50.1808 H   0  0  0  0  0  0  0  0  0  0  0  0
   58.4660   34.7880   53.3600 H   0  0  0  0  0  0  0  0  0  0  0  0
   58.2240   35.3810   51.6770 H   0  0  0  0  0  0  0  0  0  0  0  0
   61.5435   32.6059   48.9405 H   0  0  0  0  0  0  0  0  0  0  0  0
   62.9542   35.2992   49.2234 H   0  0  0  0  0  0  0  0  0  0  0  0
   62.0970   34.4221   50.5497 H   0  0  0  0  0  0  0  0  0  0  0  0
   64.7050   34.1378   50.2589 H   0  0  0  0  0  0  0  0  0  0  0  0
   63.6407   32.6950   50.6050 H   0  0  0  0  0  0  0  0  0  0  0  0
   65.5525   32.7478   48.6517 H   0  0  0  0  0  0  0  0  0  0  0  0
   64.0505   31.7253   48.6202 H   0  0  0  0  0  0  0  0  0  0  0  0
   64.3884   34.4580   47.3043 H   0  0  0  0  0  0  0  0  0  0  0  0
   64.3904   32.8446   46.4748 H   0  0  0  0  0  0  0  0  0  0  0  0
   62.1846   34.3295   46.5696 H   0  0  0  0  0  0  0  0  0  0  0  0
   62.1389   32.5167   46.7681 H   0  0  0  0  0  0  0  0  0  0  0  0
   60.2262   31.8595   47.2057 H   0  0  0  0  0  0  0  0  0  0  0  0
  1  2  2  0
  2  3  1  0
  3  4  1  0
  4  5  1  0
  5  6  2  3
  6  7  1  0
  7  8  1  0
  8  9  2  0
  9 10  1  0
 10 11  2  0
 11 12  1  0
 11 13  1  0
 13 14  2  0
  5 15  1  0
 15 16  1  0
 16 17  2  0
 17 18  1  0
 18 19  2  0
 19 20  1  0
 20 21  2  0
 20 22  1  0
 22 23  1  0
 23 24  1  0
 24 25  1  0
 25 26  1  0
 25 27  2  0
 22 28  1  0
 28 29  1  0
 29 30  1  0
 30 31  1  0
 31 32  1  0
 32 33  1  0
 19 34  1  0
 34 35  2  0
 35  4  1  0
 14  8  1  0
 35 16  1  0
 33 28  1  0
  1 36  1  0
  1 37  1  0
  2 38  1  0
  3 39  1  0
  3 40  1  0
  7 41  1  0
  7 42  1  0
  9 43  1  0
 10 44  1  0
 13 45  1  0
 14 46  1  0
 17 47  1  0
 18 48  1  0
 23 49  1  0
 23 50  1  0
 24 51  1  0
 24 52  1  0
 26 53  1  0
 26 54  1  0
 28 55  1  0
 29 56  1  0
 29 57  1  0
 30 58  1  0
 30 59  1  0
 31 60  1  0
 31 61  1  0
 32 62  1  0
 32 63  1  0
 33 64  1  0
 33 65  1  0
 34 66  1  0
M  CHG  2  12  -1  15  -1
M  END
>  <UniqueID>  (9) 
9

>  <SMILES>  (9) 
C=CCn1c(=NCc2ccc([O-])cc2)[n-]c2ccc(C(=O)N(CCC(N)=O)C3CCCCC3)cc21

>  <Energy>  (9) 
116.94587153135227

>  <Genealogy>  (9) 
C=CCn1c(=NCc2ccc([O-])cc2)[n-]c2ccc(C(=O)N(CCC(N)=O)C3CCCCC3)cc21 (protonated)
C=CCn1c(=NCc2ccc([O-])cc2)[n-]c2ccc(C(=O)N(CCC(N)=O)C3CCCCC3)cc21 (3D coordinates assigned)
C=CCn1c(=NCc2ccc([O-])cc2)[n-]c2ccc(C(=O)N(CCC(N)=O)C3CCCCC3)cc21 (nonaromatic ring conformer: 116.94587153135227 kcal/mol)

>  <smiles>  (9) 
C=CCn1c(=NCc2ccc(O)cc2)[nH]c2ccc(C(=O)N(CCC(N)=O)C3CCCCC3)cc21

>  <score_type>  (9) 
oracle

>  <origin>  (9) 
adg

>  <m_score__min__energy>  (9) 
-14.630000000000001

>  <m_primary>  (9) 
energy

$$$$
9:0
     RDKit          3D

 39 43  0  0  0  0  0  0  0  0999 V2000
   59.6203   25.4452   45.2797 H   0  0  0  0  0  0  0  0  0  0  0  0
   59.2970   24.6850   46.0060 C   0  0  0  0  0  0  0  0  0  0  0  0
   60.0247   23.9659   46.4102 H   0  0  0  0  0  0  0  0  0  0  0  0
   58.0210   24.6350   46.3970 C   0  0  0  0  0  0  0  0  0  0  0  0
   57.5910   23.7180   47.2840 N   0  0  0  0  0  0  0  0  0  0  0  0
   56.3130   24.0720   47.5190 C   0  0  0  0  0  0  0  0  0  0  0  0
   55.5680   23.4450   48.3150 O   0  0  0  0  0  0  0  0  0  0  0  0
   55.8990   25.1570   46.8360 N   0  0  0  0  0  0  0  0  0  0  0  0
   56.9700   25.5120   46.1000 C   0  0  0  0  0  0  0  0  0  0  0  0
   56.9130   26.5500   45.2480 C   0  0  0  0  0  0  0  0  0  0  0  0
   56.6451   26.3277   44.2045 H   0  0  0  0  0  0  0  0  0  0  0  0
   57.1770   27.9570   45.5870 C   0  0  0  0  0  0  0  0  0  0  0  0
   56.3910   29.0500   45.2520 C   0  0  0  0  0  0  0  0  0  0  0  0
   55.1510   28.9700   44.6320 O   0  0  0  0  0  0  0  0  0  0  0  0
   56.9710   30.2240   45.5930 N   0  0  0  0  0  0  0  0  0  0  0  0
   58.1530   29.8630   46.1280 C   0  0  0  0  0  0  0  0  0  0  0  0
   59.1400   30.7190   46.6100 C   0  0  0  0  0  0  0  0  0  0  0  0
   58.9882   31.8085   46.6092 H   0  0  0  0  0  0  0  0  0  0  0  0
   60.3430   30.1570   47.1010 C   0  0  0  0  0  0  0  0  0  0  0  0
   61.4190   31.0310   47.6280 C   0  0  0  0  0  0  0  0  0  0  0  0
   61.8770   32.1450   46.8720 C   0  0  0  0  0  0  0  0  0  0  0  0
   61.4283   32.3557   45.8900 H   0  0  0  0  0  0  0  0  0  0  0  0
   62.8960   32.9810   47.3630 C   0  0  0  0  0  0  0  0  0  0  0  0
   63.2521   33.8436   46.7807 H   0  0  0  0  0  0  0  0  0  0  0  0
   63.4400   32.6820   48.6100 C   0  0  0  0  0  0  0  0  0  0  0  0
   63.0080   31.6130   49.3450 C   0  0  0  0  0  0  0  0  0  0  0  0
   62.0020   30.7640   48.8910 C   0  0  0  0  0  0  0  0  0  0  0  0
   61.6689   29.9086   49.4971 H   0  0  0  0  0  0  0  0  0  0  0  0
   63.7350   31.5970   50.5150 C   0  0  0  0  0  0  0  0  0  0  0  0
   63.6530   30.8779   51.3434 H   0  0  0  0  0  0  0  0  0  0  0  0
   64.5950   32.6860   50.4230 C   0  0  0  0  0  0  0  0  0  0  0  0
   65.3259   32.9713   51.1939 H   0  0  0  0  0  0  0  0  0  0  0  0
   64.4110   33.3470   49.2570 N   0  0  0  0  0  0  0  0  0  0  0  0
   64.9200   34.1980   48.9320 H   0  0  0  0  0  0  0  0  0  0  0  0
   60.5110   28.7460   47.0770 C   0  0  0  0  0  0  0  0  0  0  0  0
   61.4461   28.3044   47.4519 H   0  0  0  0  0  0  0  0  0  0  0  0
   59.4990   27.9080   46.5810 C   0  0  0  0  0  0  0  0  0  0  0  0
   59.6310   26.8163   46.5519 H   0  0  0  0  0  0  0  0  0  0  0  0
   58.3230   28.5010   46.1270 C   0  0  0  0  0  0  0  0  0  0  0  0
  1  2  1  0
  2  3  1  0
  2  4  2  0
  4  5  1  0
  5  6  1  0
  6  7  2  0
  6  8  1  0
  8  9  1  0
  9 10  2  0
 10 11  1  0
 10 12  1  0
 12 13  2  0
 13 14  1  0
 13 15  1  0
 15 16  1  0
 16 17  2  0
 17 18  1  0
 17 19  1  0
 19 20  1  0
 20 21  2  0
 21 22  1  0
 21 23  1  0
 23 24  1  0
 23 25  2  0
 25 26  1  0
 26 27  2  0
 27 28  1  0
 26 29  1  0
 29 30  1  0
 29 31  2  0
 31 32  1  0
 31 33  1  0
 33 34  1  0
 19 35  2  0
 35 36  1  0
 35 37  1  0
 37 38  1  0
 37 39  2  0
  9  4  1  0
 39 12  1  0
 39 16  1  0
 27 20  1  0
 33 25  1  0
M  CHG  4   5  -1   8  -1  14  -1  15  -1
M  END
>  <UniqueID>  (10) 
10

>  <SMILES>  (10) 
C=c1[n-]c(=O)[n-]/c1=C/c1c([O-])[n-]c2cc(-c3ccc4[nH]ccc4c3)ccc12

>  <Energy>  (10) 
156.62299012260831

>  <Genealogy>  (10) 
C=c1[n-]c(=O)[n-]c1=Cc1c([O-])[n-]c2cc(-c3ccc4[nH]ccc4c3)ccc12 (protonated)
C=c1[n-]c(=O)[n-]/c1=C/c1c([O-])[n-]c2cc(-c3ccc4[nH]ccc4c3)ccc12 (cis-trans isomerization)
C=c1[n-]c(=O)[n-]/c1=C/c1c([O-])[n-]c2cc(-c3ccc4[nH]ccc4c3)ccc12 (3D coordinates assigned)
C=c1[n-]c(=O)[n-]/c1=C/c1c([O-])[n-]c2cc(-c3ccc4[nH]ccc4c3)ccc12 (optimized conformer: 156.62299012260831 kcal/mol)

>  <smiles>  (10) 
C=c1[nH]c(=O)[nH]c1=Cc1c(O)[nH]c2cc(-c3ccc4[nH]ccc4c3)ccc12

>  <score_type>  (10) 
oracle

>  <origin>  (10) 
adg

>  <m_score__min__energy>  (10) 
-15.49

>  <m_primary>  (10) 
energy

$$$$
10:0
     RDKit          3D

 55 58  0  0  0  0  0  0  0  0999 V2000
   55.3070   25.9320   46.1000 N   0  0  0  0  0  0  0  0  0  0  0  0
   56.2100   26.6510   46.0250 C   0  0  0  0  0  0  0  0  0  0  0  0
   57.3350   27.5440   45.9310 C   0  0  0  0  0  0  0  0  0  0  0  0
   58.3720   27.4680   46.8690 C   0  0  0  0  0  0  0  0  0  0  0  0
   59.4570   28.3450   46.7860 C   0  0  0  0  0  0  0  0  0  0  0  0
   59.5130   29.2970   45.7650 C   0  0  0  0  0  0  0  0  0  0  0  0
   58.4820   29.3780   44.8150 C   0  0  0  0  0  0  0  0  0  0  0  0
   58.5120   30.4390   43.7510 C   0  0  0  0  0  0  0  0  0  0  0  0
   57.8470   31.9720   44.3790 S   0  0  0  0  0  0  0  0  0  0  0  0
   56.6470   31.6980   45.2430 O   0  0  0  0  0  0  0  0  0  0  0  0
   57.4250   32.8360   43.2250 O   0  0  0  0  0  0  0  0  0  0  0  0
   59.0610   32.8160   45.3230 C   0  0  0  0  0  0  0  0  0  0  0  0
   59.2820   34.1460   45.2490 N   0  0  0  0  0  0  0  0  0  0  0  0
   60.2260   34.5810   46.0810 N   0  0  0  0  0  0  0  0  0  0  0  0
   60.7660   33.5930   46.8310 C   0  0  0  0  0  0  0  0  0  0  0  0
   61.8080   33.8050   47.8050 N   0  0  0  0  0  0  0  0  0  0  0  0
   61.4440   34.1170   49.1960 C   0  0  0  0  0  0  0  0  0  0  0  0
   62.6790   34.2030   50.1010 C   0  0  0  0  0  0  0  0  0  0  0  0
   63.6140   33.0120   49.8160 C   0  0  0  0  0  0  0  0  0  0  0  0
   64.7190   32.9230   50.8090 N   0  0  0  0  0  0  0  0  0  0  0  0
   65.0620   34.1970   51.4920 C   0  0  0  0  0  0  0  0  0  0  0  0
   66.3500   34.0570   52.3080 C   0  0  0  0  0  0  0  0  0  0  0  0
   67.5500   33.7050   51.4130 C   0  0  0  0  0  0  0  0  0  0  0  0
   67.1450   32.9650   50.1280 C   0  0  0  0  0  0  0  0  0  0  0  0
   65.8790   32.1210   50.3370 C   0  0  0  0  0  0  0  0  0  0  0  0
   64.1000   32.9990   48.3370 C   0  0  0  0  0  0  0  0  0  0  0  0
   63.2200   33.8370   47.3930 C   0  0  0  0  0  0  0  0  0  0  0  0
   60.0580   32.0990   46.4720 S   0  0  0  0  0  0  0  0  0  0  0  0
   57.3890   28.4990   44.9070 C   0  0  0  0  0  0  0  0  0  0  0  0
   58.3326   26.7172   47.6720 H   0  0  0  0  0  0  0  0  0  0  0  0
   60.2686   28.2856   47.5261 H   0  0  0  0  0  0  0  0  0  0  0  0
   60.3683   29.9861   45.7050 H   0  0  0  0  0  0  0  0  0  0  0  0
   59.5515   30.6000   43.4294 H   0  0  0  0  0  0  0  0  0  0  0  0
   57.8992   30.1072   42.8999 H   0  0  0  0  0  0  0  0  0  0  0  0
   58.7640   34.7880   44.6100 H   0  0  0  0  0  0  0  0  0  0  0  0
   60.9178   35.0827   49.2185 H   0  0  0  0  0  0  0  0  0  0  0  0
   60.8002   33.3078   49.5712 H   0  0  0  0  0  0  0  0  0  0  0  0
   63.2136   35.1436   49.9021 H   0  0  0  0  0  0  0  0  0  0  0  0
   62.3623   34.1744   51.1540 H   0  0  0  0  0  0  0  0  0  0  0  0
   63.0281   32.0898   49.9440 H   0  0  0  0  0  0  0  0  0  0  0  0
   65.1998   34.9840   50.7359 H   0  0  0  0  0  0  0  0  0  0  0  0
   64.2416   34.4575   52.1770 H   0  0  0  0  0  0  0  0  0  0  0  0
   66.5535   35.0089   52.8204 H   0  0  0  0  0  0  0  0  0  0  0  0
   66.2111   33.2426   53.0343 H   0  0  0  0  0  0  0  0  0  0  0  0
   68.0640   34.6365   51.1337 H   0  0  0  0  0  0  0  0  0  0  0  0
   68.2029   33.0319   51.9881 H   0  0  0  0  0  0  0  0  0  0  0  0
   66.9548   33.7037   49.3355 H   0  0  0  0  0  0  0  0  0  0  0  0
   67.9663   32.2896   49.8464 H   0  0  0  0  0  0  0  0  0  0  0  0
   65.6119   31.6467   49.3812 H   0  0  0  0  0  0  0  0  0  0  0  0
   66.1037   31.3768   51.1152 H   0  0  0  0  0  0  0  0  0  0  0  0
   65.1244   33.3985   48.3039 H   0  0  0  0  0  0  0  0  0  0  0  0
   64.0463   31.9570   47.9885 H   0  0  0  0  0  0  0  0  0  0  0  0
   63.5729   34.8788   47.4056 H   0  0  0  0  0  0  0  0  0  0  0  0
   63.2950   33.4114   46.3814 H   0  0  0  0  0  0  0  0  0  0  0  0
   56.5728   28.5611   44.1722 H   0  0  0  0  0  0  0  0  0  0  0  0
  1  2  3  0
  2  3  1  0
  3  4  2  0
  4  5  1  0
  5  6  2  0
  6  7  1  0
  7  8  1  0
  8  9  1  0
  9 10  2  0
  9 11  2  0
  9 12  1  0
 12 13  2  0
 13 14  1  0
 14 15  2  0
 15 16  1  0
 16 17  1  0
 17 18  1  0
 18 19  1  0
 19 20  1  0
 20 21  1  0
 21 22  1  0
 22 23  1  0
 23 24  1  0
 24 25  1  0
 19 26  1  0
 26 27  1  0
 15 28  1  0
  7 29  2  0
 29  3  1  0
 28 12  1  0
 27 16  1  0
 25 20  1  0
  4 30  1  0
  5 31  1  0
  6 32  1  0
  8 33  1  0
  8 34  1  0
 13 35  1  0
 17 36  1  0
 17 37  1  0
 18 38  1  0
 18 39  1  0
 19 40  1  0
 21 41  1  0
 21 42  1  0
 22 43  1  0
 22 44  1  0
 23 45  1  0
 23 46  1  0
 24 47  1  0
 24 48  1  0
 25 49  1  0
 25 50  1  0
 26 51  1  0
 26 52  1  0
 27 53  1  0
 27 54  1  0
 29 55  1  0
M  CHG  1  13   1
M  END
>  <UniqueID>  (11) 
11

>  <SMILES>  (11) 
N#Cc1cccc(CS(=O)(=O)c2[nH+]nc(N3CCC(N4CCCCC4)CC3)s2)c1

>  <Energy>  (11) 
98.96972480766186

>  <Genealogy>  (11) 
N#Cc1cccc(CS(=O)(=O)c2[nH+]nc(N3CCC(N4CCCCC4)CC3)s2)c1 (protonated)
N#Cc1cccc(CS(=O)(=O)c2[nH+]nc(N3CCC(N4CCCCC4)CC3)s2)c1 (3D coordinates assigned)
N#Cc1cccc(CS(=O)(=O)c2[nH+]nc(N3CCC(N4CCCCC4)CC3)s2)c1 (nonaromatic ring conformer: 98.96972480766186 kcal/mol)

>  <smiles>  (11) 
N#Cc1cccc(CS(=O)(=O)c2nnc(N3CCC(N4CCCCC4)CC3)s2)c1

>  <score_type>  (11) 
oracle

>  <origin>  (11) 
adg

>  <m_score__min__energy>  (11) 
-8

>  <m_primary>  (11) 
energy

$$$$
11:0
     RDKit          3D

 37 39  0  0  0  0  0  0  0  0999 V2000
   55.1410   29.3800   45.0750 O   0  0  0  0  0  0  0  0  0  0  0  0
   56.3650   29.3130   44.7860 C   0  0  0  0  0  0  0  0  0  0  0  0
   56.9300   30.3290   43.9430 N   0  0  0  0  0  0  0  0  0  0  0  0
   57.5150   31.4160   44.3530 C   0  0  0  0  0  0  0  0  0  0  0  0
   57.9350   31.6180   45.6200 N   0  0  0  0  0  0  0  0  0  0  0  0
   58.4880   32.8510   45.7790 C   0  0  0  0  0  0  0  0  0  0  0  0
   59.0410   33.2970   47.0750 C   0  0  0  0  0  0  0  0  0  0  0  0
   58.5560   34.3270   47.6210 O   0  0  0  0  0  0  0  0  0  0  0  0
   60.1720   32.6090   47.6740 N   0  0  0  0  0  0  0  0  0  0  0  0
   60.7000   31.5050   46.8220 C   0  0  0  0  0  0  0  0  0  0  0  0
   60.4000   30.0990   47.3790 C   0  0  0  0  0  0  0  0  0  0  0  0
   59.0510   30.0280   47.9460 N   0  0  0  0  0  0  0  0  0  0  0  0
   58.8510   30.9790   49.0550 C   0  0  0  0  0  0  0  0  0  0  0  0
   59.8380   32.1670   49.0430 C   0  0  0  0  0  0  0  0  0  0  0  0
   58.4970   33.6380   44.6250 C   0  0  0  0  0  0  0  0  0  0  0  0
   57.7890   32.7520   43.3800 S   0  0  0  0  0  0  0  0  0  0  0  0
   57.1620   28.1780   45.3050 C   0  0  0  0  0  0  0  0  0  0  0  0
   58.5630   28.2260   45.2510 C   0  0  0  0  0  0  0  0  0  0  0  0
   59.3200   27.1540   45.7240 C   0  0  0  0  0  0  0  0  0  0  0  0
   58.6690   26.0420   46.2650 C   0  0  0  0  0  0  0  0  0  0  0  0
   59.3360   25.0650   46.6930 O   0  0  0  0  0  0  0  0  0  0  0  0
   57.3110   26.0160   46.3320 N   0  0  0  0  0  0  0  0  0  0  0  0
   56.5490   27.0450   45.8740 C   0  0  0  0  0  0  0  0  0  0  0  0
   55.1660   26.9680   45.9900 O   0  0  0  0  0  0  0  0  0  0  0  0
   60.9510   33.3050   47.7670 H   0  0  0  0  0  0  0  0  0  0  0  0
   60.2454   31.5880   45.8238 H   0  0  0  0  0  0  0  0  0  0  0  0
   61.7942   31.6143   46.7934 H   0  0  0  0  0  0  0  0  0  0  0  0
   60.4853   29.3650   46.5642 H   0  0  0  0  0  0  0  0  0  0  0  0
   61.1243   29.8799   48.1774 H   0  0  0  0  0  0  0  0  0  0  0  0
   58.3580   30.2230   47.1880 H   0  0  0  0  0  0  0  0  0  0  0  0
   57.8278   31.3775   48.9899 H   0  0  0  0  0  0  0  0  0  0  0  0
   59.0282   30.4246   49.9884 H   0  0  0  0  0  0  0  0  0  0  0  0
   59.3832   33.0093   49.5849 H   0  0  0  0  0  0  0  0  0  0  0  0
   60.7694   31.8335   49.5239 H   0  0  0  0  0  0  0  0  0  0  0  0
   58.8972   34.6594   44.5435 H   0  0  0  0  0  0  0  0  0  0  0  0
   59.0659   29.1113   44.8346 H   0  0  0  0  0  0  0  0  0  0  0  0
   60.4184   27.1837   45.6717 H   0  0  0  0  0  0  0  0  0  0  0  0
  1  2  2  0
  2  3  1  0
  3  4  2  3
  4  5  1  0
  5  6  1  0
  6  7  1  0
  7  8  2  0
  7  9  1  0
  9 10  1  0
 10 11  1  0
 11 12  1  0
 12 13  1  0
 13 14  1  0
  6 15  2  0
 15 16  1  0
  2 17  1  0
 17 18  1  0
 18 19  2  0
 19 20  1  0
 20 21  2  0
 20 22  1  0
 22 23  1  0
 23 24  1  0
 16  4  1  0
 23 17  2  0
 14  9  1  0
  9 25  1  0
 10 26  1  0
 10 27  1  0
 11 28  1  0
 11 29  1  0
 12 30  1  0
 13 31  1  0
 13 32  1  0
 14 33  1  0
 14 34  1  0
 15 35  1  0
 18 36  1  0
 19 37  1  0
M  CHG  4   5  -1   9   1  22  -1  24  -1
M  END
>  <UniqueID>  (12) 
12

>  <SMILES>  (12) 
O=C(N=c1[n-]c(C(=O)[NH+]2CCNCC2)cs1)c1ccc(=O)[n-]c1[O-]

>  <Energy>  (12) 
88.57872764277562

>  <Genealogy>  (12) 
O=C(N=c1[n-]c(C(=O)[NH+]2CCNCC2)cs1)c1ccc(=O)[n-]c1[O-] (protonated)
O=C(N=c1[n-]c(C(=O)[NH+]2CCNCC2)cs1)c1ccc(=O)[n-]c1[O-] (3D coordinates assigned)
O=C(N=c1[n-]c(C(=O)[NH+]2CCNCC2)cs1)c1ccc(=O)[n-]c1[O-] (nonaromatic ring conformer: 88.57872764277562 kcal/mol)

>  <smiles>  (12) 
O=C(N=c1[nH]c(C(=O)N2CCNCC2)cs1)c1ccc(=O)[nH]c1O

>  <score_type>  (12) 
oracle

>  <origin>  (12) 
adg

>  <m_score__min__energy>  (12) 
-13.94

>  <m_primary>  (12) 
energy

$$$$
12:0
     RDKit          3D

 48 51  0  0  0  0  0  0  0  0999 V2000
   61.2090   34.1810   49.6920 C   0  0  0  0  0  0  0  0  0  0  0  0
   60.3640   33.8060   48.5130 C   0  0  0  0  0  0  0  0  0  0  0  0
   60.7970   34.1110   47.2140 C   0  0  0  0  0  0  0  0  0  0  0  0
   60.0270   33.7400   46.1070 C   0  0  0  0  0  0  0  0  0  0  0  0
   58.8200   33.0510   46.2880 C   0  0  0  0  0  0  0  0  0  0  0  0
   57.8210   32.6540   44.8960 S   0  0  0  0  0  0  0  0  0  0  0  0
   56.3700   32.8010   45.2590 O   0  0  0  0  0  0  0  0  0  0  0  0
   58.1280   33.5870   43.7580 O   0  0  0  0  0  0  0  0  0  0  0  0
   58.1510   31.0490   44.4160 O   0  0  0  0  0  0  0  0  0  0  0  0
   57.5570   29.9860   45.0640 N   0  0  0  0  0  0  0  0  0  0  0  0
   58.0760   29.2070   46.0320 C   0  0  0  0  0  0  0  0  0  0  0  0
   59.2760   29.5050   46.8330 C   0  0  0  0  0  0  0  0  0  0  0  0
   60.3650   30.2040   46.2940 C   0  0  0  0  0  0  0  0  0  0  0  0
   61.4480   30.4930   47.1240 C   0  0  0  0  0  0  0  0  0  0  0  0
   61.4280   30.1150   48.4280 N   0  0  0  0  0  0  0  0  0  0  0  0
   60.3570   29.4480   48.9390 C   0  0  0  0  0  0  0  0  0  0  0  0
   60.3110   28.9980   50.6750 S   0  0  0  0  0  0  0  0  0  0  0  0
   60.6590   30.6890   51.2770 C   0  0  0  0  0  0  0  0  0  0  0  0
   59.3900   31.3940   51.6790 C   0  0  0  0  0  0  0  0  0  0  0  0
   58.1440   30.7860   51.4540 C   0  0  0  0  0  0  0  0  0  0  0  0
   56.9620   31.4620   51.7750 C   0  0  0  0  0  0  0  0  0  0  0  0
   57.0160   32.7470   52.3210 C   0  0  0  0  0  0  0  0  0  0  0  0
   58.2530   33.3590   52.5480 C   0  0  0  0  0  0  0  0  0  0  0  0
   59.4360   32.6860   52.2310 C   0  0  0  0  0  0  0  0  0  0  0  0
   59.2980   29.1500   48.1430 N   0  0  0  0  0  0  0  0  0  0  0  0
   57.3410   28.0870   46.1940 N   0  0  0  0  0  0  0  0  0  0  0  0
   56.3460   28.1390   45.3170 N   0  0  0  0  0  0  0  0  0  0  0  0
   56.4920   29.2900   44.6360 C   0  0  0  0  0  0  0  0  0  0  0  0
   55.5540   29.7190   43.3670 S   0  0  0  0  0  0  0  0  0  0  0  0
   58.3890   32.7360   47.5840 C   0  0  0  0  0  0  0  0  0  0  0  0
   59.1620   33.1010   48.6910 C   0  0  0  0  0  0  0  0  0  0  0  0
   60.6698   33.9417   50.6205 H   0  0  0  0  0  0  0  0  0  0  0  0
   62.1531   33.6174   49.6606 H   0  0  0  0  0  0  0  0  0  0  0  0
   61.4245   35.2592   49.6606 H   0  0  0  0  0  0  0  0  0  0  0  0
   61.7472   34.6448   47.0653 H   0  0  0  0  0  0  0  0  0  0  0  0
   60.3695   33.9895   45.0919 H   0  0  0  0  0  0  0  0  0  0  0  0
   60.3654   30.5177   45.2397 H   0  0  0  0  0  0  0  0  0  0  0  0
   62.3204   31.0284   46.7213 H   0  0  0  0  0  0  0  0  0  0  0  0
   62.2390   30.3500   49.0440 H   0  0  0  0  0  0  0  0  0  0  0  0
   61.3282   30.6295   52.1480 H   0  0  0  0  0  0  0  0  0  0  0  0
   61.1322   31.2587   50.4637 H   0  0  0  0  0  0  0  0  0  0  0  0
   58.0974   29.7747   51.0238 H   0  0  0  0  0  0  0  0  0  0  0  0
   55.9887   30.9812   51.5973 H   0  0  0  0  0  0  0  0  0  0  0  0
   56.0856   33.2773   52.5723 H   0  0  0  0  0  0  0  0  0  0  0  0
   58.2947   34.3712   52.9765 H   0  0  0  0  0  0  0  0  0  0  0  0
   60.4071   33.1692   52.4142 H   0  0  0  0  0  0  0  0  0  0  0  0
   57.4397   32.2000   47.7309 H   0  0  0  0  0  0  0  0  0  0  0  0
   58.8276   32.8351   49.7046 H   0  0  0  0  0  0  0  0  0  0  0  0
  1  2  1  0
  2  3  2  0
  3  4  1  0
  4  5  2  0
  5  6  1  0
  6  7  2  0
  6  8  2  0
  6  9  1  0
  9 10  1  0
 10 11  1  0
 11 12  1  0
 12 13  2  0
 13 14  1  0
 14 15  2  0
 15 16  1  0
 16 17  1  0
 17 18  1  0
 18 19  1  0
 19 20  2  0
 20 21  1  0
 21 22  2  0
 22 23  1  0
 23 24  2  0
 16 25  2  0
 11 26  2  0
 26 27  1  0
 27 28  1  0
 28 29  2  0
  5 30  1  0
 30 31  2  0
 31  2  1  0
 28 10  1  0
 25 12  1  0
 24 19  1  0
  1 32  1  0
  1 33  1  0
  1 34  1  0
  3 35  1  0
  4 36  1  0
 13 37  1  0
 14 38  1  0
 15 39  1  0
 18 40  1  0
 18 41  1  0
 20 42  1  0
 21 43  1  0
 22 44  1  0
 23 45  1  0
 24 46  1  0
 30 47  1  0
 31 48  1  0
M  CHG  2  15   1  27  -1
M  END
>  <UniqueID>  (13) 
13

>  <SMILES>  (13) 
Cc1ccc(S(=O)(=O)On2c(-c3cc[nH+]c(SCc4ccccc4)n3)n[n-]c2=S)cc1

>  <Energy>  (13) 
89.1237079915691

>  <Genealogy>  (13) 
Cc1ccc(S(=O)(=O)On2c(-c3cc[nH+]c(SCc4ccccc4)n3)n[n-]c2=S)cc1 (protonated)
Cc1ccc(S(=O)(=O)On2c(-c3cc[nH+]c(SCc4ccccc4)n3)n[n-]c2=S)cc1 (3D coordinates assigned)
Cc1ccc(S(=O)(=O)On2c(-c3cc[nH+]c(SCc4ccccc4)n3)n[n-]c2=S)cc1 (optimized conformer: 89.1237079915691 kcal/mol)

>  <smiles>  (13) 
Cc1ccc(S(=O)(=O)On2c(-c3ccnc(SCc4ccccc4)n3)n[nH]c2=S)cc1

>  <score_type>  (13) 
oracle

>  <origin>  (13) 
adg

>  <m_score__min__energy>  (13) 
-9.3599999999999994

>  <m_primary>  (13) 
energy

$$$$
13:0
     RDKit          3D

 53 56  0  0  0  0  0  0  0  0999 V2000
   61.2880   30.2220   46.4530 O   0  0  0  0  0  0  0  0  0  0  0  0
   60.3720   30.0480   47.2440 C   0  0  0  0  0  0  0  0  0  0  0  0
   60.2870   30.9380   48.4550 C   0  0  0  0  0  0  0  0  0  0  0  0
   58.5860   31.5740   48.6500 S   0  0  0  0  0  0  0  0  0  0  0  0
   58.3510   31.9560   46.9040 C   0  0  0  0  0  0  0  0  0  0  0  0
   57.7650   31.0040   46.1340 N   0  0  0  0  0  0  0  0  0  0  0  0
   57.5630   31.1820   44.8090 C   0  0  0  0  0  0  0  0  0  0  0  0
   56.9740   30.1650   44.0480 C   0  0  0  0  0  0  0  0  0  0  0  0
   56.7740   30.3450   42.6770 C   0  0  0  0  0  0  0  0  0  0  0  0
   57.1580   31.5410   42.0630 C   0  0  0  0  0  0  0  0  0  0  0  0
   57.7440   32.5620   42.8200 C   0  0  0  0  0  0  0  0  0  0  0  0
   57.9500   32.3880   44.2010 C   0  0  0  0  0  0  0  0  0  0  0  0
   58.5290   33.3820   45.0080 C   0  0  0  0  0  0  0  0  0  0  0  0
   58.8650   34.4830   44.4860 O   0  0  0  0  0  0  0  0  0  0  0  0
   58.7270   33.1610   46.3530 N   0  0  0  0  0  0  0  0  0  0  0  0
   59.3300   34.2230   47.1890 C   0  0  0  0  0  0  0  0  0  0  0  0
   60.7490   34.5860   46.7260 C   0  0  0  0  0  0  0  0  0  0  0  0
   61.8030   33.8180   47.4800 C   0  0  0  0  0  0  0  0  0  0  0  0
   61.8660   33.8960   48.8810 C   0  0  0  0  0  0  0  0  0  0  0  0
   62.8730   33.2210   49.5790 C   0  0  0  0  0  0  0  0  0  0  0  0
   63.8250   32.4710   48.8840 C   0  0  0  0  0  0  0  0  0  0  0  0
   63.7730   32.3930   47.4900 C   0  0  0  0  0  0  0  0  0  0  0  0
   62.7670   33.0640   46.7890 C   0  0  0  0  0  0  0  0  0  0  0  0
   59.3630   29.0280   46.9960 N   0  0  0  0  0  0  0  0  0  0  0  0
   59.0400   28.2680   48.2240 C   0  0  0  0  0  0  0  0  0  0  0  0
   60.1250   27.2230   48.5880 C   0  0  0  0  0  0  0  0  0  0  0  0
   61.0700   27.0140   47.5540 O   0  0  0  0  0  0  0  0  0  0  0  0
   60.4000   26.8300   46.3290 C   0  0  0  0  0  0  0  0  0  0  0  0
   59.7510   28.1460   45.8670 C   0  0  0  0  0  0  0  0  0  0  0  0
   60.5646   30.3618   49.3499 H   0  0  0  0  0  0  0  0  0  0  0  0
   60.9755   31.7862   48.3269 H   0  0  0  0  0  0  0  0  0  0  0  0
   56.6687   29.2243   44.5295 H   0  0  0  0  0  0  0  0  0  0  0  0
   56.3136   29.5443   42.0796 H   0  0  0  0  0  0  0  0  0  0  0  0
   56.9993   31.6797   40.9834 H   0  0  0  0  0  0  0  0  0  0  0  0
   58.0441   33.5023   42.3344 H   0  0  0  0  0  0  0  0  0  0  0  0
   58.6976   35.1212   47.1323 H   0  0  0  0  0  0  0  0  0  0  0  0
   59.3959   33.8462   48.2204 H   0  0  0  0  0  0  0  0  0  0  0  0
   60.8420   34.3576   45.6540 H   0  0  0  0  0  0  0  0  0  0  0  0
   60.9057   35.6574   46.9199 H   0  0  0  0  0  0  0  0  0  0  0  0
   61.1211   34.4898   49.4311 H   0  0  0  0  0  0  0  0  0  0  0  0
   62.9153   33.2808   50.6766 H   0  0  0  0  0  0  0  0  0  0  0  0
   64.6163   31.9414   49.4348 H   0  0  0  0  0  0  0  0  0  0  0  0
   64.5241   31.8033   46.9439 H   0  0  0  0  0  0  0  0  0  0  0  0
   62.7296   33.0016   45.6914 H   0  0  0  0  0  0  0  0  0  0  0  0
   58.4800   29.5150   46.7140 H   0  0  0  0  0  0  0  0  0  0  0  0
   58.9404   28.9765   49.0595 H   0  0  0  0  0  0  0  0  0  0  0  0
   58.1038   27.7214   48.0378 H   0  0  0  0  0  0  0  0  0  0  0  0
   60.6592   27.5718   49.4841 H   0  0  0  0  0  0  0  0  0  0  0  0
   59.6112   26.2654   48.7586 H   0  0  0  0  0  0  0  0  0  0  0  0
   61.1211   26.4955   45.5687 H   0  0  0  0  0  0  0  0  0  0  0  0
   59.6130   26.0734   46.4640 H   0  0  0  0  0  0  0  0  0  0  0  0
   60.4675   28.6858   45.2305 H   0  0  0  0  0  0  0  0  0  0  0  0
   58.8320   27.8862   45.3211 H   0  0  0  0  0  0  0  0  0  0  0  0
  1  2  2  0
  2  3  1  0
  3  4  1  0
  4  5  1  0
  5  6  2  0
  6  7  1  0
  7  8  2  0
  8  9  1  0
  9 10  2  0
 10 11  1  0
 11 12  2  0
 12 13  1  0
 13 14  2  0
 13 15  1  0
 15 16  1  0
 16 17  1  0
 17 18  1  0
 18 19  2  0
 19 20  1  0
 20 21  2  0
 21 22  1  0
 22 23  2  0
  2 24  1  0
 24 25  1  0
 25 26  1  0
 26 27  1  0
 27 28  1  0
 28 29  1  0
 15  5  1  0
 23 18  1  0
 29 24  1  0
 12  7  1  0
  3 30  1  0
  3 31  1  0
  8 32  1  0
  9 33  1  0
 10 34  1  0
 11 35  1  0
 16 36  1  0
 16 37  1  0
 17 38  1  0
 17 39  1  0
 19 40  1  0
 20 41  1  0
 21 42  1  0
 22 43  1  0
 23 44  1  0
 24 45  1  0
 25 46  1  0
 25 47  1  0
 26 48  1  0
 26 49  1  0
 28 50  1  0
 28 51  1  0
 29 52  1  0
 29 53  1  0
M  CHG  1  24   1
M  END
>  <UniqueID>  (14) 
14

>  <SMILES>  (14) 
O=C(CSc1nc2ccccc2c(=O)n1CCc1ccccc1)[NH+]1CCOCC1

>  <Energy>  (14) 
68.14446767525034

>  <Genealogy>  (14) 
O=C(CSc1nc2ccccc2c(=O)n1CCc1ccccc1)[NH+]1CCOCC1 (protonated)
O=C(CSc1nc2ccccc2c(=O)n1CCc1ccccc1)[NH+]1CCOCC1 (3D coordinates assigned)
O=C(CSc1nc2ccccc2c(=O)n1CCc1ccccc1)[NH+]1CCOCC1 (nonaromatic ring conformer: 68.14446767525034 kcal/mol)

>  <smiles>  (14) 
O=C(CSc1nc2ccccc2c(=O)n1CCc1ccccc1)N1CCOCC1

>  <score_type>  (14) 
oracle

>  <origin>  (14) 
adg

>  <m_score__min__energy>  (14) 
-7.1699999999999999

>  <m_primary>  (14) 
energy

$$$$
14:0
     RDKit          3D

 46 48  0  0  0  0  0  0  0  0999 V2000
   58.8440   34.2620   51.7040 O   0  0  0  0  0  0  0  0  0  0  0  0
   59.5630   33.4170   50.6880 S   0  0  0  0  0  0  0  0  0  0  0  0
   60.7240   32.7350   51.3570 O   0  0  0  0  0  0  0  0  0  0  0  0
   58.4120   32.2190   50.0150 C   0  0  0  0  0  0  0  0  0  0  0  0
   59.0550   30.8440   49.7860 C   0  0  0  0  0  0  0  0  0  0  0  0
   60.3970   30.9320   49.0500 C   0  0  0  0  0  0  0  0  0  0  0  0
   60.3600   30.1100   47.8430 N   0  0  0  0  0  0  0  0  0  0  0  0
   61.0170   30.3330   46.6960 C   0  0  0  0  0  0  0  0  0  0  0  0
   60.6390   29.3610   45.7980 C   0  0  0  0  0  0  0  0  0  0  0  0
   59.7390   28.5380   46.3740 N   0  0  0  0  0  0  0  0  0  0  0  0
   59.5880   29.0290   47.6220 C   0  0  0  0  0  0  0  0  0  0  0  0
   60.1430   34.4530   49.4230 N   0  0  0  0  0  0  0  0  0  0  0  0
   61.1910   34.0710   48.5150 C   0  0  0  0  0  0  0  0  0  0  0  0
   62.4290   33.6260   49.0140 C   0  0  0  0  0  0  0  0  0  0  0  0
   63.4660   33.2830   48.1450 C   0  0  0  0  0  0  0  0  0  0  0  0
   63.2860   33.3860   46.7670 C   0  0  0  0  0  0  0  0  0  0  0  0
   62.0660   33.8260   46.2530 C   0  0  0  0  0  0  0  0  0  0  0  0
   61.0100   34.1680   47.1130 C   0  0  0  0  0  0  0  0  0  0  0  0
   59.4700   34.6850   46.4090 S   0  0  0  0  0  0  0  0  0  0  0  0
   58.5210   35.1280   47.4870 O   0  0  0  0  0  0  0  0  0  0  0  0
   59.7220   35.8480   45.4910 O   0  0  0  0  0  0  0  0  0  0  0  0
   58.7390   33.3450   45.5290 C   0  0  0  0  0  0  0  0  0  0  0  0
   58.5240   33.4330   44.1450 C   0  0  0  0  0  0  0  0  0  0  0  0
   57.9470   32.3610   43.4550 C   0  0  0  0  0  0  0  0  0  0  0  0
   57.5820   31.2000   44.1430 C   0  0  0  0  0  0  0  0  0  0  0  0
   57.7910   31.1110   45.5220 C   0  0  0  0  0  0  0  0  0  0  0  0
   58.3670   32.1800   46.2150 C   0  0  0  0  0  0  0  0  0  0  0  0
   57.5738   32.1029   50.7178 H   0  0  0  0  0  0  0  0  0  0  0  0
   58.0744   32.5949   49.0379 H   0  0  0  0  0  0  0  0  0  0  0  0
   59.2204   30.3661   50.7628 H   0  0  0  0  0  0  0  0  0  0  0  0
   58.3693   30.2580   49.1564 H   0  0  0  0  0  0  0  0  0  0  0  0
   60.5922   31.9783   48.7723 H   0  0  0  0  0  0  0  0  0  0  0  0
   61.1961   30.5662   49.7115 H   0  0  0  0  0  0  0  0  0  0  0  0
   61.7311   31.1479   46.5063 H   0  0  0  0  0  0  0  0  0  0  0  0
   61.0137   29.2693   44.7678 H   0  0  0  0  0  0  0  0  0  0  0  0
   58.9113   28.5955   48.3732 H   0  0  0  0  0  0  0  0  0  0  0  0
   59.6300   35.3490   49.2810 H   0  0  0  0  0  0  0  0  0  0  0  0
   62.5812   33.5476   50.1006 H   0  0  0  0  0  0  0  0  0  0  0  0
   64.4268   32.9308   48.5485 H   0  0  0  0  0  0  0  0  0  0  0  0
   64.1064   33.1202   46.0841 H   0  0  0  0  0  0  0  0  0  0  0  0
   61.9301   33.9057   45.1643 H   0  0  0  0  0  0  0  0  0  0  0  0
   58.8094   34.3459   43.6018 H   0  0  0  0  0  0  0  0  0  0  0  0
   57.7804   32.4319   42.3700 H   0  0  0  0  0  0  0  0  0  0  0  0
   57.1306   30.3570   43.5993 H   0  0  0  0  0  0  0  0  0  0  0  0
   57.5017   30.1981   46.0632 H   0  0  0  0  0  0  0  0  0  0  0  0
   58.5287   32.1070   47.3006 H   0  0  0  0  0  0  0  0  0  0  0  0
  1  2  2  0
  2  3  2  0
  2  4  1  0
  4  5  1  0
  5  6  1  0
  6  7  1  0
  7  8  1  0
  8  9  2  0
  9 10  1  0
 10 11  2  0
  2 12  1  0
 12 13  1  0
 13 14  2  0
 14 15  1  0
 15 16  2  0
 16 17  1  0
 17 18  2  0
 18 19  1  0
 19 20  2  0
 19 21  2  0
 19 22  1  0
 22 23  2  0
 23 24  1  0
 24 25  2  0
 25 26  1  0
 26 27  2  0
 11  7  1  0
 18 13  1  0
 27 22  1  0
  4 28  1  0
  4 29  1  0
  5 30  1  0
  5 31  1  0
  6 32  1  0
  6 33  1  0
  8 34  1  0
  9 35  1  0
 11 36  1  0
 12 37  1  0
 14 38  1  0
 15 39  1  0
 16 40  1  0
 17 41  1  0
 23 42  1  0
 24 43  1  0
 25 44  1  0
 26 45  1  0
 27 46  1  0
M  END
>  <UniqueID>  (15) 
15

>  <SMILES>  (15) 
O=S(=O)(CCCn1ccnc1)Nc1ccccc1S(=O)(=O)c1ccccc1

>  <Energy>  (15) 
76.43866616743134

>  <Genealogy>  (15) 
O=S(=O)(CCCn1ccnc1)Nc1ccccc1S(=O)(=O)c1ccccc1 (3D coordinates assigned)
O=S(=O)(CCCn1ccnc1)Nc1ccccc1S(=O)(=O)c1ccccc1 (optimized conformer: 76.43866616743134 kcal/mol)

>  <smiles>  (15) 
O=S(=O)(CCCn1ccnc1)Nc1ccccc1S(=O)(=O)c1ccccc1

>  <score_type>  (15) 
oracle

>  <origin>  (15) 
adg

>  <m_score__min__energy>  (15) 
-10.17

>  <m_primary>  (15) 
energy

$$$$
15:0
     RDKit          3D

 55 58  0  0  0  0  0  0  0  0999 V2000
   57.4890   22.1190   46.5770 H   0  0  0  0  0  0  0  0  0  0  0  0
   57.2800   22.9230   47.2120 N   0  0  0  0  0  0  0  0  0  0  0  0
   57.4100   24.1620   46.8480 C   0  0  0  0  0  0  0  0  0  0  0  0
   56.3890   25.0350   47.0780 N   0  0  0  0  0  0  0  0  0  0  0  0
   56.4650   26.3460   46.7200 C   0  0  0  0  0  0  0  0  0  0  0  0
   55.6199   27.0206   46.9215 H   0  0  0  0  0  0  0  0  0  0  0  0
   57.6170   26.8360   46.0960 C   0  0  0  0  0  0  0  0  0  0  0  0
   57.7150   28.2250   45.7290 C   0  0  0  0  0  0  0  0  0  0  0  0
   57.7970   29.3910   45.4380 C   0  0  0  0  0  0  0  0  0  0  0  0
   57.8870   30.7930   45.1090 C   0  0  0  0  0  0  0  0  0  0  0  0
   58.4500   31.6750   46.0400 C   0  0  0  0  0  0  0  0  0  0  0  0
   58.8637   31.2845   46.9815 H   0  0  0  0  0  0  0  0  0  0  0  0
   58.4900   33.0540   45.7800 C   0  0  0  0  0  0  0  0  0  0  0  0
   59.0710   34.0030   46.7590 C   0  0  0  0  0  0  0  0  0  0  0  0
   58.8220   35.2360   46.6510 O   0  0  0  0  0  0  0  0  0  0  0  0
   59.9160   33.5470   47.8350 N   0  0  0  0  0  0  0  0  0  0  0  0
   61.0750   34.3550   48.2340 C   0  0  0  0  0  0  0  0  0  0  0  0
   61.3662   35.0115   47.4008 H   0  0  0  0  0  0  0  0  0  0  0  0
   60.8080   34.9633   49.1107 H   0  0  0  0  0  0  0  0  0  0  0  0
   62.2500   33.4390   48.5940 C   0  0  0  0  0  0  0  0  0  0  0  0
   62.7044   33.0616   47.6661 H   0  0  0  0  0  0  0  0  0  0  0  0
   62.9738   34.0255   49.1789 H   0  0  0  0  0  0  0  0  0  0  0  0
   61.8200   32.2940   49.4140 N   0  0  0  0  0  0  0  0  0  0  0  0
   62.7750   31.2770   49.7960 C   0  0  0  0  0  0  0  0  0  0  0  0
   62.3700   30.1350   50.1570 O   0  0  0  0  0  0  0  0  0  0  0  0
   64.2490   31.5860   49.8660 C   0  0  0  0  0  0  0  0  0  0  0  0
   64.4552   31.3625   48.8089 H   0  0  0  0  0  0  0  0  0  0  0  0
   64.9440   31.2540   51.1850 C   0  0  0  0  0  0  0  0  0  0  0  0
   64.3909   30.7373   51.9831 H   0  0  0  0  0  0  0  0  0  0  0  0
   65.8583   30.7113   51.4670 H   0  0  0  0  0  0  0  0  0  0  0  0
   64.6130   32.7010   50.8430 C   0  0  0  0  0  0  0  0  0  0  0  0
   63.8210   33.2289   51.3945 H   0  0  0  0  0  0  0  0  0  0  0  0
   65.1898   33.6353   50.7762 H   0  0  0  0  0  0  0  0  0  0  0  0
   60.4240   32.2170   49.8690 C   0  0  0  0  0  0  0  0  0  0  0  0
   60.2393   31.2281   50.3140 H   0  0  0  0  0  0  0  0  0  0  0  0
   60.2433   33.0013   50.6188 H   0  0  0  0  0  0  0  0  0  0  0  0
   59.4780   32.4250   48.6830 C   0  0  0  0  0  0  0  0  0  0  0  0
   59.4558   31.5067   48.0778 H   0  0  0  0  0  0  0  0  0  0  0  0
   58.4774   32.6586   49.0758 H   0  0  0  0  0  0  0  0  0  0  0  0
   57.9980   33.5150   44.5510 C   0  0  0  0  0  0  0  0  0  0  0  0
   58.0345   34.5893   44.3176 H   0  0  0  0  0  0  0  0  0  0  0  0
   57.4750   32.6440   43.6430 N   0  0  0  0  0  0  0  0  0  0  0  0
   57.1100   33.0300   42.7430 H   0  0  0  0  0  0  0  0  0  0  0  0
   57.4050   31.3010   43.8840 C   0  0  0  0  0  0  0  0  0  0  0  0
   56.7810   30.3990   42.8440 C   0  0  0  0  0  0  0  0  0  0  0  0
   56.5142   30.9978   41.9607 H   0  0  0  0  0  0  0  0  0  0  0  0
   57.5073   29.6187   42.5726 H   0  0  0  0  0  0  0  0  0  0  0  0
   55.5240   29.7280   43.3920 C   0  0  0  0  0  0  0  0  0  0  0  0
   55.5505   29.7422   44.4916 H   0  0  0  0  0  0  0  0  0  0  0  0
   54.6349   30.2715   43.0396 H   0  0  0  0  0  0  0  0  0  0  0  0
   55.4808   28.6869   43.0396 H   0  0  0  0  0  0  0  0  0  0  0  0
   58.6830   25.9630   45.8480 C   0  0  0  0  0  0  0  0  0  0  0  0
   59.5959   26.3331   45.3584 H   0  0  0  0  0  0  0  0  0  0  0  0
   58.5850   24.6190   46.2240 C   0  0  0  0  0  0  0  0  0  0  0  0
   59.6250   23.7770   45.9820 F   0  0  0  0  0  0  0  0  0  0  0  0
  1  2  1  0
  2  3  2  0
  3  4  1  0
  4  5  1  0
  5  6  1  0
  5  7  2  0
  7  8  1  0
  8  9  3  0
  9 10  1  0
 10 11  2  0
 11 12  1  0
 11 13  1  0
 13 14  1  0
 14 15  2  0
 14 16  1  0
 16 17  1  0
 17 18  1  0
 17 19  1  0
 17 20  1  0
 20 21  1  0
 20 22  1  0
 20 23  1  0
 23 24  1  0
 24 25  2  0
 24 26  1  0
 26 27  1  0
 26 28  1  0
 28 29  1  0
 28 30  1  0
 28 31  1  0
 31 32  1  0
 31 33  1  0
 23 34  1  0
 34 35  1  0
 34 36  1  0
 34 37  1  0
 37 38  1  0
 37 39  1  0
 13 40  2  0
 40 41  1  0
 40 42  1  0
 42 43  1  0
 42 44  2  0
 44 45  1  0
 45 46  1  0
 45 47  1  0
 45 48  1  0
 48 49  1  0
 48 50  1  0
 48 51  1  0
  7 52  1  0
 52 53  1  0
 52 54  2  0
 54 55  1  0
 54  3  1  0
 44 10  1  0
 37 16  1  0
 31 26  1  0
M  CHG  2   4  -1  42   1
M  END
>  <UniqueID>  (16) 
16

>  <SMILES>  (16) 
[H]/N=c1/[n-]cc(C#Cc2cc(C(=O)N3CCN(C(=O)C4CC4)CC3)c[nH+]c2CC)cc1F

>  <Energy>  (16) 
322.39006896576234

>  <Genealogy>  (16) 
CCc1[nH+]cc(C(=O)N2CCN(C(=O)C3CC3)CC2)cc1C#Cc1c[n-]c(=N)c(F)c1 (protonated)
[H]/N=c1/[n-]cc(C#Cc2cc(C(=O)N3CCN(C(=O)C4CC4)CC3)c[nH+]c2CC)cc1F (cis-trans isomerization)
[H]/N=c1/[n-]cc(C#Cc2cc(C(=O)N3CCN(C(=O)C4CC4)CC3)c[nH+]c2CC)cc1F (3D coordinates assigned)
[H]/N=c1/[n-]cc(C#Cc2cc(C(=O)N3CCN(C(=O)C4CC4)CC3)c[nH+]c2CC)cc1F (nonaromatic ring conformer: 322.39006896576234 kcal/mol)

>  <smiles>  (16) 
CCc1ncc(C(=O)N2CCN(C(=O)C3CC3)CC2)cc1C#Cc1c[nH]c(=N)c(F)c1

>  <score_type>  (16) 
oracle

>  <origin>  (16) 
adg

>  <m_score__min__energy>  (16) 
-7.7999999999999998

>  <m_primary>  (16) 
energy

$$$$
16:0
     RDKit          3D

 72 75  0  0  0  0  0  0  0  0999 V2000
   56.9230   30.5810   43.8760 C   0  0  0  0  0  0  0  0  0  0  0  0
   58.4310   30.4940   44.1220 C   0  0  0  0  0  0  0  0  0  0  0  0
   58.9300   29.0940   44.1830 N   0  0  0  0  0  0  0  0  0  0  0  0
   60.3660   28.9900   44.5420 C   0  0  0  0  0  0  0  0  0  0  0  0
   60.6480   29.5490   45.9440 C   0  0  0  0  0  0  0  0  0  0  0  0
   59.5490   29.2270   46.8570 N   0  0  0  0  0  0  0  0  0  0  0  0
   59.3660   29.9900   48.0590 C   0  0  0  0  0  0  0  0  0  0  0  0
   59.6630   29.4050   49.2980 C   0  0  0  0  0  0  0  0  0  0  0  0
   59.4550   30.1140   50.4820 C   0  0  0  0  0  0  0  0  0  0  0  0
   58.9750   31.4280   50.4400 C   0  0  0  0  0  0  0  0  0  0  0  0
   58.6460   32.3100   51.9330 S   0  0  0  0  0  0  0  0  0  0  0  0
   58.5240   33.7760   51.6220 O   0  0  0  0  0  0  0  0  0  0  0  0
   59.7980   32.1290   52.8850 O   0  0  0  0  0  0  0  0  0  0  0  0
   57.1700   31.7600   52.6860 N   0  0  0  0  0  0  0  0  0  0  0  0
   57.4630   30.7520   53.7200 C   0  0  0  0  0  0  0  0  0  0  0  0
   56.1660   30.0610   54.1930 C   0  0  0  0  0  0  0  0  0  0  0  0
   55.0240   30.7840   53.7750 O   0  0  0  0  0  0  0  0  0  0  0  0
   54.9340   30.7770   52.3590 C   0  0  0  0  0  0  0  0  0  0  0  0
   56.2560   31.1970   51.6820 C   0  0  0  0  0  0  0  0  0  0  0  0
   58.7200   32.0320   49.2040 C   0  0  0  0  0  0  0  0  0  0  0  0
   58.8740   31.3080   48.0090 C   0  0  0  0  0  0  0  0  0  0  0  0
   58.6270   31.9270   46.7380 N   0  0  0  0  0  0  0  0  0  0  0  0
   57.7510   33.0340   46.4830 C   0  0  0  0  0  0  0  0  0  0  0  0
   57.0110   33.4470   47.4130 O   0  0  0  0  0  0  0  0  0  0  0  0
   57.7530   33.7700   45.1660 C   0  0  0  0  0  0  0  0  0  0  0  0
   59.0220   34.6120   44.9800 C   0  0  0  0  0  0  0  0  0  0  0  0
   59.6580   35.0260   46.3110 C   0  0  0  0  0  0  0  0  0  0  0  0
   61.0090   34.5730   46.3700 O   0  0  0  0  0  0  0  0  0  0  0  0
   61.5520   33.8350   47.4300 C   0  0  0  0  0  0  0  0  0  0  0  0
   61.3100   34.1610   48.7800 C   0  0  0  0  0  0  0  0  0  0  0  0
   61.9030   33.4120   49.8020 C   0  0  0  0  0  0  0  0  0  0  0  0
   62.7330   32.3310   49.4880 C   0  0  0  0  0  0  0  0  0  0  0  0
   62.9600   31.9900   48.1520 C   0  0  0  0  0  0  0  0  0  0  0  0
   62.3690   32.7370   47.1270 C   0  0  0  0  0  0  0  0  0  0  0  0
   58.6290   28.1350   46.5300 C   0  0  0  0  0  0  0  0  0  0  0  0
   58.0850   28.2630   45.0880 C   0  0  0  0  0  0  0  0  0  0  0  0
   56.3953   30.6114   44.8407 H   0  0  0  0  0  0  0  0  0  0  0  0
   56.6966   31.4937   43.3053 H   0  0  0  0  0  0  0  0  0  0  0  0
   56.5932   29.7004   43.3053 H   0  0  0  0  0  0  0  0  0  0  0  0
   58.9502   31.0159   43.3047 H   0  0  0  0  0  0  0  0  0  0  0  0
   58.6324   30.9580   45.0988 H   0  0  0  0  0  0  0  0  0  0  0  0
   58.8260   28.6920   43.2200 H   0  0  0  0  0  0  0  0  0  0  0  0
   60.6635   27.9313   44.5149 H   0  0  0  0  0  0  0  0  0  0  0  0
   60.9424   29.5828   43.8165 H   0  0  0  0  0  0  0  0  0  0  0  0
   61.5791   29.1075   46.3289 H   0  0  0  0  0  0  0  0  0  0  0  0
   60.7452   30.6427   45.8772 H   0  0  0  0  0  0  0  0  0  0  0  0
   60.0624   28.3808   49.3372 H   0  0  0  0  0  0  0  0  0  0  0  0
   59.6689   29.6388   51.4507 H   0  0  0  0  0  0  0  0  0  0  0  0
   58.1439   29.9951   53.3035 H   0  0  0  0  0  0  0  0  0  0  0  0
   57.9298   31.2539   54.5803 H   0  0  0  0  0  0  0  0  0  0  0  0
   56.1241   29.0465   53.7698 H   0  0  0  0  0  0  0  0  0  0  0  0
   56.1717   30.0205   55.2922 H   0  0  0  0  0  0  0  0  0  0  0  0
   54.6745   29.7610   52.0268 H   0  0  0  0  0  0  0  0  0  0  0  0
   54.1629   31.5059   52.0689 H   0  0  0  0  0  0  0  0  0  0  0  0
   56.7230   30.3174   51.2148 H   0  0  0  0  0  0  0  0  0  0  0  0
   56.0467   31.9560   50.9138 H   0  0  0  0  0  0  0  0  0  0  0  0
   58.3962   33.0826   49.1671 H   0  0  0  0  0  0  0  0  0  0  0  0
   57.6908   33.0361   44.3490 H   0  0  0  0  0  0  0  0  0  0  0  0
   56.8891   34.4508   45.1560 H   0  0  0  0  0  0  0  0  0  0  0  0
   59.7543   34.0230   44.4083 H   0  0  0  0  0  0  0  0  0  0  0  0
   58.7354   35.5316   44.4488 H   0  0  0  0  0  0  0  0  0  0  0  0
   59.6376   36.1223   46.3986 H   0  0  0  0  0  0  0  0  0  0  0  0
   59.0901   34.5741   47.1376 H   0  0  0  0  0  0  0  0  0  0  0  0
   60.6529   35.0069   49.0306 H   0  0  0  0  0  0  0  0  0  0  0  0
   61.7162   33.6736   50.8540 H   0  0  0  0  0  0  0  0  0  0  0  0
   63.2070   31.7494   50.2924 H   0  0  0  0  0  0  0  0  0  0  0  0
   63.6042   31.1331   47.9058 H   0  0  0  0  0  0  0  0  0  0  0  0
   62.5466   32.4609   46.0771 H   0  0  0  0  0  0  0  0  0  0  0  0
   59.1621   27.1777   46.6270 H   0  0  0  0  0  0  0  0  0  0  0  0
   57.7776   28.1820   47.2249 H   0  0  0  0  0  0  0  0  0  0  0  0
   58.0096   27.2535   44.6577 H   0  0  0  0  0  0  0  0  0  0  0  0
   57.1119   28.7705   45.1632 H   0  0  0  0  0  0  0  0  0  0  0  0
  1  2  1  0
  2  3  1  0
  3  4  1  0
  4  5  1  0
  5  6  1  0
  6  7  1  0
  7  8  2  0
  8  9  1  0
  9 10  2  0
 10 11  1  0
 11 12  2  0
 11 13  2  0
 11 14  1  0
 14 15  1  0
 15 16  1  0
 16 17  1  0
 17 18  1  0
 18 19  1  0
 10 20  1  0
 20 21  2  0
 21 22  1  0
 22 23  1  0
 23 24  2  0
 23 25  1  0
 25 26  1  0
 26 27  1  0
 27 28  1  0
 28 29  1  0
 29 30  2  0
 30 31  1  0
 31 32  2  0
 32 33  1  0
 33 34  2  0
  6 35  1  0
 35 36  1  0
 36  3  1  0
 21  7  1  0
 34 29  1  0
 19 14  1  0
  1 37  1  0
  1 38  1  0
  1 39  1  0
  2 40  1  0
  2 41  1  0
  3 42  1  0
  4 43  1  0
  4 44  1  0
  5 45  1  0
  5 46  1  0
  8 47  1  0
  9 48  1  0
 15 49  1  0
 15 50  1  0
 16 51  1  0
 16 52  1  0
 18 53  1  0
 18 54  1  0
 19 55  1  0
 19 56  1  0
 20 57  1  0
 25 58  1  0
 25 59  1  0
 26 60  1  0
 26 61  1  0
 27 62  1  0
 27 63  1  0
 30 64  1  0
 31 65  1  0
 32 66  1  0
 33 67  1  0
 34 68  1  0
 35 69  1  0
 35 70  1  0
 36 71  1  0
 36 72  1  0
M  CHG  2   3   1  22  -1
M  END
>  <UniqueID>  (17) 
17

>  <SMILES>  (17) 
CC[NH+]1CCN(c2ccc(S(=O)(=O)N3CCOCC3)cc2[N-]C(=O)CCCOc2ccccc2)CC1

>  <Energy>  (17) 
87.45144809680139

>  <Genealogy>  (17) 
CC[NH+]1CCN(c2ccc(S(=O)(=O)N3CCOCC3)cc2[N-]C(=O)CCCOc2ccccc2)CC1 (protonated)
CC[NH+]1CCN(c2ccc(S(=O)(=O)N3CCOCC3)cc2[N-]C(=O)CCCOc2ccccc2)CC1 (3D coordinates assigned)
CC[NH+]1CCN(c2ccc(S(=O)(=O)N3CCOCC3)cc2[N-]C(=O)CCCOc2ccccc2)CC1 (nonaromatic ring conformer: 87.45144809680139 kcal/mol)

>  <smiles>  (17) 
CCN1CCN(c2ccc(S(=O)(=O)N3CCOCC3)cc2NC(=O)CCCOc2ccccc2)CC1

>  <score_type>  (17) 
oracle

>  <origin>  (17) 
adg

>  <m_score__min__energy>  (17) 
-9.6300000000000008

>  <m_primary>  (17) 
energy

$$$$
17:0
     RDKit          3D

 42 43  0  0  0  0  0  0  0  0999 V2000
   57.3360   30.1820   52.1450 C   0  0  0  0  0  0  0  0  0  0  0  0
   57.7840   29.9020   50.8230 O   0  0  0  0  0  0  0  0  0  0  0  0
   58.4930   30.8050   50.0140 C   0  0  0  0  0  0  0  0  0  0  0  0
   58.7370   32.1330   50.4210 C   0  0  0  0  0  0  0  0  0  0  0  0
   59.4370   33.0090   49.5890 C   0  0  0  0  0  0  0  0  0  0  0  0
   59.9020   32.5760   48.3470 C   0  0  0  0  0  0  0  0  0  0  0  0
   59.6710   31.2630   47.9330 C   0  0  0  0  0  0  0  0  0  0  0  0
   58.9690   30.3690   48.7600 C   0  0  0  0  0  0  0  0  0  0  0  0
   58.6980   28.9650   48.2830 C   0  0  0  0  0  0  0  0  0  0  0  0
   57.7720   28.9770   47.1560 N   0  0  0  0  0  0  0  0  0  0  0  0
   57.6050   27.8780   46.2530 C   0  0  0  0  0  0  0  0  0  0  0  0
   56.7790   26.9610   46.5170 O   0  0  0  0  0  0  0  0  0  0  0  0
   58.4120   27.8400   44.9710 C   0  0  2  0  0  0  0  0  0  0  0  0
   59.8680   27.4720   45.2680 C   0  0  0  0  0  0  0  0  0  0  0  0
   60.6090   28.8120   45.3490 C   0  0  1  0  0  0  0  0  0  0  0  0
   61.7260   28.8160   44.5000 O   0  0  0  0  0  0  0  0  0  0  0  0
   59.5960   29.8670   44.8920 C   0  0  0  0  0  0  0  0  0  0  0  0
   58.4880   29.1360   44.2730 N   0  0  2  0  0  0  0  0  0  0  0  0
   56.9960   30.0520   44.1690 S   0  0  0  0  0  0  0  0  0  0  0  0
   56.6700   30.7360   42.5530 C   0  0  0  0  0  0  0  0  0  0  0  0
   57.0210   31.1690   45.1740 O   0  0  0  0  0  0  0  0  0  0  0  0
   55.8520   29.1370   44.5100 O   0  0  0  0  0  0  0  0  0  0  0  0
   58.0373   29.7437   52.8703 H   0  0  0  0  0  0  0  0  0  0  0  0
   57.2883   31.2709   52.2931 H   0  0  0  0  0  0  0  0  0  0  0  0
   56.3363   29.7477   52.2931 H   0  0  0  0  0  0  0  0  0  0  0  0
   58.3738   32.4807   51.3994 H   0  0  0  0  0  0  0  0  0  0  0  0
   59.6224   34.0435   49.9138 H   0  0  0  0  0  0  0  0  0  0  0  0
   60.4511   33.2698   47.6934 H   0  0  0  0  0  0  0  0  0  0  0  0
   60.0407   30.9258   46.9534 H   0  0  0  0  0  0  0  0  0  0  0  0
   59.6444   28.5007   47.9687 H   0  0  0  0  0  0  0  0  0  0  0  0
   58.2482   28.3907   49.1063 H   0  0  0  0  0  0  0  0  0  0  0  0
   57.8904   27.1033   44.3424 H   0  0  0  0  0  0  0  0  0  0  0  0
   59.9427   26.9309   46.2228 H   0  0  0  0  0  0  0  0  0  0  0  0
   60.2922   26.8119   44.4971 H   0  0  0  0  0  0  0  0  0  0  0  0
   60.9795   29.0062   46.3664 H   0  0  0  0  0  0  0  0  0  0  0  0
   61.5070   28.2120   43.7430 H   0  0  0  0  0  0  0  0  0  0  0  0
   59.2348   30.4463   45.7545 H   0  0  0  0  0  0  0  0  0  0  0  0
   60.0506   30.5760   44.1844 H   0  0  0  0  0  0  0  0  0  0  0  0
   58.7670   28.9340   43.2810 H   0  0  0  0  0  0  0  0  0  0  0  0
   56.1990   31.7242   42.6613 H   0  0  0  0  0  0  0  0  0  0  0  0
   57.6158   30.8391   42.0009 H   0  0  0  0  0  0  0  0  0  0  0  0
   55.9943   30.0663   42.0009 H   0  0  0  0  0  0  0  0  0  0  0  0
  1  2  1  0
  2  3  1  0
  3  4  2  0
  4  5  1  0
  5  6  2  0
  6  7  1  0
  7  8  2  0
  8  9  1  0
  9 10  1  0
 10 11  1  0
 11 12  2  0
 11 13  1  0
 13 14  1  0
 14 15  1  0
 15 16  1  0
 15 17  1  0
 17 18  1  0
 18 19  1  0
 19 20  1  0
 19 21  2  0
 19 22  2  0
  8  3  1  0
 18 13  1  0
  1 23  1  0
  1 24  1  0
  1 25  1  0
  4 26  1  0
  5 27  1  0
  6 28  1  0
  7 29  1  0
  9 30  1  0
  9 31  1  0
 13 32  1  6
 14 33  1  0
 14 34  1  0
 15 35  1  1
 16 36  1  0
 17 37  1  0
 17 38  1  0
 18 39  1  6
 20 40  1  0
 20 41  1  0
 20 42  1  0
M  CHG  2  10  -1  18   1
M  END
>  <UniqueID>  (18) 
18

>  <SMILES>  (18) 
COc1ccccc1C[N-]C(=O)[C@@H]1C[C@@H](O)C[NH+]1S(C)(=O)=O

>  <Energy>  (18) 
40.083686490412155

>  <Genealogy>  (18) 
COc1ccccc1C[N-]C(=O)C1CC(O)C[NH+]1S(C)(=O)=O (protonated)
COc1ccccc1C[N-]C(=O)[C@@H]1C[C@@H](O)C[NH+]1S(C)(=O)=O (chirality)
COc1ccccc1C[N-]C(=O)[C@@H]1C[C@@H](O)C[NH+]1S(C)(=O)=O (3D coordinates assigned)
COc1ccccc1C[N-]C(=O)[C@@H]1C[C@@H](O)C[NH+]1S(C)(=O)=O (nonaromatic ring conformer: 40.083686490412155 kcal/mol)

>  <smiles>  (18) 
COc1ccccc1CNC(=O)C1CC(O)CN1S(C)(=O)=O

>  <score_type>  (18) 
oracle

>  <origin>  (18) 
adg

>  <m_score__min__energy>  (18) 
-7.3399999999999999

>  <m_primary>  (18) 
energy

$$$$
18:0
     RDKit          3D

 41 43  0  0  0  0  0  0  0  0999 V2000
   63.0690   33.8060   47.1650 C   0  0  0  0  0  0  0  0  0  0  0  0
   61.6480   33.4070   46.8640 C   0  0  0  0  0  0  0  0  0  0  0  0
   60.7630   34.3600   46.3330 C   0  0  0  0  0  0  0  0  0  0  0  0
   59.4400   34.0210   46.0450 C   0  0  0  0  0  0  0  0  0  0  0  0
   58.9740   32.7230   46.2940 C   0  0  0  0  0  0  0  0  0  0  0  0
   57.5560   32.3400   45.9500 C   0  0  0  0  0  0  0  0  0  0  0  0
   57.4770   31.6300   44.6680 N   0  0  0  0  0  0  0  0  0  0  0  0
   57.4360   32.1640   43.4310 C   0  0  0  0  0  0  0  0  0  0  0  0
   57.1690   31.1550   42.5340 C   0  0  0  0  0  0  0  0  0  0  0  0
   57.0070   29.9910   43.1960 N   0  0  0  0  0  0  0  0  0  0  0  0
   57.2000   30.3200   44.4900 C   0  0  0  0  0  0  0  0  0  0  0  0
   57.0090   29.1370   45.8280 S   0  0  0  0  0  0  0  0  0  0  0  0
   57.5750   27.7000   44.8540 C   0  0  0  0  0  0  0  0  0  0  0  0
   57.4210   26.4120   45.6230 C   0  0  0  0  0  0  0  0  0  0  0  0
   58.5240   25.5730   45.8320 C   0  0  0  0  0  0  0  0  0  0  0  0
   58.3730   24.3950   46.4920 N   0  0  0  0  0  0  0  0  0  0  0  0
   57.1570   24.0170   46.9720 C   0  0  0  0  0  0  0  0  0  0  0  0
   57.0310   22.9250   47.5870 O   0  0  0  0  0  0  0  0  0  0  0  0
   56.0770   24.8200   46.7950 N   0  0  0  0  0  0  0  0  0  0  0  0
   56.1790   26.0020   46.1340 C   0  0  0  0  0  0  0  0  0  0  0  0
   55.1530   26.7170   45.9840 O   0  0  0  0  0  0  0  0  0  0  0  0
   59.8510   31.7650   46.8180 C   0  0  0  0  0  0  0  0  0  0  0  0
   61.1830   32.0950   47.1170 C   0  0  0  0  0  0  0  0  0  0  0  0
   62.0960   31.0340   47.6760 C   0  0  0  0  0  0  0  0  0  0  0  0
   63.2154   33.8471   48.2544 H   0  0  0  0  0  0  0  0  0  0  0  0
   63.7575   33.0664   46.7302 H   0  0  0  0  0  0  0  0  0  0  0  0
   63.2719   34.7958   46.7302 H   0  0  0  0  0  0  0  0  0  0  0  0
   61.1163   35.3841   46.1422 H   0  0  0  0  0  0  0  0  0  0  0  0
   58.7608   34.7753   45.6211 H   0  0  0  0  0  0  0  0  0  0  0  0
   57.1615   31.6875   46.7429 H   0  0  0  0  0  0  0  0  0  0  0  0
   56.9642   33.2634   45.8655 H   0  0  0  0  0  0  0  0  0  0  0  0
   57.5896   33.2242   43.1814 H   0  0  0  0  0  0  0  0  0  0  0  0
   57.0984   31.2789   41.4433 H   0  0  0  0  0  0  0  0  0  0  0  0
   56.9800   27.6378   43.9309 H   0  0  0  0  0  0  0  0  0  0  0  0
   58.6420   27.8384   44.6254 H   0  0  0  0  0  0  0  0  0  0  0  0
   59.5159   25.8694   45.4602 H   0  0  0  0  0  0  0  0  0  0  0  0
   59.2050   23.7790   46.6360 H   0  0  0  0  0  0  0  0  0  0  0  0
   59.4919   30.7409   46.9977 H   0  0  0  0  0  0  0  0  0  0  0  0
   62.0672   31.0674   48.7751 H   0  0  0  0  0  0  0  0  0  0  0  0
   61.7628   30.0443   47.3304 H   0  0  0  0  0  0  0  0  0  0  0  0
   63.1243   31.2159   47.3304 H   0  0  0  0  0  0  0  0  0  0  0  0
  1  2  1  0
  2  3  2  0
  3  4  1  0
  4  5  2  0
  5  6  1  0
  6  7  1  0
  7  8  1  0
  8  9  2  0
  9 10  1  0
 10 11  2  0
 11 12  1  0
 12 13  1  0
 13 14  1  0
 14 15  2  0
 15 16  1  0
 16 17  1  0
 17 18  2  0
 17 19  1  0
 19 20  1  0
 20 21  2  0
  5 22  1  0
 22 23  2  0
 23 24  1  0
 23  2  1  0
 11  7  1  0
 20 14  1  0
  1 25  1  0
  1 26  1  0
  1 27  1  0
  3 28  1  0
  4 29  1  0
  6 30  1  0
  6 31  1  0
  8 32  1  0
  9 33  1  0
 13 34  1  0
 13 35  1  0
 15 36  1  0
 16 37  1  0
 22 38  1  0
 24 39  1  0
 24 40  1  0
 24 41  1  0
M  CHG  1  19  -1
M  END
>  <UniqueID>  (19) 
19

>  <SMILES>  (19) 
Cc1ccc(Cn2ccnc2SCc2c[nH]c(=O)[n-]c2=O)cc1C

>  <Energy>  (19) 
67.75313492632039

>  <Genealogy>  (19) 
Cc1ccc(Cn2ccnc2SCc2c[nH]c(=O)[n-]c2=O)cc1C (protonated)
Cc1ccc(Cn2ccnc2SCc2c[nH]c(=O)[n-]c2=O)cc1C (3D coordinates assigned)
Cc1ccc(Cn2ccnc2SCc2c[nH]c(=O)[n-]c2=O)cc1C (optimized conformer: 67.75313492632039 kcal/mol)

>  <smiles>  (19) 
Cc1ccc(Cn2ccnc2SCc2c[nH]c(=O)[nH]c2=O)cc1C

>  <score_type>  (19) 
oracle

>  <origin>  (19) 
adg

>  <m_score__min__energy>  (19) 
-10.06

>  <m_primary>  (19) 
energy

$$$$
19:0
     RDKit          3D

 55 58  0  0  0  0  0  0  0  0999 V2000
   53.0180   28.3570   53.5800 C   0  0  0  0  0  0  0  0  0  0  0  0
   54.0820   29.0650   53.1720 C   0  0  0  0  0  0  0  0  0  0  0  0
   54.0940   30.4090   52.7720 C   0  0  0  0  0  0  0  0  0  0  0  0
   53.0910   31.2620   52.4880 C   0  0  0  0  0  0  0  0  0  0  0  0
   52.2050   31.1940   51.3150 C   0  0  0  0  0  0  0  0  0  0  0  0
   52.2800   30.2650   50.3450 N   0  0  0  0  0  0  0  0  0  0  0  0
   51.3970   30.7020   49.4250 C   0  0  0  0  0  0  0  0  0  0  0  0
   51.1670   30.0810   48.3570 O   0  0  0  0  0  0  0  0  0  0  0  0
   50.7890   31.8670   49.7320 N   0  0  0  0  0  0  0  0  0  0  0  0
   51.3240   32.1700   50.9240 C   0  0  0  0  0  0  0  0  0  0  0  0
   51.0170   33.3230   51.6360 O   0  0  0  0  0  0  0  0  0  0  0  0
   55.4250   30.7620   52.6520 C   0  0  0  0  0  0  0  0  0  0  0  0
   56.1700   29.6280   52.8990 C   0  0  0  0  0  0  0  0  0  0  0  0
   57.6350   29.5650   52.7270 C   0  0  0  0  0  0  0  0  0  0  0  0
   58.3010   28.6930   53.3530 O   0  0  0  0  0  0  0  0  0  0  0  0
   58.2970   30.4220   51.7880 N   0  0  0  0  0  0  0  0  0  0  0  0
   57.9940   31.8590   51.7480 C   0  0  0  0  0  0  0  0  0  0  0  0
   57.8060   32.3190   50.2970 C   0  0  0  0  0  0  0  0  0  0  0  0
   58.7670   31.6670   49.3940 N   0  0  0  0  0  0  0  0  0  0  0  0
   58.5170   31.6740   47.9760 C   0  0  0  0  0  0  0  0  0  0  0  0
   57.9020   32.7810   47.3700 C   0  0  0  0  0  0  0  0  0  0  0  0
   57.6080   32.7680   46.0050 C   0  0  0  0  0  0  0  0  0  0  0  0
   57.9050   31.6400   45.2250 C   0  0  0  0  0  0  0  0  0  0  0  0
   57.5860   31.6040   43.7870 C   0  0  0  0  0  0  0  0  0  0  0  0
   58.3490   32.1940   42.9780 O   0  0  0  0  0  0  0  0  0  0  0  0
   56.4650   30.8800   43.2680 N   0  0  0  0  0  0  0  0  0  0  0  0
   55.7560   29.8220   43.9730 C   0  0  0  0  0  0  0  0  0  0  0  0
   58.5440   30.5440   45.8230 C   0  0  0  0  0  0  0  0  0  0  0  0
   58.8400   30.5570   47.1880 C   0  0  0  0  0  0  0  0  0  0  0  0
   59.8960   30.9180   49.9590 C   0  0  0  0  0  0  0  0  0  0  0  0
   59.3730   29.8740   50.9490 C   0  0  0  0  0  0  0  0  0  0  0  0
   55.3570   28.5950   53.2220 N   0  0  0  0  0  0  0  0  0  0  0  0
   55.7760   27.2470   53.6320 C   0  0  0  0  0  0  0  0  0  0  0  0
   53.1373   27.3026   53.8698 H   0  0  0  0  0  0  0  0  0  0  0  0
   52.0263   28.8309   53.6247 H   0  0  0  0  0  0  0  0  0  0  0  0
   52.9184   32.0845   53.1977 H   0  0  0  0  0  0  0  0  0  0  0  0
   55.8165   31.7600   52.4057 H   0  0  0  0  0  0  0  0  0  0  0  0
   57.0701   32.0517   52.3131 H   0  0  0  0  0  0  0  0  0  0  0  0
   58.8304   32.4154   52.1961 H   0  0  0  0  0  0  0  0  0  0  0  0
   56.7850   32.0691   49.9726 H   0  0  0  0  0  0  0  0  0  0  0  0
   57.9764   33.4049   50.2552 H   0  0  0  0  0  0  0  0  0  0  0  0
   57.6500   33.6647   47.9746 H   0  0  0  0  0  0  0  0  0  0  0  0
   57.1406   33.6476   45.5382 H   0  0  0  0  0  0  0  0  0  0  0  0
   55.8570   29.9728   45.0579 H   0  0  0  0  0  0  0  0  0  0  0  0
   54.6915   29.8469   43.6969 H   0  0  0  0  0  0  0  0  0  0  0  0
   56.1837   28.8469   43.6969 H   0  0  0  0  0  0  0  0  0  0  0  0
   58.8137   29.6690   45.2134 H   0  0  0  0  0  0  0  0  0  0  0  0
   59.3295   29.6864   47.6491 H   0  0  0  0  0  0  0  0  0  0  0  0
   60.4430   30.4133   49.1490 H   0  0  0  0  0  0  0  0  0  0  0  0
   60.5711   31.6119   50.4812 H   0  0  0  0  0  0  0  0  0  0  0  0
   58.9850   29.0113   50.3876 H   0  0  0  0  0  0  0  0  0  0  0  0
   60.2032   29.5719   51.6043 H   0  0  0  0  0  0  0  0  0  0  0  0
   55.7947   27.1870   54.7302 H   0  0  0  0  0  0  0  0  0  0  0  0
   55.0658   26.5060   53.2363 H   0  0  0  0  0  0  0  0  0  0  0  0
   56.7811   27.0392   53.2363 H   0  0  0  0  0  0  0  0  0  0  0  0
  1  2  2  0
  2  3  1  0
  3  4  2  3
  4  5  1  0
  5  6  1  0
  6  7  1  0
  7  8  2  0
  7  9  1  0
  9 10  1  0
 10 11  1  0
  3 12  1  0
 12 13  2  0
 13 14  1  0
 14 15  2  0
 14 16  1  0
 16 17  1  0
 17 18  1  0
 18 19  1  0
 19 20  1  0
 20 21  2  0
 21 22  1  0
 22 23  2  0
 23 24  1  0
 24 25  2  0
 24 26  1  0
 26 27  1  0
 23 28  1  0
 28 29  2  0
 19 30  1  0
 30 31  1  0
 13 32  1  0
 32 33  1  0
 32  2  1  0
 10  5  2  0
 31 16  1  0
 29 20  1  0
  1 34  1  0
  1 35  1  0
  4 36  1  0
 12 37  1  0
 17 38  1  0
 17 39  1  0
 18 40  1  0
 18 41  1  0
 21 42  1  0
 22 43  1  0
 27 44  1  0
 27 45  1  0
 27 46  1  0
 28 47  1  0
 29 48  1  0
 30 49  1  0
 30 50  1  0
 31 51  1  0
 31 52  1  0
 33 53  1  0
 33 54  1  0
 33 55  1  0
M  CHG  4   6  -1   9  -1  11  -1  26  -1
M  END
>  <UniqueID>  (20) 
20

>  <SMILES>  (20) 
C=c1c(=Cc2[n-]c(=O)[n-]c2[O-])cc(C(=O)N2CCN(c3ccc(C(=O)[N-]C)cc3)CC2)n1C

>  <Energy>  (20) 
141.61583465159154

>  <Genealogy>  (20) 
C=c1c(=Cc2[n-]c(=O)[n-]c2[O-])cc(C(=O)N2CCN(c3ccc(C(=O)[N-]C)cc3)CC2)n1C (protonated)
C=c1c(=Cc2[n-]c(=O)[n-]c2[O-])cc(C(=O)N2CCN(c3ccc(C(=O)[N-]C)cc3)CC2)n1C (3D coordinates assigned)
C=c1c(=Cc2[n-]c(=O)[n-]c2[O-])cc(C(=O)N2CCN(c3ccc(C(=O)[N-]C)cc3)CC2)n1C (nonaromatic ring conformer: 141.61583465159154 kcal/mol)

>  <smiles>  (20) 
C=c1c(=Cc2[nH]c(=O)[nH]c2O)cc(C(=O)N2CCN(c3ccc(C(=O)NC)cc3)CC2)n1C

>  <score_type>  (20) 
oracle

>  <origin>  (20) 
adg

>  <m_score__min__energy>  (20) 
-18.84

>  <m_primary>  (20) 
energy

$$$$
20:0
     RDKit          3D

 55 58  0  0  0  0  0  0  0  0999 V2000
   54.6540   28.4438   55.0658 H   0  0  0  0  0  0  0  0  0  0  0  0
   54.0870   29.1160   54.4050 C   0  0  0  0  0  0  0  0  0  0  0  0
   53.0088   29.2639   54.5651 H   0  0  0  0  0  0  0  0  0  0  0  0
   54.7110   29.7560   53.4030 C   0  0  0  0  0  0  0  0  0  0  0  0
   54.0930   30.6330   52.5020 C   0  0  0  0  0  0  0  0  0  0  0  0
   52.7840   30.9440   52.4230 C   0  0  0  0  0  0  0  0  0  0  0  0
   52.2142   31.0227   53.3606 H   0  0  0  0  0  0  0  0  0  0  0  0
   52.0700   31.1850   51.1570 C   0  0  0  0  0  0  0  0  0  0  0  0
   51.9950   30.2780   50.1670 N   0  0  0  0  0  0  0  0  0  0  0  0
   51.1820   30.8660   49.2630 C   0  0  0  0  0  0  0  0  0  0  0  0
   50.8740   30.3210   48.1720 O   0  0  0  0  0  0  0  0  0  0  0  0
   50.7130   32.0790   49.6270 N   0  0  0  0  0  0  0  0  0  0  0  0
   51.2730   32.2620   50.8330 C   0  0  0  0  0  0  0  0  0  0  0  0
   51.0210   33.3660   51.6380 O   0  0  0  0  0  0  0  0  0  0  0  0
   55.0900   31.0960   51.6620 C   0  0  0  0  0  0  0  0  0  0  0  0
   54.9692   31.7971   50.8230 H   0  0  0  0  0  0  0  0  0  0  0  0
   56.2620   30.5090   52.0800 C   0  0  0  0  0  0  0  0  0  0  0  0
   57.5710   30.8060   51.4690 C   0  0  0  0  0  0  0  0  0  0  0  0
   58.4000   29.8650   51.3240 O   0  0  0  0  0  0  0  0  0  0  0  0
   57.8400   32.1130   50.9050 N   0  0  0  0  0  0  0  0  0  0  0  0
   56.9390   32.6470   50.8970 H   0  0  0  0  0  0  0  0  0  0  0  0
   58.7870   32.8840   51.7580 C   0  0  0  0  0  0  0  0  0  0  0  0
   58.2082   33.4613   52.4940 H   0  0  0  0  0  0  0  0  0  0  0  0
   59.4589   32.1626   52.2460 H   0  0  0  0  0  0  0  0  0  0  0  0
   59.6550   33.8520   50.9480 C   0  0  0  0  0  0  0  0  0  0  0  0
   59.0115   34.5894   50.4460 H   0  0  0  0  0  0  0  0  0  0  0  0
   60.3514   34.3723   51.6220 H   0  0  0  0  0  0  0  0  0  0  0  0
   60.4160   33.1010   49.9420 N   0  0  0  0  0  0  0  0  0  0  0  0
   61.7600   33.5010   49.5950 C   0  0  0  0  0  0  0  0  0  0  0  0
   62.2520   34.5510   50.0930 O   0  0  0  0  0  0  0  0  0  0  0  0
   62.6150   32.6520   48.6910 C   0  0  0  0  0  0  0  0  0  0  0  0
   62.1626   31.6923   48.9815 H   0  0  0  0  0  0  0  0  0  0  0  0
   63.0040   33.3300   47.3850 C   0  0  0  0  0  0  0  0  0  0  0  0
   63.0629   32.7422   46.4571 H   0  0  0  0  0  0  0  0  0  0  0  0
   62.6274   34.1926   46.8157 H   0  0  0  0  0  0  0  0  0  0  0  0
   64.0440   33.1360   48.4720 C   0  0  0  0  0  0  0  0  0  0  0  0
   64.8560   32.4072   48.3323 H   0  0  0  0  0  0  0  0  0  0  0  0
   64.7324   33.7990   49.0166 H   0  0  0  0  0  0  0  0  0  0  0  0
   59.7850   31.9370   49.3050 C   0  0  0  0  0  0  0  0  0  0  0  0
   60.0221   31.9416   48.2309 H   0  0  0  0  0  0  0  0  0  0  0  0
   60.1722   31.0233   49.7797 H   0  0  0  0  0  0  0  0  0  0  0  0
   58.2580   31.9750   49.4840 C   0  0  0  0  0  0  0  0  0  0  0  0
   57.8603   32.8300   48.9176 H   0  0  0  0  0  0  0  0  0  0  0  0
   57.8609   31.0171   49.1170 H   0  0  0  0  0  0  0  0  0  0  0  0
   56.0480   29.6770   53.1310 N   0  0  0  0  0  0  0  0  0  0  0  0
   57.0880   28.8240   53.7520 C   0  0  0  0  0  0  0  0  0  0  0  0
   57.9567   28.8328   53.0772 H   0  0  0  0  0  0  0  0  0  0  0  0
   56.6540   27.3550   53.8540 C   0  0  0  0  0  0  0  0  0  0  0  0
   56.5699   27.0702   54.9132 H   0  0  0  0  0  0  0  0  0  0  0  0
   55.6792   27.2256   53.3610 H   0  0  0  0  0  0  0  0  0  0  0  0
   57.4019   26.7166   53.3610 H   0  0  0  0  0  0  0  0  0  0  0  0
   57.5740   29.3980   55.0880 C   0  0  0  0  0  0  0  0  0  0  0  0
   57.1063   28.8456   55.9163 H   0  0  0  0  0  0  0  0  0  0  0  0
   58.6677   29.2998   55.1531 H   0  0  0  0  0  0  0  0  0  0  0  0
   57.2968   30.4605   55.1531 H   0  0  0  0  0  0  0  0  0  0  0  0
  1  2  1  0
  2  3  1  0
  2  4  2  0
  4  5  1  0
  5  6  2  0
  6  7  1  0
  6  8  1  0
  8  9  1  0
  9 10  1  0
 10 11  2  0
 10 12  1  0
 12 13  1  0
 13 14  1  0
  5 15  1  0
 15 16  1  0
 15 17  2  0
 17 18  1  0
 18 19  2  0
 18 20  1  0
 20 21  1  0
 20 22  1  0
 22 23  1  0
 22 24  1  0
 22 25  1  0
 25 26  1  0
 25 27  1  0
 25 28  1  0
 28 29  1  0
 29 30  2  0
 29 31  1  0
 31 32  1  0
 31 33  1  0
 33 34  1  0
 33 35  1  0
 33 36  1  0
 36 37  1  0
 36 38  1  0
 28 39  1  0
 39 40  1  0
 39 41  1  0
 39 42  1  0
 42 43  1  0
 42 44  1  0
 17 45  1  0
 45 46  1  0
 46 47  1  0
 46 48  1  0
 48 49  1  0
 48 50  1  0
 48 51  1  0
 46 52  1  0
 52 53  1  0
 52 54  1  0
 52 55  1  0
 45  4  1  0
 13  8  2  0
 42 20  1  0
 36 31  1  0
M  CHG  4   9  -1  12  -1  14  -1  20   1
M  END
>  <UniqueID>  (21) 
21

>  <SMILES>  (21) 
C=c1/c(=C/c2[n-]c(=O)[n-]c2[O-])cc(C(=O)[NH+]2CCN(C(=O)C3CC3)CC2)n1C(C)C

>  <Energy>  (21) 
401.68847460439196

>  <Genealogy>  (21) 
C=c1c(=Cc2[n-]c(=O)[n-]c2[O-])cc(C(=O)[NH+]2CCN(C(=O)C3CC3)CC2)n1C(C)C (protonated)
C=c1/c(=C/c2[n-]c(=O)[n-]c2[O-])cc(C(=O)[NH+]2CCN(C(=O)C3CC3)CC2)n1C(C)C (cis-trans isomerization)
C=c1/c(=C/c2[n-]c(=O)[n-]c2[O-])cc(C(=O)[NH+]2CCN(C(=O)C3CC3)CC2)n1C(C)C (3D coordinates assigned)
C=c1/c(=C/c2[n-]c(=O)[n-]c2[O-])cc(C(=O)[NH+]2CCN(C(=O)C3CC3)CC2)n1C(C)C (nonaromatic ring conformer: 401.68847460439196 kcal/mol)

>  <smiles>  (21) 
C=c1c(=Cc2[nH]c(=O)[nH]c2O)cc(C(=O)N2CCN(C(=O)C3CC3)CC2)n1C(C)C

>  <score_type>  (21) 
oracle

>  <origin>  (21) 
adg

>  <m_score__min__energy>  (21) 
-16.579999999999998

>  <m_primary>  (21) 
energy

$$$$
21:0
     RDKit          3D

 43 44  0  0  0  0  0  0  0  0999 V2000
   54.2720   25.9430   45.6070 N   0  0  0  0  0  0  0  0  0  0  0  0
   54.7620   24.3030   45.8430 S   0  0  0  0  0  0  0  0  0  0  0  0
   54.8060   24.0000   47.3140 O   0  0  0  0  0  0  0  0  0  0  0  0
   53.7730   23.3880   45.1780 O   0  0  0  0  0  0  0  0  0  0  0  0
   56.3750   24.0480   45.1240 C   0  0  0  0  0  0  0  0  0  0  0  0
   56.9870   25.3650   44.7210 C   0  0  0  0  0  0  0  0  0  0  0  0
   57.4900   25.5210   43.4200 C   0  0  0  0  0  0  0  0  0  0  0  0
   58.0330   26.7400   43.0140 C   0  0  0  0  0  0  0  0  0  0  0  0
   58.0710   27.8180   43.8980 C   0  0  0  0  0  0  0  0  0  0  0  0
   57.5740   27.6870   45.2040 C   0  0  0  0  0  0  0  0  0  0  0  0
   57.5650   28.8250   46.0830 N   0  0  0  0  0  0  0  0  0  0  0  0
   58.7510   29.4490   46.6020 C   0  0  0  0  0  0  0  0  0  0  0  0
   60.1440   28.5810   46.7480 S   0  0  0  0  0  0  0  0  0  0  0  0
   58.6550   30.7830   47.1340 N   0  0  0  0  0  0  0  0  0  0  0  0
   59.8080   31.5700   47.5950 C   0  0  2  0  0  0  0  0  0  0  0  0
   59.4050   32.4770   48.7860 C   0  0  0  0  0  0  0  0  0  0  0  0
   58.9480   33.8600   48.3120 C   0  0  0  0  0  0  0  0  0  0  0  0
   60.0820   34.6160   47.5830 C   0  0  2  0  0  0  0  0  0  0  0  0
   59.5120   35.5000   46.6530 O   0  0  0  0  0  0  0  0  0  0  0  0
   61.0780   33.6660   46.8740 C   0  0  0  0  0  0  0  0  0  0  0  0
   60.3980   32.3730   46.4070 C   0  0  0  0  0  0  0  0  0  0  0  0
   57.0210   26.4550   45.6170 C   0  0  0  0  0  0  0  0  0  0  0  0
   56.5180   26.2900   46.9110 O   0  0  0  0  0  0  0  0  0  0  0  0
   54.7820   26.5190   46.3140 H   0  0  0  0  0  0  0  0  0  0  0  0
   57.0266   23.5566   45.8615 H   0  0  0  0  0  0  0  0  0  0  0  0
   56.2703   23.4158   44.2300 H   0  0  0  0  0  0  0  0  0  0  0  0
   57.4558   24.6765   42.7160 H   0  0  0  0  0  0  0  0  0  0  0  0
   58.4319   26.8512   41.9949 H   0  0  0  0  0  0  0  0  0  0  0  0
   58.4939   28.7787   43.5690 H   0  0  0  0  0  0  0  0  0  0  0  0
   56.6410   29.2530   46.3210 H   0  0  0  0  0  0  0  0  0  0  0  0
   57.7130   31.2350   47.1250 H   0  0  0  0  0  0  0  0  0  0  0  0
   60.5954   30.8966   47.9646 H   0  0  0  0  0  0  0  0  0  0  0  0
   58.5818   31.9983   49.3367 H   0  0  0  0  0  0  0  0  0  0  0  0
   60.2857   32.6083   49.4319 H   0  0  0  0  0  0  0  0  0  0  0  0
   58.0995   33.7385   47.6226 H   0  0  0  0  0  0  0  0  0  0  0  0
   58.6561   34.4470   49.1954 H   0  0  0  0  0  0  0  0  0  0  0  0
   60.6605   35.1673   48.3389 H   0  0  0  0  0  0  0  0  0  0  0  0
   59.4460   36.3860   47.0990 H   0  0  0  0  0  0  0  0  0  0  0  0
   61.5008   34.1819   45.9993 H   0  0  0  0  0  0  0  0  0  0  0  0
   61.8655   33.3974   47.5936 H   0  0  0  0  0  0  0  0  0  0  0  0
   59.5848   32.6295   45.7121 H   0  0  0  0  0  0  0  0  0  0  0  0
   61.1566   31.7468   45.9148 H   0  0  0  0  0  0  0  0  0  0  0  0
   55.5790   25.9650   47.1000 H   0  0  0  0  0  0  0  0  0  0  0  0
  1  2  1  0
  2  3  2  0
  2  4  2  0
  2  5  1  0
  5  6  1  0
  6  7  2  0
  7  8  1  0
  8  9  2  0
  9 10  1  0
 10 11  1  0
 11 12  1  0
 12 13  2  0
 12 14  1  0
 14 15  1  0
 15 16  1  0
 16 17  1  0
 17 18  1  0
 18 19  1  0
 18 20  1  0
 20 21  1  0
 10 22  2  0
 22 23  1  0
 22  6  1  0
 21 15  1  0
  1 24  1  0
  5 25  1  0
  5 26  1  0
  7 27  1  0
  8 28  1  0
  9 29  1  0
 11 30  1  0
 14 31  1  0
 15 32  1  1
 16 33  1  0
 16 34  1  0
 17 35  1  0
 17 36  1  0
 18 37  1  1
 19 38  1  0
 20 39  1  0
 20 40  1  0
 21 41  1  0
 21 42  1  0
 23 43  1  0
M  CHG  1   1  -1
M  END
>  <UniqueID>  (22) 
22

>  <SMILES>  (22) 
[NH-]S(=O)(=O)Cc1cccc(NC(=S)NC2CCC(O)CC2)c1O

>  <Energy>  (22) 
45.39321540860776

>  <Genealogy>  (22) 
[NH-]S(=O)(=O)Cc1cccc(NC(=S)NC2CCC(O)CC2)c1O (protonated)
[NH-]S(=O)(=O)Cc1cccc(NC(=S)NC2CCC(O)CC2)c1O (3D coordinates assigned)
[NH-]S(=O)(=O)Cc1cccc(NC(=S)NC2CCC(O)CC2)c1O (nonaromatic ring conformer: 45.39321540860776 kcal/mol)

>  <smiles>  (22) 
NS(=O)(=O)Cc1cccc(NC(=S)NC2CCC(O)CC2)c1O

>  <score_type>  (22) 
oracle

>  <origin>  (22) 
adg

>  <m_score__min__energy>  (22) 
-10.34

>  <m_primary>  (22) 
energy

$$$$
22:0
     RDKit          3D

 53 56  0  0  0  0  0  0  0  0999 V2000
   55.5098   30.2678   43.7807 H   0  0  0  0  0  0  0  0  0  0  0  0
   56.0900   29.3970   44.1200 C   0  0  0  0  0  0  0  0  0  0  0  0
   55.7384   28.3796   43.8934 H   0  0  0  0  0  0  0  0  0  0  0  0
   57.2280   29.5760   44.8110 C   0  0  0  0  0  0  0  0  0  0  0  0
   58.0800   28.5790   45.3130 C   0  0  0  0  0  0  0  0  0  0  0  0
   58.0980   27.2460   45.1200 C   0  0  0  0  0  0  0  0  0  0  0  0
   58.6311   26.8759   44.2318 H   0  0  0  0  0  0  0  0  0  0  0  0
   57.4690   26.2410   45.9900 C   0  0  0  0  0  0  0  0  0  0  0  0
   58.1000   25.1400   46.4320 N   0  0  0  0  0  0  0  0  0  0  0  0
   57.1240   24.4570   47.0700 C   0  0  0  0  0  0  0  0  0  0  0  0
   57.3330   23.3560   47.6430 O   0  0  0  0  0  0  0  0  0  0  0  0
   55.9070   25.0390   47.0340 N   0  0  0  0  0  0  0  0  0  0  0  0
   56.1380   26.1600   46.3340 C   0  0  0  0  0  0  0  0  0  0  0  0
   55.1500   27.0760   45.9940 O   0  0  0  0  0  0  0  0  0  0  0  0
   59.0140   29.2300   46.0990 C   0  0  0  0  0  0  0  0  0  0  0  0
   59.8177   28.7591   46.6841 H   0  0  0  0  0  0  0  0  0  0  0  0
   58.7480   30.5800   46.0110 C   0  0  0  0  0  0  0  0  0  0  0  0
   59.5890   31.6300   46.6200 C   0  0  0  0  0  0  0  0  0  0  0  0
   59.7630   32.7130   45.9960 O   0  0  0  0  0  0  0  0  0  0  0  0
   60.2400   31.4230   47.8900 N   0  0  0  0  0  0  0  0  0  0  0  0
   61.4150   32.2340   48.2420 C   0  0  0  0  0  0  0  0  0  0  0  0
   61.9321   32.5392   47.3203 H   0  0  0  0  0  0  0  0  0  0  0  0
   61.0784   33.1187   48.8023 H   0  0  0  0  0  0  0  0  0  0  0  0
   62.3850   31.4330   49.1220 C   0  0  0  0  0  0  0  0  0  0  0  0
   62.9425   30.7284   48.4874 H   0  0  0  0  0  0  0  0  0  0  0  0
   63.0647   32.1431   49.6158 H   0  0  0  0  0  0  0  0  0  0  0  0
   61.6770   30.6760   50.1660 N   0  0  0  0  0  0  0  0  0  0  0  0
   62.4120   29.7540   50.9950 C   0  0  0  0  0  0  0  0  0  0  0  0
   63.7420   30.0250   51.3530 C   0  0  0  0  0  0  0  0  0  0  0  0
   64.2234   30.9512   51.0060 H   0  0  0  0  0  0  0  0  0  0  0  0
   64.4590   29.1250   52.1480 C   0  0  0  0  0  0  0  0  0  0  0  0
   65.4997   29.3480   52.4258 H   0  0  0  0  0  0  0  0  0  0  0  0
   63.8540   27.9350   52.5940 C   0  0  0  0  0  0  0  0  0  0  0  0
   64.5310   27.0010   53.3940 O   0  0  0  0  0  0  0  0  0  0  0  0
   65.7380   26.3460   53.0190 C   0  0  0  0  0  0  0  0  0  0  0  0
   66.2890   26.0470   53.9229 H   0  0  0  0  0  0  0  0  0  0  0  0
   65.5004   25.4530   52.4222 H   0  0  0  0  0  0  0  0  0  0  0  0
   66.3572   27.0318   52.4222 H   0  0  0  0  0  0  0  0  0  0  0  0
   62.5300   27.6640   52.2310 C   0  0  0  0  0  0  0  0  0  0  0  0
   62.0496   26.7355   52.5731 H   0  0  0  0  0  0  0  0  0  0  0  0
   61.8130   28.5640   51.4370 C   0  0  0  0  0  0  0  0  0  0  0  0
   60.7734   28.3383   51.1570 H   0  0  0  0  0  0  0  0  0  0  0  0
   60.2210   30.7950   50.2900 C   0  0  0  0  0  0  0  0  0  0  0  0
   59.8477   30.0262   50.9825 H   0  0  0  0  0  0  0  0  0  0  0  0
   59.9657   31.7921   50.6781 H   0  0  0  0  0  0  0  0  0  0  0  0
   59.5760   30.6010   48.9160 C   0  0  0  0  0  0  0  0  0  0  0  0
   59.6531   29.5414   48.6308 H   0  0  0  0  0  0  0  0  0  0  0  0
   58.5229   30.9121   48.9808 H   0  0  0  0  0  0  0  0  0  0  0  0
   57.6610   30.7950   45.2280 N   0  0  0  0  0  0  0  0  0  0  0  0
   57.0230   32.0880   44.9570 C   0  0  0  0  0  0  0  0  0  0  0  0
   56.7788   32.5830   45.9085 H   0  0  0  0  0  0  0  0  0  0  0  0
   57.7114   32.7227   44.3796 H   0  0  0  0  0  0  0  0  0  0  0  0
   56.1005   31.9278   44.3796 H   0  0  0  0  0  0  0  0  0  0  0  0
  1  2  1  0
  2  3  1  0
  2  4  2  0
  4  5  1  0
  5  6  2  0
  6  7  1  0
  6  8  1  0
  8  9  1  0
  9 10  1  0
 10 11  2  0
 10 12  1  0
 12 13  1  0
 13 14  1  0
  5 15  1  0
 15 16  1  0
 15 17  2  0
 17 18  1  0
 18 19  2  0
 18 20  1  0
 20 21  1  0
 21 22  1  0
 21 23  1  0
 21 24  1  0
 24 25  1  0
 24 26  1  0
 24 27  1  0
 27 28  1  0
 28 29  2  0
 29 30  1  0
 29 31  1  0
 31 32  1  0
 31 33  2  0
 33 34  1  0
 34 35  1  0
 35 36  1  0
 35 37  1  0
 35 38  1  0
 33 39  1  0
 39 40  1  0
 39 41  2  0
 41 42  1  0
 27 43  1  0
 43 44  1  0
 43 45  1  0
 43 46  1  0
 46 47  1  0
 46 48  1  0
 17 49  1  0
 49 50  1  0
 50 51  1  0
 50 52  1  0
 50 53  1  0
 49  4  1  0
 13  8  2  0
 46 20  1  0
 41 28  1  0
M  CHG  3   9  -1  12  -1  14  -1
M  END
>  <UniqueID>  (23) 
23

>  <SMILES>  (23) 
C=c1/c(=C\c2[n-]c(=O)[n-]c2[O-])cc(C(=O)N2CCN(c3ccc(OC)cc3)CC2)n1C

>  <Energy>  (23) 
135.7943018680752

>  <Genealogy>  (23) 
C=c1c(=Cc2[n-]c(=O)[n-]c2[O-])cc(C(=O)N2CCN(c3ccc(OC)cc3)CC2)n1C (protonated)
C=c1/c(=C\c2[n-]c(=O)[n-]c2[O-])cc(C(=O)N2CCN(c3ccc(OC)cc3)CC2)n1C (cis-trans isomerization)
C=c1/c(=C\c2[n-]c(=O)[n-]c2[O-])cc(C(=O)N2CCN(c3ccc(OC)cc3)CC2)n1C (3D coordinates assigned)
C=c1/c(=C\c2[n-]c(=O)[n-]c2[O-])cc(C(=O)N2CCN(c3ccc(OC)cc3)CC2)n1C (nonaromatic ring conformer: 135.7943018680752 kcal/mol)

>  <smiles>  (23) 
C=c1c(=Cc2[nH]c(=O)[nH]c2O)cc(C(=O)N2CCN(c3ccc(OC)cc3)CC2)n1C

>  <score_type>  (23) 
oracle

>  <origin>  (23) 
adg

>  <m_score__min__energy>  (23) 
-17.260000000000002

>  <m_primary>  (23) 
energy

$$$$
23:0
     RDKit          3D

 33 35  0  0  0  0  0  0  0  0999 V2000
   54.7530   28.9640   45.6060 H   0  0  0  0  0  0  0  0  0  0  0  0
   55.5480   28.4550   45.2390 O   0  0  0  0  0  0  0  0  0  0  0  0
   55.8980   27.2140   45.7610 C   0  0  0  0  0  0  0  0  0  0  0  0
   55.0240   26.2120   45.9530 N   0  0  0  0  0  0  0  0  0  0  0  0
   55.8130   25.2120   46.3980 C   0  0  0  0  0  0  0  0  0  0  0  0
   55.3640   24.0730   46.6930 O   0  0  0  0  0  0  0  0  0  0  0  0
   57.1240   25.5230   46.4920 N   0  0  0  0  0  0  0  0  0  0  0  0
   57.1690   26.8100   46.1080 C   0  0  0  0  0  0  0  0  0  0  0  0
   58.4250   27.5700   45.9740 C   0  0  0  0  0  0  0  0  0  0  0  0
   59.2542   27.1034   45.4220 H   0  0  0  0  0  0  0  0  0  0  0  0
   58.6200   28.8010   46.4860 C   0  0  0  0  0  0  0  0  0  0  0  0
   58.7960   29.1150   47.8280 C   0  0  0  0  0  0  0  0  0  0  0  0
   58.7740   28.4135   48.6750 H   0  0  0  0  0  0  0  0  0  0  0  0
   59.0040   30.4790   47.8920 C   0  0  0  0  0  0  0  0  0  0  0  0
   59.2640   31.2400   49.1560 C   0  0  0  0  0  0  0  0  0  0  0  0
   59.0447   30.5982   50.0221 H   0  0  0  0  0  0  0  0  0  0  0  0
   60.3190   31.5499   49.1870 H   0  0  0  0  0  0  0  0  0  0  0  0
   58.6192   32.1306   49.1870 H   0  0  0  0  0  0  0  0  0  0  0  0
   58.9860   31.0180   46.6510 N   0  0  0  0  0  0  0  0  0  0  0  0
   59.1680   32.4100   46.3380 C   0  0  0  0  0  0  0  0  0  0  0  0
   58.1290   33.1540   45.7620 C   0  0  0  0  0  0  0  0  0  0  0  0
   57.1611   32.6745   45.5538 H   0  0  0  0  0  0  0  0  0  0  0  0
   58.3140   34.4660   45.4600 N   0  0  0  0  0  0  0  0  0  0  0  0
   59.4960   35.0960   45.6990 C   0  0  0  0  0  0  0  0  0  0  0  0
   59.6280   36.3120   45.4060 O   0  0  0  0  0  0  0  0  0  0  0  0
   60.5600   34.3910   46.2710 C   0  0  0  0  0  0  0  0  0  0  0  0
   61.5181   34.8941   46.4682 H   0  0  0  0  0  0  0  0  0  0  0  0
   60.3930   33.0420   46.5890 C   0  0  0  0  0  0  0  0  0  0  0  0
   61.2229   32.4754   47.0365 H   0  0  0  0  0  0  0  0  0  0  0  0
   58.7540   30.0020   45.7810 C   0  0  0  0  0  0  0  0  0  0  0  0
   58.6910   30.1560   44.4490 C   0  0  0  0  0  0  0  0  0  0  0  0
   58.8116   31.1549   44.0045 H   0  0  0  0  0  0  0  0  0  0  0  0
   58.5188   29.2833   43.8020 H   0  0  0  0  0  0  0  0  0  0  0  0
  1  2  1  0
  2  3  1  0
  3  4  1  0
  4  5  1  0
  5  6  2  0
  5  7  1  0
  7  8  1  0
  8  9  1  0
  9 10  1  0
  9 11  2  0
 11 12  1  0
 12 13  1  0
 12 14  2  0
 14 15  1  0
 15 16  1  0
 15 17  1  0
 15 18  1  0
 14 19  1  0
 19 20  1  0
 20 21  2  0
 21 22  1  0
 21 23  1  0
 23 24  1  0
 24 25  2  0
 24 26  1  0
 26 27  1  0
 26 28  2  0
 28 29  1  0
 19 30  1  0
 30 31  2  0
 31 32  1  0
 31 33  1  0
  8  3  2  0
 30 11  1  0
 28 20  1  0
M  CHG  3   4  -1   7  -1  23  -1
M  END
>  <UniqueID>  (24) 
24

>  <SMILES>  (24) 
C=c1/c(=C/c2[n-]c(=O)[n-]c2O)cc(C)n1-c1ccc(=O)[n-]c1

>  <Energy>  (24) 
106.5219232777197

>  <Genealogy>  (24) 
C=c1c(=Cc2[n-]c(=O)[n-]c2O)cc(C)n1-c1ccc(=O)[n-]c1 (protonated)
C=c1/c(=C/c2[n-]c(=O)[n-]c2O)cc(C)n1-c1ccc(=O)[n-]c1 (cis-trans isomerization)
C=c1/c(=C/c2[n-]c(=O)[n-]c2O)cc(C)n1-c1ccc(=O)[n-]c1 (3D coordinates assigned)
C=c1/c(=C/c2[n-]c(=O)[n-]c2O)cc(C)n1-c1ccc(=O)[n-]c1 (optimized conformer: 106.5219232777197 kcal/mol)

>  <smiles>  (24) 
C=c1c(=Cc2[nH]c(=O)[nH]c2O)cc(C)n1-c1ccc(=O)[nH]c1

>  <score_type>  (24) 
oracle

>  <origin>  (24) 
adg

>  <m_score__min__energy>  (24) 
-12.68

>  <m_primary>  (24) 
energy

$$$$
24:0
     RDKit          3D

 47 50  0  0  0  0  0  0  0  0999 V2000
   58.4020   32.6660   43.5730 C   0  0  0  0  0  0  0  0  0  0  0  0
   57.3710   32.5780   45.0240 S   0  0  0  0  0  0  0  0  0  0  0  0
   56.3720   31.4670   44.8560 O   0  0  0  0  0  0  0  0  0  0  0  0
   56.6340   33.8830   45.1460 O   0  0  0  0  0  0  0  0  0  0  0  0
   58.3430   32.3080   46.4580 N   0  0  2  0  0  0  0  0  0  0  0  0
   58.5460   33.5850   47.1980 C   0  0  0  0  0  0  0  0  0  0  0  0
   59.8530   34.2960   46.8390 C   0  0  0  0  0  0  0  0  0  0  0  0
   60.9850   33.3700   47.1380 C   0  0  0  0  0  0  0  0  0  0  0  0
   62.1840   33.8220   47.6940 C   0  0  0  0  0  0  0  0  0  0  0  0
   63.2060   32.9040   47.9320 C   0  0  0  0  0  0  0  0  0  0  0  0
   64.2940   33.2780   48.4420 O   0  0  0  0  0  0  0  0  0  0  0  0
   63.0240   31.5990   47.6030 N   0  0  0  0  0  0  0  0  0  0  0  0
   61.8820   31.1710   47.0610 N   0  0  0  0  0  0  0  0  0  0  0  0
   60.8360   32.0170   46.8360 C   0  0  0  0  0  0  0  0  0  0  0  0
   59.5910   31.5440   46.1050 C   0  0  1  0  0  0  0  0  0  0  0  0
   59.3880   30.0470   46.3060 C   0  0  0  0  0  0  0  0  0  0  0  0
   59.6380   29.1470   45.2570 C   0  0  0  0  0  0  0  0  0  0  0  0
   59.4560   27.7730   45.4450 C   0  0  0  0  0  0  0  0  0  0  0  0
   59.0270   27.2740   46.6790 C   0  0  0  0  0  0  0  0  0  0  0  0
   58.8700   25.8850   46.8150 O   0  0  0  0  0  0  0  0  0  0  0  0
   58.8480   24.9490   45.7370 C   0  0  0  0  0  0  0  0  0  0  0  0
   57.4360   24.6260   45.3420 C   0  0  0  0  0  0  0  0  0  0  0  0
   57.1040   23.9130   44.1790 C   0  0  0  0  0  0  0  0  0  0  0  0
   55.7410   23.7130   44.0210 C   0  0  0  0  0  0  0  0  0  0  0  0
   54.9560   24.4130   45.3320 S   0  0  0  0  0  0  0  0  0  0  0  0
   56.3330   24.9770   46.1130 C   0  0  0  0  0  0  0  0  0  0  0  0
   58.7720   28.1740   47.7320 C   0  0  0  0  0  0  0  0  0  0  0  0
   58.9540   29.5460   47.5460 C   0  0  0  0  0  0  0  0  0  0  0  0
   59.4554   32.7559   43.8766 H   0  0  0  0  0  0  0  0  0  0  0  0
   58.2698   31.7533   42.9734 H   0  0  0  0  0  0  0  0  0  0  0  0
   58.1171   33.5431   42.9734 H   0  0  0  0  0  0  0  0  0  0  0  0
   57.7380   31.7200   47.0790 H   0  0  0  0  0  0  0  0  0  0  0  0
   57.7079   34.2588   46.9666 H   0  0  0  0  0  0  0  0  0  0  0  0
   58.5963   33.3351   48.2681 H   0  0  0  0  0  0  0  0  0  0  0  0
   59.8552   34.5536   45.7696 H   0  0  0  0  0  0  0  0  0  0  0  0
   59.9549   35.2220   47.4239 H   0  0  0  0  0  0  0  0  0  0  0  0
   62.3198   34.8855   47.9402 H   0  0  0  0  0  0  0  0  0  0  0  0
   59.7706   31.7494   45.0394 H   0  0  0  0  0  0  0  0  0  0  0  0
   59.9789   29.5250   44.2819 H   0  0  0  0  0  0  0  0  0  0  0  0
   59.6521   27.0786   44.6147 H   0  0  0  0  0  0  0  0  0  0  0  0
   59.3746   25.3809   44.8732 H   0  0  0  0  0  0  0  0  0  0  0  0
   59.3442   24.0230   46.0631 H   0  0  0  0  0  0  0  0  0  0  0  0
   57.8536   23.5479   43.4616 H   0  0  0  0  0  0  0  0  0  0  0  0
   55.2579   23.1879   43.1838 H   0  0  0  0  0  0  0  0  0  0  0  0
   56.3576   25.5266   47.0655 H   0  0  0  0  0  0  0  0  0  0  0  0
   58.4279   27.7944   48.7054 H   0  0  0  0  0  0  0  0  0  0  0  0
   58.7563   30.2402   48.3761 H   0  0  0  0  0  0  0  0  0  0  0  0
  1  2  1  0
  2  3  2  0
  2  4  2  0
  2  5  1  0
  5  6  1  0
  6  7  1  0
  7  8  1  0
  8  9  2  0
  9 10  1  0
 10 11  2  0
 10 12  1  0
 12 13  1  0
 13 14  2  0
 14 15  1  0
 15 16  1  0
 16 17  2  0
 17 18  1  0
 18 19  2  0
 19 20  1  0
 20 21  1  0
 21 22  1  0
 22 23  1  0
 23 24  2  0
 24 25  1  0
 25 26  1  0
 19 27  1  0
 27 28  2  0
 15  5  1  0
 28 16  1  0
 14  8  1  0
 26 22  2  0
  1 29  1  0
  1 30  1  0
  1 31  1  0
  5 32  1  1
  6 33  1  0
  6 34  1  0
  7 35  1  0
  7 36  1  0
  9 37  1  0
 15 38  1  6
 17 39  1  0
 18 40  1  0
 21 41  1  0
 21 42  1  0
 23 43  1  0
 24 44  1  0
 26 45  1  0
 27 46  1  0
 28 47  1  0
M  CHG  2   5   1  12  -1
M  END
>  <UniqueID>  (25) 
25

>  <SMILES>  (25) 
CS(=O)(=O)[N@@H+]1CCc2cc(=O)[n-]nc2[C@H]1c1ccc(OCc2ccsc2)cc1

>  <Energy>  (25) 
85.4147642222473

>  <Genealogy>  (25) 
CS(=O)(=O)[NH+]1CCc2cc(=O)[n-]nc2C1c1ccc(OCc2ccsc2)cc1 (protonated)
CS(=O)(=O)[N@@H+]1CCc2cc(=O)[n-]nc2[C@H]1c1ccc(OCc2ccsc2)cc1 (chirality)
CS(=O)(=O)[N@@H+]1CCc2cc(=O)[n-]nc2[C@H]1c1ccc(OCc2ccsc2)cc1 (3D coordinates assigned)
CS(=O)(=O)[N@@H+]1CCc2cc(=O)[n-]nc2[C@H]1c1ccc(OCc2ccsc2)cc1 (nonaromatic ring conformer: 85.4147642222473 kcal/mol)

>  <smiles>  (25) 
CS(=O)(=O)N1CCc2cc(=O)[nH]nc2C1c1ccc(OCc2ccsc2)cc1

>  <score_type>  (25) 
oracle

>  <origin>  (25) 
adg

>  <m_score__min__energy>  (25) 
-7.4299999999999997

>  <m_primary>  (25) 
energy

$$$$
25:0
     RDKit          3D

 60 63  0  0  0  0  0  0  0  0999 V2000
   58.8450   30.1220   52.5370 O   0  0  0  0  0  0  0  0  0  0  0  0
   57.9640   30.4390   51.6920 C   0  0  0  0  0  0  0  0  0  0  0  0
   56.5760   30.2980   52.0040 N   0  0  0  0  0  0  0  0  0  0  0  0
   55.6720   31.4210   52.2180 C   0  0  0  0  0  0  0  0  0  0  0  0
   54.2490   30.9800   52.0150 C   0  0  0  0  0  0  0  0  0  0  0  0
   53.8900   29.6440   52.2540 C   0  0  0  0  0  0  0  0  0  0  0  0
   52.5750   29.2200   52.0400 C   0  0  0  0  0  0  0  0  0  0  0  0
   51.6130   30.1240   51.5810 C   0  0  0  0  0  0  0  0  0  0  0  0
   51.9650   31.4550   51.3330 C   0  0  0  0  0  0  0  0  0  0  0  0
   51.0090   32.3520   50.8720 O   0  0  0  0  0  0  0  0  0  0  0  0
   53.2800   31.8830   51.5470 C   0  0  0  0  0  0  0  0  0  0  0  0
   58.3610   30.9470   50.3740 C   0  0  0  0  0  0  0  0  0  0  0  0
   57.7710   32.0150   49.7140 C   0  0  0  0  0  0  0  0  0  0  0  0
   58.3270   32.2700   48.4530 C   0  0  0  0  0  0  0  0  0  0  0  0
   57.8160   33.3390   47.5100 C   0  0  0  0  0  0  0  0  0  0  0  0
   58.8460   33.8960   46.5930 N   0  0  0  0  0  0  0  0  0  0  0  0
   59.7370   34.9230   47.1770 C   0  0  0  0  0  0  0  0  0  0  0  0
   60.5650   34.3760   48.3110 C   0  0  0  0  0  0  0  0  0  0  0  0
   60.0670   34.3310   49.4690 O   0  0  0  0  0  0  0  0  0  0  0  0
   61.8830   33.8450   48.0850 N   0  0  0  0  0  0  0  0  0  0  0  0
   62.7660   33.4420   49.1650 C   0  0  0  0  0  0  0  0  0  0  0  0
   64.0700   33.0290   48.4950 C   0  0  0  0  0  0  0  0  0  0  0  0
   63.7270   32.7970   47.0270 C   0  0  0  0  0  0  0  0  0  0  0  0
   62.4510   33.5880   46.7710 C   0  0  0  0  0  0  0  0  0  0  0  0
   59.5040   32.8990   45.7110 C   0  0  0  0  0  0  0  0  0  0  0  0
   58.5510   32.1400   44.8170 C   0  0  0  0  0  0  0  0  0  0  0  0
   58.2610   32.6120   43.5230 C   0  0  0  0  0  0  0  0  0  0  0  0
   57.3770   31.9090   42.6970 C   0  0  0  0  0  0  0  0  0  0  0  0
   56.7890   30.7240   43.1470 C   0  0  0  0  0  0  0  0  0  0  0  0
   57.0940   30.2320   44.4190 C   0  0  0  0  0  0  0  0  0  0  0  0
   57.9810   30.9280   45.2460 C   0  0  0  0  0  0  0  0  0  0  0  0
   59.3720   31.4070   48.1280 C   0  0  0  0  0  0  0  0  0  0  0  0
   59.5880   30.3300   49.4040 S   0  0  0  0  0  0  0  0  0  0  0  0
   55.7942   31.7968   53.2446 H   0  0  0  0  0  0  0  0  0  0  0  0
   55.9095   32.2186   51.4986 H   0  0  0  0  0  0  0  0  0  0  0  0
   54.6456   28.9286   52.6107 H   0  0  0  0  0  0  0  0  0  0  0  0
   52.2971   28.1733   52.2332 H   0  0  0  0  0  0  0  0  0  0  0  0
   50.5786   29.7888   51.4147 H   0  0  0  0  0  0  0  0  0  0  0  0
   53.5556   32.9292   51.3483 H   0  0  0  0  0  0  0  0  0  0  0  0
   56.9460   32.6051   50.1395 H   0  0  0  0  0  0  0  0  0  0  0  0
   57.0120   32.9025   46.8991 H   0  0  0  0  0  0  0  0  0  0  0  0
   57.4732   34.1735   48.1393 H   0  0  0  0  0  0  0  0  0  0  0  0
   60.4120   35.2949   46.3921 H   0  0  0  0  0  0  0  0  0  0  0  0
   59.1066   35.7310   47.5767 H   0  0  0  0  0  0  0  0  0  0  0  0
   62.9376   34.2818   49.8544 H   0  0  0  0  0  0  0  0  0  0  0  0
   62.3355   32.6218   49.7583 H   0  0  0  0  0  0  0  0  0  0  0  0
   64.8201   33.8277   48.5916 H   0  0  0  0  0  0  0  0  0  0  0  0
   64.4959   32.1271   48.9589 H   0  0  0  0  0  0  0  0  0  0  0  0
   64.5397   33.1609   46.3812 H   0  0  0  0  0  0  0  0  0  0  0  0
   63.5927   31.7279   46.8059 H   0  0  0  0  0  0  0  0  0  0  0  0
   62.6814   34.5344   46.2600 H   0  0  0  0  0  0  0  0  0  0  0  0
   61.7519   33.0369   46.1249 H   0  0  0  0  0  0  0  0  0  0  0  0
   60.2287   33.4269   45.0737 H   0  0  0  0  0  0  0  0  0  0  0  0
   59.9783   32.1572   46.3704 H   0  0  0  0  0  0  0  0  0  0  0  0
   58.7314   33.5375   43.1595 H   0  0  0  0  0  0  0  0  0  0  0  0
   57.1445   32.2899   41.6916 H   0  0  0  0  0  0  0  0  0  0  0  0
   56.0862   30.1785   42.5002 H   0  0  0  0  0  0  0  0  0  0  0  0
   56.6356   29.2958   44.7701 H   0  0  0  0  0  0  0  0  0  0  0  0
   58.2344   30.5253   46.2378 H   0  0  0  0  0  0  0  0  0  0  0  0
   59.9563   31.4262   47.1962 H   0  0  0  0  0  0  0  0  0  0  0  0
  1  2  2  0
  2  3  1  0
  3  4  1  0
  4  5  1  0
  5  6  2  0
  6  7  1  0
  7  8  2  0
  8  9  1  0
  9 10  1  0
  9 11  2  0
  2 12  1  0
 12 13  2  0
 13 14  1  0
 14 15  1  0
 15 16  1  0
 16 17  1  0
 17 18  1  0
 18 19  2  0
 18 20  1  0
 20 21  1  0
 21 22  1  0
 22 23  1  0
 23 24  1  0
 16 25  1  0
 25 26  1  0
 26 27  2  0
 27 28  1  0
 28 29  2  0
 29 30  1  0
 30 31  2  0
 14 32  2  0
 32 33  1  0
 11  5  1  0
 33 12  1  0
 24 20  1  0
 31 26  1  0
  4 34  1  0
  4 35  1  0
  6 36  1  0
  7 37  1  0
  8 38  1  0
 11 39  1  0
 13 40  1  0
 15 41  1  0
 15 42  1  0
 17 43  1  0
 17 44  1  0
 21 45  1  0
 21 46  1  0
 22 47  1  0
 22 48  1  0
 23 49  1  0
 23 50  1  0
 24 51  1  0
 24 52  1  0
 25 53  1  0
 25 54  1  0
 27 55  1  0
 28 56  1  0
 29 57  1  0
 30 58  1  0
 31 59  1  0
 32 60  1  0
M  CHG  2   3  -1  10  -1
M  END
>  <UniqueID>  (26) 
26

>  <SMILES>  (26) 
O=C([N-]Cc1cccc([O-])c1)c1cc(CN(CC(=O)N2CCCC2)Cc2ccccc2)cs1

>  <Energy>  (26) 
92.21560729801864

>  <Genealogy>  (26) 
O=C([N-]Cc1cccc([O-])c1)c1cc(CN(CC(=O)N2CCCC2)Cc2ccccc2)cs1 (protonated)
O=C([N-]Cc1cccc([O-])c1)c1cc(CN(CC(=O)N2CCCC2)Cc2ccccc2)cs1 (3D coordinates assigned)
O=C([N-]Cc1cccc([O-])c1)c1cc(CN(CC(=O)N2CCCC2)Cc2ccccc2)cs1 (nonaromatic ring conformer: 92.21560729801864 kcal/mol)

>  <smiles>  (26) 
O=C(NCc1cccc(O)c1)c1cc(CN(CC(=O)N2CCCC2)Cc2ccccc2)cs1

>  <score_type>  (26) 
oracle

>  <origin>  (26) 
adg

>  <m_score__min__energy>  (26) 
-14.56

>  <m_primary>  (26) 
energy

$$$$
26:0
     RDKit          3D

 57 59  0  0  0  0  0  0  0  0999 V2000
   59.9070   29.1210   52.0370 C   0  0  0  0  0  0  0  0  0  0  0  0
   59.3620   29.4560   50.6800 C   0  0  0  0  0  0  0  0  0  0  0  0
   58.1360   29.7130   50.5640 O   0  0  0  0  0  0  0  0  0  0  0  0
   60.1830   29.4570   49.5040 N   0  0  0  0  0  0  0  0  0  0  0  0
   59.8190   28.9700   48.2050 C   0  0  0  0  0  0  0  0  0  0  0  0
   58.6580   28.1990   48.0750 C   0  0  0  0  0  0  0  0  0  0  0  0
   58.2920   27.6740   46.8330 C   0  0  0  0  0  0  0  0  0  0  0  0
   59.0630   27.9500   45.6920 C   0  0  0  0  0  0  0  0  0  0  0  0
   58.6640   27.3820   44.3490 C   0  0  0  0  0  0  0  0  0  0  0  0
   57.6460   28.2000   43.6660 N   0  0  0  0  0  0  0  0  0  0  0  0
   57.7450   29.6390   43.9720 C   0  0  0  0  0  0  0  0  0  0  0  0
   56.4610   30.1740   44.5590 C   0  0  0  0  0  0  0  0  0  0  0  0
   55.5540   29.3640   44.8850 O   0  0  0  0  0  0  0  0  0  0  0  0
   56.2760   31.5630   44.8530 N   0  0  0  0  0  0  0  0  0  0  0  0
   57.2890   32.4990   45.2440 C   0  0  0  0  0  0  0  0  0  0  0  0
   57.6370   33.5940   44.4380 C   0  0  0  0  0  0  0  0  0  0  0  0
   58.5930   34.5140   44.8800 C   0  0  0  0  0  0  0  0  0  0  0  0
   59.1910   34.3600   46.1340 C   0  0  0  0  0  0  0  0  0  0  0  0
   58.8300   33.2850   46.9580 C   0  0  0  0  0  0  0  0  0  0  0  0
   59.5380   33.1110   48.5660 S   0  0  0  0  0  0  0  0  0  0  0  0
   58.6170   32.2920   49.4280 O   0  0  0  0  0  0  0  0  0  0  0  0
   59.6700   34.4720   49.1930 O   0  0  0  0  0  0  0  0  0  0  0  0
   61.1010   32.3240   48.5130 N   0  0  0  0  0  0  0  0  0  0  0  0
   62.0120   32.8240   49.5690 C   0  0  0  0  0  0  0  0  0  0  0  0
   63.4750   32.8710   49.1210 C   0  0  0  0  0  0  0  0  0  0  0  0
   63.6090   33.7800   47.8980 C   0  0  0  0  0  0  0  0  0  0  0  0
   62.5800   33.4510   46.7970 C   0  0  0  0  0  0  0  0  0  0  0  0
   61.6580   32.2660   47.1430 C   0  0  0  0  0  0  0  0  0  0  0  0
   57.8750   32.3640   46.5070 C   0  0  0  0  0  0  0  0  0  0  0  0
   60.1920   28.7780   45.8100 C   0  0  0  0  0  0  0  0  0  0  0  0
   60.5690   29.2840   47.0590 C   0  0  0  0  0  0  0  0  0  0  0  0
   59.2410   29.5304   52.8109 H   0  0  0  0  0  0  0  0  0  0  0  0
   59.9695   28.0284   52.1475 H   0  0  0  0  0  0  0  0  0  0  0  0
   60.9101   29.5587   52.1475 H   0  0  0  0  0  0  0  0  0  0  0  0
   58.0295   28.0051   48.9567 H   0  0  0  0  0  0  0  0  0  0  0  0
   57.3959   27.0416   46.7485 H   0  0  0  0  0  0  0  0  0  0  0  0
   59.5579   27.3270   43.7104 H   0  0  0  0  0  0  0  0  0  0  0  0
   58.2283   26.3874   44.5248 H   0  0  0  0  0  0  0  0  0  0  0  0
   56.6890   27.8170   43.8620 H   0  0  0  0  0  0  0  0  0  0  0  0
   58.5596   29.7947   44.6947 H   0  0  0  0  0  0  0  0  0  0  0  0
   57.9433   30.1767   43.0331 H   0  0  0  0  0  0  0  0  0  0  0  0
   57.1572   33.7287   43.4574 H   0  0  0  0  0  0  0  0  0  0  0  0
   58.8754   35.3618   44.2386 H   0  0  0  0  0  0  0  0  0  0  0  0
   59.9462   35.0836   46.4748 H   0  0  0  0  0  0  0  0  0  0  0  0
   61.6985   33.8400   49.8507 H   0  0  0  0  0  0  0  0  0  0  0  0
   61.9489   32.1260   50.4168 H   0  0  0  0  0  0  0  0  0  0  0  0
   64.0958   33.2646   49.9393 H   0  0  0  0  0  0  0  0  0  0  0  0
   63.8095   31.8562   48.8599 H   0  0  0  0  0  0  0  0  0  0  0  0
   63.4625   34.8226   48.2166 H   0  0  0  0  0  0  0  0  0  0  0  0
   64.6116   33.6216   47.4742 H   0  0  0  0  0  0  0  0  0  0  0  0
   61.9544   34.3402   46.6299 H   0  0  0  0  0  0  0  0  0  0  0  0
   63.1497   33.1633   45.9011 H   0  0  0  0  0  0  0  0  0  0  0  0
   60.8217   32.2569   46.4285 H   0  0  0  0  0  0  0  0  0  0  0  0
   62.2712   31.3546   47.0843 H   0  0  0  0  0  0  0  0  0  0  0  0
   57.5824   31.5242   47.1544 H   0  0  0  0  0  0  0  0  0  0  0  0
   60.7822   29.0296   44.9165 H   0  0  0  0  0  0  0  0  0  0  0  0
   61.4555   29.9297   47.1440 H   0  0  0  0  0  0  0  0  0  0  0  0
  1  2  1  0
  2  3  2  0
  2  4  1  0
  4  5  1  0
  5  6  2  0
  6  7  1  0
  7  8  2  0
  8  9  1  0
  9 10  1  0
 10 11  1  0
 11 12  1  0
 12 13  2  0
 12 14  1  0
 14 15  1  0
 15 16  2  0
 16 17  1  0
 17 18  2  0
 18 19  1  0
 19 20  1  0
 20 21  2  0
 20 22  2  0
 20 23  1  0
 23 24  1  0
 24 25  1  0
 25 26  1  0
 26 27  1  0
 27 28  1  0
 19 29  2  0
  8 30  1  0
 30 31  2  0
 31  5  1  0
 29 15  1  0
 28 23  1  0
  1 32  1  0
  1 33  1  0
  1 34  1  0
  6 35  1  0
  7 36  1  0
  9 37  1  0
  9 38  1  0
 10 39  1  0
 11 40  1  0
 11 41  1  0
 16 42  1  0
 17 43  1  0
 18 44  1  0
 24 45  1  0
 24 46  1  0
 25 47  1  0
 25 48  1  0
 26 49  1  0
 26 50  1  0
 27 51  1  0
 27 52  1  0
 28 53  1  0
 28 54  1  0
 29 55  1  0
 30 56  1  0
 31 57  1  0
M  CHG  2   4  -1  14  -1
M  END
>  <UniqueID>  (27) 
27

>  <SMILES>  (27) 
CC(=O)[N-]c1ccc(CNCC(=O)[N-]c2cccc(S(=O)(=O)N3CCCCC3)c2)cc1

>  <Energy>  (27) 
68.75229808780662

>  <Genealogy>  (27) 
CC(=O)[N-]c1ccc(CNCC(=O)[N-]c2cccc(S(=O)(=O)N3CCCCC3)c2)cc1 (protonated)
CC(=O)[N-]c1ccc(CNCC(=O)[N-]c2cccc(S(=O)(=O)N3CCCCC3)c2)cc1 (3D coordinates assigned)
CC(=O)[N-]c1ccc(CNCC(=O)[N-]c2cccc(S(=O)(=O)N3CCCCC3)c2)cc1 (nonaromatic ring conformer: 68.75229808780662 kcal/mol)

>  <smiles>  (27) 
CC(=O)Nc1ccc(CNCC(=O)Nc2cccc(S(=O)(=O)N3CCCCC3)c2)cc1

>  <score_type>  (27) 
oracle

>  <origin>  (27) 
adg

>  <m_score__min__energy>  (27) 
-12.960000000000001

>  <m_primary>  (27) 
energy

$$$$
27:0
     RDKit          3D

 39 41  0  0  0  0  0  0  0  0999 V2000
   59.0960   23.6955   45.6923 H   0  0  0  0  0  0  0  0  0  0  0  0
   59.6250   24.6200   45.9670 C   0  0  0  0  0  0  0  0  0  0  0  0
   60.5984   24.5660   46.4766 H   0  0  0  0  0  0  0  0  0  0  0  0
   59.0800   25.8200   45.6790 C   0  0  0  0  0  0  0  0  0  0  0  0
   59.8130   26.9610   46.0600 C   0  0  0  0  0  0  0  0  0  0  0  0
   60.8050   26.8353   46.5183 H   0  0  0  0  0  0  0  0  0  0  0  0
   59.3090   28.2430   45.8690 C   0  0  0  0  0  0  0  0  0  0  0  0
   59.9022   29.1144   46.1833 H   0  0  0  0  0  0  0  0  0  0  0  0
   58.0550   28.4340   45.2810 C   0  0  0  0  0  0  0  0  0  0  0  0
   57.5130   29.8000   45.0480 C   0  0  0  0  0  0  0  0  0  0  0  0
   56.2650   29.9440   44.9140 O   0  0  0  0  0  0  0  0  0  0  0  0
   58.3760   30.9630   44.9610 N   0  0  0  0  0  0  0  0  0  0  0  0
   59.2920   30.6710   44.5500 H   0  0  0  0  0  0  0  0  0  0  0  0
   57.7690   31.9450   44.0250 C   0  0  0  0  0  0  0  0  0  0  0  0
   57.8674   31.5632   42.9981 H   0  0  0  0  0  0  0  0  0  0  0  0
   56.7129   32.0710   44.3058 H   0  0  0  0  0  0  0  0  0  0  0  0
   58.4450   33.3180   44.1080 C   0  0  0  0  0  0  0  0  0  0  0  0
   59.4907   33.2307   43.7780 H   0  0  0  0  0  0  0  0  0  0  0  0
   57.9094   34.0264   43.4589 H   0  0  0  0  0  0  0  0  0  0  0  0
   58.4090   33.8170   45.5210 C   0  0  0  0  0  0  0  0  0  0  0  0
   58.6540   34.9870   45.7690 O   0  0  0  0  0  0  0  0  0  0  0  0
   58.0540   32.8650   46.6240 C   0  0  0  0  0  0  0  0  0  0  0  0
   58.4389   33.2486   47.5804 H   0  0  0  0  0  0  0  0  0  0  0  0
   56.9607   32.7633   46.6897 H   0  0  0  0  0  0  0  0  0  0  0  0
   58.6860   31.4960   46.3260 C   0  0  0  0  0  0  0  0  0  0  0  0
   59.7778   31.5919   46.4196 H   0  0  0  0  0  0  0  0  0  0  0  0
   58.2583   30.7853   47.0485 H   0  0  0  0  0  0  0  0  0  0  0  0
   57.3220   27.3120   44.8640 C   0  0  0  0  0  0  0  0  0  0  0  0
   56.3481   27.4631   44.3754 H   0  0  0  0  0  0  0  0  0  0  0  0
   57.7980   25.9900   45.0530 C   0  0  0  0  0  0  0  0  0  0  0  0
   57.0700   24.9330   44.5960 C   0  0  0  0  0  0  0  0  0  0  0  0
   57.5301   24.3080   43.8164 H   0  0  0  0  0  0  0  0  0  0  0  0
   55.7160   24.5500   45.0540 C   0  0  0  0  0  0  0  0  0  0  0  0
   55.1230   23.3630   44.8200 N   0  0  0  0  0  0  0  0  0  0  0  0
   53.8780   23.5320   45.3160 C   0  0  0  0  0  0  0  0  0  0  0  0
   53.0120   22.6190   45.2950 O   0  0  0  0  0  0  0  0  0  0  0  0
   53.6320   24.7560   45.8280 N   0  0  0  0  0  0  0  0  0  0  0  0
   54.8000   25.3910   45.6420 C   0  0  0  0  0  0  0  0  0  0  0  0
   55.0260   26.7150   46.0000 O   0  0  0  0  0  0  0  0  0  0  0  0
  1  2  1  0
  2  3  1  0
  2  4  2  0
  4  5  1  0
  5  6  1  0
  5  7  2  0
  7  8  1  0
  7  9  1  0
  9 10  1  0
 10 11  2  0
 10 12  1  0
 12 13  1  0
 12 14  1  0
 14 15  1  0
 14 16  1  0
 14 17  1  0
 17 18  1  0
 17 19  1  0
 17 20  1  0
 20 21  2  0
 20 22  1  0
 22 23  1  0
 22 24  1  0
 22 25  1  0
 25 26  1  0
 25 27  1  0
  9 28  2  0
 28 29  1  0
 28 30  1  0
 30 31  2  0
 31 32  1  0
 31 33  1  0
 33 34  1  0
 34 35  1  0
 35 36  2  0
 35 37  1  0
 37 38  1  0
 38 39  1  0
 30  4  1  0
 38 33  2  0
 25 12  1  0
M  CHG  4  12   1  34  -1  37  -1  39  -1
M  END
>  <UniqueID>  (28) 
28

>  <SMILES>  (28) 
C=c1ccc(C(=O)[NH+]2CCC(=O)CC2)c/c1=C\c1[n-]c(=O)[n-]c1[O-]

>  <Energy>  (28) 
96.8063391677668

>  <Genealogy>  (28) 
C=c1ccc(C(=O)[NH+]2CCC(=O)CC2)cc1=Cc1[n-]c(=O)[n-]c1[O-] (protonated)
C=c1ccc(C(=O)[NH+]2CCC(=O)CC2)c/c1=C\c1[n-]c(=O)[n-]c1[O-] (cis-trans isomerization)
C=c1ccc(C(=O)[NH+]2CCC(=O)CC2)c/c1=C\c1[n-]c(=O)[n-]c1[O-] (3D coordinates assigned)
C=c1ccc(C(=O)[NH+]2CCC(=O)CC2)c/c1=C\c1[n-]c(=O)[n-]c1[O-] (nonaromatic ring conformer: 96.8063391677668 kcal/mol)

>  <smiles>  (28) 
C=c1ccc(C(=O)N2CCC(=O)CC2)cc1=Cc1[nH]c(=O)[nH]c1O

>  <score_type>  (28) 
oracle

>  <origin>  (28) 
adg

>  <m_score__min__energy>  (28) 
-15.48

>  <m_primary>  (28) 
energy

$$$$
28:0
     RDKit          3D

 57 60  0  0  0  0  0  0  0  0999 V2000
   55.1460   26.6560   46.0110 N   0  0  0  0  0  0  0  0  0  0  0  0
   56.2710   25.8710   46.3980 C   0  0  0  0  0  0  0  0  0  0  0  0
   56.0790   24.7160   46.8640 O   0  0  0  0  0  0  0  0  0  0  0  0
   57.6500   26.3940   46.2410 C   0  0  0  0  0  0  0  0  0  0  0  0
   58.7560   25.5280   46.3050 C   0  0  0  0  0  0  0  0  0  0  0  0
   60.0530   26.0290   46.1730 C   0  0  0  0  0  0  0  0  0  0  0  0
   60.2670   27.3960   45.9780 C   0  0  0  0  0  0  0  0  0  0  0  0
   59.1780   28.2820   45.9060 C   0  0  0  0  0  0  0  0  0  0  0  0
   59.3970   29.7330   45.6940 C   0  0  0  0  0  0  0  0  0  0  0  0
   60.2230   30.3570   46.4150 O   0  0  0  0  0  0  0  0  0  0  0  0
   58.6870   30.4310   44.6640 N   0  0  0  0  0  0  0  0  0  0  0  0
   57.6680   31.4410   44.9270 C   0  0  0  0  0  0  0  0  0  0  0  0
   58.3120   32.7210   45.3860 C   0  0  0  0  0  0  0  0  0  0  0  0
   58.4860   33.7910   44.4940 C   0  0  0  0  0  0  0  0  0  0  0  0
   59.1360   34.9560   44.9100 C   0  0  0  0  0  0  0  0  0  0  0  0
   59.6110   35.0670   46.2190 C   0  0  0  0  0  0  0  0  0  0  0  0
   59.4320   34.0120   47.1220 C   0  0  0  0  0  0  0  0  0  0  0  0
   59.9060   34.1450   48.5090 C   0  0  0  0  0  0  0  0  0  0  0  0
   59.3850   35.0330   49.2350 O   0  0  0  0  0  0  0  0  0  0  0  0
   60.9180   33.2630   49.0430 N   0  0  0  0  0  0  0  0  0  0  0  0
   61.4500   32.1660   48.2150 C   0  0  0  0  0  0  0  0  0  0  0  0
   62.4270   31.2770   48.9950 C   0  0  0  0  0  0  0  0  0  0  0  0
   61.8850   30.9680   50.3260 N   0  0  0  0  0  0  0  0  0  0  0  0
   62.1310   29.6730   50.9190 C   0  0  0  0  0  0  0  0  0  0  0  0
   63.2510   29.4770   51.7490 C   0  0  0  0  0  0  0  0  0  0  0  0
   63.5100   28.2210   52.3090 C   0  0  0  0  0  0  0  0  0  0  0  0
   62.6550   27.1470   52.0490 C   0  0  0  0  0  0  0  0  0  0  0  0
   61.5370   27.3270   51.2280 C   0  0  0  0  0  0  0  0  0  0  0  0
   61.2750   28.5810   50.6600 C   0  0  0  0  0  0  0  0  0  0  0  0
   60.2150   28.7070   49.8240 F   0  0  0  0  0  0  0  0  0  0  0  0
   61.2830   32.0380   51.1390 C   0  0  0  0  0  0  0  0  0  0  0  0
   61.3770   33.3960   50.4350 C   0  0  0  0  0  0  0  0  0  0  0  0
   58.7960   32.8340   46.7000 C   0  0  0  0  0  0  0  0  0  0  0  0
   57.8710   27.7700   46.0370 C   0  0  0  0  0  0  0  0  0  0  0  0
   54.8450   26.7010   45.0120 H   0  0  0  0  0  0  0  0  0  0  0  0
   58.5989   24.4503   46.4598 H   0  0  0  0  0  0  0  0  0  0  0  0
   60.9115   25.3431   46.2229 H   0  0  0  0  0  0  0  0  0  0  0  0
   61.2929   27.7808   45.8803 H   0  0  0  0  0  0  0  0  0  0  0  0
   57.0982   31.6309   44.0055 H   0  0  0  0  0  0  0  0  0  0  0  0
   56.9946   31.0748   45.7159 H   0  0  0  0  0  0  0  0  0  0  0  0
   58.1092   33.7120   43.4636 H   0  0  0  0  0  0  0  0  0  0  0  0
   59.2741   35.7884   44.2043 H   0  0  0  0  0  0  0  0  0  0  0  0
   60.1262   35.9841   46.5407 H   0  0  0  0  0  0  0  0  0  0  0  0
   60.6109   31.5477   47.8634 H   0  0  0  0  0  0  0  0  0  0  0  0
   61.9971   32.6124   47.3715 H   0  0  0  0  0  0  0  0  0  0  0  0
   62.5858   30.3398   48.4414 H   0  0  0  0  0  0  0  0  0  0  0  0
   63.3811   31.8117   49.1127 H   0  0  0  0  0  0  0  0  0  0  0  0
   63.9281   30.3180   51.9591 H   0  0  0  0  0  0  0  0  0  0  0  0
   64.3887   28.0789   52.9553 H   0  0  0  0  0  0  0  0  0  0  0  0
   62.8610   26.1604   52.4897 H   0  0  0  0  0  0  0  0  0  0  0  0
   60.8617   26.4821   51.0277 H   0  0  0  0  0  0  0  0  0  0  0  0
   60.2239   31.7996   51.3166 H   0  0  0  0  0  0  0  0  0  0  0  0
   61.8336   32.1020   52.0891 H   0  0  0  0  0  0  0  0  0  0  0  0
   60.7440   34.1257   50.9611 H   0  0  0  0  0  0  0  0  0  0  0  0
   62.4215   33.7407   50.4440 H   0  0  0  0  0  0  0  0  0  0  0  0
   58.6760   31.9953   47.4015 H   0  0  0  0  0  0  0  0  0  0  0  0
   57.0119   28.4546   45.9791 H   0  0  0  0  0  0  0  0  0  0  0  0
  1  2  1  0
  2  3  2  0
  2  4  1  0
  4  5  2  0
  5  6  1  0
  6  7  2  0
  7  8  1  0
  8  9  1  0
  9 10  2  0
  9 11  1  0
 11 12  1  0
 12 13  1  0
 13 14  2  0
 14 15  1  0
 15 16  2  0
 16 17  1  0
 17 18  1  0
 18 19  2  0
 18 20  1  0
 20 21  1  0
 21 22  1  0
 22 23  1  0
 23 24  1  0
 24 25  2  0
 25 26  1  0
 26 27  2  0
 27 28  1  0
 28 29  2  0
 29 30  1  0
 23 31  1  0
 31 32  1  0
 17 33  2  0
  8 34  2  0
 34  4  1  0
 33 13  1  0
 32 20  1  0
 29 24  1  0
  1 35  1  0
  5 36  1  0
  6 37  1  0
  7 38  1  0
 12 39  1  0
 12 40  1  0
 14 41  1  0
 15 42  1  0
 16 43  1  0
 21 44  1  0
 21 45  1  0
 22 46  1  0
 22 47  1  0
 25 48  1  0
 26 49  1  0
 27 50  1  0
 28 51  1  0
 31 52  1  0
 31 53  1  0
 32 54  1  0
 32 55  1  0
 33 56  1  0
 34 57  1  0
M  CHG  2   1  -1  11  -1
M  END
>  <UniqueID>  (29) 
29

>  <SMILES>  (29) 
[NH-]C(=O)c1cccc(C(=O)[N-]Cc2cccc(C(=O)N3CCN(c4ccccc4F)CC3)c2)c1

>  <Energy>  (29) 
72.17974252910814

>  <Genealogy>  (29) 
[NH-]C(=O)c1cccc(C(=O)[N-]Cc2cccc(C(=O)N3CCN(c4ccccc4F)CC3)c2)c1 (protonated)
[NH-]C(=O)c1cccc(C(=O)[N-]Cc2cccc(C(=O)N3CCN(c4ccccc4F)CC3)c2)c1 (3D coordinates assigned)
[NH-]C(=O)c1cccc(C(=O)[N-]Cc2cccc(C(=O)N3CCN(c4ccccc4F)CC3)c2)c1 (nonaromatic ring conformer: 72.17974252910814 kcal/mol)

>  <smiles>  (29) 
NC(=O)c1cccc(C(=O)NCc2cccc(C(=O)N3CCN(c4ccccc4F)CC3)c2)c1

>  <score_type>  (29) 
oracle

>  <origin>  (29) 
adg

>  <m_score__min__energy>  (29) 
-13.85

>  <m_primary>  (29) 
energy

$$$$
29:0
     RDKit          3D

 62 65  0  0  0  0  0  0  0  0999 V2000
   56.1710   26.0690   45.6650 C   0  0  0  0  0  0  0  0  0  0  0  0
   55.8020   27.4430   45.6230 O   0  0  0  0  0  0  0  0  0  0  0  0
   56.6620   28.4850   45.2360 C   0  0  0  0  0  0  0  0  0  0  0  0
   56.2720   29.4700   44.3030 C   0  0  0  0  0  0  0  0  0  0  0  0
   57.1690   30.4670   43.9120 C   0  0  0  0  0  0  0  0  0  0  0  0
   58.4640   30.4900   44.4340 C   0  0  0  0  0  0  0  0  0  0  0  0
   58.8600   29.5220   45.3600 C   0  0  0  0  0  0  0  0  0  0  0  0
   57.9590   28.5350   45.7810 C   0  0  0  0  0  0  0  0  0  0  0  0
   58.4020   27.5470   46.7170 N   0  0  0  0  0  0  0  0  0  0  0  0
   59.4490   27.7490   47.6750 C   0  0  0  0  0  0  0  0  0  0  0  0
   60.5500   27.1610   47.5070 O   0  0  0  0  0  0  0  0  0  0  0  0
   59.3000   28.7170   48.8150 C   0  0  0  0  0  0  0  0  0  0  0  0
   60.8090   29.7300   48.9930 S   0  0  0  0  0  0  0  0  0  0  0  0
   60.1730   31.1110   48.0380 C   0  0  0  0  0  0  0  0  0  0  0  0
   58.8470   31.4070   47.9940 N   0  0  0  0  0  0  0  0  0  0  0  0
   58.8060   32.4740   47.1770 C   0  0  0  0  0  0  0  0  0  0  0  0
   57.6810   33.1930   46.7770 C   0  0  0  0  0  0  0  0  0  0  0  0
   57.8750   34.2830   45.9100 C   0  0  0  0  0  0  0  0  0  0  0  0
   59.1740   34.6240   45.4660 C   0  0  0  0  0  0  0  0  0  0  0  0
   60.2900   33.8790   45.8900 C   0  0  0  0  0  0  0  0  0  0  0  0
   60.0610   32.8050   46.7520 C   0  0  0  0  0  0  0  0  0  0  0  0
   60.9440   31.9490   47.2940 N   0  0  0  0  0  0  0  0  0  0  0  0
   62.4050   31.9630   47.1540 C   0  0  0  0  0  0  0  0  0  0  0  0
   62.9780   33.3520   47.4780 C   0  0  0  0  0  0  0  0  0  0  0  0
   63.7020   33.4100   48.8310 C   0  0  0  0  0  0  0  0  0  0  0  0
   62.7790   33.8510   49.9310 C   0  0  0  0  0  0  0  0  0  0  0  0
   62.9690   34.9600   50.5000 O   0  0  0  0  0  0  0  0  0  0  0  0
   61.6650   33.0300   50.3040 N   0  0  0  0  0  0  0  0  0  0  0  0
   60.6900   33.4540   51.3160 C   0  0  0  0  0  0  0  0  0  0  0  0
   59.3460   33.7610   50.6590 C   0  0  0  0  0  0  0  0  0  0  0  0
   58.5130   32.4810   50.7500 C   0  0  0  0  0  0  0  0  0  0  0  0
   59.2590   31.5220   51.6770 C   0  0  0  0  0  0  0  0  0  0  0  0
   60.3970   32.3220   52.2950 C   0  0  0  0  0  0  0  0  0  0  0  0
   56.2581   25.7446   46.7125 H   0  0  0  0  0  0  0  0  0  0  0  0
   55.4026   25.4673   45.1575 H   0  0  0  0  0  0  0  0  0  0  0  0
   57.1374   25.9332   45.1575 H   0  0  0  0  0  0  0  0  0  0  0  0
   55.2561   29.4524   43.8815 H   0  0  0  0  0  0  0  0  0  0  0  0
   56.8544   31.2359   43.1911 H   0  0  0  0  0  0  0  0  0  0  0  0
   59.1718   31.2698   44.1162 H   0  0  0  0  0  0  0  0  0  0  0  0
   59.8843   29.5347   45.7607 H   0  0  0  0  0  0  0  0  0  0  0  0
   58.4417   29.3768   48.6202 H   0  0  0  0  0  0  0  0  0  0  0  0
   59.1390   28.1510   49.7444 H   0  0  0  0  0  0  0  0  0  0  0  0
   56.6755   32.9172   47.1276 H   0  0  0  0  0  0  0  0  0  0  0  0
   57.0104   34.8747   45.5747 H   0  0  0  0  0  0  0  0  0  0  0  0
   59.3127   35.4767   44.7851 H   0  0  0  0  0  0  0  0  0  0  0  0
   61.3061   34.1337   45.5544 H   0  0  0  0  0  0  0  0  0  0  0  0
   62.8393   31.2251   47.8446 H   0  0  0  0  0  0  0  0  0  0  0  0
   62.6589   31.7141   46.1130 H   0  0  0  0  0  0  0  0  0  0  0  0
   63.6918   33.6282   46.6879 H   0  0  0  0  0  0  0  0  0  0  0  0
   62.1294   34.0498   47.5324 H   0  0  0  0  0  0  0  0  0  0  0  0
   64.0917   32.4097   49.0710 H   0  0  0  0  0  0  0  0  0  0  0  0
   64.5203   34.1410   48.7534 H   0  0  0  0  0  0  0  0  0  0  0  0
   61.5080   32.1350   49.7830 H   0  0  0  0  0  0  0  0  0  0  0  0
   61.1211   34.3311   51.8208 H   0  0  0  0  0  0  0  0  0  0  0  0
   58.8416   34.5808   51.1914 H   0  0  0  0  0  0  0  0  0  0  0  0
   59.4781   34.0751   49.6131 H   0  0  0  0  0  0  0  0  0  0  0  0
   57.5186   32.7069   51.1625 H   0  0  0  0  0  0  0  0  0  0  0  0
   58.3742   32.0336   49.7547 H   0  0  0  0  0  0  0  0  0  0  0  0
   58.5847   31.1501   52.4625 H   0  0  0  0  0  0  0  0  0  0  0  0
   59.6380   30.6483   51.1265 H   0  0  0  0  0  0  0  0  0  0  0  0
   60.0932   32.7288   53.2708 H   0  0  0  0  0  0  0  0  0  0  0  0
   61.2849   31.6958   52.4667 H   0  0  0  0  0  0  0  0  0  0  0  0
  1  2  1  0
  2  3  1  0
  3  4  2  0
  4  5  1  0
  5  6  2  0
  6  7  1  0
  7  8  2  0
  8  9  1  0
  9 10  1  0
 10 11  2  0
 10 12  1  0
 12 13  1  0
 13 14  1  0
 14 15  2  0
 15 16  1  0
 16 17  2  0
 17 18  1  0
 18 19  2  0
 19 20  1  0
 20 21  2  0
 21 22  1  0
 22 23  1  0
 23 24  1  0
 24 25  1  0
 25 26  1  0
 26 27  2  0
 26 28  1  0
 28 29  1  0
 29 30  1  0
 30 31  1  0
 31 32  1  0
 32 33  1  0
  8  3  1  0
 22 14  1  0
 33 29  1  0
 21 16  1  0
  1 34  1  0
  1 35  1  0
  1 36  1  0
  4 37  1  0
  5 38  1  0
  6 39  1  0
  7 40  1  0
 12 41  1  0
 12 42  1  0
 17 43  1  0
 18 44  1  0
 19 45  1  0
 20 46  1  0
 23 47  1  0
 23 48  1  0
 24 49  1  0
 24 50  1  0
 25 51  1  0
 25 52  1  0
 28 53  1  0
 29 54  1  0
 30 55  1  0
 30 56  1  0
 31 57  1  0
 31 58  1  0
 32 59  1  0
 32 60  1  0
 33 61  1  0
 33 62  1  0
M  CHG  1   9  -1
M  END
>  <UniqueID>  (30) 
30

>  <SMILES>  (30) 
COc1ccccc1[N-]C(=O)CSc1nc2ccccc2n1CCCC(=O)NC1CCCC1

>  <Energy>  (30) 
96.35955375475976

>  <Genealogy>  (30) 
COc1ccccc1[N-]C(=O)CSc1nc2ccccc2n1CCCC(=O)NC1CCCC1 (protonated)
COc1ccccc1[N-]C(=O)CSc1nc2ccccc2n1CCCC(=O)NC1CCCC1 (3D coordinates assigned)
COc1ccccc1[N-]C(=O)CSc1nc2ccccc2n1CCCC(=O)NC1CCCC1 (nonaromatic ring conformer: 96.35955375475976 kcal/mol)

>  <smiles>  (30) 
COc1ccccc1NC(=O)CSc1nc2ccccc2n1CCCC(=O)NC1CCCC1

>  <score_type>  (30) 
oracle

>  <origin>  (30) 
adg

>  <m_score__min__energy>  (30) 
-11.789999999999999

>  <m_primary>  (30) 
energy

$$$$
30:0
     RDKit          3D

 60 63  0  0  0  0  0  0  0  0999 V2000
   58.1840   33.3470   44.0990 C   0  0  0  0  0  0  0  0  0  0  0  0
   58.1590   31.8400   43.8010 C   0  0  0  0  0  0  0  0  0  0  0  0
   58.2420   30.9970   45.0290 N   0  0  1  0  0  0  0  0  0  0  0  0
   58.1300   31.7950   46.2830 C   0  0  0  0  0  0  0  0  0  0  0  0
   59.0670   31.3280   47.3830 C   0  0  0  0  0  0  0  0  0  0  0  0
   59.0640   30.1140   47.7110 O   0  0  0  0  0  0  0  0  0  0  0  0
   59.8840   32.2440   48.1260 N   0  0  0  0  0  0  0  0  0  0  0  0
   59.3580   33.1270   49.1640 C   0  0  0  0  0  0  0  0  0  0  0  0
   60.4350   34.2170   49.3780 C   0  0  0  0  0  0  0  0  0  0  0  0
   61.5890   33.7100   48.5920 C   0  0  0  0  0  0  0  0  0  0  0  0
   62.9040   34.1800   48.6020 C   0  0  0  0  0  0  0  0  0  0  0  0
   63.8800   33.4650   47.8890 C   0  0  0  0  0  0  0  0  0  0  0  0
   63.5350   32.2840   47.2080 C   0  0  0  0  0  0  0  0  0  0  0  0
   62.2130   31.8180   47.2350 C   0  0  0  0  0  0  0  0  0  0  0  0
   61.2420   32.5870   47.8930 C   0  0  0  0  0  0  0  0  0  0  0  0
   57.2920   29.8890   45.0250 C   0  0  0  0  0  0  0  0  0  0  0  0
   56.0620   30.1120   44.8510 O   0  0  0  0  0  0  0  0  0  0  0  0
   57.6930   28.5030   45.3400 C   0  0  0  0  0  0  0  0  0  0  0  0
   56.7080   27.5390   45.5890 C   0  0  0  0  0  0  0  0  0  0  0  0
   57.0670   26.2080   45.8290 C   0  0  0  0  0  0  0  0  0  0  0  0
   55.8160   24.9890   46.0880 S   0  0  0  0  0  0  0  0  0  0  0  0
   54.4640   25.6270   45.9200 O   0  0  0  0  0  0  0  0  0  0  0  0
   55.9140   24.4680   47.4940 O   0  0  0  0  0  0  0  0  0  0  0  0
   55.9650   23.6540   44.9710 N   0  0  0  0  0  0  0  0  0  0  0  0
   56.3560   24.1310   43.6370 C   0  0  0  0  0  0  0  0  0  0  0  0
   56.5530   22.9360   42.6770 C   0  0  0  0  0  0  0  0  0  0  0  0
   56.2540   21.7110   43.3150 O   0  0  0  0  0  0  0  0  0  0  0  0
   57.1020   21.5320   44.4310 C   0  0  0  0  0  0  0  0  0  0  0  0
   56.9450   22.6700   45.4600 C   0  0  0  0  0  0  0  0  0  0  0  0
   58.4230   25.8470   45.8430 C   0  0  0  0  0  0  0  0  0  0  0  0
   59.4090   26.8080   45.6060 C   0  0  0  0  0  0  0  0  0  0  0  0
   59.0500   28.1320   45.3510 C   0  0  0  0  0  0  0  0  0  0  0  0
   60.0410   29.0740   45.0980 O   0  0  0  0  0  0  0  0  0  0  0  0
   58.1866   33.5055   45.1875 H   0  0  0  0  0  0  0  0  0  0  0  0
   59.0897   33.7923   43.6614 H   0  0  0  0  0  0  0  0  0  0  0  0
   57.2936   33.8221   43.6614 H   0  0  0  0  0  0  0  0  0  0  0  0
   57.2216   31.6027   43.2767 H   0  0  0  0  0  0  0  0  0  0  0  0
   59.0438   31.6131   43.1881 H   0  0  0  0  0  0  0  0  0  0  0  0
   59.1900   30.5500   45.0360 H   0  0  0  0  0  0  0  0  0  0  0  0
   58.3623   32.8446   46.0499 H   0  0  0  0  0  0  0  0  0  0  0  0
   57.1032   31.6685   46.6568 H   0  0  0  0  0  0  0  0  0  0  0  0
   58.4122   33.5827   48.8357 H   0  0  0  0  0  0  0  0  0  0  0  0
   59.1484   32.5778   50.0938 H   0  0  0  0  0  0  0  0  0  0  0  0
   60.0935   35.1900   48.9951 H   0  0  0  0  0  0  0  0  0  0  0  0
   60.6748   34.3854   50.4383 H   0  0  0  0  0  0  0  0  0  0  0  0
   63.1699   35.0917   49.1571 H   0  0  0  0  0  0  0  0  0  0  0  0
   64.9174   33.8298   47.8631 H   0  0  0  0  0  0  0  0  0  0  0  0
   64.3033   31.7252   46.6535 H   0  0  0  0  0  0  0  0  0  0  0  0
   61.9428   30.8684   46.7499 H   0  0  0  0  0  0  0  0  0  0  0  0
   55.6471   27.8296   45.5959 H   0  0  0  0  0  0  0  0  0  0  0  0
   55.5679   24.7884   43.2412 H   0  0  0  0  0  0  0  0  0  0  0  0
   57.3029   24.6849   43.7182 H   0  0  0  0  0  0  0  0  0  0  0  0
   55.8883   23.0599   41.8093 H   0  0  0  0  0  0  0  0  0  0  0  0
   57.6061   22.9148   42.3601 H   0  0  0  0  0  0  0  0  0  0  0  0
   56.8541   20.5766   44.9166 H   0  0  0  0  0  0  0  0  0  0  0  0
   58.1422   21.5365   44.0733 H   0  0  0  0  0  0  0  0  0  0  0  0
   56.5968   22.2521   46.4161 H   0  0  0  0  0  0  0  0  0  0  0  0
   57.9163   23.1659   45.6036 H   0  0  0  0  0  0  0  0  0  0  0  0
   58.7106   24.8039   46.0412 H   0  0  0  0  0  0  0  0  0  0  0  0
   60.4706   26.5202   45.6205 H   0  0  0  0  0  0  0  0  0  0  0  0
  1  2  1  0
  2  3  1  0
  3  4  1  0
  4  5  1  0
  5  6  2  0
  5  7  1  0
  7  8  1  0
  8  9  1  0
  9 10  1  0
 10 11  2  0
 11 12  1  0
 12 13  2  0
 13 14  1  0
 14 15  2  0
  3 16  1  0
 16 17  2  0
 16 18  1  0
 18 19  2  0
 19 20  1  0
 20 21  1  0
 21 22  2  0
 21 23  2  0
 21 24  1  0
 24 25  1  0
 25 26  1  0
 26 27  1  0
 27 28  1  0
 28 29  1  0
 20 30  2  0
 30 31  1  0
 31 32  2  0
 32 33  1  0
 15  7  1  0
 32 18  1  0
 15 10  1  0
 29 24  1  0
  1 34  1  0
  1 35  1  0
  1 36  1  0
  2 37  1  0
  2 38  1  0
  3 39  1  1
  4 40  1  0
  4 41  1  0
  8 42  1  0
  8 43  1  0
  9 44  1  0
  9 45  1  0
 11 46  1  0
 12 47  1  0
 13 48  1  0
 14 49  1  0
 19 50  1  0
 25 51  1  0
 25 52  1  0
 26 53  1  0
 26 54  1  0
 28 55  1  0
 28 56  1  0
 29 57  1  0
 29 58  1  0
 30 59  1  0
 31 60  1  0
M  CHG  2   3   1  33  -1
M  END
>  <UniqueID>  (31) 
31

>  <SMILES>  (31) 
CC[N@@H+](CC(=O)N1CCc2ccccc21)C(=O)c1cc(S(=O)(=O)N2CCOCC2)ccc1[O-]

>  <Energy>  (31) 
100.6266589922789

>  <Genealogy>  (31) 
CC[NH+](CC(=O)N1CCc2ccccc21)C(=O)c1cc(S(=O)(=O)N2CCOCC2)ccc1[O-] (protonated)
CC[N@@H+](CC(=O)N1CCc2ccccc21)C(=O)c1cc(S(=O)(=O)N2CCOCC2)ccc1[O-] (chirality)
CC[N@@H+](CC(=O)N1CCc2ccccc21)C(=O)c1cc(S(=O)(=O)N2CCOCC2)ccc1[O-] (3D coordinates assigned)
CC[N@@H+](CC(=O)N1CCc2ccccc21)C(=O)c1cc(S(=O)(=O)N2CCOCC2)ccc1[O-] (nonaromatic ring conformer: 100.6266589922789 kcal/mol)

>  <smiles>  (31) 
CCN(CC(=O)N1CCc2ccccc21)C(=O)c1cc(S(=O)(=O)N2CCOCC2)ccc1O

>  <score_type>  (31) 
oracle

>  <origin>  (31) 
adg

>  <m_score__min__energy>  (31) 
-9.9299999999999997

>  <m_primary>  (31) 
energy

$$$$
31:0
     RDKit          3D

 42 45  0  0  0  0  0  0  0  0999 V2000
   55.9000   30.1620   43.3130 C   0  0  0  0  0  0  0  0  0  0  0  0
   56.7950   29.7760   44.2330 C   0  0  0  0  0  0  0  0  0  0  0  0
   56.6270   28.4950   44.8590 N   0  0  0  0  0  0  0  0  0  0  0  0
   57.4780   28.0560   45.9320 C   0  0  0  0  0  0  0  0  0  0  0  0
   57.1960   26.8700   46.6550 C   0  0  0  0  0  0  0  0  0  0  0  0
   56.0570   26.0930   46.4350 O   0  0  0  0  0  0  0  0  0  0  0  0
   58.0800   26.4540   47.6470 C   0  0  0  0  0  0  0  0  0  0  0  0
   59.1740   27.1930   47.9480 N   0  0  0  0  0  0  0  0  0  0  0  0
   59.4770   28.3430   47.2930 C   0  0  0  0  0  0  0  0  0  0  0  0
   60.6080   29.1050   47.7350 N   0  0  0  0  0  0  0  0  0  0  0  0
   61.0250   29.2400   49.1360 C   0  0  0  0  0  0  0  0  0  0  0  0
   61.2850   30.6850   49.5320 C   0  0  0  0  0  0  0  0  0  0  0  0
   60.0810   29.9490   50.0990 C   0  0  0  0  0  0  0  0  0  0  0  0
   58.6300   28.8050   46.2560 C   0  0  0  0  0  0  0  0  0  0  0  0
   58.9250   30.0390   45.4800 C   0  0  0  0  0  0  0  0  0  0  0  0
   60.0550   30.5880   45.5750 O   0  0  0  0  0  0  0  0  0  0  0  0
   57.9330   30.5980   44.5940 N   0  0  0  0  0  0  0  0  0  0  0  0
   58.0610   32.0020   44.1560 C   0  0  0  0  0  0  0  0  0  0  0  0
   58.4390   32.8880   45.3150 C   0  0  0  0  0  0  0  0  0  0  0  0
   59.3550   33.9400   45.1430 C   0  0  0  0  0  0  0  0  0  0  0  0
   59.7060   34.7530   46.2270 C   0  0  0  0  0  0  0  0  0  0  0  0
   59.1540   34.5160   47.4880 C   0  0  0  0  0  0  0  0  0  0  0  0
   58.2520   33.4640   47.6710 C   0  0  0  0  0  0  0  0  0  0  0  0
   57.8980   32.6490   46.5900 C   0  0  0  0  0  0  0  0  0  0  0  0
   56.0060   31.1389   42.8185 H   0  0  0  0  0  0  0  0  0  0  0  0
   55.0595   29.5019   43.0524 H   0  0  0  0  0  0  0  0  0  0  0  0
   55.8840   27.8660   44.4870 H   0  0  0  0  0  0  0  0  0  0  0  0
   55.1330   26.3240   46.7710 H   0  0  0  0  0  0  0  0  0  0  0  0
   57.8881   25.5172   48.1907 H   0  0  0  0  0  0  0  0  0  0  0  0
   61.2890   29.4240   47.0100 H   0  0  0  0  0  0  0  0  0  0  0  0
   61.5573   28.2784   49.1810 H   0  0  0  0  0  0  0  0  0  0  0  0
   62.1357   30.9316   50.1843 H   0  0  0  0  0  0  0  0  0  0  0  0
   61.4323   31.6267   48.9830 H   0  0  0  0  0  0  0  0  0  0  0  0
   60.0612   29.6626   51.1609 H   0  0  0  0  0  0  0  0  0  0  0  0
   58.9976   30.1370   50.1298 H   0  0  0  0  0  0  0  0  0  0  0  0
   58.8388   32.0693   43.3811 H   0  0  0  0  0  0  0  0  0  0  0  0
   57.0933   32.3374   43.7547 H   0  0  0  0  0  0  0  0  0  0  0  0
   59.7976   34.1251   44.1531 H   0  0  0  0  0  0  0  0  0  0  0  0
   60.4176   35.5798   46.0856 H   0  0  0  0  0  0  0  0  0  0  0  0
   59.4294   35.1578   48.3378 H   0  0  0  0  0  0  0  0  0  0  0  0
   57.8202   33.2767   48.6652 H   0  0  0  0  0  0  0  0  0  0  0  0
   57.1932   31.8176   46.7388 H   0  0  0  0  0  0  0  0  0  0  0  0
  1  2  2  0
  2  3  1  0
  3  4  1  0
  4  5  2  0
  5  6  1  0
  5  7  1  0
  7  8  2  0
  8  9  1  0
  9 10  1  0
 10 11  1  0
 11 12  1  0
 12 13  1  0
  9 14  2  0
 14 15  1  0
 15 16  2  0
 15 17  1  0
 17 18  1  0
 18 19  1  0
 19 20  2  0
 20 21  1  0
 21 22  2  0
 22 23  1  0
 23 24  2  0
 17  2  1  0
 24 19  1  0
 14  4  1  0
 13 11  1  0
  1 25  1  0
  1 26  1  0
  3 27  1  0
  6 28  1  0
  7 29  1  0
 10 30  1  0
 11 31  1  0
 12 32  1  0
 12 33  1  0
 13 34  1  0
 13 35  1  0
 18 36  1  0
 18 37  1  0
 20 38  1  0
 21 39  1  0
 22 40  1  0
 23 41  1  0
 24 42  1  0
M  END
>  <UniqueID>  (32) 
32

>  <SMILES>  (32) 
C=C1Nc2c(O)cnc(NC3CC3)c2C(=O)N1Cc1ccccc1

>  <Energy>  (32) 
327.02776243915395

>  <Genealogy>  (32) 
C=C1Nc2c(O)cnc(NC3CC3)c2C(=O)N1Cc1ccccc1 (3D coordinates assigned)
C=C1Nc2c(O)cnc(NC3CC3)c2C(=O)N1Cc1ccccc1 (nonaromatic ring conformer: 327.02776243915395 kcal/mol)

>  <smiles>  (32) 
C=C1Nc2c(O)cnc(NC3CC3)c2C(=O)N1Cc1ccccc1

>  <score_type>  (32) 
oracle

>  <origin>  (32) 
adg

>  <m_score__min__energy>  (32) 
-7.5899999999999999

>  <m_primary>  (32) 
energy

$$$$
32:0
     RDKit          3D

 62 65  0  0  0  0  0  0  0  0999 V2000
   61.9140   30.5360   49.6600 C   0  0  0  0  0  0  0  0  0  0  0  0
   61.4150   31.6380   48.7170 C   0  0  0  0  0  0  0  0  0  0  0  0
   62.4950   32.0120   47.6990 C   0  0  0  0  0  0  0  0  0  0  0  0
   61.9340   33.0520   46.7230 C   0  0  0  0  0  0  0  0  0  0  0  0
   61.3130   34.2210   47.3900 N   0  0  0  0  0  0  0  0  0  0  0  0
   59.7400   34.6280   46.7380 S   0  0  0  0  0  0  0  0  0  0  0  0
   58.9240   35.2930   47.8110 O   0  0  0  0  0  0  0  0  0  0  0  0
   59.9000   35.6060   45.6060 O   0  0  0  0  0  0  0  0  0  0  0  0
   58.8740   33.2090   46.1470 C   0  0  0  0  0  0  0  0  0  0  0  0
   58.2690   33.2270   44.8840 C   0  0  0  0  0  0  0  0  0  0  0  0
   57.6030   32.0980   44.4040 C   0  0  0  0  0  0  0  0  0  0  0  0
   57.5020   30.9390   45.1960 C   0  0  0  0  0  0  0  0  0  0  0  0
   56.7950   29.7340   44.6960 C   0  0  0  0  0  0  0  0  0  0  0  0
   55.5430   29.6530   44.8250 O   0  0  0  0  0  0  0  0  0  0  0  0
   57.5000   28.6200   44.1290 N   0  0  0  0  0  0  0  0  0  0  0  0
   58.3970   27.7560   44.8390 C   0  0  0  0  0  0  0  0  0  0  0  0
   59.4940   28.2700   45.5580 C   0  0  0  0  0  0  0  0  0  0  0  0
   60.3240   27.4110   46.2830 C   0  0  0  0  0  0  0  0  0  0  0  0
   60.0650   26.0370   46.2970 C   0  0  0  0  0  0  0  0  0  0  0  0
   58.9810   25.5130   45.5710 C   0  0  0  0  0  0  0  0  0  0  0  0
   58.5790   23.8010   45.6670 S   0  0  0  0  0  0  0  0  0  0  0  0
   57.8670   23.5140   46.9630 O   0  0  0  0  0  0  0  0  0  0  0  0
   59.8490   22.9970   45.6290 O   0  0  0  0  0  0  0  0  0  0  0  0
   57.5610   23.3660   44.3160 N   0  0  0  0  0  0  0  0  0  0  0  0
   56.1680   23.7620   44.5840 C   0  0  0  0  0  0  0  0  0  0  0  0
   55.2440   23.2990   43.4420 C   0  0  0  0  0  0  0  0  0  0  0  0
   55.9590   22.5970   42.4410 O   0  0  0  0  0  0  0  0  0  0  0  0
   56.6140   21.4800   43.0110 C   0  0  0  0  0  0  0  0  0  0  0  0
   57.6420   21.9160   44.0760 C   0  0  0  0  0  0  0  0  0  0  0  0
   58.1590   26.3760   44.8340 C   0  0  0  0  0  0  0  0  0  0  0  0
   58.1110   30.9250   46.4620 C   0  0  0  0  0  0  0  0  0  0  0  0
   58.7850   32.0520   46.9360 C   0  0  0  0  0  0  0  0  0  0  0  0
   61.3380   34.2240   48.8680 C   0  0  0  0  0  0  0  0  0  0  0  0
   60.9320   32.8780   49.5050 C   0  0  0  0  0  0  0  0  0  0  0  0
   61.7703   30.8534   50.7034 H   0  0  0  0  0  0  0  0  0  0  0  0
   61.3466   29.6117   49.4765 H   0  0  0  0  0  0  0  0  0  0  0  0
   62.9830   30.3526   49.4765 H   0  0  0  0  0  0  0  0  0  0  0  0
   60.5497   31.2435   48.1641 H   0  0  0  0  0  0  0  0  0  0  0  0
   63.3649   32.4330   48.2244 H   0  0  0  0  0  0  0  0  0  0  0  0
   62.8036   31.1143   47.1431 H   0  0  0  0  0  0  0  0  0  0  0  0
   62.7569   33.4113   46.0876 H   0  0  0  0  0  0  0  0  0  0  0  0
   61.1424   32.5547   46.1432 H   0  0  0  0  0  0  0  0  0  0  0  0
   58.3189   34.1361   44.2667 H   0  0  0  0  0  0  0  0  0  0  0  0
   57.1541   32.1143   43.3999 H   0  0  0  0  0  0  0  0  0  0  0  0
   59.6978   29.3509   45.5486 H   0  0  0  0  0  0  0  0  0  0  0  0
   61.1805   27.8154   46.8423 H   0  0  0  0  0  0  0  0  0  0  0  0
   60.7119   25.3634   46.8783 H   0  0  0  0  0  0  0  0  0  0  0  0
   55.8363   23.3020   45.5266 H   0  0  0  0  0  0  0  0  0  0  0  0
   56.1188   24.8584   44.6579 H   0  0  0  0  0  0  0  0  0  0  0  0
   54.4690   22.6376   43.8566 H   0  0  0  0  0  0  0  0  0  0  0  0
   54.7956   24.1913   42.9808 H   0  0  0  0  0  0  0  0  0  0  0  0
   55.8645   20.8273   43.4825 H   0  0  0  0  0  0  0  0  0  0  0  0
   57.1479   20.9454   42.2115 H   0  0  0  0  0  0  0  0  0  0  0  0
   57.4363   21.3826   45.0158 H   0  0  0  0  0  0  0  0  0  0  0  0
   58.6515   21.6741   43.7123 H   0  0  0  0  0  0  0  0  0  0  0  0
   57.3223   25.9673   44.2484 H   0  0  0  0  0  0  0  0  0  0  0  0
   58.0564   30.0195   47.0842 H   0  0  0  0  0  0  0  0  0  0  0  0
   59.2488   32.0329   47.9333 H   0  0  0  0  0  0  0  0  0  0  0  0
   62.3591   34.4681   49.1963 H   0  0  0  0  0  0  0  0  0  0  0  0
   60.5981   34.9683   49.1975 H   0  0  0  0  0  0  0  0  0  0  0  0
   61.3587   32.8320   50.5178 H   0  0  0  0  0  0  0  0  0  0  0  0
   59.8325   32.8455   49.5067 H   0  0  0  0  0  0  0  0  0  0  0  0
  1  2  1  0
  2  3  1  0
  3  4  1  0
  4  5  1  0
  5  6  1  0
  6  7  2  0
  6  8  2  0
  6  9  1  0
  9 10  2  0
 10 11  1  0
 11 12  2  0
 12 13  1  0
 13 14  2  0
 13 15  1  0
 15 16  1  0
 16 17  2  0
 17 18  1  0
 18 19  2  0
 19 20  1  0
 20 21  1  0
 21 22  2  0
 21 23  2  0
 21 24  1  0
 24 25  1  0
 25 26  1  0
 26 27  1  0
 27 28  1  0
 28 29  1  0
 20 30  2  0
 12 31  1  0
 31 32  2  0
  5 33  1  0
 33 34  1  0
 34  2  1  0
 32  9  1  0
 30 16  1  0
 29 24  1  0
  1 35  1  0
  1 36  1  0
  1 37  1  0
  2 38  1  0
  3 39  1  0
  3 40  1  0
  4 41  1  0
  4 42  1  0
 10 43  1  0
 11 44  1  0
 17 45  1  0
 18 46  1  0
 19 47  1  0
 25 48  1  0
 25 49  1  0
 26 50  1  0
 26 51  1  0
 28 52  1  0
 28 53  1  0
 29 54  1  0
 29 55  1  0
 30 56  1  0
 31 57  1  0
 32 58  1  0
 33 59  1  0
 33 60  1  0
 34 61  1  0
 34 62  1  0
M  CHG  1  15  -1
M  END
>  <UniqueID>  (33) 
33

>  <SMILES>  (33) 
CC1CCN(S(=O)(=O)c2ccc(C(=O)[N-]c3cccc(S(=O)(=O)N4CCOCC4)c3)cc2)CC1

>  <Energy>  (33) 
84.02299631651594

>  <Genealogy>  (33) 
CC1CCN(S(=O)(=O)c2ccc(C(=O)[N-]c3cccc(S(=O)(=O)N4CCOCC4)c3)cc2)CC1 (protonated)
CC1CCN(S(=O)(=O)c2ccc(C(=O)[N-]c3cccc(S(=O)(=O)N4CCOCC4)c3)cc2)CC1 (3D coordinates assigned)
CC1CCN(S(=O)(=O)c2ccc(C(=O)[N-]c3cccc(S(=O)(=O)N4CCOCC4)c3)cc2)CC1 (nonaromatic ring conformer: 84.02299631651594 kcal/mol)

>  <smiles>  (33) 
CC1CCN(S(=O)(=O)c2ccc(C(=O)Nc3cccc(S(=O)(=O)N4CCOCC4)c3)cc2)CC1

>  <score_type>  (33) 
oracle

>  <origin>  (33) 
adg

>  <m_score__min__energy>  (33) 
-13.25

>  <m_primary>  (33) 
energy

$$$$
33:0
     RDKit          3D

 62 66  0  0  0  0  0  0  0  0999 V2000
   61.3790   31.4790   47.3320 O   0  0  0  0  0  0  0  0  0  0  0  0
   60.2370   32.0090   47.3910 C   0  0  0  0  0  0  0  0  0  0  0  0
   59.9120   32.8910   48.4780 N   0  0  0  0  0  0  0  0  0  0  0  0
   60.8630   33.2910   49.4800 C   0  0  0  0  0  0  0  0  0  0  0  0
   61.9520   34.1160   49.1410 C   0  0  0  0  0  0  0  0  0  0  0  0
   62.8470   34.5390   50.1270 C   0  0  0  0  0  0  0  0  0  0  0  0
   62.6590   34.1570   51.4570 C   0  0  0  0  0  0  0  0  0  0  0  0
   61.5690   33.3580   51.8080 C   0  0  0  0  0  0  0  0  0  0  0  0
   60.6690   32.9220   50.8260 C   0  0  0  0  0  0  0  0  0  0  0  0
   59.5950   32.0460   51.1930 N   0  0  0  0  0  0  0  0  0  0  0  0
   58.3650   32.6430   51.7280 C   0  0  0  0  0  0  0  0  0  0  0  0
   57.3450   31.5830   52.1400 C   0  0  0  0  0  0  0  0  0  0  0  0
   57.3900   30.4850   51.2570 O   0  0  0  0  0  0  0  0  0  0  0  0
   58.5870   29.7710   51.4750 C   0  0  0  0  0  0  0  0  0  0  0  0
   59.8180   30.5980   51.0820 C   0  0  0  0  0  0  0  0  0  0  0  0
   59.2620   31.7360   46.3100 C   0  0  0  0  0  0  0  0  0  0  0  0
   58.8410   30.4110   46.1020 C   0  0  0  0  0  0  0  0  0  0  0  0
   57.9210   30.1160   45.0790 C   0  0  0  0  0  0  0  0  0  0  0  0
   57.4360   28.7730   44.8630 N   0  0  0  0  0  0  0  0  0  0  0  0
   57.4050   28.2210   43.5050 C   0  0  0  0  0  0  0  0  0  0  0  0
   58.0970   26.8670   43.4960 C   0  0  0  0  0  0  0  0  0  0  0  0
   57.4930   25.9580   44.4870 N   0  0  0  0  0  0  0  0  0  0  0  0
   57.5460   24.5290   44.2530 C   0  0  0  0  0  0  0  0  0  0  0  0
   58.4500   23.7110   44.9600 C   0  0  0  0  0  0  0  0  0  0  0  0
   58.4440   22.3260   44.7780 C   0  0  0  0  0  0  0  0  0  0  0  0
   57.5330   21.7360   43.8960 C   0  0  0  0  0  0  0  0  0  0  0  0
   56.6470   22.5350   43.1730 C   0  0  0  0  0  0  0  0  0  0  0  0
   56.6530   23.9210   43.3470 C   0  0  0  0  0  0  0  0  0  0  0  0
   56.6390   26.5040   45.5550 C   0  0  0  0  0  0  0  0  0  0  0  0
   57.0980   27.9060   46.0030 C   0  0  0  0  0  0  0  0  0  0  0  0
   57.4670   31.1270   44.2910 N   0  0  0  0  0  0  0  0  0  0  0  0
   57.8360   32.4180   44.4780 C   0  0  0  0  0  0  0  0  0  0  0  0
   58.7150   32.7580   45.5070 C   0  0  0  0  0  0  0  0  0  0  0  0
   58.9880   34.4630   45.8240 Cl  0  0  0  0  0  0  0  0  0  0  0  0
   58.9240   33.1900   48.6030 H   0  0  0  0  0  0  0  0  0  0  0  0
   62.0988   34.4286   48.0966 H   0  0  0  0  0  0  0  0  0  0  0  0
   63.7023   35.1749   49.8548 H   0  0  0  0  0  0  0  0  0  0  0  0
   63.3703   34.4859   52.2289 H   0  0  0  0  0  0  0  0  0  0  0  0
   61.4162   33.0698   52.8585 H   0  0  0  0  0  0  0  0  0  0  0  0
   58.6196   33.2516   52.6082 H   0  0  0  0  0  0  0  0  0  0  0  0
   57.9138   33.2579   50.9353 H   0  0  0  0  0  0  0  0  0  0  0  0
   57.5734   31.2376   53.1591 H   0  0  0  0  0  0  0  0  0  0  0  0
   56.3386   32.0256   52.1063 H   0  0  0  0  0  0  0  0  0  0  0  0
   58.6578   29.5102   52.5413 H   0  0  0  0  0  0  0  0  0  0  0  0
   58.5665   28.8663   50.8496 H   0  0  0  0  0  0  0  0  0  0  0  0
   60.6526   30.3201   51.7424 H   0  0  0  0  0  0  0  0  0  0  0  0
   60.0392   30.3786   50.0270 H   0  0  0  0  0  0  0  0  0  0  0  0
   59.2312   29.6040   46.7396 H   0  0  0  0  0  0  0  0  0  0  0  0
   56.3607   28.1019   43.1807 H   0  0  0  0  0  0  0  0  0  0  0  0
   57.9249   28.9047   42.8178 H   0  0  0  0  0  0  0  0  0  0  0  0
   58.0025   26.4215   42.4947 H   0  0  0  0  0  0  0  0  0  0  0  0
   59.1561   27.0132   43.7546 H   0  0  0  0  0  0  0  0  0  0  0  0
   59.1656   24.1665   45.6603 H   0  0  0  0  0  0  0  0  0  0  0  0
   59.1581   21.6974   45.3302 H   0  0  0  0  0  0  0  0  0  0  0  0
   57.5151   20.6431   43.7725 H   0  0  0  0  0  0  0  0  0  0  0  0
   55.9430   22.0731   42.4652 H   0  0  0  0  0  0  0  0  0  0  0  0
   55.9536   24.5447   42.7710 H   0  0  0  0  0  0  0  0  0  0  0  0
   55.6056   26.5706   45.1840 H   0  0  0  0  0  0  0  0  0  0  0  0
   56.7084   25.8310   46.4223 H   0  0  0  0  0  0  0  0  0  0  0  0
   56.2869   28.3771   46.5776 H   0  0  0  0  0  0  0  0  0  0  0  0
   58.0045   27.7844   46.6141 H   0  0  0  0  0  0  0  0  0  0  0  0
   57.4404   33.2016   43.8151 H   0  0  0  0  0  0  0  0  0  0  0  0
  1  2  2  0
  2  3  1  0
  3  4  1  0
  4  5  2  0
  5  6  1  0
  6  7  2  0
  7  8  1  0
  8  9  2  0
  9 10  1  0
 10 11  1  0
 11 12  1  0
 12 13  1  0
 13 14  1  0
 14 15  1  0
  2 16  1  0
 16 17  2  0
 17 18  1  0
 18 19  1  0
 19 20  1  0
 20 21  1  0
 21 22  1  0
 22 23  1  0
 23 24  2  0
 24 25  1  0
 25 26  2  0
 26 27  1  0
 27 28  2  0
 22 29  1  0
 29 30  1  0
 18 31  2  0
 31 32  1  0
 32 33  2  0
 33 34  1  0
  9  4  1  0
 15 10  1  0
 33 16  1  0
 30 19  1  0
 28 23  1  0
  3 35  1  0
  5 36  1  0
  6 37  1  0
  7 38  1  0
  8 39  1  0
 11 40  1  0
 11 41  1  0
 12 42  1  0
 12 43  1  0
 14 44  1  0
 14 45  1  0
 15 46  1  0
 15 47  1  0
 17 48  1  0
 20 49  1  0
 20 50  1  0
 21 51  1  0
 21 52  1  0
 24 53  1  0
 25 54  1  0
 26 55  1  0
 27 56  1  0
 28 57  1  0
 29 58  1  0
 29 59  1  0
 30 60  1  0
 30 61  1  0
 32 62  1  0
M  END
>  <UniqueID>  (34) 
34

>  <SMILES>  (34) 
O=C(Nc1ccccc1N1CCOCC1)c1cc(N2CCN(c3ccccc3)CC2)ncc1Cl

>  <Energy>  (34) 
94.07186025084005

>  <Genealogy>  (34) 
O=C(Nc1ccccc1N1CCOCC1)c1cc(N2CCN(c3ccccc3)CC2)ncc1Cl (3D coordinates assigned)
O=C(Nc1ccccc1N1CCOCC1)c1cc(N2CCN(c3ccccc3)CC2)ncc1Cl (nonaromatic ring conformer: 94.07186025084005 kcal/mol)

>  <smiles>  (34) 
O=C(Nc1ccccc1N1CCOCC1)c1cc(N2CCN(c3ccccc3)CC2)ncc1Cl

>  <score_type>  (34) 
oracle

>  <origin>  (34) 
adg

>  <m_score__min__energy>  (34) 
-8.6400000000000006

>  <m_primary>  (34) 
energy

$$$$
34:0
     RDKit          3D

 62 64  0  0  0  0  0  0  0  0999 V2000
   65.5050   32.2780   49.7290 N   0  0  0  0  0  0  0  0  0  0  0  0
   64.5030   32.7150   49.3540 C   0  0  0  0  0  0  0  0  0  0  0  0
   63.2540   33.2550   48.8830 C   0  0  0  0  0  0  0  0  0  0  0  0
   63.1220   33.6830   47.5640 C   0  0  0  0  0  0  0  0  0  0  0  0
   61.9380   34.1790   47.1310 N   0  0  0  0  0  0  0  0  0  0  0  0
   60.8380   34.2930   47.9280 C   0  0  0  0  0  0  0  0  0  0  0  0
   59.7690   34.8070   47.3770 N   0  0  0  0  0  0  0  0  0  0  0  0
   59.2390   34.7240   46.0160 C   0  0  0  0  0  0  0  0  0  0  0  0
   58.4740   33.4010   45.8020 C   0  0  1  0  0  0  0  0  0  0  0  0
   57.7800   33.3630   44.4160 C   0  0  0  0  0  0  0  0  0  0  0  0
   57.4670   31.9270   43.9480 C   0  0  0  0  0  0  0  0  0  0  0  0
   57.3710   31.0000   45.0900 N   0  0  1  0  0  0  0  0  0  0  0  0
   56.7620   29.4430   44.5820 S   0  0  0  0  0  0  0  0  0  0  0  0
   55.2730   29.3970   44.7940 O   0  0  0  0  0  0  0  0  0  0  0  0
   57.0270   29.2570   43.1130 O   0  0  0  0  0  0  0  0  0  0  0  0
   57.5140   28.1160   45.4710 C   0  0  0  0  0  0  0  0  0  0  0  0
   57.9720   28.3080   46.7780 C   0  0  0  0  0  0  0  0  0  0  0  0
   58.5050   27.2380   47.4960 C   0  0  0  0  0  0  0  0  0  0  0  0
   58.5760   25.9700   46.9160 C   0  0  0  0  0  0  0  0  0  0  0  0
   58.1240   25.7660   45.6040 C   0  0  0  0  0  0  0  0  0  0  0  0
   58.1600   24.5090   44.9910 O   0  0  0  0  0  0  0  0  0  0  0  0
   56.8770   23.8930   44.0370 S   0  0  0  0  0  0  0  0  0  0  0  0
   55.5750   24.3910   44.5970 O   0  0  0  0  0  0  0  0  0  0  0  0
   57.0150   24.3670   42.6160 O   0  0  0  0  0  0  0  0  0  0  0  0
   56.9140   22.1080   44.0970 C   0  0  0  0  0  0  0  0  0  0  0  0
   56.5220   21.5880   45.4800 C   0  0  0  0  0  0  0  0  0  0  0  0
   57.3000   22.2880   46.4890 N   0  0  0  0  0  0  0  0  0  0  0  0
   56.8130   22.5680   47.8060 C   0  0  0  0  0  0  0  0  0  0  0  0
   57.3170   21.9920   48.8080 O   0  0  0  0  0  0  0  0  0  0  0  0
   55.7180   23.5660   47.9940 C   0  0  0  0  0  0  0  0  0  0  0  0
   55.8860   24.6260   47.0920 O   0  0  0  0  0  0  0  0  0  0  0  0
   57.6090   26.8480   44.8840 C   0  0  0  0  0  0  0  0  0  0  0  0
   58.6800   30.8460   45.7620 C   0  0  0  0  0  0  0  0  0  0  0  0
   59.4150   32.1940   45.9680 C   0  0  0  0  0  0  0  0  0  0  0  0
   60.9330   33.8510   49.2820 C   0  0  0  0  0  0  0  0  0  0  0  0
   59.6280   33.8310   50.4650 Cl  0  0  0  0  0  0  0  0  0  0  0  0
   62.1530   33.3400   49.7360 C   0  0  0  0  0  0  0  0  0  0  0  0
   63.9774   33.6184   46.8754 H   0  0  0  0  0  0  0  0  0  0  0  0
   58.5543   35.5676   45.8442 H   0  0  0  0  0  0  0  0  0  0  0  0
   60.0805   34.7615   45.3085 H   0  0  0  0  0  0  0  0  0  0  0  0
   57.6902   33.3430   46.5716 H   0  0  0  0  0  0  0  0  0  0  0  0
   58.4425   33.8377   43.6772 H   0  0  0  0  0  0  0  0  0  0  0  0
   56.8239   33.8992   44.5076 H   0  0  0  0  0  0  0  0  0  0  0  0
   58.2688   31.5863   43.2765 H   0  0  0  0  0  0  0  0  0  0  0  0
   56.4990   31.9355   43.4257 H   0  0  0  0  0  0  0  0  0  0  0  0
   56.6730   31.3750   45.7760 H   0  0  0  0  0  0  0  0  0  0  0  0
   57.9118   29.3043   47.2404 H   0  0  0  0  0  0  0  0  0  0  0  0
   58.8704   27.3933   48.5218 H   0  0  0  0  0  0  0  0  0  0  0  0
   58.9882   25.1273   47.4905 H   0  0  0  0  0  0  0  0  0  0  0  0
   56.2091   21.7102   43.3521 H   0  0  0  0  0  0  0  0  0  0  0  0
   57.9399   21.7756   43.8802 H   0  0  0  0  0  0  0  0  0  0  0  0
   55.4503   21.7675   45.6510 H   0  0  0  0  0  0  0  0  0  0  0  0
   56.7223   20.5081   45.5406 H   0  0  0  0  0  0  0  0  0  0  0  0
   54.7469   23.0820   47.8130 H   0  0  0  0  0  0  0  0  0  0  0  0
   55.7508   23.9539   49.0228 H   0  0  0  0  0  0  0  0  0  0  0  0
   56.5500   24.3210   46.4200 H   0  0  0  0  0  0  0  0  0  0  0  0
   57.2751   26.7020   43.8461 H   0  0  0  0  0  0  0  0  0  0  0  0
   59.3148   30.1906   45.1477 H   0  0  0  0  0  0  0  0  0  0  0  0
   58.4913   30.4178   46.7575 H   0  0  0  0  0  0  0  0  0  0  0  0
   60.2253   32.2723   45.2282 H   0  0  0  0  0  0  0  0  0  0  0  0
   59.8077   32.2109   46.9954 H   0  0  0  0  0  0  0  0  0  0  0  0
   62.2458   33.0009   50.7783 H   0  0  0  0  0  0  0  0  0  0  0  0
  1  2  3  0
  2  3  1  0
  3  4  2  0
  4  5  1  0
  5  6  1  0
  6  7  2  3
  7  8  1  0
  8  9  1  0
  9 10  1  0
 10 11  1  0
 11 12  1  0
 12 13  1  0
 13 14  2  0
 13 15  2  0
 13 16  1  0
 16 17  2  0
 17 18  1  0
 18 19  2  0
 19 20  1  0
 20 21  1  0
 21 22  1  0
 22 23  2  0
 22 24  2  0
 22 25  1  0
 25 26  1  0
 26 27  1  0
 27 28  1  0
 28 29  2  0
 28 30  1  0
 30 31  1  0
 20 32  2  0
 12 33  1  0
 33 34  1  0
  6 35  1  0
 35 36  1  0
 35 37  2  0
 37  3  1  0
 34  9  1  0
 32 16  1  0
  4 38  1  0
  8 39  1  0
  8 40  1  0
  9 41  1  1
 10 42  1  0
 10 43  1  0
 11 44  1  0
 11 45  1  0
 12 46  1  1
 17 47  1  0
 18 48  1  0
 19 49  1  0
 25 50  1  0
 25 51  1  0
 26 52  1  0
 26 53  1  0
 30 54  1  0
 30 55  1  0
 31 56  1  0
 32 57  1  0
 33 58  1  0
 33 59  1  0
 34 60  1  0
 34 61  1  0
 37 62  1  0
M  CHG  3   5  -1  12   1  27  -1
M  END
>  <UniqueID>  (35) 
35

>  <SMILES>  (35) 
N#Cc1c[n-]c(=NCC2CC[NH+](S(=O)(=O)c3cccc(OS(=O)(=O)CC[N-]C(=O)CO)c3)CC2)c(Cl)c1

>  <Energy>  (35) 
67.838136907193

>  <Genealogy>  (35) 
N#Cc1c[n-]c(=NCC2CC[NH+](S(=O)(=O)c3cccc(OS(=O)(=O)CC[N-]C(=O)CO)c3)CC2)c(Cl)c1 (protonated)
N#Cc1c[n-]c(=NCC2CC[NH+](S(=O)(=O)c3cccc(OS(=O)(=O)CC[N-]C(=O)CO)c3)CC2)c(Cl)c1 (3D coordinates assigned)
N#Cc1c[n-]c(=NCC2CC[NH+](S(=O)(=O)c3cccc(OS(=O)(=O)CC[N-]C(=O)CO)c3)CC2)c(Cl)c1 (nonaromatic ring conformer: 67.838136907193 kcal/mol)

>  <smiles>  (35) 
N#Cc1c[nH]c(=NCC2CCN(S(=O)(=O)c3cccc(OS(=O)(=O)CCNC(=O)CO)c3)CC2)c(Cl)c1

>  <score_type>  (35) 
oracle

>  <origin>  (35) 
adg

>  <m_score__min__energy>  (35) 
-12.039999999999999

>  <m_primary>  (35) 
energy

$$$$
35:0
     RDKit          3D

 48 51  0  0  0  0  0  0  0  0999 V2000
   60.1840   27.7700   48.2840 C   0  0  0  0  0  0  0  0  0  0  0  0
   59.5350   28.7880   47.6970 C   0  0  0  0  0  0  0  0  0  0  0  0
   58.7090   28.6970   46.5710 C   0  0  0  0  0  0  0  0  0  0  0  0
   58.4520   27.5990   45.8320 C   0  0  0  0  0  0  0  0  0  0  0  0
   57.2160   26.8030   45.9420 C   0  0  0  0  0  0  0  0  0  0  0  0
   57.1840   25.5570   46.4480 N   0  0  0  0  0  0  0  0  0  0  0  0
   55.8700   25.2480   46.4400 C   0  0  0  0  0  0  0  0  0  0  0  0
   55.4320   24.1370   46.8360 O   0  0  0  0  0  0  0  0  0  0  0  0
   55.0590   26.2280   45.9850 N   0  0  0  0  0  0  0  0  0  0  0  0
   55.9250   27.2110   45.6860 C   0  0  0  0  0  0  0  0  0  0  0  0
   55.5350   28.4650   45.2350 O   0  0  0  0  0  0  0  0  0  0  0  0
   58.2440   29.9790   46.3240 C   0  0  0  0  0  0  0  0  0  0  0  0
   58.7720   30.7900   47.3060 C   0  0  0  0  0  0  0  0  0  0  0  0
   58.5300   32.2460   47.3730 C   0  0  0  0  0  0  0  0  0  0  0  0
   57.7860   32.6920   48.2900 O   0  0  0  0  0  0  0  0  0  0  0  0
   59.2260   33.1570   46.4890 N   0  0  0  0  0  0  0  0  0  0  0  0
   58.4280   33.5320   45.3160 C   0  0  0  0  0  0  0  0  0  0  0  0
   58.9330   34.8980   44.8660 C   0  0  0  0  0  0  0  0  0  0  0  0
   59.6760   35.4720   46.0640 C   0  0  0  0  0  0  0  0  0  0  0  0
   59.5570   34.4200   47.1580 C   0  0  0  0  0  0  0  0  0  0  0  0
   59.5700   30.0750   48.1390 N   0  0  0  0  0  0  0  0  0  0  0  0
   60.4080   30.6220   49.2200 C   0  0  0  0  0  0  0  0  0  0  0  0
   61.4110   31.6410   48.7280 C   0  0  0  0  0  0  0  0  0  0  0  0
   62.1690   31.4480   47.5560 C   0  0  0  0  0  0  0  0  0  0  0  0
   63.0800   32.4230   47.1350 C   0  0  0  0  0  0  0  0  0  0  0  0
   63.2340   33.6020   47.8670 C   0  0  0  0  0  0  0  0  0  0  0  0
   64.1200   34.5440   47.4580 F   0  0  0  0  0  0  0  0  0  0  0  0
   62.4730   33.8130   49.0180 C   0  0  0  0  0  0  0  0  0  0  0  0
   61.5600   32.8430   49.4430 C   0  0  0  0  0  0  0  0  0  0  0  0
   60.8103   27.9545   49.1693 H   0  0  0  0  0  0  0  0  0  0  0  0
   60.0895   26.7514   47.8797 H   0  0  0  0  0  0  0  0  0  0  0  0
   59.2104   27.2777   45.1029 H   0  0  0  0  0  0  0  0  0  0  0  0
   57.5814   30.2896   45.5028 H   0  0  0  0  0  0  0  0  0  0  0  0
   60.1220   32.7280   46.1630 H   0  0  0  0  0  0  0  0  0  0  0  0
   58.5638   32.7933   44.5124 H   0  0  0  0  0  0  0  0  0  0  0  0
   57.3557   33.5653   45.5592 H   0  0  0  0  0  0  0  0  0  0  0  0
   59.6119   34.7929   44.0069 H   0  0  0  0  0  0  0  0  0  0  0  0
   58.1089   35.5523   44.5452 H   0  0  0  0  0  0  0  0  0  0  0  0
   60.7324   35.6480   45.8130 H   0  0  0  0  0  0  0  0  0  0  0  0
   59.2565   36.4386   46.3797 H   0  0  0  0  0  0  0  0  0  0  0  0
   60.5102   34.3249   47.6987 H   0  0  0  0  0  0  0  0  0  0  0  0
   58.7848   34.6953   47.8915 H   0  0  0  0  0  0  0  0  0  0  0  0
   59.7539   31.1032   49.9620 H   0  0  0  0  0  0  0  0  0  0  0  0
   60.9738   29.7850   49.6551 H   0  0  0  0  0  0  0  0  0  0  0  0
   62.0439   30.5261   46.9690 H   0  0  0  0  0  0  0  0  0  0  0  0
   63.6763   32.2603   46.2251 H   0  0  0  0  0  0  0  0  0  0  0  0
   62.5918   34.7440   49.5917 H   0  0  0  0  0  0  0  0  0  0  0  0
   60.9537   33.0213   50.3433 H   0  0  0  0  0  0  0  0  0  0  0  0
  1  2  2  0
  2  3  1  0
  3  4  2  3
  4  5  1  0
  5  6  1  0
  6  7  1  0
  7  8  2  0
  7  9  1  0
  9 10  1  0
 10 11  1  0
  3 12  1  0
 12 13  2  0
 13 14  1  0
 14 15  2  0
 14 16  1  0
 16 17  1  0
 17 18  1  0
 18 19  1  0
 19 20  1  0
 13 21  1  0
 21 22  1  0
 22 23  1  0
 23 24  2  0
 24 25  1  0
 25 26  2  0
 26 27  1  0
 26 28  1  0
 28 29  2  0
 21  2  1  0
 29 23  1  0
 10  5  2  0
 20 16  1  0
  1 30  1  0
  1 31  1  0
  4 32  1  0
 12 33  1  0
 16 34  1  0
 17 35  1  0
 17 36  1  0
 18 37  1  0
 18 38  1  0
 19 39  1  0
 19 40  1  0
 20 41  1  0
 20 42  1  0
 22 43  1  0
 22 44  1  0
 24 45  1  0
 25 46  1  0
 28 47  1  0
 29 48  1  0
M  CHG  4   6  -1   9  -1  11  -1  16   1
M  END
>  <UniqueID>  (36) 
36

>  <SMILES>  (36) 
C=c1c(=Cc2[n-]c(=O)[n-]c2[O-])cc(C(=O)[NH+]2CCCC2)n1Cc1ccc(F)cc1

>  <Energy>  (36) 
126.32266369147024

>  <Genealogy>  (36) 
C=c1c(=Cc2[n-]c(=O)[n-]c2[O-])cc(C(=O)[NH+]2CCCC2)n1Cc1ccc(F)cc1 (protonated)
C=c1c(=Cc2[n-]c(=O)[n-]c2[O-])cc(C(=O)[NH+]2CCCC2)n1Cc1ccc(F)cc1 (3D coordinates assigned)
C=c1c(=Cc2[n-]c(=O)[n-]c2[O-])cc(C(=O)[NH+]2CCCC2)n1Cc1ccc(F)cc1 (nonaromatic ring conformer: 126.32266369147024 kcal/mol)

>  <smiles>  (36) 
C=c1c(=Cc2[nH]c(=O)[nH]c2O)cc(C(=O)N2CCCC2)n1Cc1ccc(F)cc1

>  <score_type>  (36) 
oracle

>  <origin>  (36) 
adg

>  <m_score__min__energy>  (36) 
-15.6

>  <m_primary>  (36) 
energy

$$$$
36:0
     RDKit          3D

 33 34  0  0  0  0  0  0  0  0999 V2000
   58.5510   33.3850   43.6650 C   0  0  0  0  0  0  0  0  0  0  0  0
   58.3790   32.7920   44.8590 C   0  0  0  0  0  0  0  0  0  0  0  0
   58.2520   33.6360   46.1010 C   0  0  0  0  0  0  0  0  0  0  0  0
   59.0190   33.0010   47.2530 C   0  0  0  0  0  0  0  0  0  0  0  0
   58.5430   31.5650   47.4880 C   0  0  0  0  0  0  0  0  0  0  0  0
   58.7350   30.6280   46.2510 C   0  0  1  0  0  0  0  0  0  0  0  0
   60.2510   30.3850   46.0260 C   0  0  0  0  0  0  0  0  0  0  0  0
   58.0020   29.2620   46.5810 C   0  0  2  0  0  0  0  0  0  0  0  0
   58.8180   28.3670   47.3040 O   0  0  0  0  0  0  0  0  0  0  0  0
   57.3700   28.6110   45.3670 C   0  0  0  0  0  0  0  0  0  0  0  0
   57.4920   27.4120   45.1630 O   0  0  0  0  0  0  0  0  0  0  0  0
   56.5140   29.4410   44.4380 C   0  0  1  0  0  0  0  0  0  0  0  0
   55.1670   29.0510   44.5190 O   0  0  0  0  0  0  0  0  0  0  0  0
   56.6670   30.9490   44.7290 C   0  0  0  0  0  0  0  0  0  0  0  0
   58.1540   31.2880   44.9380 C   0  0  1  0  0  0  0  0  0  0  0  0
   58.6442   32.7734   42.7555 H   0  0  0  0  0  0  0  0  0  0  0  0
   58.5985   34.4819   43.5974 H   0  0  0  0  0  0  0  0  0  0  0  0
   58.6602   34.6379   45.9020 H   0  0  0  0  0  0  0  0  0  0  0  0
   57.1895   33.7094   46.3763 H   0  0  0  0  0  0  0  0  0  0  0  0
   60.0921   32.9916   47.0116 H   0  0  0  0  0  0  0  0  0  0  0  0
   58.8404   33.5885   48.1656 H   0  0  0  0  0  0  0  0  0  0  0  0
   59.1093   31.1454   48.3325 H   0  0  0  0  0  0  0  0  0  0  0  0
   57.4627   31.6137   47.6894 H   0  0  0  0  0  0  0  0  0  0  0  0
   60.7577   30.3038   46.9990 H   0  0  0  0  0  0  0  0  0  0  0  0
   60.3928   29.4527   45.4598 H   0  0  0  0  0  0  0  0  0  0  0  0
   60.6771   31.2263   45.4598 H   0  0  0  0  0  0  0  0  0  0  0  0
   57.1677   29.5323   47.2450 H   0  0  0  0  0  0  0  0  0  0  0  0
   58.6130   27.4450   47.0030 H   0  0  0  0  0  0  0  0  0  0  0  0
   56.8642   29.2617   43.4108 H   0  0  0  0  0  0  0  0  0  0  0  0
   55.1450   28.1240   44.8720 H   0  0  0  0  0  0  0  0  0  0  0  0
   56.2760   31.5271   43.8788 H   0  0  0  0  0  0  0  0  0  0  0  0
   56.1036   31.2038   45.6387 H   0  0  0  0  0  0  0  0  0  0  0  0
   58.7305   30.8404   44.1150 H   0  0  0  0  0  0  0  0  0  0  0  0
  1  2  2  0
  2  3  1  0
  3  4  1  0
  4  5  1  0
  5  6  1  0
  6  7  1  6
  6  8  1  0
  8  9  1  0
  8 10  1  0
 10 11  2  0
 10 12  1  0
 12 13  1  0
 12 14  1  0
 14 15  1  0
 15  2  1  0
 15  6  1  0
  1 16  1  0
  1 17  1  0
  3 18  1  0
  3 19  1  0
  4 20  1  0
  4 21  1  0
  5 22  1  0
  5 23  1  0
  7 24  1  0
  7 25  1  0
  7 26  1  0
  8 27  1  1
  9 28  1  0
 12 29  1  6
 13 30  1  0
 14 31  1  0
 14 32  1  0
 15 33  1  6
M  END
>  <UniqueID>  (37) 
37

>  <SMILES>  (37) 
C=C1CCC[C@]2(C)C1CC(O)C(=O)[C@H]2O

>  <Energy>  (37) 
40.21727729436148

>  <Genealogy>  (37) 
C=C1CCC[C@]2(C)C1CC(O)C(=O)[C@H]2O (chirality)
C=C1CCC[C@]2(C)C1CC(O)C(=O)[C@H]2O (3D coordinates assigned)
C=C1CCC[C@]2(C)C1CC(O)C(=O)[C@H]2O (nonaromatic ring conformer: 40.21727729436148 kcal/mol)

>  <smiles>  (37) 
C=C1CCCC2(C)C(O)C(=O)C(O)CC12

>  <score_type>  (37) 
oracle

>  <origin>  (37) 
adg

>  <m_score__min__energy>  (37) 
-6.1500000000000004

>  <m_primary>  (37) 
energy

$$$$
37:0
     RDKit          3D

 36 38  0  0  0  0  0  0  0  0999 V2000
   56.0660   30.9480   45.2320 H   0  0  0  0  0  0  0  0  0  0  0  0
   56.6490   31.7310   44.9670 O   0  0  0  0  0  0  0  0  0  0  0  0
   57.8010   32.0920   45.6700 C   0  0  0  0  0  0  0  0  0  0  0  0
   57.8150   33.3250   46.3280 C   0  0  0  0  0  0  0  0  0  0  0  0
   56.9218   33.9664   46.3009 H   0  0  0  0  0  0  0  0  0  0  0  0
   58.9500   33.7510   47.0190 C   0  0  0  0  0  0  0  0  0  0  0  0
   58.9396   34.7188   47.5418 H   0  0  0  0  0  0  0  0  0  0  0  0
   60.1060   32.9530   47.0520 C   0  0  0  0  0  0  0  0  0  0  0  0
   61.3080   33.3820   47.8110 C   0  0  0  0  0  0  0  0  0  0  0  0
   61.3040   34.0460   49.3600 S   0  0  0  0  0  0  0  0  0  0  0  0
   62.9640   34.2660   49.4910 C   0  0  0  0  0  0  0  0  0  0  0  0
   63.4935   34.6902   50.3568 H   0  0  0  0  0  0  0  0  0  0  0  0
   63.5500   33.8190   48.3160 C   0  0  0  0  0  0  0  0  0  0  0  0
   64.6350   33.8483   48.1373 H   0  0  0  0  0  0  0  0  0  0  0  0
   62.6340   33.3270   47.3780 C   0  0  0  0  0  0  0  0  0  0  0  0
   62.9309   32.9347   46.3941 H   0  0  0  0  0  0  0  0  0  0  0  0
   60.0950   31.7150   46.3830 C   0  0  0  0  0  0  0  0  0  0  0  0
   61.0029   31.0940   46.3771 H   0  0  0  0  0  0  0  0  0  0  0  0
   58.9420   31.2610   45.7230 C   0  0  0  0  0  0  0  0  0  0  0  0
   58.9460   29.8960   45.1500 C   0  0  0  0  0  0  0  0  0  0  0  0
   60.0120   29.2280   45.1870 O   0  0  0  0  0  0  0  0  0  0  0  0
   57.7520   29.2870   44.5180 C   0  0  0  0  0  0  0  0  0  0  0  0
   57.5818   29.4993   43.4522 H   0  0  0  0  0  0  0  0  0  0  0  0
   56.8600   28.4970   45.1390 C   0  0  0  0  0  0  0  0  0  0  0  0
   55.8490   28.8981   45.3032 H   0  0  0  0  0  0  0  0  0  0  0  0
   57.1410   27.1300   45.6160 C   0  0  0  0  0  0  0  0  0  0  0  0
   58.4700   26.6830   45.6720 C   0  0  0  0  0  0  0  0  0  0  0  0
   59.2882   27.3615   45.3889 H   0  0  0  0  0  0  0  0  0  0  0  0
   58.7590   25.3790   46.0860 C   0  0  0  0  0  0  0  0  0  0  0  0
   59.8014   25.0285   46.1117 H   0  0  0  0  0  0  0  0  0  0  0  0
   57.7240   24.5210   46.4670 C   0  0  0  0  0  0  0  0  0  0  0  0
   57.9514   23.4913   46.7800 H   0  0  0  0  0  0  0  0  0  0  0  0
   56.4010   24.9690   46.4510 C   0  0  0  0  0  0  0  0  0  0  0  0
   55.5898   24.2951   46.7638 H   0  0  0  0  0  0  0  0  0  0  0  0
   56.1050   26.2730   46.0380 C   0  0  0  0  0  0  0  0  0  0  0  0
   54.7840   26.7080   46.0460 O   0  0  0  0  0  0  0  0  0  0  0  0
  1  2  1  0
  2  3  1  0
  3  4  2  0
  4  5  1  0
  4  6  1  0
  6  7  1  0
  6  8  2  0
  8  9  1  0
  9 10  1  0
 10 11  1  0
 11 12  1  0
 11 13  2  0
 13 14  1  0
 13 15  1  0
 15 16  1  0
  8 17  1  0
 17 18  1  0
 17 19  2  0
 19 20  1  0
 20 21  2  0
 20 22  1  0
 22 23  1  0
 22 24  2  0
 24 25  1  0
 24 26  1  0
 26 27  2  0
 27 28  1  0
 27 29  1  0
 29 30  1  0
 29 31  2  0
 31 32  1  0
 31 33  1  0
 33 34  1  0
 33 35  2  0
 35 36  1  0
 19  3  1  0
 35 26  1  0
 15  9  2  0
M  CHG  1  36  -1
M  END
>  <UniqueID>  (38) 
38

>  <SMILES>  (38) 
O=C(/C=C\c1ccccc1[O-])c1cc(-c2cccs2)ccc1O

>  <Energy>  (38) 
80.03887597773267

>  <Genealogy>  (38) 
O=C(C=Cc1ccccc1[O-])c1cc(-c2cccs2)ccc1O (protonated)
O=C(/C=C\c1ccccc1[O-])c1cc(-c2cccs2)ccc1O (cis-trans isomerization)
O=C(/C=C\c1ccccc1[O-])c1cc(-c2cccs2)ccc1O (3D coordinates assigned)
O=C(/C=C\c1ccccc1[O-])c1cc(-c2cccs2)ccc1O (optimized conformer: 80.03887597773267 kcal/mol)

>  <smiles>  (38) 
O=C(C=Cc1ccccc1O)c1cc(-c2cccs2)ccc1O

>  <score_type>  (38) 
oracle

>  <origin>  (38) 
adg

>  <m_score__min__energy>  (38) 
-12.470000000000001

>  <m_primary>  (38) 
energy

$$$$
38:0
     RDKit          3D

 47 49  0  0  0  0  0  0  0  0999 V2000
   56.7700   32.5380   45.1290 C   0  0  0  0  0  0  0  0  0  0  0  0
   57.7730   31.5070   45.5710 C   0  0  0  0  0  0  0  0  0  0  0  0
   58.8700   31.8050   46.3930 C   0  0  0  0  0  0  0  0  0  0  0  0
   59.1580   33.0790   47.0820 C   0  0  0  0  0  0  0  0  0  0  0  0
   58.2050   33.8300   47.4240 O   0  0  0  0  0  0  0  0  0  0  0  0
   60.5030   33.4400   47.4400 N   0  0  0  0  0  0  0  0  0  0  0  0
   61.5830   33.3690   46.4470 C   0  0  0  0  0  0  0  0  0  0  0  0
   62.9440   33.0780   47.1210 C   0  0  0  0  0  0  0  0  0  0  0  0
   62.8990   33.1200   48.5370 O   0  0  0  0  0  0  0  0  0  0  0  0
   62.2360   34.2890   48.9670 C   0  0  0  0  0  0  0  0  0  0  0  0
   60.7360   34.1500   48.7020 C   0  0  0  0  0  0  0  0  0  0  0  0
   59.7830   30.4080   46.5990 S   0  0  0  0  0  0  0  0  0  0  0  0
   58.8200   29.4100   45.6500 C   0  0  0  0  0  0  0  0  0  0  0  0
   59.0000   27.9920   45.5080 N   0  0  0  0  0  0  0  0  0  0  0  0
   57.9410   27.0400   45.6940 C   0  0  0  0  0  0  0  0  0  0  0  0
   56.8410   27.3930   46.2010 O   0  0  0  0  0  0  0  0  0  0  0  0
   58.1270   25.6180   45.2610 C   0  0  0  0  0  0  0  0  0  0  0  0
   56.7880   24.9630   45.0720 C   0  0  0  0  0  0  0  0  0  0  0  0
   55.8680   24.9130   46.1330 C   0  0  0  0  0  0  0  0  0  0  0  0
   54.6390   24.2640   45.9690 C   0  0  0  0  0  0  0  0  0  0  0  0
   54.3250   23.6520   44.7510 C   0  0  0  0  0  0  0  0  0  0  0  0
   53.1040   23.0050   44.5930 O   0  0  0  0  0  0  0  0  0  0  0  0
   55.2410   23.6870   43.6960 C   0  0  0  0  0  0  0  0  0  0  0  0
   56.4700   24.3370   43.8550 C   0  0  0  0  0  0  0  0  0  0  0  0
   57.7270   30.1440   45.1770 C   0  0  0  0  0  0  0  0  0  0  0  0
   56.6560   29.5520   44.3450 C   0  0  0  0  0  0  0  0  0  0  0  0
   55.3490   29.3490   44.8810 N   0  0  0  0  0  0  0  0  0  0  0  0
   56.8950   29.2130   43.1550 O   0  0  0  0  0  0  0  0  0  0  0  0
   56.3132   33.0076   46.0126 H   0  0  0  0  0  0  0  0  0  0  0  0
   57.2756   33.3063   44.5256 H   0  0  0  0  0  0  0  0  0  0  0  0
   55.9880   32.0538   44.5256 H   0  0  0  0  0  0  0  0  0  0  0  0
   61.3587   32.5657   45.7298 H   0  0  0  0  0  0  0  0  0  0  0  0
   61.6489   34.3398   45.9339 H   0  0  0  0  0  0  0  0  0  0  0  0
   63.2764   32.0755   46.8137 H   0  0  0  0  0  0  0  0  0  0  0  0
   63.6382   33.8677   46.7978 H   0  0  0  0  0  0  0  0  0  0  0  0
   62.4065   34.4322   50.0442 H   0  0  0  0  0  0  0  0  0  0  0  0
   62.6273   35.1568   48.4157 H   0  0  0  0  0  0  0  0  0  0  0  0
   60.2732   33.5865   49.5256 H   0  0  0  0  0  0  0  0  0  0  0  0
   60.2914   35.1538   48.6338 H   0  0  0  0  0  0  0  0  0  0  0  0
   59.9440   27.6320   45.2410 H   0  0  0  0  0  0  0  0  0  0  0  0
   58.6817   25.5952   44.3114 H   0  0  0  0  0  0  0  0  0  0  0  0
   58.6909   25.0745   46.0334 H   0  0  0  0  0  0  0  0  0  0  0  0
   56.1146   25.3854   47.0953 H   0  0  0  0  0  0  0  0  0  0  0  0
   53.9184   24.2351   46.7996 H   0  0  0  0  0  0  0  0  0  0  0  0
   54.9955   23.2029   42.7393 H   0  0  0  0  0  0  0  0  0  0  0  0
   57.1901   24.3579   43.0237 H   0  0  0  0  0  0  0  0  0  0  0  0
   55.1760   28.6320   45.6160 H   0  0  0  0  0  0  0  0  0  0  0  0
  1  2  1  0
  2  3  2  0
  3  4  1  0
  4  5  2  0
  4  6  1  0
  6  7  1  0
  7  8  1  0
  8  9  1  0
  9 10  1  0
 10 11  1  0
  3 12  1  0
 12 13  1  0
 13 14  1  0
 14 15  1  0
 15 16  2  0
 15 17  1  0
 17 18  1  0
 18 19  2  0
 19 20  1  0
 20 21  2  0
 21 22  1  0
 21 23  1  0
 23 24  2  0
 13 25  2  0
 25 26  1  0
 26 27  1  0
 26 28  2  0
 25  2  1  0
 11  6  1  0
 24 18  1  0
  1 29  1  0
  1 30  1  0
  1 31  1  0
  7 32  1  0
  7 33  1  0
  8 34  1  0
  8 35  1  0
 10 36  1  0
 10 37  1  0
 11 38  1  0
 11 39  1  0
 14 40  1  0
 17 41  1  0
 17 42  1  0
 19 43  1  0
 20 44  1  0
 23 45  1  0
 24 46  1  0
 27 47  1  0
M  CHG  2  22  -1  27  -1
M  END
>  <UniqueID>  (39) 
39

>  <SMILES>  (39) 
Cc1c(C(=O)N2CCOCC2)sc(NC(=O)Cc2ccc([O-])cc2)c1C([NH-])=O

>  <Energy>  (39) 
88.88072932334333

>  <Genealogy>  (39) 
Cc1c(C(=O)N2CCOCC2)sc(NC(=O)Cc2ccc([O-])cc2)c1C([NH-])=O (protonated)
Cc1c(C(=O)N2CCOCC2)sc(NC(=O)Cc2ccc([O-])cc2)c1C([NH-])=O (3D coordinates assigned)
Cc1c(C(=O)N2CCOCC2)sc(NC(=O)Cc2ccc([O-])cc2)c1C([NH-])=O (nonaromatic ring conformer: 88.88072932334333 kcal/mol)

>  <smiles>  (39) 
Cc1c(C(=O)N2CCOCC2)sc(NC(=O)Cc2ccc(O)cc2)c1C(N)=O

>  <score_type>  (39) 
oracle

>  <origin>  (39) 
adg

>  <m_score__min__energy>  (39) 
-13.08

>  <m_primary>  (39) 
energy

$$$$
39:0
     RDKit          3D

 21 22  0  0  0  0  0  0  0  0999 V2000
   58.8909   29.0301   52.5000 H   0  0  0  0  0  0  0  0  0  0  0  0
   58.0600   29.7500   52.4620 C   0  0  0  0  0  0  0  0  0  0  0  0
   56.7840   29.3070   52.3100 N   0  0  0  0  0  0  0  0  0  0  0  0
   55.7200   30.1540   52.2620 C   0  0  0  0  0  0  0  0  0  0  0  0
   54.5290   29.6470   52.1040 N   0  0  0  0  0  0  0  0  0  0  0  0
   53.3120   30.0970   52.7160 C   0  0  0  0  0  0  0  0  0  0  0  0
   53.0210   29.6870   53.8710 O   0  0  0  0  0  0  0  0  0  0  0  0
   52.4410   31.0920   52.0590 C   0  0  0  0  0  0  0  0  0  0  0  0
   51.5650   31.9670   52.6770 C   0  0  0  0  0  0  0  0  0  0  0  0
   51.4193   32.0424   53.7647 H   0  0  0  0  0  0  0  0  0  0  0  0
   50.9150   32.7140   51.7630 N   0  0  0  0  0  0  0  0  0  0  0  0
   51.3850   32.2990   50.5710 C   0  0  0  0  0  0  0  0  0  0  0  0
   50.9590   32.8280   49.3600 O   0  0  0  0  0  0  0  0  0  0  0  0
   52.3220   31.3000   50.7020 C   0  0  0  0  0  0  0  0  0  0  0  0
   52.8605   30.7792   49.8965 H   0  0  0  0  0  0  0  0  0  0  0  0
   55.9480   31.5440   52.3500 C   0  0  0  0  0  0  0  0  0  0  0  0
   55.1051   32.2485   52.2929 H   0  0  0  0  0  0  0  0  0  0  0  0
   57.2510   32.0180   52.5100 C   0  0  0  0  0  0  0  0  0  0  0  0
   57.4376   33.0992   52.5887 H   0  0  0  0  0  0  0  0  0  0  0  0
   58.3170   31.1190   52.5700 C   0  0  0  0  0  0  0  0  0  0  0  0
   59.9590   31.7010   52.7670 Cl  0  0  0  0  0  0  0  0  0  0  0  0
  1  2  1  0
  2  3  1  0
  3  4  1  0
  4  5  2  0
  5  6  1  0
  6  7  2  0
  6  8  1  0
  8  9  2  0
  9 10  1  0
  9 11  1  0
 11 12  1  0
 12 13  1  0
 12 14  2  0
 14 15  1  0
  4 16  1  0
 16 17  1  0
 16 18  2  0
 18 19  1  0
 18 20  1  0
 20 21  1  0
 20  2  2  0
 14  8  1  0
M  CHG  3   3  -1  11  -1  13  -1
M  END
>  <UniqueID>  (40) 
40

>  <SMILES>  (40) 
O=C(/N=c1\ccc(Cl)c[n-]1)c1c[n-]c([O-])c1

>  <Energy>  (40) 
56.86904321352658

>  <Genealogy>  (40) 
O=C(N=c1ccc(Cl)c[n-]1)c1c[n-]c([O-])c1 (protonated)
O=C(/N=c1\ccc(Cl)c[n-]1)c1c[n-]c([O-])c1 (cis-trans isomerization)
O=C(/N=c1\ccc(Cl)c[n-]1)c1c[n-]c([O-])c1 (3D coordinates assigned)
O=C(/N=c1\ccc(Cl)c[n-]1)c1c[n-]c([O-])c1 (optimized conformer: 56.86904321352658 kcal/mol)

>  <smiles>  (40) 
O=C(N=c1ccc(Cl)c[nH]1)c1c[nH]c(O)c1

>  <score_type>  (40) 
oracle

>  <origin>  (40) 
adg

>  <m_score__min__energy>  (40) 
-14.1

>  <m_primary>  (40) 
energy

$$$$
40:0
     RDKit          3D

 26 27  0  0  0  0  0  0  0  0999 V2000
   56.0589   31.2379   44.3117 H   0  0  0  0  0  0  0  0  0  0  0  0
   57.1360   31.1500   44.5170 C   0  0  0  0  0  0  0  0  0  0  0  0
   57.7340   29.9930   44.1890 C   0  0  0  0  0  0  0  0  0  0  0  0
   58.4080   30.0001   43.3197 H   0  0  0  0  0  0  0  0  0  0  0  0
   57.5580   28.7080   44.9050 C   0  0  0  0  0  0  0  0  0  0  0  0
   58.6710   27.9510   45.3170 C   0  0  0  0  0  0  0  0  0  0  0  0
   59.6876   28.3036   45.0883 H   0  0  0  0  0  0  0  0  0  0  0  0
   58.4910   26.7540   46.0150 C   0  0  0  0  0  0  0  0  0  0  0  0
   59.3650   26.1597   46.3199 H   0  0  0  0  0  0  0  0  0  0  0  0
   57.2050   26.3110   46.3260 C   0  0  0  0  0  0  0  0  0  0  0  0
   57.0668   25.3652   46.8704 H   0  0  0  0  0  0  0  0  0  0  0  0
   56.0920   27.0670   45.9470 C   0  0  0  0  0  0  0  0  0  0  0  0
   54.8150   26.6260   46.2700 O   0  0  0  0  0  0  0  0  0  0  0  0
   56.2640   28.2680   45.2430 C   0  0  0  0  0  0  0  0  0  0  0  0
   55.1490   29.0120   44.8740 O   0  0  0  0  0  0  0  0  0  0  0  0
   57.8080   32.3160   45.1320 C   0  0  0  0  0  0  0  0  0  0  0  0
   58.0940   32.2960   46.5060 C   0  0  0  0  0  0  0  0  0  0  0  0
   57.8356   31.4106   47.1054 H   0  0  0  0  0  0  0  0  0  0  0  0
   58.7050   33.3940   47.1170 C   0  0  0  0  0  0  0  0  0  0  0  0
   58.9396   33.3639   48.1913 H   0  0  0  0  0  0  0  0  0  0  0  0
   59.0190   34.5310   46.3660 C   0  0  0  0  0  0  0  0  0  0  0  0
   59.6270   35.6200   46.9740 O   0  0  0  0  0  0  0  0  0  0  0  0
   58.7120   34.5720   45.0020 C   0  0  0  0  0  0  0  0  0  0  0  0
   58.9524   35.4685   44.4116 H   0  0  0  0  0  0  0  0  0  0  0  0
   58.1000   33.4750   44.3880 C   0  0  0  0  0  0  0  0  0  0  0  0
   57.8455   33.5177   43.3187 H   0  0  0  0  0  0  0  0  0  0  0  0
  1  2  1  0
  2  3  2  0
  3  4  1  0
  3  5  1  0
  5  6  2  0
  6  7  1  0
  6  8  1  0
  8  9  1  0
  8 10  2  0
 10 11  1  0
 10 12  1  0
 12 13  1  0
 12 14  2  0
 14 15  1  0
  2 16  1  0
 16 17  2  0
 17 18  1  0
 17 19  1  0
 19 20  1  0
 19 21  2  0
 21 22  1  0
 21 23  1  0
 23 24  1  0
 23 25  2  0
 25 26  1  0
 14  5  1  0
 25 16  1  0
M  CHG  3  13  -1  15  -1  22  -1
M  END
>  <UniqueID>  (41) 
41

>  <SMILES>  (41) 
[O-]c1ccc(/C=C\c2cccc([O-])c2[O-])cc1

>  <Energy>  (41) 
37.48684356244633

>  <Genealogy>  (41) 
[O-]c1ccc(C=Cc2cccc([O-])c2[O-])cc1 (protonated)
[O-]c1ccc(/C=C\c2cccc([O-])c2[O-])cc1 (cis-trans isomerization)
[O-]c1ccc(/C=C\c2cccc([O-])c2[O-])cc1 (3D coordinates assigned)
[O-]c1ccc(/C=C\c2cccc([O-])c2[O-])cc1 (optimized conformer: 37.48684356244633 kcal/mol)

>  <smiles>  (41) 
Oc1ccc(C=Cc2cccc(O)c2O)cc1

>  <score_type>  (41) 
oracle

>  <origin>  (41) 
adg

>  <m_score__min__energy>  (41) 
-15.18

>  <m_primary>  (41) 
energy

$$$$
41:0
     RDKit          3D

 84 88  0  0  0  0  0  0  0  0999 V2000
   60.9420   33.4760   54.3380 C   0  0  0  0  0  0  0  0  0  0  0  0
   60.3830   32.7280   53.1990 N   0  0  0  0  0  0  0  0  0  0  0  0
   59.2590   33.3140   52.4960 C   0  0  0  0  0  0  0  0  0  0  0  0
   58.3230   33.8530   53.1560 O   0  0  0  0  0  0  0  0  0  0  0  0
   59.1370   33.2860   51.0260 C   0  0  0  0  0  0  0  0  0  0  0  0
   58.3070   32.3350   50.4130 C   0  0  0  0  0  0  0  0  0  0  0  0
   58.2020   32.2760   49.0190 C   0  0  0  0  0  0  0  0  0  0  0  0
   58.8960   33.1970   48.2180 C   0  0  0  0  0  0  0  0  0  0  0  0
   58.8590   33.1300   46.7860 N   0  0  0  0  0  0  0  0  0  0  0  0
   58.8330   34.2470   45.8900 C   0  0  0  0  0  0  0  0  0  0  0  0
   59.7110   35.1510   45.9690 O   0  0  0  0  0  0  0  0  0  0  0  0
   57.7750   34.3340   44.8370 C   0  0  0  0  0  0  0  0  0  0  0  0
   57.5100   32.9750   44.2510 C   0  0  0  0  0  0  0  0  0  0  0  0
   57.8210   32.7240   42.9060 C   0  0  0  0  0  0  0  0  0  0  0  0
   57.6500   31.4400   42.3750 C   0  0  0  0  0  0  0  0  0  0  0  0
   57.1670   30.4080   43.1810 C   0  0  0  0  0  0  0  0  0  0  0  0
   56.8390   30.6480   44.5230 C   0  0  0  0  0  0  0  0  0  0  0  0
   56.3870   29.5490   45.3280 N   0  0  0  0  0  0  0  0  0  0  0  0
   57.1290   28.3610   45.6170 C   0  0  0  0  0  0  0  0  0  0  0  0
   56.6860   27.2380   45.2670 O   0  0  0  0  0  0  0  0  0  0  0  0
   58.4970   28.4780   46.2360 C   0  0  0  0  0  0  0  0  0  0  0  0
   59.5330   29.0840   45.2450 C   0  0  0  0  0  0  0  0  0  0  0  0
   59.9760   30.4960   45.6400 C   0  0  0  0  0  0  0  0  0  0  0  0
   60.4680   30.4980   47.0250 N   0  0  0  0  0  0  0  0  0  0  0  0
   61.6060   31.2910   47.3950 C   0  0  0  0  0  0  0  0  0  0  0  0
   62.4380   30.8340   48.2270 O   0  0  0  0  0  0  0  0  0  0  0  0
   61.8300   32.6500   46.7830 C   0  0  0  0  0  0  0  0  0  0  0  0
   63.2460   33.1900   47.0340 C   0  0  0  0  0  0  0  0  0  0  0  0
   63.5310   33.3640   48.5060 C   0  0  0  0  0  0  0  0  0  0  0  0
   62.8490   34.3430   49.2500 C   0  0  0  0  0  0  0  0  0  0  0  0
   63.1420   34.5320   50.6050 C   0  0  0  0  0  0  0  0  0  0  0  0
   64.1130   33.7420   51.2280 C   0  0  0  0  0  0  0  0  0  0  0  0
   64.8010   32.7690   50.4940 C   0  0  0  0  0  0  0  0  0  0  0  0
   64.5130   32.5810   49.1360 C   0  0  0  0  0  0  0  0  0  0  0  0
   59.7880   29.6990   48.0530 C   0  0  0  0  0  0  0  0  0  0  0  0
   58.4070   29.2410   47.5740 C   0  0  0  0  0  0  0  0  0  0  0  0
   57.0310   31.9310   45.0600 C   0  0  0  0  0  0  0  0  0  0  0  0
   59.7090   34.1590   48.8330 C   0  0  0  0  0  0  0  0  0  0  0  0
   59.8130   34.2170   50.2280 C   0  0  0  0  0  0  0  0  0  0  0  0
   60.8890   31.3760   52.8720 C   0  0  0  0  0  0  0  0  0  0  0  0
   59.7630   30.3710   52.6430 C   0  0  0  0  0  0  0  0  0  0  0  0
   60.3680   29.3260   51.7210 C   0  0  0  0  0  0  0  0  0  0  0  0
   61.4370   30.0410   50.8890 C   0  0  0  0  0  0  0  0  0  0  0  0
   61.7530   31.3540   51.6040 C   0  0  0  0  0  0  0  0  0  0  0  0
   60.6011   33.0198   55.2791 H   0  0  0  0  0  0  0  0  0  0  0  0
   62.0407   33.4458   54.2928 H   0  0  0  0  0  0  0  0  0  0  0  0
   60.6018   34.5211   54.2928 H   0  0  0  0  0  0  0  0  0  0  0  0
   57.7342   31.6301   51.0335 H   0  0  0  0  0  0  0  0  0  0  0  0
   57.5735   31.5053   48.5489 H   0  0  0  0  0  0  0  0  0  0  0  0
   56.8486   34.7233   45.2845 H   0  0  0  0  0  0  0  0  0  0  0  0
   58.1192   35.0075   44.0383 H   0  0  0  0  0  0  0  0  0  0  0  0
   58.1994   33.5366   42.2684 H   0  0  0  0  0  0  0  0  0  0  0  0
   57.8967   31.2442   41.3210 H   0  0  0  0  0  0  0  0  0  0  0  0
   57.0428   29.3992   42.7605 H   0  0  0  0  0  0  0  0  0  0  0  0
   58.8736   27.4694   46.4618 H   0  0  0  0  0  0  0  0  0  0  0  0
   60.4185   28.4319   45.2198 H   0  0  0  0  0  0  0  0  0  0  0  0
   59.0486   29.1521   44.2598 H   0  0  0  0  0  0  0  0  0  0  0  0
   60.7805   30.8273   44.9669 H   0  0  0  0  0  0  0  0  0  0  0  0
   59.1182   31.1799   45.5599 H   0  0  0  0  0  0  0  0  0  0  0  0
   61.6689   32.5774   45.6973 H   0  0  0  0  0  0  0  0  0  0  0  0
   61.1215   33.3466   47.2550 H   0  0  0  0  0  0  0  0  0  0  0  0
   63.9758   32.4834   46.6119 H   0  0  0  0  0  0  0  0  0  0  0  0
   63.3241   34.1764   46.5534 H   0  0  0  0  0  0  0  0  0  0  0  0
   62.0813   34.9633   48.7643 H   0  0  0  0  0  0  0  0  0  0  0  0
   62.6081   35.3026   51.1805 H   0  0  0  0  0  0  0  0  0  0  0  0
   64.3363   33.8853   52.2955 H   0  0  0  0  0  0  0  0  0  0  0  0
   65.5684   32.1515   50.9838 H   0  0  0  0  0  0  0  0  0  0  0  0
   65.0576   31.8177   48.5608 H   0  0  0  0  0  0  0  0  0  0  0  0
   60.3998   28.8142   48.2829 H   0  0  0  0  0  0  0  0  0  0  0  0
   59.6568   30.3230   48.9494 H   0  0  0  0  0  0  0  0  0  0  0  0
   57.9665   28.5790   48.3341 H   0  0  0  0  0  0  0  0  0  0  0  0
   57.7814   30.1328   47.4214 H   0  0  0  0  0  0  0  0  0  0  0  0
   56.8052   32.1198   46.1199 H   0  0  0  0  0  0  0  0  0  0  0  0
   60.2702   34.8746   48.2142 H   0  0  0  0  0  0  0  0  0  0  0  0
   60.4285   34.9974   50.6992 H   0  0  0  0  0  0  0  0  0  0  0  0
   61.4894   31.0961   53.7502 H   0  0  0  0  0  0  0  0  0  0  0  0
   59.4489   29.9156   53.5938 H   0  0  0  0  0  0  0  0  0  0  0  0
   58.8654   30.8392   52.2128 H   0  0  0  0  0  0  0  0  0  0  0  0
   60.8245   28.5179   52.3114 H   0  0  0  0  0  0  0  0  0  0  0  0
   59.6000   28.8747   51.0757 H   0  0  0  0  0  0  0  0  0  0  0  0
   62.3422   29.4196   50.8220 H   0  0  0  0  0  0  0  0  0  0  0  0
   61.0796   30.2268   49.8654 H   0  0  0  0  0  0  0  0  0  0  0  0
   62.8196   31.3953   51.8697 H   0  0  0  0  0  0  0  0  0  0  0  0
   61.5387   32.2200   50.9605 H   0  0  0  0  0  0  0  0  0  0  0  0
  1  2  1  0
  2  3  1  0
  3  4  2  0
  3  5  1  0
  5  6  2  0
  6  7  1  0
  7  8  2  0
  8  9  1  0
  9 10  1  0
 10 11  2  0
 10 12  1  0
 12 13  1  0
 13 14  2  0
 14 15  1  0
 15 16  2  0
 16 17  1  0
 17 18  1  0
 18 19  1  0
 19 20  2  0
 19 21  1  0
 21 22  1  0
 22 23  1  0
 23 24  1  0
 24 25  1  0
 25 26  2  0
 25 27  1  0
 27 28  1  0
 28 29  1  0
 29 30  2  0
 30 31  1  0
 31 32  2  0
 32 33  1  0
 33 34  2  0
 24 35  1  0
 35 36  1  0
 17 37  2  0
  8 38  1  0
 38 39  2  0
  2 40  1  0
 40 41  1  0
 41 42  1  0
 42 43  1  0
 43 44  1  0
 39  5  1  0
 44 40  1  0
 37 13  1  0
 36 21  1  0
 34 29  1  0
  1 45  1  0
  1 46  1  0
  1 47  1  0
  6 48  1  0
  7 49  1  0
 12 50  1  0
 12 51  1  0
 14 52  1  0
 15 53  1  0
 16 54  1  0
 21 55  1  0
 22 56  1  0
 22 57  1  0
 23 58  1  0
 23 59  1  0
 27 60  1  0
 27 61  1  0
 28 62  1  0
 28 63  1  0
 30 64  1  0
 31 65  1  0
 32 66  1  0
 33 67  1  0
 34 68  1  0
 35 69  1  0
 35 70  1  0
 36 71  1  0
 36 72  1  0
 37 73  1  0
 38 74  1  0
 39 75  1  0
 40 76  1  0
 41 77  1  0
 41 78  1  0
 42 79  1  0
 42 80  1  0
 43 81  1  0
 43 82  1  0
 44 83  1  0
 44 84  1  0
M  CHG  2   9  -1  18  -1
M  END
>  <UniqueID>  (42) 
42

>  <SMILES>  (42) 
CN(C(=O)c1ccc([N-]C(=O)Cc2cccc([N-]C(=O)C3CCN(C(=O)CCc4ccccc4)CC3)c2)cc1)C1CCCC1

>  <Energy>  (42) 
101.47652452965974

>  <Genealogy>  (42) 
CN(C(=O)c1ccc([N-]C(=O)Cc2cccc([N-]C(=O)C3CCN(C(=O)CCc4ccccc4)CC3)c2)cc1)C1CCCC1 (protonated)
CN(C(=O)c1ccc([N-]C(=O)Cc2cccc([N-]C(=O)C3CCN(C(=O)CCc4ccccc4)CC3)c2)cc1)C1CCCC1 (3D coordinates assigned)
CN(C(=O)c1ccc([N-]C(=O)Cc2cccc([N-]C(=O)C3CCN(C(=O)CCc4ccccc4)CC3)c2)cc1)C1CCCC1 (nonaromatic ring conformer: 101.47652452965974 kcal/mol)

>  <smiles>  (42) 
CN(C(=O)c1ccc(NC(=O)Cc2cccc(NC(=O)C3CCN(C(=O)CCc4ccccc4)CC3)c2)cc1)C1CCCC1

>  <score_type>  (42) 
oracle

>  <origin>  (42) 
adg

>  <m_score__min__energy>  (42) 
-13.630000000000001

>  <m_primary>  (42) 
energy

$$$$
42:0
     RDKit          3D

 71 75  0  0  0  0  0  0  0  0999 V2000
   57.7810   32.4150   52.0900 C   0  0  0  0  0  0  0  0  0  0  0  0
   58.6210   32.7150   53.2610 N   0  0  0  0  0  0  0  0  0  0  0  0
   59.1490   31.4830   53.9020 C   0  0  0  0  0  0  0  0  0  0  0  0
   60.6470   31.2270   53.6460 C   0  0  0  0  0  0  0  0  0  0  0  0
   61.0480   31.7490   52.3350 N   0  0  0  0  0  0  0  0  0  0  0  0
   61.9400   31.0020   51.4910 C   0  0  0  0  0  0  0  0  0  0  0  0
   62.9640   31.5700   51.0190 O   0  0  0  0  0  0  0  0  0  0  0  0
   61.6650   29.5870   51.1440 C   0  0  0  0  0  0  0  0  0  0  0  0
   62.1880   28.5450   51.9260 C   0  0  0  0  0  0  0  0  0  0  0  0
   61.9270   27.2120   51.5930 C   0  0  0  0  0  0  0  0  0  0  0  0
   62.5730   25.9180   52.5860 Cl  0  0  0  0  0  0  0  0  0  0  0  0
   61.1400   26.9090   50.4770 C   0  0  0  0  0  0  0  0  0  0  0  0
   60.6190   27.9380   49.6740 C   0  0  0  0  0  0  0  0  0  0  0  0
   59.7960   27.6350   48.5290 N   0  0  0  0  0  0  0  0  0  0  0  0
   58.7180   28.5660   48.1540 C   0  0  0  0  0  0  0  0  0  0  0  0
   57.8230   27.9780   47.0630 C   0  0  0  0  0  0  0  0  0  0  0  0
   58.6570   27.4230   45.9900 N   0  0  0  0  0  0  0  0  0  0  0  0
   58.3170   27.6350   44.6070 C   0  0  0  0  0  0  0  0  0  0  0  0
   58.4090   26.6770   43.7910 O   0  0  0  0  0  0  0  0  0  0  0  0
   57.8860   28.9630   44.1150 C   0  0  0  0  0  0  0  0  0  0  0  0
   57.0260   29.0690   43.0100 C   0  0  0  0  0  0  0  0  0  0  0  0
   56.6180   30.3230   42.5540 C   0  0  0  0  0  0  0  0  0  0  0  0
   57.0600   31.4830   43.1960 C   0  0  0  0  0  0  0  0  0  0  0  0
   57.9140   31.3990   44.3110 C   0  0  0  0  0  0  0  0  0  0  0  0
   58.3920   32.6310   44.9900 C   0  0  0  0  0  0  0  0  0  0  0  0
   58.4190   33.8610   44.3070 C   0  0  0  0  0  0  0  0  0  0  0  0
   58.8740   35.0150   44.9490 C   0  0  0  0  0  0  0  0  0  0  0  0
   59.3070   34.9580   46.2760 C   0  0  0  0  0  0  0  0  0  0  0  0
   59.2830   33.7420   46.9720 C   0  0  0  0  0  0  0  0  0  0  0  0
   59.8430   33.6570   48.6390 S   0  0  0  0  0  0  0  0  0  0  0  0
   61.5180   33.2350   48.6650 N   0  0  0  0  0  0  0  0  0  0  0  0
   59.0500   32.6210   49.3850 O   0  0  0  0  0  0  0  0  0  0  0  0
   59.6550   34.9870   49.3140 O   0  0  0  0  0  0  0  0  0  0  0  0
   58.8320   32.5820   46.3260 C   0  0  0  0  0  0  0  0  0  0  0  0
   58.3140   30.1300   44.7690 C   0  0  0  0  0  0  0  0  0  0  0  0
   59.7670   26.5180   46.3240 C   0  0  0  0  0  0  0  0  0  0  0  0
   59.9270   26.3420   47.8410 C   0  0  0  0  0  0  0  0  0  0  0  0
   60.8990   29.2710   50.0110 C   0  0  0  0  0  0  0  0  0  0  0  0
   60.7390   33.1420   52.0020 C   0  0  0  0  0  0  0  0  0  0  0  0
   59.6690   33.7110   52.9500 C   0  0  0  0  0  0  0  0  0  0  0  0
   56.7948   32.0628   52.4267 H   0  0  0  0  0  0  0  0  0  0  0  0
   57.6582   33.3248   51.4841 H   0  0  0  0  0  0  0  0  0  0  0  0
   58.2623   31.6332   51.4841 H   0  0  0  0  0  0  0  0  0  0  0  0
   58.9944   31.5663   54.9879 H   0  0  0  0  0  0  0  0  0  0  0  0
   58.6043   30.6377   53.4562 H   0  0  0  0  0  0  0  0  0  0  0  0
   61.2371   31.7261   54.4288 H   0  0  0  0  0  0  0  0  0  0  0  0
   60.8274   30.1420   53.6637 H   0  0  0  0  0  0  0  0  0  0  0  0
   62.8064   28.7782   52.8053 H   0  0  0  0  0  0  0  0  0  0  0  0
   60.9277   25.8592   50.2264 H   0  0  0  0  0  0  0  0  0  0  0  0
   58.1052   28.7795   49.0422 H   0  0  0  0  0  0  0  0  0  0  0  0
   59.1774   29.4863   47.7642 H   0  0  0  0  0  0  0  0  0  0  0  0
   57.1988   27.1802   47.4917 H   0  0  0  0  0  0  0  0  0  0  0  0
   57.1779   28.7691   46.6531 H   0  0  0  0  0  0  0  0  0  0  0  0
   56.6725   28.1597   42.5018 H   0  0  0  0  0  0  0  0  0  0  0  0
   55.9462   30.3988   41.6863 H   0  0  0  0  0  0  0  0  0  0  0  0
   56.7381   32.4681   42.8272 H   0  0  0  0  0  0  0  0  0  0  0  0
   58.0800   33.9140   43.2619 H   0  0  0  0  0  0  0  0  0  0  0  0
   58.8915   35.9724   44.4076 H   0  0  0  0  0  0  0  0  0  0  0  0
   59.6675   35.8694   46.7755 H   0  0  0  0  0  0  0  0  0  0  0  0
   61.6870   32.7140   49.5560 H   0  0  0  0  0  0  0  0  0  0  0  0
   58.8220   31.6250   46.8683 H   0  0  0  0  0  0  0  0  0  0  0  0
   58.9692   30.0511   45.6491 H   0  0  0  0  0  0  0  0  0  0  0  0
   59.5727   25.5348   45.8706 H   0  0  0  0  0  0  0  0  0  0  0  0
   60.6955   26.9592   45.9326 H   0  0  0  0  0  0  0  0  0  0  0  0
   59.1498   25.6562   48.2093 H   0  0  0  0  0  0  0  0  0  0  0  0
   60.9262   25.9306   48.0467 H   0  0  0  0  0  0  0  0  0  0  0  0
   60.5117   30.0820   49.3767 H   0  0  0  0  0  0  0  0  0  0  0  0
   61.6550   33.7447   52.0902 H   0  0  0  0  0  0  0  0  0  0  0  0
   60.3512   33.1788   50.9733 H   0  0  0  0  0  0  0  0  0  0  0  0
   60.1535   34.0217   53.8874 H   0  0  0  0  0  0  0  0  0  0  0  0
   59.1895   34.5649   52.4491 H   0  0  0  0  0  0  0  0  0  0  0  0
  1  2  1  0
  2  3  1  0
  3  4  1  0
  4  5  1  0
  5  6  1  0
  6  7  2  0
  6  8  1  0
  8  9  2  0
  9 10  1  0
 10 11  1  0
 10 12  2  0
 12 13  1  0
 13 14  1  0
 14 15  1  0
 15 16  1  0
 16 17  1  0
 17 18  1  0
 18 19  2  0
 18 20  1  0
 20 21  2  0
 21 22  1  0
 22 23  2  0
 23 24  1  0
 24 25  1  0
 25 26  2  0
 26 27  1  0
 27 28  2  0
 28 29  1  0
 29 30  1  0
 30 31  1  0
 30 32  2  0
 30 33  2  0
 29 34  2  0
 24 35  2  0
 17 36  1  0
 36 37  1  0
 13 38  2  0
  5 39  1  0
 39 40  1  0
 40  2  1  0
 38  8  1  0
 37 14  1  0
 35 20  1  0
 34 25  1  0
  1 41  1  0
  1 42  1  0
  1 43  1  0
  3 44  1  0
  3 45  1  0
  4 46  1  0
  4 47  1  0
  9 48  1  0
 12 49  1  0
 15 50  1  0
 15 51  1  0
 16 52  1  0
 16 53  1  0
 21 54  1  0
 22 55  1  0
 23 56  1  0
 26 57  1  0
 27 58  1  0
 28 59  1  0
 31 60  1  0
 34 61  1  0
 35 62  1  0
 36 63  1  0
 36 64  1  0
 37 65  1  0
 37 66  1  0
 38 67  1  0
 39 68  1  0
 39 69  1  0
 40 70  1  0
 40 71  1  0
M  CHG  1  31  -1
M  END
>  <UniqueID>  (43) 
43

>  <SMILES>  (43) 
CN1CCN(C(=O)c2cc(Cl)cc(N3CCN(C(=O)c4cccc(-c5cccc(S([NH-])(=O)=O)c5)c4)CC3)c2)CC1

>  <Energy>  (43) 
98.43527051316545

>  <Genealogy>  (43) 
CN1CCN(C(=O)c2cc(Cl)cc(N3CCN(C(=O)c4cccc(-c5cccc(S([NH-])(=O)=O)c5)c4)CC3)c2)CC1 (protonated)
CN1CCN(C(=O)c2cc(Cl)cc(N3CCN(C(=O)c4cccc(-c5cccc(S([NH-])(=O)=O)c5)c4)CC3)c2)CC1 (3D coordinates assigned)
CN1CCN(C(=O)c2cc(Cl)cc(N3CCN(C(=O)c4cccc(-c5cccc(S([NH-])(=O)=O)c5)c4)CC3)c2)CC1 (nonaromatic ring conformer: 98.43527051316545 kcal/mol)

>  <smiles>  (43) 
CN1CCN(C(=O)c2cc(Cl)cc(N3CCN(C(=O)c4cccc(-c5cccc(S(N)(=O)=O)c5)c4)CC3)c2)CC1

>  <score_type>  (43) 
oracle

>  <origin>  (43) 
adg

>  <m_score__min__energy>  (43) 
-15.220000000000001

>  <m_primary>  (43) 
energy

$$$$
43:0
     RDKit          3D

 69 73  0  0  0  0  0  0  0  0999 V2000
   57.0390   21.2680   48.4210 O   0  0  0  0  0  0  0  0  0  0  0  0
   56.5790   22.4410   48.4690 C   0  0  0  0  0  0  0  0  0  0  0  0
   55.0980   22.6540   48.5440 C   0  0  0  0  0  0  0  0  0  0  0  0
   54.3580   21.8530   47.4640 C   0  0  0  0  0  0  0  0  0  0  0  0
   54.9900   22.0250   46.1060 C   0  0  0  0  0  0  0  0  0  0  0  0
   54.6500   23.1230   45.3000 C   0  0  0  0  0  0  0  0  0  0  0  0
   55.1930   23.2520   44.0170 C   0  0  0  0  0  0  0  0  0  0  0  0
   56.0790   22.2860   43.5280 C   0  0  0  0  0  0  0  0  0  0  0  0
   56.6110   22.4210   42.2450 O   0  0  0  0  0  0  0  0  0  0  0  0
   56.4230   21.1880   44.3280 C   0  0  0  0  0  0  0  0  0  0  0  0
   55.8790   21.0570   45.6110 C   0  0  0  0  0  0  0  0  0  0  0  0
   57.4610   23.5710   48.4430 N   0  0  0  0  0  0  0  0  0  0  0  0
   57.6650   24.4240   47.3100 C   0  0  0  0  0  0  0  0  0  0  0  0
   57.9230   23.8440   46.0500 C   0  0  0  0  0  0  0  0  0  0  0  0
   58.0800   24.6500   44.9090 C   0  0  0  0  0  0  0  0  0  0  0  0
   57.9690   26.0340   45.0500 C   0  0  0  0  0  0  0  0  0  0  0  0
   57.6960   26.6020   46.2700 C   0  0  0  0  0  0  0  0  0  0  0  0
   57.5510   25.8250   47.4170 C   0  0  0  0  0  0  0  0  0  0  0  0
   57.5790   28.0740   46.1590 C   0  0  0  0  0  0  0  0  0  0  0  0
   57.7720   28.3160   44.7260 N   0  0  0  0  0  0  0  0  0  0  0  0
   57.4810   29.5600   44.0610 C   0  0  0  0  0  0  0  0  0  0  0  0
   56.8670   29.5440   42.9570 O   0  0  0  0  0  0  0  0  0  0  0  0
   57.8330   30.8610   44.6620 C   0  0  0  0  0  0  0  0  0  0  0  0
   58.9010   30.9410   45.5760 C   0  0  0  0  0  0  0  0  0  0  0  0
   59.2410   32.1660   46.1590 C   0  0  0  0  0  0  0  0  0  0  0  0
   58.5040   33.3210   45.8520 C   0  0  0  0  0  0  0  0  0  0  0  0
   58.8510   34.6130   46.4620 C   0  0  0  0  0  0  0  0  0  0  0  0
   60.0240   34.8920   47.0570 C   0  0  0  0  0  0  0  0  0  0  0  0
   60.7930   34.0080   47.9670 C   0  0  0  0  0  0  0  0  0  0  0  0
   60.1570   33.2570   48.7550 O   0  0  0  0  0  0  0  0  0  0  0  0
   62.2240   33.9700   47.9730 N   0  0  0  0  0  0  0  0  0  0  0  0
   62.9450   34.2620   49.2100 C   0  0  0  0  0  0  0  0  0  0  0  0
   63.4250   32.9410   49.8240 C   0  0  0  0  0  0  0  0  0  0  0  0
   64.1950   32.2040   48.8890 O   0  0  0  0  0  0  0  0  0  0  0  0
   63.4090   31.8510   47.7640 C   0  0  0  0  0  0  0  0  0  0  0  0
   62.9190   33.1030   47.0230 C   0  0  0  0  0  0  0  0  0  0  0  0
   57.4630   33.2510   44.9180 C   0  0  0  0  0  0  0  0  0  0  0  0
   57.1150   32.0230   44.3430 C   0  0  0  0  0  0  0  0  0  0  0  0
   58.0550   27.0730   43.9940 C   0  0  0  0  0  0  0  0  0  0  0  0
   54.7407   22.3339   49.5339 H   0  0  0  0  0  0  0  0  0  0  0  0
   54.8948   23.7226   48.3805 H   0  0  0  0  0  0  0  0  0  0  0  0
   54.3797   20.7869   47.7341 H   0  0  0  0  0  0  0  0  0  0  0  0
   53.3249   22.2267   47.4095 H   0  0  0  0  0  0  0  0  0  0  0  0
   53.9535   23.8854   45.6789 H   0  0  0  0  0  0  0  0  0  0  0  0
   54.9226   24.1152   43.3911 H   0  0  0  0  0  0  0  0  0  0  0  0
   56.9470   23.3140   41.9010 H   0  0  0  0  0  0  0  0  0  0  0  0
   57.1214   20.4282   43.9472 H   0  0  0  0  0  0  0  0  0  0  0  0
   56.1490   20.1919   46.2344 H   0  0  0  0  0  0  0  0  0  0  0  0
   58.0021   22.7506   45.9596 H   0  0  0  0  0  0  0  0  0  0  0  0
   58.2858   24.1997   43.9267 H   0  0  0  0  0  0  0  0  0  0  0  0
   57.3508   26.2969   48.3903 H   0  0  0  0  0  0  0  0  0  0  0  0
   56.5868   28.4171   46.4872 H   0  0  0  0  0  0  0  0  0  0  0  0
   58.3008   28.6138   46.7896 H   0  0  0  0  0  0  0  0  0  0  0  0
   59.4707   30.0357   45.8328 H   0  0  0  0  0  0  0  0  0  0  0  0
   60.0873   32.2247   46.8593 H   0  0  0  0  0  0  0  0  0  0  0  0
   58.0945   35.4109   46.4291 H   0  0  0  0  0  0  0  0  0  0  0  0
   60.4594   35.8800   46.8469 H   0  0  0  0  0  0  0  0  0  0  0  0
   63.8107   34.9043   48.9909 H   0  0  0  0  0  0  0  0  0  0  0  0
   62.2818   34.7838   49.9157 H   0  0  0  0  0  0  0  0  0  0  0  0
   64.0416   33.1572   50.7089 H   0  0  0  0  0  0  0  0  0  0  0  0
   62.5463   32.3431   50.1077 H   0  0  0  0  0  0  0  0  0  0  0  0
   64.0153   31.2409   47.0783 H   0  0  0  0  0  0  0  0  0  0  0  0
   62.5333   31.2832   48.1115 H   0  0  0  0  0  0  0  0  0  0  0  0
   63.7784   33.6388   46.5937 H   0  0  0  0  0  0  0  0  0  0  0  0
   62.2354   32.8137   46.2113 H   0  0  0  0  0  0  0  0  0  0  0  0
   56.9173   34.1633   44.6354 H   0  0  0  0  0  0  0  0  0  0  0  0
   56.2734   31.9690   43.6367 H   0  0  0  0  0  0  0  0  0  0  0  0
   57.3065   26.8990   43.2069 H   0  0  0  0  0  0  0  0  0  0  0  0
   59.0266   27.0863   43.4784 H   0  0  0  0  0  0  0  0  0  0  0  0
  1  2  2  0
  2  3  1  0
  3  4  1  0
  4  5  1  0
  5  6  2  0
  6  7  1  0
  7  8  2  0
  8  9  1  0
  8 10  1  0
 10 11  2  0
  2 12  1  0
 12 13  1  0
 13 14  2  0
 14 15  1  0
 15 16  2  0
 16 17  1  0
 17 18  2  0
 17 19  1  0
 19 20  1  0
 20 21  1  0
 21 22  2  0
 21 23  1  0
 23 24  2  0
 24 25  1  0
 25 26  2  0
 26 27  1  0
 27 28  2  3
 28 29  1  0
 29 30  2  0
 29 31  1  0
 31 32  1  0
 32 33  1  0
 33 34  1  0
 34 35  1  0
 35 36  1  0
 26 37  1  0
 37 38  2  0
 20 39  1  0
 11  5  1  0
 18 13  1  0
 38 23  1  0
 39 16  1  0
 36 31  1  0
  3 40  1  0
  3 41  1  0
  4 42  1  0
  4 43  1  0
  6 44  1  0
  7 45  1  0
  9 46  1  0
 10 47  1  0
 11 48  1  0
 14 49  1  0
 15 50  1  0
 18 51  1  0
 19 52  1  0
 19 53  1  0
 24 54  1  0
 25 55  1  0
 27 56  1  0
 28 57  1  0
 32 58  1  0
 32 59  1  0
 33 60  1  0
 33 61  1  0
 35 62  1  0
 35 63  1  0
 36 64  1  0
 36 65  1  0
 37 66  1  0
 38 67  1  0
 39 68  1  0
 39 69  1  0
M  CHG  1  12  -1
M  END
>  <UniqueID>  (44) 
44

>  <SMILES>  (44) 
O=C(CCc1ccc(O)cc1)[N-]c1ccc2c(c1)CN(C(=O)c1ccc(C=CC(=O)N3CCOCC3)cc1)C2

>  <Energy>  (44) 
102.3314034223474

>  <Genealogy>  (44) 
O=C(CCc1ccc(O)cc1)[N-]c1ccc2c(c1)CN(C(=O)c1ccc(C=CC(=O)N3CCOCC3)cc1)C2 (protonated)
O=C(CCc1ccc(O)cc1)[N-]c1ccc2c(c1)CN(C(=O)c1ccc(C=CC(=O)N3CCOCC3)cc1)C2 (3D coordinates assigned)
O=C(CCc1ccc(O)cc1)[N-]c1ccc2c(c1)CN(C(=O)c1ccc(C=CC(=O)N3CCOCC3)cc1)C2 (nonaromatic ring conformer: 102.3314034223474 kcal/mol)

>  <smiles>  (44) 
O=C(CCc1ccc(O)cc1)Nc1ccc2c(c1)CN(C(=O)c1ccc(C=CC(=O)N3CCOCC3)cc1)C2

>  <score_type>  (44) 
oracle

>  <origin>  (44) 
adg

>  <m_score__min__energy>  (44) 
-12.82

>  <m_primary>  (44) 
energy

$$$$
44:0
     RDKit          3D

 62 65  0  0  0  0  0  0  0  0999 V2000
   55.2350   29.3450   44.6450 O   0  0  0  0  0  0  0  0  0  0  0  0
   56.4860   29.4710   44.6990 C   0  0  0  0  0  0  0  0  0  0  0  0
   57.3260   28.7360   43.6910 C   0  0  0  0  0  0  0  0  0  0  0  0
   58.0320   27.6310   44.3400 N   0  0  0  0  0  0  0  0  0  0  0  0
   58.5890   27.6170   45.5190 C   0  0  0  0  0  0  0  0  0  0  0  0
   58.2260   26.7000   46.5260 C   0  0  0  0  0  0  0  0  0  0  0  0
   58.9020   26.7120   47.7480 C   0  0  0  0  0  0  0  0  0  0  0  0
   59.9190   27.6530   47.9900 C   0  0  0  0  0  0  0  0  0  0  0  0
   60.6750   27.6920   49.2730 C   0  0  0  0  0  0  0  0  0  0  0  0
   60.8340   26.6270   49.9260 O   0  0  0  0  0  0  0  0  0  0  0  0
   61.2350   28.9100   49.7860 N   0  0  0  0  0  0  0  0  0  0  0  0
   61.8020   28.9670   51.1340 C   0  0  0  0  0  0  0  0  0  0  0  0
   62.0400   30.4100   51.5930 C   0  0  0  0  0  0  0  0  0  0  0  0
   60.9430   31.3320   51.1240 C   0  0  0  0  0  0  0  0  0  0  0  0
   59.6260   30.8620   51.0170 C   0  0  0  0  0  0  0  0  0  0  0  0
   58.6120   31.7060   50.5540 C   0  0  0  0  0  0  0  0  0  0  0  0
   58.9060   33.0230   50.1930 C   0  0  0  0  0  0  0  0  0  0  0  0
   60.2140   33.4990   50.3000 C   0  0  0  0  0  0  0  0  0  0  0  0
   61.2290   32.6600   50.7650 C   0  0  0  0  0  0  0  0  0  0  0  0
   60.2380   28.5560   46.9610 C   0  0  0  0  0  0  0  0  0  0  0  0
   59.5800   28.5090   45.7730 N   0  0  0  0  0  0  0  0  0  0  0  0
   57.0390   30.4080   45.6320 N   0  0  0  0  0  0  0  0  0  0  0  0
   57.7070   31.6370   45.3280 C   0  0  0  0  0  0  0  0  0  0  0  0
   57.5310   32.2880   44.0980 C   0  0  0  0  0  0  0  0  0  0  0  0
   58.2200   33.4720   43.8280 C   0  0  0  0  0  0  0  0  0  0  0  0
   59.0970   34.0080   44.7750 C   0  0  0  0  0  0  0  0  0  0  0  0
   59.2960   33.3580   46.0010 C   0  0  0  0  0  0  0  0  0  0  0  0
   60.2560   33.9020   46.9840 C   0  0  0  0  0  0  0  0  0  0  0  0
   59.9550   34.9540   47.6090 O   0  0  0  0  0  0  0  0  0  0  0  0
   61.5220   33.2660   47.2360 N   0  0  0  0  0  0  0  0  0  0  0  0
   62.6570   33.9790   47.8020 C   0  0  0  0  0  0  0  0  0  0  0  0
   63.6240   32.9030   48.2770 C   0  0  0  0  0  0  0  0  0  0  0  0
   63.1990   31.6220   47.5680 C   0  0  0  0  0  0  0  0  0  0  0  0
   61.7320   31.8270   47.2030 C   0  0  0  0  0  0  0  0  0  0  0  0
   58.6210   32.1520   46.2540 C   0  0  0  0  0  0  0  0  0  0  0  0
   56.6772   28.3377   42.8970 H   0  0  0  0  0  0  0  0  0  0  0  0
   58.0613   29.4302   43.2581 H   0  0  0  0  0  0  0  0  0  0  0  0
   57.4144   25.9786   46.3503 H   0  0  0  0  0  0  0  0  0  0  0  0
   58.6374   25.9809   48.5261 H   0  0  0  0  0  0  0  0  0  0  0  0
   61.2920   29.7530   49.1780 H   0  0  0  0  0  0  0  0  0  0  0  0
   61.1057   28.4815   51.8336 H   0  0  0  0  0  0  0  0  0  0  0  0
   62.7726   28.4497   51.1179 H   0  0  0  0  0  0  0  0  0  0  0  0
   62.0793   30.4327   52.6921 H   0  0  0  0  0  0  0  0  0  0  0  0
   62.9889   30.7564   51.1576 H   0  0  0  0  0  0  0  0  0  0  0  0
   59.3898   29.8252   51.2985 H   0  0  0  0  0  0  0  0  0  0  0  0
   57.5806   31.3321   50.4739 H   0  0  0  0  0  0  0  0  0  0  0  0
   58.1078   33.6843   49.8248 H   0  0  0  0  0  0  0  0  0  0  0  0
   60.4456   34.5366   50.0176 H   0  0  0  0  0  0  0  0  0  0  0  0
   62.2575   33.0407   50.8506 H   0  0  0  0  0  0  0  0  0  0  0  0
   61.0265   29.3066   47.1187 H   0  0  0  0  0  0  0  0  0  0  0  0
   56.8493   31.8652   43.3453 H   0  0  0  0  0  0  0  0  0  0  0  0
   58.0720   33.9849   42.8662 H   0  0  0  0  0  0  0  0  0  0  0  0
   59.6332   34.9435   44.5575 H   0  0  0  0  0  0  0  0  0  0  0  0
   63.1323   34.6116   47.0379 H   0  0  0  0  0  0  0  0  0  0  0  0
   62.3509   34.6418   48.6248 H   0  0  0  0  0  0  0  0  0  0  0  0
   64.6562   33.1678   48.0040 H   0  0  0  0  0  0  0  0  0  0  0  0
   63.5979   32.7887   49.3707 H   0  0  0  0  0  0  0  0  0  0  0  0
   63.8026   31.4655   46.6618 H   0  0  0  0  0  0  0  0  0  0  0  0
   63.3417   30.7362   48.2044 H   0  0  0  0  0  0  0  0  0  0  0  0
   61.5269   31.4313   46.1973 H   0  0  0  0  0  0  0  0  0  0  0  0
   61.0608   31.3001   47.8971 H   0  0  0  0  0  0  0  0  0  0  0  0
   58.8131   31.6069   47.1899 H   0  0  0  0  0  0  0  0  0  0  0  0
  1  2  2  0
  2  3  1  0
  3  4  1  0
  4  5  2  3
  5  6  1  0
  6  7  2  0
  7  8  1  0
  8  9  1  0
  9 10  2  0
  9 11  1  0
 11 12  1  0
 12 13  1  0
 13 14  1  0
 14 15  2  0
 15 16  1  0
 16 17  2  0
 17 18  1  0
 18 19  2  0
  8 20  2  0
 20 21  1  0
  2 22  1  0
 22 23  1  0
 23 24  2  0
 24 25  1  0
 25 26  2  0
 26 27  1  0
 27 28  1  0
 28 29  2  0
 28 30  1  0
 30 31  1  0
 31 32  1  0
 32 33  1  0
 33 34  1  0
 27 35  2  0
 21  5  1  0
 35 23  1  0
 19 14  1  0
 34 30  1  0
  3 36  1  0
  3 37  1  0
  6 38  1  0
  7 39  1  0
 11 40  1  0
 12 41  1  0
 12 42  1  0
 13 43  1  0
 13 44  1  0
 15 45  1  0
 16 46  1  0
 17 47  1  0
 18 48  1  0
 19 49  1  0
 20 50  1  0
 24 51  1  0
 25 52  1  0
 26 53  1  0
 31 54  1  0
 31 55  1  0
 32 56  1  0
 32 57  1  0
 33 58  1  0
 33 59  1  0
 34 60  1  0
 34 61  1  0
 35 62  1  0
M  CHG  2  21  -1  22  -1
M  END
>  <UniqueID>  (45) 
45

>  <SMILES>  (45) 
O=C(CN=c1ccc(C(=O)NCCc2ccccc2)c[n-]1)[N-]c1cccc(C(=O)N2CCCC2)c1

>  <Energy>  (45) 
71.62331690298727

>  <Genealogy>  (45) 
O=C(CN=c1ccc(C(=O)NCCc2ccccc2)c[n-]1)[N-]c1cccc(C(=O)N2CCCC2)c1 (protonated)
O=C(CN=c1ccc(C(=O)NCCc2ccccc2)c[n-]1)[N-]c1cccc(C(=O)N2CCCC2)c1 (3D coordinates assigned)
O=C(CN=c1ccc(C(=O)NCCc2ccccc2)c[n-]1)[N-]c1cccc(C(=O)N2CCCC2)c1 (nonaromatic ring conformer: 71.62331690298727 kcal/mol)

>  <smiles>  (45) 
O=C(CN=c1ccc(C(=O)NCCc2ccccc2)c[nH]1)Nc1cccc(C(=O)N2CCCC2)c1

>  <score_type>  (45) 
oracle

>  <origin>  (45) 
adg

>  <m_score__min__energy>  (45) 
-12.800000000000001

>  <m_primary>  (45) 
energy

$$$$
45:0
     RDKit          3D

 53 57  0  0  0  0  0  0  0  0999 V2000
   54.4239   29.5186   50.9769 H   0  0  0  0  0  0  0  0  0  0  0  0
   54.2300   30.4820   51.4710 C   0  0  0  0  0  0  0  0  0  0  0  0
   55.2060   31.3070   51.6920 N   0  0  0  0  0  0  0  0  0  0  0  0
   56.5720   30.9560   51.9830 C   0  0  0  0  0  0  0  0  0  0  0  0
   57.6380   31.8960   51.5530 C   0  0  0  0  0  0  0  0  0  0  0  0
   57.9220   33.0670   52.2800 C   0  0  0  0  0  0  0  0  0  0  0  0
   57.3649   33.2860   53.2029 H   0  0  0  0  0  0  0  0  0  0  0  0
   58.9070   33.9530   51.8370 C   0  0  0  0  0  0  0  0  0  0  0  0
   59.1257   34.8629   52.4152 H   0  0  0  0  0  0  0  0  0  0  0  0
   59.6150   33.6880   50.6630 C   0  0  0  0  0  0  0  0  0  0  0  0
   60.3845   34.3931   50.3155 H   0  0  0  0  0  0  0  0  0  0  0  0
   59.3480   32.5260   49.9260 C   0  0  0  0  0  0  0  0  0  0  0  0
   60.0710   32.2640   48.6310 C   0  0  0  0  0  0  0  0  0  0  0  0
   61.0579   32.7488   48.6619 H   0  0  0  0  0  0  0  0  0  0  0  0
   60.1885   31.1781   48.5001 H   0  0  0  0  0  0  0  0  0  0  0  0
   59.3070   32.7980   47.5070 N   0  0  0  0  0  0  0  0  0  0  0  0
   59.6890   33.8730   46.6500 C   0  0  0  0  0  0  0  0  0  0  0  0
   60.5210   34.7600   46.9750 O   0  0  0  0  0  0  0  0  0  0  0  0
   59.0450   33.8390   45.3750 N   0  0  0  0  0  0  0  0  0  0  0  0
   58.3160   32.7680   45.3800 C   0  0  0  0  0  0  0  0  0  0  0  0
   57.4220   32.3750   44.2480 C   0  0  0  0  0  0  0  0  0  0  0  0
   56.5465   33.0407   44.2272 H   0  0  0  0  0  0  0  0  0  0  0  0
   57.9778   32.4600   43.3026 H   0  0  0  0  0  0  0  0  0  0  0  0
   56.9650   30.9600   44.4240 C   0  0  0  0  0  0  0  0  0  0  0  0
   55.6510   30.5030   44.3910 C   0  0  0  0  0  0  0  0  0  0  0  0
   54.7650   31.1467   44.2876 H   0  0  0  0  0  0  0  0  0  0  0  0
   55.6170   29.1560   44.5040 N   0  0  0  0  0  0  0  0  0  0  0  0
   54.7660   28.5490   44.5030 H   0  0  0  0  0  0  0  0  0  0  0  0
   56.8980   28.7570   44.5940 C   0  0  0  0  0  0  0  0  0  0  0  0
   57.3710   27.4510   44.7050 C   0  0  0  0  0  0  0  0  0  0  0  0
   56.6781   26.5977   44.7468 H   0  0  0  0  0  0  0  0  0  0  0  0
   58.7650   27.2590   44.7620 C   0  0  0  0  0  0  0  0  0  0  0  0
   59.1732   26.2415   44.8523 H   0  0  0  0  0  0  0  0  0  0  0  0
   59.6420   28.3640   44.7040 C   0  0  0  0  0  0  0  0  0  0  0  0
   60.7291   28.2015   44.7467 H   0  0  0  0  0  0  0  0  0  0  0  0
   59.1350   29.6710   44.5920 C   0  0  0  0  0  0  0  0  0  0  0  0
   59.8085   30.5394   44.5439 H   0  0  0  0  0  0  0  0  0  0  0  0
   57.7510   29.8300   44.5440 C   0  0  0  0  0  0  0  0  0  0  0  0
   58.4350   32.0720   46.6550 C   0  0  0  0  0  0  0  0  0  0  0  0
   57.8780   30.9860   46.9640 O   0  0  0  0  0  0  0  0  0  0  0  0
   58.3540   31.6400   50.3690 C   0  0  0  0  0  0  0  0  0  0  0  0
   58.1321   30.7352   49.7841 H   0  0  0  0  0  0  0  0  0  0  0  0
   56.8680   29.8630   52.6300 N   0  0  0  0  0  0  0  0  0  0  0  0
   56.2060   29.0560   52.6720 H   0  0  0  0  0  0  0  0  0  0  0  0
   57.7740   29.7410   53.1310 H   0  0  0  0  0  0  0  0  0  0  0  0
   52.8680   30.8360   51.8810 C   0  0  0  0  0  0  0  0  0  0  0  0
   52.2610   31.9930   51.5450 N   0  0  0  0  0  0  0  0  0  0  0  0
   51.0430   31.9170   52.1120 C   0  0  0  0  0  0  0  0  0  0  0  0
   50.0900   32.9200   52.0060 O   0  0  0  0  0  0  0  0  0  0  0  0
   50.8640   30.7370   52.8000 C   0  0  0  0  0  0  0  0  0  0  0  0
   49.9680   30.4194   53.3536 H   0  0  0  0  0  0  0  0  0  0  0  0
   52.0410   30.0380   52.6500 C   0  0  0  0  0  0  0  0  0  0  0  0
   52.2760   29.0445   53.0596 H   0  0  0  0  0  0  0  0  0  0  0  0
  1  2  1  0
  2  3  2  0
  3  4  1  0
  4  5  1  0
  5  6  2  0
  6  7  1  0
  6  8  1  0
  8  9  1  0
  8 10  2  0
 10 11  1  0
 10 12  1  0
 12 13  1  0
 13 14  1  0
 13 15  1  0
 13 16  1  0
 16 17  1  0
 17 18  2  0
 17 19  1  0
 19 20  2  0
 20 21  1  0
 21 22  1  0
 21 23  1  0
 21 24  1  0
 24 25  2  0
 25 26  1  0
 25 27  1  0
 27 28  1  0
 27 29  1  0
 29 30  2  0
 30 31  1  0
 30 32  1  0
 32 33  1  0
 32 34  2  0
 34 35  1  0
 34 36  1  0
 36 37  1  0
 36 38  2  0
 20 39  1  0
 39 40  2  0
 12 41  2  0
 41 42  1  0
  4 43  2  0
 43 44  1  0
 43 45  1  0
  2 46  1  0
 46 47  1  0
 47 48  1  0
 48 49  1  0
 48 50  2  0
 50 51  1  0
 50 52  1  0
 52 53  1  0
 41  5  1  0
 52 46  2  0
 39 16  1  0
 38 24  1  0
 38 29  1  0
M  CHG  3  43   1  47  -1  49  -1
M  END
>  <UniqueID>  (46) 
46

>  <SMILES>  (46) 
[NH2+]=C(/N=C/c1ccc([O-])[n-]1)c1cccc(CN2C(=O)N=C(Cc3c[nH]c4ccccc34)C2=O)c1

>  <Energy>  (46) 
145.76630103673392

>  <Genealogy>  (46) 
[NH2+]=C(N=Cc1ccc([O-])[n-]1)c1cccc(CN2C(=O)N=C(Cc3c[nH]c4ccccc34)C2=O)c1 (protonated)
[NH2+]=C(/N=C/c1ccc([O-])[n-]1)c1cccc(CN2C(=O)N=C(Cc3c[nH]c4ccccc34)C2=O)c1 (cis-trans isomerization)
[NH2+]=C(/N=C/c1ccc([O-])[n-]1)c1cccc(CN2C(=O)N=C(Cc3c[nH]c4ccccc34)C2=O)c1 (3D coordinates assigned)
[NH2+]=C(/N=C/c1ccc([O-])[n-]1)c1cccc(CN2C(=O)N=C(Cc3c[nH]c4ccccc34)C2=O)c1 (nonaromatic ring conformer: 145.76630103673392 kcal/mol)

>  <smiles>  (46) 
N=C(N=Cc1ccc(O)[nH]1)c1cccc(CN2C(=O)N=C(Cc3c[nH]c4ccccc34)C2=O)c1

>  <score_type>  (46) 
oracle

>  <origin>  (46) 
adg

>  <m_score__min__energy>  (46) 
-15.23

>  <m_primary>  (46) 
energy

$$$$
46:0
     RDKit          3D

 51 55  0  0  0  0  0  0  0  0999 V2000
   57.2000   29.6640   44.1890 C   0  0  0  0  0  0  0  0  0  0  0  0
   57.8220   29.4630   45.3670 C   0  0  0  0  0  0  0  0  0  0  0  0
   58.0990   28.1890   45.8980 C   0  0  0  0  0  0  0  0  0  0  0  0
   58.0630   26.9620   45.3390 C   0  0  0  0  0  0  0  0  0  0  0  0
   57.4370   25.7660   45.9310 C   0  0  0  0  0  0  0  0  0  0  0  0
   58.1130   24.6760   46.3390 N   0  0  0  0  0  0  0  0  0  0  0  0
   57.1590   23.9170   46.9200 C   0  0  0  0  0  0  0  0  0  0  0  0
   57.4010   22.7880   47.4200 O   0  0  0  0  0  0  0  0  0  0  0  0
   55.9250   24.4650   46.9260 N   0  0  0  0  0  0  0  0  0  0  0  0
   56.1180   25.6410   46.3080 C   0  0  0  0  0  0  0  0  0  0  0  0
   55.1040   26.5710   46.0940 O   0  0  0  0  0  0  0  0  0  0  0  0
   58.5040   28.3860   47.1960 C   0  0  0  0  0  0  0  0  0  0  0  0
   58.5550   29.7440   47.3980 C   0  0  0  0  0  0  0  0  0  0  0  0
   59.0710   30.3420   48.6480 C   0  0  0  0  0  0  0  0  0  0  0  0
   58.4270   30.1690   49.7190 O   0  0  0  0  0  0  0  0  0  0  0  0
   60.2510   31.1730   48.6510 N   0  0  0  0  0  0  0  0  0  0  0  0
   60.5040   32.0760   49.7790 C   0  0  0  0  0  0  0  0  0  0  0  0
   61.4700   33.1870   49.3570 C   0  0  0  0  0  0  0  0  0  0  0  0
   62.7570   32.6500   48.8540 N   0  0  0  0  0  0  0  0  0  0  0  0
   63.4260   33.6690   48.0330 C   0  0  0  0  0  0  0  0  0  0  0  0
   64.0950   33.1070   46.7870 C   0  0  0  0  0  0  0  0  0  0  0  0
   62.7820   33.8640   46.6680 C   0  0  0  0  0  0  0  0  0  0  0  0
   62.6420   31.3700   48.1060 C   0  0  0  0  0  0  0  0  0  0  0  0
   61.2320   31.1050   47.5600 C   0  0  0  0  0  0  0  0  0  0  0  0
   58.1470   30.4290   46.2970 N   0  0  0  0  0  0  0  0  0  0  0  0
   58.0510   31.9180   46.3110 C   0  0  0  0  0  0  0  0  0  0  0  0
   59.1740   32.7000   45.6570 C   0  0  0  0  0  0  0  0  0  0  0  0
   57.7940   32.6120   44.9870 C   0  0  0  0  0  0  0  0  0  0  0  0
   57.0146   30.6880   43.8326 H   0  0  0  0  0  0  0  0  0  0  0  0
   56.8776   28.8041   43.5835 H   0  0  0  0  0  0  0  0  0  0  0  0
   58.5424   26.8436   44.3561 H   0  0  0  0  0  0  0  0  0  0  0  0
   54.3460   26.6870   46.7550 H   0  0  0  0  0  0  0  0  0  0  0  0
   58.7421   27.6051   47.9332 H   0  0  0  0  0  0  0  0  0  0  0  0
   59.5543   32.5244   50.1062 H   0  0  0  0  0  0  0  0  0  0  0  0
   60.9518   31.5039   50.6049 H   0  0  0  0  0  0  0  0  0  0  0  0
   60.9991   33.7820   48.5606 H   0  0  0  0  0  0  0  0  0  0  0  0
   61.6845   33.8021   50.2433 H   0  0  0  0  0  0  0  0  0  0  0  0
   63.7372   34.3319   48.8538 H   0  0  0  0  0  0  0  0  0  0  0  0
   65.0256   33.5577   46.4117 H   0  0  0  0  0  0  0  0  0  0  0  0
   64.4507   32.1136   46.4763 H   0  0  0  0  0  0  0  0  0  0  0  0
   62.7627   34.8624   46.2066 H   0  0  0  0  0  0  0  0  0  0  0  0
   61.7945   33.6450   46.2356 H   0  0  0  0  0  0  0  0  0  0  0  0
   63.3439   31.3970   47.2595 H   0  0  0  0  0  0  0  0  0  0  0  0
   62.8729   30.5598   48.8133 H   0  0  0  0  0  0  0  0  0  0  0  0
   60.9865   31.8628   46.8014 H   0  0  0  0  0  0  0  0  0  0  0  0
   61.2017   30.1024   47.1085 H   0  0  0  0  0  0  0  0  0  0  0  0
   57.5721   31.9367   47.3011 H   0  0  0  0  0  0  0  0  0  0  0  0
   59.5136   33.6493   46.0969 H   0  0  0  0  0  0  0  0  0  0  0  0
   60.2061   32.4748   45.3503 H   0  0  0  0  0  0  0  0  0  0  0  0
   57.1435   33.4981   44.9463 H   0  0  0  0  0  0  0  0  0  0  0  0
   57.4244   32.2974   43.9999 H   0  0  0  0  0  0  0  0  0  0  0  0
  1  2  2  0
  2  3  1  0
  3  4  2  3
  4  5  1  0
  5  6  1  0
  6  7  1  0
  7  8  2  0
  7  9  1  0
  9 10  1  0
 10 11  1  0
  3 12  1  0
 12 13  2  0
 13 14  1  0
 14 15  2  0
 14 16  1  0
 16 17  1  0
 17 18  1  0
 18 19  1  0
 19 20  1  0
 20 21  1  0
 21 22  1  0
 19 23  1  0
 23 24  1  0
 13 25  1  0
 25 26  1  0
 26 27  1  0
 27 28  1  0
 25  2  1  0
 28 26  1  0
 10  5  2  0
 24 16  1  0
 22 20  1  0
  1 29  1  0
  1 30  1  0
  4 31  1  0
 11 32  1  0
 12 33  1  0
 17 34  1  0
 17 35  1  0
 18 36  1  0
 18 37  1  0
 20 38  1  0
 21 39  1  0
 21 40  1  0
 22 41  1  0
 22 42  1  0
 23 43  1  0
 23 44  1  0
 24 45  1  0
 24 46  1  0
 26 47  1  0
 27 48  1  0
 27 49  1  0
 28 50  1  0
 28 51  1  0
M  CHG  2   6  -1   9  -1
M  END
>  <UniqueID>  (47) 
47

>  <SMILES>  (47) 
C=c1c(=Cc2[n-]c(=O)[n-]c2O)cc(C(=O)N2CCN(C3CC3)CC2)n1C1CC1

>  <Energy>  (47) 
678.0964507770138

>  <Genealogy>  (47) 
C=c1c(=Cc2[n-]c(=O)[n-]c2O)cc(C(=O)N2CCN(C3CC3)CC2)n1C1CC1 (protonated)
C=c1c(=Cc2[n-]c(=O)[n-]c2O)cc(C(=O)N2CCN(C3CC3)CC2)n1C1CC1 (3D coordinates assigned)
C=c1c(=Cc2[n-]c(=O)[n-]c2O)cc(C(=O)N2CCN(C3CC3)CC2)n1C1CC1 (nonaromatic ring conformer: 678.0964507770138 kcal/mol)

>  <smiles>  (47) 
C=c1c(=Cc2[nH]c(=O)[nH]c2O)cc(C(=O)N2CCN(C3CC3)CC2)n1C1CC1

>  <score_type>  (47) 
oracle

>  <origin>  (47) 
adg

>  <m_score__min__energy>  (47) 
-13.09

>  <m_primary>  (47) 
energy

$$$$
47:0
     RDKit          3D

 49 51  0  0  0  0  0  0  0  0999 V2000
   60.2770   26.7290   46.9630 O   0  0  0  0  0  0  0  0  0  0  0  0
   59.3870   26.9730   47.8190 C   0  0  0  0  0  0  0  0  0  0  0  0
   58.1270   26.3010   47.7650 N   0  0  0  0  0  0  0  0  0  0  0  0
   57.8300   25.2020   46.8570 C   0  0  0  0  0  0  0  0  0  0  0  0
   57.8180   25.7290   45.4580 C   0  0  0  0  0  0  0  0  0  0  0  0
   57.4930   24.9690   44.5060 O   0  0  0  0  0  0  0  0  0  0  0  0
   58.1180   27.1090   45.2120 N   0  0  0  0  0  0  0  0  0  0  0  0
   57.6810   27.7930   43.9950 C   0  0  0  0  0  0  0  0  0  0  0  0
   57.4830   29.2680   44.2590 C   0  0  0  0  0  0  0  0  0  0  0  0
   58.5540   30.1590   44.0870 C   0  0  0  0  0  0  0  0  0  0  0  0
   58.3850   31.5200   44.3340 C   0  0  0  0  0  0  0  0  0  0  0  0
   57.1330   31.9900   44.7290 C   0  0  0  0  0  0  0  0  0  0  0  0
   56.0950   31.1250   44.8700 N   0  0  0  0  0  0  0  0  0  0  0  0
   56.2340   29.7900   44.6460 C   0  0  0  0  0  0  0  0  0  0  0  0
   55.1310   28.9590   44.8000 O   0  0  0  0  0  0  0  0  0  0  0  0
   59.6680   27.8850   48.8860 N   0  0  0  0  0  0  0  0  0  0  0  0
   59.4670   29.3030   48.8060 C   0  0  0  0  0  0  0  0  0  0  0  0
   59.6800   30.0920   49.9410 C   0  0  0  0  0  0  0  0  0  0  0  0
   59.4630   31.4730   49.8920 C   0  0  0  0  0  0  0  0  0  0  0  0
   59.0520   32.0860   48.7020 C   0  0  0  0  0  0  0  0  0  0  0  0
   58.8210   33.4720   48.7130 O   0  0  0  0  0  0  0  0  0  0  0  0
   59.5870   34.4430   47.9980 C   0  0  0  0  0  0  0  0  0  0  0  0
   61.0470   34.0740   47.9970 C   0  0  0  0  0  0  0  0  0  0  0  0
   61.7850   34.0520   49.1940 C   0  0  0  0  0  0  0  0  0  0  0  0
   63.1440   33.7200   49.1770 C   0  0  0  0  0  0  0  0  0  0  0  0
   63.7770   33.4180   47.9690 C   0  0  0  0  0  0  0  0  0  0  0  0
   63.0530   33.4470   46.7740 C   0  0  0  0  0  0  0  0  0  0  0  0
   61.6930   33.7720   46.7870 C   0  0  0  0  0  0  0  0  0  0  0  0
   58.8910   31.2990   47.5460 C   0  0  0  0  0  0  0  0  0  0  0  0
   59.0960   29.9190   47.6000 C   0  0  0  0  0  0  0  0  0  0  0  0
   58.6010   24.4233   46.9530 H   0  0  0  0  0  0  0  0  0  0  0  0
   56.8505   24.7659   47.1027 H   0  0  0  0  0  0  0  0  0  0  0  0
   58.5430   27.6790   45.9780 H   0  0  0  0  0  0  0  0  0  0  0  0
   58.4443   27.6644   43.2135 H   0  0  0  0  0  0  0  0  0  0  0  0
   56.7252   27.3589   43.6665 H   0  0  0  0  0  0  0  0  0  0  0  0
   59.5322   29.7807   43.7554 H   0  0  0  0  0  0  0  0  0  0  0  0
   59.2294   32.2155   44.2187 H   0  0  0  0  0  0  0  0  0  0  0  0
   56.9857   33.0620   44.9266 H   0  0  0  0  0  0  0  0  0  0  0  0
   60.0198   29.6242   50.8768 H   0  0  0  0  0  0  0  0  0  0  0  0
   59.6164   32.0820   50.7951 H   0  0  0  0  0  0  0  0  0  0  0  0
   59.2268   34.4940   46.9599 H   0  0  0  0  0  0  0  0  0  0  0  0
   59.4694   35.4191   48.4913 H   0  0  0  0  0  0  0  0  0  0  0  0
   61.2922   34.2966   50.1465 H   0  0  0  0  0  0  0  0  0  0  0  0
   63.7152   33.6968   50.1168 H   0  0  0  0  0  0  0  0  0  0  0  0
   64.8456   33.1573   47.9583 H   0  0  0  0  0  0  0  0  0  0  0  0
   63.5533   33.2140   45.8225 H   0  0  0  0  0  0  0  0  0  0  0  0
   61.1261   33.7912   45.8445 H   0  0  0  0  0  0  0  0  0  0  0  0
   58.6025   31.7732   46.5963 H   0  0  0  0  0  0  0  0  0  0  0  0
   58.9661   29.3109   46.6926 H   0  0  0  0  0  0  0  0  0  0  0  0
  1  2  2  0
  2  3  1  0
  3  4  1  0
  4  5  1  0
  5  6  2  0
  5  7  1  0
  7  8  1  0
  8  9  1  0
  9 10  2  0
 10 11  1  0
 11 12  2  0
 12 13  1  0
 13 14  2  0
 14 15  1  0
  2 16  1  0
 16 17  1  0
 17 18  2  0
 18 19  1  0
 19 20  2  0
 20 21  1  0
 21 22  1  0
 22 23  1  0
 23 24  2  0
 24 25  1  0
 25 26  2  0
 26 27  1  0
 27 28  2  0
 20 29  1  0
 29 30  2  0
 14  9  1  0
 30 17  1  0
 28 23  1  0
  4 31  1  0
  4 32  1  0
  7 33  1  0
  8 34  1  0
  8 35  1  0
 10 36  1  0
 11 37  1  0
 12 38  1  0
 18 39  1  0
 19 40  1  0
 22 41  1  0
 22 42  1  0
 24 43  1  0
 25 44  1  0
 26 45  1  0
 27 46  1  0
 28 47  1  0
 29 48  1  0
 30 49  1  0
M  CHG  3   3  -1  15  -1  16  -1
M  END
>  <UniqueID>  (48) 
48

>  <SMILES>  (48) 
O=C([N-]CC(=O)NCc1cccnc1[O-])[N-]c1ccc(OCc2ccccc2)cc1

>  <Energy>  (48) 
43.712247339119024

>  <Genealogy>  (48) 
O=C([N-]CC(=O)NCc1cccnc1[O-])[N-]c1ccc(OCc2ccccc2)cc1 (protonated)
O=C([N-]CC(=O)NCc1cccnc1[O-])[N-]c1ccc(OCc2ccccc2)cc1 (3D coordinates assigned)
O=C([N-]CC(=O)NCc1cccnc1[O-])[N-]c1ccc(OCc2ccccc2)cc1 (optimized conformer: 43.712247339119024 kcal/mol)

>  <smiles>  (48) 
O=C(CNC(=O)Nc1ccc(OCc2ccccc2)cc1)NCc1cccnc1O

>  <score_type>  (48) 
oracle

>  <origin>  (48) 
adg

>  <m_score__min__energy>  (48) 
-14.640000000000001

>  <m_primary>  (48) 
energy

$$$$
48:0
     RDKit          3D

 49 52  0  0  0  0  0  0  0  0999 V2000
   57.9090   26.8260   42.6200 C   0  0  0  0  0  0  0  0  0  0  0  0
   57.7630   27.5380   43.7430 C   0  0  0  0  0  0  0  0  0  0  0  0
   57.7710   28.8870   43.7340 N   0  0  0  0  0  0  0  0  0  0  0  0
   57.7920   29.2960   45.0170 C   0  0  0  0  0  0  0  0  0  0  0  0
   57.8720   30.7150   45.4180 C   0  0  0  0  0  0  0  0  0  0  0  0
   56.8990   31.4730   45.1560 O   0  0  0  0  0  0  0  0  0  0  0  0
   59.0260   31.2530   46.0930 N   0  0  0  0  0  0  0  0  0  0  0  0
   59.3410   32.6790   45.9530 C   0  0  0  0  0  0  0  0  0  0  0  0
   60.7870   32.9510   46.3920 C   0  0  0  0  0  0  0  0  0  0  0  0
   61.0920   32.4610   47.7630 N   0  0  0  0  0  0  0  0  0  0  0  0
   61.1530   33.5600   48.7480 C   0  0  0  0  0  0  0  0  0  0  0  0
   62.5090   33.6070   49.4010 C   0  0  0  0  0  0  0  0  0  0  0  0
   63.6300   33.0450   48.7670 C   0  0  0  0  0  0  0  0  0  0  0  0
   64.8840   33.0860   49.3850 C   0  0  0  0  0  0  0  0  0  0  0  0
   65.0280   33.6880   50.6400 C   0  0  0  0  0  0  0  0  0  0  0  0
   66.6020   33.7370   51.4140 Cl  0  0  0  0  0  0  0  0  0  0  0  0
   63.9160   34.2480   51.2760 C   0  0  0  0  0  0  0  0  0  0  0  0
   62.6620   34.2090   50.6610 C   0  0  0  0  0  0  0  0  0  0  0  0
   60.1970   31.3810   48.2440 C   0  0  0  0  0  0  0  0  0  0  0  0
   59.7410   30.4640   47.1060 C   0  0  0  0  0  0  0  0  0  0  0  0
   57.8040   28.2060   45.8670 C   0  0  0  0  0  0  0  0  0  0  0  0
   57.7400   27.0750   45.0670 C   0  0  0  0  0  0  0  0  0  0  0  0
   57.6700   25.8270   45.5680 C   0  0  0  0  0  0  0  0  0  0  0  0
   56.4690   24.9760   45.5800 C   0  0  0  0  0  0  0  0  0  0  0  0
   56.4510   23.6700   45.2530 N   0  0  0  0  0  0  0  0  0  0  0  0
   55.1350   23.3640   45.2690 C   0  0  0  0  0  0  0  0  0  0  0  0
   54.7060   22.2060   45.0240 O   0  0  0  0  0  0  0  0  0  0  0  0
   54.3150   24.3980   45.5550 N   0  0  0  0  0  0  0  0  0  0  0  0
   55.1750   25.4130   45.7350 C   0  0  0  0  0  0  0  0  0  0  0  0
   54.7870   26.7130   46.0290 O   0  0  0  0  0  0  0  0  0  0  0  0
   57.8981   25.7268   42.6604 H   0  0  0  0  0  0  0  0  0  0  0  0
   58.0400   27.3397   41.6562 H   0  0  0  0  0  0  0  0  0  0  0  0
   57.8120   29.5030   42.8910 H   0  0  0  0  0  0  0  0  0  0  0  0
   59.2193   32.9759   44.9008 H   0  0  0  0  0  0  0  0  0  0  0  0
   58.6583   33.2604   46.5901 H   0  0  0  0  0  0  0  0  0  0  0  0
   61.4656   32.4518   45.6847 H   0  0  0  0  0  0  0  0  0  0  0  0
   60.9232   34.0425   46.4003 H   0  0  0  0  0  0  0  0  0  0  0  0
   60.9639   34.5155   48.2368 H   0  0  0  0  0  0  0  0  0  0  0  0
   60.3907   33.3873   49.5220 H   0  0  0  0  0  0  0  0  0  0  0  0
   63.5208   32.5708   47.7805 H   0  0  0  0  0  0  0  0  0  0  0  0
   65.7581   32.6445   48.8839 H   0  0  0  0  0  0  0  0  0  0  0  0
   64.0286   34.7205   52.2630 H   0  0  0  0  0  0  0  0  0  0  0  0
   61.7906   34.6517   51.1657 H   0  0  0  0  0  0  0  0  0  0  0  0
   60.7361   30.7793   48.9905 H   0  0  0  0  0  0  0  0  0  0  0  0
   59.3031   31.8501   48.6810 H   0  0  0  0  0  0  0  0  0  0  0  0
   60.6191   29.9872   46.6459 H   0  0  0  0  0  0  0  0  0  0  0  0
   59.0696   29.6904   47.5071 H   0  0  0  0  0  0  0  0  0  0  0  0
   57.8545   28.2309   46.9656 H   0  0  0  0  0  0  0  0  0  0  0  0
   58.5882   25.4080   46.0054 H   0  0  0  0  0  0  0  0  0  0  0  0
  1  2  2  0
  2  3  1  0
  3  4  1  0
  4  5  1  0
  5  6  2  0
  5  7  1  0
  7  8  1  0
  8  9  1  0
  9 10  1  0
 10 11  1  0
 11 12  1  0
 12 13  2  0
 13 14  1  0
 14 15  2  0
 15 16  1  0
 15 17  1  0
 17 18  2  0
 10 19  1  0
 19 20  1  0
  4 21  2  0
 21 22  1  0
 22 23  2  3
 23 24  1  0
 24 25  1  0
 25 26  1  0
 26 27  2  0
 26 28  1  0
 28 29  1  0
 29 30  1  0
 22  2  1  0
 29 24  2  0
 20  7  1  0
 18 12  1  0
  1 31  1  0
  1 32  1  0
  3 33  1  0
  8 34  1  0
  8 35  1  0
  9 36  1  0
  9 37  1  0
 11 38  1  0
 11 39  1  0
 13 40  1  0
 14 41  1  0
 17 42  1  0
 18 43  1  0
 19 44  1  0
 19 45  1  0
 20 46  1  0
 20 47  1  0
 21 48  1  0
 23 49  1  0
M  CHG  3  25  -1  28  -1  30  -1
M  END
>  <UniqueID>  (49) 
49

>  <SMILES>  (49) 
C=c1[nH]c(C(=O)N2CCN(Cc3ccc(Cl)cc3)CC2)cc1=Cc1[n-]c(=O)[n-]c1[O-]

>  <Energy>  (49) 
129.19104823563075

>  <Genealogy>  (49) 
C=c1[nH]c(C(=O)N2CCN(Cc3ccc(Cl)cc3)CC2)cc1=Cc1[n-]c(=O)[n-]c1[O-] (protonated)
C=c1[nH]c(C(=O)N2CCN(Cc3ccc(Cl)cc3)CC2)cc1=Cc1[n-]c(=O)[n-]c1[O-] (3D coordinates assigned)
C=c1[nH]c(C(=O)N2CCN(Cc3ccc(Cl)cc3)CC2)cc1=Cc1[n-]c(=O)[n-]c1[O-] (nonaromatic ring conformer: 129.19104823563075 kcal/mol)

>  <smiles>  (49) 
C=c1[nH]c(C(=O)N2CCN(Cc3ccc(Cl)cc3)CC2)cc1=Cc1[nH]c(=O)[nH]c1O

>  <score_type>  (49) 
oracle

>  <origin>  (49) 
adg

>  <m_score__min__energy>  (49) 
-17.809999999999999

>  <m_primary>  (49) 
energy

$$$$
49:0
     RDKit          3D

 43 45  0  0  0  0  0  0  0  0999 V2000
   57.7680   33.0910   44.1950 C   0  0  0  0  0  0  0  0  0  0  0  0
   58.1470   32.3230   45.4250 C   0  0  0  0  0  0  0  0  0  0  0  0
   58.2590   32.9250   46.6430 N   0  0  0  0  0  0  0  0  0  0  0  0
   58.6000   32.0610   47.6220 C   0  0  0  0  0  0  0  0  0  0  0  0
   58.8030   32.4560   49.0500 C   0  0  0  0  0  0  0  0  0  0  0  0
   59.1930   33.8240   49.1350 O   0  0  0  0  0  0  0  0  0  0  0  0
   60.0340   34.4440   48.2000 C   0  0  0  0  0  0  0  0  0  0  0  0
   59.5840   35.3540   47.4500 O   0  0  0  0  0  0  0  0  0  0  0  0
   61.4490   34.0280   48.0940 C   0  0  0  0  0  0  0  0  0  0  0  0
   62.2280   33.8250   49.2500 C   0  0  0  0  0  0  0  0  0  0  0  0
   63.5650   33.4300   49.1410 C   0  0  0  0  0  0  0  0  0  0  0  0
   64.1370   33.2330   47.8830 C   0  0  0  0  0  0  0  0  0  0  0  0
   63.3750   33.4310   46.7290 C   0  0  0  0  0  0  0  0  0  0  0  0
   62.0370   33.8260   46.8320 C   0  0  0  0  0  0  0  0  0  0  0  0
   58.7870   30.5040   47.0160 S   0  0  0  0  0  0  0  0  0  0  0  0
   58.4260   30.9520   45.4260 C   0  0  0  0  0  0  0  0  0  0  0  0
   58.3290   30.0270   44.2270 C   0  0  1  0  0  0  0  0  0  0  0  0
   58.6150   28.5570   44.5190 C   0  0  0  0  0  0  0  0  0  0  0  0
   57.9140   27.8170   43.3950 C   0  0  0  0  0  0  0  0  0  0  0  0
   57.0190   28.8520   42.7110 C   0  0  0  0  0  0  0  0  0  0  0  0
   57.0350   30.0810   43.5210 N   0  0  0  0  0  0  0  0  0  0  0  0
   55.8730   30.0980   44.4360 C   0  0  0  0  0  0  0  0  0  0  0  0
   57.2986   34.0421   44.4867 H   0  0  0  0  0  0  0  0  0  0  0  0
   58.6690   33.2947   43.5978 H   0  0  0  0  0  0  0  0  0  0  0  0
   57.0582   32.4998   43.5978 H   0  0  0  0  0  0  0  0  0  0  0  0
   58.0960   33.9440   46.8070 H   0  0  0  0  0  0  0  0  0  0  0  0
   57.8633   32.3117   49.6033 H   0  0  0  0  0  0  0  0  0  0  0  0
   59.5966   31.8304   49.4845 H   0  0  0  0  0  0  0  0  0  0  0  0
   61.7821   33.9780   50.2439 H   0  0  0  0  0  0  0  0  0  0  0  0
   64.1671   33.2742   50.0483 H   0  0  0  0  0  0  0  0  0  0  0  0
   65.1887   32.9216   47.8003 H   0  0  0  0  0  0  0  0  0  0  0  0
   63.8275   33.2762   45.7384 H   0  0  0  0  0  0  0  0  0  0  0  0
   61.4408   33.9796   45.9204 H   0  0  0  0  0  0  0  0  0  0  0  0
   59.1265   30.4313   43.5862 H   0  0  0  0  0  0  0  0  0  0  0  0
   59.6968   28.3584   44.5031 H   0  0  0  0  0  0  0  0  0  0  0  0
   58.2638   28.2467   45.5142 H   0  0  0  0  0  0  0  0  0  0  0  0
   58.6500   27.4161   42.6825 H   0  0  0  0  0  0  0  0  0  0  0  0
   57.3315   26.9637   43.7727 H   0  0  0  0  0  0  0  0  0  0  0  0
   57.4012   29.0660   41.7020 H   0  0  0  0  0  0  0  0  0  0  0  0
   55.9920   28.4678   42.6238 H   0  0  0  0  0  0  0  0  0  0  0  0
   56.2264   30.0928   45.4777 H   0  0  0  0  0  0  0  0  0  0  0  0
   55.2773   31.0050   44.2554 H   0  0  0  0  0  0  0  0  0  0  0  0
   55.2511   29.2089   44.2554 H   0  0  0  0  0  0  0  0  0  0  0  0
  1  2  1  0
  2  3  1  0
  3  4  2  0
  4  5  1  0
  5  6  1  0
  6  7  1  0
  7  8  2  0
  7  9  1  0
  9 10  2  0
 10 11  1  0
 11 12  2  0
 12 13  1  0
 13 14  2  0
  4 15  1  0
 15 16  1  0
 16 17  1  0
 17 18  1  0
 18 19  1  0
 19 20  1  0
 20 21  1  0
 21 22  1  0
 16  2  2  0
 21 17  1  0
 14  9  1  0
  1 23  1  0
  1 24  1  0
  1 25  1  0
  3 26  1  0
  5 27  1  0
  5 28  1  0
 10 29  1  0
 11 30  1  0
 12 31  1  0
 13 32  1  0
 14 33  1  0
 17 34  1  6
 18 35  1  0
 18 36  1  0
 19 37  1  0
 19 38  1  0
 20 39  1  0
 20 40  1  0
 22 41  1  0
 22 42  1  0
 22 43  1  0
M  CHG  1   3   1
M  END
>  <UniqueID>  (50) 
50

>  <SMILES>  (50) 
Cc1[nH+]c(COC(=O)c2ccccc2)sc1[C@H]1CCCN1C

>  <Energy>  (50) 
76.79426965971506

>  <Genealogy>  (50) 
Cc1[nH+]c(COC(=O)c2ccccc2)sc1C1CCCN1C (protonated)
Cc1[nH+]c(COC(=O)c2ccccc2)sc1[C@H]1CCCN1C (chirality)
Cc1[nH+]c(COC(=O)c2ccccc2)sc1[C@H]1CCCN1C (3D coordinates assigned)
Cc1[nH+]c(COC(=O)c2ccccc2)sc1[C@H]1CCCN1C (nonaromatic ring conformer: 76.79426965971506 kcal/mol)

>  <smiles>  (50) 
Cc1nc(COC(=O)c2ccccc2)sc1C1CCCN1C

>  <score_type>  (50) 
oracle

>  <origin>  (50) 
adg

>  <m_score__min__energy>  (50) 
-6.0800000000000001

>  <m_primary>  (50) 
energy

$$$$
50:0
     RDKit          3D

 54 57  0  0  0  0  0  0  0  0999 V2000
   57.0730   33.7450   44.8910 C   0  0  0  0  0  0  0  0  0  0  0  0
   57.8650   34.9080   44.7740 O   0  0  0  0  0  0  0  0  0  0  0  0
   59.2330   34.5950   44.9680 C   0  0  0  0  0  0  0  0  0  0  0  0
   59.6610   34.8900   46.4130 C   0  0  0  0  0  0  0  0  0  0  0  0
   59.8910   33.6410   47.1580 N   0  0  0  0  0  0  0  0  0  0  0  0
   58.8130   32.6970   47.3520 C   0  0  0  0  0  0  0  0  0  0  0  0
   57.7330   33.0690   47.8930 O   0  0  0  0  0  0  0  0  0  0  0  0
   58.9480   31.3300   46.9200 N   0  0  0  0  0  0  0  0  0  0  0  0
   58.9770   31.0720   45.5790 C   0  0  0  0  0  0  0  0  0  0  0  0
   59.1620   29.7750   45.1050 C   0  0  0  0  0  0  0  0  0  0  0  0
   59.3070   28.7210   46.0130 C   0  0  0  0  0  0  0  0  0  0  0  0
   59.5070   27.4100   45.5560 C   0  0  0  0  0  0  0  0  0  0  0  0
   59.6590   26.3540   46.4720 C   0  0  0  0  0  0  0  0  0  0  0  0
   59.8530   25.0320   46.0450 O   0  0  0  0  0  0  0  0  0  0  0  0
   58.8830   24.2360   45.4170 C   0  0  0  0  0  0  0  0  0  0  0  0
   57.6600   24.7760   44.9760 C   0  0  0  0  0  0  0  0  0  0  0  0
   56.7210   23.9630   44.3350 C   0  0  0  0  0  0  0  0  0  0  0  0
   56.9950   22.6100   44.1210 C   0  0  0  0  0  0  0  0  0  0  0  0
   58.2130   22.0690   44.5420 C   0  0  0  0  0  0  0  0  0  0  0  0
   59.1610   22.8800   45.1840 C   0  0  0  0  0  0  0  0  0  0  0  0
   60.3790   22.3450   45.6010 O   0  0  0  0  0  0  0  0  0  0  0  0
   59.5750   26.6140   47.8430 C   0  0  0  0  0  0  0  0  0  0  0  0
   59.3750   27.9170   48.3080 C   0  0  0  0  0  0  0  0  0  0  0  0
   59.2450   28.9840   47.3990 C   0  0  0  0  0  0  0  0  0  0  0  0
   59.0530   30.3120   47.8350 C   0  0  0  0  0  0  0  0  0  0  0  0
   58.9620   30.5600   49.0700 O   0  0  0  0  0  0  0  0  0  0  0  0
   61.2390   33.2760   47.5080 C   0  0  0  0  0  0  0  0  0  0  0  0
   61.4880   32.4320   48.6030 C   0  0  0  0  0  0  0  0  0  0  0  0
   62.7990   32.0720   48.9320 C   0  0  0  0  0  0  0  0  0  0  0  0
   63.8690   32.5530   48.1730 C   0  0  0  0  0  0  0  0  0  0  0  0
   63.6310   33.3980   47.0850 C   0  0  0  0  0  0  0  0  0  0  0  0
   62.3230   33.7600   46.7530 C   0  0  0  0  0  0  0  0  0  0  0  0
   56.9157   33.5140   45.9549 H   0  0  0  0  0  0  0  0  0  0  0  0
   56.1008   33.9130   44.4046 H   0  0  0  0  0  0  0  0  0  0  0  0
   57.5855   32.9019   44.4046 H   0  0  0  0  0  0  0  0  0  0  0  0
   59.3922   33.5275   44.7556 H   0  0  0  0  0  0  0  0  0  0  0  0
   59.8361   35.2150   44.2884 H   0  0  0  0  0  0  0  0  0  0  0  0
   60.5904   35.4782   46.4004 H   0  0  0  0  0  0  0  0  0  0  0  0
   58.8570   35.4527   46.9099 H   0  0  0  0  0  0  0  0  0  0  0  0
   58.8527   31.8988   44.8642 H   0  0  0  0  0  0  0  0  0  0  0  0
   59.1938   29.5810   44.0227 H   0  0  0  0  0  0  0  0  0  0  0  0
   59.5451   27.2070   44.4756 H   0  0  0  0  0  0  0  0  0  0  0  0
   57.4425   25.8423   45.1366 H   0  0  0  0  0  0  0  0  0  0  0  0
   55.7645   24.3893   43.9984 H   0  0  0  0  0  0  0  0  0  0  0  0
   56.2524   21.9706   43.6213 H   0  0  0  0  0  0  0  0  0  0  0  0
   58.4290   21.0043   44.3695 H   0  0  0  0  0  0  0  0  0  0  0  0
   61.2600   22.6910   45.2430 H   0  0  0  0  0  0  0  0  0  0  0  0
   59.6670   25.7864   48.5618 H   0  0  0  0  0  0  0  0  0  0  0  0
   59.3189   28.1095   49.3896 H   0  0  0  0  0  0  0  0  0  0  0  0
   60.6486   32.0527   49.2042 H   0  0  0  0  0  0  0  0  0  0  0  0
   62.9879   31.4093   49.7894 H   0  0  0  0  0  0  0  0  0  0  0  0
   64.8991   32.2667   48.4317 H   0  0  0  0  0  0  0  0  0  0  0  0
   64.4743   33.7782   46.4898 H   0  0  0  0  0  0  0  0  0  0  0  0
   62.1399   34.4265   45.8973 H   0  0  0  0  0  0  0  0  0  0  0  0
  1  2  1  0
  2  3  1  0
  3  4  1  0
  4  5  1  0
  5  6  1  0
  6  7  2  0
  6  8  1  0
  8  9  1  0
  9 10  2  0
 10 11  1  0
 11 12  2  0
 12 13  1  0
 13 14  1  0
 14 15  1  0
 15 16  2  0
 16 17  1  0
 17 18  2  0
 18 19  1  0
 19 20  2  0
 20 21  1  0
 13 22  2  0
 22 23  1  0
 23 24  2  0
 24 25  1  0
 25 26  2  0
  5 27  1  0
 27 28  2  0
 28 29  1  0
 29 30  2  0
 30 31  1  0
 31 32  2  0
 25  8  1  0
 32 27  1  0
 24 11  1  0
 20 15  1  0
  1 33  1  0
  1 34  1  0
  1 35  1  0
  3 36  1  0
  3 37  1  0
  4 38  1  0
  4 39  1  0
  9 40  1  0
 10 41  1  0
 12 42  1  0
 16 43  1  0
 17 44  1  0
 18 45  1  0
 19 46  1  0
 21 47  1  0
 22 48  1  0
 23 49  1  0
 28 50  1  0
 29 51  1  0
 30 52  1  0
 31 53  1  0
 32 54  1  0
M  END
>  <UniqueID>  (51) 
51

>  <SMILES>  (51) 
COCCN(C(=O)n1ccc2cc(Oc3ccccc3O)ccc2c1=O)c1ccccc1

>  <Energy>  (51) 
80.80883280645956

>  <Genealogy>  (51) 
COCCN(C(=O)n1ccc2cc(Oc3ccccc3O)ccc2c1=O)c1ccccc1 (3D coordinates assigned)
COCCN(C(=O)n1ccc2cc(Oc3ccccc3O)ccc2c1=O)c1ccccc1 (optimized conformer: 80.80883280645956 kcal/mol)

>  <smiles>  (51) 
COCCN(C(=O)n1ccc2cc(Oc3ccccc3O)ccc2c1=O)c1ccccc1

>  <score_type>  (51) 
oracle

>  <origin>  (51) 
adg

>  <m_score__min__energy>  (51) 
-9.2100000000000009

>  <m_primary>  (51) 
energy

$$$$
51:0
     RDKit          3D

 53 57  0  0  0  0  0  0  0  0999 V2000
   54.6960   30.0300   44.9400 H   0  0  0  0  0  0  0  0  0  0  0  0
   55.5900   30.3360   44.4980 N   0  0  0  0  0  0  0  0  0  0  0  0
   56.7600   29.9290   44.8800 C   0  0  0  0  0  0  0  0  0  0  0  0
   56.9620   28.5910   45.0470 N   0  0  0  0  0  0  0  0  0  0  0  0
   58.1530   28.1240   45.4970 C   0  0  0  0  0  0  0  0  0  0  0  0
   58.4010   26.8060   45.6800 N   0  0  0  0  0  0  0  0  0  0  0  0
   59.9610   26.8970   46.2330 S   0  0  0  0  0  0  0  0  0  0  0  0
   60.3560   28.5050   46.2620 N   0  0  0  0  0  0  0  0  0  0  0  0
   59.1920   29.0290   45.8080 C   0  0  0  0  0  0  0  0  0  0  0  0
   59.0050   30.3580   45.6360 N   0  0  0  0  0  0  0  0  0  0  0  0
   57.8180   30.8380   45.1650 C   0  0  0  0  0  0  0  0  0  0  0  0
   57.6860   32.2520   44.9330 N   0  0  0  0  0  0  0  0  0  0  0  0
   56.9200   33.0720   45.8830 C   0  0  0  0  0  0  0  0  0  0  0  0
   56.0698   33.5275   45.3541 H   0  0  0  0  0  0  0  0  0  0  0  0
   56.5770   32.4172   46.6976 H   0  0  0  0  0  0  0  0  0  0  0  0
   57.7820   34.1960   46.5040 C   0  0  0  0  0  0  0  0  0  0  0  0
   57.3400   35.1664   46.2338 H   0  0  0  0  0  0  0  0  0  0  0  0
   57.7932   34.0382   47.5926 H   0  0  0  0  0  0  0  0  0  0  0  0
   59.2570   34.1710   46.0160 C   0  0  0  0  0  0  0  0  0  0  0  0
   59.8182   35.0371   46.3967 H   0  0  0  0  0  0  0  0  0  0  0  0
   60.0040   32.9830   46.5360 N   0  0  0  0  0  0  0  0  0  0  0  0
   61.4520   33.2470   46.6780 C   0  0  0  0  0  0  0  0  0  0  0  0
   61.8560   33.5803   45.7107 H   0  0  0  0  0  0  0  0  0  0  0  0
   61.5988   34.0277   47.4389 H   0  0  0  0  0  0  0  0  0  0  0  0
   62.1930   31.9670   47.1250 C   0  0  0  0  0  0  0  0  0  0  0  0
   62.6757   31.5170   46.2449 H   0  0  0  0  0  0  0  0  0  0  0  0
   62.9247   32.2634   47.8911 H   0  0  0  0  0  0  0  0  0  0  0  0
   61.3370   31.0030   47.7110 O   0  0  0  0  0  0  0  0  0  0  0  0
   60.4570   31.6310   48.6190 C   0  0  2  0  0  0  0  0  0  0  0  0
   61.0058   32.2914   49.3065 H   0  0  0  0  0  0  0  0  0  0  0  0
   59.7540   30.5520   49.4590 C   0  0  0  0  0  0  0  0  0  0  0  0
   59.1324   29.9331   48.7952 H   0  0  0  0  0  0  0  0  0  0  0  0
   60.5276   29.9470   49.9546 H   0  0  0  0  0  0  0  0  0  0  0  0
   58.8760   31.1560   50.5270 C   0  0  0  0  0  0  0  0  0  0  0  0
   59.1320   32.4530   51.0020 C   0  0  0  0  0  0  0  0  0  0  0  0
   59.9904   33.0198   50.6123 H   0  0  0  0  0  0  0  0  0  0  0  0
   58.3000   33.0260   51.9680 C   0  0  0  0  0  0  0  0  0  0  0  0
   58.5078   34.0401   52.3401 H   0  0  0  0  0  0  0  0  0  0  0  0
   57.2040   32.3120   52.4620 C   0  0  0  0  0  0  0  0  0  0  0  0
   56.5502   32.7648   53.2219 H   0  0  0  0  0  0  0  0  0  0  0  0
   56.9390   31.0240   51.9910 C   0  0  0  0  0  0  0  0  0  0  0  0
   56.0763   30.4635   52.3804 H   0  0  0  0  0  0  0  0  0  0  0  0
   57.7690   30.4460   51.0250 C   0  0  0  0  0  0  0  0  0  0  0  0
   57.5552   29.4329   50.6536 H   0  0  0  0  0  0  0  0  0  0  0  0
   59.4500   32.5060   47.8300 C   0  0  0  0  0  0  0  0  0  0  0  0
   58.5469   31.9109   47.6294 H   0  0  0  0  0  0  0  0  0  0  0  0
   59.2229   33.3905   48.4433 H   0  0  0  0  0  0  0  0  0  0  0  0
   59.1840   34.1870   44.4690 C   0  0  0  0  0  0  0  0  0  0  0  0
   58.5889   35.0549   44.1486 H   0  0  0  0  0  0  0  0  0  0  0  0
   60.2099   34.2478   44.0767 H   0  0  0  0  0  0  0  0  0  0  0  0
   58.5330   32.9040   43.9190 C   0  0  0  0  0  0  0  0  0  0  0  0
   57.9131   33.1626   43.0479 H   0  0  0  0  0  0  0  0  0  0  0  0
   59.3333   32.2045   43.6357 H   0  0  0  0  0  0  0  0  0  0  0  0
  1  2  1  0
  2  3  2  0
  3  4  1  0
  4  5  1  0
  5  6  2  0
  6  7  1  0
  7  8  1  0
  8  9  2  0
  9 10  1  0
 10 11  2  0
 11 12  1  0
 12 13  1  0
 13 14  1  0
 13 15  1  0
 13 16  1  0
 16 17  1  0
 16 18  1  0
 16 19  1  0
 19 20  1  0
 19 21  1  0
 21 22  1  0
 22 23  1  0
 22 24  1  0
 22 25  1  0
 25 26  1  0
 25 27  1  0
 25 28  1  0
 28 29  1  0
 29 30  1  1
 29 31  1  0
 31 32  1  0
 31 33  1  0
 31 34  1  0
 34 35  2  0
 35 36  1  0
 35 37  1  0
 37 38  1  0
 37 39  2  0
 39 40  1  0
 39 41  1  0
 41 42  1  0
 41 43  2  0
 43 44  1  0
 29 45  1  0
 45 46  1  0
 45 47  1  0
 19 48  1  0
 48 49  1  0
 48 50  1  0
 48 51  1  0
 51 52  1  0
 51 53  1  0
 11  3  1  0
 51 12  1  0
  9  5  1  0
 45 21  1  0
 43 34  1  0
M  CHG  1   4  -1
M  END
>  <UniqueID>  (52) 
52

>  <SMILES>  (52) 
[H]/N=c1/[n-]c2nsnc2nc1N1CCC(N2CCO[C@H](Cc3ccccc3)C2)CC1

>  <Energy>  (52) 
120.52869826677036

>  <Genealogy>  (52) 
N=c1[n-]c2nsnc2nc1N1CCC(N2CCOC(Cc3ccccc3)C2)CC1 (protonated)
N=c1[n-]c2nsnc2nc1N1CCC(N2CCO[C@H](Cc3ccccc3)C2)CC1 (chirality)
[H]/N=c1/[n-]c2nsnc2nc1N1CCC(N2CCO[C@H](Cc3ccccc3)C2)CC1 (cis-trans isomerization)
[H]/N=c1/[n-]c2nsnc2nc1N1CCC(N2CCO[C@H](Cc3ccccc3)C2)CC1 (3D coordinates assigned)
[H]/N=c1/[n-]c2nsnc2nc1N1CCC(N2CCO[C@H](Cc3ccccc3)C2)CC1 (nonaromatic ring conformer: 120.52869826677036 kcal/mol)

>  <smiles>  (52) 
N=c1[nH]c2nsnc2nc1N1CCC(N2CCOC(Cc3ccccc3)C2)CC1

>  <score_type>  (52) 
oracle

>  <origin>  (52) 
adg

>  <m_score__min__energy>  (52) 
-9.9199999999999999

>  <m_primary>  (52) 
energy

$$$$
52:0
     RDKit          3D

 58 61  0  0  0  0  0  0  0  0999 V2000
   52.1430   32.3200   49.3790 H   0  0  0  0  0  0  0  0  0  0  0  0
   51.2750   32.4500   49.8850 O   0  0  0  0  0  0  0  0  0  0  0  0
   51.2040   32.1880   51.2500 C   0  0  0  0  0  0  0  0  0  0  0  0
   50.2800   32.7200   52.0670 N   0  0  0  0  0  0  0  0  0  0  0  0
   50.6400   32.2380   53.2750 C   0  0  0  0  0  0  0  0  0  0  0  0
   50.0140   32.5200   54.3300 O   0  0  0  0  0  0  0  0  0  0  0  0
   51.7320   31.4430   53.2660 N   0  0  0  0  0  0  0  0  0  0  0  0
   52.0710   31.3910   51.9670 C   0  0  0  0  0  0  0  0  0  0  0  0
   53.2890   30.7230   51.4720 C   0  0  0  0  0  0  0  0  0  0  0  0
   53.3729   30.5886   50.3835 H   0  0  0  0  0  0  0  0  0  0  0  0
   54.3160   30.2580   52.2260 C   0  0  0  0  0  0  0  0  0  0  0  0
   55.4030   31.1280   52.4360 C   0  0  0  0  0  0  0  0  0  0  0  0
   55.3323   32.1775   52.1144 H   0  0  0  0  0  0  0  0  0  0  0  0
   56.5710   30.6680   53.0500 C   0  0  0  0  0  0  0  0  0  0  0  0
   57.7550   31.5370   53.2050 C   0  0  0  0  0  0  0  0  0  0  0  0
   58.0950   31.9150   54.3590 O   0  0  0  0  0  0  0  0  0  0  0  0
   58.5370   31.9450   52.0700 N   0  0  0  0  0  0  0  0  0  0  0  0
   57.8960   32.6400   50.9450 C   0  0  0  0  0  0  0  0  0  0  0  0
   56.8221   32.4018   50.9419 H   0  0  0  0  0  0  0  0  0  0  0  0
   58.0549   33.7213   51.0694 H   0  0  0  0  0  0  0  0  0  0  0  0
   58.5100   32.2100   49.5960 C   0  0  0  0  0  0  0  0  0  0  0  0
   57.7867   31.5744   49.0641 H   0  0  0  0  0  0  0  0  0  0  0  0
   58.7392   33.1209   49.0236 H   0  0  0  0  0  0  0  0  0  0  0  0
   59.7690   31.4550   49.7710 N   0  0  0  0  0  0  0  0  0  0  0  0
   60.4550   31.1590   48.4940 C   0  0  0  0  0  0  0  0  0  0  0  0
   61.4160   31.6943   48.4856 H   0  0  0  0  0  0  0  0  0  0  0  0
   60.5775   30.0670   48.4446 H   0  0  0  0  0  0  0  0  0  0  0  0
   59.6710   31.5680   47.2630 C   0  0  0  0  0  0  0  0  0  0  0  0
   59.9530   32.7780   46.6120 C   0  0  0  0  0  0  0  0  0  0  0  0
   60.7409   33.4385   47.0031 H   0  0  0  0  0  0  0  0  0  0  0  0
   59.2400   33.1490   45.4710 C   0  0  0  0  0  0  0  0  0  0  0  0
   59.4658   34.1030   44.9722 H   0  0  0  0  0  0  0  0  0  0  0  0
   58.2340   32.3110   44.9540 C   0  0  0  0  0  0  0  0  0  0  0  0
   57.4990   32.6490   43.8070 O   0  0  0  0  0  0  0  0  0  0  0  0
   57.8960   32.3410   42.4750 C   0  0  0  0  0  0  0  0  0  0  0  0
   58.7649   31.6669   42.4980 H   0  0  0  0  0  0  0  0  0  0  0  0
   57.0644   31.8494   41.9489 H   0  0  0  0  0  0  0  0  0  0  0  0
   58.1655   33.2687   41.9489 H   0  0  0  0  0  0  0  0  0  0  0  0
   57.9470   31.0960   45.5960 C   0  0  0  0  0  0  0  0  0  0  0  0
   56.9350   30.2820   45.0620 O   0  0  0  0  0  0  0  0  0  0  0  0
   57.0600   29.5200   43.8660 C   0  0  0  0  0  0  0  0  0  0  0  0
   57.2332   28.4640   44.1205 H   0  0  0  0  0  0  0  0  0  0  0  0
   56.1354   29.6082   43.2767 H   0  0  0  0  0  0  0  0  0  0  0  0
   57.9080   29.8990   43.2767 H   0  0  0  0  0  0  0  0  0  0  0  0
   58.6750   30.7260   46.7440 C   0  0  0  0  0  0  0  0  0  0  0  0
   58.4607   29.7672   47.2388 H   0  0  0  0  0  0  0  0  0  0  0  0
   60.6410   32.0810   50.7790 C   0  0  0  0  0  0  0  0  0  0  0  0
   61.6283   31.5961   50.7658 H   0  0  0  0  0  0  0  0  0  0  0  0
   60.7633   33.1508   50.5541 H   0  0  0  0  0  0  0  0  0  0  0  0
   60.0020   31.9100   52.1610 C   0  0  0  0  0  0  0  0  0  0  0  0
   60.3133   30.9437   52.5844 H   0  0  0  0  0  0  0  0  0  0  0  0
   60.3335   32.7373   52.8057 H   0  0  0  0  0  0  0  0  0  0  0  0
   56.6330   29.3770   53.4570 N   0  0  0  0  0  0  0  0  0  0  0  0
   55.5860   28.5610   53.3530 N   0  0  0  0  0  0  0  0  0  0  0  0
   54.4060   28.9530   52.8020 C   0  0  0  0  0  0  0  0  0  0  0  0
   53.3650   28.1210   52.9430 C   0  0  0  0  0  0  0  0  0  0  0  0
   52.3864   28.3875   52.5172 H   0  0  0  0  0  0  0  0  0  0  0  0
   53.4891   27.1716   53.4845 H   0  0  0  0  0  0  0  0  0  0  0  0
  1  2  1  0
  2  3  1  0
  3  4  1  0
  4  5  1  0
  5  6  2  0
  5  7  1  0
  7  8  1  0
  8  9  1  0
  9 10  1  0
  9 11  2  0
 11 12  1  0
 12 13  1  0
 12 14  2  0
 14 15  1  0
 15 16  2  0
 15 17  1  0
 17 18  1  0
 18 19  1  0
 18 20  1  0
 18 21  1  0
 21 22  1  0
 21 23  1  0
 21 24  1  0
 24 25  1  0
 25 26  1  0
 25 27  1  0
 25 28  1  0
 28 29  2  0
 29 30  1  0
 29 31  1  0
 31 32  1  0
 31 33  2  0
 33 34  1  0
 34 35  1  0
 35 36  1  0
 35 37  1  0
 35 38  1  0
 33 39  1  0
 39 40  1  0
 40 41  1  0
 41 42  1  0
 41 43  1  0
 41 44  1  0
 39 45  2  0
 45 46  1  0
 24 47  1  0
 47 48  1  0
 47 49  1  0
 47 50  1  0
 50 51  1  0
 50 52  1  0
 14 53  1  0
 53 54  2  0
 54 55  1  0
 55 56  2  0
 56 57  1  0
 56 58  1  0
  8  3  2  0
 55 11  1  0
 50 17  1  0
 45 28  1  0
M  CHG  2   4  -1   7  -1
M  END
>  <UniqueID>  (53) 
53

>  <SMILES>  (53) 
C=c1nnc(C(=O)N2CCN(Cc3ccc(OC)c(OC)c3)CC2)c/c1=C/c1[n-]c(=O)[n-]c1O

>  <Energy>  (53) 
121.20426519171149

>  <Genealogy>  (53) 
C=c1nnc(C(=O)N2CCN(Cc3ccc(OC)c(OC)c3)CC2)cc1=Cc1[n-]c(=O)[n-]c1O (protonated)
C=c1nnc(C(=O)N2CCN(Cc3ccc(OC)c(OC)c3)CC2)c/c1=C/c1[n-]c(=O)[n-]c1O (cis-trans isomerization)
C=c1nnc(C(=O)N2CCN(Cc3ccc(OC)c(OC)c3)CC2)c/c1=C/c1[n-]c(=O)[n-]c1O (3D coordinates assigned)
C=c1nnc(C(=O)N2CCN(Cc3ccc(OC)c(OC)c3)CC2)c/c1=C/c1[n-]c(=O)[n-]c1O (nonaromatic ring conformer: 121.20426519171149 kcal/mol)

>  <smiles>  (53) 
C=c1nnc(C(=O)N2CCN(Cc3ccc(OC)c(OC)c3)CC2)cc1=Cc1[nH]c(=O)[nH]c1O

>  <score_type>  (53) 
oracle

>  <origin>  (53) 
adg

>  <m_score__min__energy>  (53) 
-14.15

>  <m_primary>  (53) 
energy

$$$$
53:0
     RDKit          3D

 58 61  0  0  0  0  0  0  0  0999 V2000
   57.0330   34.5810   44.8540 C   0  0  0  0  0  0  0  0  0  0  0  0
   57.6700   33.8870   45.7970 C   0  0  0  0  0  0  0  0  0  0  0  0
   58.9360   33.1240   45.5200 C   0  0  0  0  0  0  0  0  0  0  0  0
   58.8650   31.7510   46.0480 N   0  0  0  0  0  0  0  0  0  0  0  0
   59.0550   31.3660   47.3360 C   0  0  0  0  0  0  0  0  0  0  0  0
   59.3440   32.2590   48.4820 C   0  0  0  0  0  0  0  0  0  0  0  0
   58.3990   32.6480   49.2220 O   0  0  0  0  0  0  0  0  0  0  0  0
   60.6990   32.6070   48.8270 N   0  0  0  0  0  0  0  0  0  0  0  0
   61.6990   32.9070   47.7970 C   0  0  0  0  0  0  0  0  0  0  0  0
   63.0060   32.1390   48.0660 C   0  0  0  0  0  0  0  0  0  0  0  0
   63.2880   31.8520   49.5690 C   0  0  0  0  0  0  0  0  0  0  0  0
   64.7620   31.7920   49.7810 N   0  0  0  0  0  0  0  0  0  0  0  0
   65.0950   30.8780   50.9120 C   0  0  0  0  0  0  0  0  0  0  0  0
   66.3110   31.3550   51.7320 C   0  0  0  0  0  0  0  0  0  0  0  0
   67.3380   31.7980   50.8710 O   0  0  0  0  0  0  0  0  0  0  0  0
   66.9260   32.9600   50.1490 C   0  0  0  0  0  0  0  0  0  0  0  0
   65.4030   33.1130   49.9440 C   0  0  0  0  0  0  0  0  0  0  0  0
   62.5630   32.9020   50.4510 C   0  0  0  0  0  0  0  0  0  0  0  0
   61.0400   32.8300   50.2360 C   0  0  0  0  0  0  0  0  0  0  0  0
   58.9280   29.9960   47.4490 C   0  0  0  0  0  0  0  0  0  0  0  0
   58.7010   29.5020   46.1790 C   0  0  0  0  0  0  0  0  0  0  0  0
   58.6220   28.1820   45.9180 C   0  0  0  0  0  0  0  0  0  0  0  0
   57.4460   27.3240   46.1360 C   0  0  0  0  0  0  0  0  0  0  0  0
   57.5120   26.1140   46.7170 N   0  0  0  0  0  0  0  0  0  0  0  0
   56.2570   25.6290   46.5820 C   0  0  0  0  0  0  0  0  0  0  0  0
   55.9100   24.5050   47.0320 O   0  0  0  0  0  0  0  0  0  0  0  0
   55.4030   26.4480   45.9290 N   0  0  0  0  0  0  0  0  0  0  0  0
   56.1770   27.5070   45.6310 C   0  0  0  0  0  0  0  0  0  0  0  0
   55.7480   28.5940   44.8740 O   0  0  0  0  0  0  0  0  0  0  0  0
   58.6170   30.6200   45.3350 C   0  0  0  0  0  0  0  0  0  0  0  0
   58.2270   30.6260   44.0480 C   0  0  0  0  0  0  0  0  0  0  0  0
   56.1093   35.1249   45.1008 H   0  0  0  0  0  0  0  0  0  0  0  0
   57.4310   34.6098   43.8289 H   0  0  0  0  0  0  0  0  0  0  0  0
   57.2544   33.8718   46.8153 H   0  0  0  0  0  0  0  0  0  0  0  0
   59.0968   33.0810   44.4327 H   0  0  0  0  0  0  0  0  0  0  0  0
   59.7679   33.6430   46.0186 H   0  0  0  0  0  0  0  0  0  0  0  0
   61.3035   32.6131   46.8135 H   0  0  0  0  0  0  0  0  0  0  0  0
   61.9129   33.9858   47.8159 H   0  0  0  0  0  0  0  0  0  0  0  0
   62.9541   31.1764   47.5362 H   0  0  0  0  0  0  0  0  0  0  0  0
   63.8252   32.7816   47.7111 H   0  0  0  0  0  0  0  0  0  0  0  0
   62.8831   30.8753   49.8725 H   0  0  0  0  0  0  0  0  0  0  0  0
   64.2238   30.8153   51.5806 H   0  0  0  0  0  0  0  0  0  0  0  0
   65.3516   29.8993   50.4805 H   0  0  0  0  0  0  0  0  0  0  0  0
   66.0044   32.1833   52.3876 H   0  0  0  0  0  0  0  0  0  0  0  0
   66.6870   30.5162   52.3361 H   0  0  0  0  0  0  0  0  0  0  0  0
   67.2842   33.8438   50.6973 H   0  0  0  0  0  0  0  0  0  0  0  0
   67.3563   32.8569   49.1419 H   0  0  0  0  0  0  0  0  0  0  0  0
   64.9699   33.6188   50.8196 H   0  0  0  0  0  0  0  0  0  0  0  0
   65.2267   33.7059   49.0344 H   0  0  0  0  0  0  0  0  0  0  0  0
   62.7887   32.7034   51.5091 H   0  0  0  0  0  0  0  0  0  0  0  0
   62.9143   33.9056   50.1694 H   0  0  0  0  0  0  0  0  0  0  0  0
   60.6344   32.0020   50.8359 H   0  0  0  0  0  0  0  0  0  0  0  0
   60.6051   33.7920   50.5450 H   0  0  0  0  0  0  0  0  0  0  0  0
   58.9950   29.4081   48.3763 H   0  0  0  0  0  0  0  0  0  0  0  0
   59.5202   27.7010   45.5034 H   0  0  0  0  0  0  0  0  0  0  0  0
   55.9200   28.6280   43.8740 H   0  0  0  0  0  0  0  0  0  0  0  0
   58.2018   31.5709   43.4853 H   0  0  0  0  0  0  0  0  0  0  0  0
   57.9332   29.6860   43.5579 H   0  0  0  0  0  0  0  0  0  0  0  0
  1  2  2  0
  2  3  1  0
  3  4  1  0
  4  5  1  0
  5  6  1  0
  6  7  2  0
  6  8  1  0
  8  9  1  0
  9 10  1  0
 10 11  1  0
 11 12  1  0
 12 13  1  0
 13 14  1  0
 14 15  1  0
 15 16  1  0
 16 17  1  0
 11 18  1  0
 18 19  1  0
  5 20  2  0
 20 21  1  0
 21 22  2  3
 22 23  1  0
 23 24  1  0
 24 25  1  0
 25 26  2  0
 25 27  1  0
 27 28  1  0
 28 29  1  0
 21 30  1  0
 30 31  2  0
 30  4  1  0
 19  8  1  0
 28 23  2  0
 17 12  1  0
  1 32  1  0
  1 33  1  0
  2 34  1  0
  3 35  1  0
  3 36  1  0
  9 37  1  0
  9 38  1  0
 10 39  1  0
 10 40  1  0
 11 41  1  0
 13 42  1  0
 13 43  1  0
 14 44  1  0
 14 45  1  0
 16 46  1  0
 16 47  1  0
 17 48  1  0
 17 49  1  0
 18 50  1  0
 18 51  1  0
 19 52  1  0
 19 53  1  0
 20 54  1  0
 22 55  1  0
 29 56  1  0
 31 57  1  0
 31 58  1  0
M  CHG  2  24  -1  27  -1
M  END
>  <UniqueID>  (54) 
54

>  <SMILES>  (54) 
C=CCn1c(C(=O)N2CCC(N3CCOCC3)CC2)cc(=Cc2[n-]c(=O)[n-]c2O)c1=C

>  <Energy>  (54) 
152.48580427203797

>  <Genealogy>  (54) 
C=CCn1c(C(=O)N2CCC(N3CCOCC3)CC2)cc(=Cc2[n-]c(=O)[n-]c2O)c1=C (protonated)
C=CCn1c(C(=O)N2CCC(N3CCOCC3)CC2)cc(=Cc2[n-]c(=O)[n-]c2O)c1=C (3D coordinates assigned)
C=CCn1c(C(=O)N2CCC(N3CCOCC3)CC2)cc(=Cc2[n-]c(=O)[n-]c2O)c1=C (nonaromatic ring conformer: 152.48580427203797 kcal/mol)

>  <smiles>  (54) 
C=CCn1c(C(=O)N2CCC(N3CCOCC3)CC2)cc(=Cc2[nH]c(=O)[nH]c2O)c1=C

>  <score_type>  (54) 
oracle

>  <origin>  (54) 
adg

>  <m_score__min__energy>  (54) 
-13.19

>  <m_primary>  (54) 
energy

$$$$
54:0
     RDKit          3D

 47 49  0  0  0  0  0  0  0  0999 V2000
   56.6610   29.0940   42.7500 N   0  0  0  0  0  0  0  0  0  0  0  0
   56.4560   29.7610   44.3310 S   0  0  0  0  0  0  0  0  0  0  0  0
   56.5160   31.2610   44.2540 O   0  0  0  0  0  0  0  0  0  0  0  0
   55.1130   29.3600   44.8740 O   0  0  0  0  0  0  0  0  0  0  0  0
   57.7270   29.1630   45.3920 C   0  0  0  0  0  0  0  0  0  0  0  0
   57.5350   27.9910   46.1350 C   0  0  0  0  0  0  0  0  0  0  0  0
   58.5420   27.5270   46.9850 C   0  0  0  0  0  0  0  0  0  0  0  0
   59.7390   28.2360   47.1080 C   0  0  0  0  0  0  0  0  0  0  0  0
   59.9370   29.4250   46.3860 C   0  0  0  0  0  0  0  0  0  0  0  0
   61.2310   30.2000   46.5270 C   0  0  0  0  0  0  0  0  0  0  0  0
   61.1870   31.2610   47.5570 N   0  0  0  0  0  0  0  0  0  0  0  0
   61.9220   32.4830   47.1680 C   0  0  0  0  0  0  0  0  0  0  0  0
   62.0010   33.5140   48.3180 C   0  0  0  0  0  0  0  0  0  0  0  0
   60.9740   33.2460   49.4310 C   0  0  0  0  0  0  0  0  0  0  0  0
   59.6150   33.4970   48.9350 N   0  0  0  0  0  0  0  0  0  0  0  0
   59.3170   33.8090   47.5630 C   0  0  0  0  0  0  0  0  0  0  0  0
   59.8030   35.0080   47.0170 C   0  0  0  0  0  0  0  0  0  0  0  0
   59.5260   35.3440   45.6890 C   0  0  0  0  0  0  0  0  0  0  0  0
   58.7510   34.4940   44.8990 C   0  0  0  0  0  0  0  0  0  0  0  0
   58.2410   33.3110   45.4380 C   0  0  0  0  0  0  0  0  0  0  0  0
   58.5130   32.9670   46.7660 C   0  0  0  0  0  0  0  0  0  0  0  0
   57.9530   31.8440   47.2780 F   0  0  0  0  0  0  0  0  0  0  0  0
   61.0940   31.8010   49.9670 C   0  0  0  0  0  0  0  0  0  0  0  0
   61.5680   30.7940   48.9020 C   0  0  0  0  0  0  0  0  0  0  0  0
   58.9270   29.8760   45.5190 C   0  0  0  0  0  0  0  0  0  0  0  0
   55.7850   29.2980   42.2170 H   0  0  0  0  0  0  0  0  0  0  0  0
   56.7100   28.0570   42.8610 H   0  0  0  0  0  0  0  0  0  0  0  0
   56.5897   27.4351   46.0490 H   0  0  0  0  0  0  0  0  0  0  0  0
   58.3917   26.6007   47.5589 H   0  0  0  0  0  0  0  0  0  0  0  0
   60.5308   27.8616   47.7735 H   0  0  0  0  0  0  0  0  0  0  0  0
   62.0307   29.4929   46.7926 H   0  0  0  0  0  0  0  0  0  0  0  0
   61.4101   30.6989   45.5632 H   0  0  0  0  0  0  0  0  0  0  0  0
   62.9442   32.2021   46.8744 H   0  0  0  0  0  0  0  0  0  0  0  0
   61.3777   32.9510   46.3345 H   0  0  0  0  0  0  0  0  0  0  0  0
   63.0100   33.4768   48.7546 H   0  0  0  0  0  0  0  0  0  0  0  0
   61.7767   34.5030   47.8918 H   0  0  0  0  0  0  0  0  0  0  0  0
   61.1840   33.9331   50.2640 H   0  0  0  0  0  0  0  0  0  0  0  0
   58.8460   33.6120   49.6340 H   0  0  0  0  0  0  0  0  0  0  0  0
   60.4054   35.6869   47.6384 H   0  0  0  0  0  0  0  0  0  0  0  0
   59.9195   36.2800   45.2658 H   0  0  0  0  0  0  0  0  0  0  0  0
   58.5417   34.7559   43.8513 H   0  0  0  0  0  0  0  0  0  0  0  0
   57.6229   32.6472   44.8157 H   0  0  0  0  0  0  0  0  0  0  0  0
   61.8146   31.7955   50.7981 H   0  0  0  0  0  0  0  0  0  0  0  0
   60.0895   31.4878   50.2877 H   0  0  0  0  0  0  0  0  0  0  0  0
   62.6622   30.6954   48.9563 H   0  0  0  0  0  0  0  0  0  0  0  0
   61.0940   29.8197   49.0921 H   0  0  0  0  0  0  0  0  0  0  0  0
   59.0795   30.7959   44.9354 H   0  0  0  0  0  0  0  0  0  0  0  0
  1  2  1  0
  2  3  2  0
  2  4  2  0
  2  5  1  0
  5  6  2  0
  6  7  1  0
  7  8  2  0
  8  9  1  0
  9 10  1  0
 10 11  1  0
 11 12  1  0
 12 13  1  0
 13 14  1  0
 14 15  1  0
 15 16  1  0
 16 17  2  0
 17 18  1  0
 18 19  2  0
 19 20  1  0
 20 21  2  0
 21 22  1  0
 14 23  1  0
 23 24  1  0
  9 25  2  0
 25  5  1  0
 24 11  1  0
 21 16  1  0
  1 26  1  0
  1 27  1  0
  6 28  1  0
  7 29  1  0
  8 30  1  0
 10 31  1  0
 10 32  1  0
 12 33  1  0
 12 34  1  0
 13 35  1  0
 13 36  1  0
 14 37  1  0
 15 38  1  0
 17 39  1  0
 18 40  1  0
 19 41  1  0
 20 42  1  0
 23 43  1  0
 23 44  1  0
 24 45  1  0
 24 46  1  0
 25 47  1  0
M  END
>  <UniqueID>  (55) 
55

>  <SMILES>  (55) 
NS(=O)(=O)c1cccc(CN2CCC(Nc3ccccc3F)CC2)c1

>  <Energy>  (55) 
58.562105352993484

>  <Genealogy>  (55) 
NS(=O)(=O)c1cccc(CN2CCC(Nc3ccccc3F)CC2)c1 (3D coordinates assigned)
NS(=O)(=O)c1cccc(CN2CCC(Nc3ccccc3F)CC2)c1 (nonaromatic ring conformer: 58.562105352993484 kcal/mol)

>  <smiles>  (55) 
NS(=O)(=O)c1cccc(CN2CCC(Nc3ccccc3F)CC2)c1

>  <score_type>  (55) 
oracle

>  <origin>  (55) 
adg

>  <m_score__min__energy>  (55) 
-9.6099999999999994

>  <m_primary>  (55) 
energy

$$$$
55:0
     RDKit          3D

 60 63  0  0  0  0  0  0  0  0999 V2000
   55.1580   29.3260   44.7840 N   0  0  0  0  0  0  0  0  0  0  0  0
   56.8160   29.6090   44.3840 S   0  0  0  0  0  0  0  0  0  0  0  0
   56.9560   30.9530   43.7300 O   0  0  0  0  0  0  0  0  0  0  0  0
   57.2530   28.5450   43.4160 O   0  0  0  0  0  0  0  0  0  0  0  0
   57.8310   29.5500   45.8330 C   0  0  0  0  0  0  0  0  0  0  0  0
   58.2640   30.7560   46.4000 C   0  0  0  0  0  0  0  0  0  0  0  0
   59.0720   30.7770   47.5490 C   0  0  0  0  0  0  0  0  0  0  0  0
   59.6430   32.3390   48.1730 S   0  0  0  0  0  0  0  0  0  0  0  0
   61.0380   32.5600   47.6540 O   0  0  0  0  0  0  0  0  0  0  0  0
   59.6690   32.3070   49.6760 O   0  0  0  0  0  0  0  0  0  0  0  0
   58.6030   33.6490   47.6370 N   0  0  0  0  0  0  0  0  0  0  0  0
   59.2870   34.9420   47.7850 C   0  0  0  0  0  0  0  0  0  0  0  0
   59.9030   35.3190   46.4410 C   0  0  0  0  0  0  0  0  0  0  0  0
   59.3730   34.3050   45.4480 C   0  0  0  0  0  0  0  0  0  0  0  0
   58.3080   33.5320   46.2050 C   0  0  0  0  0  0  0  0  0  0  0  0
   59.4760   29.5480   48.1280 C   0  0  0  0  0  0  0  0  0  0  0  0
   60.3560   29.4690   49.3150 C   0  0  0  0  0  0  0  0  0  0  0  0
   60.2200   28.5270   50.1400 O   0  0  0  0  0  0  0  0  0  0  0  0
   61.3990   30.4370   49.4990 N   0  0  0  0  0  0  0  0  0  0  0  0
   62.4410   30.2810   50.5100 C   0  0  0  0  0  0  0  0  0  0  0  0
   63.5550   31.2610   50.2570 C   0  0  0  0  0  0  0  0  0  0  0  0
   63.4320   32.2140   49.2330 C   0  0  0  0  0  0  0  0  0  0  0  0
   64.4750   33.1080   48.9740 C   0  0  0  0  0  0  0  0  0  0  0  0
   65.6490   33.0520   49.7310 C   0  0  0  0  0  0  0  0  0  0  0  0
   65.7820   32.1020   50.7470 C   0  0  0  0  0  0  0  0  0  0  0  0
   64.7400   31.2060   51.0100 C   0  0  0  0  0  0  0  0  0  0  0  0
   59.0390   28.3430   47.5570 C   0  0  0  0  0  0  0  0  0  0  0  0
   58.2150   28.3320   46.4260 C   0  0  0  0  0  0  0  0  0  0  0  0
   57.7730   27.0720   45.9020 N   0  0  0  0  0  0  0  0  0  0  0  0
   56.4800   26.5040   46.2320 C   0  0  0  0  0  0  0  0  0  0  0  0
   56.4710   25.1240   45.5900 C   0  0  0  0  0  0  0  0  0  0  0  0
   57.9350   24.7760   45.3270 C   0  0  0  0  0  0  0  0  0  0  0  0
   58.6860   26.1020   45.3210 C   0  0  0  0  0  0  0  0  0  0  0  0
   55.1480   28.7060   45.6250 H   0  0  0  0  0  0  0  0  0  0  0  0
   57.9647   31.7070   45.9353 H   0  0  0  0  0  0  0  0  0  0  0  0
   58.5634   35.7120   48.0908 H   0  0  0  0  0  0  0  0  0  0  0  0
   60.0716   34.8683   48.5524 H   0  0  0  0  0  0  0  0  0  0  0  0
   59.5981   36.3353   46.1510 H   0  0  0  0  0  0  0  0  0  0  0  0
   61.0022   35.3110   46.4818 H   0  0  0  0  0  0  0  0  0  0  0  0
   58.9358   34.8113   44.5748 H   0  0  0  0  0  0  0  0  0  0  0  0
   60.1675   33.6471   45.0660 H   0  0  0  0  0  0  0  0  0  0  0  0
   57.3154   33.9552   45.9915 H   0  0  0  0  0  0  0  0  0  0  0  0
   58.3077   32.4759   45.8974 H   0  0  0  0  0  0  0  0  0  0  0  0
   61.4280   31.2800   48.8810 H   0  0  0  0  0  0  0  0  0  0  0  0
   62.0126   30.4658   51.5061 H   0  0  0  0  0  0  0  0  0  0  0  0
   62.8420   29.2579   50.4601 H   0  0  0  0  0  0  0  0  0  0  0  0
   62.5114   32.2572   48.6324 H   0  0  0  0  0  0  0  0  0  0  0  0
   64.3719   33.8560   48.1741 H   0  0  0  0  0  0  0  0  0  0  0  0
   66.4688   33.7564   49.5266 H   0  0  0  0  0  0  0  0  0  0  0  0
   66.7070   32.0585   51.3408 H   0  0  0  0  0  0  0  0  0  0  0  0
   64.8488   30.4568   51.8081 H   0  0  0  0  0  0  0  0  0  0  0  0
   59.3501   27.3887   48.0071 H   0  0  0  0  0  0  0  0  0  0  0  0
   56.3623   26.4222   47.3226 H   0  0  0  0  0  0  0  0  0  0  0  0
   55.6523   27.1306   45.8683 H   0  0  0  0  0  0  0  0  0  0  0  0
   56.0190   24.3879   46.2711 H   0  0  0  0  0  0  0  0  0  0  0  0
   55.8801   25.1136   44.6622 H   0  0  0  0  0  0  0  0  0  0  0  0
   58.3213   24.1213   46.1221 H   0  0  0  0  0  0  0  0  0  0  0  0
   58.0572   24.2388   44.3749 H   0  0  0  0  0  0  0  0  0  0  0  0
   59.6020   26.0270   45.9255 H   0  0  0  0  0  0  0  0  0  0  0  0
   58.9933   26.3906   44.3050 H   0  0  0  0  0  0  0  0  0  0  0  0
  1  2  1  0
  2  3  2  0
  2  4  2  0
  2  5  1  0
  5  6  2  0
  6  7  1  0
  7  8  1  0
  8  9  2  0
  8 10  2  0
  8 11  1  0
 11 12  1  0
 12 13  1  0
 13 14  1  0
 14 15  1  0
  7 16  2  0
 16 17  1  0
 17 18  2  0
 17 19  1  0
 19 20  1  0
 20 21  1  0
 21 22  2  0
 22 23  1  0
 23 24  2  0
 24 25  1  0
 25 26  2  0
 16 27  1  0
 27 28  2  0
 28 29  1  0
 29 30  1  0
 30 31  1  0
 31 32  1  0
 32 33  1  0
 28  5  1  0
 33 29  1  0
 15 11  1  0
 26 21  1  0
  1 34  1  0
  6 35  1  0
 12 36  1  0
 12 37  1  0
 13 38  1  0
 13 39  1  0
 14 40  1  0
 14 41  1  0
 15 42  1  0
 15 43  1  0
 19 44  1  0
 20 45  1  0
 20 46  1  0
 22 47  1  0
 23 48  1  0
 24 49  1  0
 25 50  1  0
 26 51  1  0
 27 52  1  0
 30 53  1  0
 30 54  1  0
 31 55  1  0
 31 56  1  0
 32 57  1  0
 32 58  1  0
 33 59  1  0
 33 60  1  0
M  CHG  1   1  -1
M  END
>  <UniqueID>  (56) 
56

>  <SMILES>  (56) 
[NH-]S(=O)(=O)c1cc(S(=O)(=O)N2CCCC2)c(C(=O)NCc2ccccc2)cc1N1CCCC1

>  <Energy>  (56) 
74.31835336394397

>  <Genealogy>  (56) 
[NH-]S(=O)(=O)c1cc(S(=O)(=O)N2CCCC2)c(C(=O)NCc2ccccc2)cc1N1CCCC1 (protonated)
[NH-]S(=O)(=O)c1cc(S(=O)(=O)N2CCCC2)c(C(=O)NCc2ccccc2)cc1N1CCCC1 (3D coordinates assigned)
[NH-]S(=O)(=O)c1cc(S(=O)(=O)N2CCCC2)c(C(=O)NCc2ccccc2)cc1N1CCCC1 (nonaromatic ring conformer: 74.31835336394397 kcal/mol)

>  <smiles>  (56) 
NS(=O)(=O)c1cc(S(=O)(=O)N2CCCC2)c(C(=O)NCc2ccccc2)cc1N1CCCC1

>  <score_type>  (56) 
oracle

>  <origin>  (56) 
adg

>  <m_score__min__energy>  (56) 
-11.800000000000001

>  <m_primary>  (56) 
energy

$$$$
56:0
     RDKit          3D

 48 52  0  0  1  0  0  0  0  0999 V2000
   54.7710   29.4020   44.0060 O   0  0  0  0  0  0  0  0  0  0  0  0
   55.9930   29.7310   44.1640 C   0  0  0  0  0  0  0  0  0  0  0  0
   56.9040   28.7910   44.4780 N   0  0  0  0  0  0  0  0  0  0  0  0
   58.2210   29.1010   44.6560 C   0  0  0  0  0  0  0  0  0  0  0  0
   59.1770   28.0160   45.0040 C   0  0  0  0  0  0  0  0  0  0  0  0
   58.5340   26.6980   44.8200 C   0  0  0  0  0  0  0  0  0  0  0  0
   58.0080   26.3660   43.5750 C   0  0  0  0  0  0  0  0  0  0  0  0
   57.4020   25.1390   43.3780 C   0  0  0  0  0  0  0  0  0  0  0  0
   57.2890   24.2010   44.3810 C   0  0  0  0  0  0  0  0  0  0  0  0
   57.8040   24.5200   45.6080 C   0  0  0  0  0  0  0  0  0  0  0  0
   58.4100   25.7470   45.8050 C   0  0  0  0  0  0  0  0  0  0  0  0
   58.9080   25.9980   47.0730 O   0  0  0  0  0  0  0  0  0  0  0  0
   59.5330   27.1990   47.3680 C   0  0  0  0  0  0  0  0  0  0  0  0
   60.0060   27.3770   48.6610 C   0  0  0  0  0  0  0  0  0  0  0  0
   60.6410   28.5730   48.9960 C   0  0  0  0  0  0  0  0  0  0  0  0
   60.7740   29.5370   48.0260 C   0  0  0  0  0  0  0  0  0  0  0  0
   60.2990   29.3500   46.7370 C   0  0  0  0  0  0  0  0  0  0  0  0
   59.6630   28.1580   46.3920 C   0  0  0  0  0  0  0  0  0  0  0  0
   58.5690   30.4120   44.4990 C   0  0  0  0  0  0  0  0  0  0  0  0
   57.6260   31.3690   44.1760 C   0  0  0  0  0  0  0  0  0  0  0  0
   57.9740   32.5990   44.0320 N   0  0  0  0  0  0  0  0  0  0  0  0
   57.5380   33.6500   44.9410 C   0  0  0  0  0  0  0  0  0  0  0  0
   58.7600   34.5730   45.0600 C   0  0  0  0  0  0  0  0  0  0  0  0
   59.6340   33.7340   45.9530 C   0  0  0  0  0  0  0  0  0  0  0  0
   58.6780   33.3430   47.0600 C   0  0  0  0  0  0  0  0  0  0  0  0
   57.3690   33.1370   46.3510 C   0  0  0  0  0  0  0  0  0  0  0  0
   56.3280   31.0410   44.0050 N   0  0  0  0  0  0  0  0  0  0  0  0
   56.5610   27.8170   44.5800 H   0  0  0  0  0  0  0  0  0  0  0  0
   60.0440   28.0926   44.3314 H   0  0  0  0  0  0  0  0  0  0  0  0
   58.0747   27.0833   42.7437 H   0  0  0  0  0  0  0  0  0  0  0  0
   56.9950   24.9029   42.3837 H   0  0  0  0  0  0  0  0  0  0  0  0
   56.8024   23.2309   44.2019 H   0  0  0  0  0  0  0  0  0  0  0  0
   57.7359   23.8005   46.4373 H   0  0  0  0  0  0  0  0  0  0  0  0
   59.8814   26.5838   49.4129 H   0  0  0  0  0  0  0  0  0  0  0  0
   61.0261   28.7404   50.0127 H   0  0  0  0  0  0  0  0  0  0  0  0
   61.2718   30.4846   48.2795 H   0  0  0  0  0  0  0  0  0  0  0  0
   60.4240   30.1432   45.9852 H   0  0  0  0  0  0  0  0  0  0  0  0
   59.6190   30.7117   44.6321 H   0  0  0  0  0  0  0  0  0  0  0  0
   56.5998   34.0895   44.5715 H   0  0  0  0  0  0  0  0  0  0  0  0
   59.2306   34.7556   44.0827 H   0  0  0  0  0  0  0  0  0  0  0  0
   58.5433   35.5826   45.4391 H   0  0  0  0  0  0  0  0  0  0  0  0
   60.0131   32.8483   45.4221 H   0  0  0  0  0  0  0  0  0  0  0  0
   60.5327   34.2582   46.3102 H   0  0  0  0  0  0  0  0  0  0  0  0
   59.0069   32.4157   47.5518 H   0  0  0  0  0  0  0  0  0  0  0  0
   58.6155   34.1015   47.8542 H   0  0  0  0  0  0  0  0  0  0  0  0
   57.1138   32.0671   46.3345 H   0  0  0  0  0  0  0  0  0  0  0  0
   56.5579   33.6725   46.8662 H   0  0  0  0  0  0  0  0  0  0  0  0
   55.5960   31.7530   43.7590 H   0  0  0  0  0  0  0  0  0  0  0  0
  1  2  2  0
  2  3  1  0
  3  4  1  0
  4  5  1  0
  5  6  1  0
  6  7  2  0
  7  8  1  0
  8  9  2  0
  9 10  1  0
 10 11  2  0
 11 12  1  0
 12 13  1  0
 13 14  2  0
 14 15  1  0
 15 16  2  0
 16 17  1  0
 17 18  2  0
  4 19  2  0
 19 20  1  0
 20 21  2  0
 21 22  1  0
 22 23  1  0
 23 24  1  0
 24 25  1  0
 25 26  1  0
 20 27  1  0
 27  2  1  0
 18  5  1  0
 26 22  1  0
 11  6  1  0
 18 13  1  0
  3 28  1  0
  5 29  1  0
  7 30  1  0
  8 31  1  0
  9 32  1  0
 10 33  1  0
 14 34  1  0
 15 35  1  0
 16 36  1  0
 17 37  1  0
 19 38  1  0
 22 39  1  0
 23 40  1  0
 23 41  1  0
 24 42  1  0
 24 43  1  0
 25 44  1  0
 25 45  1  0
 26 46  1  0
 26 47  1  0
 27 48  1  0
M  END
>  <smiles>  (57) 
O=c1[nH]c(C2c3ccccc3Oc3ccccc32)cc(=NC2CCCC2)[nH]1

>  <score_type>  (57) 
oracle

>  <origin>  (57) 
adg

>  <m_score__min__energy>  (57) 
-9.2100000000000009

>  <m_primary>  (57) 
energy

$$$$
57:0
     RDKit          3D

 44 46  0  0  0  0  0  0  0  0999 V2000
   60.4420   26.5090   46.4730 C   0  0  0  0  0  0  0  0  0  0  0  0
   59.5530   27.6070   45.9570 C   0  0  0  0  0  0  0  0  0  0  0  0
   60.1340   28.6570   45.2270 C   0  0  0  0  0  0  0  0  0  0  0  0
   59.3600   29.7300   44.7840 C   0  0  0  0  0  0  0  0  0  0  0  0
   57.9900   29.7720   45.0580 C   0  0  0  0  0  0  0  0  0  0  0  0
   57.0130   31.1340   44.5000 S   0  0  0  0  0  0  0  0  0  0  0  0
   57.4510   31.5230   43.1160 O   0  0  0  0  0  0  0  0  0  0  0  0
   55.5710   30.7120   44.4280 O   0  0  0  0  0  0  0  0  0  0  0  0
   57.1680   32.5160   45.5600 N   0  0  0  0  0  0  0  0  0  0  0  0
   58.1650   32.2440   46.6200 C   0  0  0  0  0  0  0  0  0  0  0  0
   58.6270   33.5370   47.2980 C   0  0  0  0  0  0  0  0  0  0  0  0
   59.3210   34.4730   46.2910 C   0  0  0  0  0  0  0  0  0  0  0  0
   58.8610   34.2330   44.8430 C   0  0  0  0  0  0  0  0  0  0  0  0
   57.3990   33.7670   44.7970 C   0  0  0  0  0  0  0  0  0  0  0  0
   57.3960   28.7230   45.7700 C   0  0  0  0  0  0  0  0  0  0  0  0
   58.1550   27.6220   46.1910 C   0  0  0  0  0  0  0  0  0  0  0  0
   57.4800   26.5650   46.8900 N   0  0  0  0  0  0  0  0  0  0  0  0
   56.2150   25.9900   46.5320 C   0  0  0  0  0  0  0  0  0  0  0  0
   55.3480   26.7270   45.9950 O   0  0  0  0  0  0  0  0  0  0  0  0
   55.9030   24.5630   46.7560 C   0  0  0  0  0  0  0  0  0  0  0  0
   56.8560   23.6720   47.2670 C   0  0  0  0  0  0  0  0  0  0  0  0
   56.4910   22.3370   47.4560 C   0  0  0  0  0  0  0  0  0  0  0  0
   57.3200   21.5130   47.9220 O   0  0  0  0  0  0  0  0  0  0  0  0
   55.2390   21.9250   47.1320 N   0  0  0  0  0  0  0  0  0  0  0  0
   54.3310   22.7950   46.6180 C   0  0  0  0  0  0  0  0  0  0  0  0
   52.8340   22.2750   46.2270 S   0  0  0  0  0  0  0  0  0  0  0  0
   54.6670   24.0980   46.4300 N   0  0  0  0  0  0  0  0  0  0  0  0
   60.4348   26.5179   47.5729 H   0  0  0  0  0  0  0  0  0  0  0  0
   60.0726   25.5379   46.1117 H   0  0  0  0  0  0  0  0  0  0  0  0
   61.4687   26.6682   46.1117 H   0  0  0  0  0  0  0  0  0  0  0  0
   61.2105   28.6331   45.0022 H   0  0  0  0  0  0  0  0  0  0  0  0
   59.8301   30.5467   44.2165 H   0  0  0  0  0  0  0  0  0  0  0  0
   57.7128   31.5853   47.3761 H   0  0  0  0  0  0  0  0  0  0  0  0
   59.0400   31.7642   46.1572 H   0  0  0  0  0  0  0  0  0  0  0  0
   57.7530   34.0517   47.7237 H   0  0  0  0  0  0  0  0  0  0  0  0
   59.3466   33.2792   48.0890 H   0  0  0  0  0  0  0  0  0  0  0  0
   59.0943   35.5141   46.5643 H   0  0  0  0  0  0  0  0  0  0  0  0
   60.4006   34.2667   46.3352 H   0  0  0  0  0  0  0  0  0  0  0  0
   58.9572   35.1704   44.2756 H   0  0  0  0  0  0  0  0  0  0  0  0
   59.4919   33.4473   44.4019 H   0  0  0  0  0  0  0  0  0  0  0  0
   56.7645   34.5592   45.2212 H   0  0  0  0  0  0  0  0  0  0  0  0
   57.1503   33.5630   43.7451 H   0  0  0  0  0  0  0  0  0  0  0  0
   56.3214   28.7631   46.0017 H   0  0  0  0  0  0  0  0  0  0  0  0
   57.8709   24.0168   47.5143 H   0  0  0  0  0  0  0  0  0  0  0  0
  1  2  1  0
  2  3  2  0
  3  4  1  0
  4  5  2  0
  5  6  1  0
  6  7  2  0
  6  8  2  0
  6  9  1  0
  9 10  1  0
 10 11  1  0
 11 12  1  0
 12 13  1  0
 13 14  1  0
  5 15  1  0
 15 16  2  0
 16 17  1  0
 17 18  1  0
 18 19  2  0
 18 20  1  0
 20 21  2  0
 21 22  1  0
 22 23  2  0
 22 24  1  0
 24 25  1  0
 25 26  2  0
 25 27  1  0
 16  2  1  0
 27 20  1  0
 14  9  1  0
  1 28  1  0
  1 29  1  0
  1 30  1  0
  3 31  1  0
  4 32  1  0
 10 33  1  0
 10 34  1  0
 11 35  1  0
 11 36  1  0
 12 37  1  0
 12 38  1  0
 13 39  1  0
 13 40  1  0
 14 41  1  0
 14 42  1  0
 15 43  1  0
 21 44  1  0
M  CHG  3  17  -1  24  -1  27  -1
M  END
>  <UniqueID>  (58) 
57

>  <SMILES>  (58) 
Cc1ccc(S(=O)(=O)N2CCCCC2)cc1[N-]C(=O)c1cc(=O)[n-]c(=S)[n-]1

>  <Energy>  (58) 
57.90171107537206

>  <Genealogy>  (58) 
Cc1ccc(S(=O)(=O)N2CCCCC2)cc1[N-]C(=O)c1cc(=O)[n-]c(=S)[n-]1 (protonated)
Cc1ccc(S(=O)(=O)N2CCCCC2)cc1[N-]C(=O)c1cc(=O)[n-]c(=S)[n-]1 (3D coordinates assigned)
Cc1ccc(S(=O)(=O)N2CCCCC2)cc1[N-]C(=O)c1cc(=O)[n-]c(=S)[n-]1 (nonaromatic ring conformer: 57.90171107537206 kcal/mol)

>  <smiles>  (58) 
Cc1ccc(S(=O)(=O)N2CCCCC2)cc1NC(=O)c1cc(=O)[nH]c(=S)[nH]1

>  <score_type>  (58) 
oracle

>  <origin>  (58) 
adg

>  <m_score__min__energy>  (58) 
-14.94

>  <m_primary>  (58) 
energy

$$$$
58:0
     RDKit          3D

 59 62  0  0  0  0  0  0  0  0999 V2000
   63.7860   30.8320   50.3760 C   0  0  0  0  0  0  0  0  0  0  0  0
   62.7420   31.6100   50.0190 C   0  0  0  0  0  0  0  0  0  0  0  0
   63.0030   32.9250   49.7690 N   0  0  0  0  0  0  0  0  0  0  0  0
   62.0260   33.8210   49.4940 C   0  0  0  0  0  0  0  0  0  0  0  0
   62.3430   35.0250   49.2900 O   0  0  0  0  0  0  0  0  0  0  0  0
   60.7180   33.4260   49.4400 N   0  0  0  0  0  0  0  0  0  0  0  0
   59.6520   34.4080   49.1420 C   0  0  0  0  0  0  0  0  0  0  0  0
   59.2180   34.3140   47.7000 C   0  0  0  0  0  0  0  0  0  0  0  0
   58.0740   33.5750   47.3490 C   0  0  0  0  0  0  0  0  0  0  0  0
   57.6800   33.4820   46.0110 C   0  0  0  0  0  0  0  0  0  0  0  0
   58.4140   34.1330   45.0160 C   0  0  0  0  0  0  0  0  0  0  0  0
   59.5420   34.8820   45.3570 C   0  0  0  0  0  0  0  0  0  0  0  0
   59.9440   34.9760   46.6950 C   0  0  0  0  0  0  0  0  0  0  0  0
   60.3930   32.1060   49.6250 C   0  0  0  0  0  0  0  0  0  0  0  0
   59.1900   31.7550   49.4680 O   0  0  0  0  0  0  0  0  0  0  0  0
   61.3920   31.1390   49.9400 C   0  0  0  0  0  0  0  0  0  0  0  0
   61.0900   29.8150   50.0990 C   0  0  0  0  0  0  0  0  0  0  0  0
   60.4660   28.9340   49.0900 C   0  0  0  0  0  0  0  0  0  0  0  0
   60.2680   27.5790   49.3830 C   0  0  0  0  0  0  0  0  0  0  0  0
   59.6740   26.7360   48.4400 C   0  0  0  0  0  0  0  0  0  0  0  0
   59.2740   27.2330   47.1950 C   0  0  0  0  0  0  0  0  0  0  0  0
   58.7770   26.3260   46.2490 O   0  0  0  0  0  0  0  0  0  0  0  0
   57.9560   26.6780   45.1350 C   0  0  0  0  0  0  0  0  0  0  0  0
   56.5860   27.0500   45.6270 C   0  0  0  0  0  0  0  0  0  0  0  0
   55.9700   26.2530   46.3820 O   0  0  0  0  0  0  0  0  0  0  0  0
   55.9530   28.2830   45.2470 N   0  0  0  0  0  0  0  0  0  0  0  0
   56.5310   29.2790   44.3940 C   0  0  0  0  0  0  0  0  0  0  0  0
   57.5950   30.0560   44.8690 C   0  0  0  0  0  0  0  0  0  0  0  0
   58.1120   31.0950   44.0890 C   0  0  0  0  0  0  0  0  0  0  0  0
   57.5710   31.3660   42.8230 C   0  0  0  0  0  0  0  0  0  0  0  0
   58.1190   32.4870   41.9910 C   0  0  0  0  0  0  0  0  0  0  0  0
   56.5530   30.5420   42.3200 C   0  0  0  0  0  0  0  0  0  0  0  0
   56.0420   29.5000   43.0970 C   0  0  0  0  0  0  0  0  0  0  0  0
   59.4060   28.6080   46.9270 C   0  0  0  0  0  0  0  0  0  0  0  0
   59.9920   29.4530   47.8740 C   0  0  0  0  0  0  0  0  0  0  0  0
   63.6288   29.7642   50.5886 H   0  0  0  0  0  0  0  0  0  0  0  0
   64.7938   31.2659   50.4543 H   0  0  0  0  0  0  0  0  0  0  0  0
   63.9860   33.2830   49.8090 H   0  0  0  0  0  0  0  0  0  0  0  0
   58.7871   34.2083   49.7917 H   0  0  0  0  0  0  0  0  0  0  0  0
   60.0457   35.4188   49.3243 H   0  0  0  0  0  0  0  0  0  0  0  0
   57.4875   33.0686   48.1298 H   0  0  0  0  0  0  0  0  0  0  0  0
   56.7899   32.8949   45.7407 H   0  0  0  0  0  0  0  0  0  0  0  0
   58.1031   34.0554   43.9637 H   0  0  0  0  0  0  0  0  0  0  0  0
   60.1156   35.3989   44.5735 H   0  0  0  0  0  0  0  0  0  0  0  0
   60.8310   35.5700   46.9604 H   0  0  0  0  0  0  0  0  0  0  0  0
   61.3350   29.3623   51.0711 H   0  0  0  0  0  0  0  0  0  0  0  0
   60.5809   27.1772   50.3580 H   0  0  0  0  0  0  0  0  0  0  0  0
   59.5197   25.6733   48.6785 H   0  0  0  0  0  0  0  0  0  0  0  0
   58.4014   27.5333   44.6058 H   0  0  0  0  0  0  0  0  0  0  0  0
   57.8813   25.8230   44.4470 H   0  0  0  0  0  0  0  0  0  0  0  0
   58.0257   29.8481   45.8596 H   0  0  0  0  0  0  0  0  0  0  0  0
   58.9464   31.7025   44.4695 H   0  0  0  0  0  0  0  0  0  0  0  0
   58.5057   33.2780   42.6505 H   0  0  0  0  0  0  0  0  0  0  0  0
   58.9335   32.1082   41.3562 H   0  0  0  0  0  0  0  0  0  0  0  0
   57.3197   32.8971   41.3562 H   0  0  0  0  0  0  0  0  0  0  0  0
   56.1556   30.7174   41.3094 H   0  0  0  0  0  0  0  0  0  0  0  0
   55.2531   28.8499   42.6909 H   0  0  0  0  0  0  0  0  0  0  0  0
   59.0477   29.0184   45.9714 H   0  0  0  0  0  0  0  0  0  0  0  0
   60.0823   30.5293   47.6659 H   0  0  0  0  0  0  0  0  0  0  0  0
  1  2  2  0
  2  3  1  0
  3  4  1  0
  4  5  2  0
  4  6  1  0
  6  7  1  0
  7  8  1  0
  8  9  2  0
  9 10  1  0
 10 11  2  0
 11 12  1  0
 12 13  2  0
  6 14  1  0
 14 15  2  0
 14 16  1  0
 16 17  2  3
 17 18  1  0
 18 19  2  0
 19 20  1  0
 20 21  2  0
 21 22  1  0
 22 23  1  0
 23 24  1  0
 24 25  2  0
 24 26  1  0
 26 27  1  0
 27 28  2  0
 28 29  1  0
 29 30  2  0
 30 31  1  0
 30 32  1  0
 32 33  2  0
 21 34  1  0
 34 35  2  0
 16  2  1  0
 35 18  1  0
 13  8  1  0
 33 27  1  0
  1 36  1  0
  1 37  1  0
  3 38  1  0
  7 39  1  0
  7 40  1  0
  9 41  1  0
 10 42  1  0
 11 43  1  0
 12 44  1  0
 13 45  1  0
 17 46  1  0
 19 47  1  0
 20 48  1  0
 23 49  1  0
 23 50  1  0
 28 51  1  0
 29 52  1  0
 31 53  1  0
 31 54  1  0
 31 55  1  0
 32 56  1  0
 33 57  1  0
 34 58  1  0
 35 59  1  0
M  CHG  1  26  -1
M  END
>  <UniqueID>  (59) 
58

>  <SMILES>  (59) 
C=c1[nH]c(=O)n(Cc2ccccc2)c(=O)c1=Cc1ccc(OCC(=O)[N-]c2ccc(C)cc2)cc1

>  <Energy>  (59) 
89.28053139076273

>  <Genealogy>  (59) 
C=c1[nH]c(=O)n(Cc2ccccc2)c(=O)c1=Cc1ccc(OCC(=O)[N-]c2ccc(C)cc2)cc1 (protonated)
C=c1[nH]c(=O)n(Cc2ccccc2)c(=O)c1=Cc1ccc(OCC(=O)[N-]c2ccc(C)cc2)cc1 (3D coordinates assigned)
C=c1[nH]c(=O)n(Cc2ccccc2)c(=O)c1=Cc1ccc(OCC(=O)[N-]c2ccc(C)cc2)cc1 (optimized conformer: 89.28053139076273 kcal/mol)

>  <smiles>  (59) 
C=c1[nH]c(=O)n(Cc2ccccc2)c(=O)c1=Cc1ccc(OCC(=O)Nc2ccc(C)cc2)cc1

>  <score_type>  (59) 
oracle

>  <origin>  (59) 
adg

>  <m_score__min__energy>  (59) 
-11.609999999999999

>  <m_primary>  (59) 
energy

$$$$
59:0
     RDKit          3D

 49 51  0  0  0  0  0  0  0  0999 V2000
   57.1790   21.3970   43.2800 C   0  0  0  0  0  0  0  0  0  0  0  0
   55.9070   21.8360   43.7470 O   0  0  0  0  0  0  0  0  0  0  0  0
   55.6720   23.0730   44.3630 C   0  0  0  0  0  0  0  0  0  0  0  0
   54.3510   23.5140   44.4830 C   0  0  0  0  0  0  0  0  0  0  0  0
   54.0630   24.7280   45.1100 C   0  0  0  0  0  0  0  0  0  0  0  0
   55.0940   25.5180   45.6220 C   0  0  0  0  0  0  0  0  0  0  0  0
   54.7810   26.7120   46.2630 O   0  0  0  0  0  0  0  0  0  0  0  0
   56.4330   25.1040   45.4890 C   0  0  0  0  0  0  0  0  0  0  0  0
   57.5570   25.9160   46.0750 C   0  0  0  0  0  0  0  0  0  0  0  0
   57.8410   27.0950   45.1950 C   0  0  0  0  0  0  0  0  0  0  0  0
   58.0700   26.9130   43.9690 O   0  0  0  0  0  0  0  0  0  0  0  0
   57.8400   28.4190   45.7500 N   0  0  0  0  0  0  0  0  0  0  0  0
   57.7190   29.6190   44.9680 C   0  0  0  0  0  0  0  0  0  0  0  0
   57.1860   29.5970   43.6690 C   0  0  0  0  0  0  0  0  0  0  0  0
   57.0340   30.7840   42.9480 C   0  0  0  0  0  0  0  0  0  0  0  0
   57.3980   32.0030   43.5200 C   0  0  0  0  0  0  0  0  0  0  0  0
   57.9110   32.0440   44.8230 C   0  0  0  0  0  0  0  0  0  0  0  0
   58.3280   33.5900   45.5640 S   0  0  0  0  0  0  0  0  0  0  0  0
   57.1110   34.1600   46.2380 O   0  0  0  0  0  0  0  0  0  0  0  0
   58.7580   34.5510   44.4910 O   0  0  0  0  0  0  0  0  0  0  0  0
   59.6040   33.4220   46.7440 N   0  0  0  0  0  0  0  0  0  0  0  0
   59.3060   34.2140   47.9490 C   0  0  0  0  0  0  0  0  0  0  0  0
   60.5160   34.2220   48.9070 C   0  0  0  0  0  0  0  0  0  0  0  0
   61.5040   33.3000   48.4910 O   0  0  0  0  0  0  0  0  0  0  0  0
   62.0110   33.6760   47.2230 C   0  0  0  0  0  0  0  0  0  0  0  0
   60.8930   33.8360   46.1720 C   0  0  0  0  0  0  0  0  0  0  0  0
   58.0680   30.8510   45.5420 C   0  0  0  0  0  0  0  0  0  0  0  0
   56.7130   23.8750   44.8670 C   0  0  0  0  0  0  0  0  0  0  0  0
   57.8279   21.1731   44.1395 H   0  0  0  0  0  0  0  0  0  0  0  0
   57.0527   20.4905   42.6699 H   0  0  0  0  0  0  0  0  0  0  0  0
   57.6387   22.1885   42.6699 H   0  0  0  0  0  0  0  0  0  0  0  0
   53.5320   22.8999   44.0804 H   0  0  0  0  0  0  0  0  0  0  0  0
   53.0193   25.0633   45.2009 H   0  0  0  0  0  0  0  0  0  0  0  0
   57.2699   26.2683   47.0767 H   0  0  0  0  0  0  0  0  0  0  0  0
   58.4588   25.2903   46.1477 H   0  0  0  0  0  0  0  0  0  0  0  0
   57.9690   28.5150   46.7820 H   0  0  0  0  0  0  0  0  0  0  0  0
   56.8866   28.6400   43.2167 H   0  0  0  0  0  0  0  0  0  0  0  0
   56.6263   30.7572   41.9267 H   0  0  0  0  0  0  0  0  0  0  0  0
   57.2820   32.9345   42.9465 H   0  0  0  0  0  0  0  0  0  0  0  0
   59.0720   35.2474   47.6536 H   0  0  0  0  0  0  0  0  0  0  0  0
   58.4469   33.7623   48.4667 H   0  0  0  0  0  0  0  0  0  0  0  0
   60.9524   35.2316   48.9253 H   0  0  0  0  0  0  0  0  0  0  0  0
   60.1684   33.9313   49.9093 H   0  0  0  0  0  0  0  0  0  0  0  0
   62.5421   34.6340   47.3238 H   0  0  0  0  0  0  0  0  0  0  0  0
   62.6858   32.8782   46.8792 H   0  0  0  0  0  0  0  0  0  0  0  0
   60.8325   34.8896   45.8617 H   0  0  0  0  0  0  0  0  0  0  0  0
   61.1220   33.2038   45.3014 H   0  0  0  0  0  0  0  0  0  0  0  0
   58.4686   30.8808   46.5660 H   0  0  0  0  0  0  0  0  0  0  0  0
   57.7555   23.5368   44.7733 H   0  0  0  0  0  0  0  0  0  0  0  0
  1  2  1  0
  2  3  1  0
  3  4  2  0
  4  5  1  0
  5  6  2  0
  6  7  1  0
  6  8  1  0
  8  9  1  0
  9 10  1  0
 10 11  2  0
 10 12  1  0
 12 13  1  0
 13 14  2  0
 14 15  1  0
 15 16  2  0
 16 17  1  0
 17 18  1  0
 18 19  2  0
 18 20  2  0
 18 21  1  0
 21 22  1  0
 22 23  1  0
 23 24  1  0
 24 25  1  0
 25 26  1  0
 17 27  2  0
  8 28  2  0
 28  3  1  0
 27 13  1  0
 26 21  1  0
  1 29  1  0
  1 30  1  0
  1 31  1  0
  4 32  1  0
  5 33  1  0
  9 34  1  0
  9 35  1  0
 12 36  1  0
 14 37  1  0
 15 38  1  0
 16 39  1  0
 22 40  1  0
 22 41  1  0
 23 42  1  0
 23 43  1  0
 25 44  1  0
 25 45  1  0
 26 46  1  0
 26 47  1  0
 27 48  1  0
 28 49  1  0
M  CHG  1   7  -1
M  END
>  <UniqueID>  (60) 
59

>  <SMILES>  (60) 
COc1ccc([O-])c(CC(=O)Nc2cccc(S(=O)(=O)N3CCOCC3)c2)c1

>  <Energy>  (60) 
58.31848557786378

>  <Genealogy>  (60) 
COc1ccc([O-])c(CC(=O)Nc2cccc(S(=O)(=O)N3CCOCC3)c2)c1 (protonated)
COc1ccc([O-])c(CC(=O)Nc2cccc(S(=O)(=O)N3CCOCC3)c2)c1 (3D coordinates assigned)
COc1ccc([O-])c(CC(=O)Nc2cccc(S(=O)(=O)N3CCOCC3)c2)c1 (nonaromatic ring conformer: 58.31848557786378 kcal/mol)

>  <smiles>  (60) 
COc1ccc(O)c(CC(=O)Nc2cccc(S(=O)(=O)N3CCOCC3)c2)c1

>  <score_type>  (60) 
oracle

>  <origin>  (60) 
adg

>  <m_score__min__energy>  (60) 
-12.609999999999999

>  <m_primary>  (60) 
energy

$$$$
60:0
     RDKit          3D

 52 54  0  0  0  0  0  0  0  0999 V2000
   54.3180   26.7160   46.7690 H   0  0  0  0  0  0  0  0  0  0  0  0
   54.9020   26.3560   46.0260 O   0  0  0  0  0  0  0  0  0  0  0  0
   55.9240   25.4550   46.3050 C   0  0  0  0  0  0  0  0  0  0  0  0
   55.7630   24.3410   47.0370 N   0  0  0  0  0  0  0  0  0  0  0  0
   56.9910   23.7810   46.9970 C   0  0  0  0  0  0  0  0  0  0  0  0
   57.2590   22.6980   47.5750 O   0  0  0  0  0  0  0  0  0  0  0  0
   57.9040   24.4690   46.2820 N   0  0  0  0  0  0  0  0  0  0  0  0
   57.2230   25.5510   45.8620 C   0  0  0  0  0  0  0  0  0  0  0  0
   57.7420   26.5560   44.9200 C   0  0  0  0  0  0  0  0  0  0  0  0
   57.7501   26.2898   43.8527 H   0  0  0  0  0  0  0  0  0  0  0  0
   58.2080   27.7750   45.2560 C   0  0  0  0  0  0  0  0  0  0  0  0
   57.4480   28.9290   45.1410 C   0  0  0  0  0  0  0  0  0  0  0  0
   56.3906   28.9905   44.8440 H   0  0  0  0  0  0  0  0  0  0  0  0
   58.2710   29.9840   45.4700 C   0  0  0  0  0  0  0  0  0  0  0  0
   57.8570   31.4000   45.4170 C   0  0  0  0  0  0  0  0  0  0  0  0
   56.9360   31.7300   44.6190 O   0  0  0  0  0  0  0  0  0  0  0  0
   58.4530   32.3940   46.2710 N   0  0  0  0  0  0  0  0  0  0  0  0
   58.6850   33.7360   45.7090 C   0  0  0  0  0  0  0  0  0  0  0  0
   59.5214   33.6743   44.9972 H   0  0  0  0  0  0  0  0  0  0  0  0
   57.7464   34.0494   45.2286 H   0  0  0  0  0  0  0  0  0  0  0  0
   59.0250   34.8000   46.7660 C   0  0  0  0  0  0  0  0  0  0  0  0
   59.5427   35.6346   46.2705 H   0  0  0  0  0  0  0  0  0  0  0  0
   58.0798   35.1220   47.2274 H   0  0  0  0  0  0  0  0  0  0  0  0
   59.8890   34.2820   47.8410 N   0  0  0  0  0  0  0  0  0  0  0  0
   61.2400   33.9280   47.3500 C   0  0  0  0  0  0  0  0  0  0  0  0
   61.1755   33.0084   46.7499 H   0  0  0  0  0  0  0  0  0  0  0  0
   61.6209   34.7597   46.7391 H   0  0  0  0  0  0  0  0  0  0  0  0
   62.1820   33.7030   48.4920 C   0  0  0  0  0  0  0  0  0  0  0  0
   63.2370   34.3920   48.5840 O   0  0  0  0  0  0  0  0  0  0  0  0
   61.8760   32.7360   49.4550 O   0  0  0  0  0  0  0  0  0  0  0  0
   62.4800   31.4480   49.4730 C   0  0  0  0  0  0  0  0  0  0  0  0
   63.1339   31.3381   48.5953 H   0  0  0  0  0  0  0  0  0  0  0  0
   63.0746   31.3363   50.3917 H   0  0  0  0  0  0  0  0  0  0  0  0
   61.4000   30.3770   49.4370 C   0  0  0  0  0  0  0  0  0  0  0  0
   61.1223   30.1016   50.4651 H   0  0  0  0  0  0  0  0  0  0  0  0
   60.5160   30.7653   48.9099 H   0  0  0  0  0  0  0  0  0  0  0  0
   61.7809   29.4898   48.9099 H   0  0  0  0  0  0  0  0  0  0  0  0
   59.1930   33.1840   48.5370 C   0  0  0  0  0  0  0  0  0  0  0  0
   59.8249   32.8389   49.3686 H   0  0  0  0  0  0  0  0  0  0  0  0
   58.2286   33.5763   48.8919 H   0  0  0  0  0  0  0  0  0  0  0  0
   58.8960   31.9910   47.6200 C   0  0  0  0  0  0  0  0  0  0  0  0
   59.8109   31.3881   47.5225 H   0  0  0  0  0  0  0  0  0  0  0  0
   58.0743   31.4213   48.0786 H   0  0  0  0  0  0  0  0  0  0  0  0
   59.5060   29.5360   45.7960 N   0  0  0  0  0  0  0  0  0  0  0  0
   60.6730   30.3530   46.1540 C   0  0  0  0  0  0  0  0  0  0  0  0
   60.7572   30.4120   47.2492 H   0  0  0  0  0  0  0  0  0  0  0  0
   61.5829   29.8937   45.7405 H   0  0  0  0  0  0  0  0  0  0  0  0
   60.5528   31.3652   45.7405 H   0  0  0  0  0  0  0  0  0  0  0  0
   59.4670   28.1810   45.7230 C   0  0  0  0  0  0  0  0  0  0  0  0
   60.4490   27.3910   46.1830 C   0  0  0  0  0  0  0  0  0  0  0  0
   61.3971   27.8333   46.5229 H   0  0  0  0  0  0  0  0  0  0  0  0
   60.3061   26.3010   46.2203 H   0  0  0  0  0  0  0  0  0  0  0  0
  1  2  1  0
  2  3  1  0
  3  4  1  0
  4  5  1  0
  5  6  2  0
  5  7  1  0
  7  8  1  0
  8  9  1  0
  9 10  1  0
  9 11  2  0
 11 12  1  0
 12 13  1  0
 12 14  2  0
 14 15  1  0
 15 16  2  0
 15 17  1  0
 17 18  1  0
 18 19  1  0
 18 20  1  0
 18 21  1  0
 21 22  1  0
 21 23  1  0
 21 24  1  0
 24 25  1  0
 25 26  1  0
 25 27  1  0
 25 28  1  0
 28 29  2  0
 28 30  1  0
 30 31  1  0
 31 32  1  0
 31 33  1  0
 31 34  1  0
 34 35  1  0
 34 36  1  0
 34 37  1  0
 24 38  1  0
 38 39  1  0
 38 40  1  0
 38 41  1  0
 41 42  1  0
 41 43  1  0
 14 44  1  0
 44 45  1  0
 45 46  1  0
 45 47  1  0
 45 48  1  0
 44 49  1  0
 49 50  2  0
 50 51  1  0
 50 52  1  0
  8  3  2  0
 49 11  1  0
 41 17  1  0
M  CHG  2   4  -1   7  -1
M  END
>  <UniqueID>  (61) 
60

>  <SMILES>  (61) 
C=c1/c(=C\c2[n-]c(=O)[n-]c2O)cc(C(=O)N2CCN(CC(=O)OCC)CC2)n1C

>  <Energy>  (61) 
126.35250727752876

>  <Genealogy>  (61) 
C=c1c(=Cc2[n-]c(=O)[n-]c2O)cc(C(=O)N2CCN(CC(=O)OCC)CC2)n1C (protonated)
C=c1/c(=C\c2[n-]c(=O)[n-]c2O)cc(C(=O)N2CCN(CC(=O)OCC)CC2)n1C (cis-trans isomerization)
C=c1/c(=C\c2[n-]c(=O)[n-]c2O)cc(C(=O)N2CCN(CC(=O)OCC)CC2)n1C (3D coordinates assigned)
C=c1/c(=C\c2[n-]c(=O)[n-]c2O)cc(C(=O)N2CCN(CC(=O)OCC)CC2)n1C (nonaromatic ring conformer: 126.35250727752876 kcal/mol)

>  <smiles>  (61) 
C=c1c(=Cc2[nH]c(=O)[nH]c2O)cc(C(=O)N2CCN(CC(=O)OCC)CC2)n1C

>  <score_type>  (61) 
oracle

>  <origin>  (61) 
adg

>  <m_score__min__energy>  (61) 
-13.029999999999999

>  <m_primary>  (61) 
energy

$$$$
61:0
     RDKit          3D

 55 58  0  0  0  0  0  0  0  0999 V2000
   59.6600   33.6060   49.0080 N   0  0  0  0  0  0  0  0  0  0  0  0
   59.9890   32.4400   49.7660 C   0  0  0  0  0  0  0  0  0  0  0  0
   60.4170   32.5870   50.9440 O   0  0  0  0  0  0  0  0  0  0  0  0
   59.8570   31.0750   49.1980 C   0  0  0  0  0  0  0  0  0  0  0  0
   58.8410   30.1950   49.6200 C   0  0  0  0  0  0  0  0  0  0  0  0
   58.7230   28.9220   49.0530 C   0  0  0  0  0  0  0  0  0  0  0  0
   59.6280   28.5010   48.0730 C   0  0  0  0  0  0  0  0  0  0  0  0
   59.4240   26.9440   47.2740 S   0  0  0  0  0  0  0  0  0  0  0  0
   60.7540   26.4270   46.8000 O   0  0  0  0  0  0  0  0  0  0  0  0
   58.8350   25.9400   48.2280 O   0  0  0  0  0  0  0  0  0  0  0  0
   58.3590   27.1660   45.9260 N   0  0  0  0  0  0  0  0  0  0  0  0
   56.9480   26.9820   46.0350 C   0  0  0  0  0  0  0  0  0  0  0  0
   56.4200   26.0840   46.7400 O   0  0  0  0  0  0  0  0  0  0  0  0
   56.1840   27.9510   45.3220 N   0  0  0  0  0  0  0  0  0  0  0  0
   57.0500   28.7300   44.7580 C   0  0  0  0  0  0  0  0  0  0  0  0
   56.6650   29.9890   44.0370 C   0  0  0  0  0  0  0  0  0  0  0  0
   57.4920   31.1720   44.4890 C   0  0  0  0  0  0  0  0  0  0  0  0
   57.8030   32.1930   43.5760 C   0  0  0  0  0  0  0  0  0  0  0  0
   58.5240   33.3190   43.9850 C   0  0  0  0  0  0  0  0  0  0  0  0
   58.9740   33.4330   45.3090 C   0  0  0  0  0  0  0  0  0  0  0  0
   59.7120   34.6290   45.7670 C   0  0  0  0  0  0  0  0  0  0  0  0
   59.3220   35.7630   45.3860 O   0  0  0  0  0  0  0  0  0  0  0  0
   60.8440   34.5590   46.6450 N   0  0  0  0  0  0  0  0  0  0  0  0
   62.0970   33.8470   46.4070 C   0  0  0  0  0  0  0  0  0  0  0  0
   62.7820   33.5010   47.7020 C   0  0  0  0  0  0  0  0  0  0  0  0
   62.5970   34.2980   48.8420 C   0  0  0  0  0  0  0  0  0  0  0  0
   63.1740   33.9290   50.0600 C   0  0  0  0  0  0  0  0  0  0  0  0
   63.9530   32.7720   50.1450 C   0  0  0  0  0  0  0  0  0  0  0  0
   64.1540   31.9800   49.0120 C   0  0  0  0  0  0  0  0  0  0  0  0
   63.5680   32.3400   47.7950 C   0  0  0  0  0  0  0  0  0  0  0  0
   58.6290   32.4350   46.2330 C   0  0  0  0  0  0  0  0  0  0  0  0
   57.8870   31.3210   45.8320 C   0  0  0  0  0  0  0  0  0  0  0  0
   58.4100   28.3140   45.0880 C   0  0  0  0  0  0  0  0  0  0  0  0
   59.7840   28.9300   44.4400 S   0  0  0  0  0  0  0  0  0  0  0  0
   60.6500   29.3620   47.6630 C   0  0  0  0  0  0  0  0  0  0  0  0
   60.7670   30.6360   48.2200 C   0  0  0  0  0  0  0  0  0  0  0  0
   59.7210   34.5470   49.4540 H   0  0  0  0  0  0  0  0  0  0  0  0
   59.4900   33.5660   47.9810 H   0  0  0  0  0  0  0  0  0  0  0  0
   58.1349   30.5117   50.4017 H   0  0  0  0  0  0  0  0  0  0  0  0
   57.9158   28.2495   49.3788 H   0  0  0  0  0  0  0  0  0  0  0  0
   56.8158   29.8411   42.9575 H   0  0  0  0  0  0  0  0  0  0  0  0
   55.6102   30.2033   44.2638 H   0  0  0  0  0  0  0  0  0  0  0  0
   57.4762   32.1060   42.5293 H   0  0  0  0  0  0  0  0  0  0  0  0
   58.7399   34.1210   43.2638 H   0  0  0  0  0  0  0  0  0  0  0  0
   61.8833   32.9196   45.8554 H   0  0  0  0  0  0  0  0  0  0  0  0
   62.7633   34.5004   45.8247 H   0  0  0  0  0  0  0  0  0  0  0  0
   61.9955   35.2167   48.7766 H   0  0  0  0  0  0  0  0  0  0  0  0
   63.0147   34.5504   50.9536 H   0  0  0  0  0  0  0  0  0  0  0  0
   64.4081   32.4848   51.1044 H   0  0  0  0  0  0  0  0  0  0  0  0
   64.7733   31.0732   49.0775 H   0  0  0  0  0  0  0  0  0  0  0  0
   63.7230   31.7113   46.9058 H   0  0  0  0  0  0  0  0  0  0  0  0
   58.9454   32.5304   47.2822 H   0  0  0  0  0  0  0  0  0  0  0  0
   57.6095   30.5549   46.5710 H   0  0  0  0  0  0  0  0  0  0  0  0
   61.3668   29.0330   46.8962 H   0  0  0  0  0  0  0  0  0  0  0  0
   61.5780   31.3026   47.8913 H   0  0  0  0  0  0  0  0  0  0  0  0
  1  2  1  0
  2  3  2  0
  2  4  1  0
  4  5  2  0
  5  6  1  0
  6  7  2  0
  7  8  1  0
  8  9  2  0
  8 10  2  0
  8 11  1  0
 11 12  1  0
 12 13  2  0
 12 14  1  0
 14 15  2  0
 15 16  1  0
 16 17  1  0
 17 18  2  0
 18 19  1  0
 19 20  2  0
 20 21  1  0
 21 22  2  0
 21 23  1  0
 23 24  1  0
 24 25  1  0
 25 26  2  0
 26 27  1  0
 27 28  2  0
 28 29  1  0
 29 30  2  0
 20 31  1  0
 31 32  2  0
 15 33  1  0
 33 34  2  0
  7 35  1  0
 35 36  2  0
 36  4  1  0
 33 11  1  0
 32 17  1  0
 30 25  1  0
  1 37  1  0
  1 38  1  0
  5 39  1  0
  6 40  1  0
 16 41  1  0
 16 42  1  0
 18 43  1  0
 19 44  1  0
 24 45  1  0
 24 46  1  0
 26 47  1  0
 27 48  1  0
 28 49  1  0
 29 50  1  0
 30 51  1  0
 31 52  1  0
 32 53  1  0
 35 54  1  0
 36 55  1  0
M  CHG  1  23  -1
M  END
>  <UniqueID>  (62) 
61

>  <SMILES>  (62) 
NC(=O)c1ccc(S(=O)(=O)N2C(=O)N=C(Cc3ccc(C(=O)[N-]Cc4ccccc4)cc3)C2=S)cc1

>  <Energy>  (62) 
88.66120427676171

>  <Genealogy>  (62) 
NC(=O)c1ccc(S(=O)(=O)N2C(=O)N=C(Cc3ccc(C(=O)[N-]Cc4ccccc4)cc3)C2=S)cc1 (protonated)
NC(=O)c1ccc(S(=O)(=O)N2C(=O)N=C(Cc3ccc(C(=O)[N-]Cc4ccccc4)cc3)C2=S)cc1 (3D coordinates assigned)
NC(=O)c1ccc(S(=O)(=O)N2C(=O)N=C(Cc3ccc(C(=O)[N-]Cc4ccccc4)cc3)C2=S)cc1 (nonaromatic ring conformer: 88.66120427676171 kcal/mol)

>  <smiles>  (62) 
NC(=O)c1ccc(S(=O)(=O)N2C(=O)N=C(Cc3ccc(C(=O)NCc4ccccc4)cc3)C2=S)cc1

>  <score_type>  (62) 
oracle

>  <origin>  (62) 
adg

>  <m_score__min__energy>  (62) 
-11.949999999999999

>  <m_primary>  (62) 
energy

$$$$
62:0
     RDKit          3D

 39 41  0  0  0  0  0  0  0  0999 V2000
   58.0900   34.2430   44.9260 C   0  0  0  0  0  0  0  0  0  0  0  0
   57.9230   32.9160   44.8740 C   0  0  0  0  0  0  0  0  0  0  0  0
   57.4060   32.3000   43.7930 N   0  0  0  0  0  0  0  0  0  0  0  0
   57.3780   30.9830   44.0600 C   0  0  0  0  0  0  0  0  0  0  0  0
   56.7730   29.9680   43.1390 C   0  0  0  0  0  0  0  0  0  0  0  0
   57.8640   30.7360   45.3360 C   0  0  0  0  0  0  0  0  0  0  0  0
   57.7760   29.4250   46.0150 C   0  0  0  0  0  0  0  0  0  0  0  0
   58.4180   29.2510   47.0830 O   0  0  0  0  0  0  0  0  0  0  0  0
   56.9750   28.3460   45.5110 N   0  0  0  0  0  0  0  0  0  0  0  0
   57.1690   26.9370   45.7060 C   0  0  0  0  0  0  0  0  0  0  0  0
   58.4510   26.3550   45.7310 C   0  0  0  0  0  0  0  0  0  0  0  0
   58.5980   24.9790   45.9260 C   0  0  0  0  0  0  0  0  0  0  0  0
   57.4730   24.1750   46.1250 C   0  0  0  0  0  0  0  0  0  0  0  0
   56.2000   24.7500   46.1480 C   0  0  0  0  0  0  0  0  0  0  0  0
   56.0480   26.1260   45.9520 C   0  0  0  0  0  0  0  0  0  0  0  0
   54.7770   26.6870   45.9950 O   0  0  0  0  0  0  0  0  0  0  0  0
   58.2490   31.9780   45.8610 C   0  0  0  0  0  0  0  0  0  0  0  0
   58.8330   32.2490   47.0490 C   0  0  0  0  0  0  0  0  0  0  0  0
   60.2530   32.6170   47.2420 C   0  0  0  0  0  0  0  0  0  0  0  0
   61.2490   31.6330   47.1540 C   0  0  0  0  0  0  0  0  0  0  0  0
   60.9150   30.3200   46.8300 O   0  0  0  0  0  0  0  0  0  0  0  0
   62.5490   31.9600   47.3760 N   0  0  0  0  0  0  0  0  0  0  0  0
   62.9070   33.2260   47.7070 C   0  0  0  0  0  0  0  0  0  0  0  0
   64.1170   33.5080   47.8960 O   0  0  0  0  0  0  0  0  0  0  0  0
   61.9580   34.1860   47.8460 N   0  0  0  0  0  0  0  0  0  0  0  0
   60.6440   33.9100   47.6390 C   0  0  0  0  0  0  0  0  0  0  0  0
   59.7870   34.8150   47.8250 O   0  0  0  0  0  0  0  0  0  0  0  0
   58.5157   34.7089   45.8270 H   0  0  0  0  0  0  0  0  0  0  0  0
   57.8016   34.8677   44.0678 H   0  0  0  0  0  0  0  0  0  0  0  0
   57.0680   32.7580   42.9160 H   0  0  0  0  0  0  0  0  0  0  0  0
   56.2985   29.1719   43.7316 H   0  0  0  0  0  0  0  0  0  0  0  0
   56.0167   30.4533   42.5046 H   0  0  0  0  0  0  0  0  0  0  0  0
   57.5596   29.5336   42.5046 H   0  0  0  0  0  0  0  0  0  0  0  0
   59.3414   26.9867   45.5963 H   0  0  0  0  0  0  0  0  0  0  0  0
   59.6014   24.5282   45.9228 H   0  0  0  0  0  0  0  0  0  0  0  0
   57.5894   23.0900   46.2635 H   0  0  0  0  0  0  0  0  0  0  0  0
   55.3156   24.1190   46.3206 H   0  0  0  0  0  0  0  0  0  0  0  0
   58.2003   32.1912   47.9470 H   0  0  0  0  0  0  0  0  0  0  0  0
   59.9490   30.0140   46.8260 H   0  0  0  0  0  0  0  0  0  0  0  0
  1  2  2  0
  2  3  1  0
  3  4  1  0
  4  5  1  0
  4  6  2  0
  6  7  1  0
  7  8  2  0
  7  9  1  0
  9 10  1  0
 10 11  2  0
 11 12  1  0
 12 13  2  0
 13 14  1  0
 14 15  2  0
 15 16  1  0
  6 17  1  0
 17 18  2  3
 18 19  1  0
 19 20  2  0
 20 21  1  0
 20 22  1  0
 22 23  1  0
 23 24  2  0
 23 25  1  0
 25 26  1  0
 26 27  2  0
 17  2  1  0
 26 19  1  0
 15 10  1  0
  1 28  1  0
  1 29  1  0
  3 30  1  0
  5 31  1  0
  5 32  1  0
  5 33  1  0
 11 34  1  0
 12 35  1  0
 13 36  1  0
 14 37  1  0
 18 38  1  0
 21 39  1  0
M  CHG  4   9  -1  16  -1  22  -1  25  -1
M  END
>  <UniqueID>  (63) 
62

>  <SMILES>  (63) 
C=c1[nH]c(C)c(C(=O)[N-]c2ccccc2[O-])c1=Cc1c(O)[n-]c(=O)[n-]c1=O

>  <Energy>  (63) 
87.60303616798306

>  <Genealogy>  (63) 
C=c1[nH]c(C)c(C(=O)[N-]c2ccccc2[O-])c1=Cc1c(O)[n-]c(=O)[n-]c1=O (protonated)
C=c1[nH]c(C)c(C(=O)[N-]c2ccccc2[O-])c1=Cc1c(O)[n-]c(=O)[n-]c1=O (3D coordinates assigned)
C=c1[nH]c(C)c(C(=O)[N-]c2ccccc2[O-])c1=Cc1c(O)[n-]c(=O)[n-]c1=O (optimized conformer: 87.60303616798306 kcal/mol)

>  <smiles>  (63) 
C=c1[nH]c(C)c(C(=O)Nc2ccccc2O)c1=Cc1c(O)[nH]c(=O)[nH]c1=O

>  <score_type>  (63) 
oracle

>  <origin>  (63) 
adg

>  <m_score__min__energy>  (63) 
-16.059999999999999

>  <m_primary>  (63) 
energy

$$$$
63:0
     RDKit          3D

 42 45  0  0  0  0  0  0  0  0999 V2000
   60.3480   27.0580   48.8560 C   0  0  0  0  0  0  0  0  0  0  0  0
   59.8350   28.1940   48.3560 C   0  0  0  0  0  0  0  0  0  0  0  0
   59.0160   28.3300   47.2210 C   0  0  0  0  0  0  0  0  0  0  0  0
   58.6620   27.4430   46.2700 C   0  0  0  0  0  0  0  0  0  0  0  0
   57.4030   26.6860   46.2260 C   0  0  0  0  0  0  0  0  0  0  0  0
   57.2550   25.4650   46.7700 N   0  0  0  0  0  0  0  0  0  0  0  0
   55.9430   25.2010   46.5920 C   0  0  0  0  0  0  0  0  0  0  0  0
   55.4130   24.1210   46.9640 O   0  0  0  0  0  0  0  0  0  0  0  0
   55.2410   26.1880   45.9950 N   0  0  0  0  0  0  0  0  0  0  0  0
   56.1740   27.1300   45.7820 C   0  0  0  0  0  0  0  0  0  0  0  0
   55.8920   28.3710   45.2180 O   0  0  0  0  0  0  0  0  0  0  0  0
   58.5920   29.6480   47.2080 C   0  0  0  0  0  0  0  0  0  0  0  0
   59.1810   30.2710   48.2870 C   0  0  0  0  0  0  0  0  0  0  0  0
   58.9790   31.6910   48.6260 C   0  0  0  0  0  0  0  0  0  0  0  0
   58.2020   31.9910   49.5710 O   0  0  0  0  0  0  0  0  0  0  0  0
   59.7120   32.7200   47.9440 N   0  0  0  0  0  0  0  0  0  0  0  0
   59.0850   33.7540   47.1170 C   0  0  0  0  0  0  0  0  0  0  0  0
   60.2320   34.4340   46.3310 C   0  0  0  0  0  0  0  0  0  0  0  0
   61.4410   33.6870   46.7720 C   0  0  0  0  0  0  0  0  0  0  0  0
   62.7650   33.8910   46.3830 C   0  0  0  0  0  0  0  0  0  0  0  0
   63.7640   33.0840   46.9510 C   0  0  0  0  0  0  0  0  0  0  0  0
   63.4250   32.1010   47.9000 C   0  0  0  0  0  0  0  0  0  0  0  0
   62.0850   31.9160   48.2790 C   0  0  0  0  0  0  0  0  0  0  0  0
   61.1070   32.7210   47.6830 C   0  0  0  0  0  0  0  0  0  0  0  0
   59.9600   29.3990   48.9700 N   0  0  0  0  0  0  0  0  0  0  0  0
   60.8050   29.7010   50.1330 C   0  0  0  0  0  0  0  0  0  0  0  0
   60.9784   27.0890   49.7569 H   0  0  0  0  0  0  0  0  0  0  0  0
   60.1378   26.0966   48.3646 H   0  0  0  0  0  0  0  0  0  0  0  0
   59.3792   27.2703   45.4541 H   0  0  0  0  0  0  0  0  0  0  0  0
   56.0320   28.5470   44.2300 H   0  0  0  0  0  0  0  0  0  0  0  0
   57.9138   30.1101   46.4755 H   0  0  0  0  0  0  0  0  0  0  0  0
   58.3632   33.3004   46.4219 H   0  0  0  0  0  0  0  0  0  0  0  0
   58.5357   34.4811   47.7331 H   0  0  0  0  0  0  0  0  0  0  0  0
   60.0803   34.3325   45.2463 H   0  0  0  0  0  0  0  0  0  0  0  0
   60.3015   35.5152   46.5213 H   0  0  0  0  0  0  0  0  0  0  0  0
   63.0210   34.6674   45.6470 H   0  0  0  0  0  0  0  0  0  0  0  0
   64.8142   33.2203   46.6536 H   0  0  0  0  0  0  0  0  0  0  0  0
   64.2121   31.4756   48.3463 H   0  0  0  0  0  0  0  0  0  0  0  0
   61.8108   31.1567   49.0262 H   0  0  0  0  0  0  0  0  0  0  0  0
   60.2427   29.5000   51.0568 H   0  0  0  0  0  0  0  0  0  0  0  0
   61.7048   29.0688   50.1065 H   0  0  0  0  0  0  0  0  0  0  0  0
   61.1003   30.7603   50.1065 H   0  0  0  0  0  0  0  0  0  0  0  0
  1  2  2  0
  2  3  1  0
  3  4  2  3
  4  5  1  0
  5  6  1  0
  6  7  1  0
  7  8  2  0
  7  9  1  0
  9 10  1  0
 10 11  1  0
  3 12  1  0
 12 13  2  0
 13 14  1  0
 14 15  2  0
 14 16  1  0
 16 17  1  0
 17 18  1  0
 18 19  1  0
 19 20  2  0
 20 21  1  0
 21 22  2  0
 22 23  1  0
 23 24  2  0
 13 25  1  0
 25 26  1  0
 25  2  1  0
 10  5  2  0
 24 16  1  0
 24 19  1  0
  1 27  1  0
  1 28  1  0
  4 29  1  0
 11 30  1  0
 12 31  1  0
 17 32  1  0
 17 33  1  0
 18 34  1  0
 18 35  1  0
 20 36  1  0
 21 37  1  0
 22 38  1  0
 23 39  1  0
 26 40  1  0
 26 41  1  0
 26 42  1  0
M  CHG  2   6  -1   9  -1
M  END
>  <UniqueID>  (64) 
63

>  <SMILES>  (64) 
C=c1c(=Cc2[n-]c(=O)[n-]c2O)cc(C(=O)N2CCc3ccccc32)n1C

>  <Energy>  (64) 
136.426916573041

>  <Genealogy>  (64) 
C=c1c(=Cc2[n-]c(=O)[n-]c2O)cc(C(=O)N2CCc3ccccc32)n1C (protonated)
C=c1c(=Cc2[n-]c(=O)[n-]c2O)cc(C(=O)N2CCc3ccccc32)n1C (3D coordinates assigned)
C=c1c(=Cc2[n-]c(=O)[n-]c2O)cc(C(=O)N2CCc3ccccc32)n1C (nonaromatic ring conformer: 136.426916573041 kcal/mol)

>  <smiles>  (64) 
C=c1c(=Cc2[nH]c(=O)[nH]c2O)cc(C(=O)N2CCc3ccccc32)n1C

>  <score_type>  (64) 
oracle

>  <origin>  (64) 
adg

>  <m_score__min__energy>  (64) 
-13.15

>  <m_primary>  (64) 
energy

$$$$
64:0
     RDKit          3D

 55 57  0  0  0  0  0  0  0  0999 V2000
   56.2470   22.6700   41.7930 H   0  0  0  0  0  0  0  0  0  0  0  0
   56.1580   22.3130   42.7700 N   0  0  0  0  0  0  0  0  0  0  0  0
   57.1470   22.2940   43.6070 C   0  0  0  0  0  0  0  0  0  0  0  0
   57.6280   23.5440   44.2500 C   0  0  0  0  0  0  0  0  0  0  0  0
   57.2920   24.8020   43.7240 C   0  0  0  0  0  0  0  0  0  0  0  0
   56.6679   24.8664   42.8205 H   0  0  0  0  0  0  0  0  0  0  0  0
   57.7440   25.9730   44.3390 C   0  0  0  0  0  0  0  0  0  0  0  0
   57.4738   26.9509   43.9138 H   0  0  0  0  0  0  0  0  0  0  0  0
   58.5400   25.9130   45.4950 C   0  0  0  0  0  0  0  0  0  0  0  0
   59.0150   27.1580   46.1530 C   0  0  0  0  0  0  0  0  0  0  0  0
   58.9050   28.3960   45.5000 C   0  0  0  0  0  0  0  0  0  0  0  0
   58.4672   28.4434   44.4920 H   0  0  0  0  0  0  0  0  0  0  0  0
   59.3460   29.5670   46.1180 C   0  0  0  0  0  0  0  0  0  0  0  0
   59.2502   30.5289   45.5930 H   0  0  0  0  0  0  0  0  0  0  0  0
   59.9120   29.5300   47.4060 C   0  0  0  0  0  0  0  0  0  0  0  0
   60.3250   30.6960   48.0760 O   0  0  0  0  0  0  0  0  0  0  0  0
   59.4840   31.7720   48.5010 C   0  0  0  0  0  0  0  0  0  0  0  0
   58.4833   31.3773   48.7310 H   0  0  0  0  0  0  0  0  0  0  0  0
   59.9303   32.2343   49.3938 H   0  0  0  0  0  0  0  0  0  0  0  0
   59.3630   32.8380   47.4080 C   0  0  0  0  0  0  0  0  0  0  0  0
   59.4650   33.8303   47.8716 H   0  0  0  0  0  0  0  0  0  0  0  0
   60.1574   32.6493   46.6709 H   0  0  0  0  0  0  0  0  0  0  0  0
   58.0180   32.7780   46.6660 C   0  0  0  0  0  0  0  0  0  0  0  0
   57.5718   31.7844   46.8198 H   0  0  0  0  0  0  0  0  0  0  0  0
   57.3721   33.5717   47.0696 H   0  0  0  0  0  0  0  0  0  0  0  0
   58.1800   33.0200   45.1600 C   0  0  0  0  0  0  0  0  0  0  0  0
   57.7404   33.9956   44.9051 H   0  0  0  0  0  0  0  0  0  0  0  0
   59.2533   33.0005   44.9200 H   0  0  0  0  0  0  0  0  0  0  0  0
   57.4960   31.9500   44.3550 C   0  0  0  0  0  0  0  0  0  0  0  0
   56.7930   30.9760   44.9970 N   0  0  0  0  0  0  0  0  0  0  0  0
   56.1950   29.9580   44.3210 C   0  0  0  0  0  0  0  0  0  0  0  0
   55.6313   29.1899   44.8708 H   0  0  0  0  0  0  0  0  0  0  0  0
   56.2960   29.8870   42.9300 C   0  0  0  0  0  0  0  0  0  0  0  0
   55.8123   29.0676   42.3781 H   0  0  0  0  0  0  0  0  0  0  0  0
   57.0180   30.8680   42.2480 C   0  0  0  0  0  0  0  0  0  0  0  0
   57.1094   30.8235   41.1527 H   0  0  0  0  0  0  0  0  0  0  0  0
   57.6240   31.9060   42.9590 C   0  0  0  0  0  0  0  0  0  0  0  0
   58.1963   32.6818   42.4292 H   0  0  0  0  0  0  0  0  0  0  0  0
   60.0420   28.2880   48.0610 C   0  0  0  0  0  0  0  0  0  0  0  0
   60.6760   28.1900   49.3960 C   0  0  0  0  0  0  0  0  0  0  0  0
   61.1690   29.3730   50.0350 N   0  0  0  0  0  0  0  0  0  0  0  0
   61.1420   30.2930   49.5430 H   0  0  0  0  0  0  0  0  0  0  0  0
   61.5900   29.3320   50.9890 H   0  0  0  0  0  0  0  0  0  0  0  0
   60.7520   27.0470   50.0100 N   0  0  0  0  0  0  0  0  0  0  0  0
   60.0470   26.7790   50.7320 H   0  0  0  0  0  0  0  0  0  0  0  0
   61.5000   26.3540   49.7810 H   0  0  0  0  0  0  0  0  0  0  0  0
   59.5840   27.1170   47.4360 C   0  0  0  0  0  0  0  0  0  0  0  0
   59.6723   26.1534   47.9592 H   0  0  0  0  0  0  0  0  0  0  0  0
   58.8740   24.6530   46.0220 C   0  0  0  0  0  0  0  0  0  0  0  0
   59.4957   24.5879   46.9271 H   0  0  0  0  0  0  0  0  0  0  0  0
   58.4230   23.4830   45.4060 C   0  0  0  0  0  0  0  0  0  0  0  0
   58.6932   22.5048   45.8305 H   0  0  0  0  0  0  0  0  0  0  0  0
   57.7790   21.0450   43.8970 N   0  0  0  0  0  0  0  0  0  0  0  0
   57.4730   20.1730   43.4100 H   0  0  0  0  0  0  0  0  0  0  0  0
   58.5100   20.9660   44.6390 H   0  0  0  0  0  0  0  0  0  0  0  0
  1  2  1  0
  2  3  2  0
  3  4  1  0
  4  5  2  0
  5  6  1  0
  5  7  1  0
  7  8  1  0
  7  9  2  0
  9 10  1  0
 10 11  2  0
 11 12  1  0
 11 13  1  0
 13 14  1  0
 13 15  2  0
 15 16  1  0
 16 17  1  0
 17 18  1  0
 17 19  1  0
 17 20  1  0
 20 21  1  0
 20 22  1  0
 20 23  1  0
 23 24  1  0
 23 25  1  0
 23 26  1  0
 26 27  1  0
 26 28  1  0
 26 29  1  0
 29 30  2  0
 30 31  1  0
 31 32  1  0
 31 33  2  0
 33 34  1  0
 33 35  1  0
 35 36  1  0
 35 37  2  0
 37 38  1  0
 15 39  1  0
 39 40  1  0
 40 41  1  0
 41 42  1  0
 41 43  1  0
 40 44  2  0
 44 45  1  0
 44 46  1  0
 39 47  2  0
 47 48  1  0
  9 49  1  0
 49 50  1  0
 49 51  2  0
 51 52  1  0
  3 53  1  0
 53 54  1  0
 53 55  1  0
 51  4  1  0
 47 10  1  0
 37 29  1  0
M  CHG  1  44   1
M  END
>  <UniqueID>  (65) 
64

>  <SMILES>  (65) 
[H]/N=C(/N)c1ccc(-c2ccc(OCCCCc3ccccn3)c(C(N)=[NH2+])c2)cc1

>  <Energy>  (65) 
63.97074197238974

>  <Genealogy>  (65) 
N=C(N)c1ccc(-c2ccc(OCCCCc3ccccn3)c(C(N)=[NH2+])c2)cc1 (protonated)
[H]/N=C(/N)c1ccc(-c2ccc(OCCCCc3ccccn3)c(C(N)=[NH2+])c2)cc1 (cis-trans isomerization)
[H]/N=C(/N)c1ccc(-c2ccc(OCCCCc3ccccn3)c(C(N)=[NH2+])c2)cc1 (3D coordinates assigned)
[H]/N=C(/N)c1ccc(-c2ccc(OCCCCc3ccccn3)c(C(N)=[NH2+])c2)cc1 (optimized conformer: 63.97074197238974 kcal/mol)

>  <smiles>  (65) 
N=C(N)c1ccc(-c2ccc(OCCCCc3ccccn3)c(C(=N)N)c2)cc1

>  <score_type>  (65) 
oracle

>  <origin>  (65) 
adg

>  <m_score__min__energy>  (65) 
-7.21

>  <m_primary>  (65) 
energy

$$$$
65:0
     RDKit          3D

 41 43  0  0  0  0  0  0  0  0999 V2000
   56.6035   30.6263   43.1741 H   0  0  0  0  0  0  0  0  0  0  0  0
   56.8730   29.6340   43.5650 C   0  0  0  0  0  0  0  0  0  0  0  0
   56.6594   28.7326   42.9718 H   0  0  0  0  0  0  0  0  0  0  0  0
   57.4630   29.5230   44.7670 C   0  0  0  0  0  0  0  0  0  0  0  0
   57.8570   28.3310   45.3820 C   0  0  0  0  0  0  0  0  0  0  0  0
   57.6560   27.0750   44.9380 C   0  0  0  0  0  0  0  0  0  0  0  0
   57.9094   26.8500   43.8915 H   0  0  0  0  0  0  0  0  0  0  0  0
   57.1170   25.9840   45.7700 C   0  0  0  0  0  0  0  0  0  0  0  0
   57.8780   25.0000   46.2800 N   0  0  0  0  0  0  0  0  0  0  0  0
   57.0060   24.2840   47.0240 C   0  0  0  0  0  0  0  0  0  0  0  0
   57.3480   23.2540   47.6620 O   0  0  0  0  0  0  0  0  0  0  0  0
   55.7450   24.7650   47.0410 N   0  0  0  0  0  0  0  0  0  0  0  0
   55.8330   25.8470   46.2520 C   0  0  0  0  0  0  0  0  0  0  0  0
   54.7730   26.7150   46.0190 O   0  0  0  0  0  0  0  0  0  0  0  0
   58.4640   28.6930   46.5750 C   0  0  0  0  0  0  0  0  0  0  0  0
   58.8944   28.0121   47.3241 H   0  0  0  0  0  0  0  0  0  0  0  0
   58.4250   30.0720   46.6430 C   0  0  0  0  0  0  0  0  0  0  0  0
   59.0440   30.8600   47.7310 C   0  0  0  0  0  0  0  0  0  0  0  0
   58.5190   30.8490   48.8780 O   0  0  0  0  0  0  0  0  0  0  0  0
   60.1910   31.6960   47.4820 N   0  0  0  0  0  0  0  0  0  0  0  0
   61.4350   31.0790   47.0120 C   0  0  0  0  0  0  0  0  0  0  0  0
   61.3513   30.8870   45.9321 H   0  0  0  0  0  0  0  0  0  0  0  0
   61.5842   30.1427   47.5698 H   0  0  0  0  0  0  0  0  0  0  0  0
   62.6250   31.9640   47.2580 C   0  0  0  0  0  0  0  0  0  0  0  0
   63.7790   31.4870   47.0730 O   0  0  0  0  0  0  0  0  0  0  0  0
   62.4680   33.3440   47.6450 N   0  0  0  0  0  0  0  0  0  0  0  0
   63.6550   34.1900   47.7940 C   0  0  0  0  0  0  0  0  0  0  0  0
   63.8662   34.3405   48.8630 H   0  0  0  0  0  0  0  0  0  0  0  0
   64.5163   33.7009   47.3154 H   0  0  0  0  0  0  0  0  0  0  0  0
   63.4737   35.1637   47.3154 H   0  0  0  0  0  0  0  0  0  0  0  0
   61.1580   33.8630   48.0550 C   0  0  0  0  0  0  0  0  0  0  0  0
   61.1085   34.9373   47.8237 H   0  0  0  0  0  0  0  0  0  0  0  0
   61.0375   33.6948   49.1354 H   0  0  0  0  0  0  0  0  0  0  0  0
   60.0300   33.1430   47.3230 C   0  0  0  0  0  0  0  0  0  0  0  0
   60.0634   33.4005   46.2541 H   0  0  0  0  0  0  0  0  0  0  0  0
   59.0624   33.4530   47.7445 H   0  0  0  0  0  0  0  0  0  0  0  0
   57.7990   30.5790   45.5530 N   0  0  0  0  0  0  0  0  0  0  0  0
   57.5490   31.9990   45.2760 C   0  0  0  0  0  0  0  0  0  0  0  0
   57.4526   32.5463   46.2253 H   0  0  0  0  0  0  0  0  0  0  0  0
   58.3881   32.4130   44.6976 H   0  0  0  0  0  0  0  0  0  0  0  0
   56.6190   32.1016   44.6976 H   0  0  0  0  0  0  0  0  0  0  0  0
  1  2  1  0
  2  3  1  0
  2  4  2  0
  4  5  1  0
  5  6  2  0
  6  7  1  0
  6  8  1  0
  8  9  1  0
  9 10  1  0
 10 11  2  0
 10 12  1  0
 12 13  1  0
 13 14  1  0
  5 15  1  0
 15 16  1  0
 15 17  2  0
 17 18  1  0
 18 19  2  0
 18 20  1  0
 20 21  1  0
 21 22  1  0
 21 23  1  0
 21 24  1  0
 24 25  2  0
 24 26  1  0
 26 27  1  0
 27 28  1  0
 27 29  1  0
 27 30  1  0
 26 31  1  0
 31 32  1  0
 31 33  1  0
 31 34  1  0
 34 35  1  0
 34 36  1  0
 17 37  1  0
 37 38  1  0
 38 39  1  0
 38 40  1  0
 38 41  1  0
 37  4  1  0
 13  8  2  0
 34 20  1  0
M  CHG  3   9  -1  12  -1  14  -1
M  END
>  <UniqueID>  (66) 
65

>  <SMILES>  (66) 
C=c1/c(=C/c2[n-]c(=O)[n-]c2[O-])cc(C(=O)N2CCN(C)C(=O)C2)n1C

>  <Energy>  (66) 
110.78073149669429

>  <Genealogy>  (66) 
C=c1c(=Cc2[n-]c(=O)[n-]c2[O-])cc(C(=O)N2CCN(C)C(=O)C2)n1C (protonated)
C=c1/c(=C/c2[n-]c(=O)[n-]c2[O-])cc(C(=O)N2CCN(C)C(=O)C2)n1C (cis-trans isomerization)
C=c1/c(=C/c2[n-]c(=O)[n-]c2[O-])cc(C(=O)N2CCN(C)C(=O)C2)n1C (3D coordinates assigned)
C=c1/c(=C/c2[n-]c(=O)[n-]c2[O-])cc(C(=O)N2CCN(C)C(=O)C2)n1C (nonaromatic ring conformer: 110.78073149669429 kcal/mol)

>  <smiles>  (66) 
C=c1c(=Cc2[nH]c(=O)[nH]c2O)cc(C(=O)N2CCN(C)C(=O)C2)n1C

>  <score_type>  (66) 
oracle

>  <origin>  (66) 
adg

>  <m_score__min__energy>  (66) 
-16.48

>  <m_primary>  (66) 
energy

$$$$
66:0
     RDKit          3D

 42 44  0  0  1  0  0  0  0  0999 V2000
   61.0220   31.7060   46.5320 O   0  0  0  0  0  0  0  0  0  0  0  0
   60.3330   31.0860   47.3940 C   0  0  0  0  0  0  0  0  0  0  0  0
   59.9440   29.6910   47.2520 C   0  0  0  0  0  0  0  0  0  0  0  0
   60.3350   28.9800   46.1370 C   0  0  0  0  0  0  0  0  0  0  0  0
   59.9400   27.6490   46.0550 C   0  0  0  0  0  0  0  0  0  0  0  0
   59.1870   27.0370   47.0330 C   0  0  0  0  0  0  0  0  0  0  0  0
   58.7710   25.6430   46.9520 C   0  0  0  0  0  0  0  0  0  0  0  0
   57.8630   25.1850   46.1370 C   0  0  0  0  0  0  0  0  0  0  0  0
   56.4260   25.3040   46.4270 C   0  0  0  0  0  0  0  0  0  0  0  0
   55.7810   24.4570   47.3180 O   0  0  0  0  0  0  0  0  0  0  0  0
   55.7610   26.2230   45.8300 N   0  0  0  0  0  0  0  0  0  0  0  0
   54.3790   26.3230   45.9280 O   0  0  0  0  0  0  0  0  0  0  0  0
   58.8340   27.8120   48.1190 C   0  0  0  0  0  0  0  0  0  0  0  0
   59.1960   29.1350   48.2550 C   0  0  0  0  0  0  0  0  0  0  0  0
   58.7480   29.8590   49.4700 C   0  0  0  0  0  0  0  0  0  0  0  0
   59.7430   30.9550   49.7650 C   0  0  0  0  0  0  0  0  0  0  0  0
   59.9000   31.7660   48.5750 N   0  0  0  0  0  0  0  0  0  0  0  0
   59.6440   33.1930   48.5430 C   0  0  0  0  0  0  0  0  0  0  0  0
   58.9930   33.6350   47.3000 C   0  0  0  0  0  0  0  0  0  0  0  0
   59.6870   34.5010   46.4670 C   0  0  0  0  0  0  0  0  0  0  0  0
   59.1550   34.9700   45.2790 C   0  0  0  0  0  0  0  0  0  0  0  0
   57.8840   34.5540   44.9160 C   0  0  0  0  0  0  0  0  0  0  0  0
   57.1480   33.6820   45.7240 C   0  0  0  0  0  0  0  0  0  0  0  0
   57.7360   33.2520   46.8970 C   0  0  0  0  0  0  0  0  0  0  0  0
   60.9361   29.4475   45.3431 H   0  0  0  0  0  0  0  0  0  0  0  0
   60.2406   27.0619   45.1747 H   0  0  0  0  0  0  0  0  0  0  0  0
   59.2587   24.9250   47.6278 H   0  0  0  0  0  0  0  0  0  0  0  0
   58.1807   24.6950   45.2048 H   0  0  0  0  0  0  0  0  0  0  0  0
   54.7640   24.4700   47.4420 H   0  0  0  0  0  0  0  0  0  0  0  0
   53.8130   25.6380   46.3690 H   0  0  0  0  0  0  0  0  0  0  0  0
   58.2332   27.3505   48.9165 H   0  0  0  0  0  0  0  0  0  0  0  0
   57.7538   30.2966   49.2964 H   0  0  0  0  0  0  0  0  0  0  0  0
   58.6855   29.1658   50.3218 H   0  0  0  0  0  0  0  0  0  0  0  0
   59.3738   31.5783   50.5927 H   0  0  0  0  0  0  0  0  0  0  0  0
   60.7104   30.5181   50.0536 H   0  0  0  0  0  0  0  0  0  0  0  0
   58.9918   33.4507   49.3905 H   0  0  0  0  0  0  0  0  0  0  0  0
   60.6173   33.7021   48.6024 H   0  0  0  0  0  0  0  0  0  0  0  0
   60.6957   34.8261   46.7616 H   0  0  0  0  0  0  0  0  0  0  0  0
   59.7273   35.6567   44.6380 H   0  0  0  0  0  0  0  0  0  0  0  0
   57.4459   34.9166   43.9744 H   0  0  0  0  0  0  0  0  0  0  0  0
   56.1392   33.3512   45.4362 H   0  0  0  0  0  0  0  0  0  0  0  0
   57.1682   32.5665   47.5433 H   0  0  0  0  0  0  0  0  0  0  0  0
  1  2  2  0
  2  3  1  0
  3  4  2  0
  4  5  1  0
  5  6  2  0
  6  7  1  0
  7  8  2  0
  8  9  1  0
  9 10  1  0
  9 11  2  0
 11 12  1  0
  6 13  1  0
 13 14  2  0
 14 15  1  0
 15 16  1  0
 16 17  1  0
 17 18  1  0
 18 19  1  0
 19 20  2  0
 20 21  1  0
 21 22  2  0
 22 23  1  0
 23 24  2  0
 17  2  1  0
 24 19  1  0
 14  3  1  0
  4 25  1  0
  5 26  1  0
  7 27  1  0
  8 28  1  0
 10 29  1  0
 12 30  1  0
 13 31  1  0
 15 32  1  0
 15 33  1  0
 16 34  1  0
 16 35  1  0
 18 36  1  0
 18 37  1  0
 20 38  1  0
 21 39  1  0
 22 40  1  0
 23 41  1  0
 24 42  1  0
M  END
>  <smiles>  (67) 
O=C1c2ccc(C=CC(O)=NO)cc2CCN1Cc1ccccc1

>  <score_type>  (67) 
oracle

>  <origin>  (67) 
adg

>  <m_score__min__energy>  (67) 
-9.5299999999999994

>  <m_primary>  (67) 
energy

$$$$
67:0
     RDKit          3D

 52 55  0  0  0  0  0  0  0  0999 V2000
   64.3230   32.2094   47.0168 H   0  0  0  0  0  0  0  0  0  0  0  0
   63.3110   32.3220   47.4330 C   0  0  0  0  0  0  0  0  0  0  0  0
   62.9300   31.5730   48.5470 C   0  0  0  0  0  0  0  0  0  0  0  0
   63.6460   30.8770   49.0084 H   0  0  0  0  0  0  0  0  0  0  0  0
   61.6380   31.7020   49.0830 C   0  0  0  0  0  0  0  0  0  0  0  0
   61.2410   30.9290   50.2810 C   0  0  0  0  0  0  0  0  0  0  0  0
   61.0530   31.5270   51.3750 O   0  0  0  0  0  0  0  0  0  0  0  0
   61.1020   29.4990   50.1940 N   0  0  0  0  0  0  0  0  0  0  0  0
   60.4880   28.8180   49.2720 C   0  0  0  0  0  0  0  0  0  0  0  0
   61.1340   27.9130   48.5070 N   0  0  0  0  0  0  0  0  0  0  0  0
   60.3110   27.3350   47.5880 C   0  0  0  0  0  0  0  0  0  0  0  0
   60.8300   26.3110   46.6290 C   0  0  0  0  0  0  0  0  0  0  0  0
   61.2578   25.4669   47.1899 H   0  0  0  0  0  0  0  0  0  0  0  0
   60.0058   25.9505   45.9960 H   0  0  0  0  0  0  0  0  0  0  0  0
   61.6081   26.7626   45.9960 H   0  0  0  0  0  0  0  0  0  0  0  0
   58.9810   27.7880   47.6170 C   0  0  0  0  0  0  0  0  0  0  0  0
   57.8800   27.4070   46.7020 C   0  0  0  0  0  0  0  0  0  0  0  0
   57.8070   26.2270   46.2690 O   0  0  0  0  0  0  0  0  0  0  0  0
   56.9330   28.3710   46.2250 N   0  0  0  0  0  0  0  0  0  0  0  0
   57.1250   29.2740   45.1260 C   0  0  0  0  0  0  0  0  0  0  0  0
   58.3620   29.9110   44.9090 C   0  0  0  0  0  0  0  0  0  0  0  0
   59.2136   29.6939   45.5706 H   0  0  0  0  0  0  0  0  0  0  0  0
   58.5120   30.8190   43.8550 C   0  0  0  0  0  0  0  0  0  0  0  0
   59.4827   31.3076   43.6846 H   0  0  0  0  0  0  0  0  0  0  0  0
   57.4290   31.1060   43.0180 C   0  0  0  0  0  0  0  0  0  0  0  0
   57.6150   32.2500   41.6990 Cl  0  0  0  0  0  0  0  0  0  0  0  0
   56.1910   30.4870   43.2380 C   0  0  0  0  0  0  0  0  0  0  0  0
   55.3386   30.7157   42.5814 H   0  0  0  0  0  0  0  0  0  0  0  0
   56.0370   29.5780   44.2920 C   0  0  0  0  0  0  0  0  0  0  0  0
   54.8010   28.9720   44.5020 O   0  0  0  0  0  0  0  0  0  0  0  0
   58.8660   28.9550   48.8310 S   0  0  0  0  0  0  0  0  0  0  0  0
   60.7340   32.5980   48.4800 C   0  0  0  0  0  0  0  0  0  0  0  0
   59.7159   32.6949   48.8850 H   0  0  0  0  0  0  0  0  0  0  0  0
   61.1140   33.3720   47.3660 C   0  0  0  0  0  0  0  0  0  0  0  0
   60.1110   34.3140   46.7190 C   0  0  1  0  0  0  0  0  0  0  0  0
   60.5716   35.3126   46.6944 H   0  0  0  0  0  0  0  0  0  0  0  0
   59.8270   33.9430   45.2370 C   0  0  0  0  0  0  0  0  0  0  0  0
   60.0145   32.8682   45.0965 H   0  0  0  0  0  0  0  0  0  0  0  0
   60.4906   34.5460   44.5998 H   0  0  0  0  0  0  0  0  0  0  0  0
   58.4390   34.2370   44.8590 N   0  0  0  0  0  0  0  0  0  0  0  0
   58.2250   35.2400   45.0550 H   0  0  0  0  0  0  0  0  0  0  0  0
   57.5090   33.3900   45.6190 C   0  0  0  0  0  0  0  0  0  0  0  0
   57.6488   32.3462   45.3013 H   0  0  0  0  0  0  0  0  0  0  0  0
   56.4925   33.7551   45.4105 H   0  0  0  0  0  0  0  0  0  0  0  0
   57.7180   33.4690   47.1490 C   0  0  0  0  0  0  0  0  0  0  0  0
   57.9841   32.4669   47.5165 H   0  0  0  0  0  0  0  0  0  0  0  0
   56.7779   33.8369   47.5859 H   0  0  0  0  0  0  0  0  0  0  0  0
   58.8240   34.4490   47.5650 C   0  0  0  0  0  0  0  0  0  0  0  0
   59.0778   34.2621   48.6189 H   0  0  0  0  0  0  0  0  0  0  0  0
   58.4350   35.4656   47.4062 H   0  0  0  0  0  0  0  0  0  0  0  0
   62.4110   33.2150   46.8440 C   0  0  0  0  0  0  0  0  0  0  0  0
   62.7195   33.7999   45.9650 H   0  0  0  0  0  0  0  0  0  0  0  0
  1  2  1  0
  2  3  2  0
  3  4  1  0
  3  5  1  0
  5  6  1  0
  6  7  2  0
  6  8  1  0
  8  9  2  0
  9 10  1  0
 10 11  1  0
 11 12  1  0
 12 13  1  0
 12 14  1  0
 12 15  1  0
 11 16  2  0
 16 17  1  0
 17 18  2  0
 17 19  1  0
 19 20  1  0
 20 21  2  0
 21 22  1  0
 21 23  1  0
 23 24  1  0
 23 25  2  0
 25 26  1  0
 25 27  1  0
 27 28  1  0
 27 29  2  0
 29 30  1  0
 16 31  1  0
  5 32  2  0
 32 33  1  0
 32 34  1  0
 34 35  1  0
 35 36  1  6
 35 37  1  0
 37 38  1  0
 37 39  1  0
 37 40  1  0
 40 41  1  0
 40 42  1  0
 42 43  1  0
 42 44  1  0
 42 45  1  0
 45 46  1  0
 45 47  1  0
 45 48  1  0
 48 49  1  0
 48 50  1  0
 34 51  2  0
 51 52  1  0
 51  2  1  0
 31  9  1  0
 48 35  1  0
 29 20  1  0
M  CHG  3  10  -1  19  -1  30  -1
M  END
>  <UniqueID>  (68) 
66

>  <SMILES>  (68) 
Cc1[n-]/c(=N/C(=O)c2cccc([C@@H]3CCCNC3)c2)sc1C(=O)[N-]c1ccc(Cl)cc1[O-]

>  <Energy>  (68) 
103.62902819186237

>  <Genealogy>  (68) 
Cc1[n-]c(=NC(=O)c2cccc(C3CCCNC3)c2)sc1C(=O)[N-]c1ccc(Cl)cc1[O-] (protonated)
Cc1[n-]c(=NC(=O)c2cccc([C@@H]3CCCNC3)c2)sc1C(=O)[N-]c1ccc(Cl)cc1[O-] (chirality)
Cc1[n-]/c(=N/C(=O)c2cccc([C@@H]3CCCNC3)c2)sc1C(=O)[N-]c1ccc(Cl)cc1[O-] (cis-trans isomerization)
Cc1[n-]/c(=N/C(=O)c2cccc([C@@H]3CCCNC3)c2)sc1C(=O)[N-]c1ccc(Cl)cc1[O-] (3D coordinates assigned)
Cc1[n-]/c(=N/C(=O)c2cccc([C@@H]3CCCNC3)c2)sc1C(=O)[N-]c1ccc(Cl)cc1[O-] (nonaromatic ring conformer: 103.62902819186237 kcal/mol)

>  <smiles>  (68) 
Cc1[nH]c(=NC(=O)c2cccc(C3CCCNC3)c2)sc1C(=O)Nc1ccc(Cl)cc1O

>  <score_type>  (68) 
oracle

>  <origin>  (68) 
adg

>  <m_score__min__energy>  (68) 
-16.68

>  <m_primary>  (68) 
energy

$$$$
68:0
     RDKit          3D

 44 46  0  0  1  0  0  0  0  0999 V2000
   64.1060   33.0060   46.7140 N   0  0  0  0  0  0  0  0  0  0  0  0
   63.0550   33.3740   47.3640 C   0  0  0  0  0  0  0  0  0  0  0  0
   63.0220   33.2780   48.6990 N   0  0  0  0  0  0  0  0  0  0  0  0
   61.9370   33.6560   49.4070 C   0  0  0  0  0  0  0  0  0  0  0  0
   60.8570   34.1470   48.6880 C   0  0  0  0  0  0  0  0  0  0  0  0
   60.8650   34.2560   47.3130 C   0  0  0  0  0  0  0  0  0  0  0  0
   59.8600   34.7140   46.6440 N   0  0  0  0  0  0  0  0  0  0  0  0
   58.5660   34.1500   46.9000 C   0  0  0  0  0  0  0  0  0  0  0  0
   58.2990   32.9310   46.1130 C   0  0  0  0  0  0  0  0  0  0  0  0
   59.1230   31.8130   46.2550 C   0  0  0  0  0  0  0  0  0  0  0  0
   58.9370   30.6570   45.5620 C   0  0  0  0  0  0  0  0  0  0  0  0
   57.8700   30.5700   44.6610 C   0  0  0  0  0  0  0  0  0  0  0  0
   57.7470   29.3270   43.9790 N   0  0  0  0  0  0  0  0  0  0  0  0
   57.6420   28.1590   44.7810 C   0  0  0  0  0  0  0  0  0  0  0  0
   57.6650   28.2970   46.0190 O   0  0  0  0  0  0  0  0  0  0  0  0
   57.5140   26.8520   44.2550 N   0  0  0  0  0  0  0  0  0  0  0  0
   57.4180   25.7620   45.1680 C   0  0  0  0  0  0  0  0  0  0  0  0
   58.1510   24.6140   44.8920 C   0  0  0  0  0  0  0  0  0  0  0  0
   58.1200   23.5080   45.7190 C   0  0  0  0  0  0  0  0  0  0  0  0
   57.3300   23.5730   46.8440 C   0  0  0  0  0  0  0  0  0  0  0  0
   57.3090   22.4540   47.6660 O   0  0  0  0  0  0  0  0  0  0  0  0
   56.6020   24.7190   47.1160 C   0  0  0  0  0  0  0  0  0  0  0  0
   56.6230   25.8290   46.3000 C   0  0  0  0  0  0  0  0  0  0  0  0
   57.0410   31.6340   44.4900 C   0  0  0  0  0  0  0  0  0  0  0  0
   57.2630   32.8060   45.2190 C   0  0  0  0  0  0  0  0  0  0  0  0
   61.9880   33.8580   46.6670 N   0  0  0  0  0  0  0  0  0  0  0  0
   64.7110   32.2820   47.1980 H   0  0  0  0  0  0  0  0  0  0  0  0
   63.8320   32.9080   49.2500 H   0  0  0  0  0  0  0  0  0  0  0  0
   61.9103   33.5783   50.5039 H   0  0  0  0  0  0  0  0  0  0  0  0
   59.9574   34.4623   49.2369 H   0  0  0  0  0  0  0  0  0  0  0  0
   58.4993   33.8981   47.9687 H   0  0  0  0  0  0  0  0  0  0  0  0
   57.8175   34.9004   46.6057 H   0  0  0  0  0  0  0  0  0  0  0  0
   59.9639   31.8695   46.9619 H   0  0  0  0  0  0  0  0  0  0  0  0
   59.6154   29.8035   45.7079 H   0  0  0  0  0  0  0  0  0  0  0  0
   57.7310   29.2390   42.9370 H   0  0  0  0  0  0  0  0  0  0  0  0
   57.4960   26.7360   43.2170 H   0  0  0  0  0  0  0  0  0  0  0  0
   58.7753   24.5852   43.9868 H   0  0  0  0  0  0  0  0  0  0  0  0
   58.7063   22.6068   45.4865 H   0  0  0  0  0  0  0  0  0  0  0  0
   57.7700   22.5450   48.5820 H   0  0  0  0  0  0  0  0  0  0  0  0
   55.9799   24.7443   48.0229 H   0  0  0  0  0  0  0  0  0  0  0  0
   56.0348   26.7278   46.5370 H   0  0  0  0  0  0  0  0  0  0  0  0
   56.2009   31.5730   43.7825 H   0  0  0  0  0  0  0  0  0  0  0  0
   56.5840   33.6588   45.0717 H   0  0  0  0  0  0  0  0  0  0  0  0
   62.0270   33.9270   45.6300 H   0  0  0  0  0  0  0  0  0  0  0  0
  1  2  2  3
  2  3  1  0
  3  4  1  0
  4  5  2  0
  5  6  1  0
  6  7  2  0
  7  8  1  0
  8  9  1  0
  9 10  2  0
 10 11  1  0
 11 12  2  0
 12 13  1  0
 13 14  1  0
 14 15  2  0
 14 16  1  0
 16 17  1  0
 17 18  2  0
 18 19  1  0
 19 20  2  0
 20 21  1  0
 20 22  1  0
 22 23  2  0
 12 24  1  0
 24 25  2  0
  6 26  1  0
 26  2  1  0
 25  9  1  0
 23 17  1  0
  1 27  1  0
  3 28  1  0
  4 29  1  0
  5 30  1  0
  8 31  1  0
  8 32  1  0
 10 33  1  0
 11 34  1  0
 13 35  1  0
 16 36  1  0
 18 37  1  0
 19 38  1  0
 21 39  1  0
 22 40  1  0
 23 41  1  0
 24 42  1  0
 25 43  1  0
 26 44  1  0
M  END
>  <smiles>  (69) 
N=c1[nH]ccc(=NCc2ccc(NC(=O)Nc3ccc(O)cc3)cc2)[nH]1

>  <score_type>  (69) 
oracle

>  <origin>  (69) 
adg

>  <m_score__min__energy>  (69) 
-7.8399999999999999

>  <m_primary>  (69) 
energy

$$$$
69:0
     RDKit          3D

 54 57  0  0  0  0  0  0  0  0999 V2000
   51.5220   32.5210   48.8470 H   0  0  0  0  0  0  0  0  0  0  0  0
   50.9510   32.2860   49.6890 N   0  0  0  0  0  0  0  0  0  0  0  0
   51.4850   31.9310   50.8150 C   0  0  0  0  0  0  0  0  0  0  0  0
   50.7720   32.0730   51.9640 N   0  0  0  0  0  0  0  0  0  0  0  0
   51.2770   31.7060   53.1690 C   0  0  0  0  0  0  0  0  0  0  0  0
   50.6719   31.8336   54.0787 H   0  0  0  0  0  0  0  0  0  0  0  0
   52.5620   31.1670   53.2580 C   0  0  0  0  0  0  0  0  0  0  0  0
   52.9659   30.8610   54.2343 H   0  0  0  0  0  0  0  0  0  0  0  0
   53.3370   31.0170   52.0960 C   0  0  0  0  0  0  0  0  0  0  0  0
   54.7020   30.4390   52.1850 C   0  0  0  0  0  0  0  0  0  0  0  0
   54.9310   29.3890   53.0200 N   0  0  0  0  0  0  0  0  0  0  0  0
   56.1670   28.8390   53.1490 C   0  0  0  0  0  0  0  0  0  0  0  0
   56.3680   27.6640   54.0460 C   0  0  0  0  0  0  0  0  0  0  0  0
   56.3123   27.9899   55.0952 H   0  0  0  0  0  0  0  0  0  0  0  0
   55.5847   26.9164   53.8521 H   0  0  0  0  0  0  0  0  0  0  0  0
   57.3553   27.2193   53.8521 H   0  0  0  0  0  0  0  0  0  0  0  0
   57.2060   29.3310   52.4260 N   0  0  0  0  0  0  0  0  0  0  0  0
   57.0410   30.3790   51.5730 C   0  0  0  0  0  0  0  0  0  0  0  0
   58.1760   30.9000   50.8590 N   0  0  0  0  0  0  0  0  0  0  0  0
   59.4870   30.2420   50.9120 C   0  0  0  0  0  0  0  0  0  0  0  0
   60.2125   30.9166   51.3901 H   0  0  0  0  0  0  0  0  0  0  0  0
   59.3973   29.3122   51.4928 H   0  0  0  0  0  0  0  0  0  0  0  0
   59.9700   29.9010   49.4950 C   0  0  0  0  0  0  0  0  0  0  0  0
   61.0654   29.8028   49.5143 H   0  0  0  0  0  0  0  0  0  0  0  0
   59.4736   28.9650   49.1994 H   0  0  0  0  0  0  0  0  0  0  0  0
   59.5900   30.9760   48.4370 C   0  0  0  0  0  0  0  0  0  0  0  0
   60.5002   31.1623   47.8481 H   0  0  0  0  0  0  0  0  0  0  0  0
   58.5160   30.4800   47.5000 C   0  0  0  0  0  0  0  0  0  0  0  0
   58.2330   29.2500   47.4560 O   0  0  0  0  0  0  0  0  0  0  0  0
   57.7700   31.4260   46.7240 N   0  0  0  0  0  0  0  0  0  0  0  0
   57.8640   31.6350   45.3050 C   0  0  0  0  0  0  0  0  0  0  0  0
   58.4370   32.8170   44.7940 C   0  0  0  0  0  0  0  0  0  0  0  0
   58.8408   33.5701   45.4866 H   0  0  0  0  0  0  0  0  0  0  0  0
   58.4970   33.0410   43.4190 C   0  0  0  0  0  0  0  0  0  0  0  0
   58.9608   33.9605   43.0325 H   0  0  0  0  0  0  0  0  0  0  0  0
   57.9710   32.1030   42.5340 C   0  0  0  0  0  0  0  0  0  0  0  0
   58.0273   32.2798   41.4498 H   0  0  0  0  0  0  0  0  0  0  0  0
   57.3730   30.9400   43.0190 C   0  0  0  0  0  0  0  0  0  0  0  0
   56.9484   30.2120   42.3121 H   0  0  0  0  0  0  0  0  0  0  0  0
   57.3060   30.6860   44.4050 C   0  0  0  0  0  0  0  0  0  0  0  0
   56.6650   29.4280   44.8780 C   0  0  0  0  0  0  0  0  0  0  0  0
   57.3340   28.3680   44.9990 O   0  0  0  0  0  0  0  0  0  0  0  0
   55.2720   29.4010   45.1880 N   0  0  0  0  0  0  0  0  0  0  0  0
   54.5550   29.3140   44.4340 H   0  0  0  0  0  0  0  0  0  0  0  0
   59.1780   32.3190   49.0790 C   0  0  0  0  0  0  0  0  0  0  0  0
   60.0476   32.7458   49.6002 H   0  0  0  0  0  0  0  0  0  0  0  0
   58.8290   32.9873   48.2780 H   0  0  0  0  0  0  0  0  0  0  0  0
   58.0290   32.1430   50.0890 C   0  0  0  0  0  0  0  0  0  0  0  0
   58.0294   32.9961   50.7834 H   0  0  0  0  0  0  0  0  0  0  0  0
   57.0825   32.0938   49.5307 H   0  0  0  0  0  0  0  0  0  0  0  0
   55.7740   30.9680   51.4490 C   0  0  0  0  0  0  0  0  0  0  0  0
   55.6226   31.8317   50.7848 H   0  0  0  0  0  0  0  0  0  0  0  0
   52.7820   31.3970   50.8600 C   0  0  0  0  0  0  0  0  0  0  0  0
   53.3622   31.2760   49.9333 H   0  0  0  0  0  0  0  0  0  0  0  0
  1  2  1  0
  2  3  2  0
  3  4  1  0
  4  5  1  0
  5  6  1  0
  5  7  2  0
  7  8  1  0
  7  9  1  0
  9 10  1  0
 10 11  2  0
 11 12  1  0
 12 13  1  0
 13 14  1  0
 13 15  1  0
 13 16  1  0
 12 17  2  0
 17 18  1  0
 18 19  1  0
 19 20  1  0
 20 21  1  0
 20 22  1  0
 20 23  1  0
 23 24  1  0
 23 25  1  0
 23 26  1  0
 26 27  1  0
 26 28  1  0
 28 29  2  0
 28 30  1  0
 30 31  1  0
 31 32  2  0
 32 33  1  0
 32 34  1  0
 34 35  1  0
 34 36  2  0
 36 37  1  0
 36 38  1  0
 38 39  1  0
 38 40  2  0
 40 41  1  0
 41 42  2  0
 41 43  1  0
 43 44  1  0
 26 45  1  0
 45 46  1  0
 45 47  1  0
 45 48  1  0
 48 49  1  0
 48 50  1  0
 18 51  2  0
 51 52  1  0
  9 53  2  0
 53 54  1  0
 53  3  1  0
 51 10  1  0
 48 19  1  0
 40 31  1  0
M  CHG  3   4  -1  30  -1  43  -1
M  END
>  <UniqueID>  (70) 
67

>  <SMILES>  (70) 
[H]/N=c1\cc(-c2cc(N3CCC(C(=O)[N-]c4ccccc4C([NH-])=O)CC3)nc(C)n2)cc[n-]1

>  <Energy>  (70) 
73.50690415940876

>  <Genealogy>  (70) 
Cc1nc(-c2cc[n-]c(=N)c2)cc(N2CCC(C(=O)[N-]c3ccccc3C([NH-])=O)CC2)n1 (protonated)
[H]/N=c1\cc(-c2cc(N3CCC(C(=O)[N-]c4ccccc4C([NH-])=O)CC3)nc(C)n2)cc[n-]1 (cis-trans isomerization)
[H]/N=c1\cc(-c2cc(N3CCC(C(=O)[N-]c4ccccc4C([NH-])=O)CC3)nc(C)n2)cc[n-]1 (3D coordinates assigned)
[H]/N=c1\cc(-c2cc(N3CCC(C(=O)[N-]c4ccccc4C([NH-])=O)CC3)nc(C)n2)cc[n-]1 (nonaromatic ring conformer: 73.50690415940876 kcal/mol)

>  <smiles>  (70) 
Cc1nc(-c2cc[nH]c(=N)c2)cc(N2CCC(C(=O)Nc3ccccc3C(N)=O)CC2)n1

>  <score_type>  (70) 
oracle

>  <origin>  (70) 
adg

>  <m_score__min__energy>  (70) 
-16.219999999999999

>  <m_primary>  (70) 
energy

$$$$
70:0
     RDKit          3D

 44 46  0  0  0  0  0  0  0  0999 V2000
   61.0070   26.6990   47.6940 C   0  0  0  0  0  0  0  0  0  0  0  0
   60.5480   27.0220   46.3730 O   0  0  0  0  0  0  0  0  0  0  0  0
   59.2000   26.7380   46.0870 C   0  0  0  0  0  0  0  0  0  0  0  0
   58.2200   27.7020   46.2870 C   0  0  0  0  0  0  0  0  0  0  0  0
   58.6730   28.9880   46.7980 C   0  0  0  0  0  0  0  0  0  0  0  0
   58.8530   29.1680   48.1560 C   0  0  0  0  0  0  0  0  0  0  0  0
   59.2850   30.3920   48.6570 C   0  0  0  0  0  0  0  0  0  0  0  0
   59.5130   31.3840   47.7390 C   0  0  0  0  0  0  0  0  0  0  0  0
   59.3320   31.2040   46.3850 C   0  0  0  0  0  0  0  0  0  0  0  0
   58.9050   29.9950   45.8820 C   0  0  0  0  0  0  0  0  0  0  0  0
   58.7130   29.7830   44.4900 N   0  0  0  0  0  0  0  0  0  0  0  0
   57.2160   30.2060   43.6950 S   0  0  0  0  0  0  0  0  0  0  0  0
   57.4020   31.5960   42.6260 C   0  0  0  0  0  0  0  0  0  0  0  0
   56.7340   29.0160   42.8840 O   0  0  0  0  0  0  0  0  0  0  0  0
   56.1970   30.5290   44.7390 O   0  0  0  0  0  0  0  0  0  0  0  0
   56.9000   27.4190   46.0030 C   0  0  0  0  0  0  0  0  0  0  0  0
   56.5980   26.1550   45.5210 C   0  0  0  0  0  0  0  0  0  0  0  0
   57.5580   25.1850   45.3160 C   0  0  0  0  0  0  0  0  0  0  0  0
   57.2500   23.8530   44.8070 C   0  0  0  0  0  0  0  0  0  0  0  0
   56.1970   23.7040   43.9270 C   0  0  0  0  0  0  0  0  0  0  0  0
   55.9330   22.4640   43.4720 N   0  0  0  0  0  0  0  0  0  0  0  0
   56.6360   21.3900   43.8320 C   0  0  0  0  0  0  0  0  0  0  0  0
   56.2850   20.2510   43.3270 N   0  0  0  0  0  0  0  0  0  0  0  0
   57.6780   21.5050   44.6970 N   0  0  0  0  0  0  0  0  0  0  0  0
   57.9650   22.7260   45.1660 C   0  0  0  0  0  0  0  0  0  0  0  0
   58.8910   25.4730   45.6020 C   0  0  0  0  0  0  0  0  0  0  0  0
   59.8360   24.5210   45.4010 F   0  0  0  0  0  0  0  0  0  0  0  0
   60.3437   27.1658   48.4370 H   0  0  0  0  0  0  0  0  0  0  0  0
   60.9977   25.6073   47.8287 H   0  0  0  0  0  0  0  0  0  0  0  0
   62.0314   27.0763   47.8287 H   0  0  0  0  0  0  0  0  0  0  0  0
   58.6530   28.3361   48.8473 H   0  0  0  0  0  0  0  0  0  0  0  0
   59.4358   30.5552   49.7343 H   0  0  0  0  0  0  0  0  0  0  0  0
   59.8551   32.3657   48.0986 H   0  0  0  0  0  0  0  0  0  0  0  0
   59.5314   32.0379   45.6959 H   0  0  0  0  0  0  0  0  0  0  0  0
   59.4960   29.3630   43.9410 H   0  0  0  0  0  0  0  0  0  0  0  0
   57.5241   32.5082   43.2285 H   0  0  0  0  0  0  0  0  0  0  0  0
   58.2892   31.4543   41.9913 H   0  0  0  0  0  0  0  0  0  0  0  0
   56.5088   31.6926   41.9913 H   0  0  0  0  0  0  0  0  0  0  0  0
   56.1126   28.1721   46.1542 H   0  0  0  0  0  0  0  0  0  0  0  0
   55.5492   25.9150   45.2923 H   0  0  0  0  0  0  0  0  0  0  0  0
   55.5946   24.5676   43.6085 H   0  0  0  0  0  0  0  0  0  0  0  0
   57.0590   19.6150   43.0110 H   0  0  0  0  0  0  0  0  0  0  0  0
   58.2200   20.6370   44.9670 H   0  0  0  0  0  0  0  0  0  0  0  0
   58.8056   22.8367   45.8668 H   0  0  0  0  0  0  0  0  0  0  0  0
  1  2  1  0
  2  3  1  0
  3  4  2  0
  4  5  1  0
  5  6  2  0
  6  7  1  0
  7  8  2  0
  8  9  1  0
  9 10  2  0
 10 11  1  0
 11 12  1  0
 12 13  1  0
 12 14  2  0
 12 15  2  0
  4 16  1  0
 16 17  2  0
 17 18  1  0
 18 19  1  0
 19 20  1  0
 20 21  2  0
 21 22  1  0
 22 23  2  3
 22 24  1  0
 24 25  1  0
 18 26  2  0
 26 27  1  0
 26  3  1  0
 10  5  1  0
 25 19  2  0
  1 28  1  0
  1 29  1  0
  1 30  1  0
  6 31  1  0
  7 32  1  0
  8 33  1  0
  9 34  1  0
 11 35  1  0
 13 36  1  0
 13 37  1  0
 13 38  1  0
 16 39  1  0
 17 40  1  0
 20 41  1  0
 23 42  1  0
 24 43  1  0
 25 44  1  0
M  END
>  <smiles>  (71) 
COc1c(-c2ccccc2NS(C)(=O)=O)ccc(-c2cnc(=N)[nH]c2)c1F

>  <score_type>  (71) 
oracle

>  <origin>  (71) 
adg

>  <m_score__min__energy>  (71) 
-8.5899999999999999

>  <m_primary>  (71) 
energy

$$$$
71:0
     RDKit          3D

 50 53  0  0  0  0  0  0  0  0999 V2000
   54.0470   26.3260   46.3700 H   0  0  0  0  0  0  0  0  0  0  0  0
   55.0080   26.5370   46.1300 O   0  0  0  0  0  0  0  0  0  0  0  0
   56.0420   25.7000   46.5350 C   0  0  0  0  0  0  0  0  0  0  0  0
   55.8550   24.5210   47.1550 N   0  0  0  0  0  0  0  0  0  0  0  0
   57.1190   24.0990   47.3720 C   0  0  0  0  0  0  0  0  0  0  0  0
   57.3830   23.0110   47.9520 O   0  0  0  0  0  0  0  0  0  0  0  0
   58.0810   24.9380   46.9290 N   0  0  0  0  0  0  0  0  0  0  0  0
   57.3830   25.9460   46.3730 C   0  0  0  0  0  0  0  0  0  0  0  0
   57.9710   27.1990   45.8690 C   0  0  0  0  0  0  0  0  0  0  0  0
   57.8683   27.4074   44.7938 H   0  0  0  0  0  0  0  0  0  0  0  0
   58.6240   28.1110   46.6150 C   0  0  0  0  0  0  0  0  0  0  0  0
   58.1760   29.4090   46.7710 C   0  0  0  0  0  0  0  0  0  0  0  0
   57.3078   29.8671   46.2746 H   0  0  0  0  0  0  0  0  0  0  0  0
   59.0270   30.0200   47.6690 C   0  0  0  0  0  0  0  0  0  0  0  0
   58.9380   31.4390   48.0710 C   0  0  0  0  0  0  0  0  0  0  0  0
   58.9670   31.7110   49.3020 O   0  0  0  0  0  0  0  0  0  0  0  0
   58.7820   32.5000   47.1020 N   0  0  0  0  0  0  0  0  0  0  0  0
   58.1350   33.7610   47.5100 C   0  0  0  0  0  0  0  0  0  0  0  0
   57.0948   33.7661   47.1521 H   0  0  0  0  0  0  0  0  0  0  0  0
   58.1599   33.8338   48.6073 H   0  0  0  0  0  0  0  0  0  0  0  0
   58.8770   34.9630   46.9180 C   0  0  0  0  0  0  0  0  0  0  0  0
   58.2695   35.8684   47.0635 H   0  0  0  0  0  0  0  0  0  0  0  0
   59.8460   35.0640   47.4288 H   0  0  0  0  0  0  0  0  0  0  0  0
   59.1270   34.7690   45.4480 C   0  0  0  0  0  0  0  0  0  0  0  0
   59.6240   35.6720   44.7910 O   0  0  0  0  0  0  0  0  0  0  0  0
   58.7560   33.4700   44.7910 C   0  0  0  0  0  0  0  0  0  0  0  0
   57.6689   33.4431   44.6252 H   0  0  0  0  0  0  0  0  0  0  0  0
   59.2823   33.3889   43.8285 H   0  0  0  0  0  0  0  0  0  0  0  0
   59.1630   32.2920   45.6890 C   0  0  0  0  0  0  0  0  0  0  0  0
   58.6692   31.3806   45.3209 H   0  0  0  0  0  0  0  0  0  0  0  0
   60.2586   32.2029   45.6477 H   0  0  0  0  0  0  0  0  0  0  0  0
   60.0100   29.1670   48.0510 N   0  0  0  0  0  0  0  0  0  0  0  0
   61.1210   29.4850   48.9690 C   0  0  0  0  0  0  0  0  0  0  0  0
   60.7434   29.4702   50.0020 H   0  0  0  0  0  0  0  0  0  0  0  0
   61.9090   28.7316   48.8225 H   0  0  0  0  0  0  0  0  0  0  0  0
   61.7190   30.8490   48.6860 C   0  0  0  0  0  0  0  0  0  0  0  0
   62.0670   31.1860   47.3640 C   0  0  0  0  0  0  0  0  0  0  0  0
   61.9056   30.4575   46.5557 H   0  0  0  0  0  0  0  0  0  0  0  0
   62.6150   32.4360   47.0690 C   0  0  0  0  0  0  0  0  0  0  0  0
   62.8957   32.6821   46.0343 H   0  0  0  0  0  0  0  0  0  0  0  0
   62.8070   33.3730   48.0840 C   0  0  0  0  0  0  0  0  0  0  0  0
   63.2447   34.3548   47.8506 H   0  0  0  0  0  0  0  0  0  0  0  0
   62.4440   33.0650   49.3950 C   0  0  0  0  0  0  0  0  0  0  0  0
   62.5915   33.8090   50.1917 H   0  0  0  0  0  0  0  0  0  0  0  0
   61.8930   31.8150   49.7040 C   0  0  0  0  0  0  0  0  0  0  0  0
   61.3960   31.5230   51.3640 Cl  0  0  0  0  0  0  0  0  0  0  0  0
   59.8060   28.0100   47.3640 C   0  0  0  0  0  0  0  0  0  0  0  0
   60.7130   27.0250   47.2800 C   0  0  0  0  0  0  0  0  0  0  0  0
   61.6086   27.0461   47.9184 H   0  0  0  0  0  0  0  0  0  0  0  0
   60.5611   26.1963   46.5728 H   0  0  0  0  0  0  0  0  0  0  0  0
  1  2  1  0
  2  3  1  0
  3  4  1  0
  4  5  1  0
  5  6  2  0
  5  7  1  0
  7  8  1  0
  8  9  1  0
  9 10  1  0
  9 11  2  0
 11 12  1  0
 12 13  1  0
 12 14  2  0
 14 15  1  0
 15 16  2  0
 15 17  1  0
 17 18  1  0
 18 19  1  0
 18 20  1  0
 18 21  1  0
 21 22  1  0
 21 23  1  0
 21 24  1  0
 24 25  2  0
 24 26  1  0
 26 27  1  0
 26 28  1  0
 26 29  1  0
 29 30  1  0
 29 31  1  0
 14 32  1  0
 32 33  1  0
 33 34  1  0
 33 35  1  0
 33 36  1  0
 36 37  2  0
 37 38  1  0
 37 39  1  0
 39 40  1  0
 39 41  2  0
 41 42  1  0
 41 43  1  0
 43 44  1  0
 43 45  2  0
 45 46  1  0
 32 47  1  0
 47 48  2  0
 48 49  1  0
 48 50  1  0
  8  3  2  0
 47 11  1  0
 29 17  1  0
 45 36  1  0
M  CHG  2   4  -1   7  -1
M  END
>  <UniqueID>  (72) 
68

>  <SMILES>  (72) 
C=c1/c(=C\c2[n-]c(=O)[n-]c2O)cc(C(=O)N2CCC(=O)CC2)n1Cc1ccccc1Cl

>  <Energy>  (72) 
129.24459950795585

>  <Genealogy>  (72) 
C=c1c(=Cc2[n-]c(=O)[n-]c2O)cc(C(=O)N2CCC(=O)CC2)n1Cc1ccccc1Cl (protonated)
C=c1/c(=C\c2[n-]c(=O)[n-]c2O)cc(C(=O)N2CCC(=O)CC2)n1Cc1ccccc1Cl (cis-trans isomerization)
C=c1/c(=C\c2[n-]c(=O)[n-]c2O)cc(C(=O)N2CCC(=O)CC2)n1Cc1ccccc1Cl (3D coordinates assigned)
C=c1/c(=C\c2[n-]c(=O)[n-]c2O)cc(C(=O)N2CCC(=O)CC2)n1Cc1ccccc1Cl (nonaromatic ring conformer: 129.24459950795585 kcal/mol)

>  <smiles>  (72) 
C=c1c(=Cc2[nH]c(=O)[nH]c2O)cc(C(=O)N2CCC(=O)CC2)n1Cc1ccccc1Cl

>  <score_type>  (72) 
oracle

>  <origin>  (72) 
adg

>  <m_score__min__energy>  (72) 
-13.23

>  <m_primary>  (72) 
energy

$$$$
72:0
     RDKit          3D

 49 51  0  0  0  0  0  0  0  0999 V2000
   63.7290   33.4630   49.7570 C   0  0  0  0  0  0  0  0  0  0  0  0
   62.6990   33.7330   48.7000 C   0  0  0  0  0  0  0  0  0  0  0  0
   62.9810   33.4850   47.3480 C   0  0  0  0  0  0  0  0  0  0  0  0
   62.0070   33.7060   46.3720 C   0  0  0  0  0  0  0  0  0  0  0  0
   60.7360   34.1830   46.7320 C   0  0  0  0  0  0  0  0  0  0  0  0
   59.6970   34.4540   45.6740 C   0  0  0  0  0  0  0  0  0  0  0  0
   58.8410   33.2810   45.4510 N   0  0  0  0  0  0  0  0  0  0  0  0
   58.1620   33.0810   44.1650 C   0  0  0  0  0  0  0  0  0  0  0  0
   57.3480   31.8220   44.1990 C   0  0  0  0  0  0  0  0  0  0  0  0
   56.2750   31.7970   44.8630 O   0  0  0  0  0  0  0  0  0  0  0  0
   57.7880   30.6550   43.4870 N   0  0  0  0  0  0  0  0  0  0  0  0
   57.0580   29.3890   43.5130 C   0  0  0  0  0  0  0  0  0  0  0  0
   57.6790   28.4620   44.5110 C   0  0  0  0  0  0  0  0  0  0  0  0
   57.0620   27.9570   45.6440 C   0  0  0  0  0  0  0  0  0  0  0  0
   57.9150   27.1830   46.4380 C   0  0  0  0  0  0  0  0  0  0  0  0
   59.2000   27.0700   45.9280 C   0  0  0  0  0  0  0  0  0  0  0  0
   59.2770   27.9490   44.4980 S   0  0  0  0  0  0  0  0  0  0  0  0
   58.3720   32.5460   46.5920 C   0  0  0  0  0  0  0  0  0  0  0  0
   57.2990   32.8910   47.1580 O   0  0  0  0  0  0  0  0  0  0  0  0
   59.1470   31.4140   47.1260 C   0  0  0  0  0  0  0  0  0  0  0  0
   60.1410   30.7190   46.4490 C   0  0  0  0  0  0  0  0  0  0  0  0
   60.6810   29.6600   47.1880 C   0  0  0  0  0  0  0  0  0  0  0  0
   60.1170   29.5340   48.4530 C   0  0  0  0  0  0  0  0  0  0  0  0
   60.4180   28.4500   49.4340 C   0  0  0  0  0  0  0  0  0  0  0  0
   58.9220   30.7060   48.6370 S   0  0  0  0  0  0  0  0  0  0  0  0
   60.4470   34.4100   48.0890 C   0  0  0  0  0  0  0  0  0  0  0  0
   61.4200   34.1810   49.0660 C   0  0  0  0  0  0  0  0  0  0  0  0
   63.2740   33.5823   50.7513 H   0  0  0  0  0  0  0  0  0  0  0  0
   64.1064   32.4356   49.6473 H   0  0  0  0  0  0  0  0  0  0  0  0
   64.5618   34.1732   49.6473 H   0  0  0  0  0  0  0  0  0  0  0  0
   63.9745   33.1145   47.0554 H   0  0  0  0  0  0  0  0  0  0  0  0
   62.2366   33.5053   45.3151 H   0  0  0  0  0  0  0  0  0  0  0  0
   59.0701   35.2986   45.9959 H   0  0  0  0  0  0  0  0  0  0  0  0
   60.2147   34.6891   44.7323 H   0  0  0  0  0  0  0  0  0  0  0  0
   57.4996   33.9366   43.9670 H   0  0  0  0  0  0  0  0  0  0  0  0
   58.9173   32.9985   43.3695 H   0  0  0  0  0  0  0  0  0  0  0  0
   58.6830   30.6960   42.9510 H   0  0  0  0  0  0  0  0  0  0  0  0
   56.0110   29.5776   43.7928 H   0  0  0  0  0  0  0  0  0  0  0  0
   57.0994   28.9270   42.5156 H   0  0  0  0  0  0  0  0  0  0  0  0
   56.0075   28.1456   45.8941 H   0  0  0  0  0  0  0  0  0  0  0  0
   57.5967   26.7087   47.3781 H   0  0  0  0  0  0  0  0  0  0  0  0
   60.0262   26.5028   46.3815 H   0  0  0  0  0  0  0  0  0  0  0  0
   60.4714   30.9757   45.4317 H   0  0  0  0  0  0  0  0  0  0  0  0
   61.4706   28.9955   46.8072 H   0  0  0  0  0  0  0  0  0  0  0  0
   60.3096   28.8405   50.4566 H   0  0  0  0  0  0  0  0  0  0  0  0
   59.7177   27.6150   49.2842 H   0  0  0  0  0  0  0  0  0  0  0  0
   61.4485   28.0956   49.2842 H   0  0  0  0  0  0  0  0  0  0  0  0
   59.4500   34.7697   48.3834 H   0  0  0  0  0  0  0  0  0  0  0  0
   61.1825   34.3526   50.1263 H   0  0  0  0  0  0  0  0  0  0  0  0
  1  2  1  0
  2  3  2  0
  3  4  1  0
  4  5  2  0
  5  6  1  0
  6  7  1  0
  7  8  1  0
  8  9  1  0
  9 10  2  0
  9 11  1  0
 11 12  1  0
 12 13  1  0
 13 14  2  0
 14 15  1  0
 15 16  2  0
 16 17  1  0
  7 18  1  0
 18 19  2  0
 18 20  1  0
 20 21  2  0
 21 22  1  0
 22 23  2  0
 23 24  1  0
 23 25  1  0
  5 26  1  0
 26 27  2  0
 27  2  1  0
 17 13  1  0
 25 20  1  0
  1 28  1  0
  1 29  1  0
  1 30  1  0
  3 31  1  0
  4 32  1  0
  6 33  1  0
  6 34  1  0
  8 35  1  0
  8 36  1  0
 11 37  1  0
 12 38  1  0
 12 39  1  0
 14 40  1  0
 15 41  1  0
 16 42  1  0
 21 43  1  0
 22 44  1  0
 24 45  1  0
 24 46  1  0
 24 47  1  0
 26 48  1  0
 27 49  1  0
M  END
>  <UniqueID>  (73) 
69

>  <SMILES>  (73) 
Cc1ccc(CN(CC(=O)NCc2cccs2)C(=O)c2ccc(C)s2)cc1

>  <Energy>  (73) 
93.6303377233171

>  <Genealogy>  (73) 
Cc1ccc(CN(CC(=O)NCc2cccs2)C(=O)c2ccc(C)s2)cc1 (3D coordinates assigned)
Cc1ccc(CN(CC(=O)NCc2cccs2)C(=O)c2ccc(C)s2)cc1 (optimized conformer: 93.6303377233171 kcal/mol)

>  <smiles>  (73) 
Cc1ccc(CN(CC(=O)NCc2cccs2)C(=O)c2ccc(C)s2)cc1

>  <score_type>  (73) 
oracle

>  <origin>  (73) 
adg

>  <m_score__min__energy>  (73) 
-8.3699999999999992

>  <m_primary>  (73) 
energy

$$$$
73:0
     RDKit          3D

 56 59  0  0  0  0  0  0  0  0999 V2000
   51.4970   23.3430   45.5940 C   0  0  0  0  0  0  0  0  0  0  0  0
   53.0050   23.3360   45.8310 C   0  0  0  0  0  0  0  0  0  0  0  0
   53.7540   23.9970   44.6690 C   0  0  0  0  0  0  0  0  0  0  0  0
   55.1990   24.0790   44.9710 N   0  0  0  0  0  0  0  0  0  0  0  0
   55.6920   25.1640   45.6380 C   0  0  0  0  0  0  0  0  0  0  0  0
   54.9250   26.1050   45.9880 O   0  0  0  0  0  0  0  0  0  0  0  0
   57.0470   25.2440   45.9400 C   0  0  0  0  0  0  0  0  0  0  0  0
   57.5270   26.3360   46.5920 N   0  0  0  0  0  0  0  0  0  0  0  0
   58.8390   26.4600   46.9050 C   0  0  0  0  0  0  0  0  0  0  0  0
   59.3330   27.6650   47.6170 C   0  0  0  0  0  0  0  0  0  0  0  0
   58.8820   28.9480   47.2550 C   0  0  0  0  0  0  0  0  0  0  0  0
   59.3470   30.0820   47.9280 C   0  0  0  0  0  0  0  0  0  0  0  0
   60.2810   29.9560   48.9660 C   0  0  0  0  0  0  0  0  0  0  0  0
   60.7510   31.1740   49.7130 C   0  0  0  0  0  0  0  0  0  0  0  0
   60.8660   32.3030   48.7880 N   0  0  0  0  0  0  0  0  0  0  0  0
   59.4300   33.2770   48.8670 S   0  0  0  0  0  0  0  0  0  0  0  0
   58.3830   32.5630   49.6790 O   0  0  0  0  0  0  0  0  0  0  0  0
   59.7500   34.5780   49.5460 O   0  0  0  0  0  0  0  0  0  0  0  0
   58.8190   33.6070   47.2440 C   0  0  0  0  0  0  0  0  0  0  0  0
   57.5160   33.2260   46.8880 C   0  0  0  0  0  0  0  0  0  0  0  0
   57.0400   33.4700   45.5970 C   0  0  0  0  0  0  0  0  0  0  0  0
   57.8620   34.0900   44.6530 C   0  0  0  0  0  0  0  0  0  0  0  0
   59.1630   34.4650   44.9970 C   0  0  0  0  0  0  0  0  0  0  0  0
   59.6440   34.2240   46.2890 C   0  0  0  0  0  0  0  0  0  0  0  0
   60.9140   34.5850   46.6030 F   0  0  0  0  0  0  0  0  0  0  0  0
   60.7220   28.6800   49.3430 C   0  0  0  0  0  0  0  0  0  0  0  0
   60.2580   27.5440   48.6730 C   0  0  0  0  0  0  0  0  0  0  0  0
   59.6970   25.4670   46.5580 N   0  0  0  0  0  0  0  0  0  0  0  0
   59.2820   24.3510   45.9080 C   0  0  0  0  0  0  0  0  0  0  0  0
   60.1470   23.4830   45.6240 O   0  0  0  0  0  0  0  0  0  0  0  0
   57.9060   24.1920   45.5680 C   0  0  0  0  0  0  0  0  0  0  0  0
   57.3810   23.0890   44.9160 N   0  0  0  0  0  0  0  0  0  0  0  0
   58.2360   21.9500   44.5180 C   0  0  0  0  0  0  0  0  0  0  0  0
   56.0320   23.0410   44.6320 C   0  0  0  0  0  0  0  0  0  0  0  0
   55.5460   22.0280   44.0520 O   0  0  0  0  0  0  0  0  0  0  0  0
   50.9738   23.3454   46.5616 H   0  0  0  0  0  0  0  0  0  0  0  0
   51.2195   24.2424   45.0248 H   0  0  0  0  0  0  0  0  0  0  0  0
   51.2111   22.4462   45.0248 H   0  0  0  0  0  0  0  0  0  0  0  0
   53.2246   23.8859   46.7580 H   0  0  0  0  0  0  0  0  0  0  0  0
   53.3393   22.2910   45.9101 H   0  0  0  0  0  0  0  0  0  0  0  0
   53.6072   23.4006   43.7565 H   0  0  0  0  0  0  0  0  0  0  0  0
   53.3608   25.0137   44.5217 H   0  0  0  0  0  0  0  0  0  0  0  0
   58.1571   29.0597   46.4352 H   0  0  0  0  0  0  0  0  0  0  0  0
   58.9782   31.0780   47.6416 H   0  0  0  0  0  0  0  0  0  0  0  0
   60.0270   31.4207   50.5036 H   0  0  0  0  0  0  0  0  0  0  0  0
   61.7332   30.9696   50.1641 H   0  0  0  0  0  0  0  0  0  0  0  0
   60.9210   31.9220   47.8150 H   0  0  0  0  0  0  0  0  0  0  0  0
   56.8674   32.7337   47.6276 H   0  0  0  0  0  0  0  0  0  0  0  0
   56.0166   33.1734   45.3238 H   0  0  0  0  0  0  0  0  0  0  0  0
   57.4846   34.2831   43.6380 H   0  0  0  0  0  0  0  0  0  0  0  0
   59.8101   34.9503   44.2515 H   0  0  0  0  0  0  0  0  0  0  0  0
   61.4377   28.5717   50.1713 H   0  0  0  0  0  0  0  0  0  0  0  0
   60.6177   26.5485   48.9724 H   0  0  0  0  0  0  0  0  0  0  0  0
   58.6156   21.4444   45.4181 H   0  0  0  0  0  0  0  0  0  0  0  0
   57.6459   21.2400   43.9199 H   0  0  0  0  0  0  0  0  0  0  0  0
   59.0825   22.3184   43.9199 H   0  0  0  0  0  0  0  0  0  0  0  0
  1  2  1  0
  2  3  1  0
  3  4  1  0
  4  5  1  0
  5  6  2  0
  5  7  1  0
  7  8  1  0
  8  9  2  0
  9 10  1  0
 10 11  2  0
 11 12  1  0
 12 13  2  0
 13 14  1  0
 14 15  1  0
 15 16  1  0
 16 17  2  0
 16 18  2  0
 16 19  1  0
 19 20  2  0
 20 21  1  0
 21 22  2  0
 22 23  1  0
 23 24  2  0
 24 25  1  0
 13 26  1  0
 26 27  2  0
  9 28  1  0
 28 29  1  0
 29 30  2  0
 29 31  1  0
 31 32  1  0
 32 33  1  0
 32 34  1  0
 34 35  2  0
 34  4  1  0
 31  7  2  0
 27 10  1  0
 24 19  1  0
  1 36  1  0
  1 37  1  0
  1 38  1  0
  2 39  1  0
  2 40  1  0
  3 41  1  0
  3 42  1  0
 11 43  1  0
 12 44  1  0
 14 45  1  0
 14 46  1  0
 15 47  1  0
 20 48  1  0
 21 49  1  0
 22 50  1  0
 23 51  1  0
 26 52  1  0
 27 53  1  0
 33 54  1  0
 33 55  1  0
 33 56  1  0
M  CHG  1  28  -1
M  END
>  <UniqueID>  (74) 
70

>  <SMILES>  (74) 
CCCn1c(=O)c2nc(-c3ccc(CNS(=O)(=O)c4ccccc4F)cc3)[n-]c(=O)c2n(C)c1=O

>  <Energy>  (74) 
72.98414306799197

>  <Genealogy>  (74) 
CCCn1c(=O)c2nc(-c3ccc(CNS(=O)(=O)c4ccccc4F)cc3)[n-]c(=O)c2n(C)c1=O (protonated)
CCCn1c(=O)c2nc(-c3ccc(CNS(=O)(=O)c4ccccc4F)cc3)[n-]c(=O)c2n(C)c1=O (3D coordinates assigned)
CCCn1c(=O)c2nc(-c3ccc(CNS(=O)(=O)c4ccccc4F)cc3)[n-]c(=O)c2n(C)c1=O (optimized conformer: 72.98414306799197 kcal/mol)

>  <smiles>  (74) 
CCCn1c(=O)c2nc(-c3ccc(CNS(=O)(=O)c4ccccc4F)cc3)[nH]c(=O)c2n(C)c1=O

>  <score_type>  (74) 
oracle

>  <origin>  (74) 
adg

>  <m_score__min__energy>  (74) 
-10.73

>  <m_primary>  (74) 
energy

$$$$
74:0
     RDKit          3D

 36 39  0  0  0  0  0  0  0  0999 V2000
   58.5970   34.8580   46.0060 O   0  0  0  0  0  0  0  0  0  0  0  0
   59.0520   33.7770   46.4670 C   0  0  0  0  0  0  0  0  0  0  0  0
   58.2270   32.5290   46.2940 C   0  0  0  0  0  0  0  0  0  0  0  0
   57.6110   32.3680   44.5800 S   0  0  0  0  0  0  0  0  0  0  0  0
   56.9580   30.7170   44.8100 C   0  0  0  0  0  0  0  0  0  0  0  0
   57.6980   29.6820   45.2480 N   0  0  0  0  0  0  0  0  0  0  0  0
   56.8000   28.6760   45.2400 C   0  0  0  0  0  0  0  0  0  0  0  0
   57.1270   27.2830   45.6320 C   0  0  0  0  0  0  0  0  0  0  0  0
   58.4720   26.8670   45.6460 C   0  0  0  0  0  0  0  0  0  0  0  0
   58.8090   25.5590   46.0060 C   0  0  0  0  0  0  0  0  0  0  0  0
   57.8110   24.6500   46.3570 C   0  0  0  0  0  0  0  0  0  0  0  0
   56.4730   25.0470   46.3490 C   0  0  0  0  0  0  0  0  0  0  0  0
   56.1230   26.3540   45.9910 C   0  0  0  0  0  0  0  0  0  0  0  0
   54.7800   26.7120   45.9970 O   0  0  0  0  0  0  0  0  0  0  0  0
   55.5860   29.0850   44.8240 N   0  0  0  0  0  0  0  0  0  0  0  0
   55.6850   30.3750   44.5520 N   0  0  0  0  0  0  0  0  0  0  0  0
   60.3840   33.7710   47.1300 C   0  0  0  0  0  0  0  0  0  0  0  0
   61.5860   33.5970   46.3850 C   0  0  0  0  0  0  0  0  0  0  0  0
   62.8370   33.6020   47.0270 C   0  0  0  0  0  0  0  0  0  0  0  0
   62.8610   33.7810   48.4060 C   0  0  0  0  0  0  0  0  0  0  0  0
   61.7260   33.9450   49.1270 C   0  0  0  0  0  0  0  0  0  0  0  0
   60.4680   33.9460   48.5340 C   0  0  0  0  0  0  0  0  0  0  0  0
   62.0480   34.1020   50.4610 O   0  0  0  0  0  0  0  0  0  0  0  0
   63.4750   34.0300   50.5840 C   0  0  0  0  0  0  0  0  0  0  0  0
   63.9550   33.8240   49.2480 O   0  0  0  0  0  0  0  0  0  0  0  0
   58.8478   31.6535   46.5348 H   0  0  0  0  0  0  0  0  0  0  0  0
   57.3604   32.5908   46.9687 H   0  0  0  0  0  0  0  0  0  0  0  0
   59.2651   27.5779   45.3711 H   0  0  0  0  0  0  0  0  0  0  0  0
   59.8635   25.2459   46.0125 H   0  0  0  0  0  0  0  0  0  0  0  0
   58.0782   23.6211   46.6399 H   0  0  0  0  0  0  0  0  0  0  0  0
   55.6882   24.3278   46.6260 H   0  0  0  0  0  0  0  0  0  0  0  0
   61.5347   33.4572   45.2951 H   0  0  0  0  0  0  0  0  0  0  0  0
   63.7678   33.4685   46.4562 H   0  0  0  0  0  0  0  0  0  0  0  0
   59.5598   34.0794   49.1402 H   0  0  0  0  0  0  0  0  0  0  0  0
   63.8748   34.9675   50.9978 H   0  0  0  0  0  0  0  0  0  0  0  0
   63.7901   33.2248   51.2640 H   0  0  0  0  0  0  0  0  0  0  0  0
  1  2  2  0
  2  3  1  0
  3  4  1  0
  4  5  1  0
  5  6  2  0
  6  7  1  0
  7  8  1  0
  8  9  2  0
  9 10  1  0
 10 11  2  0
 11 12  1  0
 12 13  2  0
 13 14  1  0
  7 15  2  0
 15 16  1  0
  2 17  1  0
 17 18  2  0
 18 19  1  0
 19 20  2  0
 20 21  1  0
 21 22  2  0
 21 23  1  0
 23 24  1  0
 24 25  1  0
 16  5  1  0
 22 17  1  0
 13  8  1  0
 25 20  1  0
  3 26  1  0
  3 27  1  0
  9 28  1  0
 10 29  1  0
 11 30  1  0
 12 31  1  0
 18 32  1  0
 19 33  1  0
 22 34  1  0
 24 35  1  0
 24 36  1  0
M  CHG  2  14  -1  16  -1
M  END
>  <UniqueID>  (75) 
71

>  <SMILES>  (75) 
O=C(CSc1nc(-c2ccccc2[O-])n[n-]1)c1ccc2c(c1)OCO2

>  <Energy>  (75) 
99.37750246637479

>  <Genealogy>  (75) 
O=C(CSc1nc(-c2ccccc2[O-])n[n-]1)c1ccc2c(c1)OCO2 (protonated)
O=C(CSc1nc(-c2ccccc2[O-])n[n-]1)c1ccc2c(c1)OCO2 (3D coordinates assigned)
O=C(CSc1nc(-c2ccccc2[O-])n[n-]1)c1ccc2c(c1)OCO2 (nonaromatic ring conformer: 99.37750246637479 kcal/mol)

>  <smiles>  (75) 
O=C(CSc1nc(-c2ccccc2O)n[nH]1)c1ccc2c(c1)OCO2

>  <score_type>  (75) 
oracle

>  <origin>  (75) 
adg

>  <m_score__min__energy>  (75) 
-14.859999999999999

>  <m_primary>  (75) 
energy

$$$$
75:0
     RDKit          3D

 51 54  0  0  0  0  0  0  0  0999 V2000
   60.1170   29.6210   46.9550 C   0  0  0  0  0  0  0  0  0  0  0  0
   59.1450   30.1530   46.1980 C   0  0  0  0  0  0  0  0  0  0  0  0
   58.4160   29.5180   45.1810 C   0  0  0  0  0  0  0  0  0  0  0  0
   58.3580   28.2250   44.8080 C   0  0  0  0  0  0  0  0  0  0  0  0
   57.5170   27.1840   45.4320 C   0  0  0  0  0  0  0  0  0  0  0  0
   56.1380   27.3740   45.6080 C   0  0  0  0  0  0  0  0  0  0  0  0
   55.5330   28.5710   45.2440 O   0  0  0  0  0  0  0  0  0  0  0  0
   55.3820   26.3780   46.1340 N   0  0  0  0  0  0  0  0  0  0  0  0
   55.9310   25.1880   46.4800 C   0  0  0  0  0  0  0  0  0  0  0  0
   55.2130   24.2820   46.9710 O   0  0  0  0  0  0  0  0  0  0  0  0
   57.2560   24.9710   46.2930 N   0  0  0  0  0  0  0  0  0  0  0  0
   58.0560   25.9340   45.7700 C   0  0  0  0  0  0  0  0  0  0  0  0
   59.2790   25.6960   45.6000 O   0  0  0  0  0  0  0  0  0  0  0  0
   57.6640   30.5090   44.5700 C   0  0  0  0  0  0  0  0  0  0  0  0
   57.9000   31.6780   45.2630 C   0  0  0  0  0  0  0  0  0  0  0  0
   57.2660   32.9980   44.9500 C   0  0  0  0  0  0  0  0  0  0  0  0
   58.8050   31.4670   46.2410 N   0  0  0  0  0  0  0  0  0  0  0  0
   59.2350   32.4420   47.2090 C   0  0  0  0  0  0  0  0  0  0  0  0
   58.8750   32.2880   48.5560 C   0  0  0  0  0  0  0  0  0  0  0  0
   59.2450   33.2440   49.5150 C   0  0  0  0  0  0  0  0  0  0  0  0
   58.8330   33.0630   50.9290 C   0  0  0  0  0  0  0  0  0  0  0  0
   59.3400   33.8200   51.8090 O   0  0  0  0  0  0  0  0  0  0  0  0
   57.8750   32.0470   51.3220 N   0  0  0  0  0  0  0  0  0  0  0  0
   57.4910   32.2220   52.7360 C   0  0  0  0  0  0  0  0  0  0  0  0
   56.4640   31.1470   53.1550 C   0  0  0  0  0  0  0  0  0  0  0  0
   56.4940   29.9900   52.3430 O   0  0  0  0  0  0  0  0  0  0  0  0
   57.8200   29.6450   52.0170 C   0  0  0  0  0  0  0  0  0  0  0  0
   58.4180   30.6900   51.0690 C   0  0  0  0  0  0  0  0  0  0  0  0
   59.9720   34.3730   49.1020 C   0  0  0  0  0  0  0  0  0  0  0  0
   60.3350   34.5280   47.7600 C   0  0  0  0  0  0  0  0  0  0  0  0
   59.9730   33.5660   46.8150 C   0  0  0  0  0  0  0  0  0  0  0  0
   60.3400   33.7270   45.5200 F   0  0  0  0  0  0  0  0  0  0  0  0
   60.6121   30.2323   47.7239 H   0  0  0  0  0  0  0  0  0  0  0  0
   60.4187   28.5736   46.8066 H   0  0  0  0  0  0  0  0  0  0  0  0
   58.9931   27.9175   43.9642 H   0  0  0  0  0  0  0  0  0  0  0  0
   57.0044   30.3865   43.6982 H   0  0  0  0  0  0  0  0  0  0  0  0
   57.0169   33.5166   45.8875 H   0  0  0  0  0  0  0  0  0  0  0  0
   57.9673   33.6124   44.3663 H   0  0  0  0  0  0  0  0  0  0  0  0
   56.3481   32.8347   44.3663 H   0  0  0  0  0  0  0  0  0  0  0  0
   58.2948   31.4060   48.8650 H   0  0  0  0  0  0  0  0  0  0  0  0
   56.9980   32.1640   50.7620 H   0  0  0  0  0  0  0  0  0  0  0  0
   58.3868   32.1326   53.3681 H   0  0  0  0  0  0  0  0  0  0  0  0
   57.0364   33.2159   52.8607 H   0  0  0  0  0  0  0  0  0  0  0  0
   56.6755   30.8494   54.1927 H   0  0  0  0  0  0  0  0  0  0  0  0
   55.4650   31.5939   53.0438 H   0  0  0  0  0  0  0  0  0  0  0  0
   58.4214   29.6019   52.9370 H   0  0  0  0  0  0  0  0  0  0  0  0
   57.8250   28.6635   51.5203 H   0  0  0  0  0  0  0  0  0  0  0  0
   59.5089   30.7126   51.2084 H   0  0  0  0  0  0  0  0  0  0  0  0
   58.1535   30.4052   50.0400 H   0  0  0  0  0  0  0  0  0  0  0  0
   60.2573   35.1392   49.8379 H   0  0  0  0  0  0  0  0  0  0  0  0
   60.9089   35.4128   47.4474 H   0  0  0  0  0  0  0  0  0  0  0  0
  1  2  2  0
  2  3  1  0
  3  4  2  3
  4  5  1  0
  5  6  2  0
  6  7  1  0
  6  8  1  0
  8  9  1  0
  9 10  2  0
  9 11  1  0
 11 12  1  0
 12 13  2  0
  3 14  1  0
 14 15  2  0
 15 16  1  0
 15 17  1  0
 17 18  1  0
 18 19  2  0
 19 20  1  0
 20 21  1  0
 21 22  2  0
 21 23  1  0
 23 24  1  0
 24 25  1  0
 25 26  1  0
 26 27  1  0
 27 28  1  0
 20 29  2  0
 29 30  1  0
 30 31  2  0
 31 32  1  0
 17  2  1  0
 31 18  1  0
 12  5  1  0
 28 23  1  0
  1 33  1  0
  1 34  1  0
  4 35  1  0
 14 36  1  0
 16 37  1  0
 16 38  1  0
 16 39  1  0
 19 40  1  0
 23 41  1  0
 24 42  1  0
 24 43  1  0
 25 44  1  0
 25 45  1  0
 27 46  1  0
 27 47  1  0
 28 48  1  0
 28 49  1  0
 29 50  1  0
 30 51  1  0
M  CHG  4   7  -1   8  -1  11  -1  23   1
M  END
>  <UniqueID>  (76) 
72

>  <SMILES>  (76) 
C=c1c(=Cc2c([O-])[n-]c(=O)[n-]c2=O)cc(C)n1-c1cc(C(=O)[NH+]2CCOCC2)ccc1F

>  <Energy>  (76) 
119.11379264904359

>  <Genealogy>  (76) 
C=c1c(=Cc2c([O-])[n-]c(=O)[n-]c2=O)cc(C)n1-c1cc(C(=O)[NH+]2CCOCC2)ccc1F (protonated)
C=c1c(=Cc2c([O-])[n-]c(=O)[n-]c2=O)cc(C)n1-c1cc(C(=O)[NH+]2CCOCC2)ccc1F (3D coordinates assigned)
C=c1c(=Cc2c([O-])[n-]c(=O)[n-]c2=O)cc(C)n1-c1cc(C(=O)[NH+]2CCOCC2)ccc1F (nonaromatic ring conformer: 119.11379264904359 kcal/mol)

>  <smiles>  (76) 
C=c1c(=Cc2c(O)[nH]c(=O)[nH]c2=O)cc(C)n1-c1cc(C(=O)N2CCOCC2)ccc1F

>  <score_type>  (76) 
oracle

>  <origin>  (76) 
adg

>  <m_score__min__energy>  (76) 
-15.449999999999999

>  <m_primary>  (76) 
energy

$$$$
76:0
     RDKit          3D

 45 47  0  0  0  0  0  0  0  0999 V2000
   56.8820   30.9040   51.7210 C   0  0  0  0  0  0  0  0  0  0  0  0
   58.2290   31.2490   51.2850 N   0  0  0  0  0  0  0  0  0  0  0  0
   59.0640   30.3940   50.7140 N   0  0  0  0  0  0  0  0  0  0  0  0
   60.1740   31.0890   50.3830 C   0  0  0  0  0  0  0  0  0  0  0  0
   61.2750   30.5260   49.6510 N   0  0  0  0  0  0  0  0  0  0  0  0
   61.3040   31.0250   48.2650 C   0  0  0  0  0  0  0  0  0  0  0  0
   60.0610   30.6290   47.5030 C   0  0  0  0  0  0  0  0  0  0  0  0
   59.5210   29.3500   47.6570 C   0  0  0  0  0  0  0  0  0  0  0  0
   58.4470   28.9420   46.8710 C   0  0  0  0  0  0  0  0  0  0  0  0
   57.8890   29.7980   45.9080 C   0  0  0  0  0  0  0  0  0  0  0  0
   56.5940   29.1420   44.8830 S   0  0  0  0  0  0  0  0  0  0  0  0
   57.1040   28.8210   43.5070 O   0  0  0  0  0  0  0  0  0  0  0  0
   55.5110   30.1760   44.7700 O   0  0  0  0  0  0  0  0  0  0  0  0
   55.9070   27.7140   45.6220 N   0  0  0  0  0  0  0  0  0  0  0  0
   56.7920   26.5510   45.8390 C   0  0  0  0  0  0  0  0  0  0  0  0
   57.7800   26.1700   44.7330 C   0  0  0  0  0  0  0  0  0  0  0  0
   57.1010   24.8080   44.6170 C   0  0  0  0  0  0  0  0  0  0  0  0
   56.0980   25.2020   45.7000 C   0  0  0  0  0  0  0  0  0  0  0  0
   58.3890   31.1260   45.7820 C   0  0  0  0  0  0  0  0  0  0  0  0
   57.8340   32.1200   44.7780 C   0  0  0  0  0  0  0  0  0  0  0  0
   57.6350   31.5290   43.5420 F   0  0  0  0  0  0  0  0  0  0  0  0
   56.6180   32.6000   45.2300 F   0  0  0  0  0  0  0  0  0  0  0  0
   58.7110   33.1730   44.5930 F   0  0  0  0  0  0  0  0  0  0  0  0
   59.4950   31.5070   46.5690 C   0  0  0  0  0  0  0  0  0  0  0  0
   60.0360   32.4280   50.7210 C   0  0  0  0  0  0  0  0  0  0  0  0
   58.7830   32.4760   51.2840 C   0  0  0  0  0  0  0  0  0  0  0  0
   58.2170   33.5140   51.7190 O   0  0  0  0  0  0  0  0  0  0  0  0
   56.8437   30.8942   52.8203 H   0  0  0  0  0  0  0  0  0  0  0  0
   56.1699   31.6488   51.3359 H   0  0  0  0  0  0  0  0  0  0  0  0
   56.6156   29.9086   51.3359 H   0  0  0  0  0  0  0  0  0  0  0  0
   61.1660   29.4860   49.6340 H   0  0  0  0  0  0  0  0  0  0  0  0
   62.1770   30.7520   50.1330 H   0  0  0  0  0  0  0  0  0  0  0  0
   61.3770   32.1224   48.2826 H   0  0  0  0  0  0  0  0  0  0  0  0
   62.1733   30.5804   47.7584 H   0  0  0  0  0  0  0  0  0  0  0  0
   59.9463   28.6622   48.4027 H   0  0  0  0  0  0  0  0  0  0  0  0
   58.0291   27.9335   47.0064 H   0  0  0  0  0  0  0  0  0  0  0  0
   57.2012   26.8981   46.7992 H   0  0  0  0  0  0  0  0  0  0  0  0
   57.7051   26.7902   43.8276 H   0  0  0  0  0  0  0  0  0  0  0  0
   58.8649   26.2447   44.8986 H   0  0  0  0  0  0  0  0  0  0  0  0
   56.6459   24.6174   43.6339 H   0  0  0  0  0  0  0  0  0  0  0  0
   57.6914   23.8856   44.7198 H   0  0  0  0  0  0  0  0  0  0  0  0
   55.0574   25.2648   45.3489 H   0  0  0  0  0  0  0  0  0  0  0  0
   55.9421   24.5594   46.5791 H   0  0  0  0  0  0  0  0  0  0  0  0
   59.9221   32.5134   46.4474 H   0  0  0  0  0  0  0  0  0  0  0  0
   60.7532   33.2491   50.5744 H   0  0  0  0  0  0  0  0  0  0  0  0
  1  2  1  0
  2  3  1  0
  3  4  1  0
  4  5  1  0
  5  6  1  0
  6  7  1  0
  7  8  2  0
  8  9  1  0
  9 10  2  0
 10 11  1  0
 11 12  2  0
 11 13  2  0
 11 14  1  0
 14 15  1  0
 15 16  1  0
 16 17  1  0
 17 18  1  0
 10 19  1  0
 19 20  1  0
 20 21  1  0
 20 22  1  0
 20 23  1  0
 19 24  2  0
  4 25  2  0
 25 26  1  0
 26 27  2  0
 26  2  1  0
 24  7  1  0
 18 15  1  0
  1 28  1  0
  1 29  1  0
  1 30  1  0
  5 31  1  0
  5 32  1  0
  6 33  1  0
  6 34  1  0
  8 35  1  0
  9 36  1  0
 15 37  1  0
 16 38  1  0
 16 39  1  0
 17 40  1  0
 17 41  1  0
 18 42  1  0
 18 43  1  0
 24 44  1  0
 25 45  1  0
M  CHG  3   3  -1   5   1  14  -1
M  END
>  <UniqueID>  (77) 
73

>  <SMILES>  (77) 
Cn1[n-]c([NH2+]Cc2ccc(S(=O)(=O)[N-]C3CCC3)c(C(F)(F)F)c2)cc1=O

>  <Energy>  (77) 
149.03460743256883

>  <Genealogy>  (77) 
Cn1[n-]c([NH2+]Cc2ccc(S(=O)(=O)[N-]C3CCC3)c(C(F)(F)F)c2)cc1=O (protonated)
Cn1[n-]c([NH2+]Cc2ccc(S(=O)(=O)[N-]C3CCC3)c(C(F)(F)F)c2)cc1=O (3D coordinates assigned)
Cn1[n-]c([NH2+]Cc2ccc(S(=O)(=O)[N-]C3CCC3)c(C(F)(F)F)c2)cc1=O (nonaromatic ring conformer: 149.03460743256883 kcal/mol)

>  <smiles>  (77) 
Cn1[nH]c(NCc2ccc(S(=O)(=O)NC3CCC3)c(C(F)(F)F)c2)cc1=O

>  <score_type>  (77) 
oracle

>  <origin>  (77) 
adg

>  <m_score__min__energy>  (77) 
-8.2799999999999994

>  <m_primary>  (77) 
energy

$$$$
77:0
     RDKit          3D

 62 65  0  0  0  0  0  0  0  0999 V2000
   58.4870   27.1450   54.0410 H   0  0  0  0  0  0  0  0  0  0  0  0
   58.1570   28.1020   54.1040 O   0  0  0  0  0  0  0  0  0  0  0  0
   58.2460   28.9760   53.0220 C   0  0  0  0  0  0  0  0  0  0  0  0
   59.3690   28.9620   52.1850 C   0  0  0  0  0  0  0  0  0  0  0  0
   60.1869   28.2516   52.3761 H   0  0  0  0  0  0  0  0  0  0  0  0
   59.4530   29.8480   51.1080 C   0  0  0  0  0  0  0  0  0  0  0  0
   60.3391   29.8332   50.4564 H   0  0  0  0  0  0  0  0  0  0  0  0
   58.4120   30.7590   50.8510 C   0  0  0  0  0  0  0  0  0  0  0  0
   58.5280   31.7380   49.7070 C   0  0  0  0  0  0  0  0  0  0  0  0
   58.5999   32.7584   50.1116 H   0  0  0  0  0  0  0  0  0  0  0  0
   57.6376   31.6409   49.0685 H   0  0  0  0  0  0  0  0  0  0  0  0
   59.7330   31.4530   48.8890 N   0  0  0  0  0  0  0  0  0  0  0  0
   60.9180   32.0400   49.2810 C   0  0  0  0  0  0  0  0  0  0  0  0
   60.9400   32.7870   50.3040 O   0  0  0  0  0  0  0  0  0  0  0  0
   62.0780   31.8320   48.5800 N   0  0  0  0  0  0  0  0  0  0  0  0
   63.3230   32.4900   49.0200 C   0  0  0  0  0  0  0  0  0  0  0  0
   63.3590   32.5090   50.1192 H   0  0  0  0  0  0  0  0  0  0  0  0
   64.1888   31.9317   48.6344 H   0  0  0  0  0  0  0  0  0  0  0  0
   63.3495   33.5199   48.6344 H   0  0  0  0  0  0  0  0  0  0  0  0
   62.0710   31.0840   47.4380 C   0  0  0  0  0  0  0  0  0  0  0  0
   63.1340   30.9380   46.7680 O   0  0  0  0  0  0  0  0  0  0  0  0
   60.8880   30.4770   46.9990 C   0  0  0  0  0  0  0  0  0  0  0  0
   60.8710   29.7000   45.8260 C   0  0  0  0  0  0  0  0  0  0  0  0
   61.7963   29.5713   45.2452 H   0  0  0  0  0  0  0  0  0  0  0  0
   59.6970   29.0930   45.3930 C   0  0  0  0  0  0  0  0  0  0  0  0
   59.6959   28.4995   44.4669 H   0  0  0  0  0  0  0  0  0  0  0  0
   58.5170   29.2350   46.1320 C   0  0  0  0  0  0  0  0  0  0  0  0
   57.2790   28.6270   45.7260 N   0  0  0  0  0  0  0  0  0  0  0  0
   56.3950   29.0520   44.6810 C   0  0  0  0  0  0  0  0  0  0  0  0
   55.1460   29.0170   44.8400 O   0  0  0  0  0  0  0  0  0  0  0  0
   56.9800   29.5210   43.4090 C   0  0  0  0  0  0  0  0  0  0  0  0
   57.3599   28.7536   42.7186 H   0  0  0  0  0  0  0  0  0  0  0  0
   57.0890   30.8010   43.0210 C   0  0  0  0  0  0  0  0  0  0  0  0
   56.7837   31.0417   41.9920 H   0  0  0  0  0  0  0  0  0  0  0  0
   57.5840   31.9160   43.8570 C   0  0  0  0  0  0  0  0  0  0  0  0
   57.0760   32.0780   45.1540 C   0  0  0  0  0  0  0  0  0  0  0  0
   56.3357   31.3639   45.5438 H   0  0  0  0  0  0  0  0  0  0  0  0
   57.5040   33.1410   45.9550 C   0  0  0  0  0  0  0  0  0  0  0  0
   57.1106   33.2496   46.9765 H   0  0  0  0  0  0  0  0  0  0  0  0
   58.4370   34.0740   45.4600 C   0  0  0  0  0  0  0  0  0  0  0  0
   58.9210   35.1480   46.2230 O   0  0  0  0  0  0  0  0  0  0  0  0
   60.0180   35.0980   47.1420 C   0  0  0  0  0  0  0  0  0  0  0  0
   60.4536   36.1011   47.2601 H   0  0  0  0  0  0  0  0  0  0  0  0
   61.1110   34.1600   46.6090 C   0  0  0  0  0  0  0  0  0  0  0  0
   61.6451   33.7016   47.4544 H   0  0  0  0  0  0  0  0  0  0  0  0
   60.6505   33.3717   45.9954 H   0  0  0  0  0  0  0  0  0  0  0  0
   61.8203   34.7348   45.9954 H   0  0  0  0  0  0  0  0  0  0  0  0
   59.5020   34.5980   48.4900 C   0  0  0  0  0  0  0  0  0  0  0  0
   60.0354   35.1149   49.3014 H   0  0  0  0  0  0  0  0  0  0  0  0
   58.4245   34.8046   48.5697 H   0  0  0  0  0  0  0  0  0  0  0  0
   59.6745   33.5145   48.5697 H   0  0  0  0  0  0  0  0  0  0  0  0
   58.9130   33.9290   44.1520 C   0  0  0  0  0  0  0  0  0  0  0  0
   59.6365   34.6549   43.7526 H   0  0  0  0  0  0  0  0  0  0  0  0
   58.4790   32.8720   43.3480 C   0  0  0  0  0  0  0  0  0  0  0  0
   58.8395   32.7879   42.3122 H   0  0  0  0  0  0  0  0  0  0  0  0
   58.5180   30.0360   47.2810 C   0  0  0  0  0  0  0  0  0  0  0  0
   57.5788   30.1789   47.8356 H   0  0  0  0  0  0  0  0  0  0  0  0
   59.7000   30.6680   47.7480 C   0  0  0  0  0  0  0  0  0  0  0  0
   57.2860   30.7620   51.6910 C   0  0  0  0  0  0  0  0  0  0  0  0
   56.4617   31.4644   51.4982 H   0  0  0  0  0  0  0  0  0  0  0  0
   57.2070   29.8770   52.7710 C   0  0  0  0  0  0  0  0  0  0  0  0
   56.3233   29.8899   53.4259 H   0  0  0  0  0  0  0  0  0  0  0  0
  1  2  1  0
  2  3  1  0
  3  4  2  0
  4  5  1  0
  4  6  1  0
  6  7  1  0
  6  8  2  0
  8  9  1  0
  9 10  1  0
  9 11  1  0
  9 12  1  0
 12 13  1  0
 13 14  2  0
 13 15  1  0
 15 16  1  0
 16 17  1  0
 16 18  1  0
 16 19  1  0
 15 20  1  0
 20 21  2  0
 20 22  1  0
 22 23  2  0
 23 24  1  0
 23 25  1  0
 25 26  1  0
 25 27  2  0
 27 28  1  0
 28 29  1  0
 29 30  2  0
 29 31  1  0
 31 32  1  0
 31 33  2  0
 33 34  1  0
 33 35  1  0
 35 36  2  0
 36 37  1  0
 36 38  1  0
 38 39  1  0
 38 40  2  0
 40 41  1  0
 41 42  1  0
 42 43  1  0
 42 44  1  0
 44 45  1  0
 44 46  1  0
 44 47  1  0
 42 48  1  0
 48 49  1  0
 48 50  1  0
 48 51  1  0
 40 52  1  0
 52 53  1  0
 52 54  2  0
 54 55  1  0
 27 56  1  0
 56 57  1  0
 56 58  2  0
  8 59  1  0
 59 60  1  0
 59 61  2  0
 61 62  1  0
 61  3  1  0
 58 12  1  0
 58 22  1  0
 54 35  1  0
M  CHG  1  28  -1
M  END
>  <UniqueID>  (78) 
74

>  <SMILES>  (78) 
CC(C)Oc1ccc(/C=C\C(=O)[N-]c2ccc3c(=O)n(C)c(=O)n(Cc4ccc(O)cc4)c3c2)cc1

>  <Energy>  (78) 
90.42181109660288

>  <Genealogy>  (78) 
CC(C)Oc1ccc(C=CC(=O)[N-]c2ccc3c(=O)n(C)c(=O)n(Cc4ccc(O)cc4)c3c2)cc1 (protonated)
CC(C)Oc1ccc(/C=C\C(=O)[N-]c2ccc3c(=O)n(C)c(=O)n(Cc4ccc(O)cc4)c3c2)cc1 (cis-trans isomerization)
CC(C)Oc1ccc(/C=C\C(=O)[N-]c2ccc3c(=O)n(C)c(=O)n(Cc4ccc(O)cc4)c3c2)cc1 (3D coordinates assigned)
CC(C)Oc1ccc(/C=C\C(=O)[N-]c2ccc3c(=O)n(C)c(=O)n(Cc4ccc(O)cc4)c3c2)cc1 (optimized conformer: 90.42181109660288 kcal/mol)

>  <smiles>  (78) 
CC(C)Oc1ccc(C=CC(=O)Nc2ccc3c(=O)n(C)c(=O)n(Cc4ccc(O)cc4)c3c2)cc1

>  <score_type>  (78) 
oracle

>  <origin>  (78) 
adg

>  <m_score__min__energy>  (78) 
-10.699999999999999

>  <m_primary>  (78) 
energy

$$$$
78:0
     RDKit          3D

 53 56  0  0  0  0  0  0  0  0999 V2000
   54.7610   28.9670   45.3070 H   0  0  0  0  0  0  0  0  0  0  0  0
   55.7170   28.6410   45.2410 O   0  0  0  0  0  0  0  0  0  0  0  0
   56.0550   27.3510   45.6360 C   0  0  0  0  0  0  0  0  0  0  0  0
   55.1600   26.4290   46.0280 N   0  0  0  0  0  0  0  0  0  0  0  0
   55.9370   25.3600   46.2970 C   0  0  0  0  0  0  0  0  0  0  0  0
   55.4680   24.2630   46.7000 O   0  0  0  0  0  0  0  0  0  0  0  0
   57.2580   25.5550   46.0960 N   0  0  0  0  0  0  0  0  0  0  0  0
   57.3290   26.8330   45.6820 C   0  0  0  0  0  0  0  0  0  0  0  0
   58.5590   27.5490   45.2770 C   0  0  0  0  0  0  0  0  0  0  0  0
   58.9261   27.3767   44.2545 H   0  0  0  0  0  0  0  0  0  0  0  0
   59.2710   28.3960   46.0530 C   0  0  0  0  0  0  0  0  0  0  0  0
   59.6240   29.7040   45.7550 C   0  0  0  0  0  0  0  0  0  0  0  0
   59.3736   30.2579   44.8382 H   0  0  0  0  0  0  0  0  0  0  0  0
   60.3480   30.1760   46.8270 C   0  0  0  0  0  0  0  0  0  0  0  0
   60.8760   31.5500   46.9220 C   0  0  0  0  0  0  0  0  0  0  0  0
   62.1080   31.7150   47.1350 O   0  0  0  0  0  0  0  0  0  0  0  0
   60.0190   32.6950   46.7380 N   0  0  0  0  0  0  0  0  0  0  0  0
   58.6140   32.6520   47.1790 C   0  0  0  0  0  0  0  0  0  0  0  0
   58.2159   31.6433   46.9945 H   0  0  0  0  0  0  0  0  0  0  0  0
   58.5892   32.9038   48.2495 H   0  0  0  0  0  0  0  0  0  0  0  0
   57.7320   33.6800   46.4300 C   0  0  0  0  0  0  0  0  0  0  0  0
   56.9549   33.1329   45.8762 H   0  0  0  0  0  0  0  0  0  0  0  0
   57.3094   34.3549   47.1889 H   0  0  0  0  0  0  0  0  0  0  0  0
   58.4510   34.4850   45.5140 O   0  0  0  0  0  0  0  0  0  0  0  0
   59.5690   35.0510   46.1570 C   0  0  0  0  0  0  0  0  0  0  0  0
   59.9785   35.8620   45.5369 H   0  0  0  0  0  0  0  0  0  0  0  0
   59.2672   35.4573   47.1336 H   0  0  0  0  0  0  0  0  0  0  0  0
   60.6320   33.9740   46.3560 C   0  0  0  0  0  0  0  0  0  0  0  0
   61.1888   33.8400   45.4168 H   0  0  0  0  0  0  0  0  0  0  0  0
   61.3086   34.2935   47.1623 H   0  0  0  0  0  0  0  0  0  0  0  0
   60.4760   29.2230   47.7800 N   0  0  0  0  0  0  0  0  0  0  0  0
   61.0710   29.4390   49.1110 C   0  0  0  0  0  0  0  0  0  0  0  0
   61.0019   28.5096   49.6953 H   0  0  0  0  0  0  0  0  0  0  0  0
   62.1253   29.7287   48.9907 H   0  0  0  0  0  0  0  0  0  0  0  0
   60.3380   30.5380   49.8350 C   0  0  0  0  0  0  0  0  0  0  0  0
   58.9360   30.5320   49.8950 C   0  0  0  0  0  0  0  0  0  0  0  0
   58.3732   29.6988   49.4489 H   0  0  0  0  0  0  0  0  0  0  0  0
   58.2510   31.5780   50.5180 C   0  0  0  0  0  0  0  0  0  0  0  0
   57.1520   31.5611   50.5612 H   0  0  0  0  0  0  0  0  0  0  0  0
   58.9520   32.6480   51.0880 C   0  0  0  0  0  0  0  0  0  0  0  0
   58.2170   33.6790   51.6930 O   0  0  0  0  0  0  0  0  0  0  0  0
   58.5700   34.2990   52.9270 C   0  0  0  0  0  0  0  0  0  0  0  0
   58.2166   33.6783   53.7635 H   0  0  0  0  0  0  0  0  0  0  0  0
   59.6634   34.4042   52.9849 H   0  0  0  0  0  0  0  0  0  0  0  0
   58.1024   35.2930   52.9849 H   0  0  0  0  0  0  0  0  0  0  0  0
   60.3600   32.6540   51.0340 C   0  0  0  0  0  0  0  0  0  0  0  0
   60.9224   33.4855   51.4837 H   0  0  0  0  0  0  0  0  0  0  0  0
   61.0440   31.6070   50.4110 C   0  0  0  0  0  0  0  0  0  0  0  0
   62.1432   31.6200   50.3713 H   0  0  0  0  0  0  0  0  0  0  0  0
   59.8090   28.1290   47.3210 C   0  0  0  0  0  0  0  0  0  0  0  0
   59.6710   26.9790   48.0060 C   0  0  0  0  0  0  0  0  0  0  0  0
   60.1345   26.8705   48.9977 H   0  0  0  0  0  0  0  0  0  0  0  0
   59.0947   26.1474   47.5743 H   0  0  0  0  0  0  0  0  0  0  0  0
  1  2  1  0
  2  3  1  0
  3  4  1  0
  4  5  1  0
  5  6  2  0
  5  7  1  0
  7  8  1  0
  8  9  1  0
  9 10  1  0
  9 11  2  0
 11 12  1  0
 12 13  1  0
 12 14  2  0
 14 15  1  0
 15 16  2  0
 15 17  1  0
 17 18  1  0
 18 19  1  0
 18 20  1  0
 18 21  1  0
 21 22  1  0
 21 23  1  0
 21 24  1  0
 24 25  1  0
 25 26  1  0
 25 27  1  0
 25 28  1  0
 28 29  1  0
 28 30  1  0
 14 31  1  0
 31 32  1  0
 32 33  1  0
 32 34  1  0
 32 35  1  0
 35 36  2  0
 36 37  1  0
 36 38  1  0
 38 39  1  0
 38 40  2  0
 40 41  1  0
 41 42  1  0
 42 43  1  0
 42 44  1  0
 42 45  1  0
 40 46  1  0
 46 47  1  0
 46 48  2  0
 48 49  1  0
 31 50  1  0
 50 51  2  0
 51 52  1  0
 51 53  1  0
  8  3  2  0
 50 11  1  0
 28 17  1  0
 48 35  1  0
M  CHG  2   4  -1   7  -1
M  END
>  <UniqueID>  (79) 
75

>  <SMILES>  (79) 
C=c1/c(=C/c2[n-]c(=O)[n-]c2O)cc(C(=O)N2CCOCC2)n1Cc1ccc(OC)cc1

>  <Energy>  (79) 
127.36713835370642

>  <Genealogy>  (79) 
C=c1c(=Cc2[n-]c(=O)[n-]c2O)cc(C(=O)N2CCOCC2)n1Cc1ccc(OC)cc1 (protonated)
C=c1/c(=C/c2[n-]c(=O)[n-]c2O)cc(C(=O)N2CCOCC2)n1Cc1ccc(OC)cc1 (cis-trans isomerization)
C=c1/c(=C/c2[n-]c(=O)[n-]c2O)cc(C(=O)N2CCOCC2)n1Cc1ccc(OC)cc1 (3D coordinates assigned)
C=c1/c(=C/c2[n-]c(=O)[n-]c2O)cc(C(=O)N2CCOCC2)n1Cc1ccc(OC)cc1 (nonaromatic ring conformer: 127.36713835370642 kcal/mol)

>  <smiles>  (79) 
C=c1c(=Cc2[nH]c(=O)[nH]c2O)cc(C(=O)N2CCOCC2)n1Cc1ccc(OC)cc1

>  <score_type>  (79) 
oracle

>  <origin>  (79) 
adg

>  <m_score__min__energy>  (79) 
-12.609999999999999

>  <m_primary>  (79) 
energy

$$$$
79:0
     RDKit          3D

 55 58  0  0  0  0  0  0  0  0999 V2000
   57.5236   27.5416   42.4858 H   0  0  0  0  0  0  0  0  0  0  0  0
   57.7630   27.3140   43.5350 C   0  0  0  0  0  0  0  0  0  0  0  0
   58.1343   26.3158   43.8104 H   0  0  0  0  0  0  0  0  0  0  0  0
   57.6020   28.2550   44.4800 C   0  0  0  0  0  0  0  0  0  0  0  0
   57.8610   28.1230   45.8540 C   0  0  0  0  0  0  0  0  0  0  0  0
   58.1310   27.0390   46.6030 C   0  0  0  0  0  0  0  0  0  0  0  0
   59.0875   27.0292   47.1461 H   0  0  0  0  0  0  0  0  0  0  0  0
   57.2570   25.8640   46.7590 C   0  0  0  0  0  0  0  0  0  0  0  0
   57.6850   24.6320   47.0990 N   0  0  0  0  0  0  0  0  0  0  0  0
   56.5750   23.8730   46.9790 C   0  0  0  0  0  0  0  0  0  0  0  0
   56.5680   22.6400   47.2300 O   0  0  0  0  0  0  0  0  0  0  0  0
   55.4800   24.5370   46.5610 N   0  0  0  0  0  0  0  0  0  0  0  0
   55.9340   25.7930   46.4150 C   0  0  0  0  0  0  0  0  0  0  0  0
   55.1520   26.8510   45.9780 O   0  0  0  0  0  0  0  0  0  0  0  0
   57.8070   29.4030   46.3800 C   0  0  0  0  0  0  0  0  0  0  0  0
   58.0009   29.6892   47.4243 H   0  0  0  0  0  0  0  0  0  0  0  0
   57.4640   30.2520   45.3470 C   0  0  0  0  0  0  0  0  0  0  0  0
   57.4100   31.7270   45.4690 C   0  0  0  0  0  0  0  0  0  0  0  0
   56.4990   32.3590   44.8710 O   0  0  0  0  0  0  0  0  0  0  0  0
   58.4070   32.4560   46.2130 N   0  0  0  0  0  0  0  0  0  0  0  0
   59.0760   31.8530   47.3790 C   0  0  0  0  0  0  0  0  0  0  0  0
   58.4663   31.0180   47.7545 H   0  0  0  0  0  0  0  0  0  0  0  0
   60.0679   31.4898   47.0720 H   0  0  0  0  0  0  0  0  0  0  0  0
   59.2510   32.8930   48.4950 C   0  0  0  0  0  0  0  0  0  0  0  0
   58.2609   33.1256   48.9140 H   0  0  0  0  0  0  0  0  0  0  0  0
   59.9261   32.4555   49.2452 H   0  0  0  0  0  0  0  0  0  0  0  0
   59.9030   34.2170   48.0050 C   0  0  0  0  0  0  0  0  0  0  0  0
   59.2037   35.0201   48.2806 H   0  0  0  0  0  0  0  0  0  0  0  0
   61.1730   34.5010   48.7050 N   0  0  0  0  0  0  0  0  0  0  0  0
   61.3640   35.5300   48.6420 H   0  0  0  0  0  0  0  0  0  0  0  0
   62.3400   33.7860   48.1660 C   0  0  0  0  0  0  0  0  0  0  0  0
   62.0227   32.8071   47.7773 H   0  0  0  0  0  0  0  0  0  0  0  0
   62.7878   34.3761   47.3529 H   0  0  0  0  0  0  0  0  0  0  0  0
   63.3530   33.5870   49.2560 C   0  0  0  0  0  0  0  0  0  0  0  0
   64.5140   32.8430   49.0050 C   0  0  0  0  0  0  0  0  0  0  0  0
   64.6949   32.4185   48.0064 H   0  0  0  0  0  0  0  0  0  0  0  0
   65.4370   32.6450   50.0290 C   0  0  0  0  0  0  0  0  0  0  0  0
   66.3525   32.0642   49.8433 H   0  0  0  0  0  0  0  0  0  0  0  0
   65.1950   33.1860   51.2890 C   0  0  0  0  0  0  0  0  0  0  0  0
   66.0860   33.0050   52.2900 F   0  0  0  0  0  0  0  0  0  0  0  0
   64.0250   33.9130   51.5100 C   0  0  0  0  0  0  0  0  0  0  0  0
   63.8256   34.3420   52.5031 H   0  0  0  0  0  0  0  0  0  0  0  0
   63.1310   34.0930   50.5030 N   0  0  0  0  0  0  0  0  0  0  0  0
   62.2600   34.6330   50.7010 H   0  0  0  0  0  0  0  0  0  0  0  0
   60.0310   34.3080   46.4650 C   0  0  0  0  0  0  0  0  0  0  0  0
   60.2196   35.3530   46.1781 H   0  0  0  0  0  0  0  0  0  0  0  0
   60.8651   33.6698   46.1379 H   0  0  0  0  0  0  0  0  0  0  0  0
   58.7430   33.8250   45.7930 C   0  0  0  0  0  0  0  0  0  0  0  0
   57.9187   34.4984   46.0707 H   0  0  0  0  0  0  0  0  0  0  0  0
   58.8952   33.8285   44.7036 H   0  0  0  0  0  0  0  0  0  0  0  0
   57.3140   29.5520   44.1960 N   0  0  0  0  0  0  0  0  0  0  0  0
   56.9810   30.1100   42.8770 C   0  0  0  0  0  0  0  0  0  0  0  0
   56.4212   31.0480   43.0064 H   0  0  0  0  0  0  0  0  0  0  0  0
   57.9076   30.3100   42.3189 H   0  0  0  0  0  0  0  0  0  0  0  0
   56.3651   29.3894   42.3189 H   0  0  0  0  0  0  0  0  0  0  0  0
  1  2  1  0
  2  3  1  0
  2  4  2  0
  4  5  1  0
  5  6  2  0
  6  7  1  0
  6  8  1  0
  8  9  1  0
  9 10  1  0
 10 11  2  0
 10 12  1  0
 12 13  1  0
 13 14  1  0
  5 15  1  0
 15 16  1  0
 15 17  2  0
 17 18  1  0
 18 19  2  0
 18 20  1  0
 20 21  1  0
 21 22  1  0
 21 23  1  0
 21 24  1  0
 24 25  1  0
 24 26  1  0
 24 27  1  0
 27 28  1  0
 27 29  1  0
 29 30  1  0
 29 31  1  0
 31 32  1  0
 31 33  1  0
 31 34  1  0
 34 35  2  0
 35 36  1  0
 35 37  1  0
 37 38  1  0
 37 39  2  0
 39 40  1  0
 39 41  1  0
 41 42  1  0
 41 43  2  0
 43 44  1  0
 27 45  1  0
 45 46  1  0
 45 47  1  0
 45 48  1  0
 48 49  1  0
 48 50  1  0
 17 51  1  0
 51 52  1  0
 52 53  1  0
 52 54  1  0
 52 55  1  0
 51  4  1  0
 13  8  2  0
 48 20  1  0
 43 34  1  0
M  CHG  4   9  -1  12  -1  14  -1  43   1
M  END
>  <UniqueID>  (80) 
76

>  <SMILES>  (80) 
C=c1/c(=C\c2[n-]c(=O)[n-]c2[O-])cc(C(=O)N2CCC(NCc3ccc(F)c[nH+]3)CC2)n1C

>  <Energy>  (80) 
136.49934564864293

>  <Genealogy>  (80) 
C=c1c(=Cc2[n-]c(=O)[n-]c2[O-])cc(C(=O)N2CCC(NCc3ccc(F)c[nH+]3)CC2)n1C (protonated)
C=c1/c(=C\c2[n-]c(=O)[n-]c2[O-])cc(C(=O)N2CCC(NCc3ccc(F)c[nH+]3)CC2)n1C (cis-trans isomerization)
C=c1/c(=C\c2[n-]c(=O)[n-]c2[O-])cc(C(=O)N2CCC(NCc3ccc(F)c[nH+]3)CC2)n1C (3D coordinates assigned)
C=c1/c(=C\c2[n-]c(=O)[n-]c2[O-])cc(C(=O)N2CCC(NCc3ccc(F)c[nH+]3)CC2)n1C (nonaromatic ring conformer: 136.49934564864293 kcal/mol)

>  <smiles>  (80) 
C=c1c(=Cc2[nH]c(=O)[nH]c2O)cc(C(=O)N2CCC(NCc3ccc(F)cn3)CC2)n1C

>  <score_type>  (80) 
oracle

>  <origin>  (80) 
adg

>  <m_score__min__energy>  (80) 
-16.32

>  <m_primary>  (80) 
energy

$$$$
80:0
     RDKit          3D

 57 60  0  0  0  0  0  0  0  0999 V2000
   53.4990   26.3380   45.9800 H   0  0  0  0  0  0  0  0  0  0  0  0
   54.4080   25.9540   45.6370 N   0  0  0  0  0  0  0  0  0  0  0  0
   54.2180   24.2390   45.5080 S   0  0  0  0  0  0  0  0  0  0  0  0
   54.8090   23.7770   44.2060 O   0  0  0  0  0  0  0  0  0  0  0  0
   52.7470   23.9250   45.5320 O   0  0  0  0  0  0  0  0  0  0  0  0
   55.0370   23.4280   46.8550 C   0  0  0  0  0  0  0  0  0  0  0  0
   54.3630   22.4050   47.5410 C   0  0  0  0  0  0  0  0  0  0  0  0
   53.3308   22.1489   47.2599 H   0  0  0  0  0  0  0  0  0  0  0  0
   54.9900   21.7100   48.5760 C   0  0  0  0  0  0  0  0  0  0  0  0
   54.4513   20.9116   49.1074 H   0  0  0  0  0  0  0  0  0  0  0  0
   56.2990   22.0270   48.9370 C   0  0  0  0  0  0  0  0  0  0  0  0
   56.7957   21.4702   49.7453 H   0  0  0  0  0  0  0  0  0  0  0  0
   56.9800   23.0490   48.2750 C   0  0  0  0  0  0  0  0  0  0  0  0
   58.0131   23.2928   48.5636 H   0  0  0  0  0  0  0  0  0  0  0  0
   56.3570   23.7680   47.2440 C   0  0  0  0  0  0  0  0  0  0  0  0
   57.0990   24.8740   46.6070 C   0  0  0  0  0  0  0  0  0  0  0  0
   57.5660   25.9470   47.3790 C   0  0  0  0  0  0  0  0  0  0  0  0
   57.3951   25.9562   48.4656 H   0  0  0  0  0  0  0  0  0  0  0  0
   58.2480   27.0050   46.7720 C   0  0  0  0  0  0  0  0  0  0  0  0
   58.6258   27.8373   47.3839 H   0  0  0  0  0  0  0  0  0  0  0  0
   58.4520   27.0080   45.3830 C   0  0  0  0  0  0  0  0  0  0  0  0
   59.1760   28.1130   44.7330 C   0  0  0  0  0  0  0  0  0  0  0  0
   60.0630   27.8548   44.1359 H   0  0  0  0  0  0  0  0  0  0  0  0
   58.8390   29.4150   44.8110 C   0  0  0  0  0  0  0  0  0  0  0  0
   58.9430   30.2890   45.9040 C   0  0  0  0  0  0  0  0  0  0  0  0
   59.2750   29.9640   47.3340 C   0  0  0  0  0  0  0  0  0  0  0  0
   58.6511   30.5747   48.0032 H   0  0  0  0  0  0  0  0  0  0  0  0
   59.0801   28.8979   47.5225 H   0  0  0  0  0  0  0  0  0  0  0  0
   60.3367   30.1816   47.5225 H   0  0  0  0  0  0  0  0  0  0  0  0
   58.5060   31.5310   45.4490 C   0  0  0  0  0  0  0  0  0  0  0  0
   58.4460   32.7920   46.2220 C   0  0  0  0  0  0  0  0  0  0  0  0
   57.3380   33.1580   46.7040 O   0  0  0  0  0  0  0  0  0  0  0  0
   59.6020   33.6620   46.3150 N   0  0  0  0  0  0  0  0  0  0  0  0
   59.7880   34.0700   45.3690 H   0  0  0  0  0  0  0  0  0  0  0  0
   60.8130   32.8990   46.7100 C   0  0  0  0  0  0  0  0  0  0  0  0
   60.5221   32.0930   47.3997 H   0  0  0  0  0  0  0  0  0  0  0  0
   61.2763   32.4802   45.8045 H   0  0  0  0  0  0  0  0  0  0  0  0
   61.8340   33.8150   47.4070 C   0  0  0  0  0  0  0  0  0  0  0  0
   62.7218   33.2167   47.6596 H   0  0  0  0  0  0  0  0  0  0  0  0
   62.0638   34.6318   46.7069 H   0  0  0  0  0  0  0  0  0  0  0  0
   61.3430   34.4150   48.5990 O   0  0  0  0  0  0  0  0  0  0  0  0
   59.9310   34.5770   48.6210 C   0  0  0  0  0  0  0  0  0  0  0  0
   59.4830   33.6724   49.0581 H   0  0  0  0  0  0  0  0  0  0  0  0
   59.7165   35.4765   49.2167 H   0  0  0  0  0  0  0  0  0  0  0  0
   59.3200   34.7990   47.2270 C   0  0  0  0  0  0  0  0  0  0  0  0
   58.2306   34.9118   47.3294 H   0  0  0  0  0  0  0  0  0  0  0  0
   59.7719   35.7043   46.7954 H   0  0  0  0  0  0  0  0  0  0  0  0
   58.1210   31.3500   44.1260 C   0  0  0  0  0  0  0  0  0  0  0  0
   57.6590   32.2890   43.2980 C   0  0  0  0  0  0  0  0  0  0  0  0
   57.5218   33.3197   43.6570 H   0  0  0  0  0  0  0  0  0  0  0  0
   57.4154   32.0324   42.2565 H   0  0  0  0  0  0  0  0  0  0  0  0
   58.3130   30.0710   43.7550 N   0  0  0  0  0  0  0  0  0  0  0  0
   58.1210   29.6680   42.8080 H   0  0  0  0  0  0  0  0  0  0  0  0
   58.0360   25.9090   44.6220 C   0  0  0  0  0  0  0  0  0  0  0  0
   58.2426   25.8804   43.5420 H   0  0  0  0  0  0  0  0  0  0  0  0
   57.3590   24.8480   45.2300 C   0  0  0  0  0  0  0  0  0  0  0  0
   57.0292   23.9899   44.6259 H   0  0  0  0  0  0  0  0  0  0  0  0
  1  2  1  0
  2  3  1  0
  3  4  2  0
  3  5  2  0
  3  6  1  0
  6  7  2  0
  7  8  1  0
  7  9  1  0
  9 10  1  0
  9 11  2  0
 11 12  1  0
 11 13  1  0
 13 14  1  0
 13 15  2  0
 15 16  1  0
 16 17  2  0
 17 18  1  0
 17 19  1  0
 19 20  1  0
 19 21  2  0
 21 22  1  0
 22 23  1  0
 22 24  2  0
 24 25  1  0
 25 26  1  0
 26 27  1  0
 26 28  1  0
 26 29  1  0
 25 30  2  0
 30 31  1  0
 31 32  2  0
 31 33  1  0
 33 34  1  0
 33 35  1  0
 35 36  1  0
 35 37  1  0
 35 38  1  0
 38 39  1  0
 38 40  1  0
 38 41  1  0
 41 42  1  0
 42 43  1  0
 42 44  1  0
 42 45  1  0
 45 46  1  0
 45 47  1  0
 30 48  1  0
 48 49  2  0
 49 50  1  0
 49 51  1  0
 48 52  1  0
 52 53  1  0
 21 54  1  0
 54 55  1  0
 54 56  2  0
 56 57  1  0
 15  6  1  0
 56 16  1  0
 52 24  1  0
 45 33  1  0
M  CHG  2   2  -1  33   1
M  END
>  <UniqueID>  (81) 
77

>  <SMILES>  (81) 
C=c1[nH]/c(=C/c2ccc(-c3ccccc3S([NH-])(=O)=O)cc2)c(C)c1C(=O)[NH+]1CCOCC1

>  <Energy>  (81) 
124.93606055491996

>  <Genealogy>  (81) 
C=c1[nH]c(=Cc2ccc(-c3ccccc3S([NH-])(=O)=O)cc2)c(C)c1C(=O)[NH+]1CCOCC1 (protonated)
C=c1[nH]/c(=C/c2ccc(-c3ccccc3S([NH-])(=O)=O)cc2)c(C)c1C(=O)[NH+]1CCOCC1 (cis-trans isomerization)
C=c1[nH]/c(=C/c2ccc(-c3ccccc3S([NH-])(=O)=O)cc2)c(C)c1C(=O)[NH+]1CCOCC1 (3D coordinates assigned)
C=c1[nH]/c(=C/c2ccc(-c3ccccc3S([NH-])(=O)=O)cc2)c(C)c1C(=O)[NH+]1CCOCC1 (nonaromatic ring conformer: 124.93606055491996 kcal/mol)

>  <smiles>  (81) 
C=c1[nH]c(=Cc2ccc(-c3ccccc3S(N)(=O)=O)cc2)c(C)c1C(=O)N1CCOCC1

>  <score_type>  (81) 
oracle

>  <origin>  (81) 
adg

>  <m_score__min__energy>  (81) 
-10.44

>  <m_primary>  (81) 
energy

$$$$
81:0
     RDKit          3D

 47 49  0  0  0  0  0  0  0  0999 V2000
   57.1715   34.2378   46.8442 H   0  0  0  0  0  0  0  0  0  0  0  0
   57.8630   33.8760   46.0690 C   0  0  0  0  0  0  0  0  0  0  0  0
   58.9399   33.8057   46.2820 H   0  0  0  0  0  0  0  0  0  0  0  0
   57.3950   33.5220   44.8690 C   0  0  0  0  0  0  0  0  0  0  0  0
   56.3159   33.5972   44.6693 H   0  0  0  0  0  0  0  0  0  0  0  0
   58.3100   33.0230   43.7850 C   0  0  0  0  0  0  0  0  0  0  0  0
   57.9118   33.3313   42.8070 H   0  0  0  0  0  0  0  0  0  0  0  0
   59.3106   33.4514   43.9440 H   0  0  0  0  0  0  0  0  0  0  0  0
   58.4140   31.5640   43.8220 N   0  0  0  0  0  0  0  0  0  0  0  0
   57.4860   30.7090   44.1560 C   0  0  0  0  0  0  0  0  0  0  0  0
   56.2440   30.6570   43.4890 C   0  0  0  0  0  0  0  0  0  0  0  0
   56.0292   31.3561   42.6673 H   0  0  0  0  0  0  0  0  0  0  0  0
   55.2890   29.7160   43.8750 C   0  0  0  0  0  0  0  0  0  0  0  0
   54.3180   29.6766   43.3596 H   0  0  0  0  0  0  0  0  0  0  0  0
   55.5550   28.8490   44.8850 N   0  0  0  0  0  0  0  0  0  0  0  0
   56.7360   28.8710   45.5500 C   0  0  0  0  0  0  0  0  0  0  0  0
   56.9189   28.1508   46.3611 H   0  0  0  0  0  0  0  0  0  0  0  0
   57.7270   29.8050   45.2120 C   0  0  0  0  0  0  0  0  0  0  0  0
   59.2470   29.8100   46.1200 S   0  0  0  0  0  0  0  0  0  0  0  0
   60.2510   28.8760   45.5040 O   0  0  0  0  0  0  0  0  0  0  0  0
   58.9670   29.3670   47.5290 O   0  0  0  0  0  0  0  0  0  0  0  0
   59.9230   31.4080   46.1510 N   0  0  0  0  0  0  0  0  0  0  0  0
   59.5940   32.0750   45.4170 H   0  0  0  0  0  0  0  0  0  0  0  0
   60.9270   31.8410   47.0880 C   0  0  0  0  0  0  0  0  0  0  0  0
   61.2050   33.2070   47.2060 C   0  0  0  0  0  0  0  0  0  0  0  0
   60.6505   33.9291   46.5887 H   0  0  0  0  0  0  0  0  0  0  0  0
   62.1780   33.6660   48.0980 C   0  0  0  0  0  0  0  0  0  0  0  0
   62.3771   34.7452   48.1729 H   0  0  0  0  0  0  0  0  0  0  0  0
   62.9110   32.7660   48.9060 C   0  0  0  0  0  0  0  0  0  0  0  0
   63.9320   33.2410   49.8380 N   0  0  0  0  0  0  0  0  0  0  0  0
   63.5370   34.1280   50.9520 C   0  0  0  0  0  0  0  0  0  0  0  0
   63.0267   35.0074   50.5323 H   0  0  0  0  0  0  0  0  0  0  0  0
   62.8834   33.5421   51.6149 H   0  0  0  0  0  0  0  0  0  0  0  0
   64.7190   34.6120   51.7990 C   0  0  0  0  0  0  0  0  0  0  0  0
   65.1925   35.4698   51.2990 H   0  0  0  0  0  0  0  0  0  0  0  0
   64.3434   34.9034   52.7910 H   0  0  0  0  0  0  0  0  0  0  0  0
   65.6730   33.5910   51.9630 O   0  0  0  0  0  0  0  0  0  0  0  0
   66.2890   33.3560   50.7200 C   0  0  0  0  0  0  0  0  0  0  0  0
   66.6377   34.3129   50.3043 H   0  0  0  0  0  0  0  0  0  0  0  0
   67.1364   32.6713   50.8717 H   0  0  0  0  0  0  0  0  0  0  0  0
   65.3080   32.7100   49.7370 C   0  0  0  0  0  0  0  0  0  0  0  0
   65.6741   32.8854   48.7147 H   0  0  0  0  0  0  0  0  0  0  0  0
   65.2595   31.6398   49.9865 H   0  0  0  0  0  0  0  0  0  0  0  0
   62.6120   31.3890   48.7840 C   0  0  0  0  0  0  0  0  0  0  0  0
   63.1566   30.6616   49.4039 H   0  0  0  0  0  0  0  0  0  0  0  0
   61.6380   30.9350   47.8910 C   0  0  0  0  0  0  0  0  0  0  0  0
   61.4264   29.8581   47.8164 H   0  0  0  0  0  0  0  0  0  0  0  0
  1  2  1  0
  2  3  1  0
  2  4  2  0
  4  5  1  0
  4  6  1  0
  6  7  1  0
  6  8  1  0
  6  9  1  0
  9 10  2  0
 10 11  1  0
 11 12  1  0
 11 13  2  0
 13 14  1  0
 13 15  1  0
 15 16  1  0
 16 17  1  0
 16 18  2  0
 18 19  1  0
 19 20  2  0
 19 21  2  0
 19 22  1  0
 22 23  1  0
 22 24  1  0
 24 25  2  0
 25 26  1  0
 25 27  1  0
 27 28  1  0
 27 29  2  0
 29 30  1  0
 30 31  1  0
 31 32  1  0
 31 33  1  0
 31 34  1  0
 34 35  1  0
 34 36  1  0
 34 37  1  0
 37 38  1  0
 38 39  1  0
 38 40  1  0
 38 41  1  0
 41 42  1  0
 41 43  1  0
 29 44  1  0
 44 45  1  0
 44 46  2  0
 46 47  1  0
 18 10  1  0
 46 24  1  0
 41 30  1  0
M  CHG  1  15  -1
M  END
>  <UniqueID>  (82) 
78

>  <SMILES>  (82) 
C=CC/N=c1\cc[n-]cc1S(=O)(=O)Nc1ccc(N2CCOCC2)cc1

>  <Energy>  (82) 
59.99792064915259

>  <Genealogy>  (82) 
C=CCN=c1cc[n-]cc1S(=O)(=O)Nc1ccc(N2CCOCC2)cc1 (protonated)
C=CC/N=c1\cc[n-]cc1S(=O)(=O)Nc1ccc(N2CCOCC2)cc1 (cis-trans isomerization)
C=CC/N=c1\cc[n-]cc1S(=O)(=O)Nc1ccc(N2CCOCC2)cc1 (3D coordinates assigned)
C=CC/N=c1\cc[n-]cc1S(=O)(=O)Nc1ccc(N2CCOCC2)cc1 (nonaromatic ring conformer: 59.99792064915259 kcal/mol)

>  <smiles>  (82) 
C=CCN=c1cc[nH]cc1S(=O)(=O)Nc1ccc(N2CCOCC2)cc1

>  <score_type>  (82) 
oracle

>  <origin>  (82) 
adg

>  <m_score__min__energy>  (82) 
-9.4600000000000009

>  <m_primary>  (82) 
energy

$$$$
82:0
     RDKit          3D

 28 30  0  0  0  0  0  0  0  0999 V2000
   59.3640   27.0290   45.8170 C   0  0  0  0  0  0  0  0  0  0  0  0
   58.0450   27.2110   45.6660 C   0  0  0  0  0  0  0  0  0  0  0  0
   57.4610   28.3150   45.0560 C   0  0  0  0  0  0  0  0  0  0  0  0
   58.1360   29.4300   44.3050 C   0  0  0  0  0  0  0  0  0  0  0  0
   58.0420   30.7040   45.0820 C   0  0  0  0  0  0  0  0  0  0  0  0
   58.8230   31.0550   46.1570 C   0  0  0  0  0  0  0  0  0  0  0  0
   58.4030   32.2410   46.6300 N   0  0  0  0  0  0  0  0  0  0  0  0
   57.3690   32.5690   45.8250 C   0  0  0  0  0  0  0  0  0  0  0  0
   57.1120   31.6510   44.8700 N   0  0  0  0  0  0  0  0  0  0  0  0
   56.1070   28.1950   45.2770 C   0  0  0  0  0  0  0  0  0  0  0  0
   55.1440   29.0980   44.8430 O   0  0  0  0  0  0  0  0  0  0  0  0
   55.8100   27.0870   45.9770 N   0  0  0  0  0  0  0  0  0  0  0  0
   56.9840   26.4550   46.1960 C   0  0  0  0  0  0  0  0  0  0  0  0
   57.0090   25.2650   46.8230 C   0  0  0  0  0  0  0  0  0  0  0  0
   56.0950   24.1380   46.5700 C   0  0  0  0  0  0  0  0  0  0  0  0
   54.8760   24.2510   46.0110 N   0  0  0  0  0  0  0  0  0  0  0  0
   54.3670   23.0050   46.1190 C   0  0  0  0  0  0  0  0  0  0  0  0
   53.2260   22.6980   45.6860 O   0  0  0  0  0  0  0  0  0  0  0  0
   55.1720   22.1150   46.7390 N   0  0  0  0  0  0  0  0  0  0  0  0
   56.2540   22.8540   47.0310 C   0  0  0  0  0  0  0  0  0  0  0  0
   57.3640   22.3670   47.7100 O   0  0  0  0  0  0  0  0  0  0  0  0
   59.7409   26.1227   46.3135 H   0  0  0  0  0  0  0  0  0  0  0  0
   60.0699   27.7859   45.4444 H   0  0  0  0  0  0  0  0  0  0  0  0
   59.1949   29.1755   44.1504 H   0  0  0  0  0  0  0  0  0  0  0  0
   57.6372   29.5632   43.3337 H   0  0  0  0  0  0  0  0  0  0  0  0
   59.6556   30.4623   46.5638 H   0  0  0  0  0  0  0  0  0  0  0  0
   56.7905   33.4978   45.9375 H   0  0  0  0  0  0  0  0  0  0  0  0
   57.7809   25.1208   47.5933 H   0  0  0  0  0  0  0  0  0  0  0  0
  1  2  2  0
  2  3  1  0
  3  4  1  0
  4  5  1  0
  5  6  2  0
  6  7  1  0
  7  8  1  0
  8  9  2  0
  3 10  2  0
 10 11  1  0
 10 12  1  0
 12 13  1  0
 13 14  2  3
 14 15  1  0
 15 16  1  0
 16 17  1  0
 17 18  2  0
 17 19  1  0
 19 20  1  0
 20 21  1  0
 13  2  1  0
 20 15  2  0
  9  5  1  0
  1 22  1  0
  1 23  1  0
  4 24  1  0
  4 25  1  0
  6 26  1  0
  8 27  1  0
 14 28  1  0
M  CHG  6   7  -1  11  -1  12  -1  16  -1  19  -1  21  -1
M  END
>  <UniqueID>  (83) 
79

>  <SMILES>  (83) 
C=c1c(Cc2c[n-]cn2)c([O-])[n-]c1=Cc1[n-]c(=O)[n-]c1[O-]

>  <Energy>  (83) 
124.33040637492128

>  <Genealogy>  (83) 
C=c1c(Cc2c[n-]cn2)c([O-])[n-]c1=Cc1[n-]c(=O)[n-]c1[O-] (protonated)
C=c1c(Cc2c[n-]cn2)c([O-])[n-]c1=Cc1[n-]c(=O)[n-]c1[O-] (3D coordinates assigned)
C=c1c(Cc2c[n-]cn2)c([O-])[n-]c1=Cc1[n-]c(=O)[n-]c1[O-] (optimized conformer: 124.33040637492128 kcal/mol)

>  <smiles>  (83) 
C=c1c(Cc2c[nH]cn2)c(O)[nH]c1=Cc1[nH]c(=O)[nH]c1O

>  <score_type>  (83) 
oracle

>  <origin>  (83) 
adg

>  <m_score__min__energy>  (83) 
-17.920000000000002

>  <m_primary>  (83) 
energy

$$$$
83:0
     RDKit          3D

 51 54  0  0  0  0  0  0  0  0999 V2000
   54.2490   27.0940   46.3760 H   0  0  0  0  0  0  0  0  0  0  0  0
   55.1610   26.8800   45.9920 O   0  0  0  0  0  0  0  0  0  0  0  0
   55.7280   25.6140   46.1160 C   0  0  0  0  0  0  0  0  0  0  0  0
   55.0090   24.4810   46.0880 N   0  0  0  0  0  0  0  0  0  0  0  0
   55.9550   23.5220   46.1680 C   0  0  0  0  0  0  0  0  0  0  0  0
   55.6780   22.2940   46.1650 O   0  0  0  0  0  0  0  0  0  0  0  0
   57.2220   23.9810   46.2430 N   0  0  0  0  0  0  0  0  0  0  0  0
   57.0720   25.3170   46.2300 C   0  0  0  0  0  0  0  0  0  0  0  0
   58.2070   26.2560   46.2660 C   0  0  0  0  0  0  0  0  0  0  0  0
   59.0711   26.0051   46.8988 H   0  0  0  0  0  0  0  0  0  0  0  0
   58.2420   27.4050   45.5650 C   0  0  0  0  0  0  0  0  0  0  0  0
   58.3830   28.6840   46.0850 C   0  0  0  0  0  0  0  0  0  0  0  0
   58.4604   28.9580   47.1475 H   0  0  0  0  0  0  0  0  0  0  0  0
   58.4070   29.5460   45.0040 C   0  0  0  0  0  0  0  0  0  0  0  0
   58.5160   31.0150   45.0780 C   0  0  0  0  0  0  0  0  0  0  0  0
   58.2510   31.7050   44.0560 O   0  0  0  0  0  0  0  0  0  0  0  0
   58.8860   31.6700   46.3010 N   0  0  0  0  0  0  0  0  0  0  0  0
   58.2210   32.9200   46.6790 C   0  0  0  0  0  0  0  0  0  0  0  0
   58.8059   33.7717   46.3015 H   0  0  0  0  0  0  0  0  0  0  0  0
   57.2112   32.9363   46.2431 H   0  0  0  0  0  0  0  0  0  0  0  0
   58.1100   33.0180   48.2030 C   0  0  0  0  0  0  0  0  0  0  0  0
   57.8069   34.0385   48.4798 H   0  0  0  0  0  0  0  0  0  0  0  0
   57.3604   32.2937   48.5543 H   0  0  0  0  0  0  0  0  0  0  0  0
   59.4010   32.7100   48.8290 N   0  0  0  0  0  0  0  0  0  0  0  0
   59.7940   33.4050   50.0270 C   0  0  0  0  0  0  0  0  0  0  0  0
   58.9090   33.8620   50.8020 O   0  0  0  0  0  0  0  0  0  0  0  0
   61.2470   33.5640   50.3890 C   0  0  0  0  0  0  0  0  0  0  0  0
   61.3868   34.5310   50.8944 H   0  0  0  0  0  0  0  0  0  0  0  0
   61.5329   32.7340   51.0518 H   0  0  0  0  0  0  0  0  0  0  0  0
   62.1210   33.5190   49.1680 C   0  0  0  0  0  0  0  0  0  0  0  0
   61.6290   33.9490   47.9740 N   0  0  0  0  0  0  0  0  0  0  0  0
   62.3880   33.9550   46.8450 C   0  0  0  0  0  0  0  0  0  0  0  0
   61.9564   34.3025   45.8947 H   0  0  0  0  0  0  0  0  0  0  0  0
   63.7130   33.5210   46.8910 C   0  0  0  0  0  0  0  0  0  0  0  0
   64.3304   33.5223   45.9806 H   0  0  0  0  0  0  0  0  0  0  0  0
   64.2470   33.0850   48.1050 C   0  0  0  0  0  0  0  0  0  0  0  0
   65.2909   32.7422   48.1565 H   0  0  0  0  0  0  0  0  0  0  0  0
   63.4530   33.0850   49.2540 C   0  0  0  0  0  0  0  0  0  0  0  0
   63.8671   32.7485   50.2159 H   0  0  0  0  0  0  0  0  0  0  0  0
   60.0600   31.4530   48.4440 C   0  0  0  0  0  0  0  0  0  0  0  0
   61.0640   31.4158   48.8920 H   0  0  0  0  0  0  0  0  0  0  0  0
   59.4594   30.6048   48.8045 H   0  0  0  0  0  0  0  0  0  0  0  0
   60.1810   31.3720   46.9230 C   0  0  0  0  0  0  0  0  0  0  0  0
   60.9279   32.1019   46.5774 H   0  0  0  0  0  0  0  0  0  0  0  0
   60.4934   30.3563   46.6388 H   0  0  0  0  0  0  0  0  0  0  0  0
   58.2840   28.8590   43.8520 N   0  0  0  0  0  0  0  0  0  0  0  0
   58.2660   29.2640   42.8880 H   0  0  0  0  0  0  0  0  0  0  0  0
   58.1900   27.5540   44.1780 C   0  0  0  0  0  0  0  0  0  0  0  0
   58.0580   26.5870   43.2640 C   0  0  0  0  0  0  0  0  0  0  0  0
   57.9853   25.5363   43.5815 H   0  0  0  0  0  0  0  0  0  0  0  0
   58.0221   26.8422   42.1946 H   0  0  0  0  0  0  0  0  0  0  0  0
  1  2  1  0
  2  3  1  0
  3  4  1  0
  4  5  1  0
  5  6  2  0
  5  7  1  0
  7  8  1  0
  8  9  1  0
  9 10  1  0
  9 11  2  0
 11 12  1  0
 12 13  1  0
 12 14  2  0
 14 15  1  0
 15 16  2  0
 15 17  1  0
 17 18  1  0
 18 19  1  0
 18 20  1  0
 18 21  1  0
 21 22  1  0
 21 23  1  0
 21 24  1  0
 24 25  1  0
 25 26  2  0
 25 27  1  0
 27 28  1  0
 27 29  1  0
 27 30  1  0
 30 31  2  0
 31 32  1  0
 32 33  1  0
 32 34  2  0
 34 35  1  0
 34 36  1  0
 36 37  1  0
 36 38  2  0
 38 39  1  0
 24 40  1  0
 40 41  1  0
 40 42  1  0
 40 43  1  0
 43 44  1  0
 43 45  1  0
 14 46  1  0
 46 47  1  0
 46 48  1  0
 48 49  2  0
 49 50  1  0
 49 51  1  0
  8  3  2  0
 48 11  1  0
 43 17  1  0
 38 30  1  0
M  CHG  2   4  -1   7  -1
M  END
>  <UniqueID>  (84) 
80

>  <SMILES>  (84) 
C=c1[nH]c(C(=O)N2CCN(C(=O)Cc3ccccn3)CC2)c/c1=C\c1[n-]c(=O)[n-]c1O

>  <Energy>  (84) 
120.38663080962428

>  <Genealogy>  (84) 
C=c1[nH]c(C(=O)N2CCN(C(=O)Cc3ccccn3)CC2)cc1=Cc1[n-]c(=O)[n-]c1O (protonated)
C=c1[nH]c(C(=O)N2CCN(C(=O)Cc3ccccn3)CC2)c/c1=C\c1[n-]c(=O)[n-]c1O (cis-trans isomerization)
C=c1[nH]c(C(=O)N2CCN(C(=O)Cc3ccccn3)CC2)c/c1=C\c1[n-]c(=O)[n-]c1O (3D coordinates assigned)
C=c1[nH]c(C(=O)N2CCN(C(=O)Cc3ccccn3)CC2)c/c1=C\c1[n-]c(=O)[n-]c1O (nonaromatic ring conformer: 120.38663080962428 kcal/mol)

>  <smiles>  (84) 
C=c1[nH]c(C(=O)N2CCN(C(=O)Cc3ccccn3)CC2)cc1=Cc1[nH]c(=O)[nH]c1O

>  <score_type>  (84) 
oracle

>  <origin>  (84) 
adg

>  <m_score__min__energy>  (84) 
-13.779999999999999

>  <m_primary>  (84) 
energy

$$$$
84:0
     RDKit          3D

 56 59  0  0  0  0  0  0  0  0999 V2000
   57.9880   27.3810   43.3410 C   0  0  0  0  0  0  0  0  0  0  0  0
   58.1820   27.1860   44.6560 C   0  0  0  0  0  0  0  0  0  0  0  0
   57.9700   25.9970   45.3720 C   0  0  0  0  0  0  0  0  0  0  0  0
   57.3420   24.8560   45.0240 C   0  0  0  0  0  0  0  0  0  0  0  0
   55.9010   24.5940   45.1630 C   0  0  0  0  0  0  0  0  0  0  0  0
   55.3440   23.3840   44.9920 N   0  0  0  0  0  0  0  0  0  0  0  0
   54.0490   23.5860   45.3220 C   0  0  0  0  0  0  0  0  0  0  0  0
   53.1850   22.6730   45.2700 O   0  0  0  0  0  0  0  0  0  0  0  0
   53.7550   24.8420   45.7210 N   0  0  0  0  0  0  0  0  0  0  0  0
   54.9400   25.4630   45.6290 C   0  0  0  0  0  0  0  0  0  0  0  0
   55.1440   26.7910   45.9850 O   0  0  0  0  0  0  0  0  0  0  0  0
   58.5430   26.1890   46.6170 C   0  0  0  0  0  0  0  0  0  0  0  0
   59.0230   27.4830   46.6450 C   0  0  0  0  0  0  0  0  0  0  0  0
   59.7550   28.0580   47.7930 C   0  0  0  0  0  0  0  0  0  0  0  0
   60.5470   27.3250   48.4430 O   0  0  0  0  0  0  0  0  0  0  0  0
   59.6500   29.4540   48.1070 N   0  0  0  0  0  0  0  0  0  0  0  0
   60.2480   30.0330   49.2790 C   0  0  0  0  0  0  0  0  0  0  0  0
   61.4030   29.4460   49.8240 C   0  0  0  0  0  0  0  0  0  0  0  0
   62.0140   29.9960   50.9510 C   0  0  0  0  0  0  0  0  0  0  0  0
   61.4860   31.1410   51.5440 C   0  0  0  0  0  0  0  0  0  0  0  0
   60.3400   31.7390   51.0150 C   0  0  0  0  0  0  0  0  0  0  0  0
   59.7000   31.1880   49.8920 C   0  0  0  0  0  0  0  0  0  0  0  0
   58.5120   31.8770   49.3440 C   0  0  0  0  0  0  0  0  0  0  0  0
   57.6210   32.3260   50.1140 O   0  0  0  0  0  0  0  0  0  0  0  0
   58.3690   32.0310   47.9290 N   0  0  0  0  0  0  0  0  0  0  0  0
   59.2790   33.2210   47.0610 S   0  0  0  0  0  0  0  0  0  0  0  0
   58.6760   34.5790   47.2850 O   0  0  0  0  0  0  0  0  0  0  0  0
   59.2420   32.9040   45.5890 O   0  0  0  0  0  0  0  0  0  0  0  0
   60.9330   33.2110   47.6690 C   0  0  0  0  0  0  0  0  0  0  0  0
   61.8760   32.2980   47.1750 C   0  0  0  0  0  0  0  0  0  0  0  0
   63.1680   32.2610   47.7130 C   0  0  0  0  0  0  0  0  0  0  0  0
   63.5350   33.1480   48.7370 C   0  0  0  0  0  0  0  0  0  0  0  0
   64.9010   33.0780   49.3510 C   0  0  0  0  0  0  0  0  0  0  0  0
   62.5850   34.0530   49.2360 C   0  0  0  0  0  0  0  0  0  0  0  0
   61.2940   34.0860   48.7030 C   0  0  0  0  0  0  0  0  0  0  0  0
   58.7660   28.1050   45.4670 N   0  0  0  0  0  0  0  0  0  0  0  0
   59.0720   29.5000   45.1250 C   0  0  0  0  0  0  0  0  0  0  0  0
   58.1917   28.3657   42.8951 H   0  0  0  0  0  0  0  0  0  0  0  0
   57.6255   26.5559   42.7102 H   0  0  0  0  0  0  0  0  0  0  0  0
   57.9604   24.0514   44.5995 H   0  0  0  0  0  0  0  0  0  0  0  0
   58.6043   25.4506   47.4300 H   0  0  0  0  0  0  0  0  0  0  0  0
   59.1880   30.0800   47.4160 H   0  0  0  0  0  0  0  0  0  0  0  0
   61.8287   28.5452   49.3578 H   0  0  0  0  0  0  0  0  0  0  0  0
   62.9143   29.5249   51.3723 H   0  0  0  0  0  0  0  0  0  0  0  0
   61.9725   31.5746   52.4302 H   0  0  0  0  0  0  0  0  0  0  0  0
   59.9350   32.6491   51.4815 H   0  0  0  0  0  0  0  0  0  0  0  0
   61.5999   31.6093   46.3629 H   0  0  0  0  0  0  0  0  0  0  0  0
   63.8991   31.5332   47.3313 H   0  0  0  0  0  0  0  0  0  0  0  0
   64.8109   33.0826   50.4473 H   0  0  0  0  0  0  0  0  0  0  0  0
   65.4012   32.1530   49.0281 H   0  0  0  0  0  0  0  0  0  0  0  0
   65.4931   33.9470   49.0281 H   0  0  0  0  0  0  0  0  0  0  0  0
   62.8584   34.7396   50.0507 H   0  0  0  0  0  0  0  0  0  0  0  0
   60.5574   34.8019   49.0965 H   0  0  0  0  0  0  0  0  0  0  0  0
   59.2001   30.0842   46.0482 H   0  0  0  0  0  0  0  0  0  0  0  0
   59.9998   29.5379   44.5353 H   0  0  0  0  0  0  0  0  0  0  0  0
   58.2452   29.9228   44.5353 H   0  0  0  0  0  0  0  0  0  0  0  0
  1  2  2  0
  2  3  1  0
  3  4  2  3
  4  5  1  0
  5  6  1  0
  6  7  1  0
  7  8  2  0
  7  9  1  0
  9 10  1  0
 10 11  1  0
  3 12  1  0
 12 13  2  0
 13 14  1  0
 14 15  2  0
 14 16  1  0
 16 17  1  0
 17 18  2  0
 18 19  1  0
 19 20  2  0
 20 21  1  0
 21 22  2  0
 22 23  1  0
 23 24  2  0
 23 25  1  0
 25 26  1  0
 26 27  2  0
 26 28  2  0
 26 29  1  0
 29 30  2  0
 30 31  1  0
 31 32  2  0
 32 33  1  0
 32 34  1  0
 34 35  2  0
 13 36  1  0
 36 37  1  0
 36  2  1  0
 10  5  2  0
 22 17  1  0
 35 29  1  0
  1 38  1  0
  1 39  1  0
  4 40  1  0
 12 41  1  0
 16 42  1  0
 18 43  1  0
 19 44  1  0
 20 45  1  0
 21 46  1  0
 30 47  1  0
 31 48  1  0
 33 49  1  0
 33 50  1  0
 33 51  1  0
 34 52  1  0
 35 53  1  0
 37 54  1  0
 37 55  1  0
 37 56  1  0
M  CHG  4   6  -1   9  -1  11  -1  25  -1
M  END
>  <UniqueID>  (85) 
81

>  <SMILES>  (85) 
C=c1c(=Cc2[n-]c(=O)[n-]c2[O-])cc(C(=O)Nc2ccccc2C(=O)[N-]S(=O)(=O)c2ccc(C)cc2)n1C

>  <Energy>  (85) 
142.93612968326752

>  <Genealogy>  (85) 
C=c1c(=Cc2[n-]c(=O)[n-]c2[O-])cc(C(=O)Nc2ccccc2C(=O)[N-]S(=O)(=O)c2ccc(C)cc2)n1C (protonated)
C=c1c(=Cc2[n-]c(=O)[n-]c2[O-])cc(C(=O)Nc2ccccc2C(=O)[N-]S(=O)(=O)c2ccc(C)cc2)n1C (3D coordinates assigned)
C=c1c(=Cc2[n-]c(=O)[n-]c2[O-])cc(C(=O)Nc2ccccc2C(=O)[N-]S(=O)(=O)c2ccc(C)cc2)n1C (optimized conformer: 142.93612968326752 kcal/mol)

>  <smiles>  (85) 
C=c1c(=Cc2[nH]c(=O)[nH]c2O)cc(C(=O)Nc2ccccc2C(=O)NS(=O)(=O)c2ccc(C)cc2)n1C

>  <score_type>  (85) 
oracle

>  <origin>  (85) 
adg

>  <m_score__min__energy>  (85) 
-20.440000000000001

>  <m_primary>  (85) 
energy

$$$$
85:0
     RDKit          3D

 52 54  0  0  0  0  0  0  0  0999 V2000
   56.6790   30.0420   43.4690 C   0  0  0  0  0  0  0  0  0  0  0  0
   56.5720   30.9790   44.5350 O   0  0  0  0  0  0  0  0  0  0  0  0
   57.6680   31.5770   45.1750 C   0  0  0  0  0  0  0  0  0  0  0  0
   57.8080   32.9720   45.2890 C   0  0  0  0  0  0  0  0  0  0  0  0
   58.9170   33.5190   45.9380 C   0  0  0  0  0  0  0  0  0  0  0  0
   59.9140   32.6880   46.4800 C   0  0  0  0  0  0  0  0  0  0  0  0
   61.0660   33.3300   47.2320 C   0  0  2  0  0  0  0  0  0  0  0  0
   62.4620   32.9000   46.7600 C   0  0  0  0  0  0  0  0  0  0  0  0
   60.9140   33.1310   48.6730 N   0  0  0  0  0  0  0  0  0  0  0  0
   59.8980   33.7140   49.5030 C   0  0  0  0  0  0  0  0  0  0  0  0
   59.6850   34.9560   49.4650 O   0  0  0  0  0  0  0  0  0  0  0  0
   59.1190   32.8610   50.4270 C   0  0  0  0  0  0  0  0  0  0  0  0
   58.8490   33.2870   51.7380 C   0  0  0  0  0  0  0  0  0  0  0  0
   58.0560   32.5120   52.5880 C   0  0  0  0  0  0  0  0  0  0  0  0
   57.5030   31.3050   52.1350 C   0  0  0  0  0  0  0  0  0  0  0  0
   56.5440   30.5380   53.0070 C   0  0  0  0  0  0  0  0  0  0  0  0
   55.7470   29.5930   52.2200 N   0  0  0  0  0  0  0  0  0  0  0  0
   54.1390   29.4090   52.8660 S   0  0  0  0  0  0  0  0  0  0  0  0
   53.7800   27.9530   52.9580 O   0  0  0  0  0  0  0  0  0  0  0  0
   54.0910   30.0060   54.2440 O   0  0  0  0  0  0  0  0  0  0  0  0
   52.9880   30.2640   51.8390 C   0  0  0  0  0  0  0  0  0  0  0  0
   52.7460   29.8000   50.5390 C   0  0  0  0  0  0  0  0  0  0  0  0
   51.7960   30.4320   49.7290 C   0  0  0  0  0  0  0  0  0  0  0  0
   51.0870   31.5340   50.2140 C   0  0  0  0  0  0  0  0  0  0  0  0
   51.3250   32.0060   51.5080 C   0  0  0  0  0  0  0  0  0  0  0  0
   50.6160   33.0990   51.9910 O   0  0  0  0  0  0  0  0  0  0  0  0
   52.2780   31.3760   52.3180 C   0  0  0  0  0  0  0  0  0  0  0  0
   57.7990   30.8560   50.8390 C   0  0  0  0  0  0  0  0  0  0  0  0
   58.6040   31.6250   49.9930 C   0  0  0  0  0  0  0  0  0  0  0  0
   59.7610   31.2920   46.3730 C   0  0  0  0  0  0  0  0  0  0  0  0
   58.6510   30.7470   45.7210 C   0  0  0  0  0  0  0  0  0  0  0  0
   56.7947   29.0289   43.8816 H   0  0  0  0  0  0  0  0  0  0  0  0
   55.7702   30.0846   42.8508 H   0  0  0  0  0  0  0  0  0  0  0  0
   57.5548   30.2884   42.8508 H   0  0  0  0  0  0  0  0  0  0  0  0
   57.0400   33.6355   44.8648 H   0  0  0  0  0  0  0  0  0  0  0  0
   59.0118   34.6113   46.0263 H   0  0  0  0  0  0  0  0  0  0  0  0
   61.0063   34.4033   46.9986 H   0  0  0  0  0  0  0  0  0  0  0  0
   63.1002   32.7034   47.6341 H   0  0  0  0  0  0  0  0  0  0  0  0
   62.3787   31.9859   46.1538 H   0  0  0  0  0  0  0  0  0  0  0  0
   62.9075   33.7026   46.1538 H   0  0  0  0  0  0  0  0  0  0  0  0
   59.2655   34.2391   52.0986 H   0  0  0  0  0  0  0  0  0  0  0  0
   57.8644   32.8498   53.6172 H   0  0  0  0  0  0  0  0  0  0  0  0
   57.1154   29.9810   53.7642 H   0  0  0  0  0  0  0  0  0  0  0  0
   55.8601   31.2550   53.4847 H   0  0  0  0  0  0  0  0  0  0  0  0
   53.3055   28.9349   50.1535 H   0  0  0  0  0  0  0  0  0  0  0  0
   51.6074   30.0613   48.7106 H   0  0  0  0  0  0  0  0  0  0  0  0
   50.3406   32.0307   49.5767 H   0  0  0  0  0  0  0  0  0  0  0  0
   52.4708   31.7539   53.3329 H   0  0  0  0  0  0  0  0  0  0  0  0
   57.3960   29.8949   50.4870 H   0  0  0  0  0  0  0  0  0  0  0  0
   58.8365   31.2615   48.9812 H   0  0  0  0  0  0  0  0  0  0  0  0
   60.5211   30.6251   46.8060 H   0  0  0  0  0  0  0  0  0  0  0  0
   58.5503   29.6548   45.6369 H   0  0  0  0  0  0  0  0  0  0  0  0
  1  2  1  0
  2  3  1  0
  3  4  2  0
  4  5  1  0
  5  6  2  0
  6  7  1  0
  7  8  1  0
  7  9  1  0
  9 10  1  0
 10 11  2  0
 10 12  1  0
 12 13  2  0
 13 14  1  0
 14 15  2  0
 15 16  1  0
 16 17  1  0
 17 18  1  0
 18 19  2  0
 18 20  2  0
 18 21  1  0
 21 22  2  0
 22 23  1  0
 23 24  2  0
 24 25  1  0
 25 26  1  0
 25 27  2  0
 15 28  1  0
 28 29  2  0
  6 30  1  0
 30 31  2  0
 31  3  1  0
 29 12  1  0
 27 21  1  0
  1 32  1  0
  1 33  1  0
  1 34  1  0
  4 35  1  0
  5 36  1  0
  7 37  1  1
  8 38  1  0
  8 39  1  0
  8 40  1  0
 13 41  1  0
 14 42  1  0
 16 43  1  0
 16 44  1  0
 22 45  1  0
 23 46  1  0
 24 47  1  0
 27 48  1  0
 28 49  1  0
 29 50  1  0
 30 51  1  0
 31 52  1  0
M  CHG  3   9  -1  17  -1  26  -1
M  END
>  <UniqueID>  (86) 
82

>  <SMILES>  (86) 
COc1ccc([C@H](C)[N-]C(=O)c2ccc(C[N-]S(=O)(=O)c3cccc([O-])c3)cc2)cc1

>  <Energy>  (86) 
48.13799422901411

>  <Genealogy>  (86) 
COc1ccc(C(C)[N-]C(=O)c2ccc(C[N-]S(=O)(=O)c3cccc([O-])c3)cc2)cc1 (protonated)
COc1ccc([C@H](C)[N-]C(=O)c2ccc(C[N-]S(=O)(=O)c3cccc([O-])c3)cc2)cc1 (chirality)
COc1ccc([C@H](C)[N-]C(=O)c2ccc(C[N-]S(=O)(=O)c3cccc([O-])c3)cc2)cc1 (3D coordinates assigned)
COc1ccc([C@H](C)[N-]C(=O)c2ccc(C[N-]S(=O)(=O)c3cccc([O-])c3)cc2)cc1 (optimized conformer: 48.13799422901411 kcal/mol)

>  <smiles>  (86) 
COc1ccc(C(C)NC(=O)c2ccc(CNS(=O)(=O)c3cccc(O)c3)cc2)cc1

>  <score_type>  (86) 
oracle

>  <origin>  (86) 
adg

>  <m_score__min__energy>  (86) 
-14.949999999999999

>  <m_primary>  (86) 
energy

$$$$
86:0
     RDKit          3D

 41 43  0  0  0  0  0  0  0  0999 V2000
   58.6670   27.4080   47.2250 H   0  0  0  0  0  0  0  0  0  0  0  0
   59.0470   27.7590   48.0950 O   0  0  0  0  0  0  0  0  0  0  0  0
   59.2260   29.1200   48.3520 C   0  0  0  0  0  0  0  0  0  0  0  0
   58.7890   30.1220   47.4630 C   0  0  0  0  0  0  0  0  0  0  0  0
   58.1420   29.7980   46.1800 C   0  0  0  0  0  0  0  0  0  0  0  0
   57.3940   30.6500   45.6320 O   0  0  0  0  0  0  0  0  0  0  0  0
   58.3320   28.5280   45.5410 N   0  0  0  0  0  0  0  0  0  0  0  0
   57.2840   27.7440   44.8910 C   0  0  0  0  0  0  0  0  0  0  0  0
   56.3215   28.2642   45.0052 H   0  0  0  0  0  0  0  0  0  0  0  0
   57.5362   27.6335   43.8260 H   0  0  0  0  0  0  0  0  0  0  0  0
   57.1800   26.3700   45.5080 C   0  0  0  0  0  0  0  0  0  0  0  0
   58.3090   25.5340   45.5590 C   0  0  0  0  0  0  0  0  0  0  0  0
   59.2746   25.8938   45.1740 H   0  0  0  0  0  0  0  0  0  0  0  0
   58.2100   24.2470   46.0970 C   0  0  0  0  0  0  0  0  0  0  0  0
   59.0955   23.5951   46.1267 H   0  0  0  0  0  0  0  0  0  0  0  0
   56.9910   23.7880   46.5960 C   0  0  0  0  0  0  0  0  0  0  0  0
   56.9156   22.7740   47.0157 H   0  0  0  0  0  0  0  0  0  0  0  0
   55.8650   24.6160   46.5630 C   0  0  0  0  0  0  0  0  0  0  0  0
   54.9061   24.2537   46.9621 H   0  0  0  0  0  0  0  0  0  0  0  0
   55.9540   25.9040   46.0240 C   0  0  0  0  0  0  0  0  0  0  0  0
   54.8230   26.7120   46.0000 O   0  0  0  0  0  0  0  0  0  0  0  0
   58.9610   31.4290   47.7960 N   0  0  0  0  0  0  0  0  0  0  0  0
   59.5610   31.7960   48.9580 C   0  0  0  0  0  0  0  0  0  0  0  0
   59.6680   33.2310   49.2870 C   0  0  0  0  0  0  0  0  0  0  0  0
   59.7543   33.4978   50.3506 H   0  0  0  0  0  0  0  0  0  0  0  0
   59.6690   34.2380   48.4000 C   0  0  0  0  0  0  0  0  0  0  0  0
   60.1487   35.1794   48.7061 H   0  0  0  0  0  0  0  0  0  0  0  0
   59.0790   34.1870   47.0460 C   0  0  0  0  0  0  0  0  0  0  0  0
   57.7230   33.8580   46.8990 C   0  0  0  0  0  0  0  0  0  0  0  0
   57.1050   33.6709   47.7896 H   0  0  0  0  0  0  0  0  0  0  0  0
   57.1540   33.7670   45.6250 C   0  0  0  0  0  0  0  0  0  0  0  0
   56.0863   33.5260   45.5159 H   0  0  0  0  0  0  0  0  0  0  0  0
   57.9410   33.9820   44.4900 C   0  0  0  0  0  0  0  0  0  0  0  0
   57.4903   33.9174   43.4887 H   0  0  0  0  0  0  0  0  0  0  0  0
   59.3000   34.2790   44.6260 C   0  0  0  0  0  0  0  0  0  0  0  0
   59.9200   34.4403   43.7318 H   0  0  0  0  0  0  0  0  0  0  0  0
   59.8710   34.3710   45.8980 C   0  0  0  0  0  0  0  0  0  0  0  0
   60.9443   34.5882   46.0021 H   0  0  0  0  0  0  0  0  0  0  0  0
   59.9770   30.8390   49.8280 N   0  0  0  0  0  0  0  0  0  0  0  0
   59.8320   29.5190   49.5480 C   0  0  0  0  0  0  0  0  0  0  0  0
   60.2350   28.6600   50.3740 O   0  0  0  0  0  0  0  0  0  0  0  0
  1  2  1  0
  2  3  1  0
  3  4  2  0
  4  5  1  0
  5  6  2  0
  5  7  1  0
  7  8  1  0
  8  9  1  0
  8 10  1  0
  8 11  1  0
 11 12  2  0
 12 13  1  0
 12 14  1  0
 14 15  1  0
 14 16  2  0
 16 17  1  0
 16 18  1  0
 18 19  1  0
 18 20  2  0
 20 21  1  0
  4 22  1  0
 22 23  1  0
 23 24  1  0
 24 25  1  0
 24 26  2  0
 26 27  1  0
 26 28  1  0
 28 29  2  0
 29 30  1  0
 29 31  1  0
 31 32  1  0
 31 33  2  0
 33 34  1  0
 33 35  1  0
 35 36  1  0
 35 37  2  0
 37 38  1  0
 23 39  2  0
 39 40  1  0
 40 41  2  0
 40  3  1  0
 20 11  1  0
 37 28  1  0
M  CHG  3   7  -1  21  -1  22  -1
M  END
>  <UniqueID>  (87) 
83

>  <SMILES>  (87) 
O=C([N-]Cc1ccccc1[O-])c1[n-]c(/C=C\c2ccccc2)nc(=O)c1O

>  <Energy>  (87) 
55.75708608867378

>  <Genealogy>  (87) 
O=C([N-]Cc1ccccc1[O-])c1[n-]c(C=Cc2ccccc2)nc(=O)c1O (protonated)
O=C([N-]Cc1ccccc1[O-])c1[n-]c(/C=C\c2ccccc2)nc(=O)c1O (cis-trans isomerization)
O=C([N-]Cc1ccccc1[O-])c1[n-]c(/C=C\c2ccccc2)nc(=O)c1O (3D coordinates assigned)
O=C([N-]Cc1ccccc1[O-])c1[n-]c(/C=C\c2ccccc2)nc(=O)c1O (optimized conformer: 55.75708608867378 kcal/mol)

>  <smiles>  (87) 
O=C(NCc1ccccc1O)c1[nH]c(C=Cc2ccccc2)nc(=O)c1O

>  <score_type>  (87) 
oracle

>  <origin>  (87) 
adg

>  <m_score__min__energy>  (87) 
-14.51

>  <m_primary>  (87) 
energy

$$$$
87:0
     RDKit          3D

 57 60  0  0  0  0  0  0  0  0999 V2000
   60.8680   28.3110   50.4530 O   0  0  0  0  0  0  0  0  0  0  0  0
   60.3910   28.2440   49.2900 C   0  0  0  0  0  0  0  0  0  0  0  0
   60.0430   29.5290   48.5790 C   0  0  0  0  0  0  0  0  0  0  0  0
   60.4500   29.5400   47.1640 N   0  0  0  0  0  0  0  0  0  0  0  0
   59.3430   29.1530   46.3200 C   0  0  0  0  0  0  0  0  0  0  0  0
   58.6140   30.1360   45.6240 C   0  0  0  0  0  0  0  0  0  0  0  0
   57.4970   29.7900   44.8490 C   0  0  0  0  0  0  0  0  0  0  0  0
   56.7400   30.8210   44.1090 C   0  0  0  0  0  0  0  0  0  0  0  0
   55.4850   30.8530   44.2150 O   0  0  0  0  0  0  0  0  0  0  0  0
   57.3840   31.8120   43.2990 N   0  0  0  0  0  0  0  0  0  0  0  0
   57.8440   33.1200   43.7600 C   0  0  0  0  0  0  0  0  0  0  0  0
   57.0820   33.5250   45.0230 C   0  0  0  0  0  0  0  0  0  0  0  0
   58.0320   33.6800   46.1830 C   0  0  0  0  0  0  0  0  0  0  0  0
   57.8410   32.9340   47.3560 C   0  0  0  0  0  0  0  0  0  0  0  0
   58.8040   32.9520   48.3660 C   0  0  0  0  0  0  0  0  0  0  0  0
   59.9720   33.7110   48.2140 C   0  0  0  0  0  0  0  0  0  0  0  0
   61.2480   33.6240   49.4260 S   0  0  0  0  0  0  0  0  0  0  0  0
   62.0600   34.8880   49.3830 O   0  0  0  0  0  0  0  0  0  0  0  0
   60.6180   33.5300   50.7880 O   0  0  0  0  0  0  0  0  0  0  0  0
   62.2980   32.2400   49.1850 N   0  0  0  0  0  0  0  0  0  0  0  0
   62.3980   31.8390   47.7660 C   0  0  0  0  0  0  0  0  0  0  0  0
   63.7010   32.3140   47.1000 C   0  0  0  0  0  0  0  0  0  0  0  0
   64.1640   33.5000   47.7040 O   0  0  0  0  0  0  0  0  0  0  0  0
   64.6140   33.2190   49.0130 C   0  0  0  0  0  0  0  0  0  0  0  0
   63.6070   32.3950   49.8460 C   0  0  0  0  0  0  0  0  0  0  0  0
   60.1430   34.4950   47.0640 C   0  0  0  0  0  0  0  0  0  0  0  0
   59.1830   34.4690   46.0490 C   0  0  0  0  0  0  0  0  0  0  0  0
   57.1240   28.4450   44.7490 C   0  0  0  0  0  0  0  0  0  0  0  0
   57.8320   27.4630   45.4430 C   0  0  0  0  0  0  0  0  0  0  0  0
   58.9330   27.8080   46.2430 C   0  0  0  0  0  0  0  0  0  0  0  0
   59.8310   26.5460   47.0840 S   0  0  0  0  0  0  0  0  0  0  0  0
   61.1460   26.3280   46.3920 O   0  0  0  0  0  0  0  0  0  0  0  0
   59.0460   25.2660   47.0460 O   0  0  0  0  0  0  0  0  0  0  0  0
   60.1140   26.9470   48.7460 N   0  0  0  0  0  0  0  0  0  0  0  0
   58.9536   29.6724   48.6301 H   0  0  0  0  0  0  0  0  0  0  0  0
   60.5916   30.3388   49.0822 H   0  0  0  0  0  0  0  0  0  0  0  0
   60.7600   30.5090   46.9140 H   0  0  0  0  0  0  0  0  0  0  0  0
   61.2780   28.9240   46.9960 H   0  0  0  0  0  0  0  0  0  0  0  0
   58.9244   31.1893   45.6888 H   0  0  0  0  0  0  0  0  0  0  0  0
   58.9199   33.0702   43.9835 H   0  0  0  0  0  0  0  0  0  0  0  0
   57.6617   33.8660   42.9724 H   0  0  0  0  0  0  0  0  0  0  0  0
   56.5680   34.4811   44.8452 H   0  0  0  0  0  0  0  0  0  0  0  0
   56.3491   32.7410   45.2643 H   0  0  0  0  0  0  0  0  0  0  0  0
   56.9284   32.3325   47.4800 H   0  0  0  0  0  0  0  0  0  0  0  0
   58.6455   32.3682   49.2847 H   0  0  0  0  0  0  0  0  0  0  0  0
   62.3538   30.7414   47.7075 H   0  0  0  0  0  0  0  0  0  0  0  0
   61.5619   32.3116   47.2297 H   0  0  0  0  0  0  0  0  0  0  0  0
   64.4670   31.5317   47.2059 H   0  0  0  0  0  0  0  0  0  0  0  0
   63.5033   32.5121   46.0362 H   0  0  0  0  0  0  0  0  0  0  0  0
   65.5546   32.6529   48.9440 H   0  0  0  0  0  0  0  0  0  0  0  0
   64.7450   34.1839   49.5248 H   0  0  0  0  0  0  0  0  0  0  0  0
   64.0318   31.3953   50.0196 H   0  0  0  0  0  0  0  0  0  0  0  0
   63.4366   32.9397   50.7863 H   0  0  0  0  0  0  0  0  0  0  0  0
   61.0342   35.1314   46.9608 H   0  0  0  0  0  0  0  0  0  0  0  0
   59.3312   35.0707   45.1402 H   0  0  0  0  0  0  0  0  0  0  0  0
   56.2679   28.1602   44.1198 H   0  0  0  0  0  0  0  0  0  0  0  0
   57.5249   26.4098   45.3626 H   0  0  0  0  0  0  0  0  0  0  0  0
  1  2  2  0
  2  3  1  0
  3  4  1  0
  4  5  1  0
  5  6  2  0
  6  7  1  0
  7  8  1  0
  8  9  2  0
  8 10  1  0
 10 11  1  0
 11 12  1  0
 12 13  1  0
 13 14  2  0
 14 15  1  0
 15 16  2  0
 16 17  1  0
 17 18  2  0
 17 19  2  0
 17 20  1  0
 20 21  1  0
 21 22  1  0
 22 23  1  0
 23 24  1  0
 24 25  1  0
 16 26  1  0
 26 27  2  0
  7 28  2  0
 28 29  1  0
 29 30  2  0
 30 31  1  0
 31 32  2  0
 31 33  2  0
 31 34  1  0
 34  2  1  0
 30  5  1  0
 27 13  1  0
 25 20  1  0
  3 35  1  0
  3 36  1  0
  4 37  1  0
  4 38  1  0
  6 39  1  0
 11 40  1  0
 11 41  1  0
 12 42  1  0
 12 43  1  0
 14 44  1  0
 15 45  1  0
 21 46  1  0
 21 47  1  0
 22 48  1  0
 22 49  1  0
 24 50  1  0
 24 51  1  0
 25 52  1  0
 25 53  1  0
 26 54  1  0
 27 55  1  0
 28 56  1  0
 29 57  1  0
M  CHG  3   4   1  10  -1  34  -1
M  END
>  <UniqueID>  (88) 
84

>  <SMILES>  (88) 
O=C1C[NH2+]c2cc(C(=O)[N-]CCc3ccc(S(=O)(=O)N4CCOCC4)cc3)ccc2S(=O)(=O)[N-]1

>  <Energy>  (88) 
82.4760898432553

>  <Genealogy>  (88) 
O=C1C[NH2+]c2cc(C(=O)[N-]CCc3ccc(S(=O)(=O)N4CCOCC4)cc3)ccc2S(=O)(=O)[N-]1 (protonated)
O=C1C[NH2+]c2cc(C(=O)[N-]CCc3ccc(S(=O)(=O)N4CCOCC4)cc3)ccc2S(=O)(=O)[N-]1 (3D coordinates assigned)
O=C1C[NH2+]c2cc(C(=O)[N-]CCc3ccc(S(=O)(=O)N4CCOCC4)cc3)ccc2S(=O)(=O)[N-]1 (nonaromatic ring conformer: 82.4760898432553 kcal/mol)

>  <smiles>  (88) 
O=C1CNc2cc(C(=O)NCCc3ccc(S(=O)(=O)N4CCOCC4)cc3)ccc2S(=O)(=O)N1

>  <score_type>  (88) 
oracle

>  <origin>  (88) 
adg

>  <m_score__min__energy>  (88) 
-8.6099999999999994

>  <m_primary>  (88) 
energy

$$$$
88:0
     RDKit          3D

 45 48  0  0  0  0  0  0  0  0999 V2000
   57.8730   29.0180   55.9630 C   0  0  0  0  0  0  0  0  0  0  0  0
   58.6060   28.7110   54.6920 C   0  0  0  0  0  0  0  0  0  0  0  0
   59.4670   27.6610   54.6490 N   0  0  0  0  0  0  0  0  0  0  0  0
   59.8980   27.6600   53.3810 C   0  0  0  0  0  0  0  0  0  0  0  0
   60.8320   26.7980   52.8110 C   0  0  0  0  0  0  0  0  0  0  0  0
   61.1740   27.0000   51.4620 C   0  0  0  0  0  0  0  0  0  0  0  0
   62.1010   26.1650   50.8510 O   0  0  0  0  0  0  0  0  0  0  0  0
   60.5830   28.0510   50.7280 C   0  0  0  0  0  0  0  0  0  0  0  0
   59.6430   28.9040   51.3350 C   0  0  0  0  0  0  0  0  0  0  0  0
   59.3120   28.6690   52.6770 C   0  0  0  0  0  0  0  0  0  0  0  0
   58.4580   29.3450   53.4790 N   0  0  0  0  0  0  0  0  0  0  0  0
   57.7140   30.5670   53.0870 C   0  0  0  0  0  0  0  0  0  0  0  0
   56.9480   30.4470   51.7410 C   0  0  0  0  0  0  0  0  0  0  0  0
   55.4840   30.9080   51.8270 C   0  0  0  0  0  0  0  0  0  0  0  0
   54.8200   30.3640   53.0220 N   0  0  0  0  0  0  0  0  0  0  0  0
   53.4670   29.8680   52.9670 C   0  0  0  0  0  0  0  0  0  0  0  0
   53.0790   29.0290   53.8270 O   0  0  0  0  0  0  0  0  0  0  0  0
   52.5160   30.2980   51.8770 C   0  0  0  0  0  0  0  0  0  0  0  0
   51.5680   31.3560   52.3590 C   0  0  0  0  0  0  0  0  0  0  0  0
   50.9700   31.4180   53.5990 C   0  0  0  0  0  0  0  0  0  0  0  0
   50.1320   32.5180   53.5630 C   0  0  0  0  0  0  0  0  0  0  0  0
   50.1770   33.1270   52.3600 N   0  0  0  0  0  0  0  0  0  0  0  0
   51.0510   32.4070   51.6340 C   0  0  0  0  0  0  0  0  0  0  0  0
   51.3690   32.6990   50.3140 O   0  0  0  0  0  0  0  0  0  0  0  0
   55.4880   30.4150   54.3330 C   0  0  0  0  0  0  0  0  0  0  0  0
   56.8560   31.0930   54.2540 C   0  0  0  0  0  0  0  0  0  0  0  0
   58.5048   28.7534   56.8237 H   0  0  0  0  0  0  0  0  0  0  0  0
   57.6351   30.0914   55.9990 H   0  0  0  0  0  0  0  0  0  0  0  0
   56.9412   28.4345   55.9990 H   0  0  0  0  0  0  0  0  0  0  0  0
   61.2872   25.9859   53.3969 H   0  0  0  0  0  0  0  0  0  0  0  0
   60.8592   28.2042   49.6743 H   0  0  0  0  0  0  0  0  0  0  0  0
   59.1819   29.7301   50.7738 H   0  0  0  0  0  0  0  0  0  0  0  0
   58.4692   31.3378   52.8735 H   0  0  0  0  0  0  0  0  0  0  0  0
   57.4640   31.0636   50.9903 H   0  0  0  0  0  0  0  0  0  0  0  0
   56.9368   29.3814   51.4683 H   0  0  0  0  0  0  0  0  0  0  0  0
   55.4566   32.0068   51.8711 H   0  0  0  0  0  0  0  0  0  0  0  0
   54.9520   30.5401   50.9373 H   0  0  0  0  0  0  0  0  0  0  0  0
   53.0973   30.6970   51.0326 H   0  0  0  0  0  0  0  0  0  0  0  0
   51.9268   29.4219   51.5682 H   0  0  0  0  0  0  0  0  0  0  0  0
   51.1270   30.7326   54.4449 H   0  0  0  0  0  0  0  0  0  0  0  0
   49.5096   32.8528   54.4060 H   0  0  0  0  0  0  0  0  0  0  0  0
   54.8530   30.9775   55.0333 H   0  0  0  0  0  0  0  0  0  0  0  0
   55.6410   29.3812   54.6763 H   0  0  0  0  0  0  0  0  0  0  0  0
   56.7056   32.1745   54.1206 H   0  0  0  0  0  0  0  0  0  0  0  0
   57.3922   30.8690   55.1879 H   0  0  0  0  0  0  0  0  0  0  0  0
  1  2  1  0
  2  3  2  0
  3  4  1  0
  4  5  2  0
  5  6  1  0
  6  7  1  0
  6  8  2  0
  8  9  1  0
  9 10  2  0
 10 11  1  0
 11 12  1  0
 12 13  1  0
 13 14  1  0
 14 15  1  0
 15 16  1  0
 16 17  2  0
 16 18  1  0
 18 19  1  0
 19 20  1  0
 20 21  2  0
 21 22  1  0
 22 23  1  0
 23 24  1  0
 15 25  1  0
 25 26  1  0
 11  2  1  0
 26 12  1  0
 10  4  1  0
 23 19  2  0
  1 27  1  0
  1 28  1  0
  1 29  1  0
  5 30  1  0
  8 31  1  0
  9 32  1  0
 12 33  1  0
 13 34  1  0
 13 35  1  0
 14 36  1  0
 14 37  1  0
 18 38  1  0
 18 39  1  0
 20 40  1  0
 21 41  1  0
 25 42  1  0
 25 43  1  0
 26 44  1  0
 26 45  1  0
M  CHG  3   7  -1  22  -1  24  -1
M  END
>  <UniqueID>  (89) 
85

>  <SMILES>  (89) 
Cc1nc2cc([O-])ccc2n1C1CCN(C(=O)Cc2cc[n-]c2[O-])CC1

>  <Energy>  (89) 
120.17429183858205

>  <Genealogy>  (89) 
Cc1nc2cc([O-])ccc2n1C1CCN(C(=O)Cc2cc[n-]c2[O-])CC1 (protonated)
Cc1nc2cc([O-])ccc2n1C1CCN(C(=O)Cc2cc[n-]c2[O-])CC1 (3D coordinates assigned)
Cc1nc2cc([O-])ccc2n1C1CCN(C(=O)Cc2cc[n-]c2[O-])CC1 (nonaromatic ring conformer: 120.17429183858205 kcal/mol)

>  <smiles>  (89) 
Cc1nc2cc(O)ccc2n1C1CCN(C(=O)Cc2cc[nH]c2O)CC1

>  <score_type>  (89) 
oracle

>  <origin>  (89) 
adg

>  <m_score__min__energy>  (89) 
-14.41

>  <m_primary>  (89) 
energy

$$$$
