0:0
     RDKit          3D

 50 52  0  0  0  0  0  0  0  0999 V2000
   67.1080   30.3760   50.9430 C   0  0  0  0  0  0  0  0  0  0  0  0
   66.1220   31.3860   51.3610 N   0  0  0  0  0  0  0  0  0  0  0  0
   66.3870   31.8360   52.7360 C   0  0  0  0  0  0  0  0  0  0  0  0
   66.1440   32.5140   50.4500 C   0  0  0  0  0  0  0  0  0  0  0  0
   67.1270   32.7250   49.7520 O   0  0  0  0  0  0  0  0  0  0  0  0
   64.9520   33.4240   50.3230 C   0  0  0  0  0  0  0  0  0  0  0  0
   63.8630   32.7360   49.5470 C   0  0  0  0  0  0  0  0  0  0  0  0
   63.0430   31.7830   50.1690 C   0  0  0  0  0  0  0  0  0  0  0  0
   62.0050   31.1730   49.4590 C   0  0  0  0  0  0  0  0  0  0  0  0
   61.7620   31.5180   48.1180 C   0  0  0  0  0  0  0  0  0  0  0  0
   60.6980   30.8830   47.3830 N   0  0  0  0  0  0  0  0  0  0  0  0
   59.3060   31.0000   47.8300 C   0  0  0  0  0  0  0  0  0  0  0  0
   58.6930   29.6050   47.9700 C   0  0  0  0  0  0  0  0  0  0  0  0
   58.9810   28.7700   46.7920 N   0  0  0  0  0  0  0  0  0  0  0  0
   58.3780   27.4660   46.6850 C   0  0  0  0  0  0  0  0  0  0  0  0
   57.0950   27.2640   46.3150 N   0  0  0  0  0  0  0  0  0  0  0  0
   56.7610   25.9440   46.2810 C   0  0  0  0  0  0  0  0  0  0  0  0
   55.4190   25.5390   45.8240 C   0  0  0  0  0  0  0  0  0  0  0  0
   54.4440   26.3200   45.9900 O   0  0  0  0  0  0  0  0  0  0  0  0
   55.2190   24.3450   45.1440 O   0  0  0  0  0  0  0  0  0  0  0  0
   57.8040   25.0730   46.6460 C   0  0  0  0  0  0  0  0  0  0  0  0
   57.7730   23.6110   46.8260 C   0  0  0  0  0  0  0  0  0  0  0  0
   58.2180   22.8370   45.9380 O   0  0  0  0  0  0  0  0  0  0  0  0
   57.1870   23.0700   47.9620 O   0  0  0  0  0  0  0  0  0  0  0  0
   59.1600   26.0080   46.9900 S   0  0  0  0  0  0  0  0  0  0  0  0
   59.7820   29.3120   45.6830 C   0  0  0  0  0  0  0  0  0  0  0  0
   61.0200   30.0430   46.2200 C   0  0  0  0  0  0  0  0  0  0  0  0
   62.5820   32.4760   47.4990 C   0  0  0  0  0  0  0  0  0  0  0  0
   63.6200   33.0840   48.2100 C   0  0  0  0  0  0  0  0  0  0  0  0
   67.5593   29.9137   51.8333 H   0  0  0  0  0  0  0  0  0  0  0  0
   66.6081   29.6024   50.3417 H   0  0  0  0  0  0  0  0  0  0  0  0
   67.8934   30.8572   50.3417 H   0  0  0  0  0  0  0  0  0  0  0  0
   65.1780   30.9350   51.3450 H   0  0  0  0  0  0  0  0  0  0  0  0
   65.9611   31.1128   53.4470 H   0  0  0  0  0  0  0  0  0  0  0  0
   67.4730   31.9101   52.8947 H   0  0  0  0  0  0  0  0  0  0  0  0
   65.9251   32.8216   52.8947 H   0  0  0  0  0  0  0  0  0  0  0  0
   64.5796   33.6793   51.3261 H   0  0  0  0  0  0  0  0  0  0  0  0
   65.2509   34.3403   49.7929 H   0  0  0  0  0  0  0  0  0  0  0  0
   63.2178   31.5143   51.2212 H   0  0  0  0  0  0  0  0  0  0  0  0
   61.3746   30.4186   49.9524 H   0  0  0  0  0  0  0  0  0  0  0  0
   59.2757   31.5125   48.8028 H   0  0  0  0  0  0  0  0  0  0  0  0
   58.7324   31.5787   47.0910 H   0  0  0  0  0  0  0  0  0  0  0  0
   59.1107   29.1188   48.8639 H   0  0  0  0  0  0  0  0  0  0  0  0
   57.6020   29.7140   48.0582 H   0  0  0  0  0  0  0  0  0  0  0  0
   60.1037   28.4860   45.0316 H   0  0  0  0  0  0  0  0  0  0  0  0
   59.1664   30.0254   45.1155 H   0  0  0  0  0  0  0  0  0  0  0  0
   61.7725   29.2976   46.5169 H   0  0  0  0  0  0  0  0  0  0  0  0
   61.4032   30.6966   45.4225 H   0  0  0  0  0  0  0  0  0  0  0  0
   62.4059   32.7492   46.4481 H   0  0  0  0  0  0  0  0  0  0  0  0
   64.2502   33.8398   47.7184 H   0  0  0  0  0  0  0  0  0  0  0  0
  1  2  1  0
  2  3  1  0
  2  4  1  0
  4  5  2  0
  4  6  1  0
  6  7  1  0
  7  8  2  0
  8  9  1  0
  9 10  2  0
 10 11  1  0
 11 12  1  0
 12 13  1  0
 13 14  1  0
 14 15  1  0
 15 16  2  0
 16 17  1  0
 17 18  1  0
 18 19  2  0
 18 20  1  0
 17 21  2  0
 21 22  1  0
 22 23  2  0
 22 24  1  0
 21 25  1  0
 14 26  1  0
 26 27  1  0
 10 28  1  0
 28 29  2  0
 29  7  1  0
 27 11  1  0
 25 15  1  0
  1 30  1  0
  1 31  1  0
  1 32  1  0
  2 33  1  0
  3 34  1  0
  3 35  1  0
  3 36  1  0
  6 37  1  0
  6 38  1  0
  8 39  1  0
  9 40  1  0
 12 41  1  0
 12 42  1  0
 13 43  1  0
 13 44  1  0
 26 45  1  0
 26 46  1  0
 27 47  1  0
 27 48  1  0
 28 49  1  0
 29 50  1  0
M  CHG  3   2   1  20  -1  24  -1
M  END
>  <UniqueID>  (1) 
1

>  <SMILES>  (1) 
C[NH+](C)C(=O)Cc1ccc(N2CCN(c3nc(C(=O)[O-])c(C(=O)[O-])s3)CC2)cc1

>  <Energy>  (1) 
86.70133876478447

>  <Genealogy>  (1) 
C[NH+](C)C(=O)Cc1ccc(N2CCN(c3nc(C(=O)[O-])c(C(=O)[O-])s3)CC2)cc1 (protonated)
C[NH+](C)C(=O)Cc1ccc(N2CCN(c3nc(C(=O)[O-])c(C(=O)[O-])s3)CC2)cc1 (3D coordinates assigned)
C[NH+](C)C(=O)Cc1ccc(N2CCN(c3nc(C(=O)[O-])c(C(=O)[O-])s3)CC2)cc1 (nonaromatic ring conformer: 86.70133876478447 kcal/mol)

>  <smiles>  (1) 
CN(C)C(=O)Cc1ccc(N2CCN(c3nc(C(=O)O)c(C(=O)O)s3)CC2)cc1

>  <score_type>  (1) 
oracle

>  <origin>  (1) 
adg

>  <m_score__min__energy>  (1) 
-10.44

>  <m_primary>  (1) 
energy

$$$$
1:0
     RDKit          3D

 26 27  0  0  0  0  0  0  0  0999 V2000
   52.0250   29.9430   50.0130 N   0  0  0  0  0  0  0  0  0  0  0  0
   52.3770   31.0590   50.8970 C   0  0  2  0  0  0  0  0  0  0  0  0
   52.4140   30.6330   52.3790 C   0  0  0  0  0  0  0  0  0  0  0  0
   53.6170   29.7870   52.6830 C   0  0  0  0  0  0  0  0  0  0  0  0
   53.6150   28.4760   53.1490 C   0  0  0  0  0  0  0  0  0  0  0  0
   54.8800   28.0090   53.2520 N   0  0  0  0  0  0  0  0  0  0  0  0
   55.6800   29.0110   52.8450 C   0  0  0  0  0  0  0  0  0  0  0  0
   57.0710   29.0000   52.7610 C   0  0  0  0  0  0  0  0  0  0  0  0
   57.7110   30.1630   52.2900 C   0  0  0  0  0  0  0  0  0  0  0  0
   56.9530   31.2950   51.9180 C   0  0  0  0  0  0  0  0  0  0  0  0
   55.5500   31.2770   52.0140 C   0  0  0  0  0  0  0  0  0  0  0  0
   54.9450   30.1110   52.4860 C   0  0  0  0  0  0  0  0  0  0  0  0
   51.3940   32.1780   50.7070 C   0  0  0  0  0  0  0  0  0  0  0  0
   51.2120   33.0290   51.6180 O   0  0  0  0  0  0  0  0  0  0  0  0
   50.6970   32.2950   49.5110 O   0  0  0  0  0  0  0  0  0  0  0  0
   52.0040   29.0600   50.5730 H   0  0  0  0  0  0  0  0  0  0  0  0
   51.0650   30.0910   49.6230 H   0  0  0  0  0  0  0  0  0  0  0  0
   53.3883   31.3980   50.6281 H   0  0  0  0  0  0  0  0  0  0  0  0
   52.4437   31.5345   53.0086 H   0  0  0  0  0  0  0  0  0  0  0  0
   51.5135   30.0367   52.5874 H   0  0  0  0  0  0  0  0  0  0  0  0
   52.7115   27.9003   53.3986 H   0  0  0  0  0  0  0  0  0  0  0  0
   55.1720   27.0590   53.5710 H   0  0  0  0  0  0  0  0  0  0  0  0
   57.6504   28.1118   53.0531 H   0  0  0  0  0  0  0  0  0  0  0  0
   58.8079   30.1897   52.2115 H   0  0  0  0  0  0  0  0  0  0  0  0
   57.4636   32.1973   51.5505 H   0  0  0  0  0  0  0  0  0  0  0  0
   54.9494   32.1526   51.7267 H   0  0  0  0  0  0  0  0  0  0  0  0
  1  2  1  0
  2  3  1  0
  3  4  1  0
  4  5  2  0
  5  6  1  0
  6  7  1  0
  7  8  2  0
  8  9  1  0
  9 10  2  0
 10 11  1  0
 11 12  2  0
  2 13  1  0
 13 14  2  0
 13 15  1  0
 12  4  1  0
 12  7  1  0
  1 16  1  0
  1 17  1  0
  2 18  1  6
  3 19  1  0
  3 20  1  0
  5 21  1  0
  6 22  1  0
  8 23  1  0
  9 24  1  0
 10 25  1  0
 11 26  1  0
M  CHG  1  15  -1
M  END
>  <UniqueID>  (2) 
2

>  <SMILES>  (2) 
N[C@H](Cc1c[nH]c2ccccc12)C(=O)[O-]

>  <Energy>  (2) 
55.80540624697104

>  <Genealogy>  (2) 
NC(Cc1c[nH]c2ccccc12)C(=O)[O-] (protonated)
N[C@H](Cc1c[nH]c2ccccc12)C(=O)[O-] (chirality)
N[C@H](Cc1c[nH]c2ccccc12)C(=O)[O-] (3D coordinates assigned)
N[C@H](Cc1c[nH]c2ccccc12)C(=O)[O-] (optimized conformer: 55.80540624697104 kcal/mol)

>  <smiles>  (2) 
NC(Cc1c[nH]c2ccccc12)C(=O)O

>  <score_type>  (2) 
oracle

>  <origin>  (2) 
adg

>  <m_score__min__energy>  (2) 
-9.3100000000000005

>  <m_primary>  (2) 
energy

$$$$
2:0
     RDKit          3D

 42 44  0  0  0  0  0  0  0  0999 V2000
   57.0600   22.9660   47.8670 O   0  0  0  0  0  0  0  0  0  0  0  0
   56.8450   23.6160   46.8090 C   0  0  0  0  0  0  0  0  0  0  0  0
   57.9340   24.3450   46.2220 N   0  0  0  0  0  0  0  0  0  0  0  0
   57.9780   25.6300   46.0170 C   0  0  0  0  0  0  0  0  0  0  0  0
   57.9850   26.1170   44.7060 C   0  0  0  0  0  0  0  0  0  0  0  0
   58.0460   27.4930   44.4830 C   0  0  0  0  0  0  0  0  0  0  0  0
   58.1070   28.3850   45.5660 C   0  0  0  0  0  0  0  0  0  0  0  0
   58.1730   29.8100   45.3480 N   0  0  0  0  0  0  0  0  0  0  0  0
   57.4630   30.3930   44.2020 C   0  0  0  0  0  0  0  0  0  0  0  0
   57.7590   31.8860   44.0750 C   0  0  0  0  0  0  0  0  0  0  0  0
   57.5910   32.5170   45.3950 N   0  0  0  0  0  0  0  0  0  0  0  0
   57.5940   33.9910   45.2690 C   0  0  0  0  0  0  0  0  0  0  0  0
   58.9420   34.5850   45.6870 C   0  0  0  0  0  0  0  0  0  0  0  0
   58.8780   35.0260   46.9970 F   0  0  0  0  0  0  0  0  0  0  0  0
   59.2530   35.6520   44.8660 F   0  0  0  0  0  0  0  0  0  0  0  0
   58.6100   32.0460   46.3690 C   0  0  0  0  0  0  0  0  0  0  0  0
   59.1470   30.6250   46.0870 C   0  0  0  0  0  0  0  0  0  0  0  0
   58.1110   27.8520   46.8660 C   0  0  0  0  0  0  0  0  0  0  0  0
   58.0520   26.5080   47.0570 N   0  0  0  0  0  0  0  0  0  0  0  0
   55.5060   23.5440   46.1710 C   0  0  0  0  0  0  0  0  0  0  0  0
   54.9520   22.3050   45.8160 C   0  0  0  0  0  0  0  0  0  0  0  0
   53.7190   22.2440   45.2510 N   0  0  0  0  0  0  0  0  0  0  0  0
   52.9970   23.3700   45.0230 C   0  0  0  0  0  0  0  0  0  0  0  0
   51.8580   23.2910   44.4970 O   0  0  0  0  0  0  0  0  0  0  0  0
   53.5040   24.5820   45.3650 N   0  0  0  0  0  0  0  0  0  0  0  0
   54.7330   24.6960   45.9340 C   0  0  0  0  0  0  0  0  0  0  0  0
   55.1700   25.8390   46.2300 O   0  0  0  0  0  0  0  0  0  0  0  0
   57.9427   25.4198   43.8562 H   0  0  0  0  0  0  0  0  0  0  0  0
   58.0463   27.8811   43.4537 H   0  0  0  0  0  0  0  0  0  0  0  0
   57.7853   29.8831   43.2822 H   0  0  0  0  0  0  0  0  0  0  0  0
   56.3818   30.2626   44.3570 H   0  0  0  0  0  0  0  0  0  0  0  0
   58.7920   32.0297   43.7253 H   0  0  0  0  0  0  0  0  0  0  0  0
   57.0685   32.3437   43.3513 H   0  0  0  0  0  0  0  0  0  0  0  0
   57.3933   34.2610   44.2217 H   0  0  0  0  0  0  0  0  0  0  0  0
   56.8163   34.3967   45.9328 H   0  0  0  0  0  0  0  0  0  0  0  0
   59.7165   33.8089   45.5991 H   0  0  0  0  0  0  0  0  0  0  0  0
   59.4582   32.7460   46.3464 H   0  0  0  0  0  0  0  0  0  0  0  0
   58.1149   32.0076   47.3505 H   0  0  0  0  0  0  0  0  0  0  0  0
   60.0689   30.7044   45.4922 H   0  0  0  0  0  0  0  0  0  0  0  0
   59.3402   30.1348   47.0526 H   0  0  0  0  0  0  0  0  0  0  0  0
   58.1622   28.5262   47.7336 H   0  0  0  0  0  0  0  0  0  0  0  0
   55.5187   21.3795   45.9961 H   0  0  0  0  0  0  0  0  0  0  0  0
  1  2  2  0
  2  3  1  0
  3  4  2  3
  4  5  1  0
  5  6  2  0
  6  7  1  0
  7  8  1  0
  8  9  1  0
  9 10  1  0
 10 11  1  0
 11 12  1  0
 12 13  1  0
 13 14  1  0
 13 15  1  0
 11 16  1  0
 16 17  1  0
  7 18  2  0
 18 19  1  0
  2 20  1  0
 20 21  2  0
 21 22  1  0
 22 23  1  0
 23 24  2  0
 23 25  1  0
 25 26  1  0
 26 27  2  0
 19  4  1  0
 26 20  1  0
 17  8  1  0
  5 28  1  0
  6 29  1  0
  9 30  1  0
  9 31  1  0
 10 32  1  0
 10 33  1  0
 12 34  1  0
 12 35  1  0
 13 36  1  0
 16 37  1  0
 16 38  1  0
 17 39  1  0
 17 40  1  0
 18 41  1  0
 21 42  1  0
M  CHG  3  19  -1  22  -1  25  -1
M  END
>  <UniqueID>  (3) 
3

>  <SMILES>  (3) 
O=C(N=c1ccc(N2CCN(CC(F)F)CC2)c[n-]1)c1c[n-]c(=O)[n-]c1=O

>  <Energy>  (3) 
62.80514908706114

>  <Genealogy>  (3) 
O=C(N=c1ccc(N2CCN(CC(F)F)CC2)c[n-]1)c1c[n-]c(=O)[n-]c1=O (protonated)
O=C(N=c1ccc(N2CCN(CC(F)F)CC2)c[n-]1)c1c[n-]c(=O)[n-]c1=O (3D coordinates assigned)
O=C(N=c1ccc(N2CCN(CC(F)F)CC2)c[n-]1)c1c[n-]c(=O)[n-]c1=O (nonaromatic ring conformer: 62.80514908706114 kcal/mol)

>  <smiles>  (3) 
O=C(N=c1ccc(N2CCN(CC(F)F)CC2)c[nH]1)c1c[nH]c(=O)[nH]c1=O

>  <score_type>  (3) 
oracle

>  <origin>  (3) 
adg

>  <m_score__min__energy>  (3) 
-12.449999999999999

>  <m_primary>  (3) 
energy

$$$$
3:0
     RDKit          3D

 48 51  0  0  0  0  0  0  0  0999 V2000
   54.3430   26.7150   46.8080 H   0  0  0  0  0  0  0  0  0  0  0  0
   54.6120   26.3220   45.9210 O   0  0  0  0  0  0  0  0  0  0  0  0
   54.2220   25.0430   45.5250 C   0  0  0  0  0  0  0  0  0  0  0  0
   52.9380   24.6450   45.4930 N   0  0  0  0  0  0  0  0  0  0  0  0
   53.0320   23.3610   45.0840 C   0  0  0  0  0  0  0  0  0  0  0  0
   52.0210   22.6210   44.9340 O   0  0  0  0  0  0  0  0  0  0  0  0
   54.2920   22.9320   44.8590 N   0  0  0  0  0  0  0  0  0  0  0  0
   55.0540   24.0060   45.1450 C   0  0  0  0  0  0  0  0  0  0  0  0
   56.5270   24.0870   44.9590 C   0  0  0  0  0  0  0  0  0  0  0  0
   57.0375   23.1915   44.5751 H   0  0  0  0  0  0  0  0  0  0  0  0
   57.2900   25.1710   45.2230 C   0  0  0  0  0  0  0  0  0  0  0  0
   57.8100   26.0780   44.3070 C   0  0  0  0  0  0  0  0  0  0  0  0
   57.6777   26.0551   43.2152 H   0  0  0  0  0  0  0  0  0  0  0  0
   58.5250   27.0140   45.0300 C   0  0  0  0  0  0  0  0  0  0  0  0
   59.3400   28.1270   44.4170 C   0  0  0  0  0  0  0  0  0  0  0  0
   60.1593   28.3747   45.1079 H   0  0  0  0  0  0  0  0  0  0  0  0
   59.6975   27.7567   43.4448 H   0  0  0  0  0  0  0  0  0  0  0  0
   58.5390   29.4210   44.1310 C   0  0  0  0  0  0  0  0  0  0  0  0
   58.9323   29.7852   43.1704 H   0  0  0  0  0  0  0  0  0  0  0  0
   57.0220   29.2000   43.9300 C   0  0  0  0  0  0  0  0  0  0  0  0
   56.8609   28.5932   43.0268 H   0  0  0  0  0  0  0  0  0  0  0  0
   56.6176   28.6813   44.8117 H   0  0  0  0  0  0  0  0  0  0  0  0
   56.2990   30.5480   43.7700 C   0  0  0  0  0  0  0  0  0  0  0  0
   56.6471   31.0348   42.8471 H   0  0  0  0  0  0  0  0  0  0  0  0
   55.2162   30.3599   43.7238 H   0  0  0  0  0  0  0  0  0  0  0  0
   56.5610   31.4040   44.8730 O   0  0  0  0  0  0  0  0  0  0  0  0
   57.9410   31.7280   44.9160 C   0  0  0  0  0  0  0  0  0  0  0  0
   58.2475   32.1379   43.9423 H   0  0  0  0  0  0  0  0  0  0  0  0
   58.1082   32.4718   45.7090 H   0  0  0  0  0  0  0  0  0  0  0  0
   58.7720   30.4820   45.2220 C   0  0  0  0  0  0  0  0  0  0  0  0
   59.8382   30.7512   45.2483 H   0  0  0  0  0  0  0  0  0  0  0  0
   58.4696   30.0734   46.1975 H   0  0  0  0  0  0  0  0  0  0  0  0
   58.4740   26.7240   46.3490 N   0  0  0  0  0  0  0  0  0  0  0  0
   59.0200   27.5230   47.4140 C   0  0  0  0  0  0  0  0  0  0  0  0
   58.3850   28.7110   47.8050 C   0  0  0  0  0  0  0  0  0  0  0  0
   57.4400   29.0097   47.3278 H   0  0  0  0  0  0  0  0  0  0  0  0
   58.9490   29.5180   48.8000 C   0  0  0  0  0  0  0  0  0  0  0  0
   58.4482   30.4498   49.1015 H   0  0  0  0  0  0  0  0  0  0  0  0
   60.1490   29.1400   49.4110 C   0  0  0  0  0  0  0  0  0  0  0  0
   60.5923   29.7746   50.1925 H   0  0  0  0  0  0  0  0  0  0  0  0
   60.7850   27.9550   49.0280 C   0  0  0  0  0  0  0  0  0  0  0  0
   61.7257   27.6552   49.5130 H   0  0  0  0  0  0  0  0  0  0  0  0
   60.2270   27.1500   48.0290 C   0  0  0  0  0  0  0  0  0  0  0  0
   60.8740   26.0230   47.6390 F   0  0  0  0  0  0  0  0  0  0  0  0
   57.7170   25.6060   46.4830 C   0  0  0  0  0  0  0  0  0  0  0  0
   57.4080   25.0490   47.6670 C   0  0  0  0  0  0  0  0  0  0  0  0
   57.8044   25.4804   48.5980 H   0  0  0  0  0  0  0  0  0  0  0  0
   56.7588   24.1618   47.7047 H   0  0  0  0  0  0  0  0  0  0  0  0
  1  2  1  0
  2  3  1  0
  3  4  1  0
  4  5  1  0
  5  6  2  0
  5  7  1  0
  7  8  1  0
  8  9  1  0
  9 10  1  0
  9 11  2  0
 11 12  1  0
 12 13  1  0
 12 14  2  0
 14 15  1  0
 15 16  1  0
 15 17  1  0
 15 18  1  0
 18 19  1  0
 18 20  1  0
 20 21  1  0
 20 22  1  0
 20 23  1  0
 23 24  1  0
 23 25  1  0
 23 26  1  0
 26 27  1  0
 27 28  1  0
 27 29  1  0
 27 30  1  0
 30 31  1  0
 30 32  1  0
 14 33  1  0
 33 34  1  0
 34 35  2  0
 35 36  1  0
 35 37  1  0
 37 38  1  0
 37 39  2  0
 39 40  1  0
 39 41  1  0
 41 42  1  0
 41 43  2  0
 43 44  1  0
 33 45  1  0
 45 46  2  0
 46 47  1  0
 46 48  1  0
  8  3  2  0
 45 11  1  0
 30 18  1  0
 43 34  1  0
M  CHG  2   4  -1   7  -1
M  END
>  <UniqueID>  (4) 
4

>  <SMILES>  (4) 
C=c1/c(=C/c2[n-]c(=O)[n-]c2O)cc(CC2CCOCC2)n1-c1ccccc1F

>  <Energy>  (4) 
119.58030254995994

>  <Genealogy>  (4) 
C=c1c(=Cc2[n-]c(=O)[n-]c2O)cc(CC2CCOCC2)n1-c1ccccc1F (protonated)
C=c1/c(=C/c2[n-]c(=O)[n-]c2O)cc(CC2CCOCC2)n1-c1ccccc1F (cis-trans isomerization)
C=c1/c(=C/c2[n-]c(=O)[n-]c2O)cc(CC2CCOCC2)n1-c1ccccc1F (3D coordinates assigned)
C=c1/c(=C/c2[n-]c(=O)[n-]c2O)cc(CC2CCOCC2)n1-c1ccccc1F (nonaromatic ring conformer: 119.58030254995994 kcal/mol)

>  <smiles>  (4) 
C=c1c(=Cc2[nH]c(=O)[nH]c2O)cc(CC2CCOCC2)n1-c1ccccc1F

>  <score_type>  (4) 
oracle

>  <origin>  (4) 
adg

>  <m_score__min__energy>  (4) 
-13.66

>  <m_primary>  (4) 
energy

$$$$
4:0
     RDKit          3D

 54 57  0  0  0  0  0  0  0  0999 V2000
   58.4690   28.5850   48.8350 O   0  0  0  0  0  0  0  0  0  0  0  0
   59.6640   28.5560   48.4220 C   0  0  0  0  0  0  0  0  0  0  0  0
   60.2770   27.2210   48.0790 C   0  0  0  0  0  0  0  0  0  0  0  0
   60.3460   26.8880   46.2820 S   0  0  0  0  0  0  0  0  0  0  0  0
   58.7210   27.5760   45.8970 C   0  0  0  0  0  0  0  0  0  0  0  0
   58.6880   28.8010   45.3090 N   0  0  0  0  0  0  0  0  0  0  0  0
   57.5170   29.3680   44.9220 C   0  0  0  0  0  0  0  0  0  0  0  0
   57.5250   30.5060   44.3870 O   0  0  0  0  0  0  0  0  0  0  0  0
   56.3290   28.6900   45.1060 C   0  0  0  0  0  0  0  0  0  0  0  0
   56.3500   27.4290   45.7180 C   0  0  0  0  0  0  0  0  0  0  0  0
   55.1460   26.7580   45.9210 O   0  0  0  0  0  0  0  0  0  0  0  0
   57.5460   26.8700   46.1060 N   0  0  0  0  0  0  0  0  0  0  0  0
   57.5660   25.5190   46.7080 C   0  0  0  0  0  0  0  0  0  0  0  0
   57.5270   24.4430   45.6460 C   0  0  0  0  0  0  0  0  0  0  0  0
   56.4400   24.3660   44.7600 C   0  0  0  0  0  0  0  0  0  0  0  0
   56.3800   23.3440   43.8070 C   0  0  0  0  0  0  0  0  0  0  0  0
   57.3980   22.3880   43.7370 C   0  0  0  0  0  0  0  0  0  0  0  0
   58.4820   22.4620   44.6190 C   0  0  0  0  0  0  0  0  0  0  0  0
   58.5460   23.4790   45.5730 C   0  0  0  0  0  0  0  0  0  0  0  0
   60.4360   29.7750   48.4070 N   0  0  0  0  0  0  0  0  0  0  0  0
   60.2680   30.7520   49.4950 C   0  0  0  0  0  0  0  0  0  0  0  0
   59.5600   32.0020   48.9560 C   0  0  0  0  0  0  0  0  0  0  0  0
   60.0520   32.3550   47.6120 N   0  0  0  0  0  0  0  0  0  0  0  0
   59.2000   33.1200   46.7320 C   0  0  0  0  0  0  0  0  0  0  0  0
   59.7260   34.1640   45.9480 C   0  0  0  0  0  0  0  0  0  0  0  0
   58.9090   34.8540   45.0480 C   0  0  0  0  0  0  0  0  0  0  0  0
   57.5610   34.5050   44.9130 C   0  0  0  0  0  0  0  0  0  0  0  0
   57.0290   33.4730   45.6860 C   0  0  0  0  0  0  0  0  0  0  0  0
   57.8410   32.7810   46.5910 C   0  0  0  0  0  0  0  0  0  0  0  0
   61.2890   31.7240   47.1220 C   0  0  0  0  0  0  0  0  0  0  0  0
   61.1360   30.1960   47.1800 C   0  0  0  0  0  0  0  0  0  0  0  0
   61.3022   27.1964   48.4770 H   0  0  0  0  0  0  0  0  0  0  0  0
   59.6362   26.4469   48.5265 H   0  0  0  0  0  0  0  0  0  0  0  0
   55.3778   29.1335   44.7766 H   0  0  0  0  0  0  0  0  0  0  0  0
   58.4857   25.4044   47.3005 H   0  0  0  0  0  0  0  0  0  0  0  0
   56.6761   25.4099   47.3453 H   0  0  0  0  0  0  0  0  0  0  0  0
   55.6333   25.1118   44.8157 H   0  0  0  0  0  0  0  0  0  0  0  0
   55.5299   23.2922   43.1109 H   0  0  0  0  0  0  0  0  0  0  0  0
   57.3470   21.5808   42.9915 H   0  0  0  0  0  0  0  0  0  0  0  0
   59.2875   21.7152   44.5602 H   0  0  0  0  0  0  0  0  0  0  0  0
   59.3964   23.5256   46.2692 H   0  0  0  0  0  0  0  0  0  0  0  0
   59.6632   30.3058   50.2982 H   0  0  0  0  0  0  0  0  0  0  0  0
   61.2551   31.0323   49.8914 H   0  0  0  0  0  0  0  0  0  0  0  0
   58.4787   31.8071   48.9026 H   0  0  0  0  0  0  0  0  0  0  0  0
   59.7695   32.8414   49.6354 H   0  0  0  0  0  0  0  0  0  0  0  0
   60.7868   34.4386   46.0442 H   0  0  0  0  0  0  0  0  0  0  0  0
   59.3269   35.6733   44.4445 H   0  0  0  0  0  0  0  0  0  0  0  0
   56.9215   35.0437   44.1982 H   0  0  0  0  0  0  0  0  0  0  0  0
   55.9677   33.2024   45.5837 H   0  0  0  0  0  0  0  0  0  0  0  0
   57.4150   31.9671   47.1960 H   0  0  0  0  0  0  0  0  0  0  0  0
   61.4743   32.0357   46.0835 H   0  0  0  0  0  0  0  0  0  0  0  0
   62.1358   32.0341   47.7519 H   0  0  0  0  0  0  0  0  0  0  0  0
   60.5598   29.8599   46.3053 H   0  0  0  0  0  0  0  0  0  0  0  0
   62.1397   29.7459   47.1806 H   0  0  0  0  0  0  0  0  0  0  0  0
  1  2  2  0
  2  3  1  0
  3  4  1  0
  4  5  1  0
  5  6  2  0
  6  7  1  0
  7  8  2  0
  7  9  1  0
  9 10  2  0
 10 11  1  0
 10 12  1  0
 12 13  1  0
 13 14  1  0
 14 15  2  0
 15 16  1  0
 16 17  2  0
 17 18  1  0
 18 19  2  0
  2 20  1  0
 20 21  1  0
 21 22  1  0
 22 23  1  0
 23 24  1  0
 24 25  2  0
 25 26  1  0
 26 27  2  0
 27 28  1  0
 28 29  2  0
 23 30  1  0
 30 31  1  0
 12  5  1  0
 19 14  1  0
 31 20  1  0
 29 24  1  0
  3 32  1  0
  3 33  1  0
  9 34  1  0
 13 35  1  0
 13 36  1  0
 15 37  1  0
 16 38  1  0
 17 39  1  0
 18 40  1  0
 19 41  1  0
 21 42  1  0
 21 43  1  0
 22 44  1  0
 22 45  1  0
 25 46  1  0
 26 47  1  0
 27 48  1  0
 28 49  1  0
 29 50  1  0
 30 51  1  0
 30 52  1  0
 31 53  1  0
 31 54  1  0
M  CHG  1  11  -1
M  END
>  <UniqueID>  (5) 
5

>  <SMILES>  (5) 
O=C(CSc1nc(=O)cc([O-])n1Cc1ccccc1)N1CCN(c2ccccc2)CC1

>  <Energy>  (5) 
67.40652061208004

>  <Genealogy>  (5) 
O=C(CSc1nc(=O)cc([O-])n1Cc1ccccc1)N1CCN(c2ccccc2)CC1 (protonated)
O=C(CSc1nc(=O)cc([O-])n1Cc1ccccc1)N1CCN(c2ccccc2)CC1 (3D coordinates assigned)
O=C(CSc1nc(=O)cc([O-])n1Cc1ccccc1)N1CCN(c2ccccc2)CC1 (nonaromatic ring conformer: 67.40652061208004 kcal/mol)

>  <smiles>  (5) 
O=C(CSc1nc(=O)cc(O)n1Cc1ccccc1)N1CCN(c2ccccc2)CC1

>  <score_type>  (5) 
oracle

>  <origin>  (5) 
adg

>  <m_score__min__energy>  (5) 
-12.380000000000001

>  <m_primary>  (5) 
energy

$$$$
5:0
     RDKit          3D

 57 60  0  0  0  0  0  0  0  0999 V2000
   60.3418   28.7455   47.5174 H   0  0  0  0  0  0  0  0  0  0  0  0
   59.7410   28.1760   46.7930 C   0  0  0  0  0  0  0  0  0  0  0  0
   59.9619   27.1142   46.6093 H   0  0  0  0  0  0  0  0  0  0  0  0
   58.7380   28.7770   46.1330 C   0  0  0  0  0  0  0  0  0  0  0  0
   57.8870   28.1880   45.1840 C   0  0  0  0  0  0  0  0  0  0  0  0
   57.6900   26.8980   44.8510 C   0  0  0  0  0  0  0  0  0  0  0  0
   57.9431   26.5997   43.8229 H   0  0  0  0  0  0  0  0  0  0  0  0
   57.1650   25.8530   45.7450 C   0  0  0  0  0  0  0  0  0  0  0  0
   57.9000   24.8630   46.2860 N   0  0  0  0  0  0  0  0  0  0  0  0
   57.0310   24.2480   47.1150 C   0  0  0  0  0  0  0  0  0  0  0  0
   57.3470   23.2420   47.8030 O   0  0  0  0  0  0  0  0  0  0  0  0
   55.7990   24.7990   47.1580 N   0  0  0  0  0  0  0  0  0  0  0  0
   55.9080   25.8230   46.2950 C   0  0  0  0  0  0  0  0  0  0  0  0
   54.8780   26.7160   46.0230 O   0  0  0  0  0  0  0  0  0  0  0  0
   57.1910   29.2270   44.5920 C   0  0  0  0  0  0  0  0  0  0  0  0
   56.4646   29.1435   43.7702 H   0  0  0  0  0  0  0  0  0  0  0  0
   57.5810   30.3880   45.2280 C   0  0  0  0  0  0  0  0  0  0  0  0
   57.0090   31.7450   44.9270 C   0  0  0  0  0  0  0  0  0  0  0  0
   56.1865   31.6369   44.2047 H   0  0  0  0  0  0  0  0  0  0  0  0
   56.6415   32.1871   45.8648 H   0  0  0  0  0  0  0  0  0  0  0  0
   58.0550   32.6510   44.3480 C   0  0  0  0  0  0  0  0  0  0  0  0
   58.4750   32.4630   43.1740 O   0  0  0  0  0  0  0  0  0  0  0  0
   58.6060   33.7080   45.1300 N   0  0  0  0  0  0  0  0  0  0  0  0
   58.5180   34.2070   46.5150 C   0  0  0  0  0  0  0  0  0  0  0  0
   57.5051   34.5430   46.7817 H   0  0  0  0  0  0  0  0  0  0  0  0
   58.7366   33.4904   47.3204 H   0  0  0  0  0  0  0  0  0  0  0  0
   59.4730   35.3410   46.3360 C   0  0  0  0  0  0  0  0  0  0  0  0
   59.0419   36.3470   46.4463 H   0  0  0  0  0  0  0  0  0  0  0  0
   60.3502   35.5131   46.9771 H   0  0  0  0  0  0  0  0  0  0  0  0
   59.5500   34.8220   44.9370 C   0  0  0  0  0  0  0  0  0  0  0  0
   59.1982   35.5523   44.1935 H   0  0  0  0  0  0  0  0  0  0  0  0
   60.5488   34.5704   44.5508 H   0  0  0  0  0  0  0  0  0  0  0  0
   58.5020   30.1170   46.1830 N   0  0  0  0  0  0  0  0  0  0  0  0
   59.1810   31.1090   47.0310 C   0  0  0  0  0  0  0  0  0  0  0  0
   58.6168   32.0529   47.0049 H   0  0  0  0  0  0  0  0  0  0  0  0
   59.2292   30.7215   48.0593 H   0  0  0  0  0  0  0  0  0  0  0  0
   60.6090   31.3620   46.5320 C   0  0  0  0  0  0  0  0  0  0  0  0
   61.1116   30.3965   46.3732 H   0  0  0  0  0  0  0  0  0  0  0  0
   60.5576   31.9273   45.5898 H   0  0  0  0  0  0  0  0  0  0  0  0
   61.3780   32.1520   47.5160 N   0  0  0  0  0  0  0  0  0  0  0  0
   62.1640   33.2020   46.8480 C   0  0  0  0  0  0  0  0  0  0  0  0
   62.7348   32.7577   46.0193 H   0  0  0  0  0  0  0  0  0  0  0  0
   61.4809   33.9723   46.4607 H   0  0  0  0  0  0  0  0  0  0  0  0
   63.1400   33.8500   47.8500 C   0  0  0  0  0  0  0  0  0  0  0  0
   64.0946   33.3049   47.8090 H   0  0  0  0  0  0  0  0  0  0  0  0
   63.2505   34.9051   47.5592 H   0  0  0  0  0  0  0  0  0  0  0  0
   62.6480   33.8310   49.2480 N   0  0  0  0  0  0  0  0  0  0  0  0
   63.1900   32.6950   50.0160 C   0  0  0  0  0  0  0  0  0  0  0  0
   63.0922   32.9000   51.0923 H   0  0  0  0  0  0  0  0  0  0  0  0
   62.6305   31.7820   49.7643 H   0  0  0  0  0  0  0  0  0  0  0  0
   64.2517   32.5555   49.7643 H   0  0  0  0  0  0  0  0  0  0  0  0
   61.1760   33.8960   49.3210 C   0  0  0  0  0  0  0  0  0  0  0  0
   60.8723   33.8395   50.3767 H   0  0  0  0  0  0  0  0  0  0  0  0
   60.8599   34.8431   48.8594 H   0  0  0  0  0  0  0  0  0  0  0  0
   60.4940   32.7460   48.5470 C   0  0  0  0  0  0  0  0  0  0  0  0
   60.2087   31.9603   49.2620 H   0  0  0  0  0  0  0  0  0  0  0  0
   59.6158   33.1641   48.0332 H   0  0  0  0  0  0  0  0  0  0  0  0
  1  2  1  0
  2  3  1  0
  2  4  2  0
  4  5  1  0
  5  6  2  0
  6  7  1  0
  6  8  1  0
  8  9  1  0
  9 10  1  0
 10 11  2  0
 10 12  1  0
 12 13  1  0
 13 14  1  0
  5 15  1  0
 15 16  1  0
 15 17  2  0
 17 18  1  0
 18 19  1  0
 18 20  1  0
 18 21  1  0
 21 22  2  0
 21 23  1  0
 23 24  1  0
 24 25  1  0
 24 26  1  0
 24 27  1  0
 27 28  1  0
 27 29  1  0
 27 30  1  0
 30 31  1  0
 30 32  1  0
 17 33  1  0
 33 34  1  0
 34 35  1  0
 34 36  1  0
 34 37  1  0
 37 38  1  0
 37 39  1  0
 37 40  1  0
 40 41  1  0
 41 42  1  0
 41 43  1  0
 41 44  1  0
 44 45  1  0
 44 46  1  0
 44 47  1  0
 47 48  1  0
 48 49  1  0
 48 50  1  0
 48 51  1  0
 47 52  1  0
 52 53  1  0
 52 54  1  0
 52 55  1  0
 55 56  1  0
 55 57  1  0
 33  4  1  0
 55 40  1  0
 13  8  2  0
 30 23  1  0
M  CHG  3   9  -1  12  -1  14  -1
M  END
>  <UniqueID>  (6) 
6

>  <SMILES>  (6) 
C=c1/c(=C\c2[n-]c(=O)[n-]c2[O-])cc(CC(=O)N2CCC2)n1CCN1CCN(C)CC1

>  <Energy>  (6) 
176.15555437144343

>  <Genealogy>  (6) 
C=c1c(=Cc2[n-]c(=O)[n-]c2[O-])cc(CC(=O)N2CCC2)n1CCN1CCN(C)CC1 (protonated)
C=c1/c(=C\c2[n-]c(=O)[n-]c2[O-])cc(CC(=O)N2CCC2)n1CCN1CCN(C)CC1 (cis-trans isomerization)
C=c1/c(=C\c2[n-]c(=O)[n-]c2[O-])cc(CC(=O)N2CCC2)n1CCN1CCN(C)CC1 (3D coordinates assigned)
C=c1/c(=C\c2[n-]c(=O)[n-]c2[O-])cc(CC(=O)N2CCC2)n1CCN1CCN(C)CC1 (nonaromatic ring conformer: 176.15555437144343 kcal/mol)

>  <smiles>  (6) 
C=c1c(=Cc2[nH]c(=O)[nH]c2O)cc(CC(=O)N2CCC2)n1CCN1CCN(C)CC1

>  <score_type>  (6) 
oracle

>  <origin>  (6) 
adg

>  <m_score__min__energy>  (6) 
-16.280000000000001

>  <m_primary>  (6) 
energy

$$$$
6:0
     RDKit          3D

 54 57  0  0  0  0  0  0  0  0999 V2000
   59.9690   33.4820   45.2530 O   0  0  0  0  0  0  0  0  0  0  0  0
   59.7290   33.3660   46.4860 C   0  0  0  0  0  0  0  0  0  0  0  0
   60.2410   34.4080   47.4340 C   0  0  0  0  0  0  0  0  0  0  0  0
   61.4740   33.9040   48.1360 C   0  0  0  0  0  0  0  0  0  0  0  0
   61.8720   34.4600   49.3610 C   0  0  0  0  0  0  0  0  0  0  0  0
   63.0350   34.0120   49.9960 C   0  0  0  0  0  0  0  0  0  0  0  0
   63.8220   33.0000   49.4170 C   0  0  0  0  0  0  0  0  0  0  0  0
   65.0240   32.5450   50.0730 N   0  0  0  0  0  0  0  0  0  0  0  0
   66.2410   33.3330   50.2130 C   0  0  0  0  0  0  0  0  0  0  0  0
   67.3060   32.3740   50.7770 C   0  0  0  0  0  0  0  0  0  0  0  0
   66.5700   31.1180   51.2630 C   0  0  0  0  0  0  0  0  0  0  0  0
   65.2050   31.2970   50.7270 C   0  0  0  0  0  0  0  0  0  0  0  0
   64.2800   30.4580   50.8960 O   0  0  0  0  0  0  0  0  0  0  0  0
   63.4360   32.4670   48.1740 C   0  0  0  0  0  0  0  0  0  0  0  0
   62.2710   32.9130   47.5390 C   0  0  0  0  0  0  0  0  0  0  0  0
   58.9570   32.2570   46.9780 N   0  0  0  0  0  0  0  0  0  0  0  0
   58.7200   31.0580   46.2250 C   0  0  0  0  0  0  0  0  0  0  0  0
   57.7360   31.0570   45.2240 C   0  0  0  0  0  0  0  0  0  0  0  0
   57.4610   29.8920   44.5030 C   0  0  0  0  0  0  0  0  0  0  0  0
   58.1630   28.7060   44.7770 C   0  0  0  0  0  0  0  0  0  0  0  0
   57.8530   27.4640   44.0400 C   0  0  0  0  0  0  0  0  0  0  0  0
   57.9670   27.4590   42.7840 O   0  0  0  0  0  0  0  0  0  0  0  0
   57.4120   26.2730   44.7200 N   0  0  0  0  0  0  0  0  0  0  0  0
   57.5050   24.9510   44.1230 C   0  0  0  0  0  0  0  0  0  0  0  0
   56.6140   24.0510   44.9690 C   0  0  0  0  0  0  0  0  0  0  0  0
   56.3340   24.8220   46.2580 C   0  0  0  0  0  0  0  0  0  0  0  0
   56.6310   26.2830   45.9470 C   0  0  0  0  0  0  0  0  0  0  0  0
   59.1220   28.6970   45.8030 C   0  0  0  0  0  0  0  0  0  0  0  0
   59.4010   29.8630   46.5220 C   0  0  0  0  0  0  0  0  0  0  0  0
   60.4889   35.3209   46.8727 H   0  0  0  0  0  0  0  0  0  0  0  0
   59.4648   34.6289   48.1814 H   0  0  0  0  0  0  0  0  0  0  0  0
   61.2662   35.2525   49.8246 H   0  0  0  0  0  0  0  0  0  0  0  0
   63.3368   34.4549   50.9566 H   0  0  0  0  0  0  0  0  0  0  0  0
   66.5581   33.7234   49.2347 H   0  0  0  0  0  0  0  0  0  0  0  0
   66.0868   34.1978   50.8751 H   0  0  0  0  0  0  0  0  0  0  0  0
   68.0282   32.1078   49.9911 H   0  0  0  0  0  0  0  0  0  0  0  0
   67.8610   32.8461   51.6011 H   0  0  0  0  0  0  0  0  0  0  0  0
   67.0358   30.2070   50.8592 H   0  0  0  0  0  0  0  0  0  0  0  0
   66.5918   31.0017   52.3566 H   0  0  0  0  0  0  0  0  0  0  0  0
   64.0550   31.6930   47.6967 H   0  0  0  0  0  0  0  0  0  0  0  0
   61.9783   32.4858   46.5685 H   0  0  0  0  0  0  0  0  0  0  0  0
   58.4890   32.3530   47.9110 H   0  0  0  0  0  0  0  0  0  0  0  0
   57.1777   31.9793   45.0057 H   0  0  0  0  0  0  0  0  0  0  0  0
   56.6913   29.9034   43.7172 H   0  0  0  0  0  0  0  0  0  0  0  0
   57.1485   24.9744   43.0826 H   0  0  0  0  0  0  0  0  0  0  0  0
   58.5433   24.5884   44.1012 H   0  0  0  0  0  0  0  0  0  0  0  0
   55.6736   23.8384   44.4395 H   0  0  0  0  0  0  0  0  0  0  0  0
   57.0989   23.0855   45.1757 H   0  0  0  0  0  0  0  0  0  0  0  0
   55.2818   24.7008   46.5548 H   0  0  0  0  0  0  0  0  0  0  0  0
   56.9523   24.4537   47.0899 H   0  0  0  0  0  0  0  0  0  0  0  0
   55.6950   26.8421   45.8014 H   0  0  0  0  0  0  0  0  0  0  0  0
   57.1737   26.7712   46.7699 H   0  0  0  0  0  0  0  0  0  0  0  0
   59.6572   27.7663   46.0425 H   0  0  0  0  0  0  0  0  0  0  0  0
   60.1553   29.8462   47.3225 H   0  0  0  0  0  0  0  0  0  0  0  0
  1  2  2  0
  2  3  1  0
  3  4  1  0
  4  5  2  0
  5  6  1  0
  6  7  2  0
  7  8  1  0
  8  9  1  0
  9 10  1  0
 10 11  1  0
 11 12  1  0
 12 13  2  0
  7 14  1  0
 14 15  2  0
  2 16  1  0
 16 17  1  0
 17 18  2  0
 18 19  1  0
 19 20  2  0
 20 21  1  0
 21 22  2  0
 21 23  1  0
 23 24  1  0
 24 25  1  0
 25 26  1  0
 26 27  1  0
 20 28  1  0
 28 29  2  0
 15  4  1  0
 29 17  1  0
 12  8  1  0
 27 23  1  0
  3 30  1  0
  3 31  1  0
  5 32  1  0
  6 33  1  0
  9 34  1  0
  9 35  1  0
 10 36  1  0
 10 37  1  0
 11 38  1  0
 11 39  1  0
 14 40  1  0
 15 41  1  0
 16 42  1  0
 18 43  1  0
 19 44  1  0
 24 45  1  0
 24 46  1  0
 25 47  1  0
 25 48  1  0
 26 49  1  0
 26 50  1  0
 27 51  1  0
 27 52  1  0
 28 53  1  0
 29 54  1  0
M  END
>  <UniqueID>  (7) 
7

>  <SMILES>  (7) 
O=C(Cc1ccc(N2CCCC2=O)cc1)Nc1ccc(C(=O)N2CCCC2)cc1

>  <Energy>  (7) 
72.76826322225216

>  <Genealogy>  (7) 
O=C(Cc1ccc(N2CCCC2=O)cc1)Nc1ccc(C(=O)N2CCCC2)cc1 (3D coordinates assigned)
O=C(Cc1ccc(N2CCCC2=O)cc1)Nc1ccc(C(=O)N2CCCC2)cc1 (nonaromatic ring conformer: 72.76826322225216 kcal/mol)

>  <smiles>  (7) 
O=C(Cc1ccc(N2CCCC2=O)cc1)Nc1ccc(C(=O)N2CCCC2)cc1

>  <score_type>  (7) 
oracle

>  <origin>  (7) 
adg

>  <m_score__min__energy>  (7) 
-9.0700000000000003

>  <m_primary>  (7) 
energy

$$$$
7:0
     RDKit          3D

 61 63  0  0  0  0  0  0  0  0999 V2000
   59.0130   30.7670   49.1730 C   0  0  0  0  0  0  0  0  0  0  0  0
   60.4240   30.2070   49.3750 C   0  0  0  0  0  0  0  0  0  0  0  0
   61.1680   30.1400   48.0430 C   0  0  0  0  0  0  0  0  0  0  0  0
   60.3600   28.8640   49.9520 N   0  0  0  0  0  0  0  0  0  0  0  0
   60.4420   27.6320   49.2220 C   0  0  0  0  0  0  0  0  0  0  0  0
   61.1570   26.7020   49.6810 O   0  0  0  0  0  0  0  0  0  0  0  0
   59.7240   27.4200   47.9500 C   0  0  0  0  0  0  0  0  0  0  0  0
   60.3600   26.7590   46.8890 C   0  0  0  0  0  0  0  0  0  0  0  0
   59.6850   26.5420   45.6860 C   0  0  0  0  0  0  0  0  0  0  0  0
   58.3510   26.9610   45.5320 C   0  0  0  0  0  0  0  0  0  0  0  0
   57.6640   26.7670   44.2800 N   0  0  0  0  0  0  0  0  0  0  0  0
   58.1140   27.7650   43.2990 C   0  0  0  0  0  0  0  0  0  0  0  0
   58.1240   29.1400   43.9130 C   0  0  0  0  0  0  0  0  0  0  0  0
   56.9810   29.9520   43.8460 C   0  0  0  0  0  0  0  0  0  0  0  0
   56.9780   31.2160   44.4450 C   0  0  0  0  0  0  0  0  0  0  0  0
   58.1120   31.6770   45.1270 C   0  0  0  0  0  0  0  0  0  0  0  0
   58.1180   33.2810   45.8620 S   0  0  0  0  0  0  0  0  0  0  0  0
   56.8860   33.4470   46.7090 O   0  0  0  0  0  0  0  0  0  0  0  0
   58.0790   34.3280   44.7820 O   0  0  0  0  0  0  0  0  0  0  0  0
   59.5470   33.5040   46.8470 N   0  0  0  0  0  0  0  0  0  0  0  0
   60.6770   33.9140   45.9840 C   0  0  0  0  0  0  0  0  0  0  0  0
   62.0250   33.4590   46.5520 C   0  0  0  0  0  0  0  0  0  0  0  0
   62.3160   33.9900   47.9610 C   0  0  0  0  0  0  0  0  0  0  0  0
   61.3520   33.4040   49.0050 C   0  0  0  0  0  0  0  0  0  0  0  0
   60.0610   34.2180   49.1860 C   0  0  0  0  0  0  0  0  0  0  0  0
   59.2800   34.5140   47.8980 C   0  0  0  0  0  0  0  0  0  0  0  0
   59.2480   30.8610   45.2090 C   0  0  0  0  0  0  0  0  0  0  0  0
   59.2530   29.5970   44.6110 C   0  0  0  0  0  0  0  0  0  0  0  0
   57.7130   27.6130   46.6000 C   0  0  0  0  0  0  0  0  0  0  0  0
   58.3890   27.8300   47.8030 C   0  0  0  0  0  0  0  0  0  0  0  0
   58.5480   30.9515   50.1527 H   0  0  0  0  0  0  0  0  0  0  0  0
   59.0701   31.7106   48.6106 H   0  0  0  0  0  0  0  0  0  0  0  0
   58.4074   30.0410   48.6106 H   0  0  0  0  0  0  0  0  0  0  0  0
   60.9618   30.8778   50.0611 H   0  0  0  0  0  0  0  0  0  0  0  0
   62.2475   30.0428   48.2305 H   0  0  0  0  0  0  0  0  0  0  0  0
   60.8156   29.2700   47.4695 H   0  0  0  0  0  0  0  0  0  0  0  0
   60.9767   31.0590   47.4695 H   0  0  0  0  0  0  0  0  0  0  0  0
   61.3965   26.4095   47.0052 H   0  0  0  0  0  0  0  0  0  0  0  0
   60.1997   26.0402   44.8534 H   0  0  0  0  0  0  0  0  0  0  0  0
   57.8580   25.8040   43.9170 H   0  0  0  0  0  0  0  0  0  0  0  0
   56.6320   26.8560   44.4260 H   0  0  0  0  0  0  0  0  0  0  0  0
   59.1304   27.5107   42.9639 H   0  0  0  0  0  0  0  0  0  0  0  0
   57.4213   27.7617   42.4445 H   0  0  0  0  0  0  0  0  0  0  0  0
   56.0840   29.5928   43.3203 H   0  0  0  0  0  0  0  0  0  0  0  0
   56.0819   31.8507   44.3804 H   0  0  0  0  0  0  0  0  0  0  0  0
   60.5428   33.4687   44.9872 H   0  0  0  0  0  0  0  0  0  0  0  0
   60.6834   35.0127   45.9304 H   0  0  0  0  0  0  0  0  0  0  0  0
   62.0326   32.3596   46.5876 H   0  0  0  0  0  0  0  0  0  0  0  0
   62.8041   33.8652   45.8902 H   0  0  0  0  0  0  0  0  0  0  0  0
   63.3460   33.7201   48.2370 H   0  0  0  0  0  0  0  0  0  0  0  0
   62.1819   35.0817   47.9482 H   0  0  0  0  0  0  0  0  0  0  0  0
   61.0784   32.3859   48.6910 H   0  0  0  0  0  0  0  0  0  0  0  0
   61.8783   33.4207   49.9708 H   0  0  0  0  0  0  0  0  0  0  0  0
   59.3990   33.6574   49.8624 H   0  0  0  0  0  0  0  0  0  0  0  0
   60.3736   35.1959   49.5810 H   0  0  0  0  0  0  0  0  0  0  0  0
   58.2040   34.5141   48.1263 H   0  0  0  0  0  0  0  0  0  0  0  0
   59.6044   35.4946   47.5196 H   0  0  0  0  0  0  0  0  0  0  0  0
   60.1398   31.2162   45.7461 H   0  0  0  0  0  0  0  0  0  0  0  0
   60.1452   28.9582   44.6878 H   0  0  0  0  0  0  0  0  0  0  0  0
   56.6736   27.9552   46.4883 H   0  0  0  0  0  0  0  0  0  0  0  0
   57.8731   28.3245   48.6393 H   0  0  0  0  0  0  0  0  0  0  0  0
  1  2  1  0
  2  3  1  0
  2  4  1  0
  4  5  1  0
  5  6  2  0
  5  7  1  0
  7  8  2  0
  8  9  1  0
  9 10  2  0
 10 11  1  0
 11 12  1  0
 12 13  1  0
 13 14  2  0
 14 15  1  0
 15 16  2  0
 16 17  1  0
 17 18  2  0
 17 19  2  0
 17 20  1  0
 20 21  1  0
 21 22  1  0
 22 23  1  0
 23 24  1  0
 24 25  1  0
 25 26  1  0
 16 27  1  0
 27 28  2  0
 10 29  1  0
 29 30  2  0
 30  7  1  0
 28 13  1  0
 26 20  1  0
  1 31  1  0
  1 32  1  0
  1 33  1  0
  2 34  1  0
  3 35  1  0
  3 36  1  0
  3 37  1  0
  8 38  1  0
  9 39  1  0
 11 40  1  0
 11 41  1  0
 12 42  1  0
 12 43  1  0
 14 44  1  0
 15 45  1  0
 21 46  1  0
 21 47  1  0
 22 48  1  0
 22 49  1  0
 23 50  1  0
 23 51  1  0
 24 52  1  0
 24 53  1  0
 25 54  1  0
 25 55  1  0
 26 56  1  0
 26 57  1  0
 27 58  1  0
 28 59  1  0
 29 60  1  0
 30 61  1  0
M  CHG  2   4  -1  11   1
M  END
>  <UniqueID>  (8) 
8

>  <SMILES>  (8) 
CC(C)[N-]C(=O)c1ccc([NH2+]Cc2ccc(S(=O)(=O)N3CCCCCC3)cc2)cc1

>  <Energy>  (8) 
62.90153835170111

>  <Genealogy>  (8) 
CC(C)[N-]C(=O)c1ccc([NH2+]Cc2ccc(S(=O)(=O)N3CCCCCC3)cc2)cc1 (protonated)
CC(C)[N-]C(=O)c1ccc([NH2+]Cc2ccc(S(=O)(=O)N3CCCCCC3)cc2)cc1 (3D coordinates assigned)
CC(C)[N-]C(=O)c1ccc([NH2+]Cc2ccc(S(=O)(=O)N3CCCCCC3)cc2)cc1 (nonaromatic ring conformer: 62.90153835170111 kcal/mol)

>  <smiles>  (8) 
CC(C)NC(=O)c1ccc(NCc2ccc(S(=O)(=O)N3CCCCCC3)cc2)cc1

>  <score_type>  (8) 
oracle

>  <origin>  (8) 
adg

>  <m_score__min__energy>  (8) 
-7.7400000000000002

>  <m_primary>  (8) 
energy

$$$$
8:0
     RDKit          3D

 58 61  0  0  0  0  0  0  0  0999 V2000
   59.9770   28.4410   47.8790 C   0  0  0  0  0  0  0  0  0  0  0  0
   59.7990   27.8720   46.5300 N   0  0  0  0  0  0  0  0  0  0  0  0
   59.8380   28.9490   45.5130 C   0  0  0  0  0  0  0  0  0  0  0  0
   59.0920   28.5500   44.2300 C   0  0  0  0  0  0  0  0  0  0  0  0
   57.6690   28.2240   44.4830 N   0  0  0  0  0  0  0  0  0  0  0  0
   56.6090   29.5430   44.0320 S   0  0  0  0  0  0  0  0  0  0  0  0
   55.3460   29.4950   44.8490 O   0  0  0  0  0  0  0  0  0  0  0  0
   56.2330   29.3800   42.5860 O   0  0  0  0  0  0  0  0  0  0  0  0
   57.3740   31.1200   44.2600 C   0  0  0  0  0  0  0  0  0  0  0  0
   57.8760   31.8260   43.1570 C   0  0  0  0  0  0  0  0  0  0  0  0
   58.4710   33.0790   43.3340 C   0  0  0  0  0  0  0  0  0  0  0  0
   58.5720   33.6390   44.6110 C   0  0  0  0  0  0  0  0  0  0  0  0
   59.1720   34.9360   44.7560 N   0  0  0  0  0  0  0  0  0  0  0  0
   59.7560   35.4870   45.9440 C   0  0  0  0  0  0  0  0  0  0  0  0
   60.0020   36.7200   45.9780 O   0  0  0  0  0  0  0  0  0  0  0  0
   60.0440   34.6680   47.1400 C   0  0  0  0  0  0  0  0  0  0  0  0
   60.8860   33.5740   47.2170 C   0  0  0  0  0  0  0  0  0  0  0  0
   60.8460   33.2010   48.5500 C   0  0  0  0  0  0  0  0  0  0  0  0
   61.6260   32.1380   49.1370 N   0  0  0  0  0  0  0  0  0  0  0  0
   61.0200   30.9280   49.6750 C   0  0  0  0  0  0  0  0  0  0  0  0
   62.1010   30.2520   50.5050 C   0  0  0  0  0  0  0  0  0  0  0  0
   63.4120   30.9540   50.1620 C   0  0  0  0  0  0  0  0  0  0  0  0
   63.0350   32.2600   49.4750 C   0  0  0  0  0  0  0  0  0  0  0  0
   60.0080   34.0240   49.2170 N   0  0  0  0  0  0  0  0  0  0  0  0
   59.7210   34.0510   50.6480 C   0  0  0  0  0  0  0  0  0  0  0  0
   59.5190   34.9060   48.3590 N   0  0  0  0  0  0  0  0  0  0  0  0
   58.1210   32.9040   45.7250 C   0  0  0  0  0  0  0  0  0  0  0  0
   57.4960   31.6680   45.5440 C   0  0  0  0  0  0  0  0  0  0  0  0
   57.3890   27.7870   45.8660 C   0  0  0  0  0  0  0  0  0  0  0  0
   58.5830   27.0280   46.4600 C   0  0  0  0  0  0  0  0  0  0  0  0
   59.7380   27.6771   48.6336 H   0  0  0  0  0  0  0  0  0  0  0  0
   61.0200   28.7670   48.0048 H   0  0  0  0  0  0  0  0  0  0  0  0
   59.3057   29.3033   48.0048 H   0  0  0  0  0  0  0  0  0  0  0  0
   59.3685   29.8513   45.9318 H   0  0  0  0  0  0  0  0  0  0  0  0
   60.8904   29.1353   45.2526 H   0  0  0  0  0  0  0  0  0  0  0  0
   59.1416   29.3867   43.5177 H   0  0  0  0  0  0  0  0  0  0  0  0
   59.5763   27.6485   43.8267 H   0  0  0  0  0  0  0  0  0  0  0  0
   57.8014   31.3924   42.1488 H   0  0  0  0  0  0  0  0  0  0  0  0
   58.8617   33.6270   42.4639 H   0  0  0  0  0  0  0  0  0  0  0  0
   61.4586   33.1056   46.4029 H   0  0  0  0  0  0  0  0  0  0  0  0
   60.1556   31.1814   50.3064 H   0  0  0  0  0  0  0  0  0  0  0  0
   60.6557   30.2687   48.8734 H   0  0  0  0  0  0  0  0  0  0  0  0
   61.8808   30.3607   51.5772 H   0  0  0  0  0  0  0  0  0  0  0  0
   62.1566   29.1755   50.2856 H   0  0  0  0  0  0  0  0  0  0  0  0
   63.9851   31.1581   51.0785 H   0  0  0  0  0  0  0  0  0  0  0  0
   64.0403   30.3284   49.5109 H   0  0  0  0  0  0  0  0  0  0  0  0
   63.1935   33.1100   50.1549 H   0  0  0  0  0  0  0  0  0  0  0  0
   63.6513   32.4400   48.5818 H   0  0  0  0  0  0  0  0  0  0  0  0
   60.6611   33.9626   51.2122 H   0  0  0  0  0  0  0  0  0  0  0  0
   59.2269   34.9996   50.9050 H   0  0  0  0  0  0  0  0  0  0  0  0
   59.0587   33.2112   50.9050 H   0  0  0  0  0  0  0  0  0  0  0  0
   58.8630   35.6810   48.6080 H   0  0  0  0  0  0  0  0  0  0  0  0
   58.2614   33.3044   46.7399 H   0  0  0  0  0  0  0  0  0  0  0  0
   57.0981   31.1228   46.4126 H   0  0  0  0  0  0  0  0  0  0  0  0
   57.1810   28.6711   46.4866 H   0  0  0  0  0  0  0  0  0  0  0  0
   56.5205   27.1122   45.8492 H   0  0  0  0  0  0  0  0  0  0  0  0
   58.3226   26.6956   47.4757 H   0  0  0  0  0  0  0  0  0  0  0  0
   58.8012   26.1720   45.8045 H   0  0  0  0  0  0  0  0  0  0  0  0
  1  2  1  0
  2  3  1  0
  3  4  1  0
  4  5  1  0
  5  6  1  0
  6  7  2  0
  6  8  2  0
  6  9  1  0
  9 10  2  0
 10 11  1  0
 11 12  2  0
 12 13  1  0
 13 14  1  0
 14 15  2  0
 14 16  1  0
 16 17  1  0
 17 18  2  0
 18 19  1  0
 19 20  1  0
 20 21  1  0
 21 22  1  0
 22 23  1  0
 18 24  1  0
 24 25  1  0
 24 26  1  0
 12 27  1  0
 27 28  2  0
  5 29  1  0
 29 30  1  0
 30  2  1  0
 28  9  1  0
 26 16  2  0
 23 19  1  0
  1 31  1  0
  1 32  1  0
  1 33  1  0
  3 34  1  0
  3 35  1  0
  4 36  1  0
  4 37  1  0
 10 38  1  0
 11 39  1  0
 17 40  1  0
 20 41  1  0
 20 42  1  0
 21 43  1  0
 21 44  1  0
 22 45  1  0
 22 46  1  0
 23 47  1  0
 23 48  1  0
 25 49  1  0
 25 50  1  0
 25 51  1  0
 26 52  1  0
 27 53  1  0
 28 54  1  0
 29 55  1  0
 29 56  1  0
 30 57  1  0
 30 58  1  0
M  CHG  2  13  -1  26   1
M  END
>  <UniqueID>  (9) 
9

>  <SMILES>  (9) 
CN1CCN(S(=O)(=O)c2ccc([N-]C(=O)c3cc(N4CCCC4)n(C)[nH+]3)cc2)CC1

>  <Energy>  (9) 
108.73252514744401

>  <Genealogy>  (9) 
CN1CCN(S(=O)(=O)c2ccc([N-]C(=O)c3cc(N4CCCC4)n(C)[nH+]3)cc2)CC1 (protonated)
CN1CCN(S(=O)(=O)c2ccc([N-]C(=O)c3cc(N4CCCC4)n(C)[nH+]3)cc2)CC1 (3D coordinates assigned)
CN1CCN(S(=O)(=O)c2ccc([N-]C(=O)c3cc(N4CCCC4)n(C)[nH+]3)cc2)CC1 (nonaromatic ring conformer: 108.73252514744401 kcal/mol)

>  <smiles>  (9) 
CN1CCN(S(=O)(=O)c2ccc(NC(=O)c3cc(N4CCCC4)n(C)n3)cc2)CC1

>  <score_type>  (9) 
oracle

>  <origin>  (9) 
adg

>  <m_score__min__energy>  (9) 
-8.5399999999999991

>  <m_primary>  (9) 
energy

$$$$
9:0
     RDKit          3D

 44 46  0  0  0  0  0  0  0  0999 V2000
   64.6440   35.2180   52.0370 H   0  0  0  0  0  0  0  0  0  0  0  0
   63.7060   35.0330   51.7050 O   0  0  0  0  0  0  0  0  0  0  0  0
   63.4470   34.1300   50.6740 C   0  0  0  0  0  0  0  0  0  0  0  0
   62.1230   33.9240   50.2760 C   0  0  0  0  0  0  0  0  0  0  0  0
   61.3133   34.4796   50.7717 H   0  0  0  0  0  0  0  0  0  0  0  0
   61.8160   33.0180   49.2530 C   0  0  0  0  0  0  0  0  0  0  0  0
   62.8540   32.3280   48.5960 C   0  0  0  0  0  0  0  0  0  0  0  0
   64.1860   32.5390   48.9950 C   0  0  0  0  0  0  0  0  0  0  0  0
   64.9985   31.9975   48.4884 H   0  0  0  0  0  0  0  0  0  0  0  0
   64.4900   33.4370   50.0370 C   0  0  0  0  0  0  0  0  0  0  0  0
   65.8100   33.6640   50.4600 O   0  0  0  0  0  0  0  0  0  0  0  0
   66.8210   32.6640   50.5310 C   0  0  0  0  0  0  0  0  0  0  0  0
   67.0446   32.4428   51.5851 H   0  0  0  0  0  0  0  0  0  0  0  0
   66.4681   31.7497   50.0314 H   0  0  0  0  0  0  0  0  0  0  0  0
   67.7313   33.0268   50.0314 H   0  0  0  0  0  0  0  0  0  0  0  0
   62.5290   31.3800   47.5060 C   0  0  0  0  0  0  0  0  0  0  0  0
   63.4520   30.8990   46.7920 O   0  0  0  0  0  0  0  0  0  0  0  0
   61.1130   31.0020   47.2620 C   0  0  0  0  0  0  0  0  0  0  0  0
   60.8000   30.1700   46.2460 C   0  0  0  0  0  0  0  0  0  0  0  0
   61.6147   29.8360   45.5866 H   0  0  0  0  0  0  0  0  0  0  0  0
   59.4390   29.6790   45.9610 C   0  0  0  0  0  0  0  0  0  0  0  0
   58.9760   28.4800   46.5230 C   0  0  0  0  0  0  0  0  0  0  0  0
   59.6415   27.8808   47.1618 H   0  0  0  0  0  0  0  0  0  0  0  0
   57.6730   28.0450   46.2740 C   0  0  0  0  0  0  0  0  0  0  0  0
   57.3213   27.0954   46.7036 H   0  0  0  0  0  0  0  0  0  0  0  0
   56.8130   28.8110   45.4810 C   0  0  0  0  0  0  0  0  0  0  0  0
   55.5240   28.3510   45.2350 O   0  0  0  0  0  0  0  0  0  0  0  0
   57.2530   30.0350   44.9430 C   0  0  0  0  0  0  0  0  0  0  0  0
   56.3460   30.8650   44.0690 C   0  0  0  0  0  0  0  0  0  0  0  0
   56.2239   31.8612   44.5192 H   0  0  0  0  0  0  0  0  0  0  0  0
   55.3726   30.3589   43.9897 H   0  0  0  0  0  0  0  0  0  0  0  0
   56.9250   31.0150   42.6900 C   0  0  0  0  0  0  0  0  0  0  0  0
   56.6670   30.2757   41.9174 H   0  0  0  0  0  0  0  0  0  0  0  0
   57.7450   32.0230   42.3780 C   0  0  0  0  0  0  0  0  0  0  0  0
   58.1525   32.1054   41.3596 H   0  0  0  0  0  0  0  0  0  0  0  0
   58.0124   32.7703   43.1396 H   0  0  0  0  0  0  0  0  0  0  0  0
   58.5690   30.4630   45.1900 C   0  0  0  0  0  0  0  0  0  0  0  0
   58.9188   31.4199   44.7754 H   0  0  0  0  0  0  0  0  0  0  0  0
   60.0960   31.4460   48.2950 C   0  0  0  0  0  0  0  0  0  0  0  0
   59.0926   31.4198   47.8451 H   0  0  0  0  0  0  0  0  0  0  0  0
   60.1529   30.7635   49.1558 H   0  0  0  0  0  0  0  0  0  0  0  0
   60.3880   32.8700   48.7840 C   0  0  0  0  0  0  0  0  0  0  0  0
   60.2093   33.5742   47.9580 H   0  0  0  0  0  0  0  0  0  0  0  0
   59.7240   33.0833   49.6346 H   0  0  0  0  0  0  0  0  0  0  0  0
  1  2  1  0
  2  3  1  0
  3  4  2  0
  4  5  1  0
  4  6  1  0
  6  7  2  0
  7  8  1  0
  8  9  1  0
  8 10  2  0
 10 11  1  0
 11 12  1  0
 12 13  1  0
 12 14  1  0
 12 15  1  0
  7 16  1  0
 16 17  2  0
 16 18  1  0
 18 19  2  0
 19 20  1  0
 19 21  1  0
 21 22  2  0
 22 23  1  0
 22 24  1  0
 24 25  1  0
 24 26  2  0
 26 27  1  0
 26 28  1  0
 28 29  1  0
 29 30  1  0
 29 31  1  0
 29 32  1  0
 32 33  1  0
 32 34  2  0
 34 35  1  0
 34 36  1  0
 28 37  2  0
 37 38  1  0
 18 39  1  0
 39 40  1  0
 39 41  1  0
 39 42  1  0
 42 43  1  0
 42 44  1  0
 10  3  1  0
 37 21  1  0
 42  6  1  0
M  CHG  1  27  -1
M  END
>  <UniqueID>  (10) 
10

>  <SMILES>  (10) 
C=CCc1cc(/C=C2\CCc3cc(O)c(OC)cc3C2=O)ccc1[O-]

>  <Energy>  (10) 
53.3326335610066

>  <Genealogy>  (10) 
C=CCc1cc(C=C2CCc3cc(O)c(OC)cc3C2=O)ccc1[O-] (protonated)
C=CCc1cc(/C=C2\CCc3cc(O)c(OC)cc3C2=O)ccc1[O-] (cis-trans isomerization)
C=CCc1cc(/C=C2\CCc3cc(O)c(OC)cc3C2=O)ccc1[O-] (3D coordinates assigned)
C=CCc1cc(/C=C2\CCc3cc(O)c(OC)cc3C2=O)ccc1[O-] (nonaromatic ring conformer: 53.3326335610066 kcal/mol)

>  <smiles>  (10) 
C=CCc1cc(C=C2CCc3cc(O)c(OC)cc3C2=O)ccc1O

>  <score_type>  (10) 
oracle

>  <origin>  (10) 
adg

>  <m_score__min__energy>  (10) 
-10.02

>  <m_primary>  (10) 
energy

$$$$
10:0
     RDKit          3D

 40 41  0  0  0  0  0  0  0  0999 V2000
   58.8470   32.2410   49.1710 C   0  0  0  0  0  0  0  0  0  0  0  0
   59.3210   33.6220   48.7350 C   0  0  0  0  0  0  0  0  0  0  0  0
   59.0110   33.8530   47.2910 C   0  0  0  0  0  0  0  0  0  0  0  0
   58.2620   33.0130   46.5450 N   0  0  0  0  0  0  0  0  0  0  0  0
   58.1810   33.4210   45.2500 C   0  0  0  0  0  0  0  0  0  0  0  0
   57.4440   32.6270   44.2180 C   0  0  0  0  0  0  0  0  0  0  0  0
   56.4370   31.7890   44.8710 N   0  0  0  0  0  0  0  0  0  0  0  0
   56.5040   30.1800   44.2160 S   0  0  0  0  0  0  0  0  0  0  0  0
   56.2170   30.2480   42.7400 O   0  0  0  0  0  0  0  0  0  0  0  0
   55.4500   29.3360   44.8760 O   0  0  0  0  0  0  0  0  0  0  0  0
   58.0820   29.4740   44.4790 N   0  0  0  0  0  0  0  0  0  0  0  0
   58.7150   30.0110   45.7110 C   0  0  0  0  0  0  0  0  0  0  0  0
   58.6520   29.0340   46.8930 C   0  0  0  0  0  0  0  0  0  0  0  0
   59.3630   27.7040   46.5500 C   0  0  0  0  0  0  0  0  0  0  0  0
   58.8500   26.5770   47.4560 C   0  0  0  0  0  0  0  0  0  0  0  0
   59.2190   27.3360   45.0530 C   0  0  0  0  0  0  0  0  0  0  0  0
   57.9840   27.9980   44.4330 C   0  0  0  0  0  0  0  0  0  0  0  0
   58.8970   34.5780   44.9480 C   0  0  0  0  0  0  0  0  0  0  0  0
   59.6360   35.1080   46.3620 S   0  0  0  0  0  0  0  0  0  0  0  0
   58.8293   32.1894   50.2696 H   0  0  0  0  0  0  0  0  0  0  0  0
   57.8353   32.0599   48.7791 H   0  0  0  0  0  0  0  0  0  0  0  0
   59.5343   31.4768   48.7791 H   0  0  0  0  0  0  0  0  0  0  0  0
   58.8126   34.3866   49.3407 H   0  0  0  0  0  0  0  0  0  0  0  0
   60.4098   33.6849   48.8785 H   0  0  0  0  0  0  0  0  0  0  0  0
   56.9495   33.3118   43.5133 H   0  0  0  0  0  0  0  0  0  0  0  0
   58.1539   31.9877   43.6728 H   0  0  0  0  0  0  0  0  0  0  0  0
   56.6690   31.7260   45.8880 H   0  0  0  0  0  0  0  0  0  0  0  0
   59.7707   30.2319   45.4948 H   0  0  0  0  0  0  0  0  0  0  0  0
   58.1572   30.9138   46.0005 H   0  0  0  0  0  0  0  0  0  0  0  0
   59.1441   29.4909   47.7642 H   0  0  0  0  0  0  0  0  0  0  0  0
   57.5962   28.8202   47.1156 H   0  0  0  0  0  0  0  0  0  0  0  0
   60.4383   27.8401   46.7374 H   0  0  0  0  0  0  0  0  0  0  0  0
   58.9811   26.8650   48.5095 H   0  0  0  0  0  0  0  0  0  0  0  0
   57.7831   26.4011   47.2540 H   0  0  0  0  0  0  0  0  0  0  0  0
   59.4180   25.6569   47.2540 H   0  0  0  0  0  0  0  0  0  0  0  0
   60.1158   27.6741   44.5131 H   0  0  0  0  0  0  0  0  0  0  0  0
   59.1048   26.2449   44.9732 H   0  0  0  0  0  0  0  0  0  0  0  0
   57.8947   27.6778   43.3844 H   0  0  0  0  0  0  0  0  0  0  0  0
   57.0999   27.6916   45.0114 H   0  0  0  0  0  0  0  0  0  0  0  0
   58.9662   35.0585   43.9609 H   0  0  0  0  0  0  0  0  0  0  0  0
  1  2  1  0
  2  3  1  0
  3  4  2  0
  4  5  1  0
  5  6  1  0
  6  7  1  0
  7  8  1  0
  8  9  2  0
  8 10  2  0
  8 11  1  0
 11 12  1  0
 12 13  1  0
 13 14  1  0
 14 15  1  0
 14 16  1  0
 16 17  1  0
  5 18  2  0
 18 19  1  0
 19  3  1  0
 17 11  1  0
  1 20  1  0
  1 21  1  0
  1 22  1  0
  2 23  1  0
  2 24  1  0
  6 25  1  0
  6 26  1  0
  7 27  1  0
 12 28  1  0
 12 29  1  0
 13 30  1  0
 13 31  1  0
 14 32  1  0
 15 33  1  0
 15 34  1  0
 15 35  1  0
 16 36  1  0
 16 37  1  0
 17 38  1  0
 17 39  1  0
 18 40  1  0
M  END
>  <UniqueID>  (11) 
11

>  <SMILES>  (11) 
CCc1nc(CNS(=O)(=O)N2CCC(C)CC2)cs1

>  <Energy>  (11) 
62.220452052563154

>  <Genealogy>  (11) 
CCc1nc(CNS(=O)(=O)N2CCC(C)CC2)cs1 (3D coordinates assigned)
CCc1nc(CNS(=O)(=O)N2CCC(C)CC2)cs1 (nonaromatic ring conformer: 62.220452052563154 kcal/mol)

>  <smiles>  (11) 
CCc1nc(CNS(=O)(=O)N2CCC(C)CC2)cs1

>  <score_type>  (11) 
oracle

>  <origin>  (11) 
adg

>  <m_score__min__energy>  (11) 
-7.5700000000000003

>  <m_primary>  (11) 
energy

$$$$
11:0
     RDKit          3D

 51 53  0  0  0  0  0  0  0  0999 V2000
   62.7490   33.5150   47.1170 C   0  0  0  0  0  0  0  0  0  0  0  0
   61.3930   33.5220   46.3970 C   0  0  0  0  0  0  0  0  0  0  0  0
   60.2260   33.4500   47.3090 N   0  0  0  0  0  0  0  0  0  0  0  0
   59.2740   34.5770   47.1850 C   0  0  0  0  0  0  0  0  0  0  0  0
   59.6440   35.5070   46.0330 C   0  0  0  0  0  0  0  0  0  0  0  0
   59.5460   32.1340   47.2670 C   0  0  0  0  0  0  0  0  0  0  0  0
   58.0760   32.3220   46.8820 C   0  0  0  0  0  0  0  0  0  0  0  0
   57.8730   32.1560   45.4380 N   0  0  0  0  0  0  0  0  0  0  0  0
   57.8180   33.1560   44.5340 C   0  0  0  0  0  0  0  0  0  0  0  0
   57.7540   32.7080   43.2620 N   0  0  0  0  0  0  0  0  0  0  0  0
   57.7760   31.3650   43.3760 C   0  0  0  0  0  0  0  0  0  0  0  0
   57.8460   31.0190   44.7090 C   0  0  0  0  0  0  0  0  0  0  0  0
   57.9890   29.6490   45.2380 C   0  0  0  0  0  0  0  0  0  0  0  0
   59.2180   29.2200   45.7600 C   0  0  0  0  0  0  0  0  0  0  0  0
   59.3880   27.8950   46.1640 C   0  0  0  0  0  0  0  0  0  0  0  0
   58.3280   26.9810   46.0620 C   0  0  0  0  0  0  0  0  0  0  0  0
   58.5240   25.5930   46.3630 N   0  0  0  0  0  0  0  0  0  0  0  0
   57.1780   24.5030   46.4610 S   0  0  0  0  0  0  0  0  0  0  0  0
   55.9110   25.2810   46.6700 O   0  0  0  0  0  0  0  0  0  0  0  0
   57.3760   23.5620   47.6150 O   0  0  0  0  0  0  0  0  0  0  0  0
   57.0560   23.6060   44.9570 C   0  0  0  0  0  0  0  0  0  0  0  0
   57.7790   22.4660   44.6450 C   0  0  0  0  0  0  0  0  0  0  0  0
   57.3920   21.8890   43.4300 C   0  0  0  0  0  0  0  0  0  0  0  0
   56.3590   22.5670   42.7950 C   0  0  0  0  0  0  0  0  0  0  0  0
   55.9230   23.8850   43.7480 S   0  0  0  0  0  0  0  0  0  0  0  0
   57.0790   27.4270   45.6150 C   0  0  0  0  0  0  0  0  0  0  0  0
   56.9070   28.7520   45.2000 C   0  0  0  0  0  0  0  0  0  0  0  0
   55.7020   29.1400   44.7110 F   0  0  0  0  0  0  0  0  0  0  0  0
   62.5865   33.5158   48.2049 H   0  0  0  0  0  0  0  0  0  0  0  0
   63.3114   32.6139   46.8310 H   0  0  0  0  0  0  0  0  0  0  0  0
   63.3207   34.4102   46.8310 H   0  0  0  0  0  0  0  0  0  0  0  0
   61.3173   34.4497   45.8108 H   0  0  0  0  0  0  0  0  0  0  0  0
   61.3618   32.6201   45.7680 H   0  0  0  0  0  0  0  0  0  0  0  0
   58.2661   34.1738   47.0075 H   0  0  0  0  0  0  0  0  0  0  0  0
   59.3085   35.1581   48.1183 H   0  0  0  0  0  0  0  0  0  0  0  0
   60.0223   36.4579   46.4364 H   0  0  0  0  0  0  0  0  0  0  0  0
   60.4227   35.0347   45.4161 H   0  0  0  0  0  0  0  0  0  0  0  0
   58.7537   35.6988   45.4161 H   0  0  0  0  0  0  0  0  0  0  0  0
   60.0392   31.4917   46.5226 H   0  0  0  0  0  0  0  0  0  0  0  0
   59.6042   31.6632   48.2594 H   0  0  0  0  0  0  0  0  0  0  0  0
   57.4684   31.5769   47.4164 H   0  0  0  0  0  0  0  0  0  0  0  0
   57.7748   33.3434   47.1578 H   0  0  0  0  0  0  0  0  0  0  0  0
   57.8246   34.2222   44.8044 H   0  0  0  0  0  0  0  0  0  0  0  0
   57.7432   30.6554   42.5362 H   0  0  0  0  0  0  0  0  0  0  0  0
   60.0520   29.9314   45.8514 H   0  0  0  0  0  0  0  0  0  0  0  0
   60.3580   27.5653   46.5645 H   0  0  0  0  0  0  0  0  0  0  0  0
   59.4200   25.2910   46.8080 H   0  0  0  0  0  0  0  0  0  0  0  0
   58.5743   22.0570   45.2855 H   0  0  0  0  0  0  0  0  0  0  0  0
   57.8615   20.9841   43.0169 H   0  0  0  0  0  0  0  0  0  0  0  0
   55.9033   22.2899   41.8330 H   0  0  0  0  0  0  0  0  0  0  0  0
   56.2272   26.7314   45.5898 H   0  0  0  0  0  0  0  0  0  0  0  0
  1  2  1  0
  2  3  1  0
  3  4  1  0
  4  5  1  0
  3  6  1  0
  6  7  1  0
  7  8  1  0
  8  9  1  0
  9 10  2  0
 10 11  1  0
 11 12  2  0
 12 13  1  0
 13 14  2  0
 14 15  1  0
 15 16  2  0
 16 17  1  0
 17 18  1  0
 18 19  2  0
 18 20  2  0
 18 21  1  0
 21 22  2  0
 22 23  1  0
 23 24  2  0
 24 25  1  0
 16 26  1  0
 26 27  2  0
 27 28  1  0
 12  8  1  0
 27 13  1  0
 25 21  1  0
  1 29  1  0
  1 30  1  0
  1 31  1  0
  2 32  1  0
  2 33  1  0
  4 34  1  0
  4 35  1  0
  5 36  1  0
  5 37  1  0
  5 38  1  0
  6 39  1  0
  6 40  1  0
  7 41  1  0
  7 42  1  0
  9 43  1  0
 11 44  1  0
 14 45  1  0
 15 46  1  0
 17 47  1  0
 22 48  1  0
 23 49  1  0
 24 50  1  0
 26 51  1  0
M  END
>  <UniqueID>  (12) 
12

>  <SMILES>  (12) 
CCN(CC)CCn1cncc1-c1ccc(NS(=O)(=O)c2cccs2)cc1F

>  <Energy>  (12) 
114.46727598173987

>  <Genealogy>  (12) 
CCN(CC)CCn1cncc1-c1ccc(NS(=O)(=O)c2cccs2)cc1F (3D coordinates assigned)
CCN(CC)CCn1cncc1-c1ccc(NS(=O)(=O)c2cccs2)cc1F (optimized conformer: 114.46727598173987 kcal/mol)

>  <smiles>  (12) 
CCN(CC)CCn1cncc1-c1ccc(NS(=O)(=O)c2cccs2)cc1F

>  <score_type>  (12) 
oracle

>  <origin>  (12) 
adg

>  <m_score__min__energy>  (12) 
-8.0600000000000005

>  <m_primary>  (12) 
energy

$$$$
12:0
     RDKit          3D

 56 58  0  0  0  0  0  0  0  0999 V2000
   63.8490   33.4870   47.3290 C   0  0  0  0  0  0  0  0  0  0  0  0
   63.1930   32.9210   48.5890 C   0  0  0  0  0  0  0  0  0  0  0  0
   61.8270   32.4240   48.3120 N   0  0  0  0  0  0  0  0  0  0  0  0
   61.1880   31.8880   49.5410 C   0  0  0  0  0  0  0  0  0  0  0  0
   61.3640   30.3660   49.6660 C   0  0  0  0  0  0  0  0  0  0  0  0
   60.7870   29.6290   48.5100 N   0  0  0  0  0  0  0  0  0  0  0  0
   59.4980   28.9880   48.8420 C   0  0  0  0  0  0  0  0  0  0  0  0
   59.0600   28.0860   47.7190 C   0  0  0  0  0  0  0  0  0  0  0  0
   59.3360   26.7100   47.7760 C   0  0  0  0  0  0  0  0  0  0  0  0
   58.9020   25.8630   46.7540 C   0  0  0  0  0  0  0  0  0  0  0  0
   58.1730   26.3760   45.6780 C   0  0  0  0  0  0  0  0  0  0  0  0
   57.8800   27.7490   45.6150 C   0  0  0  0  0  0  0  0  0  0  0  0
   57.1550   28.3110   44.5130 N   0  0  0  0  0  0  0  0  0  0  0  0
   56.3840   29.5170   44.5610 C   0  0  0  0  0  0  0  0  0  0  0  0
   55.1520   29.4340   44.8090 O   0  0  0  0  0  0  0  0  0  0  0  0
   56.9810   30.8410   44.2640 C   0  0  0  0  0  0  0  0  0  0  0  0
   57.4610   31.1210   42.9740 C   0  0  0  0  0  0  0  0  0  0  0  0
   58.0740   32.3430   42.6990 C   0  0  0  0  0  0  0  0  0  0  0  0
   58.2250   33.2960   43.7070 C   0  0  0  0  0  0  0  0  0  0  0  0
   57.7520   33.0430   45.0030 C   0  0  0  0  0  0  0  0  0  0  0  0
   57.9580   34.0310   46.0280 N   0  0  0  0  0  0  0  0  0  0  0  0
   59.5210   34.6210   46.4960 S   0  0  0  0  0  0  0  0  0  0  0  0
   59.6770   34.5740   48.2660 C   0  0  0  0  0  0  0  0  0  0  0  0
   59.6610   36.0460   46.0410 O   0  0  0  0  0  0  0  0  0  0  0  0
   60.5990   33.7960   45.8500 O   0  0  0  0  0  0  0  0  0  0  0  0
   57.1320   31.8090   45.2760 C   0  0  0  0  0  0  0  0  0  0  0  0
   58.3440   28.6000   46.6260 C   0  0  0  0  0  0  0  0  0  0  0  0
   60.6560   30.4610   47.2930 C   0  0  0  0  0  0  0  0  0  0  0  0
   61.8150   31.4600   47.1810 C   0  0  0  0  0  0  0  0  0  0  0  0
   64.6533   34.1810   47.6145 H   0  0  0  0  0  0  0  0  0  0  0  0
   64.2695   32.6636   46.7331 H   0  0  0  0  0  0  0  0  0  0  0  0
   63.0961   34.0236   46.7331 H   0  0  0  0  0  0  0  0  0  0  0  0
   63.8057   32.0900   48.9686 H   0  0  0  0  0  0  0  0  0  0  0  0
   63.1227   33.7274   49.3338 H   0  0  0  0  0  0  0  0  0  0  0  0
   61.6439   32.3712   50.4177 H   0  0  0  0  0  0  0  0  0  0  0  0
   60.1104   32.1014   49.4838 H   0  0  0  0  0  0  0  0  0  0  0  0
   62.4385   30.1391   49.7282 H   0  0  0  0  0  0  0  0  0  0  0  0
   60.8289   30.0408   50.5704 H   0  0  0  0  0  0  0  0  0  0  0  0
   59.6137   28.3941   49.7607 H   0  0  0  0  0  0  0  0  0  0  0  0
   58.7377   29.7686   48.9920 H   0  0  0  0  0  0  0  0  0  0  0  0
   59.8959   26.2981   48.6286 H   0  0  0  0  0  0  0  0  0  0  0  0
   59.1348   24.7887   46.7962 H   0  0  0  0  0  0  0  0  0  0  0  0
   57.8278   25.7038   44.8786 H   0  0  0  0  0  0  0  0  0  0  0  0
   57.3527   30.3718   42.1759 H   0  0  0  0  0  0  0  0  0  0  0  0
   58.4398   32.5564   41.6838 H   0  0  0  0  0  0  0  0  0  0  0  0
   58.7188   34.2532   43.4835 H   0  0  0  0  0  0  0  0  0  0  0  0
   57.1550   34.2890   46.6450 H   0  0  0  0  0  0  0  0  0  0  0  0
   58.7204   34.8622   48.7262 H   0  0  0  0  0  0  0  0  0  0  0  0
   59.9445   33.5554   48.5836 H   0  0  0  0  0  0  0  0  0  0  0  0
   60.4627   35.2753   48.5836 H   0  0  0  0  0  0  0  0  0  0  0  0
   56.7616   31.5985   46.2902 H   0  0  0  0  0  0  0  0  0  0  0  0
   58.1458   29.6802   46.5632 H   0  0  0  0  0  0  0  0  0  0  0  0
   60.6583   29.8070   46.4085 H   0  0  0  0  0  0  0  0  0  0  0  0
   59.7132   31.0243   47.3541 H   0  0  0  0  0  0  0  0  0  0  0  0
   62.7643   30.9043   47.1773 H   0  0  0  0  0  0  0  0  0  0  0  0
   61.6852   32.0296   46.2490 H   0  0  0  0  0  0  0  0  0  0  0  0
  1  2  1  0
  2  3  1  0
  3  4  1  0
  4  5  1  0
  5  6  1  0
  6  7  1  0
  7  8  1  0
  8  9  2  0
  9 10  1  0
 10 11  2  0
 11 12  1  0
 12 13  1  0
 13 14  1  0
 14 15  2  0
 14 16  1  0
 16 17  2  0
 17 18  1  0
 18 19  2  0
 19 20  1  0
 20 21  1  0
 21 22  1  0
 22 23  1  0
 22 24  2  0
 22 25  2  0
 20 26  2  0
 12 27  2  0
  6 28  1  0
 28 29  1  0
 29  3  1  0
 27  8  1  0
 26 16  1  0
  1 30  1  0
  1 31  1  0
  1 32  1  0
  2 33  1  0
  2 34  1  0
  4 35  1  0
  4 36  1  0
  5 37  1  0
  5 38  1  0
  7 39  1  0
  7 40  1  0
  9 41  1  0
 10 42  1  0
 11 43  1  0
 17 44  1  0
 18 45  1  0
 19 46  1  0
 21 47  1  0
 23 48  1  0
 23 49  1  0
 23 50  1  0
 26 51  1  0
 27 52  1  0
 28 53  1  0
 28 54  1  0
 29 55  1  0
 29 56  1  0
M  CHG  1  13  -1
M  END
>  <UniqueID>  (13) 
13

>  <SMILES>  (13) 
CCN1CCN(Cc2cccc([N-]C(=O)c3cccc(NS(C)(=O)=O)c3)c2)CC1

>  <Energy>  (13) 
70.16073780417653

>  <Genealogy>  (13) 
CCN1CCN(Cc2cccc([N-]C(=O)c3cccc(NS(C)(=O)=O)c3)c2)CC1 (protonated)
CCN1CCN(Cc2cccc([N-]C(=O)c3cccc(NS(C)(=O)=O)c3)c2)CC1 (3D coordinates assigned)
CCN1CCN(Cc2cccc([N-]C(=O)c3cccc(NS(C)(=O)=O)c3)c2)CC1 (nonaromatic ring conformer: 70.16073780417653 kcal/mol)

>  <smiles>  (13) 
CCN1CCN(Cc2cccc(NC(=O)c3cccc(NS(C)(=O)=O)c3)c2)CC1

>  <score_type>  (13) 
oracle

>  <origin>  (13) 
adg

>  <m_score__min__energy>  (13) 
-11.119999999999999

>  <m_primary>  (13) 
energy

$$$$
13:0
     RDKit          3D

 48 50  0  0  0  0  0  0  0  0999 V2000
   59.1400   32.1780   49.2440 O   0  0  0  0  0  0  0  0  0  0  0  0
   59.6260   33.3000   49.5530 C   0  0  0  0  0  0  0  0  0  0  0  0
   60.0920   33.5330   50.9530 C   0  0  0  0  0  0  0  0  0  0  0  0
   61.4830   32.4160   51.3200 S   0  0  0  0  0  0  0  0  0  0  0  0
   62.1990   32.5730   49.6830 C   0  0  0  0  0  0  0  0  0  0  0  0
   62.8230   33.7670   49.3020 C   0  0  0  0  0  0  0  0  0  0  0  0
   63.3760   33.8920   48.0230 C   0  0  0  0  0  0  0  0  0  0  0  0
   63.3050   32.8230   47.1240 C   0  0  0  0  0  0  0  0  0  0  0  0
   62.6800   31.6300   47.5020 C   0  0  0  0  0  0  0  0  0  0  0  0
   62.1240   31.5050   48.7790 C   0  0  0  0  0  0  0  0  0  0  0  0
   59.6480   34.3760   48.6030 N   0  0  0  0  0  0  0  0  0  0  0  0
   59.3550   34.2220   47.2040 C   0  0  0  0  0  0  0  0  0  0  0  0
   59.5680   35.2690   46.2890 C   0  0  0  0  0  0  0  0  0  0  0  0
   59.2530   35.0990   44.9370 C   0  0  0  0  0  0  0  0  0  0  0  0
   58.7150   33.8910   44.4880 C   0  0  0  0  0  0  0  0  0  0  0  0
   58.4800   32.8470   45.3930 C   0  0  0  0  0  0  0  0  0  0  0  0
   57.7750   31.3260   44.8520 S   0  0  0  0  0  0  0  0  0  0  0  0
   56.2740   31.4220   44.8440 O   0  0  0  0  0  0  0  0  0  0  0  0
   58.2480   31.0500   43.4510 O   0  0  0  0  0  0  0  0  0  0  0  0
   58.2810   30.0380   45.9180 N   0  0  0  0  0  0  0  0  0  0  0  0
   57.7370   28.7300   45.4740 C   0  0  0  0  0  0  0  0  0  0  0  0
   58.7770   27.8620   44.7500 C   0  0  0  0  0  0  0  0  0  0  0  0
   59.9950   27.5890   45.6480 C   0  0  0  0  0  0  0  0  0  0  0  0
   60.2860   28.7440   46.6230 C   0  0  0  0  0  0  0  0  0  0  0  0
   59.7520   30.0730   46.0790 C   0  0  0  0  0  0  0  0  0  0  0  0
   58.7900   33.0210   46.7480 C   0  0  0  0  0  0  0  0  0  0  0  0
   60.4210   34.5770   51.0615 H   0  0  0  0  0  0  0  0  0  0  0  0
   59.2669   33.3353   51.6531 H   0  0  0  0  0  0  0  0  0  0  0  0
   62.8785   34.6078   50.0091 H   0  0  0  0  0  0  0  0  0  0  0  0
   63.8663   34.8304   47.7247 H   0  0  0  0  0  0  0  0  0  0  0  0
   63.7410   32.9204   46.1188 H   0  0  0  0  0  0  0  0  0  0  0  0
   62.6258   30.7896   46.7943 H   0  0  0  0  0  0  0  0  0  0  0  0
   61.6279   30.5685   49.0738 H   0  0  0  0  0  0  0  0  0  0  0  0
   59.7880   35.3440   48.9710 H   0  0  0  0  0  0  0  0  0  0  0  0
   59.9841   36.2255   46.6383 H   0  0  0  0  0  0  0  0  0  0  0  0
   59.4295   35.9190   44.2254 H   0  0  0  0  0  0  0  0  0  0  0  0
   58.4754   33.7587   43.4226 H   0  0  0  0  0  0  0  0  0  0  0  0
   57.3769   28.1821   46.3573 H   0  0  0  0  0  0  0  0  0  0  0  0
   56.9261   28.9362   44.7599 H   0  0  0  0  0  0  0  0  0  0  0  0
   58.3139   26.9037   44.4723 H   0  0  0  0  0  0  0  0  0  0  0  0
   59.1184   28.4015   43.8543 H   0  0  0  0  0  0  0  0  0  0  0  0
   59.8045   26.6759   46.2311 H   0  0  0  0  0  0  0  0  0  0  0  0
   60.8720   27.4785   44.9932 H   0  0  0  0  0  0  0  0  0  0  0  0
   59.8023   28.5304   47.5876 H   0  0  0  0  0  0  0  0  0  0  0  0
   61.3756   28.8300   46.7474 H   0  0  0  0  0  0  0  0  0  0  0  0
   60.0164   30.8787   46.7796 H   0  0  0  0  0  0  0  0  0  0  0  0
   60.2044   30.2502   45.0921 H   0  0  0  0  0  0  0  0  0  0  0  0
   58.5886   32.2084   47.4615 H   0  0  0  0  0  0  0  0  0  0  0  0
  1  2  2  0
  2  3  1  0
  3  4  1  0
  4  5  1  0
  5  6  2  0
  6  7  1  0
  7  8  2  0
  8  9  1  0
  9 10  2  0
  2 11  1  0
 11 12  1  0
 12 13  2  0
 13 14  1  0
 14 15  2  0
 15 16  1  0
 16 17  1  0
 17 18  2  0
 17 19  2  0
 17 20  1  0
 20 21  1  0
 21 22  1  0
 22 23  1  0
 23 24  1  0
 24 25  1  0
 16 26  2  0
 10  5  1  0
 26 12  1  0
 25 20  1  0
  3 27  1  0
  3 28  1  0
  6 29  1  0
  7 30  1  0
  8 31  1  0
  9 32  1  0
 10 33  1  0
 11 34  1  0
 13 35  1  0
 14 36  1  0
 15 37  1  0
 21 38  1  0
 21 39  1  0
 22 40  1  0
 22 41  1  0
 23 42  1  0
 23 43  1  0
 24 44  1  0
 24 45  1  0
 25 46  1  0
 25 47  1  0
 26 48  1  0
M  END
>  <UniqueID>  (14) 
14

>  <SMILES>  (14) 
O=C(CSc1ccccc1)Nc1cccc(S(=O)(=O)N2CCCCC2)c1

>  <Energy>  (14) 
52.02810194734159

>  <Genealogy>  (14) 
O=C(CSc1ccccc1)Nc1cccc(S(=O)(=O)N2CCCCC2)c1 (3D coordinates assigned)
O=C(CSc1ccccc1)Nc1cccc(S(=O)(=O)N2CCCCC2)c1 (nonaromatic ring conformer: 52.02810194734159 kcal/mol)

>  <smiles>  (14) 
O=C(CSc1ccccc1)Nc1cccc(S(=O)(=O)N2CCCCC2)c1

>  <score_type>  (14) 
oracle

>  <origin>  (14) 
adg

>  <m_score__min__energy>  (14) 
-9.75

>  <m_primary>  (14) 
energy

$$$$
14:0
     RDKit          3D

 57 60  0  0  0  0  0  0  0  0999 V2000
   62.6980   31.3470   52.2780 O   0  0  0  0  0  0  0  0  0  0  0  0
   63.2940   30.9050   51.2580 C   0  0  0  0  0  0  0  0  0  0  0  0
   64.7920   30.8640   51.2230 C   0  0  0  0  0  0  0  0  0  0  0  0
   65.3900   32.0150   50.4020 C   0  0  0  0  0  0  0  0  0  0  0  0
   64.5490   33.3070   50.4920 C   0  0  0  0  0  0  0  0  0  0  0  0
   63.3370   33.2440   49.6360 N   0  0  1  0  0  0  0  0  0  0  0  0
   62.2290   34.0420   50.2100 C   0  0  0  0  0  0  0  0  0  0  0  0
   61.0390   34.1120   49.2900 C   0  0  0  0  0  0  0  0  0  0  0  0
   61.1420   33.9390   47.9600 C   0  0  0  0  0  0  0  0  0  0  0  0
   59.9260   34.0100   47.1070 C   0  0  0  0  0  0  0  0  0  0  0  0
   60.0020   34.4950   45.7870 C   0  0  0  0  0  0  0  0  0  0  0  0
   58.8590   34.5420   44.9830 C   0  0  0  0  0  0  0  0  0  0  0  0
   57.6300   34.1080   45.4840 C   0  0  0  0  0  0  0  0  0  0  0  0
   57.5390   33.6270   46.7920 C   0  0  0  0  0  0  0  0  0  0  0  0
   58.6790   33.5760   47.6000 C   0  0  0  0  0  0  0  0  0  0  0  0
   62.4530   33.5090   47.3410 C   0  0  0  0  0  0  0  0  0  0  0  0
   63.6460   33.7390   48.2770 C   0  0  0  0  0  0  0  0  0  0  0  0
   62.5470   30.4180   50.1400 N   0  0  0  0  0  0  0  0  0  0  0  0
   61.0920   30.4050   50.1040 C   0  0  0  0  0  0  0  0  0  0  0  0
   60.6250   30.4630   48.6860 C   0  0  0  0  0  0  0  0  0  0  0  0
   61.4350   30.5650   47.5610 C   0  0  0  0  0  0  0  0  0  0  0  0
   60.7160   30.5870   46.3600 C   0  0  0  0  0  0  0  0  0  0  0  0
   59.3300   30.5080   46.5320 C   0  0  0  0  0  0  0  0  0  0  0  0
   58.2980   30.4850   45.4610 C   0  0  0  0  0  0  0  0  0  0  0  0
   58.4610   31.2280   44.2760 C   0  0  0  0  0  0  0  0  0  0  0  0
   57.4820   31.1720   43.2820 C   0  0  0  0  0  0  0  0  0  0  0  0
   56.3750   30.4050   43.4540 N   0  0  0  0  0  0  0  0  0  0  0  0
   56.1830   29.6790   44.5860 C   0  0  0  0  0  0  0  0  0  0  0  0
   55.1440   28.9810   44.7110 O   0  0  0  0  0  0  0  0  0  0  0  0
   57.1380   29.7050   45.6070 C   0  0  0  0  0  0  0  0  0  0  0  0
   59.0220   30.4110   48.1900 S   0  0  0  0  0  0  0  0  0  0  0  0
   65.1714   30.9307   52.2534 H   0  0  0  0  0  0  0  0  0  0  0  0
   65.0905   29.9199   50.7439 H   0  0  0  0  0  0  0  0  0  0  0  0
   66.4023   32.2265   50.7769 H   0  0  0  0  0  0  0  0  0  0  0  0
   65.4057   31.7000   49.3482 H   0  0  0  0  0  0  0  0  0  0  0  0
   64.2384   33.4562   51.5366 H   0  0  0  0  0  0  0  0  0  0  0  0
   65.1713   34.1422   50.1381 H   0  0  0  0  0  0  0  0  0  0  0  0
   63.0330   32.2440   49.5560 H   0  0  0  0  0  0  0  0  0  0  0  0
   61.9161   33.5817   51.1588 H   0  0  0  0  0  0  0  0  0  0  0  0
   62.5968   35.0673   50.3631 H   0  0  0  0  0  0  0  0  0  0  0  0
   60.0475   34.3123   49.7221 H   0  0  0  0  0  0  0  0  0  0  0  0
   60.9668   34.8391   45.3859 H   0  0  0  0  0  0  0  0  0  0  0  0
   58.9282   34.9219   43.9530 H   0  0  0  0  0  0  0  0  0  0  0  0
   56.7331   34.1450   44.8482 H   0  0  0  0  0  0  0  0  0  0  0  0
   56.5699   33.2881   47.1868 H   0  0  0  0  0  0  0  0  0  0  0  0
   58.6020   33.1941   48.6287 H   0  0  0  0  0  0  0  0  0  0  0  0
   62.3949   32.4373   47.0999 H   0  0  0  0  0  0  0  0  0  0  0  0
   62.6130   34.1176   46.4388 H   0  0  0  0  0  0  0  0  0  0  0  0
   64.5225   33.2016   47.8860 H   0  0  0  0  0  0  0  0  0  0  0  0
   63.8565   34.8174   48.3290 H   0  0  0  0  0  0  0  0  0  0  0  0
   60.7225   29.4815   50.5736 H   0  0  0  0  0  0  0  0  0  0  0  0
   60.7053   31.2770   50.6518 H   0  0  0  0  0  0  0  0  0  0  0  0
   62.5324   30.6227   47.6096 H   0  0  0  0  0  0  0  0  0  0  0  0
   61.1962   30.6596   45.3730 H   0  0  0  0  0  0  0  0  0  0  0  0
   59.3567   31.8505   44.1338 H   0  0  0  0  0  0  0  0  0  0  0  0
   57.6082   31.7517   42.3557 H   0  0  0  0  0  0  0  0  0  0  0  0
   56.9817   29.1161   46.5228 H   0  0  0  0  0  0  0  0  0  0  0  0
  1  2  2  0
  2  3  1  0
  3  4  1  0
  4  5  1  0
  5  6  1  0
  6  7  1  0
  7  8  1  0
  8  9  2  0
  9 10  1  0
 10 11  2  0
 11 12  1  0
 12 13  2  0
 13 14  1  0
 14 15  2  0
  9 16  1  0
 16 17  1  0
  2 18  1  0
 18 19  1  0
 19 20  1  0
 20 21  2  0
 21 22  1  0
 22 23  2  0
 23 24  1  0
 24 25  1  0
 25 26  2  0
 26 27  1  0
 27 28  1  0
 28 29  2  0
 28 30  1  0
 23 31  1  0
 17  6  1  0
 31 20  1  0
 15 10  1  0
 30 24  2  0
  3 32  1  0
  3 33  1  0
  4 34  1  0
  4 35  1  0
  5 36  1  0
  5 37  1  0
  6 38  1  6
  7 39  1  0
  7 40  1  0
  8 41  1  0
 11 42  1  0
 12 43  1  0
 13 44  1  0
 14 45  1  0
 15 46  1  0
 16 47  1  0
 16 48  1  0
 17 49  1  0
 17 50  1  0
 19 51  1  0
 19 52  1  0
 21 53  1  0
 22 54  1  0
 25 55  1  0
 26 56  1  0
 30 57  1  0
M  CHG  3   6   1  18  -1  27  -1
M  END
>  <UniqueID>  (15) 
15

>  <SMILES>  (15) 
O=C(CCC[N@H+]1CC=C(c2ccccc2)CC1)[N-]Cc1ccc(-c2cc[n-]c(=O)c2)s1

>  <Energy>  (15) 
92.51664219403528

>  <Genealogy>  (15) 
O=C(CCC[NH+]1CC=C(c2ccccc2)CC1)[N-]Cc1ccc(-c2cc[n-]c(=O)c2)s1 (protonated)
O=C(CCC[N@H+]1CC=C(c2ccccc2)CC1)[N-]Cc1ccc(-c2cc[n-]c(=O)c2)s1 (chirality)
O=C(CCC[N@H+]1CC=C(c2ccccc2)CC1)[N-]Cc1ccc(-c2cc[n-]c(=O)c2)s1 (3D coordinates assigned)
O=C(CCC[N@H+]1CC=C(c2ccccc2)CC1)[N-]Cc1ccc(-c2cc[n-]c(=O)c2)s1 (nonaromatic ring conformer: 92.51664219403528 kcal/mol)

>  <smiles>  (15) 
O=C(CCCN1CC=C(c2ccccc2)CC1)NCc1ccc(-c2cc[nH]c(=O)c2)s1

>  <score_type>  (15) 
oracle

>  <origin>  (15) 
adg

>  <m_score__min__energy>  (15) 
-10.81

>  <m_primary>  (15) 
energy

$$$$
15:0
     RDKit          3D

 53 55  0  0  0  0  0  0  0  0999 V2000
   58.4740   27.4710   43.8540 C   0  0  0  0  0  0  0  0  0  0  0  0
   57.4140   28.2340   43.5910 C   0  0  0  0  0  0  0  0  0  0  0  0
   57.2230   29.5800   44.1620 C   0  0  0  0  0  0  0  0  0  0  0  0
   56.2370   29.7740   44.9230 O   0  0  0  0  0  0  0  0  0  0  0  0
   58.0940   30.6740   43.8230 N   0  0  0  0  0  0  0  0  0  0  0  0
   58.2000   31.8770   44.6040 C   0  0  0  0  0  0  0  0  0  0  0  0
   57.7770   33.1170   44.0960 C   0  0  0  0  0  0  0  0  0  0  0  0
   57.8630   34.2670   44.8840 C   0  0  0  0  0  0  0  0  0  0  0  0
   58.3640   34.1920   46.1850 C   0  0  0  0  0  0  0  0  0  0  0  0
   58.7780   32.9590   46.7180 C   0  0  0  0  0  0  0  0  0  0  0  0
   59.2940   32.8770   48.0630 N   0  0  0  0  0  0  0  0  0  0  0  0
   59.7450   34.1120   48.7240 C   0  0  0  0  0  0  0  0  0  0  0  0
   60.2550   33.8310   50.1340 C   0  0  0  0  0  0  0  0  0  0  0  0
   61.0650   32.6080   50.0950 N   0  0  0  0  0  0  0  0  0  0  0  0
   62.0280   32.4500   51.5470 S   0  0  0  0  0  0  0  0  0  0  0  0
   61.7210   31.1290   52.1940 O   0  0  0  0  0  0  0  0  0  0  0  0
   61.6310   33.5230   52.5210 O   0  0  0  0  0  0  0  0  0  0  0  0
   63.7750   32.5040   51.2060 C   0  0  0  0  0  0  0  0  0  0  0  0
   64.6410   32.5430   52.3120 C   0  0  0  0  0  0  0  0  0  0  0  0
   66.0200   32.6670   52.1410 C   0  0  0  0  0  0  0  0  0  0  0  0
   66.5560   32.7720   50.8610 C   0  0  0  0  0  0  0  0  0  0  0  0
   65.7160   32.7460   49.7470 C   0  0  0  0  0  0  0  0  0  0  0  0
   64.3250   32.6020   49.8970 C   0  0  0  0  0  0  0  0  0  0  0  0
   63.5100   32.5650   48.6690 C   0  0  0  0  0  0  0  0  0  0  0  0
   63.0250   31.4680   48.2780 O   0  0  0  0  0  0  0  0  0  0  0  0
   63.2210   33.7460   47.9810 O   0  0  0  0  0  0  0  0  0  0  0  0
   62.6620   33.7590   46.6740 C   0  0  0  0  0  0  0  0  0  0  0  0
   60.2050   31.4260   49.9090 C   0  0  0  0  0  0  0  0  0  0  0  0
   59.1140   31.6340   48.8310 C   0  0  0  0  0  0  0  0  0  0  0  0
   58.6820   31.8040   45.9210 C   0  0  0  0  0  0  0  0  0  0  0  0
   58.5609   26.4740   43.3974 H   0  0  0  0  0  0  0  0  0  0  0  0
   59.2623   27.8380   44.5277 H   0  0  0  0  0  0  0  0  0  0  0  0
   56.6422   27.8399   42.9135 H   0  0  0  0  0  0  0  0  0  0  0  0
   58.5850   30.6470   42.9010 H   0  0  0  0  0  0  0  0  0  0  0  0
   57.3765   33.1823   43.0736 H   0  0  0  0  0  0  0  0  0  0  0  0
   57.5348   35.2353   44.4781 H   0  0  0  0  0  0  0  0  0  0  0  0
   58.4352   35.1035   46.7967 H   0  0  0  0  0  0  0  0  0  0  0  0
   60.5568   34.5596   48.1318 H   0  0  0  0  0  0  0  0  0  0  0  0
   58.8899   34.8004   48.7946 H   0  0  0  0  0  0  0  0  0  0  0  0
   60.8702   34.6738   50.4820 H   0  0  0  0  0  0  0  0  0  0  0  0
   59.4087   33.7036   50.8251 H   0  0  0  0  0  0  0  0  0  0  0  0
   64.2252   32.4747   53.3281 H   0  0  0  0  0  0  0  0  0  0  0  0
   66.6838   32.6818   53.0180 H   0  0  0  0  0  0  0  0  0  0  0  0
   67.6429   32.8756   50.7273 H   0  0  0  0  0  0  0  0  0  0  0  0
   66.1470   32.8393   48.7393 H   0  0  0  0  0  0  0  0  0  0  0  0
   61.5646   33.7845   46.7448 H   0  0  0  0  0  0  0  0  0  0  0  0
   63.0153   34.6492   46.1329 H   0  0  0  0  0  0  0  0  0  0  0  0
   62.9736   32.8534   46.1329 H   0  0  0  0  0  0  0  0  0  0  0  0
   60.8367   30.5769   49.6089 H   0  0  0  0  0  0  0  0  0  0  0  0
   59.6919   31.2395   50.8640 H   0  0  0  0  0  0  0  0  0  0  0  0
   59.1435   30.7837   48.1337 H   0  0  0  0  0  0  0  0  0  0  0  0
   58.1472   31.7054   49.3507 H   0  0  0  0  0  0  0  0  0  0  0  0
   58.9882   30.8317   46.3344 H   0  0  0  0  0  0  0  0  0  0  0  0
  1  2  2  0
  2  3  1  0
  3  4  2  0
  3  5  1  0
  5  6  1  0
  6  7  2  0
  7  8  1  0
  8  9  2  0
  9 10  1  0
 10 11  1  0
 11 12  1  0
 12 13  1  0
 13 14  1  0
 14 15  1  0
 15 16  2  0
 15 17  2  0
 15 18  1  0
 18 19  2  0
 19 20  1  0
 20 21  2  0
 21 22  1  0
 22 23  2  0
 23 24  1  0
 24 25  2  0
 24 26  1  0
 26 27  1  0
 14 28  1  0
 28 29  1  0
 10 30  2  0
 30  6  1  0
 29 11  1  0
 23 18  1  0
  1 31  1  0
  1 32  1  0
  2 33  1  0
  5 34  1  0
  7 35  1  0
  8 36  1  0
  9 37  1  0
 12 38  1  0
 12 39  1  0
 13 40  1  0
 13 41  1  0
 19 42  1  0
 20 43  1  0
 21 44  1  0
 22 45  1  0
 27 46  1  0
 27 47  1  0
 27 48  1  0
 28 49  1  0
 28 50  1  0
 29 51  1  0
 29 52  1  0
 30 53  1  0
M  END
>  <UniqueID>  (16) 
16

>  <SMILES>  (16) 
C=CC(=O)Nc1cccc(N2CCN(S(=O)(=O)c3ccccc3C(=O)OC)CC2)c1

>  <Energy>  (16) 
70.82070254143825

>  <Genealogy>  (16) 
C=CC(=O)Nc1cccc(N2CCN(S(=O)(=O)c3ccccc3C(=O)OC)CC2)c1 (3D coordinates assigned)
C=CC(=O)Nc1cccc(N2CCN(S(=O)(=O)c3ccccc3C(=O)OC)CC2)c1 (nonaromatic ring conformer: 70.82070254143825 kcal/mol)

>  <smiles>  (16) 
C=CC(=O)Nc1cccc(N2CCN(S(=O)(=O)c3ccccc3C(=O)OC)CC2)c1

>  <score_type>  (16) 
oracle

>  <origin>  (16) 
adg

>  <m_score__min__energy>  (16) 
-8.8499999999999996

>  <m_primary>  (16) 
energy

$$$$
16:0
     RDKit          3D

 47 49  0  0  0  0  0  0  0  0999 V2000
   55.1600   29.3290   44.8470 N   0  0  0  0  0  0  0  0  0  0  0  0
   56.8230   29.6170   44.4830 S   0  0  0  0  0  0  0  0  0  0  0  0
   57.0410   29.4870   43.0030 O   0  0  0  0  0  0  0  0  0  0  0  0
   57.1940   31.0130   44.9070 O   0  0  0  0  0  0  0  0  0  0  0  0
   57.8280   28.4460   45.3340 C   0  0  0  0  0  0  0  0  0  0  0  0
   58.0470   27.1730   44.7900 C   0  0  0  0  0  0  0  0  0  0  0  0
   58.8710   26.2550   45.4560 C   0  0  0  0  0  0  0  0  0  0  0  0
   59.4750   26.6030   46.6670 C   0  0  0  0  0  0  0  0  0  0  0  0
   59.2590   27.8740   47.2260 C   0  0  0  0  0  0  0  0  0  0  0  0
   59.9130   28.2500   48.5330 C   0  0  0  0  0  0  0  0  0  0  0  0
   60.3330   29.6670   48.5500 N   0  0  0  0  0  0  0  0  0  0  0  0
   59.1420   30.5510   48.6900 C   0  0  0  0  0  0  0  0  0  0  0  0
   59.3980   31.8310   49.5090 C   0  0  0  0  0  0  0  0  0  0  0  0
   60.7750   32.3040   49.3180 N   0  0  0  0  0  0  0  0  0  0  0  0
   61.0690   33.7150   49.2480 C   0  0  0  0  0  0  0  0  0  0  0  0
   62.1030   34.1650   49.8100 O   0  0  0  0  0  0  0  0  0  0  0  0
   60.1960   34.6360   48.5750 N   0  0  0  0  0  0  0  0  0  0  0  0
   59.4950   34.3680   47.3520 C   0  0  0  0  0  0  0  0  0  0  0  0
   58.2020   33.8320   47.4150 C   0  0  0  0  0  0  0  0  0  0  0  0
   57.5020   33.5400   46.2390 C   0  0  0  0  0  0  0  0  0  0  0  0
   58.0800   33.8060   44.9900 C   0  0  0  0  0  0  0  0  0  0  0  0
   57.3900   33.5240   43.8110 O   0  0  0  0  0  0  0  0  0  0  0  0
   59.3630   34.3610   44.9260 C   0  0  0  0  0  0  0  0  0  0  0  0
   60.0690   34.6440   46.0970 C   0  0  0  0  0  0  0  0  0  0  0  0
   61.8740   31.3460   49.4760 C   0  0  0  0  0  0  0  0  0  0  0  0
   61.3450   29.9140   49.5970 C   0  0  0  0  0  0  0  0  0  0  0  0
   58.4400   28.7950   46.5490 C   0  0  0  0  0  0  0  0  0  0  0  0
   55.1350   28.6510   45.6410 H   0  0  0  0  0  0  0  0  0  0  0  0
   57.5713   26.8936   43.8384 H   0  0  0  0  0  0  0  0  0  0  0  0
   59.0425   25.2580   45.0241 H   0  0  0  0  0  0  0  0  0  0  0  0
   60.1219   25.8794   47.1846 H   0  0  0  0  0  0  0  0  0  0  0  0
   59.1969   28.0812   49.3508 H   0  0  0  0  0  0  0  0  0  0  0  0
   60.8105   27.6263   48.6577 H   0  0  0  0  0  0  0  0  0  0  0  0
   58.8112   30.8460   47.6833 H   0  0  0  0  0  0  0  0  0  0  0  0
   58.3819   29.9731   49.2362 H   0  0  0  0  0  0  0  0  0  0  0  0
   58.6986   32.6146   49.1820 H   0  0  0  0  0  0  0  0  0  0  0  0
   59.2470   31.6044   50.5748 H   0  0  0  0  0  0  0  0  0  0  0  0
   57.7354   33.6400   48.3925 H   0  0  0  0  0  0  0  0  0  0  0  0
   56.4952   33.1004   46.2949 H   0  0  0  0  0  0  0  0  0  0  0  0
   57.1680   32.5730   43.5420 H   0  0  0  0  0  0  0  0  0  0  0  0
   59.8179   34.5755   43.9477 H   0  0  0  0  0  0  0  0  0  0  0  0
   61.0757   35.0835   46.0385 H   0  0  0  0  0  0  0  0  0  0  0  0
   62.5361   31.4114   48.6001 H   0  0  0  0  0  0  0  0  0  0  0  0
   62.4236   31.5940   50.3960 H   0  0  0  0  0  0  0  0  0  0  0  0
   62.1774   29.2052   49.4754 H   0  0  0  0  0  0  0  0  0  0  0  0
   60.8855   29.7779   50.5871 H   0  0  0  0  0  0  0  0  0  0  0  0
   58.2774   29.7964   46.9742 H   0  0  0  0  0  0  0  0  0  0  0  0
  1  2  1  0
  2  3  2  0
  2  4  2  0
  2  5  1  0
  5  6  2  0
  6  7  1  0
  7  8  2  0
  8  9  1  0
  9 10  1  0
 10 11  1  0
 11 12  1  0
 12 13  1  0
 13 14  1  0
 14 15  1  0
 15 16  2  0
 15 17  1  0
 17 18  1  0
 18 19  2  0
 19 20  1  0
 20 21  2  0
 21 22  1  0
 21 23  1  0
 23 24  2  0
 14 25  1  0
 25 26  1  0
  9 27  2  0
 27  5  1  0
 26 11  1  0
 24 18  1  0
  1 28  1  0
  6 29  1  0
  7 30  1  0
  8 31  1  0
 10 32  1  0
 10 33  1  0
 12 34  1  0
 12 35  1  0
 13 36  1  0
 13 37  1  0
 19 38  1  0
 20 39  1  0
 22 40  1  0
 23 41  1  0
 24 42  1  0
 25 43  1  0
 25 44  1  0
 26 45  1  0
 26 46  1  0
 27 47  1  0
M  CHG  2   1  -1  17  -1
M  END
>  <UniqueID>  (17) 
17

>  <SMILES>  (17) 
[NH-]S(=O)(=O)c1cccc(CN2CCN(C(=O)[N-]c3ccc(O)cc3)CC2)c1

>  <Energy>  (17) 
58.91021410427473

>  <Genealogy>  (17) 
[NH-]S(=O)(=O)c1cccc(CN2CCN(C(=O)[N-]c3ccc(O)cc3)CC2)c1 (protonated)
[NH-]S(=O)(=O)c1cccc(CN2CCN(C(=O)[N-]c3ccc(O)cc3)CC2)c1 (3D coordinates assigned)
[NH-]S(=O)(=O)c1cccc(CN2CCN(C(=O)[N-]c3ccc(O)cc3)CC2)c1 (nonaromatic ring conformer: 58.91021410427473 kcal/mol)

>  <smiles>  (17) 
NS(=O)(=O)c1cccc(CN2CCN(C(=O)Nc3ccc(O)cc3)CC2)c1

>  <score_type>  (17) 
oracle

>  <origin>  (17) 
adg

>  <m_score__min__energy>  (17) 
-12.720000000000001

>  <m_primary>  (17) 
energy

$$$$
17:0
     RDKit          3D

 49 51  0  0  0  0  0  0  0  0999 V2000
   57.8270   32.8060   44.1970 C   0  0  0  0  0  0  0  0  0  0  0  0
   57.5970   31.3460   43.8370 C   0  0  0  0  0  0  0  0  0  0  0  0
   56.7770   30.7060   44.8620 N   0  0  0  0  0  0  0  0  0  0  0  0
   56.3750   29.3330   44.8340 C   0  0  0  0  0  0  0  0  0  0  0  0
   55.1580   29.0530   44.6760 O   0  0  0  0  0  0  0  0  0  0  0  0
   57.3360   28.2740   44.9610 N   0  0  0  0  0  0  0  0  0  0  0  0
   57.9070   27.6820   43.7490 C   0  0  0  0  0  0  0  0  0  0  0  0
   57.6020   27.6910   46.2790 C   0  0  0  0  0  0  0  0  0  0  0  0
   58.5410   28.5690   47.0410 C   0  0  0  0  0  0  0  0  0  0  0  0
   59.3790   28.0880   48.0440 C   0  0  0  0  0  0  0  0  0  0  0  0
   60.3350   29.3670   48.5630 S   0  0  0  0  0  0  0  0  0  0  0  0
   59.6480   30.4780   47.4960 C   0  0  0  0  0  0  0  0  0  0  0  0
   60.0520   31.8930   47.3390 C   0  0  0  0  0  0  0  0  0  0  0  0
   59.0790   32.9070   47.3220 C   0  0  0  0  0  0  0  0  0  0  0  0
   59.4490   34.2420   47.1420 C   0  0  0  0  0  0  0  0  0  0  0  0
   60.7920   34.5810   46.9690 C   0  0  0  0  0  0  0  0  0  0  0  0
   61.7780   33.5840   46.9810 C   0  0  0  0  0  0  0  0  0  0  0  0
   63.2260   33.9370   46.7620 C   0  0  0  0  0  0  0  0  0  0  0  0
   64.0880   33.0480   47.5380 N   0  0  0  0  0  0  0  0  0  0  0  0
   64.1360   33.0960   48.9770 C   0  0  0  0  0  0  0  0  0  0  0  0
   63.2960   33.8000   49.5980 O   0  0  0  0  0  0  0  0  0  0  0  0
   65.1670   32.3490   49.7920 C   0  0  0  0  0  0  0  0  0  0  0  0
   66.4560   33.0810   50.1290 C   0  0  0  0  0  0  0  0  0  0  0  0
   65.4040   32.8530   51.2070 C   0  0  0  0  0  0  0  0  0  0  0  0
   61.4050   32.2450   47.1760 C   0  0  0  0  0  0  0  0  0  0  0  0
   58.7000   29.8850   46.7360 N   0  0  0  0  0  0  0  0  0  0  0  0
   57.8442   32.9155   45.2914 H   0  0  0  0  0  0  0  0  0  0  0  0
   58.7887   33.1394   43.7800 H   0  0  0  0  0  0  0  0  0  0  0  0
   57.0143   33.4189   43.7800 H   0  0  0  0  0  0  0  0  0  0  0  0
   57.0815   31.2861   42.8671 H   0  0  0  0  0  0  0  0  0  0  0  0
   58.5668   30.8307   43.7743 H   0  0  0  0  0  0  0  0  0  0  0  0
   58.6457   26.9162   44.0280 H   0  0  0  0  0  0  0  0  0  0  0  0
   57.1056   27.2191   43.1544 H   0  0  0  0  0  0  0  0  0  0  0  0
   58.3985   28.4661   43.1544 H   0  0  0  0  0  0  0  0  0  0  0  0
   56.6572   27.5979   46.8345 H   0  0  0  0  0  0  0  0  0  0  0  0
   58.0566   26.6975   46.1515 H   0  0  0  0  0  0  0  0  0  0  0  0
   59.4091   27.0572   48.4267 H   0  0  0  0  0  0  0  0  0  0  0  0
   58.0179   32.6474   47.4514 H   0  0  0  0  0  0  0  0  0  0  0  0
   58.6798   35.0283   47.1366 H   0  0  0  0  0  0  0  0  0  0  0  0
   61.0777   35.6332   46.8229 H   0  0  0  0  0  0  0  0  0  0  0  0
   63.4669   33.8344   45.6936 H   0  0  0  0  0  0  0  0  0  0  0  0
   63.3948   34.9737   47.0886 H   0  0  0  0  0  0  0  0  0  0  0  0
   64.7040   32.3970   47.0040 H   0  0  0  0  0  0  0  0  0  0  0  0
   64.9277   31.3769   49.3361 H   0  0  0  0  0  0  0  0  0  0  0  0
   67.4080   32.5310   50.1642 H   0  0  0  0  0  0  0  0  0  0  0  0
   66.9794   33.9607   49.7262 H   0  0  0  0  0  0  0  0  0  0  0  0
   65.5960   32.1382   52.0208 H   0  0  0  0  0  0  0  0  0  0  0  0
   64.8526   33.4996   51.9055 H   0  0  0  0  0  0  0  0  0  0  0  0
   62.1779   31.4628   47.2017 H   0  0  0  0  0  0  0  0  0  0  0  0
  1  2  1  0
  2  3  1  0
  3  4  1  0
  4  5  2  0
  4  6  1  0
  6  7  1  0
  6  8  1  0
  8  9  1  0
  9 10  2  0
 10 11  1  0
 11 12  1  0
 12 13  1  0
 13 14  2  0
 14 15  1  0
 15 16  2  0
 16 17  1  0
 17 18  1  0
 18 19  1  0
 19 20  1  0
 20 21  2  0
 20 22  1  0
 22 23  1  0
 23 24  1  0
 17 25  2  0
 12 26  2  0
 26  9  1  0
 25 13  1  0
 24 22  1  0
  1 27  1  0
  1 28  1  0
  1 29  1  0
  2 30  1  0
  2 31  1  0
  7 32  1  0
  7 33  1  0
  7 34  1  0
  8 35  1  0
  8 36  1  0
 10 37  1  0
 14 38  1  0
 15 39  1  0
 16 40  1  0
 18 41  1  0
 18 42  1  0
 19 43  1  0
 22 44  1  0
 23 45  1  0
 23 46  1  0
 24 47  1  0
 24 48  1  0
 25 49  1  0
M  CHG  1   3  -1
M  END
>  <UniqueID>  (18) 
18

>  <SMILES>  (18) 
CC[N-]C(=O)N(C)Cc1csc(-c2cccc(CNC(=O)C3CC3)c2)n1

>  <Energy>  (18) 
340.4128042132422

>  <Genealogy>  (18) 
CC[N-]C(=O)N(C)Cc1csc(-c2cccc(CNC(=O)C3CC3)c2)n1 (protonated)
CC[N-]C(=O)N(C)Cc1csc(-c2cccc(CNC(=O)C3CC3)c2)n1 (3D coordinates assigned)
CC[N-]C(=O)N(C)Cc1csc(-c2cccc(CNC(=O)C3CC3)c2)n1 (nonaromatic ring conformer: 340.4128042132422 kcal/mol)

>  <smiles>  (18) 
CCNC(=O)N(C)Cc1csc(-c2cccc(CNC(=O)C3CC3)c2)n1

>  <score_type>  (18) 
oracle

>  <origin>  (18) 
adg

>  <m_score__min__energy>  (18) 
-10

>  <m_primary>  (18) 
energy

$$$$
18:0
     RDKit          3D

 56 59  0  0  0  0  0  0  0  0999 V2000
   57.8940   33.7720   44.9810 C   0  0  0  0  0  0  0  0  0  0  0  0
   57.2570   32.5700   44.5640 O   0  0  0  0  0  0  0  0  0  0  0  0
   57.9710   31.4620   44.0950 C   0  0  0  0  0  0  0  0  0  0  0  0
   58.5290   31.5040   42.9630 O   0  0  0  0  0  0  0  0  0  0  0  0
   58.1410   30.2550   44.9910 C   0  0  1  0  0  0  0  0  0  0  0  0
   56.8050   29.5450   45.2020 C   0  0  0  0  0  0  0  0  0  0  0  0
   55.7590   30.0170   44.6810 O   0  0  0  0  0  0  0  0  0  0  0  0
   56.6810   28.3510   45.9930 N   0  0  0  0  0  0  0  0  0  0  0  0
   56.8420   27.0080   45.5240 C   0  0  0  0  0  0  0  0  0  0  0  0
   57.6160   26.7690   44.3840 C   0  0  0  0  0  0  0  0  0  0  0  0
   57.7840   25.4670   43.9050 C   0  0  0  0  0  0  0  0  0  0  0  0
   57.2020   24.3800   44.5800 C   0  0  0  0  0  0  0  0  0  0  0  0
   57.3550   23.0380   44.0780 N   0  0  0  0  0  0  0  0  0  0  0  0
   58.1790   22.0530   44.7900 C   0  0  0  0  0  0  0  0  0  0  0  0
   57.4140   20.7230   44.9610 C   0  0  0  0  0  0  0  0  0  0  0  0
   56.3370   20.5370   43.9700 N   0  0  0  0  0  0  0  0  0  0  0  0
   56.6760   21.1280   42.6710 C   0  0  0  0  0  0  0  0  0  0  0  0
   56.7260   22.6520   42.8080 C   0  0  0  0  0  0  0  0  0  0  0  0
   56.4510   24.6230   45.7430 C   0  0  0  0  0  0  0  0  0  0  0  0
   56.2830   25.9270   46.2180 C   0  0  0  0  0  0  0  0  0  0  0  0
   59.2440   29.2780   44.4870 C   0  0  0  0  0  0  0  0  0  0  0  0
   60.5310   29.6120   45.2560 C   0  0  0  0  0  0  0  0  0  0  0  0
   60.1090   30.3770   46.4180 N   0  0  0  0  0  0  0  0  0  0  0  0
   61.0190   30.9110   47.3970 C   0  0  0  0  0  0  0  0  0  0  0  0
   61.8020   32.0370   47.0930 C   0  0  0  0  0  0  0  0  0  0  0  0
   62.6790   32.5670   48.0440 C   0  0  0  0  0  0  0  0  0  0  0  0
   62.7760   31.9830   49.3090 C   0  0  0  0  0  0  0  0  0  0  0  0
   61.9950   30.8710   49.6270 C   0  0  0  0  0  0  0  0  0  0  0  0
   61.1170   30.3360   48.6780 C   0  0  0  0  0  0  0  0  0  0  0  0
   58.7410   30.7290   46.2750 C   0  0  0  0  0  0  0  0  0  0  0  0
   58.1180   31.4090   47.1350 O   0  0  0  0  0  0  0  0  0  0  0  0
   57.9158   33.8132   46.0800 H   0  0  0  0  0  0  0  0  0  0  0  0
   58.9229   33.7955   44.5927 H   0  0  0  0  0  0  0  0  0  0  0  0
   57.3357   34.6366   44.5927 H   0  0  0  0  0  0  0  0  0  0  0  0
   58.0950   27.6102   43.8617 H   0  0  0  0  0  0  0  0  0  0  0  0
   58.3753   25.2917   42.9942 H   0  0  0  0  0  0  0  0  0  0  0  0
   59.0989   21.8691   44.2156 H   0  0  0  0  0  0  0  0  0  0  0  0
   58.4239   22.4506   45.7859 H   0  0  0  0  0  0  0  0  0  0  0  0
   58.1291   19.8934   44.8591 H   0  0  0  0  0  0  0  0  0  0  0  0
   56.9422   20.7443   45.9544 H   0  0  0  0  0  0  0  0  0  0  0  0
   56.1910   19.5080   43.8330 H   0  0  0  0  0  0  0  0  0  0  0  0
   57.6577   20.7559   42.3426 H   0  0  0  0  0  0  0  0  0  0  0  0
   55.9141   20.8489   41.9283 H   0  0  0  0  0  0  0  0  0  0  0  0
   57.3088   23.0707   41.9743 H   0  0  0  0  0  0  0  0  0  0  0  0
   55.6980   23.0431   42.7889 H   0  0  0  0  0  0  0  0  0  0  0  0
   55.9924   23.7815   46.2830 H   0  0  0  0  0  0  0  0  0  0  0  0
   55.7099   26.1049   47.1399 H   0  0  0  0  0  0  0  0  0  0  0  0
   58.9456   28.2379   44.6850 H   0  0  0  0  0  0  0  0  0  0  0  0
   59.3969   29.3867   43.4031 H   0  0  0  0  0  0  0  0  0  0  0  0
   61.0409   28.6890   45.5692 H   0  0  0  0  0  0  0  0  0  0  0  0
   61.2400   30.1777   44.6337 H   0  0  0  0  0  0  0  0  0  0  0  0
   61.7246   32.5047   46.1004 H   0  0  0  0  0  0  0  0  0  0  0  0
   63.2934   33.4450   47.7957 H   0  0  0  0  0  0  0  0  0  0  0  0
   63.4685   32.3998   50.0552 H   0  0  0  0  0  0  0  0  0  0  0  0
   62.0698   30.4145   50.6250 H   0  0  0  0  0  0  0  0  0  0  0  0
   60.5004   29.4619   48.9343 H   0  0  0  0  0  0  0  0  0  0  0  0
  1  2  1  0
  2  3  1  0
  3  4  2  0
  5  3  1  6
  5  6  1  0
  6  7  2  0
  6  8  1  0
  8  9  1  0
  9 10  2  0
 10 11  1  0
 11 12  2  0
 12 13  1  0
 13 14  1  0
 14 15  1  0
 15 16  1  0
 16 17  1  0
 17 18  1  0
 12 19  1  0
 19 20  2  0
  5 21  1  0
 21 22  1  0
 22 23  1  0
 23 24  1  0
 24 25  2  0
 25 26  1  0
 26 27  2  0
 27 28  1  0
 28 29  2  0
 23 30  1  0
 30 31  2  0
 30  5  1  0
 20  9  1  0
 29 24  1  0
 18 13  1  0
  1 32  1  0
  1 33  1  0
  1 34  1  0
 10 35  1  0
 11 36  1  0
 14 37  1  0
 14 38  1  0
 15 39  1  0
 15 40  1  0
 16 41  1  0
 17 42  1  0
 17 43  1  0
 18 44  1  0
 18 45  1  0
 19 46  1  0
 20 47  1  0
 21 48  1  0
 21 49  1  0
 22 50  1  0
 22 51  1  0
 25 52  1  0
 26 53  1  0
 27 54  1  0
 28 55  1  0
 29 56  1  0
M  CHG  1   8  -1
M  END
>  <UniqueID>  (19) 
19

>  <SMILES>  (19) 
COC(=O)[C@@]1(C(=O)[N-]c2ccc(N3CCNCC3)cc2)CCN(c2ccccc2)C1=O

>  <Energy>  (19) 
85.71106307695413

>  <Genealogy>  (19) 
COC(=O)C1(C(=O)[N-]c2ccc(N3CCNCC3)cc2)CCN(c2ccccc2)C1=O (protonated)
COC(=O)[C@@]1(C(=O)[N-]c2ccc(N3CCNCC3)cc2)CCN(c2ccccc2)C1=O (chirality)
COC(=O)[C@@]1(C(=O)[N-]c2ccc(N3CCNCC3)cc2)CCN(c2ccccc2)C1=O (3D coordinates assigned)
COC(=O)[C@@]1(C(=O)[N-]c2ccc(N3CCNCC3)cc2)CCN(c2ccccc2)C1=O (nonaromatic ring conformer: 85.71106307695413 kcal/mol)

>  <smiles>  (19) 
COC(=O)C1(C(=O)Nc2ccc(N3CCNCC3)cc2)CCN(c2ccccc2)C1=O

>  <score_type>  (19) 
oracle

>  <origin>  (19) 
adg

>  <m_score__min__energy>  (19) 
-9.5899999999999999

>  <m_primary>  (19) 
energy

$$$$
19:0
     RDKit          3D

 40 43  0  0  0  0  0  0  0  0999 V2000
   56.1606   32.2264   44.1673 H   0  0  0  0  0  0  0  0  0  0  0  0
   56.9940   32.5210   44.8220 C   0  0  0  0  0  0  0  0  0  0  0  0
   57.6060   31.5940   45.6010 N   0  0  0  0  0  0  0  0  0  0  0  0
   58.6410   31.8960   46.4340 C   0  0  0  0  0  0  0  0  0  0  0  0
   59.1410   30.9220   47.1440 N   0  0  0  0  0  0  0  0  0  0  0  0
   59.7440   29.7110   46.6740 C   0  0  0  0  0  0  0  0  0  0  0  0
   60.9410   29.7390   46.2810 O   0  0  0  0  0  0  0  0  0  0  0  0
   58.9600   28.4540   46.5860 C   0  0  0  0  0  0  0  0  0  0  0  0
   59.5800   27.2020   46.8500 C   0  0  0  0  0  0  0  0  0  0  0  0
   60.6466   27.1696   47.1169 H   0  0  0  0  0  0  0  0  0  0  0  0
   58.8460   26.0040   46.7740 C   0  0  0  0  0  0  0  0  0  0  0  0
   59.3211   25.0329   46.9770 H   0  0  0  0  0  0  0  0  0  0  0  0
   57.5010   26.0880   46.4340 C   0  0  0  0  0  0  0  0  0  0  0  0
   56.6190   25.0840   46.3250 N   0  0  0  0  0  0  0  0  0  0  0  0
   55.4810   25.7430   45.9900 C   0  0  0  0  0  0  0  0  0  0  0  0
   54.3900   25.1480   45.7910 O   0  0  0  0  0  0  0  0  0  0  0  0
   55.6000   27.0910   45.8880 N   0  0  0  0  0  0  0  0  0  0  0  0
   56.8970   27.2800   46.1760 C   0  0  0  0  0  0  0  0  0  0  0  0
   57.5870   28.4870   46.2370 C   0  0  0  0  0  0  0  0  0  0  0  0
   57.0811   29.4394   46.0205 H   0  0  0  0  0  0  0  0  0  0  0  0
   59.1250   33.2330   46.4790 C   0  0  0  0  0  0  0  0  0  0  0  0
   60.2320   33.5680   47.2820 O   0  0  0  0  0  0  0  0  0  0  0  0
   61.5950   33.6190   46.8550 C   0  0  0  0  0  0  0  0  0  0  0  0
   61.7747   32.8153   46.1258 H   0  0  0  0  0  0  0  0  0  0  0  0
   61.7844   34.6011   46.3971 H   0  0  0  0  0  0  0  0  0  0  0  0
   62.5300   33.4430   48.0250 C   0  0  0  0  0  0  0  0  0  0  0  0
   62.3300   34.2070   49.1860 C   0  0  0  0  0  0  0  0  0  0  0  0
   61.4924   34.9185   49.2331 H   0  0  0  0  0  0  0  0  0  0  0  0
   63.1860   34.0710   50.2820 C   0  0  0  0  0  0  0  0  0  0  0  0
   63.0296   34.6848   51.1813 H   0  0  0  0  0  0  0  0  0  0  0  0
   64.2400   33.1560   50.2360 C   0  0  0  0  0  0  0  0  0  0  0  0
   64.9186   33.0544   51.0957 H   0  0  0  0  0  0  0  0  0  0  0  0
   64.4320   32.3690   49.0960 C   0  0  0  0  0  0  0  0  0  0  0  0
   65.2572   31.6423   49.0648 H   0  0  0  0  0  0  0  0  0  0  0  0
   63.5790   32.5020   47.9950 C   0  0  0  0  0  0  0  0  0  0  0  0
   63.7740   31.7100   46.9110 F   0  0  0  0  0  0  0  0  0  0  0  0
   58.4860   34.1980   45.6760 C   0  0  0  0  0  0  0  0  0  0  0  0
   58.8316   35.2420   45.7001 H   0  0  0  0  0  0  0  0  0  0  0  0
   57.4210   33.8430   44.8520 C   0  0  0  0  0  0  0  0  0  0  0  0
   56.9226   34.6018   44.2309 H   0  0  0  0  0  0  0  0  0  0  0  0
  1  2  1  0
  2  3  1  0
  3  4  1  0
  4  5  2  0
  5  6  1  0
  6  7  2  0
  6  8  1  0
  8  9  2  0
  9 10  1  0
  9 11  1  0
 11 12  1  0
 11 13  2  0
 13 14  1  0
 14 15  1  0
 15 16  2  0
 15 17  1  0
 17 18  1  0
 18 19  2  0
 19 20  1  0
  4 21  1  0
 21 22  1  0
 22 23  1  0
 23 24  1  0
 23 25  1  0
 23 26  1  0
 26 27  2  0
 27 28  1  0
 27 29  1  0
 29 30  1  0
 29 31  2  0
 31 32  1  0
 31 33  1  0
 33 34  1  0
 33 35  2  0
 35 36  1  0
 21 37  2  0
 37 38  1  0
 37 39  1  0
 39 40  1  0
 39  2  2  0
 19  8  1  0
 35 26  1  0
 18 13  1  0
M  CHG  3   3  -1  14  -1  17  -1
M  END
>  <UniqueID>  (20) 
20

>  <SMILES>  (20) 
O=C(/N=c1/[n-]cccc1OCc1ccccc1F)c1ccc2[n-]c(=O)[n-]c2c1

>  <Energy>  (20) 
92.36095534959762

>  <Genealogy>  (20) 
O=C(N=c1[n-]cccc1OCc1ccccc1F)c1ccc2[n-]c(=O)[n-]c2c1 (protonated)
O=C(/N=c1/[n-]cccc1OCc1ccccc1F)c1ccc2[n-]c(=O)[n-]c2c1 (cis-trans isomerization)
O=C(/N=c1/[n-]cccc1OCc1ccccc1F)c1ccc2[n-]c(=O)[n-]c2c1 (3D coordinates assigned)
O=C(/N=c1/[n-]cccc1OCc1ccccc1F)c1ccc2[n-]c(=O)[n-]c2c1 (optimized conformer: 92.36095534959762 kcal/mol)

>  <smiles>  (20) 
O=C(N=c1[nH]cccc1OCc1ccccc1F)c1ccc2[nH]c(=O)[nH]c2c1

>  <score_type>  (20) 
oracle

>  <origin>  (20) 
adg

>  <m_score__min__energy>  (20) 
-13.140000000000001

>  <m_primary>  (20) 
energy

$$$$
20:0
     RDKit          3D

 73 77  0  0  0  0  0  0  0  0999 V2000
   56.6360   29.8320   42.9360 C   0  0  0  0  0  0  0  0  0  0  0  0
   56.7480   28.9530   44.0480 O   0  0  0  0  0  0  0  0  0  0  0  0
   57.6000   27.8420   44.0530 C   0  0  0  0  0  0  0  0  0  0  0  0
   58.2790   27.5700   43.0210 O   0  0  0  0  0  0  0  0  0  0  0  0
   57.6610   26.9420   45.2380 C   0  0  0  0  0  0  0  0  0  0  0  0
   56.6450   25.9820   45.4140 C   0  0  0  0  0  0  0  0  0  0  0  0
   56.5920   25.1770   46.5570 C   0  0  0  0  0  0  0  0  0  0  0  0
   55.5610   24.2290   46.6550 O   0  0  0  0  0  0  0  0  0  0  0  0
   54.8080   23.7030   45.5610 C   0  0  0  0  0  0  0  0  0  0  0  0
   53.2990   23.7370   45.8810 C   0  0  0  0  0  0  0  0  0  0  0  0
   52.4420   23.0340   44.8970 N   0  0  0  0  0  0  0  0  0  0  0  0
   51.9370   23.8960   43.8200 C   0  0  0  0  0  0  0  0  0  0  0  0
   50.4590   24.1260   44.0720 C   0  0  0  0  0  0  0  0  0  0  0  0
   50.0140   22.9490   44.9140 C   0  0  0  0  0  0  0  0  0  0  0  0
   51.2870   22.3530   45.5020 C   0  0  0  0  0  0  0  0  0  0  0  0
   57.5540   25.3540   47.5620 C   0  0  0  0  0  0  0  0  0  0  0  0
   58.5790   26.2830   47.3980 C   0  0  0  0  0  0  0  0  0  0  0  0
   58.6660   27.0590   46.2340 C   0  0  0  0  0  0  0  0  0  0  0  0
   59.8720   27.8910   46.0520 C   0  0  0  0  0  0  0  0  0  0  0  0
   60.9500   27.3330   45.7080 O   0  0  0  0  0  0  0  0  0  0  0  0
   59.8230   29.3210   46.2300 N   0  0  0  0  0  0  0  0  0  0  0  0
   61.0670   30.0840   46.3900 C   0  0  0  0  0  0  0  0  0  0  0  0
   60.8530   31.2580   47.3510 C   0  0  0  0  0  0  0  0  0  0  0  0
   59.6290   31.9980   47.0060 N   0  0  0  0  0  0  0  0  0  0  0  0
   59.5390   33.4140   47.2570 C   0  0  0  0  0  0  0  0  0  0  0  0
   58.4860   33.8890   47.7630 O   0  0  0  0  0  0  0  0  0  0  0  0
   60.7020   34.3280   46.9750 C   0  0  0  0  0  0  0  0  0  0  0  0
   61.9170   33.9330   47.7680 C   0  0  0  0  0  0  0  0  0  0  0  0
   61.9190   34.0120   49.1660 C   0  0  0  0  0  0  0  0  0  0  0  0
   63.0560   33.6160   49.8730 C   0  0  0  0  0  0  0  0  0  0  0  0
   64.1820   33.1280   49.1920 C   0  0  0  0  0  0  0  0  0  0  0  0
   65.3560   32.7290   49.9260 N   0  0  0  0  0  0  0  0  0  0  0  0
   66.3020   33.5050   50.4960 C   0  0  0  0  0  0  0  0  0  0  0  0
   67.2270   32.7340   51.0990 N   0  0  0  0  0  0  0  0  0  0  0  0
   66.8210   31.4920   50.8790 N   0  0  0  0  0  0  0  0  0  0  0  0
   65.7020   31.4780   50.1760 N   0  0  0  0  0  0  0  0  0  0  0  0
   64.1290   33.0540   47.7890 C   0  0  0  0  0  0  0  0  0  0  0  0
   63.0130   33.4500   47.1220 N   0  0  0  0  0  0  0  0  0  0  0  0
   58.3920   31.2240   46.8450 C   0  0  0  0  0  0  0  0  0  0  0  0
   58.6150   30.0730   45.8650 C   0  0  0  0  0  0  0  0  0  0  0  0
   56.5046   30.8632   43.2956 H   0  0  0  0  0  0  0  0  0  0  0  0
   57.5493   29.7699   42.3261 H   0  0  0  0  0  0  0  0  0  0  0  0
   55.7674   29.5429   42.3261 H   0  0  0  0  0  0  0  0  0  0  0  0
   55.8767   25.8628   44.6358 H   0  0  0  0  0  0  0  0  0  0  0  0
   55.0019   24.3084   44.6632 H   0  0  0  0  0  0  0  0  0  0  0  0
   55.1124   22.6604   45.3868 H   0  0  0  0  0  0  0  0  0  0  0  0
   53.1465   23.2688   46.8646 H   0  0  0  0  0  0  0  0  0  0  0  0
   52.9992   24.7950   45.8547 H   0  0  0  0  0  0  0  0  0  0  0  0
   52.4726   24.8568   43.8262 H   0  0  0  0  0  0  0  0  0  0  0  0
   52.0927   23.4213   42.8400 H   0  0  0  0  0  0  0  0  0  0  0  0
   50.3022   25.0700   44.6145 H   0  0  0  0  0  0  0  0  0  0  0  0
   49.8882   24.2012   43.1347 H   0  0  0  0  0  0  0  0  0  0  0  0
   49.3421   23.2853   45.7174 H   0  0  0  0  0  0  0  0  0  0  0  0
   49.4603   22.2103   44.3159 H   0  0  0  0  0  0  0  0  0  0  0  0
   51.2975   22.5013   46.5919 H   0  0  0  0  0  0  0  0  0  0  0  0
   51.3315   21.2744   45.2908 H   0  0  0  0  0  0  0  0  0  0  0  0
   57.4989   24.7565   48.4840 H   0  0  0  0  0  0  0  0  0  0  0  0
   59.3297   26.4092   48.1921 H   0  0  0  0  0  0  0  0  0  0  0  0
   61.8483   29.4231   46.7934 H   0  0  0  0  0  0  0  0  0  0  0  0
   61.3737   30.4767   45.4093 H   0  0  0  0  0  0  0  0  0  0  0  0
   60.7643   30.8725   48.3774 H   0  0  0  0  0  0  0  0  0  0  0  0
   61.7122   31.9403   47.2716 H   0  0  0  0  0  0  0  0  0  0  0  0
   60.9433   34.2793   45.9029 H   0  0  0  0  0  0  0  0  0  0  0  0
   60.4168   35.3498   47.2657 H   0  0  0  0  0  0  0  0  0  0  0  0
   61.0330   34.3826   49.7023 H   0  0  0  0  0  0  0  0  0  0  0  0
   63.0693   33.6869   50.9706 H   0  0  0  0  0  0  0  0  0  0  0  0
   66.3154   34.6046   50.4716 H   0  0  0  0  0  0  0  0  0  0  0  0
   67.3150   30.6380   51.2190 H   0  0  0  0  0  0  0  0  0  0  0  0
   64.9954   32.6736   47.2281 H   0  0  0  0  0  0  0  0  0  0  0  0
   58.0881   30.8170   47.8207 H   0  0  0  0  0  0  0  0  0  0  0  0
   57.6040   31.8833   46.4519 H   0  0  0  0  0  0  0  0  0  0  0  0
   57.7458   29.3993   45.8923 H   0  0  0  0  0  0  0  0  0  0  0  0
   58.7410   30.4838   44.8524 H   0  0  0  0  0  0  0  0  0  0  0  0
  1  2  1  0
  2  3  1  0
  3  4  2  0
  3  5  1  0
  5  6  2  0
  6  7  1  0
  7  8  1  0
  8  9  1  0
  9 10  1  0
 10 11  1  0
 11 12  1  0
 12 13  1  0
 13 14  1  0
 14 15  1  0
  7 16  2  0
 16 17  1  0
 17 18  2  0
 18 19  1  0
 19 20  2  0
 19 21  1  0
 21 22  1  0
 22 23  1  0
 23 24  1  0
 24 25  1  0
 25 26  2  0
 25 27  1  0
 27 28  1  0
 28 29  2  0
 29 30  1  0
 30 31  2  0
 31 32  1  0
 32 33  1  0
 33 34  2  0
 34 35  1  0
 35 36  2  0
 31 37  1  0
 37 38  2  0
 24 39  1  0
 39 40  1  0
 18  5  1  0
 40 21  1  0
 15 11  1  0
 38 28  1  0
 36 32  1  0
  1 41  1  0
  1 42  1  0
  1 43  1  0
  6 44  1  0
  9 45  1  0
  9 46  1  0
 10 47  1  0
 10 48  1  0
 12 49  1  0
 12 50  1  0
 13 51  1  0
 13 52  1  0
 14 53  1  0
 14 54  1  0
 15 55  1  0
 15 56  1  0
 16 57  1  0
 17 58  1  0
 22 59  1  0
 22 60  1  0
 23 61  1  0
 23 62  1  0
 27 63  1  0
 27 64  1  0
 29 65  1  0
 30 66  1  0
 33 67  1  0
 35 68  1  0
 37 69  1  0
 39 70  1  0
 39 71  1  0
 40 72  1  0
 40 73  1  0
M  CHG  1  35   1
M  END
>  <UniqueID>  (21) 
21

>  <SMILES>  (21) 
COC(=O)c1cc(OCCN2CCCC2)ccc1C(=O)N1CCN(C(=O)Cc2ccc(-n3cn[nH+]n3)cn2)CC1

>  <Energy>  (21) 
131.77077585573903

>  <Genealogy>  (21) 
COC(=O)c1cc(OCCN2CCCC2)ccc1C(=O)N1CCN(C(=O)Cc2ccc(-n3cn[nH+]n3)cn2)CC1 (protonated)
COC(=O)c1cc(OCCN2CCCC2)ccc1C(=O)N1CCN(C(=O)Cc2ccc(-n3cn[nH+]n3)cn2)CC1 (3D coordinates assigned)
COC(=O)c1cc(OCCN2CCCC2)ccc1C(=O)N1CCN(C(=O)Cc2ccc(-n3cn[nH+]n3)cn2)CC1 (nonaromatic ring conformer: 131.77077585573903 kcal/mol)

>  <smiles>  (21) 
COC(=O)c1cc(OCCN2CCCC2)ccc1C(=O)N1CCN(C(=O)Cc2ccc(-n3cnnn3)cn2)CC1

>  <score_type>  (21) 
oracle

>  <origin>  (21) 
adg

>  <m_score__min__energy>  (21) 
-8.1500000000000004

>  <m_primary>  (21) 
energy

$$$$
21:0
     RDKit          3D

 42 44  0  0  0  0  0  0  0  0999 V2000
   58.5210   30.2670   47.3760 C   0  0  0  0  0  0  0  0  0  0  0  0
   58.1070   31.0130   46.3380 C   0  0  0  0  0  0  0  0  0  0  0  0
   57.9290   30.5860   45.0100 C   0  0  0  0  0  0  0  0  0  0  0  0
   57.9610   29.3570   44.4580 C   0  0  0  0  0  0  0  0  0  0  0  0
   57.4020   28.1290   45.0570 C   0  0  0  0  0  0  0  0  0  0  0  0
   56.0220   28.0130   45.2740 C   0  0  0  0  0  0  0  0  0  0  0  0
   55.1560   29.0280   44.8810 O   0  0  0  0  0  0  0  0  0  0  0  0
   55.5180   26.8980   45.8640 N   0  0  0  0  0  0  0  0  0  0  0  0
   56.3330   25.8900   46.2670 C   0  0  0  0  0  0  0  0  0  0  0  0
   55.8450   24.8640   46.8080 O   0  0  0  0  0  0  0  0  0  0  0  0
   57.6760   25.9890   46.0930 N   0  0  0  0  0  0  0  0  0  0  0  0
   58.2290   27.0850   45.5090 C   0  0  0  0  0  0  0  0  0  0  0  0
   59.4810   27.1530   45.3830 O   0  0  0  0  0  0  0  0  0  0  0  0
   57.6780   31.7270   44.2690 C   0  0  0  0  0  0  0  0  0  0  0  0
   57.6590   32.7850   45.1510 C   0  0  0  0  0  0  0  0  0  0  0  0
   57.4300   34.2120   44.7530 C   0  0  0  0  0  0  0  0  0  0  0  0
   57.9050   32.3580   46.4120 N   0  0  0  0  0  0  0  0  0  0  0  0
   58.0440   33.2220   47.5930 C   0  0  0  0  0  0  0  0  0  0  0  0
   59.4900   33.5270   47.8420 C   0  0  0  0  0  0  0  0  0  0  0  0
   59.8060   34.6010   48.4240 O   0  0  0  0  0  0  0  0  0  0  0  0
   60.5060   32.6010   47.4290 N   0  0  0  0  0  0  0  0  0  0  0  0
   61.8570   32.6440   47.9130 C   0  0  0  0  0  0  0  0  0  0  0  0
   62.1920   31.9320   49.0750 C   0  0  0  0  0  0  0  0  0  0  0  0
   63.4960   31.9700   49.5760 C   0  0  0  0  0  0  0  0  0  0  0  0
   64.4720   32.7340   48.9320 C   0  0  0  0  0  0  0  0  0  0  0  0
   64.1430   33.4680   47.7900 C   0  0  0  0  0  0  0  0  0  0  0  0
   62.8390   33.4330   47.2820 C   0  0  0  0  0  0  0  0  0  0  0  0
   62.5300   34.2050   46.2100 F   0  0  0  0  0  0  0  0  0  0  0  0
   58.6211   30.7198   48.3735 H   0  0  0  0  0  0  0  0  0  0  0  0
   58.7599   29.2035   47.2283 H   0  0  0  0  0  0  0  0  0  0  0  0
   58.4459   29.2605   43.4754 H   0  0  0  0  0  0  0  0  0  0  0  0
   57.5229   31.7795   43.1813 H   0  0  0  0  0  0  0  0  0  0  0  0
   57.3304   34.8329   45.6555 H   0  0  0  0  0  0  0  0  0  0  0  0
   58.2826   34.5674   44.1557 H   0  0  0  0  0  0  0  0  0  0  0  0
   56.5090   34.2828   44.1557 H   0  0  0  0  0  0  0  0  0  0  0  0
   57.4983   34.1617   47.4223 H   0  0  0  0  0  0  0  0  0  0  0  0
   57.6301   32.7021   48.4696 H   0  0  0  0  0  0  0  0  0  0  0  0
   60.2780   31.9300   46.6610 H   0  0  0  0  0  0  0  0  0  0  0  0
   61.4237   31.3406   49.5945 H   0  0  0  0  0  0  0  0  0  0  0  0
   63.7542   31.3973   50.4790 H   0  0  0  0  0  0  0  0  0  0  0  0
   65.4995   32.7576   49.3241 H   0  0  0  0  0  0  0  0  0  0  0  0
   64.9108   34.0753   47.2884 H   0  0  0  0  0  0  0  0  0  0  0  0
  1  2  2  0
  2  3  1  0
  3  4  2  3
  4  5  1  0
  5  6  2  0
  6  7  1  0
  6  8  1  0
  8  9  1  0
  9 10  2  0
  9 11  1  0
 11 12  1  0
 12 13  2  0
  3 14  1  0
 14 15  2  0
 15 16  1  0
 15 17  1  0
 17 18  1  0
 18 19  1  0
 19 20  2  0
 19 21  1  0
 21 22  1  0
 22 23  2  0
 23 24  1  0
 24 25  2  0
 25 26  1  0
 26 27  2  0
 27 28  1  0
 17  2  1  0
 27 22  1  0
 12  5  1  0
  1 29  1  0
  1 30  1  0
  4 31  1  0
 14 32  1  0
 16 33  1  0
 16 34  1  0
 16 35  1  0
 18 36  1  0
 18 37  1  0
 21 38  1  0
 23 39  1  0
 24 40  1  0
 25 41  1  0
 26 42  1  0
M  CHG  3   7  -1   8  -1  11  -1
M  END
>  <UniqueID>  (22) 
22

>  <SMILES>  (22) 
C=c1c(=Cc2c([O-])[n-]c(=O)[n-]c2=O)cc(C)n1CC(=O)Nc1ccccc1F

>  <Energy>  (22) 
90.32845916783201

>  <Genealogy>  (22) 
C=c1c(=Cc2c([O-])[n-]c(=O)[n-]c2=O)cc(C)n1CC(=O)Nc1ccccc1F (protonated)
C=c1c(=Cc2c([O-])[n-]c(=O)[n-]c2=O)cc(C)n1CC(=O)Nc1ccccc1F (3D coordinates assigned)
C=c1c(=Cc2c([O-])[n-]c(=O)[n-]c2=O)cc(C)n1CC(=O)Nc1ccccc1F (optimized conformer: 90.32845916783201 kcal/mol)

>  <smiles>  (22) 
C=c1c(=Cc2c(O)[nH]c(=O)[nH]c2=O)cc(C)n1CC(=O)Nc1ccccc1F

>  <score_type>  (22) 
oracle

>  <origin>  (22) 
adg

>  <m_score__min__energy>  (22) 
-15.5

>  <m_primary>  (22) 
energy

$$$$
22:0
     RDKit          3D

 64 67  0  0  0  0  0  0  0  0999 V2000
   68.2710   37.6190   52.3550 C   0  0  0  0  0  0  0  0  0  0  0  0
   67.4630   36.9950   53.5050 C   0  0  0  0  0  0  0  0  0  0  0  0
   66.5140   35.9310   53.0890 N   0  0  0  0  0  0  0  0  0  0  0  0
   67.1660   34.9020   52.2310 C   0  0  0  0  0  0  0  0  0  0  0  0
   66.1940   34.1710   51.2800 C   0  0  0  0  0  0  0  0  0  0  0  0
   64.8310   34.1430   51.8210 N   0  0  0  0  0  0  0  0  0  0  0  0
   63.9990   32.9990   51.5720 C   0  0  0  0  0  0  0  0  0  0  0  0
   63.9060   31.9970   52.5480 C   0  0  0  0  0  0  0  0  0  0  0  0
   63.0520   30.9080   52.3690 C   0  0  0  0  0  0  0  0  0  0  0  0
   62.2620   30.8070   51.2140 C   0  0  0  0  0  0  0  0  0  0  0  0
   61.3880   29.6770   51.0240 N   0  0  0  0  0  0  0  0  0  0  0  0
   61.9330   28.3120   51.1180 C   0  0  0  0  0  0  0  0  0  0  0  0
   60.9220   27.2710   50.6210 C   0  0  0  0  0  0  0  0  0  0  0  0
   60.2820   27.7500   49.3860 N   0  0  0  0  0  0  0  0  0  0  0  0
   60.4530   27.0200   48.1550 C   0  0  0  0  0  0  0  0  0  0  0  0
   61.5030   26.3440   47.9710 O   0  0  0  0  0  0  0  0  0  0  0  0
   59.4390   27.0720   47.0780 C   0  0  0  0  0  0  0  0  0  0  0  0
   59.7070   27.7810   45.8980 C   0  0  0  0  0  0  0  0  0  0  0  0
   58.7550   27.8350   44.8780 C   0  0  0  0  0  0  0  0  0  0  0  0
   57.5320   27.1750   45.0210 C   0  0  0  0  0  0  0  0  0  0  0  0
   57.2530   26.4390   46.1870 C   0  0  0  0  0  0  0  0  0  0  0  0
   55.9590   25.7310   46.3370 C   0  0  0  0  0  0  0  0  0  0  0  0
   54.7660   26.2730   45.7690 N   0  0  0  0  0  0  0  0  0  0  0  0
   55.8980   24.6430   46.9720 O   0  0  0  0  0  0  0  0  0  0  0  0
   58.2200   26.3860   47.2090 C   0  0  0  0  0  0  0  0  0  0  0  0
   59.6800   29.0950   49.3620 C   0  0  0  0  0  0  0  0  0  0  0  0
   59.9800   29.8690   50.6500 C   0  0  0  0  0  0  0  0  0  0  0  0
   62.3590   31.8050   50.2300 C   0  0  0  0  0  0  0  0  0  0  0  0
   63.2250   32.9020   50.3920 C   0  0  0  0  0  0  0  0  0  0  0  0
   63.3310   33.8850   49.3470 N   0  0  0  0  0  0  0  0  0  0  0  0
   64.1370   33.7200   48.4080 O   0  0  0  0  0  0  0  0  0  0  0  0
   62.6400   35.0710   49.4280 O   0  0  0  0  0  0  0  0  0  0  0  0
   64.2260   35.3670   52.3600 C   0  0  0  0  0  0  0  0  0  0  0  0
   65.2760   36.4760   52.4910 C   0  0  0  0  0  0  0  0  0  0  0  0
   69.0775   38.2418   52.7693 H   0  0  0  0  0  0  0  0  0  0  0  0
   68.7057   36.8199   51.7365 H   0  0  0  0  0  0  0  0  0  0  0  0
   67.6078   38.2416   51.7365 H   0  0  0  0  0  0  0  0  0  0  0  0
   68.1715   36.5601   54.2253 H   0  0  0  0  0  0  0  0  0  0  0  0
   66.8543   37.8051   53.9331 H   0  0  0  0  0  0  0  0  0  0  0  0
   66.2330   35.4490   53.9770 H   0  0  0  0  0  0  0  0  0  0  0  0
   67.9381   35.3967   51.6234 H   0  0  0  0  0  0  0  0  0  0  0  0
   67.5829   34.1410   52.9071 H   0  0  0  0  0  0  0  0  0  0  0  0
   66.1832   34.6914   50.3110 H   0  0  0  0  0  0  0  0  0  0  0  0
   66.5403   33.1334   51.1638 H   0  0  0  0  0  0  0  0  0  0  0  0
   64.5117   32.0699   53.4633 H   0  0  0  0  0  0  0  0  0  0  0  0
   62.9979   30.1237   53.1384 H   0  0  0  0  0  0  0  0  0  0  0  0
   62.8441   28.2473   50.5051 H   0  0  0  0  0  0  0  0  0  0  0  0
   62.1574   28.1005   52.1739 H   0  0  0  0  0  0  0  0  0  0  0  0
   61.4427   26.3233   50.4189 H   0  0  0  0  0  0  0  0  0  0  0  0
   60.1531   27.1136   51.3918 H   0  0  0  0  0  0  0  0  0  0  0  0
   60.6710   28.2966   45.7756 H   0  0  0  0  0  0  0  0  0  0  0  0
   58.9688   28.3994   43.9583 H   0  0  0  0  0  0  0  0  0  0  0  0
   56.7830   27.2311   44.2174 H   0  0  0  0  0  0  0  0  0  0  0  0
   54.0350   26.7090   46.3750 H   0  0  0  0  0  0  0  0  0  0  0  0
   58.0190   25.8017   48.1190 H   0  0  0  0  0  0  0  0  0  0  0  0
   60.0875   29.6535   48.5065 H   0  0  0  0  0  0  0  0  0  0  0  0
   58.5893   28.9828   49.2735 H   0  0  0  0  0  0  0  0  0  0  0  0
   59.7873   30.9396   50.4870 H   0  0  0  0  0  0  0  0  0  0  0  0
   59.3334   29.4973   51.4585 H   0  0  0  0  0  0  0  0  0  0  0  0
   61.7482   31.7275   49.3184 H   0  0  0  0  0  0  0  0  0  0  0  0
   63.4272   35.7038   51.6829 H   0  0  0  0  0  0  0  0  0  0  0  0
   63.8140   35.1495   53.3565 H   0  0  0  0  0  0  0  0  0  0  0  0
   65.5015   36.8839   51.4946 H   0  0  0  0  0  0  0  0  0  0  0  0
   64.8817   37.2725   53.1392 H   0  0  0  0  0  0  0  0  0  0  0  0
  1  2  1  0
  2  3  1  0
  3  4  1  0
  4  5  1  0
  5  6  1  0
  6  7  1  0
  7  8  2  0
  8  9  1  0
  9 10  2  0
 10 11  1  0
 11 12  1  0
 12 13  1  0
 13 14  1  0
 14 15  1  0
 15 16  2  0
 15 17  1  0
 17 18  2  0
 18 19  1  0
 19 20  2  0
 20 21  1  0
 21 22  1  0
 22 23  1  0
 22 24  2  0
 21 25  2  0
 14 26  1  0
 26 27  1  0
 10 28  1  0
 28 29  2  0
 29 30  1  0
 30 31  2  0
 30 32  1  0
  6 33  1  0
 33 34  1  0
 34  3  1  0
 29  7  1  0
 27 11  1  0
 25 17  1  0
  1 35  1  0
  1 36  1  0
  1 37  1  0
  2 38  1  0
  2 39  1  0
  3 40  1  0
  4 41  1  0
  4 42  1  0
  5 43  1  0
  5 44  1  0
  8 45  1  0
  9 46  1  0
 12 47  1  0
 12 48  1  0
 13 49  1  0
 13 50  1  0
 18 51  1  0
 19 52  1  0
 20 53  1  0
 23 54  1  0
 25 55  1  0
 26 56  1  0
 26 57  1  0
 27 58  1  0
 27 59  1  0
 28 60  1  0
 33 61  1  0
 33 62  1  0
 34 63  1  0
 34 64  1  0
M  CHG  4   3   1  23  -1  30   1  32  -1
M  END
>  <UniqueID>  (23) 
23

>  <SMILES>  (23) 
CC[NH+]1CCN(c2ccc(N3CCN(C(=O)c4cccc(C([NH-])=O)c4)CC3)cc2[N+](=O)[O-])CC1

>  <Energy>  (23) 
93.16117769068325

>  <Genealogy>  (23) 
CC[NH+]1CCN(c2ccc(N3CCN(C(=O)c4cccc(C([NH-])=O)c4)CC3)cc2[N+](=O)[O-])CC1 (protonated)
CC[NH+]1CCN(c2ccc(N3CCN(C(=O)c4cccc(C([NH-])=O)c4)CC3)cc2[N+](=O)[O-])CC1 (3D coordinates assigned)
CC[NH+]1CCN(c2ccc(N3CCN(C(=O)c4cccc(C([NH-])=O)c4)CC3)cc2[N+](=O)[O-])CC1 (nonaromatic ring conformer: 93.16117769068325 kcal/mol)

>  <smiles>  (23) 
CCN1CCN(c2ccc(N3CCN(C(=O)c4cccc(C(N)=O)c4)CC3)cc2[N+](=O)[O-])CC1

>  <score_type>  (23) 
oracle

>  <origin>  (23) 
adg

>  <m_score__min__energy>  (23) 
-10.34

>  <m_primary>  (23) 
energy

$$$$
23:0
     RDKit          3D

 40 42  0  0  0  0  0  0  0  0999 V2000
   59.5230   28.5700   44.5450 C   0  0  0  0  0  0  0  0  0  0  0  0
   59.4790   29.2780   45.8580 C   0  0  0  0  0  0  0  0  0  0  0  0
   59.0610   28.7320   47.0550 C   0  0  0  0  0  0  0  0  0  0  0  0
   59.2150   29.7590   47.9630 C   0  0  0  0  0  0  0  0  0  0  0  0
   58.8940   29.6770   49.4240 C   0  0  0  0  0  0  0  0  0  0  0  0
   59.6610   30.8590   47.3140 N   0  0  0  0  0  0  0  0  0  0  0  0
   60.0150   32.1500   47.9200 C   0  0  0  0  0  0  0  0  0  0  0  0
   60.2980   33.2590   46.9080 C   0  0  0  0  0  0  0  0  0  0  0  0
   59.0940   34.0140   47.2830 N   0  0  0  0  0  0  0  0  0  0  0  0
   58.0600   34.1400   46.2220 C   0  0  0  0  0  0  0  0  0  0  0  0
   58.4450   33.6390   44.8360 C   0  0  0  0  0  0  0  0  0  0  0  0
   59.4150   34.2050   44.2590 O   0  0  0  0  0  0  0  0  0  0  0  0
   57.7740   32.4950   44.1480 C   0  0  0  0  0  0  0  0  0  0  0  0
   57.8130   32.3240   42.7470 C   0  0  0  0  0  0  0  0  0  0  0  0
   57.1810   31.2330   42.1450 C   0  0  0  0  0  0  0  0  0  0  0  0
   56.5010   30.2960   42.9220 C   0  0  0  0  0  0  0  0  0  0  0  0
   56.4480   30.4460   44.3120 C   0  0  0  0  0  0  0  0  0  0  0  0
   55.7760   29.5160   45.1020 O   0  0  0  0  0  0  0  0  0  0  0  0
   57.0780   31.5380   44.9170 C   0  0  0  0  0  0  0  0  0  0  0  0
   58.7940   32.9860   48.2910 C   0  0  0  0  0  0  0  0  0  0  0  0
   59.8510   30.5590   46.0370 N   0  0  0  0  0  0  0  0  0  0  0  0
   59.5904   27.4854   44.7154 H   0  0  0  0  0  0  0  0  0  0  0  0
   58.6091   28.7957   43.9759 H   0  0  0  0  0  0  0  0  0  0  0  0
   60.4019   28.9071   43.9759 H   0  0  0  0  0  0  0  0  0  0  0  0
   58.6906   27.7132   47.2417 H   0  0  0  0  0  0  0  0  0  0  0  0
   59.7954   29.9073   50.0109 H   0  0  0  0  0  0  0  0  0  0  0  0
   58.1032   30.4020   49.6669 H   0  0  0  0  0  0  0  0  0  0  0  0
   58.5478   28.6616   49.6669 H   0  0  0  0  0  0  0  0  0  0  0  0
   60.7640   31.8041   48.6476 H   0  0  0  0  0  0  0  0  0  0  0  0
   61.2339   33.8024   47.1051 H   0  0  0  0  0  0  0  0  0  0  0  0
   60.4459   32.9878   45.8523 H   0  0  0  0  0  0  0  0  0  0  0  0
   57.1753   33.5737   46.5484 H   0  0  0  0  0  0  0  0  0  0  0  0
   57.8925   35.2209   46.1051 H   0  0  0  0  0  0  0  0  0  0  0  0
   58.3461   33.0568   42.1235 H   0  0  0  0  0  0  0  0  0  0  0  0
   57.2201   31.1126   41.0523 H   0  0  0  0  0  0  0  0  0  0  0  0
   56.0062   29.4388   42.4421 H   0  0  0  0  0  0  0  0  0  0  0  0
   55.5600   29.7060   46.0730 H   0  0  0  0  0  0  0  0  0  0  0  0
   57.0303   31.6529   46.0099 H   0  0  0  0  0  0  0  0  0  0  0  0
   58.8212   33.3651   49.3233 H   0  0  0  0  0  0  0  0  0  0  0  0
   57.8030   32.5087   48.2815 H   0  0  0  0  0  0  0  0  0  0  0  0
  1  2  1  0
  2  3  1  0
  3  4  2  0
  4  5  1  0
  4  6  1  0
  6  7  1  0
  7  8  1  0
  8  9  1  0
  9 10  1  0
 10 11  1  0
 11 12  2  0
 11 13  1  0
 13 14  2  0
 14 15  1  0
 15 16  2  0
 16 17  1  0
 17 18  1  0
 17 19  2  0
  9 20  1  0
  6 21  1  0
 21  2  2  0
 20  7  1  0
 19 13  1  0
  1 22  1  0
  1 23  1  0
  1 24  1  0
  3 25  1  0
  5 26  1  0
  5 27  1  0
  5 28  1  0
  7 29  1  0
  8 30  1  0
  8 31  1  0
 10 32  1  0
 10 33  1  0
 14 34  1  0
 15 35  1  0
 16 36  1  0
 18 37  1  0
 19 38  1  0
 20 39  1  0
 20 40  1  0
M  END
>  <UniqueID>  (24) 
24

>  <SMILES>  (24) 
Cc1cc(C)n(C2CN(CC(=O)c3cccc(O)c3)C2)n1

>  <Energy>  (24) 
145.20605253081223

>  <Genealogy>  (24) 
Cc1cc(C)n(C2CN(CC(=O)c3cccc(O)c3)C2)n1 (3D coordinates assigned)
Cc1cc(C)n(C2CN(CC(=O)c3cccc(O)c3)C2)n1 (nonaromatic ring conformer: 145.20605253081223 kcal/mol)

>  <smiles>  (24) 
Cc1cc(C)n(C2CN(CC(=O)c3cccc(O)c3)C2)n1

>  <score_type>  (24) 
oracle

>  <origin>  (24) 
adg

>  <m_score__min__energy>  (24) 
-8.3300000000000001

>  <m_primary>  (24) 
energy

$$$$
24:0
     RDKit          3D

 48 51  0  0  0  0  0  0  0  0999 V2000
   55.5180   28.8270   44.9590 N   0  0  0  0  0  0  0  0  0  0  0  0
   56.6850   29.5890   45.2590 C   0  0  0  0  0  0  0  0  0  0  0  0
   57.2690   29.4160   46.3630 O   0  0  0  0  0  0  0  0  0  0  0  0
   57.1710   30.6250   44.3230 C   0  0  0  0  0  0  0  0  0  0  0  0
   57.7640   31.7850   44.8540 C   0  0  0  0  0  0  0  0  0  0  0  0
   58.1960   32.8260   44.0160 C   0  0  0  0  0  0  0  0  0  0  0  0
   58.8360   34.0710   44.5980 C   0  0  0  0  0  0  0  0  0  0  0  0
   59.3130   33.9010   45.9900 N   0  0  0  0  0  0  0  0  0  0  0  0
   60.1610   32.7030   46.1900 C   0  0  0  0  0  0  0  0  0  0  0  0
   60.3180   32.3690   47.6750 C   0  0  0  0  0  0  0  0  0  0  0  0
   58.9460   32.0010   48.2730 C   0  0  0  0  0  0  0  0  0  0  0  0
   58.9810   32.0540   49.7400 N   0  0  0  0  0  0  0  0  0  0  0  0
   59.2680   33.1790   50.5830 C   0  0  0  0  0  0  0  0  0  0  0  0
   59.7460   34.2710   50.1800 O   0  0  0  0  0  0  0  0  0  0  0  0
   58.9030   32.8790   51.9630 C   0  0  0  0  0  0  0  0  0  0  0  0
   59.0020   33.6520   53.1180 C   0  0  0  0  0  0  0  0  0  0  0  0
   58.5500   33.0930   54.3260 C   0  0  0  0  0  0  0  0  0  0  0  0
   58.0100   31.7880   54.3550 C   0  0  0  0  0  0  0  0  0  0  0  0
   57.5660   31.2500   55.5570 O   0  0  0  0  0  0  0  0  0  0  0  0
   57.9180   31.0310   53.1730 C   0  0  0  0  0  0  0  0  0  0  0  0
   58.3770   31.6060   51.9890 C   0  0  0  0  0  0  0  0  0  0  0  0
   58.4040   31.0880   50.6270 C   0  0  0  0  0  0  0  0  0  0  0  0
   57.9700   29.9630   50.2650 O   0  0  0  0  0  0  0  0  0  0  0  0
   57.7920   32.8620   47.7050 C   0  0  0  0  0  0  0  0  0  0  0  0
   58.2900   34.1530   47.0340 C   0  0  0  0  0  0  0  0  0  0  0  0
   57.9830   32.7200   42.6340 C   0  0  0  0  0  0  0  0  0  0  0  0
   57.4120   31.5680   42.0930 C   0  0  0  0  0  0  0  0  0  0  0  0
   57.0300   30.5060   42.9190 C   0  0  0  0  0  0  0  0  0  0  0  0
   56.5460   29.3470   42.3090 O   0  0  0  0  0  0  0  0  0  0  0  0
   55.2440   28.6320   43.9710 H   0  0  0  0  0  0  0  0  0  0  0  0
   57.8913   31.8781   45.9426 H   0  0  0  0  0  0  0  0  0  0  0  0
   59.6946   34.3468   43.9681 H   0  0  0  0  0  0  0  0  0  0  0  0
   58.0611   34.8515   44.6171 H   0  0  0  0  0  0  0  0  0  0  0  0
   59.6969   31.8470   45.6782 H   0  0  0  0  0  0  0  0  0  0  0  0
   61.1583   32.9129   45.7760 H   0  0  0  0  0  0  0  0  0  0  0  0
   61.0060   31.5181   47.7876 H   0  0  0  0  0  0  0  0  0  0  0  0
   60.7229   33.2442   48.2042 H   0  0  0  0  0  0  0  0  0  0  0  0
   58.7360   30.9650   47.9687 H   0  0  0  0  0  0  0  0  0  0  0  0
   59.4210   34.6685   53.0856 H   0  0  0  0  0  0  0  0  0  0  0  0
   58.6173   33.6764   55.2561 H   0  0  0  0  0  0  0  0  0  0  0  0
   57.4962   30.0151   53.1827 H   0  0  0  0  0  0  0  0  0  0  0  0
   57.2429   32.2674   46.9601 H   0  0  0  0  0  0  0  0  0  0  0  0
   57.1480   33.1526   48.5481 H   0  0  0  0  0  0  0  0  0  0  0  0
   57.4320   34.6612   46.5698 H   0  0  0  0  0  0  0  0  0  0  0  0
   58.7582   34.7718   47.8136 H   0  0  0  0  0  0  0  0  0  0  0  0
   58.2681   33.5510   41.9720 H   0  0  0  0  0  0  0  0  0  0  0  0
   57.2607   31.4941   41.0060 H   0  0  0  0  0  0  0  0  0  0  0  0
   56.1160   28.5890   42.8210 H   0  0  0  0  0  0  0  0  0  0  0  0
  1  2  1  0
  2  3  2  0
  2  4  1  0
  4  5  2  0
  5  6  1  0
  6  7  1  0
  7  8  1  0
  8  9  1  0
  9 10  1  0
 10 11  1  0
 11 12  1  0
 12 13  1  0
 13 14  2  0
 13 15  1  0
 15 16  2  0
 16 17  1  0
 17 18  2  0
 18 19  1  0
 18 20  1  0
 20 21  2  0
 21 22  1  0
 22 23  2  0
 11 24  1  0
 24 25  1  0
  6 26  2  0
 26 27  1  0
 27 28  2  0
 28 29  1  0
 28  4  1  0
 25  8  1  0
 22 12  1  0
 21 15  1  0
  1 30  1  0
  5 31  1  0
  7 32  1  0
  7 33  1  0
  9 34  1  0
  9 35  1  0
 10 36  1  0
 10 37  1  0
 11 38  1  0
 16 39  1  0
 17 40  1  0
 20 41  1  0
 24 42  1  0
 24 43  1  0
 25 44  1  0
 25 45  1  0
 26 46  1  0
 27 47  1  0
 29 48  1  0
M  CHG  2   1  -1  19  -1
M  END
>  <UniqueID>  (25) 
25

>  <SMILES>  (25) 
[NH-]C(=O)c1cc(CN2CCC(N3C(=O)c4ccc([O-])cc4C3=O)CC2)ccc1O

>  <Energy>  (25) 
100.33927141634943

>  <Genealogy>  (25) 
[NH-]C(=O)c1cc(CN2CCC(N3C(=O)c4ccc([O-])cc4C3=O)CC2)ccc1O (protonated)
[NH-]C(=O)c1cc(CN2CCC(N3C(=O)c4ccc([O-])cc4C3=O)CC2)ccc1O (3D coordinates assigned)
[NH-]C(=O)c1cc(CN2CCC(N3C(=O)c4ccc([O-])cc4C3=O)CC2)ccc1O (nonaromatic ring conformer: 100.33927141634943 kcal/mol)

>  <smiles>  (25) 
NC(=O)c1cc(CN2CCC(N3C(=O)c4ccc(O)cc4C3=O)CC2)ccc1O

>  <score_type>  (25) 
oracle

>  <origin>  (25) 
adg

>  <m_score__min__energy>  (25) 
-12.220000000000001

>  <m_primary>  (25) 
energy

$$$$
25:0
     RDKit          3D

 44 46  0  0  0  0  0  0  0  0999 V2000
   58.4060   25.5270   46.7350 C   0  0  0  0  0  0  0  0  0  0  0  0
   58.6630   26.9200   47.2230 C   0  0  0  0  0  0  0  0  0  0  0  0
   57.7150   27.7480   47.2280 O   0  0  0  0  0  0  0  0  0  0  0  0
   59.9440   27.3290   47.7220 N   0  0  0  0  0  0  0  0  0  0  0  0
   60.3930   28.6760   47.9270 C   0  0  0  0  0  0  0  0  0  0  0  0
   60.6030   29.1710   49.2270 C   0  0  0  0  0  0  0  0  0  0  0  0
   61.0510   30.4780   49.4240 C   0  0  0  0  0  0  0  0  0  0  0  0
   61.3080   31.3010   48.3300 C   0  0  0  0  0  0  0  0  0  0  0  0
   61.1340   30.8140   47.0320 C   0  0  0  0  0  0  0  0  0  0  0  0
   60.6850   29.5000   46.8150 C   0  0  0  0  0  0  0  0  0  0  0  0
   60.5550   28.9860   45.3980 C   0  0  0  0  0  0  0  0  0  0  0  0
   59.2160   29.2870   44.8620 N   0  0  0  0  0  0  0  0  0  0  0  0
   58.6960   30.5400   45.0310 C   0  0  0  0  0  0  0  0  0  0  0  0
   57.4030   30.8470   44.5950 C   0  0  0  0  0  0  0  0  0  0  0  0
   56.8220   32.2120   44.8680 C   0  0  0  0  0  0  0  0  0  0  0  0
   57.8200   33.0580   45.6110 C   0  0  0  0  0  0  0  0  0  0  0  0
   57.9490   32.9410   47.0050 C   0  0  0  0  0  0  0  0  0  0  0  0
   58.9130   33.6890   47.6880 C   0  0  0  0  0  0  0  0  0  0  0  0
   59.7600   34.5510   46.9850 C   0  0  0  0  0  0  0  0  0  0  0  0
   59.6440   34.6650   45.5970 C   0  0  0  0  0  0  0  0  0  0  0  0
   58.6800   33.9200   44.9110 C   0  0  0  0  0  0  0  0  0  0  0  0
   56.6590   29.8310   43.9800 C   0  0  0  0  0  0  0  0  0  0  0  0
   55.4800   30.0470   43.5860 O   0  0  0  0  0  0  0  0  0  0  0  0
   57.2100   28.6010   43.8040 N   0  0  0  0  0  0  0  0  0  0  0  0
   58.4690   28.3220   44.2360 C   0  0  0  0  0  0  0  0  0  0  0  0
   58.9380   27.1650   44.0550 O   0  0  0  0  0  0  0  0  0  0  0  0
   58.2818   24.8539   47.5961 H   0  0  0  0  0  0  0  0  0  0  0  0
   57.4905   25.5151   46.1253 H   0  0  0  0  0  0  0  0  0  0  0  0
   59.2570   25.1892   46.1253 H   0  0  0  0  0  0  0  0  0  0  0  0
   60.4126   28.5228   50.0951 H   0  0  0  0  0  0  0  0  0  0  0  0
   61.2014   30.8589   50.4449 H   0  0  0  0  0  0  0  0  0  0  0  0
   61.6482   32.3351   48.4881 H   0  0  0  0  0  0  0  0  0  0  0  0
   61.3504   31.4650   46.1721 H   0  0  0  0  0  0  0  0  0  0  0  0
   61.3150   29.4690   44.7663 H   0  0  0  0  0  0  0  0  0  0  0  0
   60.7013   27.8958   45.3996 H   0  0  0  0  0  0  0  0  0  0  0  0
   59.3032   31.3179   45.5169 H   0  0  0  0  0  0  0  0  0  0  0  0
   56.5712   32.6984   43.9138 H   0  0  0  0  0  0  0  0  0  0  0  0
   55.9152   32.1020   45.4809 H   0  0  0  0  0  0  0  0  0  0  0  0
   57.2894   32.2586   47.5611 H   0  0  0  0  0  0  0  0  0  0  0  0
   59.0051   33.5990   48.7804 H   0  0  0  0  0  0  0  0  0  0  0  0
   60.5173   35.1391   47.5241 H   0  0  0  0  0  0  0  0  0  0  0  0
   60.3118   35.3416   45.0436 H   0  0  0  0  0  0  0  0  0  0  0  0
   58.5947   34.0094   43.8180 H   0  0  0  0  0  0  0  0  0  0  0  0
   56.6510   27.8520   43.3350 H   0  0  0  0  0  0  0  0  0  0  0  0
  1  2  1  0
  2  3  2  0
  2  4  1  0
  4  5  1  0
  5  6  2  0
  6  7  1  0
  7  8  2  0
  8  9  1  0
  9 10  2  0
 10 11  1  0
 11 12  1  0
 12 13  1  0
 13 14  2  0
 14 15  1  0
 15 16  1  0
 16 17  2  0
 17 18  1  0
 18 19  2  0
 19 20  1  0
 20 21  2  0
 14 22  1  0
 22 23  2  0
 22 24  1  0
 24 25  1  0
 25 26  2  0
 10  5  1  0
 25 12  1  0
 21 16  1  0
  1 27  1  0
  1 28  1  0
  1 29  1  0
  6 30  1  0
  7 31  1  0
  8 32  1  0
  9 33  1  0
 11 34  1  0
 11 35  1  0
 13 36  1  0
 15 37  1  0
 15 38  1  0
 17 39  1  0
 18 40  1  0
 19 41  1  0
 20 42  1  0
 21 43  1  0
 24 44  1  0
M  CHG  1   4  -1
M  END
>  <UniqueID>  (26) 
26

>  <SMILES>  (26) 
CC(=O)[N-]c1ccccc1Cn1cc(Cc2ccccc2)c(=O)[nH]c1=O

>  <Energy>  (26) 
50.51506370919002

>  <Genealogy>  (26) 
CC(=O)[N-]c1ccccc1Cn1cc(Cc2ccccc2)c(=O)[nH]c1=O (protonated)
CC(=O)[N-]c1ccccc1Cn1cc(Cc2ccccc2)c(=O)[nH]c1=O (3D coordinates assigned)
CC(=O)[N-]c1ccccc1Cn1cc(Cc2ccccc2)c(=O)[nH]c1=O (optimized conformer: 50.51506370919002 kcal/mol)

>  <smiles>  (26) 
CC(=O)Nc1ccccc1Cn1cc(Cc2ccccc2)c(=O)[nH]c1=O

>  <score_type>  (26) 
oracle

>  <origin>  (26) 
adg

>  <m_score__min__energy>  (26) 
-10.23

>  <m_primary>  (26) 
energy

$$$$
26:0
     RDKit          3D

 45 47  0  0  0  0  0  0  0  0999 V2000
   56.8100   27.3670   46.3190 O   0  0  0  0  0  0  0  0  0  0  0  0
   56.7890   28.0980   45.2910 C   0  0  0  0  0  0  0  0  0  0  0  0
   57.9410   28.0680   44.3340 C   0  0  0  0  0  0  0  0  0  0  0  0
   59.2240   28.4950   45.0040 C   0  0  0  0  0  0  0  0  0  0  0  0
   60.3260   28.2450   44.4390 O   0  0  0  0  0  0  0  0  0  0  0  0
   59.2210   29.2450   46.2860 C   0  0  0  0  0  0  0  0  0  0  0  0
   59.4620   28.5970   47.5120 C   0  0  0  0  0  0  0  0  0  0  0  0
   59.4680   29.3210   48.7050 C   0  0  0  0  0  0  0  0  0  0  0  0
   59.2260   30.6950   48.6960 C   0  0  0  0  0  0  0  0  0  0  0  0
   58.9590   31.3630   47.4870 C   0  0  0  0  0  0  0  0  0  0  0  0
   58.6930   32.7760   47.4400 N   0  0  0  0  0  0  0  0  0  0  0  0
   59.8160   33.9620   46.8500 S   0  0  0  0  0  0  0  0  0  0  0  0
   59.3210   35.3350   47.2080 O   0  0  0  0  0  0  0  0  0  0  0  0
   59.9030   33.8500   45.3520 O   0  0  0  0  0  0  0  0  0  0  0  0
   61.3970   33.7200   47.5860 C   0  0  0  0  0  0  0  0  0  0  0  0
   61.5540   33.8640   48.9720 C   0  0  0  0  0  0  0  0  0  0  0  0
   62.8070   33.6620   49.5610 C   0  0  0  0  0  0  0  0  0  0  0  0
   63.9060   33.3170   48.7680 C   0  0  0  0  0  0  0  0  0  0  0  0
   63.7560   33.1780   47.3860 C   0  0  0  0  0  0  0  0  0  0  0  0
   62.5040   33.3810   46.7940 C   0  0  0  0  0  0  0  0  0  0  0  0
   58.9550   30.6270   46.2900 C   0  0  0  0  0  0  0  0  0  0  0  0
   55.6480   28.9160   45.0050 N   0  0  0  0  0  0  0  0  0  0  0  0
   55.5180   29.7150   43.7930 C   0  0  0  0  0  0  0  0  0  0  0  0
   56.4470   30.8870   43.8440 C   0  0  0  0  0  0  0  0  0  0  0  0
   57.3920   31.2070   42.8910 C   0  0  0  0  0  0  0  0  0  0  0  0
   58.0290   32.3330   43.3680 C   0  0  0  0  0  0  0  0  0  0  0  0
   57.4370   32.6250   44.5810 C   0  0  0  0  0  0  0  0  0  0  0  0
   56.4980   31.7430   44.8380 O   0  0  0  0  0  0  0  0  0  0  0  0
   58.0611   27.0441   43.9503 H   0  0  0  0  0  0  0  0  0  0  0  0
   57.7284   28.7695   43.5138 H   0  0  0  0  0  0  0  0  0  0  0  0
   59.6468   27.5128   47.5299 H   0  0  0  0  0  0  0  0  0  0  0  0
   59.6644   28.8060   49.6569 H   0  0  0  0  0  0  0  0  0  0  0  0
   59.2441   31.2594   49.6400 H   0  0  0  0  0  0  0  0  0  0  0  0
   57.7860   33.1340   47.8190 H   0  0  0  0  0  0  0  0  0  0  0  0
   60.6908   34.1362   49.5971 H   0  0  0  0  0  0  0  0  0  0  0  0
   62.9277   33.7746   50.6485 H   0  0  0  0  0  0  0  0  0  0  0  0
   64.8897   33.1549   49.2329 H   0  0  0  0  0  0  0  0  0  0  0  0
   64.6218   32.9090   46.7631 H   0  0  0  0  0  0  0  0  0  0  0  0
   62.3879   33.2745   45.7053 H   0  0  0  0  0  0  0  0  0  0  0  0
   58.7405   31.1394   45.3406 H   0  0  0  0  0  0  0  0  0  0  0  0
   55.7651   29.0933   42.9198 H   0  0  0  0  0  0  0  0  0  0  0  0
   54.4835   30.0804   43.7135 H   0  0  0  0  0  0  0  0  0  0  0  0
   57.5945   30.6758   41.9493 H   0  0  0  0  0  0  0  0  0  0  0  0
   58.8446   32.8872   42.8805 H   0  0  0  0  0  0  0  0  0  0  0  0
   57.7102   33.4679   45.2328 H   0  0  0  0  0  0  0  0  0  0  0  0
  1  2  2  0
  2  3  1  0
  3  4  1  0
  4  5  2  0
  4  6  1  0
  6  7  2  0
  7  8  1  0
  8  9  2  0
  9 10  1  0
 10 11  1  0
 11 12  1  0
 12 13  2  0
 12 14  2  0
 12 15  1  0
 15 16  2  0
 16 17  1  0
 17 18  2  0
 18 19  1  0
 19 20  2  0
 10 21  2  0
  2 22  1  0
 22 23  1  0
 23 24  1  0
 24 25  2  0
 25 26  1  0
 26 27  2  0
 27 28  1  0
 21  6  1  0
 28 24  1  0
 20 15  1  0
  3 29  1  0
  3 30  1  0
  7 31  1  0
  8 32  1  0
  9 33  1  0
 11 34  1  0
 16 35  1  0
 17 36  1  0
 18 37  1  0
 19 38  1  0
 20 39  1  0
 21 40  1  0
 23 41  1  0
 23 42  1  0
 25 43  1  0
 26 44  1  0
 27 45  1  0
M  CHG  1  22  -1
M  END
>  <UniqueID>  (27) 
27

>  <SMILES>  (27) 
O=C(CC(=O)c1cccc(NS(=O)(=O)c2ccccc2)c1)[N-]Cc1ccco1

>  <Energy>  (27) 
74.27453720398188

>  <Genealogy>  (27) 
O=C(CC(=O)c1cccc(NS(=O)(=O)c2ccccc2)c1)[N-]Cc1ccco1 (protonated)
O=C(CC(=O)c1cccc(NS(=O)(=O)c2ccccc2)c1)[N-]Cc1ccco1 (3D coordinates assigned)
O=C(CC(=O)c1cccc(NS(=O)(=O)c2ccccc2)c1)[N-]Cc1ccco1 (optimized conformer: 74.27453720398188 kcal/mol)

>  <smiles>  (27) 
O=C(CC(=O)c1cccc(NS(=O)(=O)c2ccccc2)c1)NCc1ccco1

>  <score_type>  (27) 
oracle

>  <origin>  (27) 
adg

>  <m_score__min__energy>  (27) 
-12.09

>  <m_primary>  (27) 
energy

$$$$
27:0
     RDKit          3D

 66 70  0  0  0  0  0  0  0  0999 V2000
   56.6790   30.8530   45.0760 O   0  0  0  0  0  0  0  0  0  0  0  0
   57.9170   31.0010   45.2430 C   0  0  0  0  0  0  0  0  0  0  0  0
   58.7560   29.8430   45.1350 N   0  0  0  0  0  0  0  0  0  0  0  0
   58.6380   28.6270   45.8880 C   0  0  0  0  0  0  0  0  0  0  0  0
   59.5360   28.3050   46.9220 C   0  0  0  0  0  0  0  0  0  0  0  0
   59.3900   27.1080   47.6310 C   0  0  0  0  0  0  0  0  0  0  0  0
   58.3390   26.2390   47.3320 C   0  0  0  0  0  0  0  0  0  0  0  0
   57.4190   26.5660   46.3280 C   0  0  0  0  0  0  0  0  0  0  0  0
   56.0590   25.4990   45.9940 S   0  0  0  0  0  0  0  0  0  0  0  0
   54.7880   26.3040   45.9460 O   0  0  0  0  0  0  0  0  0  0  0  0
   55.9370   24.4850   47.0970 O   0  0  0  0  0  0  0  0  0  0  0  0
   56.3250   24.6800   44.4760 N   0  0  0  0  0  0  0  0  0  0  0  0
   57.5830   23.9250   44.4780 C   0  0  0  0  0  0  0  0  0  0  0  0
   57.3900   22.7390   43.5380 C   0  0  0  0  0  0  0  0  0  0  0  0
   55.8930   22.6570   43.2800 C   0  0  0  0  0  0  0  0  0  0  0  0
   55.2730   23.7020   44.1900 C   0  0  0  0  0  0  0  0  0  0  0  0
   57.5680   27.7660   45.6160 C   0  0  0  0  0  0  0  0  0  0  0  0
   58.4820   32.3580   45.4760 C   0  0  0  0  0  0  0  0  0  0  0  0
   57.8090   33.4720   44.9390 C   0  0  0  0  0  0  0  0  0  0  0  0
   58.3750   34.7460   44.9980 C   0  0  0  0  0  0  0  0  0  0  0  0
   59.6230   34.9280   45.5920 C   0  0  0  0  0  0  0  0  0  0  0  0
   60.2920   33.8420   46.1570 C   0  0  0  0  0  0  0  0  0  0  0  0
   59.7140   32.5620   46.1510 C   0  0  0  0  0  0  0  0  0  0  0  0
   60.6150   31.2050   46.9310 S   0  0  0  0  0  0  0  0  0  0  0  0
   61.7370   32.2700   47.8630 C   0  0  0  0  0  0  0  0  0  0  0  0
   63.0930   32.2640   47.5070 C   0  0  0  0  0  0  0  0  0  0  0  0
   64.0100   33.0720   48.1830 C   0  0  0  0  0  0  0  0  0  0  0  0
   63.5810   33.8930   49.2270 C   0  0  0  0  0  0  0  0  0  0  0  0
   62.2350   33.9010   49.6010 C   0  0  0  0  0  0  0  0  0  0  0  0
   61.3070   33.0870   48.9320 C   0  0  0  0  0  0  0  0  0  0  0  0
   59.9070   33.1160   49.3830 C   0  0  0  0  0  0  0  0  0  0  0  0
   59.2730   34.2020   49.3310 O   0  0  0  0  0  0  0  0  0  0  0  0
   59.2910   31.9510   49.9560 N   0  0  0  0  0  0  0  0  0  0  0  0
   59.9270   30.6450   50.0180 C   0  0  0  0  0  0  0  0  0  0  0  0
   58.9080   29.7240   50.6760 C   0  0  0  0  0  0  0  0  0  0  0  0
   57.8780   30.6390   51.3370 C   0  0  0  0  0  0  0  0  0  0  0  0
   58.0170   31.9920   50.6520 C   0  0  0  0  0  0  0  0  0  0  0  0
   60.3544   28.9957   47.1734 H   0  0  0  0  0  0  0  0  0  0  0  0
   60.1052   26.8507   48.4262 H   0  0  0  0  0  0  0  0  0  0  0  0
   58.2332   25.2949   47.8865 H   0  0  0  0  0  0  0  0  0  0  0  0
   56.3510   25.3950   43.7110 H   0  0  0  0  0  0  0  0  0  0  0  0
   58.4063   24.5609   44.1205 H   0  0  0  0  0  0  0  0  0  0  0  0
   57.8366   23.5855   45.4931 H   0  0  0  0  0  0  0  0  0  0  0  0
   57.9330   22.9042   42.5957 H   0  0  0  0  0  0  0  0  0  0  0  0
   57.7781   21.8072   43.9753 H   0  0  0  0  0  0  0  0  0  0  0  0
   55.6705   22.8823   42.2266 H   0  0  0  0  0  0  0  0  0  0  0  0
   55.4964   21.6508   43.4804 H   0  0  0  0  0  0  0  0  0  0  0  0
   54.4263   24.1909   43.6859 H   0  0  0  0  0  0  0  0  0  0  0  0
   54.8899   23.2472   45.1154 H   0  0  0  0  0  0  0  0  0  0  0  0
   56.8379   28.0325   44.8376 H   0  0  0  0  0  0  0  0  0  0  0  0
   56.8247   33.3363   44.4670 H   0  0  0  0  0  0  0  0  0  0  0  0
   57.8363   35.6071   44.5757 H   0  0  0  0  0  0  0  0  0  0  0  0
   60.0803   35.9282   45.6152 H   0  0  0  0  0  0  0  0  0  0  0  0
   61.2825   33.9897   46.6120 H   0  0  0  0  0  0  0  0  0  0  0  0
   63.4381   31.6167   46.6873 H   0  0  0  0  0  0  0  0  0  0  0  0
   65.0709   33.0613   47.8924 H   0  0  0  0  0  0  0  0  0  0  0  0
   64.3026   34.5336   49.7552 H   0  0  0  0  0  0  0  0  0  0  0  0
   61.9002   34.5489   50.4245 H   0  0  0  0  0  0  0  0  0  0  0  0
   60.1703   30.2880   49.0064 H   0  0  0  0  0  0  0  0  0  0  0  0
   60.8703   30.6781   50.5830 H   0  0  0  0  0  0  0  0  0  0  0  0
   58.4245   29.0872   49.9205 H   0  0  0  0  0  0  0  0  0  0  0  0
   59.3832   29.0562   51.4097 H   0  0  0  0  0  0  0  0  0  0  0  0
   56.8633   30.2397   51.1920 H   0  0  0  0  0  0  0  0  0  0  0  0
   58.0460   30.7174   52.4213 H   0  0  0  0  0  0  0  0  0  0  0  0
   57.1947   32.1467   49.9380 H   0  0  0  0  0  0  0  0  0  0  0  0
   57.9761   32.8195   51.3756 H   0  0  0  0  0  0  0  0  0  0  0  0
  1  2  2  0
  2  3  1  0
  3  4  1  0
  4  5  2  0
  5  6  1  0
  6  7  2  0
  7  8  1  0
  8  9  1  0
  9 10  2  0
  9 11  2  0
  9 12  1  0
 12 13  1  0
 13 14  1  0
 14 15  1  0
 15 16  1  0
  8 17  2  0
  2 18  1  0
 18 19  2  0
 19 20  1  0
 20 21  2  0
 21 22  1  0
 22 23  2  0
 23 24  1  0
 24 25  1  0
 25 26  2  0
 26 27  1  0
 27 28  2  0
 28 29  1  0
 29 30  2  0
 30 31  1  0
 31 32  2  0
 31 33  1  0
 33 34  1  0
 34 35  1  0
 35 36  1  0
 36 37  1  0
 17  4  1  0
 23 18  1  0
 30 25  1  0
 37 33  1  0
 16 12  1  0
  5 38  1  0
  6 39  1  0
  7 40  1  0
 12 41  1  0
 13 42  1  0
 13 43  1  0
 14 44  1  0
 14 45  1  0
 15 46  1  0
 15 47  1  0
 16 48  1  0
 16 49  1  0
 17 50  1  0
 19 51  1  0
 20 52  1  0
 21 53  1  0
 22 54  1  0
 26 55  1  0
 27 56  1  0
 28 57  1  0
 29 58  1  0
 34 59  1  0
 34 60  1  0
 35 61  1  0
 35 62  1  0
 36 63  1  0
 36 64  1  0
 37 65  1  0
 37 66  1  0
M  CHG  2   3  -1  12   1
M  END
>  <UniqueID>  (28) 
28

>  <SMILES>  (28) 
O=C([N-]c1cccc(S(=O)(=O)[NH+]2CCCC2)c1)c1ccccc1Sc1ccccc1C(=O)N1CCCC1

>  <Energy>  (28) 
84.9365929910794

>  <Genealogy>  (28) 
O=C([N-]c1cccc(S(=O)(=O)[NH+]2CCCC2)c1)c1ccccc1Sc1ccccc1C(=O)N1CCCC1 (protonated)
O=C([N-]c1cccc(S(=O)(=O)[NH+]2CCCC2)c1)c1ccccc1Sc1ccccc1C(=O)N1CCCC1 (3D coordinates assigned)
O=C([N-]c1cccc(S(=O)(=O)[NH+]2CCCC2)c1)c1ccccc1Sc1ccccc1C(=O)N1CCCC1 (nonaromatic ring conformer: 84.9365929910794 kcal/mol)

>  <smiles>  (28) 
O=C(Nc1cccc(S(=O)(=O)N2CCCC2)c1)c1ccccc1Sc1ccccc1C(=O)N1CCCC1

>  <score_type>  (28) 
oracle

>  <origin>  (28) 
adg

>  <m_score__min__energy>  (28) 
-11.369999999999999

>  <m_primary>  (28) 
energy

$$$$
28:0
     RDKit          3D

 48 51  0  0  0  0  0  0  0  0999 V2000
   55.3580   26.8110   44.8740 H   0  0  0  0  0  0  0  0  0  0  0  0
   55.1370   26.3120   45.7270 O   0  0  0  0  0  0  0  0  0  0  0  0
   55.9440   25.2680   46.1740 C   0  0  0  0  0  0  0  0  0  0  0  0
   55.5080   24.4610   47.1770 N   0  0  0  0  0  0  0  0  0  0  0  0
   56.2730   23.4390   47.6370 C   0  0  0  0  0  0  0  0  0  0  0  0
   55.8460   22.7020   48.5630 O   0  0  0  0  0  0  0  0  0  0  0  0
   57.5020   23.2140   47.1050 N   0  0  0  0  0  0  0  0  0  0  0  0
   57.9840   23.9930   46.1010 C   0  0  0  0  0  0  0  0  0  0  0  0
   59.1400   23.7740   45.6510 O   0  0  0  0  0  0  0  0  0  0  0  0
   57.1980   25.0400   45.5880 C   0  0  0  0  0  0  0  0  0  0  0  0
   57.6930   25.9350   44.5210 C   0  0  0  0  0  0  0  0  0  0  0  0
   57.5995   25.5944   43.4792 H   0  0  0  0  0  0  0  0  0  0  0  0
   58.2490   27.1360   44.7410 C   0  0  0  0  0  0  0  0  0  0  0  0
   59.5810   27.3100   44.8700 N   0  0  0  0  0  0  0  0  0  0  0  0
   59.7360   28.6360   45.0920 C   0  0  0  0  0  0  0  0  0  0  0  0
   60.9390   29.1990   45.2180 C   0  0  0  0  0  0  0  0  0  0  0  0
   61.0238   30.2809   45.3980 H   0  0  0  0  0  0  0  0  0  0  0  0
   61.8460   28.5813   45.1419 H   0  0  0  0  0  0  0  0  0  0  0  0
   58.5560   29.3080   45.1230 N   0  0  0  0  0  0  0  0  0  0  0  0
   58.3150   30.7060   45.3630 C   0  0  0  0  0  0  0  0  0  0  0  0
   57.3340   31.3950   44.6350 C   0  0  0  0  0  0  0  0  0  0  0  0
   56.7360   30.8627   43.8806 H   0  0  0  0  0  0  0  0  0  0  0  0
   57.1140   32.7550   44.8650 C   0  0  0  0  0  0  0  0  0  0  0  0
   56.3400   33.2896   44.2947 H   0  0  0  0  0  0  0  0  0  0  0  0
   57.8740   33.4380   45.8170 C   0  0  0  0  0  0  0  0  0  0  0  0
   57.6980   34.5094   45.9933 H   0  0  0  0  0  0  0  0  0  0  0  0
   58.8610   32.7620   46.5490 C   0  0  0  0  0  0  0  0  0  0  0  0
   59.8050   33.6170   47.7730 S   0  0  0  0  0  0  0  0  0  0  0  0
   59.9910   35.0470   47.3440 O   0  0  0  0  0  0  0  0  0  0  0  0
   59.0490   33.6160   49.0720 O   0  0  0  0  0  0  0  0  0  0  0  0
   61.3710   32.8760   48.0100 N   0  0  0  0  0  0  0  0  0  0  0  0
   62.2960   33.2720   46.9320 C   0  0  0  0  0  0  0  0  0  0  0  0
   62.1012   32.6535   46.0434 H   0  0  0  0  0  0  0  0  0  0  0  0
   62.1344   34.3349   46.6995 H   0  0  0  0  0  0  0  0  0  0  0  0
   63.7570   33.0780   47.3720 C   0  0  0  0  0  0  0  0  0  0  0  0
   63.9098   32.0140   47.6055 H   0  0  0  0  0  0  0  0  0  0  0  0
   64.3889   33.4236   46.5405 H   0  0  0  0  0  0  0  0  0  0  0  0
   64.1230   33.8440   48.5140 O   0  0  0  0  0  0  0  0  0  0  0  0
   63.0240   34.2060   49.3390 C   0  0  0  0  0  0  0  0  0  0  0  0
   63.3908   34.3499   50.3660 H   0  0  0  0  0  0  0  0  0  0  0  0
   62.5917   35.1269   48.9206 H   0  0  0  0  0  0  0  0  0  0  0  0
   61.9060   33.1470   49.3630 C   0  0  0  0  0  0  0  0  0  0  0  0
   62.3107   32.2125   49.7788 H   0  0  0  0  0  0  0  0  0  0  0  0
   61.0838   33.5344   49.9826 H   0  0  0  0  0  0  0  0  0  0  0  0
   59.0870   31.3990   46.3080 C   0  0  0  0  0  0  0  0  0  0  0  0
   59.8749   30.8695   46.8636 H   0  0  0  0  0  0  0  0  0  0  0  0
   57.6260   28.3620   44.9020 C   0  0  0  0  0  0  0  0  0  0  0  0
   56.3830   28.5800   44.9020 O   0  0  0  0  0  0  0  0  0  0  0  0
  1  2  1  0
  2  3  1  0
  3  4  1  0
  4  5  1  0
  5  6  2  0
  5  7  1  0
  7  8  1  0
  8  9  2  0
  8 10  1  0
 10 11  1  0
 11 12  1  0
 11 13  2  0
 13 14  1  0
 14 15  1  0
 15 16  2  0
 16 17  1  0
 16 18  1  0
 15 19  1  0
 19 20  1  0
 20 21  2  0
 21 22  1  0
 21 23  1  0
 23 24  1  0
 23 25  2  0
 25 26  1  0
 25 27  1  0
 27 28  1  0
 28 29  2  0
 28 30  2  0
 28 31  1  0
 31 32  1  0
 32 33  1  0
 32 34  1  0
 32 35  1  0
 35 36  1  0
 35 37  1  0
 35 38  1  0
 38 39  1  0
 39 40  1  0
 39 41  1  0
 39 42  1  0
 42 43  1  0
 42 44  1  0
 27 45  2  0
 45 46  1  0
 19 47  1  0
 47 48  2  0
 10  3  2  0
 47 13  1  0
 45 20  1  0
 42 31  1  0
M  CHG  3   4  -1   7  -1  14  -1
M  END
>  <UniqueID>  (29) 
29

>  <SMILES>  (29) 
C=c1[n-]/c(=C/c2c(O)[n-]c(=O)[n-]c2=O)c(=O)n1-c1cccc(S(=O)(=O)N2CCOCC2)c1

>  <Energy>  (29) 
112.06018393144626

>  <Genealogy>  (29) 
C=c1[n-]c(=Cc2c(O)[n-]c(=O)[n-]c2=O)c(=O)n1-c1cccc(S(=O)(=O)N2CCOCC2)c1 (protonated)
C=c1[n-]/c(=C/c2c(O)[n-]c(=O)[n-]c2=O)c(=O)n1-c1cccc(S(=O)(=O)N2CCOCC2)c1 (cis-trans isomerization)
C=c1[n-]/c(=C/c2c(O)[n-]c(=O)[n-]c2=O)c(=O)n1-c1cccc(S(=O)(=O)N2CCOCC2)c1 (3D coordinates assigned)
C=c1[n-]/c(=C/c2c(O)[n-]c(=O)[n-]c2=O)c(=O)n1-c1cccc(S(=O)(=O)N2CCOCC2)c1 (nonaromatic ring conformer: 112.06018393144626 kcal/mol)

>  <smiles>  (29) 
C=c1[nH]c(=Cc2c(O)[nH]c(=O)[nH]c2=O)c(=O)n1-c1cccc(S(=O)(=O)N2CCOCC2)c1

>  <score_type>  (29) 
oracle

>  <origin>  (29) 
adg

>  <m_score__min__energy>  (29) 
-15.34

>  <m_primary>  (29) 
energy

$$$$
29:0
     RDKit          3D

 52 55  0  0  0  0  0  0  0  0999 V2000
   60.3820   27.8630   45.3810 O   0  0  0  0  0  0  0  0  0  0  0  0
   59.1920   28.0910   45.7220 C   0  0  0  0  0  0  0  0  0  0  0  0
   58.5580   27.2010   46.6500 N   0  0  0  0  0  0  0  0  0  0  0  0
   57.1180   26.9810   46.7410 C   0  0  0  0  0  0  0  0  0  0  0  0
   56.7590   25.7320   45.9840 C   0  0  0  0  0  0  0  0  0  0  0  0
   57.7580   24.8030   45.6490 C   0  0  0  0  0  0  0  0  0  0  0  0
   57.4280   23.6250   44.9700 C   0  0  0  0  0  0  0  0  0  0  0  0
   56.1000   23.3620   44.6290 C   0  0  0  0  0  0  0  0  0  0  0  0
   55.0970   24.2720   44.9710 C   0  0  0  0  0  0  0  0  0  0  0  0
   55.4180   25.4520   45.6510 C   0  0  0  0  0  0  0  0  0  0  0  0
   54.4030   26.3380   45.9940 O   0  0  0  0  0  0  0  0  0  0  0  0
   58.4830   29.2400   45.1260 C   0  0  0  0  0  0  0  0  0  0  0  0
   57.5850   29.0350   44.0700 C   0  0  0  0  0  0  0  0  0  0  0  0
   56.9080   30.1170   43.5010 C   0  0  0  0  0  0  0  0  0  0  0  0
   57.1340   31.4120   43.9740 C   0  0  0  0  0  0  0  0  0  0  0  0
   58.0530   31.6400   45.0110 C   0  0  0  0  0  0  0  0  0  0  0  0
   58.2810   32.9740   45.5100 N   0  0  0  0  0  0  0  0  0  0  0  0
   57.6450   33.4330   46.7510 C   0  0  0  0  0  0  0  0  0  0  0  0
   58.7220   33.8220   47.7660 C   0  0  0  0  0  0  0  0  0  0  0  0
   59.7990   34.7680   47.1640 C   0  0  0  0  0  0  0  0  0  0  0  0
   61.1610   34.2760   47.4230 N   0  0  0  0  0  0  0  0  0  0  0  0
   62.0940   33.8710   46.3800 C   0  0  0  0  0  0  0  0  0  0  0  0
   63.3700   33.4010   47.1160 C   0  0  0  0  0  0  0  0  0  0  0  0
   63.1180   33.5780   48.5410 N   0  0  0  0  0  0  0  0  0  0  0  0
   61.8140   34.0950   48.6670 C   0  0  0  0  0  0  0  0  0  0  0  0
   61.3080   34.3980   49.7790 O   0  0  0  0  0  0  0  0  0  0  0  0
   59.6000   35.0850   45.6630 C   0  0  0  0  0  0  0  0  0  0  0  0
   59.2360   33.8530   44.8190 C   0  0  0  0  0  0  0  0  0  0  0  0
   58.7280   30.5460   45.5790 C   0  0  0  0  0  0  0  0  0  0  0  0
   56.8293   26.8672   47.7963 H   0  0  0  0  0  0  0  0  0  0  0  0
   56.5851   27.8408   46.3088 H   0  0  0  0  0  0  0  0  0  0  0  0
   58.8048   25.0026   45.9218 H   0  0  0  0  0  0  0  0  0  0  0  0
   58.2161   22.9050   44.7045 H   0  0  0  0  0  0  0  0  0  0  0  0
   55.8434   22.4377   44.0907 H   0  0  0  0  0  0  0  0  0  0  0  0
   54.0509   24.0602   44.7048 H   0  0  0  0  0  0  0  0  0  0  0  0
   57.4123   28.0183   43.6874 H   0  0  0  0  0  0  0  0  0  0  0  0
   56.1961   29.9488   42.6795 H   0  0  0  0  0  0  0  0  0  0  0  0
   56.5886   32.2585   43.5313 H   0  0  0  0  0  0  0  0  0  0  0  0
   57.0115   34.3063   46.5365 H   0  0  0  0  0  0  0  0  0  0  0  0
   57.0271   32.6232   47.1661 H   0  0  0  0  0  0  0  0  0  0  0  0
   58.2397   34.3316   48.6132 H   0  0  0  0  0  0  0  0  0  0  0  0
   59.2296   32.8989   48.0826 H   0  0  0  0  0  0  0  0  0  0  0  0
   59.6637   35.7239   47.6912 H   0  0  0  0  0  0  0  0  0  0  0  0
   61.6701   33.0487   45.7850 H   0  0  0  0  0  0  0  0  0  0  0  0
   62.3081   34.6965   45.6852 H   0  0  0  0  0  0  0  0  0  0  0  0
   63.5677   32.3419   46.8942 H   0  0  0  0  0  0  0  0  0  0  0  0
   64.2491   33.9784   46.7939 H   0  0  0  0  0  0  0  0  0  0  0  0
   58.7907   35.8239   45.5675 H   0  0  0  0  0  0  0  0  0  0  0  0
   60.5595   35.4656   45.2828 H   0  0  0  0  0  0  0  0  0  0  0  0
   58.7875   34.1906   43.8730 H   0  0  0  0  0  0  0  0  0  0  0  0
   60.1575   33.2795   44.6404 H   0  0  0  0  0  0  0  0  0  0  0  0
   59.4556   30.7147   46.3866 H   0  0  0  0  0  0  0  0  0  0  0  0
  1  2  2  0
  2  3  1  0
  3  4  1  0
  4  5  1  0
  5  6  2  0
  6  7  1  0
  7  8  2  0
  8  9  1  0
  9 10  2  0
 10 11  1  0
  2 12  1  0
 12 13  2  0
 13 14  1  0
 14 15  2  0
 15 16  1  0
 16 17  1  0
 17 18  1  0
 18 19  1  0
 19 20  1  0
 20 21  1  0
 21 22  1  0
 22 23  1  0
 23 24  1  0
 24 25  1  0
 25 26  2  0
 20 27  1  0
 27 28  1  0
 16 29  2  0
 10  5  1  0
 29 12  1  0
 28 17  1  0
 25 21  1  0
  4 30  1  0
  4 31  1  0
  6 32  1  0
  7 33  1  0
  8 34  1  0
  9 35  1  0
 13 36  1  0
 14 37  1  0
 15 38  1  0
 18 39  1  0
 18 40  1  0
 19 41  1  0
 19 42  1  0
 20 43  1  0
 22 44  1  0
 22 45  1  0
 23 46  1  0
 23 47  1  0
 27 48  1  0
 27 49  1  0
 28 50  1  0
 28 51  1  0
 29 52  1  0
M  CHG  3   3  -1  11  -1  24  -1
M  END
>  <UniqueID>  (30) 
30

>  <SMILES>  (30) 
O=C([N-]Cc1ccccc1[O-])c1cccc(N2CCC(N3CC[N-]C3=O)CC2)c1

>  <Energy>  (30) 
78.21062140735856

>  <Genealogy>  (30) 
O=C([N-]Cc1ccccc1[O-])c1cccc(N2CCC(N3CC[N-]C3=O)CC2)c1 (protonated)
O=C([N-]Cc1ccccc1[O-])c1cccc(N2CCC(N3CC[N-]C3=O)CC2)c1 (3D coordinates assigned)
O=C([N-]Cc1ccccc1[O-])c1cccc(N2CCC(N3CC[N-]C3=O)CC2)c1 (nonaromatic ring conformer: 78.21062140735856 kcal/mol)

>  <smiles>  (30) 
O=C(NCc1ccccc1O)c1cccc(N2CCC(N3CCNC3=O)CC2)c1

>  <score_type>  (30) 
oracle

>  <origin>  (30) 
adg

>  <m_score__min__energy>  (30) 
-16.829999999999998

>  <m_primary>  (30) 
energy

$$$$
30:0
     RDKit          3D

 44 46  0  0  0  0  0  0  0  0999 V2000
   55.1010   26.7100   45.9810 O   0  0  0  0  0  0  0  0  0  0  0  0
   56.2910   26.6500   46.3870 C   0  0  0  0  0  0  0  0  0  0  0  0
   56.7710   25.4370   46.8670 O   0  0  0  0  0  0  0  0  0  0  0  0
   57.1730   27.8460   46.3580 C   0  0  0  0  0  0  0  0  0  0  0  0
   58.3290   27.8620   47.1590 C   0  0  0  0  0  0  0  0  0  0  0  0
   59.1790   28.9680   47.1600 C   0  0  0  0  0  0  0  0  0  0  0  0
   60.7350   28.9720   48.2700 Br  0  0  0  0  0  0  0  0  0  0  0  0
   58.8920   30.0750   46.3620 C   0  0  0  0  0  0  0  0  0  0  0  0
   57.7500   30.0870   45.5440 C   0  0  0  0  0  0  0  0  0  0  0  0
   57.4420   31.2710   44.7080 C   0  0  0  0  0  0  0  0  0  0  0  0
   57.8180   31.2810   43.5030 O   0  0  0  0  0  0  0  0  0  0  0  0
   56.6750   32.4170   45.2570 C   0  0  0  0  0  0  0  0  0  0  0  0
   57.2100   33.5030   45.8370 C   0  0  0  0  0  0  0  0  0  0  0  0
   58.5890   33.6010   46.3580 C   0  0  0  0  0  0  0  0  0  0  0  0
   59.6790   33.8080   45.4960 C   0  0  0  0  0  0  0  0  0  0  0  0
   60.9780   33.8520   46.0050 C   0  0  0  0  0  0  0  0  0  0  0  0
   61.2040   33.6710   47.3720 C   0  0  0  0  0  0  0  0  0  0  0  0
   60.1240   33.4370   48.2450 C   0  0  0  0  0  0  0  0  0  0  0  0
   60.2930   33.2460   49.6250 O   0  0  0  0  0  0  0  0  0  0  0  0
   59.2810   33.4320   50.6140 C   0  0  0  0  0  0  0  0  0  0  0  0
   58.7780   32.1070   51.1220 C   0  0  0  0  0  0  0  0  0  0  0  0
   57.4220   31.9470   51.4490 C   0  0  0  0  0  0  0  0  0  0  0  0
   56.9490   30.7170   51.9180 C   0  0  0  0  0  0  0  0  0  0  0  0
   55.2560   30.5290   52.3350 Cl  0  0  0  0  0  0  0  0  0  0  0  0
   57.8260   29.6360   52.0560 C   0  0  0  0  0  0  0  0  0  0  0  0
   59.1770   29.7830   51.7200 C   0  0  0  0  0  0  0  0  0  0  0  0
   60.2750   28.4260   51.8880 Cl  0  0  0  0  0  0  0  0  0  0  0  0
   59.6510   31.0130   51.2510 C   0  0  0  0  0  0  0  0  0  0  0  0
   58.8240   33.3890   47.7240 C   0  0  0  0  0  0  0  0  0  0  0  0
   56.8870   28.9700   45.5470 C   0  0  0  0  0  0  0  0  0  0  0  0
   55.7600   28.9750   44.7280 O   0  0  0  0  0  0  0  0  0  0  0  0
   58.5652   26.9934   47.7912 H   0  0  0  0  0  0  0  0  0  0  0  0
   59.5648   30.9452   46.3731 H   0  0  0  0  0  0  0  0  0  0  0  0
   55.5784   32.3728   45.1825 H   0  0  0  0  0  0  0  0  0  0  0  0
   56.5696   34.3923   45.9321 H   0  0  0  0  0  0  0  0  0  0  0  0
   59.5082   33.9358   44.4169 H   0  0  0  0  0  0  0  0  0  0  0  0
   61.8265   34.0297   45.3278 H   0  0  0  0  0  0  0  0  0  0  0  0
   62.2295   33.7115   47.7678 H   0  0  0  0  0  0  0  0  0  0  0  0
   59.6996   34.0049   51.4546 H   0  0  0  0  0  0  0  0  0  0  0  0
   58.4404   33.9767   50.1594 H   0  0  0  0  0  0  0  0  0  0  0  0
   56.7282   32.7931   51.3358 H   0  0  0  0  0  0  0  0  0  0  0  0
   57.4540   28.6702   52.4286 H   0  0  0  0  0  0  0  0  0  0  0  0
   60.7118   31.1244   50.9820 H   0  0  0  0  0  0  0  0  0  0  0  0
   57.9773   33.1824   48.3951 H   0  0  0  0  0  0  0  0  0  0  0  0
  1  2  2  0
  2  3  1  0
  2  4  1  0
  4  5  2  0
  5  6  1  0
  6  7  1  0
  6  8  2  0
  8  9  1  0
  9 10  1  0
 10 11  2  0
 10 12  1  0
 12 13  2  3
 13 14  1  0
 14 15  2  0
 15 16  1  0
 16 17  2  0
 17 18  1  0
 18 19  1  0
 19 20  1  0
 20 21  1  0
 21 22  2  0
 22 23  1  0
 23 24  1  0
 23 25  2  0
 25 26  1  0
 26 27  1  0
 26 28  2  0
 18 29  2  0
  9 30  2  0
 30 31  1  0
 30  4  1  0
 29 14  1  0
 28 21  1  0
  5 32  1  0
  8 33  1  0
 12 34  1  0
 13 35  1  0
 15 36  1  0
 16 37  1  0
 17 38  1  0
 20 39  1  0
 20 40  1  0
 22 41  1  0
 25 42  1  0
 28 43  1  0
 29 44  1  0
M  CHG  2   3  -1  31  -1
M  END
>  <UniqueID>  (31) 
31

>  <SMILES>  (31) 
O=C([O-])c1cc(Br)cc(C(=O)C=Cc2cccc(OCc3cc(Cl)cc(Cl)c3)c2)c1[O-]

>  <Energy>  (31) 
61.623275136582244

>  <Genealogy>  (31) 
O=C([O-])c1cc(Br)cc(C(=O)C=Cc2cccc(OCc3cc(Cl)cc(Cl)c3)c2)c1[O-] (protonated)
O=C([O-])c1cc(Br)cc(C(=O)C=Cc2cccc(OCc3cc(Cl)cc(Cl)c3)c2)c1[O-] (3D coordinates assigned)
O=C([O-])c1cc(Br)cc(C(=O)C=Cc2cccc(OCc3cc(Cl)cc(Cl)c3)c2)c1[O-] (optimized conformer: 61.623275136582244 kcal/mol)

>  <smiles>  (31) 
O=C(O)c1cc(Br)cc(C(=O)C=Cc2cccc(OCc3cc(Cl)cc(Cl)c3)c2)c1O

>  <score_type>  (31) 
oracle

>  <origin>  (31) 
adg

>  <m_score__min__energy>  (31) 
-15.59

>  <m_primary>  (31) 
energy

$$$$
31:0
     RDKit          3D

 57 60  0  0  0  0  0  0  0  0999 V2000
   58.1423   29.7212   47.8482 H   0  0  0  0  0  0  0  0  0  0  0  0
   58.0350   28.8690   47.1610 C   0  0  0  0  0  0  0  0  0  0  0  0
   58.0374   27.8417   47.5542 H   0  0  0  0  0  0  0  0  0  0  0  0
   57.9010   29.0830   45.8410 C   0  0  0  0  0  0  0  0  0  0  0  0
   57.7560   28.0970   44.8520 C   0  0  0  0  0  0  0  0  0  0  0  0
   57.9440   26.7640   44.8960 C   0  0  0  0  0  0  0  0  0  0  0  0
   58.5651   26.3168   44.1059 H   0  0  0  0  0  0  0  0  0  0  0  0
   57.3880   25.8540   45.9130 C   0  0  0  0  0  0  0  0  0  0  0  0
   58.0400   24.7990   46.4390 N   0  0  0  0  0  0  0  0  0  0  0  0
   57.0970   24.1940   47.1920 C   0  0  0  0  0  0  0  0  0  0  0  0
   57.3320   23.1570   47.8660 O   0  0  0  0  0  0  0  0  0  0  0  0
   55.8820   24.7780   47.1560 N   0  0  0  0  0  0  0  0  0  0  0  0
   56.0810   25.8190   46.3310 C   0  0  0  0  0  0  0  0  0  0  0  0
   55.0840   26.7140   45.9620 O   0  0  0  0  0  0  0  0  0  0  0  0
   57.3850   28.7590   43.6950 C   0  0  0  0  0  0  0  0  0  0  0  0
   57.1242   28.2983   42.7308 H   0  0  0  0  0  0  0  0  0  0  0  0
   57.4050   30.1070   43.9830 C   0  0  0  0  0  0  0  0  0  0  0  0
   57.0580   31.1830   42.9970 C   0  0  0  0  0  0  0  0  0  0  0  0
   56.7640   32.0948   43.5376 H   0  0  0  0  0  0  0  0  0  0  0  0
   57.9326   31.3973   42.3652 H   0  0  0  0  0  0  0  0  0  0  0  0
   56.2230   30.8460   42.3652 H   0  0  0  0  0  0  0  0  0  0  0  0
   57.7230   30.3130   45.2840 N   0  0  0  0  0  0  0  0  0  0  0  0
   57.7870   31.6300   45.9400 C   0  0  0  0  0  0  0  0  0  0  0  0
   57.4403   32.4000   45.2351 H   0  0  0  0  0  0  0  0  0  0  0  0
   57.1455   31.6077   46.8333 H   0  0  0  0  0  0  0  0  0  0  0  0
   59.1960   31.9530   46.3690 C   0  0  0  0  0  0  0  0  0  0  0  0
   60.1630   30.9420   46.4590 C   0  0  0  0  0  0  0  0  0  0  0  0
   59.8890   29.9029   46.2240 H   0  0  0  0  0  0  0  0  0  0  0  0
   61.4730   31.2430   46.8450 C   0  0  0  0  0  0  0  0  0  0  0  0
   62.2223   30.4400   46.9052 H   0  0  0  0  0  0  0  0  0  0  0  0
   61.8400   32.5650   47.1570 C   0  0  0  0  0  0  0  0  0  0  0  0
   63.2290   32.9230   47.5530 C   0  0  0  0  0  0  0  0  0  0  0  0
   63.8070   33.8710   46.9480 O   0  0  0  0  0  0  0  0  0  0  0  0
   63.9510   32.2000   48.5860 N   0  0  2  0  0  0  0  0  0  0  0  0
   64.5200   31.4480   48.1340 H   0  0  0  0  0  0  0  0  0  0  0  0
   63.0020   31.4970   49.5030 C   0  0  0  0  0  0  0  0  0  0  0  0
   63.2882   30.4360   49.5523 H   0  0  0  0  0  0  0  0  0  0  0  0
   61.9917   31.6400   49.0920 H   0  0  0  0  0  0  0  0  0  0  0  0
   62.9910   32.0520   50.9020 C   0  0  0  0  0  0  0  0  0  0  0  0
   61.9050   32.1200   51.5380 O   0  0  0  0  0  0  0  0  0  0  0  0
   64.2360   32.4510   51.5070 N   0  0  0  0  0  0  0  0  0  0  0  0
   64.3880   32.5450   52.9440 C   0  0  0  0  0  0  0  0  0  0  0  0
   64.6600   33.6530   53.4830 O   0  0  0  0  0  0  0  0  0  0  0  0
   64.2340   31.3440   53.8310 C   0  0  0  0  0  0  0  0  0  0  0  0
   64.2743   31.6585   54.8843 H   0  0  0  0  0  0  0  0  0  0  0  0
   63.2666   30.8609   53.6294 H   0  0  0  0  0  0  0  0  0  0  0  0
   65.0483   30.6324   53.6294 H   0  0  0  0  0  0  0  0  0  0  0  0
   65.3820   32.6060   50.6040 C   0  0  0  0  0  0  0  0  0  0  0  0
   65.8729   31.6315   50.4649 H   0  0  0  0  0  0  0  0  0  0  0  0
   66.0968   33.3194   51.0400 H   0  0  0  0  0  0  0  0  0  0  0  0
   64.9000   33.1330   49.2470 C   0  0  0  0  0  0  0  0  0  0  0  0
   65.7723   33.2737   48.5918 H   0  0  0  0  0  0  0  0  0  0  0  0
   64.3726   34.0823   49.4221 H   0  0  0  0  0  0  0  0  0  0  0  0
   60.8670   33.5760   47.0530 C   0  0  0  0  0  0  0  0  0  0  0  0
   61.1389   34.6172   47.2811 H   0  0  0  0  0  0  0  0  0  0  0  0
   59.5610   33.2740   46.6640 C   0  0  0  0  0  0  0  0  0  0  0  0
   58.8135   34.0775   46.5884 H   0  0  0  0  0  0  0  0  0  0  0  0
  1  2  1  0
  2  3  1  0
  2  4  2  0
  4  5  1  0
  5  6  2  0
  6  7  1  0
  6  8  1  0
  8  9  1  0
  9 10  1  0
 10 11  2  0
 10 12  1  0
 12 13  1  0
 13 14  1  0
  5 15  1  0
 15 16  1  0
 15 17  2  0
 17 18  1  0
 18 19  1  0
 18 20  1  0
 18 21  1  0
 17 22  1  0
 22 23  1  0
 23 24  1  0
 23 25  1  0
 23 26  1  0
 26 27  2  0
 27 28  1  0
 27 29  1  0
 29 30  1  0
 29 31  2  0
 31 32  1  0
 32 33  2  0
 32 34  1  0
 34 35  1  6
 34 36  1  0
 36 37  1  0
 36 38  1  0
 36 39  1  0
 39 40  2  0
 39 41  1  0
 41 42  1  0
 42 43  2  0
 42 44  1  0
 44 45  1  0
 44 46  1  0
 44 47  1  0
 41 48  1  0
 48 49  1  0
 48 50  1  0
 48 51  1  0
 51 52  1  0
 51 53  1  0
 31 54  1  0
 54 55  1  0
 54 56  2  0
 56 57  1  0
 22  4  1  0
 56 26  1  0
 13  8  2  0
 51 34  1  0
M  CHG  4   9  -1  12  -1  14  -1  34   1
M  END
>  <UniqueID>  (32) 
32

>  <SMILES>  (32) 
C=c1/c(=C\c2[n-]c(=O)[n-]c2[O-])cc(C)n1Cc1ccc(C(=O)[N@H+]2CCN(C(C)=O)C(=O)C2)cc1

>  <Energy>  (32) 
144.14462076134302

>  <Genealogy>  (32) 
C=c1c(=Cc2[n-]c(=O)[n-]c2[O-])cc(C)n1Cc1ccc(C(=O)[NH+]2CCN(C(C)=O)C(=O)C2)cc1 (protonated)
C=c1c(=Cc2[n-]c(=O)[n-]c2[O-])cc(C)n1Cc1ccc(C(=O)[N@H+]2CCN(C(C)=O)C(=O)C2)cc1 (chirality)
C=c1/c(=C\c2[n-]c(=O)[n-]c2[O-])cc(C)n1Cc1ccc(C(=O)[N@H+]2CCN(C(C)=O)C(=O)C2)cc1 (cis-trans isomerization)
C=c1/c(=C\c2[n-]c(=O)[n-]c2[O-])cc(C)n1Cc1ccc(C(=O)[N@H+]2CCN(C(C)=O)C(=O)C2)cc1 (3D coordinates assigned)
C=c1/c(=C\c2[n-]c(=O)[n-]c2[O-])cc(C)n1Cc1ccc(C(=O)[N@H+]2CCN(C(C)=O)C(=O)C2)cc1 (nonaromatic ring conformer: 144.14462076134302 kcal/mol)

>  <smiles>  (32) 
C=c1c(=Cc2[nH]c(=O)[nH]c2O)cc(C)n1Cc1ccc(C(=O)N2CCN(C(C)=O)C(=O)C2)cc1

>  <score_type>  (32) 
oracle

>  <origin>  (32) 
adg

>  <m_score__min__energy>  (32) 
-16.73

>  <m_primary>  (32) 
energy

$$$$
32:0
     RDKit          3D

 40 42  0  0  0  0  0  0  0  0999 V2000
   60.0090   34.5860   48.3770 C   0  0  0  0  0  0  0  0  0  0  0  0
   59.8610   34.6950   46.6090 S   0  0  0  0  0  0  0  0  0  0  0  0
   59.9970   36.1320   46.1880 O   0  0  0  0  0  0  0  0  0  0  0  0
   60.9470   33.8710   45.9750 O   0  0  0  0  0  0  0  0  0  0  0  0
   58.3090   34.0860   46.1380 N   0  0  0  0  0  0  0  0  0  0  0  0
   58.0870   33.0630   45.1600 C   0  0  0  0  0  0  0  0  0  0  0  0
   58.1590   33.3230   43.7790 C   0  0  0  0  0  0  0  0  0  0  0  0
   57.9660   32.2900   42.8580 C   0  0  0  0  0  0  0  0  0  0  0  0
   57.7150   30.9910   43.3010 C   0  0  0  0  0  0  0  0  0  0  0  0
   57.6440   30.7180   44.6730 C   0  0  0  0  0  0  0  0  0  0  0  0
   57.4410   29.3310   45.1430 C   0  0  0  0  0  0  0  0  0  0  0  0
   58.5180   28.5340   45.5920 C   0  0  0  0  0  0  0  0  0  0  0  0
   59.9430   29.0340   45.6160 C   0  0  0  0  0  0  0  0  0  0  0  0
   60.2510   29.7890   46.8860 C   0  0  0  0  0  0  0  0  0  0  0  0
   61.2220   30.8070   46.8910 C   0  0  0  0  0  0  0  0  0  0  0  0
   61.4760   31.5320   48.0590 C   0  0  0  0  0  0  0  0  0  0  0  0
   60.7780   31.2380   49.2320 C   0  0  0  0  0  0  0  0  0  0  0  0
   59.8280   30.2130   49.2430 C   0  0  0  0  0  0  0  0  0  0  0  0
   59.5670   29.4870   48.0760 C   0  0  0  0  0  0  0  0  0  0  0  0
   58.2690   27.2730   46.0400 N   0  0  0  0  0  0  0  0  0  0  0  0
   57.0120   26.7640   46.0660 C   0  0  0  0  0  0  0  0  0  0  0  0
   56.8180   25.5940   46.4850 O   0  0  0  0  0  0  0  0  0  0  0  0
   55.9650   27.5150   45.6440 N   0  0  0  0  0  0  0  0  0  0  0  0
   56.1470   28.7800   45.1880 C   0  0  0  0  0  0  0  0  0  0  0  0
   55.1510   29.4490   44.8050 O   0  0  0  0  0  0  0  0  0  0  0  0
   57.8120   31.7600   45.6000 C   0  0  0  0  0  0  0  0  0  0  0  0
   57.7620   31.4990   46.9330 F   0  0  0  0  0  0  0  0  0  0  0  0
   59.2090   35.1752   48.8489 H   0  0  0  0  0  0  0  0  0  0  0  0
   59.9222   33.5345   48.6881 H   0  0  0  0  0  0  0  0  0  0  0  0
   60.9874   34.9808   48.6881 H   0  0  0  0  0  0  0  0  0  0  0  0
   58.3679   34.3427   43.4233 H   0  0  0  0  0  0  0  0  0  0  0  0
   58.0121   32.5018   41.7796 H   0  0  0  0  0  0  0  0  0  0  0  0
   57.5726   30.1800   42.5716 H   0  0  0  0  0  0  0  0  0  0  0  0
   60.6236   28.1733   45.5396 H   0  0  0  0  0  0  0  0  0  0  0  0
   60.0783   29.7217   44.7682 H   0  0  0  0  0  0  0  0  0  0  0  0
   61.7834   31.0333   45.9725 H   0  0  0  0  0  0  0  0  0  0  0  0
   62.2272   32.3356   48.0539 H   0  0  0  0  0  0  0  0  0  0  0  0
   60.9760   31.8136   50.1482 H   0  0  0  0  0  0  0  0  0  0  0  0
   59.2850   29.9769   50.1701 H   0  0  0  0  0  0  0  0  0  0  0  0
   58.8234   28.6765   48.0898 H   0  0  0  0  0  0  0  0  0  0  0  0
  1  2  1  0
  2  3  2  0
  2  4  2  0
  2  5  1  0
  5  6  1  0
  6  7  2  0
  7  8  1  0
  8  9  2  0
  9 10  1  0
 10 11  1  0
 11 12  2  0
 12 13  1  0
 13 14  1  0
 14 15  2  0
 15 16  1  0
 16 17  2  0
 17 18  1  0
 18 19  2  0
 12 20  1  0
 20 21  1  0
 21 22  2  0
 21 23  1  0
 23 24  1  0
 24 25  2  0
 10 26  2  0
 26 27  1  0
 26  6  1  0
 24 11  1  0
 19 14  1  0
  1 28  1  0
  1 29  1  0
  1 30  1  0
  7 31  1  0
  8 32  1  0
  9 33  1  0
 13 34  1  0
 13 35  1  0
 15 36  1  0
 16 37  1  0
 17 38  1  0
 18 39  1  0
 19 40  1  0
M  CHG  3   5  -1  20  -1  23  -1
M  END
>  <UniqueID>  (33) 
33

>  <SMILES>  (33) 
CS(=O)(=O)[N-]c1cccc(-c2c(Cc3ccccc3)[n-]c(=O)[n-]c2=O)c1F

>  <Energy>  (33) 
48.47155249798375

>  <Genealogy>  (33) 
CS(=O)(=O)[N-]c1cccc(-c2c(Cc3ccccc3)[n-]c(=O)[n-]c2=O)c1F (protonated)
CS(=O)(=O)[N-]c1cccc(-c2c(Cc3ccccc3)[n-]c(=O)[n-]c2=O)c1F (3D coordinates assigned)
CS(=O)(=O)[N-]c1cccc(-c2c(Cc3ccccc3)[n-]c(=O)[n-]c2=O)c1F (optimized conformer: 48.47155249798375 kcal/mol)

>  <smiles>  (33) 
CS(=O)(=O)Nc1cccc(-c2c(Cc3ccccc3)[nH]c(=O)[nH]c2=O)c1F

>  <score_type>  (33) 
oracle

>  <origin>  (33) 
adg

>  <m_score__min__energy>  (33) 
-12.289999999999999

>  <m_primary>  (33) 
energy

$$$$
33:0
     RDKit          3D

 35 37  0  0  0  0  0  0  0  0999 V2000
   57.5600   33.6895   44.2122 H   0  0  0  0  0  0  0  0  0  0  0  0
   57.8970   33.1170   45.0890 C   0  0  0  0  0  0  0  0  0  0  0  0
   58.4520   33.7780   46.1140 C   0  0  0  0  0  0  0  0  0  0  0  0
   57.9106   34.6273   46.5563 H   0  0  0  0  0  0  0  0  0  0  0  0
   59.7700   33.4010   46.6690 C   0  0  0  0  0  0  0  0  0  0  0  0
   60.8770   34.1810   46.2980 C   0  0  0  0  0  0  0  0  0  0  0  0
   60.7314   35.0645   45.6591 H   0  0  0  0  0  0  0  0  0  0  0  0
   62.1600   33.8460   46.7320 C   0  0  0  0  0  0  0  0  0  0  0  0
   63.0208   34.4594   46.4274 H   0  0  0  0  0  0  0  0  0  0  0  0
   62.3520   32.7350   47.5510 C   0  0  0  0  0  0  0  0  0  0  0  0
   63.3664   32.4643   47.8791 H   0  0  0  0  0  0  0  0  0  0  0  0
   61.2610   31.9650   47.9560 C   0  0  0  0  0  0  0  0  0  0  0  0
   61.4224   31.0925   48.6062 H   0  0  0  0  0  0  0  0  0  0  0  0
   59.9540   32.2930   47.5410 C   0  0  0  0  0  0  0  0  0  0  0  0
   58.8220   31.5590   48.0530 N   0  0  0  0  0  0  0  0  0  0  0  0
   58.1520   31.1090   47.3890 H   0  0  0  0  0  0  0  0  0  0  0  0
   58.5570   31.3890   49.4780 C   0  0  0  0  0  0  0  0  0  0  0  0
   59.3428   31.8931   50.0598 H   0  0  0  0  0  0  0  0  0  0  0  0
   57.5793   31.8289   49.7242 H   0  0  0  0  0  0  0  0  0  0  0  0
   58.5492   30.3169   49.7242 H   0  0  0  0  0  0  0  0  0  0  0  0
   57.7200   31.6550   45.0890 C   0  0  0  0  0  0  0  0  0  0  0  0
   56.4980   31.0960   44.8690 N   0  0  0  0  0  0  0  0  0  0  0  0
   56.3230   29.7490   44.8700 C   0  0  0  0  0  0  0  0  0  0  0  0
   55.1740   29.2750   44.6600 O   0  0  0  0  0  0  0  0  0  0  0  0
   57.4220   28.9040   45.1030 C   0  0  0  0  0  0  0  0  0  0  0  0
   57.3090   27.5030   45.1180 C   0  0  0  0  0  0  0  0  0  0  0  0
   56.3324   27.0282   44.9427 H   0  0  0  0  0  0  0  0  0  0  0  0
   58.4390   26.7120   45.3560 C   0  0  0  0  0  0  0  0  0  0  0  0
   58.3490   25.6157   45.3668 H   0  0  0  0  0  0  0  0  0  0  0  0
   59.6820   27.3120   45.5800 C   0  0  0  0  0  0  0  0  0  0  0  0
   60.5673   26.6863   45.7662 H   0  0  0  0  0  0  0  0  0  0  0  0
   59.8030   28.7040   45.5680 C   0  0  0  0  0  0  0  0  0  0  0  0
   60.7827   29.1718   45.7450 H   0  0  0  0  0  0  0  0  0  0  0  0
   58.6790   29.5040   45.3310 C   0  0  0  0  0  0  0  0  0  0  0  0
   58.7960   30.8570   45.3190 N   0  0  0  0  0  0  0  0  0  0  0  0
  1  2  1  0
  2  3  2  0
  3  4  1  0
  3  5  1  0
  5  6  2  0
  6  7  1  0
  6  8  1  0
  8  9  1  0
  8 10  2  0
 10 11  1  0
 10 12  1  0
 12 13  1  0
 12 14  2  0
 14 15  1  0
 15 16  1  0
 15 17  1  0
 17 18  1  0
 17 19  1  0
 17 20  1  0
  2 21  1  0
 21 22  2  0
 22 23  1  0
 23 24  2  0
 23 25  1  0
 25 26  2  0
 26 27  1  0
 26 28  1  0
 28 29  1  0
 28 30  2  0
 30 31  1  0
 30 32  1  0
 32 33  1  0
 32 34  2  0
 34 35  1  0
 14  5  1  0
 35 21  1  0
 34 25  1  0
M  CHG  1  35  -1
M  END
>  <UniqueID>  (34) 
34

>  <SMILES>  (34) 
CNc1ccccc1/C=C/c1nc(=O)c2ccccc2[n-]1

>  <Energy>  (34) 
47.344953325681544

>  <Genealogy>  (34) 
CNc1ccccc1C=Cc1nc(=O)c2ccccc2[n-]1 (protonated)
CNc1ccccc1/C=C/c1nc(=O)c2ccccc2[n-]1 (cis-trans isomerization)
CNc1ccccc1/C=C/c1nc(=O)c2ccccc2[n-]1 (3D coordinates assigned)
CNc1ccccc1/C=C/c1nc(=O)c2ccccc2[n-]1 (optimized conformer: 47.344953325681544 kcal/mol)

>  <smiles>  (34) 
CNc1ccccc1C=Cc1nc(=O)c2ccccc2[nH]1

>  <score_type>  (34) 
oracle

>  <origin>  (34) 
adg

>  <m_score__min__energy>  (34) 
-8.5999999999999996

>  <m_primary>  (34) 
energy

$$$$
34:0
     RDKit          3D

 67 69  0  0  0  0  0  0  0  0999 V2000
   64.1480   32.1610   49.6550 C   0  0  0  0  0  0  0  0  0  0  0  0
   62.7790   31.9100   49.1770 N   0  0  0  0  0  0  0  0  0  0  0  0
   61.8310   32.9320   49.6860 C   0  0  0  0  0  0  0  0  0  0  0  0
   61.5240   34.0210   48.6410 C   0  0  0  0  0  0  0  0  0  0  0  0
   60.9910   33.4610   47.3770 N   0  0  0  0  0  0  0  0  0  0  0  0
   59.2570   33.6540   47.2670 S   0  0  0  0  0  0  0  0  0  0  0  0
   58.9090   35.1170   47.2960 O   0  0  0  0  0  0  0  0  0  0  0  0
   58.6100   32.9980   48.4560 O   0  0  0  0  0  0  0  0  0  0  0  0
   58.6170   32.9340   45.7870 C   0  0  0  0  0  0  0  0  0  0  0  0
   58.7050   33.6240   44.5700 C   0  0  0  0  0  0  0  0  0  0  0  0
   58.1680   33.0690   43.4070 C   0  0  0  0  0  0  0  0  0  0  0  0
   57.5440   31.8190   43.4500 C   0  0  0  0  0  0  0  0  0  0  0  0
   57.4630   31.1140   44.6580 C   0  0  0  0  0  0  0  0  0  0  0  0
   56.6710   29.5420   44.7010 S   0  0  0  0  0  0  0  0  0  0  0  0
   56.9540   28.8550   43.3950 O   0  0  0  0  0  0  0  0  0  0  0  0
   55.1820   29.7140   44.8130 O   0  0  0  0  0  0  0  0  0  0  0  0
   57.2470   28.5190   45.9970 N   0  0  0  0  0  0  0  0  0  0  0  0
   58.3610   27.5820   45.6930 C   0  0  0  0  0  0  0  0  0  0  0  0
   59.5650   28.3380   45.0730 C   0  0  0  0  0  0  0  0  0  0  0  0
   57.8110   26.5940   44.6380 C   0  0  0  0  0  0  0  0  0  0  0  0
   58.7880   26.7880   46.9670 C   0  0  0  0  0  0  0  0  0  0  0  0
   60.0420   27.2860   47.6450 C   0  0  0  0  0  0  0  0  0  0  0  0
   61.1500   26.7350   47.4040 O   0  0  0  0  0  0  0  0  0  0  0  0
   59.9880   28.4050   48.5480 N   0  0  0  0  0  0  0  0  0  0  0  0
   60.8790   28.4470   49.7110 C   0  0  0  0  0  0  0  0  0  0  0  0
   60.1430   29.0580   50.9070 C   0  0  0  0  0  0  0  0  0  0  0  0
   59.4580   30.2980   50.5090 N   0  0  0  0  0  0  0  0  0  0  0  0
   59.3640   31.4130   51.4120 C   0  0  0  0  0  0  0  0  0  0  0  0
   59.9780   31.4120   52.5120 O   0  0  0  0  0  0  0  0  0  0  0  0
   58.5950   30.2670   49.3230 C   0  0  0  0  0  0  0  0  0  0  0  0
   59.3480   29.6600   48.1390 C   0  0  0  0  0  0  0  0  0  0  0  0
   58.0010   31.6760   45.8250 C   0  0  0  0  0  0  0  0  0  0  0  0
   61.3750   32.0560   47.1320 C   0  0  0  0  0  0  0  0  0  0  0  0
   62.7650   31.7610   47.7050 C   0  0  0  0  0  0  0  0  0  0  0  0
   64.1578   32.1628   50.7550 H   0  0  0  0  0  0  0  0  0  0  0  0
   64.8167   31.3705   49.2837 H   0  0  0  0  0  0  0  0  0  0  0  0
   64.4928   33.1373   49.2837 H   0  0  0  0  0  0  0  0  0  0  0  0
   60.8904   32.4339   49.9638 H   0  0  0  0  0  0  0  0  0  0  0  0
   62.2994   33.4216   50.5526 H   0  0  0  0  0  0  0  0  0  0  0  0
   60.7798   34.7134   49.0614 H   0  0  0  0  0  0  0  0  0  0  0  0
   62.4680   34.5348   48.4068 H   0  0  0  0  0  0  0  0  0  0  0  0
   59.1989   34.6061   44.5312 H   0  0  0  0  0  0  0  0  0  0  0  0
   58.2361   33.6163   42.4553 H   0  0  0  0  0  0  0  0  0  0  0  0
   57.1155   31.3878   42.5332 H   0  0  0  0  0  0  0  0  0  0  0  0
   56.4240   27.9950   46.3750 H   0  0  0  0  0  0  0  0  0  0  0  0
   60.2007   28.7372   45.8771 H   0  0  0  0  0  0  0  0  0  0  0  0
   60.1517   27.6459   44.4511 H   0  0  0  0  0  0  0  0  0  0  0  0
   59.1965   29.1671   44.4511 H   0  0  0  0  0  0  0  0  0  0  0  0
   57.3365   25.7416   45.1462 H   0  0  0  0  0  0  0  0  0  0  0  0
   57.0679   27.1057   44.0087 H   0  0  0  0  0  0  0  0  0  0  0  0
   58.6374   26.2320   44.0087 H   0  0  0  0  0  0  0  0  0  0  0  0
   57.9640   26.8420   47.6937 H   0  0  0  0  0  0  0  0  0  0  0  0
   59.0096   25.7650   46.6289 H   0  0  0  0  0  0  0  0  0  0  0  0
   61.1994   27.4252   49.9626 H   0  0  0  0  0  0  0  0  0  0  0  0
   61.7585   29.0632   49.4725 H   0  0  0  0  0  0  0  0  0  0  0  0
   59.4006   28.3381   51.2820 H   0  0  0  0  0  0  0  0  0  0  0  0
   60.8745   29.2915   51.6947 H   0  0  0  0  0  0  0  0  0  0  0  0
   58.7461   32.2808   51.1379 H   0  0  0  0  0  0  0  0  0  0  0  0
   57.7040   29.6587   49.5376 H   0  0  0  0  0  0  0  0  0  0  0  0
   58.2955   31.2947   49.0696 H   0  0  0  0  0  0  0  0  0  0  0  0
   58.6410   29.4596   47.3205 H   0  0  0  0  0  0  0  0  0  0  0  0
   60.1190   30.3666   47.7980 H   0  0  0  0  0  0  0  0  0  0  0  0
   57.9390   31.1260   46.7756 H   0  0  0  0  0  0  0  0  0  0  0  0
   60.6398   31.3929   47.6113 H   0  0  0  0  0  0  0  0  0  0  0  0
   61.3986   31.8824   46.0460 H   0  0  0  0  0  0  0  0  0  0  0  0
   63.0487   30.7303   47.4459 H   0  0  0  0  0  0  0  0  0  0  0  0
   63.4788   32.4791   47.2752 H   0  0  0  0  0  0  0  0  0  0  0  0
  1  2  1  0
  2  3  1  0
  3  4  1  0
  4  5  1  0
  5  6  1  0
  6  7  2  0
  6  8  2  0
  6  9  1  0
  9 10  2  0
 10 11  1  0
 11 12  2  0
 12 13  1  0
 13 14  1  0
 14 15  2  0
 14 16  2  0
 14 17  1  0
 17 18  1  0
 18 19  1  0
 18 20  1  0
 18 21  1  0
 21 22  1  0
 22 23  2  0
 22 24  1  0
 24 25  1  0
 25 26  1  0
 26 27  1  0
 27 28  1  0
 28 29  2  0
 27 30  1  0
 30 31  1  0
 13 32  2  0
  5 33  1  0
 33 34  1  0
 34  2  1  0
 32  9  1  0
 31 24  1  0
  1 35  1  0
  1 36  1  0
  1 37  1  0
  3 38  1  0
  3 39  1  0
  4 40  1  0
  4 41  1  0
 10 42  1  0
 11 43  1  0
 12 44  1  0
 17 45  1  0
 19 46  1  0
 19 47  1  0
 19 48  1  0
 20 49  1  0
 20 50  1  0
 20 51  1  0
 21 52  1  0
 21 53  1  0
 25 54  1  0
 25 55  1  0
 26 56  1  0
 26 57  1  0
 28 58  1  0
 30 59  1  0
 30 60  1  0
 31 61  1  0
 31 62  1  0
 32 63  1  0
 33 64  1  0
 33 65  1  0
 34 66  1  0
 34 67  1  0
M  END
>  <UniqueID>  (35) 
35

>  <SMILES>  (35) 
CN1CCN(S(=O)(=O)c2cccc(S(=O)(=O)NC(C)(C)CC(=O)N3CCN(C=O)CC3)c2)CC1

>  <Energy>  (35) 
80.35989848175748

>  <Genealogy>  (35) 
CN1CCN(S(=O)(=O)c2cccc(S(=O)(=O)NC(C)(C)CC(=O)N3CCN(C=O)CC3)c2)CC1 (3D coordinates assigned)
CN1CCN(S(=O)(=O)c2cccc(S(=O)(=O)NC(C)(C)CC(=O)N3CCN(C=O)CC3)c2)CC1 (nonaromatic ring conformer: 80.35989848175748 kcal/mol)

>  <smiles>  (35) 
CN1CCN(S(=O)(=O)c2cccc(S(=O)(=O)NC(C)(C)CC(=O)N3CCN(C=O)CC3)c2)CC1

>  <score_type>  (35) 
oracle

>  <origin>  (35) 
adg

>  <m_score__min__energy>  (35) 
-11.17

>  <m_primary>  (35) 
energy

$$$$
35:0
     RDKit          3D

 45 47  0  0  0  0  0  0  0  0999 V2000
   57.3220   21.1300   42.9970 C   0  0  0  0  0  0  0  0  0  0  0  0
   55.9780   21.4650   43.2560 O   0  0  0  0  0  0  0  0  0  0  0  0
   55.9050   22.2380   44.4370 C   0  0  0  0  0  0  0  0  0  0  0  0
   55.5390   23.6890   44.0790 C   0  0  1  0  0  0  0  0  0  0  0  0
   54.7800   24.3680   45.2280 C   0  0  0  0  0  0  0  0  0  0  0  0
   55.8080   25.2070   45.9730 C   0  0  0  0  0  0  0  0  0  0  0  0
   56.9190   25.3760   45.0490 N   0  0  0  0  0  0  0  0  0  0  0  0
   58.1390   26.0620   45.3870 C   0  0  0  0  0  0  0  0  0  0  0  0
   59.1740   25.3940   45.6590 O   0  0  0  0  0  0  0  0  0  0  0  0
   58.2120   27.5350   45.4320 C   0  0  0  0  0  0  0  0  0  0  0  0
   59.4370   28.1930   45.6060 C   0  0  0  0  0  0  0  0  0  0  0  0
   59.4820   29.5870   45.6650 C   0  0  0  0  0  0  0  0  0  0  0  0
   58.2890   30.3190   45.5780 C   0  0  0  0  0  0  0  0  0  0  0  0
   58.2960   31.7980   45.6120 C   0  0  0  0  0  0  0  0  0  0  0  0
   58.5800   32.4390   46.8260 C   0  0  0  0  0  0  0  0  0  0  0  0
   58.5720   33.8280   46.9080 C   0  0  0  0  0  0  0  0  0  0  0  0
   58.2830   34.5780   45.7700 C   0  0  0  0  0  0  0  0  0  0  0  0
   58.0270   33.9570   44.5870 N   0  0  0  0  0  0  0  0  0  0  0  0
   58.0460   32.5960   44.4660 C   0  0  0  0  0  0  0  0  0  0  0  0
   57.7960   31.9840   43.1120 C   0  0  0  0  0  0  0  0  0  0  0  0
   57.1090   29.6610   45.4130 N   0  0  0  0  0  0  0  0  0  0  0  0
   57.0420   28.3050   45.3510 C   0  0  0  0  0  0  0  0  0  0  0  0
   56.7860   24.5540   43.8570 C   0  0  0  0  0  0  0  0  0  0  0  0
   57.8567   20.9967   43.9490 H   0  0  0  0  0  0  0  0  0  0  0  0
   57.3620   20.1944   42.4199 H   0  0  0  0  0  0  0  0  0  0  0  0
   57.7965   21.9374   42.4199 H   0  0  0  0  0  0  0  0  0  0  0  0
   55.1355   21.8193   45.1022 H   0  0  0  0  0  0  0  0  0  0  0  0
   56.8795   22.2210   44.9469 H   0  0  0  0  0  0  0  0  0  0  0  0
   54.9308   23.6199   43.1650 H   0  0  0  0  0  0  0  0  0  0  0  0
   53.9792   25.0090   44.8307 H   0  0  0  0  0  0  0  0  0  0  0  0
   54.3075   23.6282   45.8909 H   0  0  0  0  0  0  0  0  0  0  0  0
   55.3822   26.1843   46.2443 H   0  0  0  0  0  0  0  0  0  0  0  0
   56.1266   24.7241   46.9086 H   0  0  0  0  0  0  0  0  0  0  0  0
   60.3652   27.6097   45.6963 H   0  0  0  0  0  0  0  0  0  0  0  0
   60.4448   30.1067   45.7787 H   0  0  0  0  0  0  0  0  0  0  0  0
   58.8106   31.8401   47.7194 H   0  0  0  0  0  0  0  0  0  0  0  0
   58.7918   34.3291   47.8622 H   0  0  0  0  0  0  0  0  0  0  0  0
   58.2617   35.6762   45.8283 H   0  0  0  0  0  0  0  0  0  0  0  0
   57.8230   34.5510   43.7520 H   0  0  0  0  0  0  0  0  0  0  0  0
   57.3827   30.9723   43.2375 H   0  0  0  0  0  0  0  0  0  0  0  0
   57.0799   32.6061   42.5550 H   0  0  0  0  0  0  0  0  0  0  0  0
   58.7428   31.9268   42.5550 H   0  0  0  0  0  0  0  0  0  0  0  0
   56.0667   27.8093   45.2369 H   0  0  0  0  0  0  0  0  0  0  0  0
   56.6582   25.1882   42.9674 H   0  0  0  0  0  0  0  0  0  0  0  0
   57.6810   23.9366   43.6906 H   0  0  0  0  0  0  0  0  0  0  0  0
  1  2  1  0
  2  3  1  0
  3  4  1  0
  4  5  1  0
  5  6  1  0
  6  7  1  0
  7  8  1  0
  8  9  2  0
  8 10  1  0
 10 11  2  0
 11 12  1  0
 12 13  2  0
 13 14  1  0
 14 15  2  0
 15 16  1  0
 16 17  2  0
 17 18  1  0
 18 19  2  0
 19 20  1  0
 13 21  1  0
 21 22  2  0
  7 23  1  0
 23  4  1  0
 22 10  1  0
 19 14  1  0
  1 24  1  0
  1 25  1  0
  1 26  1  0
  3 27  1  0
  3 28  1  0
  4 29  1  6
  5 30  1  0
  5 31  1  0
  6 32  1  0
  6 33  1  0
 11 34  1  0
 12 35  1  0
 15 36  1  0
 16 37  1  0
 17 38  1  0
 18 39  1  0
 20 40  1  0
 20 41  1  0
 20 42  1  0
 22 43  1  0
 23 44  1  0
 23 45  1  0
M  CHG  1  18   1
M  END
>  <UniqueID>  (36) 
36

>  <SMILES>  (36) 
COC[C@H]1CCN(C(=O)c2ccc(-c3ccc[nH+]c3C)nc2)C1

>  <Energy>  (36) 
58.78972092417412

>  <Genealogy>  (36) 
COCC1CCN(C(=O)c2ccc(-c3ccc[nH+]c3C)nc2)C1 (protonated)
COC[C@H]1CCN(C(=O)c2ccc(-c3ccc[nH+]c3C)nc2)C1 (chirality)
COC[C@H]1CCN(C(=O)c2ccc(-c3ccc[nH+]c3C)nc2)C1 (3D coordinates assigned)
COC[C@H]1CCN(C(=O)c2ccc(-c3ccc[nH+]c3C)nc2)C1 (nonaromatic ring conformer: 58.78972092417412 kcal/mol)

>  <smiles>  (36) 
COCC1CCN(C(=O)c2ccc(-c3cccnc3C)nc2)C1

>  <score_type>  (36) 
oracle

>  <origin>  (36) 
adg

>  <m_score__min__energy>  (36) 
-6.3200000000000003

>  <m_primary>  (36) 
energy

$$$$
36:0
     RDKit          3D

 68 71  0  0  0  0  0  0  0  0999 V2000
   59.3400   27.2860   45.2800 C   0  0  0  0  0  0  0  0  0  0  0  0
   58.5290   28.3300   45.0730 C   0  0  0  0  0  0  0  0  0  0  0  0
   57.3950   28.2110   44.3500 N   0  0  0  0  0  0  0  0  0  0  0  0
   56.9170   29.4500   44.1430 C   0  0  0  0  0  0  0  0  0  0  0  0
   55.6170   29.7250   43.4500 C   0  0  0  0  0  0  0  0  0  0  0  0
   57.7270   30.3860   44.7660 C   0  0  0  0  0  0  0  0  0  0  0  0
   57.4650   31.8360   44.8310 C   0  0  0  0  0  0  0  0  0  0  0  0
   56.2750   32.2450   44.8930 O   0  0  0  0  0  0  0  0  0  0  0  0
   58.5550   32.7690   44.8620 N   0  0  0  0  0  0  0  0  0  0  0  0
   58.3640   34.2090   45.0440 C   0  0  0  0  0  0  0  0  0  0  0  0
   59.4640   34.8150   45.9270 C   0  0  0  0  0  0  0  0  0  0  0  0
   59.8090   33.9150   47.1240 C   0  0  0  0  0  0  0  0  0  0  0  0
   61.2080   34.1300   47.5480 N   0  0  0  0  0  0  0  0  0  0  0  0
   62.0870   33.0870   46.9660 C   0  0  0  0  0  0  0  0  0  0  0  0
   63.4760   33.0870   47.6110 C   0  0  0  0  0  0  0  0  0  0  0  0
   63.3560   32.9190   49.0600 N   0  0  0  0  0  0  0  0  0  0  0  0
   64.4670   32.4170   49.8110 C   0  0  0  0  0  0  0  0  0  0  0  0
   65.6990   33.0820   49.7520 C   0  0  0  0  0  0  0  0  0  0  0  0
   66.7880   32.6040   50.4830 C   0  0  0  0  0  0  0  0  0  0  0  0
   66.6540   31.4600   51.2710 C   0  0  0  0  0  0  0  0  0  0  0  0
   65.4290   30.7890   51.3310 C   0  0  0  0  0  0  0  0  0  0  0  0
   64.3220   31.2630   50.6000 C   0  0  0  0  0  0  0  0  0  0  0  0
   63.0740   30.6200   50.6280 O   0  0  0  0  0  0  0  0  0  0  0  0
   62.7060   29.6160   51.5690 C   0  0  0  0  0  0  0  0  0  0  0  0
   62.0680   33.1330   49.7170 C   0  0  0  0  0  0  0  0  0  0  0  0
   61.3250   34.2850   49.0270 C   0  0  0  0  0  0  0  0  0  0  0  0
   58.7510   29.6790   45.3980 C   0  0  0  0  0  0  0  0  0  0  0  0
   59.7330   30.2480   46.1290 C   0  0  0  0  0  0  0  0  0  0  0  0
   59.6880   30.5030   47.5770 C   0  0  0  0  0  0  0  0  0  0  0  0
   60.4980   29.9260   48.5410 C   0  0  0  0  0  0  0  0  0  0  0  0
   60.0450   30.4090   49.7500 C   0  0  0  0  0  0  0  0  0  0  0  0
   58.9820   31.2350   49.4470 C   0  0  0  0  0  0  0  0  0  0  0  0
   58.1450   31.9700   50.4380 C   0  0  0  0  0  0  0  0  0  0  0  0
   58.7850   31.2650   48.1490 O   0  0  0  0  0  0  0  0  0  0  0  0
   60.2578   27.4116   45.8732 H   0  0  0  0  0  0  0  0  0  0  0  0
   59.0889   26.3021   44.8570 H   0  0  0  0  0  0  0  0  0  0  0  0
   56.9840   27.3250   43.9770 H   0  0  0  0  0  0  0  0  0  0  0  0
   54.8297   29.8915   44.2000 H   0  0  0  0  0  0  0  0  0  0  0  0
   55.7194   30.6214   42.8207 H   0  0  0  0  0  0  0  0  0  0  0  0
   55.3476   28.8640   42.8207 H   0  0  0  0  0  0  0  0  0  0  0  0
   59.5330   32.4090   44.7920 H   0  0  0  0  0  0  0  0  0  0  0  0
   58.3849   34.6996   44.0597 H   0  0  0  0  0  0  0  0  0  0  0  0
   57.3955   34.3688   45.5405 H   0  0  0  0  0  0  0  0  0  0  0  0
   60.3690   34.9570   45.3181 H   0  0  0  0  0  0  0  0  0  0  0  0
   59.0920   35.7725   46.3205 H   0  0  0  0  0  0  0  0  0  0  0  0
   59.1365   34.1530   47.9613 H   0  0  0  0  0  0  0  0  0  0  0  0
   59.6858   32.8636   46.8252 H   0  0  0  0  0  0  0  0  0  0  0  0
   61.6222   32.1023   47.1221 H   0  0  0  0  0  0  0  0  0  0  0  0
   62.2085   33.3022   45.8941 H   0  0  0  0  0  0  0  0  0  0  0  0
   64.0700   32.2592   47.1964 H   0  0  0  0  0  0  0  0  0  0  0  0
   63.9722   34.0455   47.3989 H   0  0  0  0  0  0  0  0  0  0  0  0
   65.8082   33.9819   49.1288 H   0  0  0  0  0  0  0  0  0  0  0  0
   67.7531   33.1298   50.4378 H   0  0  0  0  0  0  0  0  0  0  0  0
   67.5138   31.0856   51.8459 H   0  0  0  0  0  0  0  0  0  0  0  0
   65.3291   29.8866   51.9520 H   0  0  0  0  0  0  0  0  0  0  0  0
   62.8471   30.0008   52.5898 H   0  0  0  0  0  0  0  0  0  0  0  0
   61.6501   29.3450   51.4220 H   0  0  0  0  0  0  0  0  0  0  0  0
   63.3367   28.7268   51.4220 H   0  0  0  0  0  0  0  0  0  0  0  0
   61.4651   32.2154   49.6491 H   0  0  0  0  0  0  0  0  0  0  0  0
   62.2342   33.3861   50.7745 H   0  0  0  0  0  0  0  0  0  0  0  0
   60.3114   34.3458   49.4500 H   0  0  0  0  0  0  0  0  0  0  0  0
   61.9134   35.1969   49.2065 H   0  0  0  0  0  0  0  0  0  0  0  0
   60.6470   30.5472   45.5950 H   0  0  0  0  0  0  0  0  0  0  0  0
   61.3309   29.2267   48.3759 H   0  0  0  0  0  0  0  0  0  0  0  0
   60.4472   30.1830   50.7486 H   0  0  0  0  0  0  0  0  0  0  0  0
   58.4571   31.6959   51.4565 H   0  0  0  0  0  0  0  0  0  0  0  0
   58.2728   33.0531   50.2943 H   0  0  0  0  0  0  0  0  0  0  0  0
   57.0875   31.7033   50.2943 H   0  0  0  0  0  0  0  0  0  0  0  0
  1  2  2  0
  2  3  1  0
  3  4  1  0
  4  5  1  0
  4  6  2  0
  6  7  1  0
  7  8  2  0
  7  9  1  0
  9 10  1  0
 10 11  1  0
 11 12  1  0
 12 13  1  0
 13 14  1  0
 14 15  1  0
 15 16  1  0
 16 17  1  0
 17 18  2  0
 18 19  1  0
 19 20  2  0
 20 21  1  0
 21 22  2  0
 22 23  1  0
 23 24  1  0
 16 25  1  0
 25 26  1  0
  6 27  1  0
 27 28  2  3
 28 29  1  0
 29 30  2  0
 30 31  1  0
 31 32  2  0
 32 33  1  0
 32 34  1  0
 27  2  1  0
 34 29  1  0
 26 13  1  0
 22 17  1  0
  1 35  1  0
  1 36  1  0
  3 37  1  0
  5 38  1  0
  5 39  1  0
  5 40  1  0
  9 41  1  0
 10 42  1  0
 10 43  1  0
 11 44  1  0
 11 45  1  0
 12 46  1  0
 12 47  1  0
 14 48  1  0
 14 49  1  0
 15 50  1  0
 15 51  1  0
 18 52  1  0
 19 53  1  0
 20 54  1  0
 21 55  1  0
 24 56  1  0
 24 57  1  0
 24 58  1  0
 25 59  1  0
 25 60  1  0
 26 61  1  0
 26 62  1  0
 28 63  1  0
 30 64  1  0
 31 65  1  0
 33 66  1  0
 33 67  1  0
 33 68  1  0
M  END
>  <UniqueID>  (37) 
37

>  <SMILES>  (37) 
C=c1[nH]c(C)c(C(=O)NCCCN2CCN(c3ccccc3OC)CC2)c1=Cc1ccc(C)o1

>  <Energy>  (37) 
144.10138956977778

>  <Genealogy>  (37) 
C=c1[nH]c(C)c(C(=O)NCCCN2CCN(c3ccccc3OC)CC2)c1=Cc1ccc(C)o1 (3D coordinates assigned)
C=c1[nH]c(C)c(C(=O)NCCCN2CCN(c3ccccc3OC)CC2)c1=Cc1ccc(C)o1 (nonaromatic ring conformer: 144.10138956977778 kcal/mol)

>  <smiles>  (37) 
C=c1[nH]c(C)c(C(=O)NCCCN2CCN(c3ccccc3OC)CC2)c1=Cc1ccc(C)o1

>  <score_type>  (37) 
oracle

>  <origin>  (37) 
adg

>  <m_score__min__energy>  (37) 
-9.8000000000000007

>  <m_primary>  (37) 
energy

$$$$
37:0
     RDKit          3D

 49 51  0  0  0  0  0  0  0  0999 V2000
   55.5540   26.2730   46.4720 O   0  0  0  0  0  0  0  0  0  0  0  0
   56.7050   26.7300   46.2260 C   0  0  0  0  0  0  0  0  0  0  0  0
   57.7720   26.6520   47.2700 C   0  0  0  0  0  0  0  0  0  0  0  0
   58.4780   27.9290   47.3690 N   0  0  0  0  0  0  0  0  0  0  0  0
   59.6590   28.0930   48.1710 C   0  0  0  0  0  0  0  0  0  0  0  0
   60.0690   27.1360   48.8840 O   0  0  0  0  0  0  0  0  0  0  0  0
   60.3950   29.3780   48.1940 C   0  0  0  0  0  0  0  0  0  0  0  0
   60.8830   29.8870   49.4100 C   0  0  0  0  0  0  0  0  0  0  0  0
   61.5800   31.0970   49.4460 C   0  0  0  0  0  0  0  0  0  0  0  0
   61.8120   31.8120   48.2640 C   0  0  0  0  0  0  0  0  0  0  0  0
   62.7150   33.3260   48.2890 S   0  0  0  0  0  0  0  0  0  0  0  0
   63.0980   33.7260   46.8910 O   0  0  0  0  0  0  0  0  0  0  0  0
   63.9740   33.1200   49.0830 O   0  0  0  0  0  0  0  0  0  0  0  0
   61.7860   34.6020   49.0260 N   0  0  0  0  0  0  0  0  0  0  0  0
   60.3920   34.2010   49.2420 C   0  0  0  0  0  0  0  0  0  0  0  0
   59.6260   34.1630   47.9460 C   0  0  0  0  0  0  0  0  0  0  0  0
   60.0140   34.9720   46.8630 C   0  0  0  0  0  0  0  0  0  0  0  0
   59.2880   34.9440   45.6670 C   0  0  0  0  0  0  0  0  0  0  0  0
   58.1780   34.1060   45.5420 C   0  0  0  0  0  0  0  0  0  0  0  0
   57.7910   33.2910   46.6100 C   0  0  0  0  0  0  0  0  0  0  0  0
   58.5130   33.3160   47.8090 C   0  0  0  0  0  0  0  0  0  0  0  0
   61.3420   31.3050   47.0460 C   0  0  0  0  0  0  0  0  0  0  0  0
   60.6390   30.0970   47.0100 C   0  0  0  0  0  0  0  0  0  0  0  0
   57.0170   27.2560   44.9330 N   0  0  0  0  0  0  0  0  0  0  0  0
   57.1430   28.6510   44.6340 C   0  0  0  0  0  0  0  0  0  0  0  0
   55.9740   29.4050   44.4460 C   0  0  0  0  0  0  0  0  0  0  0  0
   56.0520   30.7680   44.1450 C   0  0  0  0  0  0  0  0  0  0  0  0
   57.2990   31.3850   44.0140 C   0  0  0  0  0  0  0  0  0  0  0  0
   58.4690   30.6370   44.1680 C   0  0  0  0  0  0  0  0  0  0  0  0
   58.4020   29.2690   44.4670 C   0  0  0  0  0  0  0  0  0  0  0  0
   59.9020   28.3490   44.5140 Cl  0  0  0  0  0  0  0  0  0  0  0  0
   57.3131   26.4146   48.2411 H   0  0  0  0  0  0  0  0  0  0  0  0
   58.4897   25.8665   46.9909 H   0  0  0  0  0  0  0  0  0  0  0  0
   58.0680   28.7510   46.8720 H   0  0  0  0  0  0  0  0  0  0  0  0
   60.7145   29.3273   50.3418 H   0  0  0  0  0  0  0  0  0  0  0  0
   61.9478   31.4896   50.4055 H   0  0  0  0  0  0  0  0  0  0  0  0
   60.3737   33.2003   49.6984 H   0  0  0  0  0  0  0  0  0  0  0  0
   59.9170   34.9398   49.9043 H   0  0  0  0  0  0  0  0  0  0  0  0
   60.8912   35.6291   46.9564 H   0  0  0  0  0  0  0  0  0  0  0  0
   59.5920   35.5827   44.8246 H   0  0  0  0  0  0  0  0  0  0  0  0
   57.6073   34.0871   44.6018 H   0  0  0  0  0  0  0  0  0  0  0  0
   56.9182   32.6294   46.5080 H   0  0  0  0  0  0  0  0  0  0  0  0
   58.2083   32.6709   48.6463 H   0  0  0  0  0  0  0  0  0  0  0  0
   61.5267   31.8594   46.1140 H   0  0  0  0  0  0  0  0  0  0  0  0
   60.2741   29.7061   46.0487 H   0  0  0  0  0  0  0  0  0  0  0  0
   54.9906   28.9205   44.5361 H   0  0  0  0  0  0  0  0  0  0  0  0
   55.1314   31.3550   44.0112 H   0  0  0  0  0  0  0  0  0  0  0  0
   57.3595   32.4602   43.7895 H   0  0  0  0  0  0  0  0  0  0  0  0
   59.4485   31.1244   44.0540 H   0  0  0  0  0  0  0  0  0  0  0  0
  1  2  2  0
  2  3  1  0
  3  4  1  0
  4  5  1  0
  5  6  2  0
  5  7  1  0
  7  8  2  0
  8  9  1  0
  9 10  2  0
 10 11  1  0
 11 12  2  0
 11 13  2  0
 11 14  1  0
 14 15  1  0
 15 16  1  0
 16 17  2  0
 17 18  1  0
 18 19  2  0
 19 20  1  0
 20 21  2  0
 10 22  1  0
 22 23  2  0
  2 24  1  0
 24 25  1  0
 25 26  2  0
 26 27  1  0
 27 28  2  0
 28 29  1  0
 29 30  2  0
 30 31  1  0
 23  7  1  0
 30 25  1  0
 21 16  1  0
  3 32  1  0
  3 33  1  0
  4 34  1  0
  8 35  1  0
  9 36  1  0
 15 37  1  0
 15 38  1  0
 17 39  1  0
 18 40  1  0
 19 41  1  0
 20 42  1  0
 21 43  1  0
 22 44  1  0
 23 45  1  0
 26 46  1  0
 27 47  1  0
 28 48  1  0
 29 49  1  0
M  CHG  2  14  -1  24  -1
M  END
>  <UniqueID>  (38) 
38

>  <SMILES>  (38) 
O=C(CNC(=O)c1ccc(S(=O)(=O)[N-]Cc2ccccc2)cc1)[N-]c1ccccc1Cl

>  <Energy>  (38) 
56.42138428759527

>  <Genealogy>  (38) 
O=C(CNC(=O)c1ccc(S(=O)(=O)[N-]Cc2ccccc2)cc1)[N-]c1ccccc1Cl (protonated)
O=C(CNC(=O)c1ccc(S(=O)(=O)[N-]Cc2ccccc2)cc1)[N-]c1ccccc1Cl (3D coordinates assigned)
O=C(CNC(=O)c1ccc(S(=O)(=O)[N-]Cc2ccccc2)cc1)[N-]c1ccccc1Cl (optimized conformer: 56.42138428759527 kcal/mol)

>  <smiles>  (38) 
O=C(CNC(=O)c1ccc(S(=O)(=O)NCc2ccccc2)cc1)Nc1ccccc1Cl

>  <score_type>  (38) 
oracle

>  <origin>  (38) 
adg

>  <m_score__min__energy>  (38) 
-11.890000000000001

>  <m_primary>  (38) 
energy

$$$$
38:0
     RDKit          3D

 67 71  0  0  0  0  0  0  0  0999 V2000
   54.8153   28.0018   54.0894 H   0  0  0  0  0  0  0  0  0  0  0  0
   54.3800   28.7080   53.3670 C   0  0  0  0  0  0  0  0  0  0  0  0
   53.3900   28.5085   52.9310 H   0  0  0  0  0  0  0  0  0  0  0  0
   55.0580   29.8150   53.0170 C   0  0  0  0  0  0  0  0  0  0  0  0
   54.6170   30.7880   52.1130 C   0  0  0  0  0  0  0  0  0  0  0  0
   53.4220   30.8480   51.4920 C   0  0  0  0  0  0  0  0  0  0  0  0
   53.3243   30.3618   50.5101 H   0  0  0  0  0  0  0  0  0  0  0  0
   52.2390   31.5260   52.0500 C   0  0  0  0  0  0  0  0  0  0  0  0
   51.8050   31.3360   53.3090 N   0  0  0  0  0  0  0  0  0  0  0  0
   50.6660   32.0610   53.3590 C   0  0  0  0  0  0  0  0  0  0  0  0
   49.9560   32.1370   54.3940 O   0  0  0  0  0  0  0  0  0  0  0  0
   50.3370   32.6820   52.2060 N   0  0  0  0  0  0  0  0  0  0  0  0
   51.3360   32.3260   51.3840 C   0  0  0  0  0  0  0  0  0  0  0  0
   51.3950   32.6840   50.0430 O   0  0  0  0  0  0  0  0  0  0  0  0
   55.6340   31.7230   52.0190 C   0  0  0  0  0  0  0  0  0  0  0  0
   55.6319   32.6351   51.4042 H   0  0  0  0  0  0  0  0  0  0  0  0
   56.6500   31.2900   52.8450 C   0  0  0  0  0  0  0  0  0  0  0  0
   57.9210   32.0640   53.0860 C   0  0  0  0  0  0  0  0  0  0  0  0
   57.6782   33.0072   53.5973 H   0  0  0  0  0  0  0  0  0  0  0  0
   58.5937   31.4555   53.7082 H   0  0  0  0  0  0  0  0  0  0  0  0
   58.6200   32.3750   51.7660 C   0  0  0  0  0  0  0  0  0  0  0  0
   59.6078   32.8145   51.9688 H   0  0  0  0  0  0  0  0  0  0  0  0
   58.7432   31.4468   51.1887 H   0  0  0  0  0  0  0  0  0  0  0  0
   58.0130   33.0880   51.1887 H   0  0  0  0  0  0  0  0  0  0  0  0
   56.3010   30.1380   53.4690 N   0  0  0  0  0  0  0  0  0  0  0  0
   57.1590   29.3750   54.3920 C   0  0  0  0  0  0  0  0  0  0  0  0
   57.6621   30.0732   55.0771 H   0  0  0  0  0  0  0  0  0  0  0  0
   56.5305   28.6706   54.9567 H   0  0  0  0  0  0  0  0  0  0  0  0
   58.2010   28.5910   53.6310 C   0  0  0  0  0  0  0  0  0  0  0  0
   58.5440   27.2910   54.0370 C   0  0  0  0  0  0  0  0  0  0  0  0
   58.0384   26.8355   54.9012 H   0  0  0  0  0  0  0  0  0  0  0  0
   59.5240   26.5750   53.3480 C   0  0  0  0  0  0  0  0  0  0  0  0
   59.7894   25.5583   53.6733 H   0  0  0  0  0  0  0  0  0  0  0  0
   60.1690   27.1430   52.2480 C   0  0  0  0  0  0  0  0  0  0  0  0
   60.9396   26.5710   51.7104 H   0  0  0  0  0  0  0  0  0  0  0  0
   59.8390   28.4430   51.8230 C   0  0  0  0  0  0  0  0  0  0  0  0
   60.5560   29.0690   50.6900 C   0  0  0  0  0  0  0  0  0  0  0  0
   61.6280   29.6970   50.8990 O   0  0  0  0  0  0  0  0  0  0  0  0
   60.0680   28.9350   49.3450 N   0  0  0  0  0  0  0  0  0  0  0  0
   60.1280   30.0840   48.4340 C   0  0  0  0  0  0  0  0  0  0  0  0
   60.0912   31.0150   49.0187 H   0  0  0  0  0  0  0  0  0  0  0  0
   61.0652   30.0414   47.8598 H   0  0  0  0  0  0  0  0  0  0  0  0
   58.9430   30.0460   47.4660 C   0  0  0  0  0  0  0  0  0  0  0  0
   58.0178   30.2872   48.0100 H   0  0  0  0  0  0  0  0  0  0  0  0
   59.1013   30.7830   46.6649 H   0  0  0  0  0  0  0  0  0  0  0  0
   58.8300   28.7050   46.8800 N   0  0  0  0  0  0  0  0  0  0  0  0
   59.0100   28.4960   45.4700 C   0  0  0  0  0  0  0  0  0  0  0  0
   59.8240   27.6160   45.0770 O   0  0  0  0  0  0  0  0  0  0  0  0
   58.2380   29.2780   44.4710 C   0  0  0  0  0  0  0  0  0  0  0  0
   58.3760   30.6710   44.3830 C   0  0  0  0  0  0  0  0  0  0  0  0
   59.0822   31.1955   45.0435 H   0  0  0  0  0  0  0  0  0  0  0  0
   57.6190   31.3930   43.4590 C   0  0  0  0  0  0  0  0  0  0  0  0
   57.7328   32.4842   43.3799 H   0  0  0  0  0  0  0  0  0  0  0  0
   56.7170   30.7180   42.6370 C   0  0  0  0  0  0  0  0  0  0  0  0
   56.1122   31.2784   41.9089 H   0  0  0  0  0  0  0  0  0  0  0  0
   56.5840   29.3690   42.7340 N   0  0  0  0  0  0  0  0  0  0  0  0
   55.9020   28.8790   42.1140 H   0  0  0  0  0  0  0  0  0  0  0  0
   57.3170   28.6430   43.6210 C   0  0  0  0  0  0  0  0  0  0  0  0
   57.1877   27.5519   43.6730 H   0  0  0  0  0  0  0  0  0  0  0  0
   58.7430   27.5650   47.7960 C   0  0  0  0  0  0  0  0  0  0  0  0
   57.8039   27.6240   48.3657 H   0  0  0  0  0  0  0  0  0  0  0  0
   58.7650   26.6295   47.2178 H   0  0  0  0  0  0  0  0  0  0  0  0
   59.9260   27.5920   48.7620 C   0  0  0  0  0  0  0  0  0  0  0  0
   59.7561   26.8615   49.5667 H   0  0  0  0  0  0  0  0  0  0  0  0
   60.8454   27.3366   48.2147 H   0  0  0  0  0  0  0  0  0  0  0  0
   58.8320   29.1490   52.5060 C   0  0  0  0  0  0  0  0  0  0  0  0
   58.5353   30.1486   52.1557 H   0  0  0  0  0  0  0  0  0  0  0  0
  1  2  1  0
  2  3  1  0
  2  4  2  0
  4  5  1  0
  5  6  2  0
  6  7  1  0
  6  8  1  0
  8  9  1  0
  9 10  1  0
 10 11  2  0
 10 12  1  0
 12 13  1  0
 13 14  1  0
  5 15  1  0
 15 16  1  0
 15 17  2  0
 17 18  1  0
 18 19  1  0
 18 20  1  0
 18 21  1  0
 21 22  1  0
 21 23  1  0
 21 24  1  0
 17 25  1  0
 25 26  1  0
 26 27  1  0
 26 28  1  0
 26 29  1  0
 29 30  2  0
 30 31  1  0
 30 32  1  0
 32 33  1  0
 32 34  2  0
 34 35  1  0
 34 36  1  0
 36 37  1  0
 37 38  2  0
 37 39  1  0
 39 40  1  0
 40 41  1  0
 40 42  1  0
 40 43  1  0
 43 44  1  0
 43 45  1  0
 43 46  1  0
 46 47  1  0
 47 48  2  0
 47 49  1  0
 49 50  2  0
 50 51  1  0
 50 52  1  0
 52 53  1  0
 52 54  2  0
 54 55  1  0
 54 56  1  0
 56 57  1  0
 56 58  2  0
 58 59  1  0
 46 60  1  0
 60 61  1  0
 60 62  1  0
 60 63  1  0
 63 64  1  0
 63 65  1  0
 36 66  2  0
 66 67  1  0
 25  4  1  0
 66 29  1  0
 13  8  2  0
 63 39  1  0
 58 49  1  0
M  CHG  4   9  -1  12  -1  14  -1  56   1
M  END
>  <UniqueID>  (39) 
39

>  <SMILES>  (39) 
C=c1/c(=C/c2[n-]c(=O)[n-]c2[O-])cc(CC)n1Cc1cccc(C(=O)N2CCN(C(=O)c3ccc[nH+]c3)CC2)c1

>  <Energy>  (39) 
142.97535727199173

>  <Genealogy>  (39) 
C=c1c(=Cc2[n-]c(=O)[n-]c2[O-])cc(CC)n1Cc1cccc(C(=O)N2CCN(C(=O)c3ccc[nH+]c3)CC2)c1 (protonated)
C=c1/c(=C/c2[n-]c(=O)[n-]c2[O-])cc(CC)n1Cc1cccc(C(=O)N2CCN(C(=O)c3ccc[nH+]c3)CC2)c1 (cis-trans isomerization)
C=c1/c(=C/c2[n-]c(=O)[n-]c2[O-])cc(CC)n1Cc1cccc(C(=O)N2CCN(C(=O)c3ccc[nH+]c3)CC2)c1 (3D coordinates assigned)
C=c1/c(=C/c2[n-]c(=O)[n-]c2[O-])cc(CC)n1Cc1cccc(C(=O)N2CCN(C(=O)c3ccc[nH+]c3)CC2)c1 (nonaromatic ring conformer: 142.97535727199173 kcal/mol)

>  <smiles>  (39) 
C=c1c(=Cc2[nH]c(=O)[nH]c2O)cc(CC)n1Cc1cccc(C(=O)N2CCN(C(=O)c3cccnc3)CC2)c1

>  <score_type>  (39) 
oracle

>  <origin>  (39) 
adg

>  <m_score__min__energy>  (39) 
-16.989999999999998

>  <m_primary>  (39) 
energy

$$$$
39:0
     RDKit          3D

 38 40  0  0  0  0  0  0  0  0999 V2000
   58.4560   26.4140   45.9280 C   0  0  0  0  0  0  0  0  0  0  0  0
   57.9340   27.5640   45.4990 C   0  0  0  0  0  0  0  0  0  0  0  0
   58.8520   28.8240   44.8660 S   0  0  0  0  0  0  0  0  0  0  0  0
   57.5210   29.8270   44.5820 C   0  0  0  0  0  0  0  0  0  0  0  0
   57.5390   31.0760   44.0880 C   0  0  0  0  0  0  0  0  0  0  0  0
   58.0480   32.2540   44.8210 C   0  0  0  0  0  0  0  0  0  0  0  0
   57.8260   33.5330   44.2920 C   0  0  0  0  0  0  0  0  0  0  0  0
   58.3060   34.6650   44.9570 C   0  0  0  0  0  0  0  0  0  0  0  0
   59.0360   34.5270   46.1390 C   0  0  0  0  0  0  0  0  0  0  0  0
   59.3140   33.2510   46.6550 C   0  0  0  0  0  0  0  0  0  0  0  0
   60.0950   33.1140   47.9010 C   0  0  0  0  0  0  0  0  0  0  0  0
   59.4900   33.1430   49.0070 O   0  0  0  0  0  0  0  0  0  0  0  0
   61.5270   32.9640   47.8820 N   0  0  0  0  0  0  0  0  0  0  0  0
   62.3810   33.4580   46.8120 C   0  0  0  0  0  0  0  0  0  0  0  0
   63.7850   33.5100   47.4000 C   0  0  0  0  0  0  0  0  0  0  0  0
   63.7470   32.6160   48.6350 C   0  0  0  0  0  0  0  0  0  0  0  0
   62.2840   32.5540   49.0520 C   0  0  0  0  0  0  0  0  0  0  0  0
   58.8100   32.1180   45.9960 C   0  0  0  0  0  0  0  0  0  0  0  0
   56.3820   29.1370   45.0090 C   0  0  0  0  0  0  0  0  0  0  0  0
   55.2200   29.6210   44.9440 O   0  0  0  0  0  0  0  0  0  0  0  0
   56.6140   27.8920   45.5080 N   0  0  0  0  0  0  0  0  0  0  0  0
   55.5870   27.0900   45.9670 O   0  0  0  0  0  0  0  0  0  0  0  0
   57.7998   25.6288   46.3317 H   0  0  0  0  0  0  0  0  0  0  0  0
   59.5427   26.2508   45.8781 H   0  0  0  0  0  0  0  0  0  0  0  0
   57.1494   31.2322   43.0713 H   0  0  0  0  0  0  0  0  0  0  0  0
   57.2713   33.6464   43.3489 H   0  0  0  0  0  0  0  0  0  0  0  0
   58.1081   35.6668   44.5481 H   0  0  0  0  0  0  0  0  0  0  0  0
   59.3950   35.4219   46.6685 H   0  0  0  0  0  0  0  0  0  0  0  0
   62.3506   32.7752   45.9501 H   0  0  0  0  0  0  0  0  0  0  0  0
   62.0535   34.4445   46.4522 H   0  0  0  0  0  0  0  0  0  0  0  0
   64.5194   33.1307   46.6741 H   0  0  0  0  0  0  0  0  0  0  0  0
   64.0825   34.5386   47.6517 H   0  0  0  0  0  0  0  0  0  0  0  0
   64.1198   31.6100   48.3922 H   0  0  0  0  0  0  0  0  0  0  0  0
   64.3833   33.0094   49.4414 H   0  0  0  0  0  0  0  0  0  0  0  0
   62.0116   31.5297   49.3461 H   0  0  0  0  0  0  0  0  0  0  0  0
   62.0793   33.2020   49.9170 H   0  0  0  0  0  0  0  0  0  0  0  0
   59.0126   31.1158   46.4018 H   0  0  0  0  0  0  0  0  0  0  0  0
   54.7420   27.4660   46.3770 H   0  0  0  0  0  0  0  0  0  0  0  0
  1  2  2  0
  2  3  1  0
  3  4  1  0
  4  5  2  3
  5  6  1  0
  6  7  2  0
  7  8  1  0
  8  9  2  0
  9 10  1  0
 10 11  1  0
 11 12  2  0
 11 13  1  0
 13 14  1  0
 14 15  1  0
 15 16  1  0
 16 17  1  0
 10 18  2  0
  4 19  1  0
 19 20  2  0
 19 21  1  0
 21 22  1  0
 21  2  1  0
 18  6  1  0
 17 13  1  0
  1 23  1  0
  1 24  1  0
  5 25  1  0
  7 26  1  0
  8 27  1  0
  9 28  1  0
 14 29  1  0
 14 30  1  0
 15 31  1  0
 15 32  1  0
 16 33  1  0
 16 34  1  0
 17 35  1  0
 17 36  1  0
 18 37  1  0
 22 38  1  0
M  END
>  <UniqueID>  (40) 
40

>  <SMILES>  (40) 
C=c1sc(=Cc2cccc(C(=O)N3CCCC3)c2)c(=O)n1O

>  <Energy>  (40) 
81.48398007039344

>  <Genealogy>  (40) 
C=c1sc(=Cc2cccc(C(=O)N3CCCC3)c2)c(=O)n1O (3D coordinates assigned)
C=c1sc(=Cc2cccc(C(=O)N3CCCC3)c2)c(=O)n1O (nonaromatic ring conformer: 81.48398007039344 kcal/mol)

>  <smiles>  (40) 
C=c1sc(=Cc2cccc(C(=O)N3CCCC3)c2)c(=O)n1O

>  <score_type>  (40) 
oracle

>  <origin>  (40) 
adg

>  <m_score__min__energy>  (40) 
-9.9700000000000006

>  <m_primary>  (40) 
energy

$$$$
40:0
     RDKit          3D

 44 47  0  0  0  0  0  0  0  0999 V2000
   62.0790   33.4340   52.2980 C   0  0  0  0  0  0  0  0  0  0  0  0
   61.2860   33.2010   51.0850 N   0  0  0  0  0  0  0  0  0  0  0  0
   60.0110   33.6760   51.0260 C   0  0  0  0  0  0  0  0  0  0  0  0
   59.2150   33.3690   49.9750 N   0  0  0  0  0  0  0  0  0  0  0  0
   59.6810   32.6570   48.9210 C   0  0  0  0  0  0  0  0  0  0  0  0
   58.7920   32.2820   47.9140 C   0  0  0  0  0  0  0  0  0  0  0  0
   59.2460   31.4940   46.8520 C   0  0  0  0  0  0  0  0  0  0  0  0
   58.3250   31.0110   45.7910 C   0  0  0  0  0  0  0  0  0  0  0  0
   58.2590   31.6870   44.5610 C   0  0  0  0  0  0  0  0  0  0  0  0
   57.4020   31.2400   43.5540 C   0  0  0  0  0  0  0  0  0  0  0  0
   56.6050   30.1100   43.7490 C   0  0  0  0  0  0  0  0  0  0  0  0
   55.7930   29.7210   42.7380 F   0  0  0  0  0  0  0  0  0  0  0  0
   56.6660   29.4080   44.9720 C   0  0  0  0  0  0  0  0  0  0  0  0
   55.8910   28.2300   45.2460 N   0  0  0  0  0  0  0  0  0  0  0  0
   56.4530   26.7340   45.9190 S   0  0  0  0  0  0  0  0  0  0  0  0
   57.4480   25.9010   44.7030 C   0  0  0  0  0  0  0  0  0  0  0  0
   57.2930   27.0000   47.1360 O   0  0  0  0  0  0  0  0  0  0  0  0
   55.2850   25.8580   46.2740 O   0  0  0  0  0  0  0  0  0  0  0  0
   57.5280   29.8660   45.9780 C   0  0  0  0  0  0  0  0  0  0  0  0
   60.5740   31.2300   46.7510 N   0  0  0  0  0  0  0  0  0  0  0  0
   61.4980   31.6300   47.6660 C   0  0  0  0  0  0  0  0  0  0  0  0
   62.7470   31.5420   47.2910 N   0  0  0  0  0  0  0  0  0  0  0  0
   63.7040   32.5760   46.9060 C   0  0  0  0  0  0  0  0  0  0  0  0
   62.9940   33.8390   46.4450 C   0  0  0  0  0  0  0  0  0  0  0  0
   63.7040   33.8160   47.7860 C   0  0  0  0  0  0  0  0  0  0  0  0
   61.0380   32.2580   48.8710 C   0  0  0  0  0  0  0  0  0  0  0  0
   61.7800   32.4250   50.0680 C   0  0  0  0  0  0  0  0  0  0  0  0
   62.8490   31.7850   50.2530 O   0  0  0  0  0  0  0  0  0  0  0  0
   61.4548   33.2506   53.1850 H   0  0  0  0  0  0  0  0  0  0  0  0
   62.9414   32.7513   52.3090 H   0  0  0  0  0  0  0  0  0  0  0  0
   62.4350   34.4747   52.3090 H   0  0  0  0  0  0  0  0  0  0  0  0
   59.6261   34.3123   51.8365 H   0  0  0  0  0  0  0  0  0  0  0  0
   57.7410   32.6039   47.9550 H   0  0  0  0  0  0  0  0  0  0  0  0
   58.8867   32.5741   44.3906 H   0  0  0  0  0  0  0  0  0  0  0  0
   57.3540   31.7826   42.5984 H   0  0  0  0  0  0  0  0  0  0  0  0
   58.1969   25.2740   45.2090 H   0  0  0  0  0  0  0  0  0  0  0  0
   56.8047   25.2682   44.0739 H   0  0  0  0  0  0  0  0  0  0  0  0
   57.9578   26.6455   44.0739 H   0  0  0  0  0  0  0  0  0  0  0  0
   57.5826   29.3203   46.9315 H   0  0  0  0  0  0  0  0  0  0  0  0
   64.4958   31.9140   46.5256 H   0  0  0  0  0  0  0  0  0  0  0  0
   63.4071   34.4299   45.6142 H   0  0  0  0  0  0  0  0  0  0  0  0
   61.9744   34.0792   46.1092 H   0  0  0  0  0  0  0  0  0  0  0  0
   64.6316   34.3902   47.9269 H   0  0  0  0  0  0  0  0  0  0  0  0
   63.4119   34.0326   48.8242 H   0  0  0  0  0  0  0  0  0  0  0  0
  1  2  1  0
  2  3  1  0
  3  4  2  0
  4  5  1  0
  5  6  1  0
  6  7  2  0
  7  8  1  0
  8  9  2  0
  9 10  1  0
 10 11  2  0
 11 12  1  0
 11 13  1  0
 13 14  1  0
 14 15  1  0
 15 16  1  0
 15 17  2  0
 15 18  2  0
 13 19  2  0
  7 20  1  0
 20 21  1  0
 21 22  2  3
 22 23  1  0
 23 24  1  0
 24 25  1  0
 21 26  1  0
 26 27  1  0
 27 28  2  0
 27  2  1  0
 26  5  2  0
 19  8  1  0
 25 23  1  0
  1 29  1  0
  1 30  1  0
  1 31  1  0
  3 32  1  0
  6 33  1  0
  9 34  1  0
 10 35  1  0
 16 36  1  0
 16 37  1  0
 16 38  1  0
 19 39  1  0
 23 40  1  0
 24 41  1  0
 24 42  1  0
 25 43  1  0
 25 44  1  0
M  CHG  2  14  -1  20  -1
M  END
>  <UniqueID>  (41) 
41

>  <SMILES>  (41) 
Cn1cnc2cc(-c3ccc(F)c([N-]S(C)(=O)=O)c3)[n-]c(=NC3CC3)c2c1=O

>  <Energy>  (41) 
344.06659726925955

>  <Genealogy>  (41) 
Cn1cnc2cc(-c3ccc(F)c([N-]S(C)(=O)=O)c3)[n-]c(=NC3CC3)c2c1=O (protonated)
Cn1cnc2cc(-c3ccc(F)c([N-]S(C)(=O)=O)c3)[n-]c(=NC3CC3)c2c1=O (3D coordinates assigned)
Cn1cnc2cc(-c3ccc(F)c([N-]S(C)(=O)=O)c3)[n-]c(=NC3CC3)c2c1=O (nonaromatic ring conformer: 344.06659726925955 kcal/mol)

>  <smiles>  (41) 
Cn1cnc2cc(-c3ccc(F)c(NS(C)(=O)=O)c3)[nH]c(=NC3CC3)c2c1=O

>  <score_type>  (41) 
oracle

>  <origin>  (41) 
adg

>  <m_score__min__energy>  (41) 
-11.699999999999999

>  <m_primary>  (41) 
energy

$$$$
41:0
     RDKit          3D

 56 59  0  0  0  0  0  0  0  0999 V2000
   60.8160   28.4990   49.8370 C   0  0  0  0  0  0  0  0  0  0  0  0
   60.1090   28.6800   48.7180 C   0  0  0  0  0  0  0  0  0  0  0  0
   59.0990   27.8690   48.3480 N   0  0  0  0  0  0  0  0  0  0  0  0
   58.7130   28.2590   47.1110 C   0  0  0  0  0  0  0  0  0  0  0  0
   57.7370   27.6860   46.3790 C   0  0  0  0  0  0  0  0  0  0  0  0
   57.2440   26.3000   46.5280 C   0  0  0  0  0  0  0  0  0  0  0  0
   57.9710   25.2420   46.9330 N   0  0  0  0  0  0  0  0  0  0  0  0
   57.0710   24.2380   46.9810 C   0  0  0  0  0  0  0  0  0  0  0  0
   57.3790   23.0650   47.3190 O   0  0  0  0  0  0  0  0  0  0  0  0
   55.8110   24.5900   46.6450 N   0  0  0  0  0  0  0  0  0  0  0  0
   55.9390   25.8980   46.3680 C   0  0  0  0  0  0  0  0  0  0  0  0
   54.8800   26.7100   45.9780 O   0  0  0  0  0  0  0  0  0  0  0  0
   59.4980   29.3290   46.6880 C   0  0  0  0  0  0  0  0  0  0  0  0
   59.5330   29.9120   45.3040 C   0  0  0  0  0  0  0  0  0  0  0  0
   60.3380   29.6500   47.7480 C   0  0  0  0  0  0  0  0  0  0  0  0
   61.3830   30.7000   47.7640 C   0  0  0  0  0  0  0  0  0  0  0  0
   61.6620   31.2540   46.6660 O   0  0  0  0  0  0  0  0  0  0  0  0
   62.0430   31.1660   48.9800 N   0  0  0  0  0  0  0  0  0  0  0  0
   63.3010   31.8840   48.6770 C   0  0  0  0  0  0  0  0  0  0  0  0
   63.0910   33.3710   48.3210 C   0  0  0  0  0  0  0  0  0  0  0  0
   62.0780   34.0690   49.1520 N   0  0  0  0  0  0  0  0  0  0  0  0
   60.9310   34.5940   48.3730 C   0  0  0  0  0  0  0  0  0  0  0  0
   61.0490   34.2060   46.8960 C   0  0  0  0  0  0  0  0  0  0  0  0
   59.6840   33.8970   46.3390 C   0  0  0  0  0  0  0  0  0  0  0  0
   58.6750   33.3910   47.1750 C   0  0  0  0  0  0  0  0  0  0  0  0
   57.3890   33.1670   46.6720 C   0  0  0  0  0  0  0  0  0  0  0  0
   57.1010   33.4540   45.3340 C   0  0  0  0  0  0  0  0  0  0  0  0
   58.0950   33.9740   44.5000 C   0  0  0  0  0  0  0  0  0  0  0  0
   59.3810   34.2020   45.0000 C   0  0  0  0  0  0  0  0  0  0  0  0
   61.6680   33.2860   50.3330 C   0  0  0  0  0  0  0  0  0  0  0  0
   61.1640   31.8810   49.9520 C   0  0  0  0  0  0  0  0  0  0  0  0
   61.6312   29.1926   50.0908 H   0  0  0  0  0  0  0  0  0  0  0  0
   60.5830   27.6564   50.5046 H   0  0  0  0  0  0  0  0  0  0  0  0
   58.7620   27.0520   48.8990 H   0  0  0  0  0  0  0  0  0  0  0  0
   57.2652   28.3047   45.6014 H   0  0  0  0  0  0  0  0  0  0  0  0
   59.5988   31.0081   45.3694 H   0  0  0  0  0  0  0  0  0  0  0  0
   60.4094   29.5236   44.7646 H   0  0  0  0  0  0  0  0  0  0  0  0
   58.6164   29.6312   44.7646 H   0  0  0  0  0  0  0  0  0  0  0  0
   62.3470   30.2900   49.4720 H   0  0  0  0  0  0  0  0  0  0  0  0
   63.9559   31.8263   49.5589 H   0  0  0  0  0  0  0  0  0  0  0  0
   63.7454   31.3998   47.7949 H   0  0  0  0  0  0  0  0  0  0  0  0
   64.0522   33.8918   48.4426 H   0  0  0  0  0  0  0  0  0  0  0  0
   62.7152   33.3937   47.2874 H   0  0  0  0  0  0  0  0  0  0  0  0
   59.9981   34.1779   48.7811 H   0  0  0  0  0  0  0  0  0  0  0  0
   60.9281   35.6914   48.4486 H   0  0  0  0  0  0  0  0  0  0  0  0
   61.4926   35.0407   46.3335 H   0  0  0  0  0  0  0  0  0  0  0  0
   61.6887   33.3159   46.8043 H   0  0  0  0  0  0  0  0  0  0  0  0
   58.8969   33.1700   48.2295 H   0  0  0  0  0  0  0  0  0  0  0  0
   56.6039   32.7649   47.3293 H   0  0  0  0  0  0  0  0  0  0  0  0
   56.0915   33.2704   44.9375 H   0  0  0  0  0  0  0  0  0  0  0  0
   57.8654   34.2041   43.4491 H   0  0  0  0  0  0  0  0  0  0  0  0
   60.1580   34.6212   44.3439 H   0  0  0  0  0  0  0  0  0  0  0  0
   62.5314   33.1822   51.0067 H   0  0  0  0  0  0  0  0  0  0  0  0
   60.8408   33.8207   50.8227 H   0  0  0  0  0  0  0  0  0  0  0  0
   61.0977   31.2765   50.8686 H   0  0  0  0  0  0  0  0  0  0  0  0
   60.1881   32.0138   49.4621 H   0  0  0  0  0  0  0  0  0  0  0  0
  1  2  2  0
  2  3  1  0
  3  4  1  0
  4  5  2  3
  5  6  1  0
  6  7  1  0
  7  8  1  0
  8  9  2  0
  8 10  1  0
 10 11  1  0
 11 12  1  0
  4 13  1  0
 13 14  1  0
 13 15  2  0
 15 16  1  0
 16 17  2  0
 16 18  1  0
 18 19  1  0
 19 20  1  0
 20 21  1  0
 21 22  1  0
 22 23  1  0
 23 24  1  0
 24 25  2  0
 25 26  1  0
 26 27  2  0
 27 28  1  0
 28 29  2  0
 21 30  1  0
 30 31  1  0
 15  2  1  0
 31 18  1  0
 11  6  2  0
 29 24  1  0
  1 32  1  0
  1 33  1  0
  3 34  1  0
  5 35  1  0
 14 36  1  0
 14 37  1  0
 14 38  1  0
 18 39  1  0
 19 40  1  0
 19 41  1  0
 20 42  1  0
 20 43  1  0
 22 44  1  0
 22 45  1  0
 23 46  1  0
 23 47  1  0
 25 48  1  0
 26 49  1  0
 27 50  1  0
 28 51  1  0
 29 52  1  0
 30 53  1  0
 30 54  1  0
 31 55  1  0
 31 56  1  0
M  CHG  4   7  -1  10  -1  12  -1  18   1
M  END
>  <UniqueID>  (42) 
42

>  <SMILES>  (42) 
C=c1[nH]c(=Cc2[n-]c(=O)[n-]c2[O-])c(C)c1C(=O)[NH+]1CCN(CCc2ccccc2)CC1

>  <Energy>  (42) 
142.38599974949

>  <Genealogy>  (42) 
C=c1[nH]c(=Cc2[n-]c(=O)[n-]c2[O-])c(C)c1C(=O)[NH+]1CCN(CCc2ccccc2)CC1 (protonated)
C=c1[nH]c(=Cc2[n-]c(=O)[n-]c2[O-])c(C)c1C(=O)[NH+]1CCN(CCc2ccccc2)CC1 (3D coordinates assigned)
C=c1[nH]c(=Cc2[n-]c(=O)[n-]c2[O-])c(C)c1C(=O)[NH+]1CCN(CCc2ccccc2)CC1 (nonaromatic ring conformer: 142.38599974949 kcal/mol)

>  <smiles>  (42) 
C=c1[nH]c(=Cc2[nH]c(=O)[nH]c2O)c(C)c1C(=O)N1CCN(CCc2ccccc2)CC1

>  <score_type>  (42) 
oracle

>  <origin>  (42) 
adg

>  <m_score__min__energy>  (42) 
-15.949999999999999

>  <m_primary>  (42) 
energy

$$$$
42:0
     RDKit          3D

 45 48  0  0  0  0  0  0  0  0999 V2000
   60.1980   29.4170   49.7240 O   0  0  0  0  0  0  0  0  0  0  0  0
   60.1440   30.3820   48.5740 S   0  0  0  0  0  0  0  0  0  0  0  0
   61.2650   30.0500   47.6310 O   0  0  0  0  0  0  0  0  0  0  0  0
   60.3400   32.0350   49.2290 C   0  0  0  0  0  0  0  0  0  0  0  0
   60.2260   33.0680   48.1420 C   0  0  0  0  0  0  0  0  0  0  0  0
   61.0630   33.0060   47.0150 C   0  0  0  0  0  0  0  0  0  0  0  0
   60.9150   33.9310   45.9770 C   0  0  0  0  0  0  0  0  0  0  0  0
   59.9280   34.9200   46.0550 C   0  0  0  0  0  0  0  0  0  0  0  0
   59.0920   34.9860   47.1720 C   0  0  0  0  0  0  0  0  0  0  0  0
   59.2410   34.0670   48.2150 C   0  0  0  0  0  0  0  0  0  0  0  0
   58.6030   30.2090   47.7910 N   0  0  0  0  0  0  0  0  0  0  0  0
   58.2810   30.5420   46.4310 C   0  0  0  0  0  0  0  0  0  0  0  0
   57.7910   31.8120   46.0710 C   0  0  0  0  0  0  0  0  0  0  0  0
   57.4440   32.0880   44.7460 C   0  0  0  0  0  0  0  0  0  0  0  0
   57.5840   31.1060   43.7660 C   0  0  0  0  0  0  0  0  0  0  0  0
   58.0770   29.8460   44.1050 C   0  0  0  0  0  0  0  0  0  0  0  0
   58.4390   29.5600   45.4300 C   0  0  0  0  0  0  0  0  0  0  0  0
   58.9110   28.1990   45.7730 C   0  0  0  0  0  0  0  0  0  0  0  0
   60.2920   27.9930   45.9100 C   0  0  0  0  0  0  0  0  0  0  0  0
   60.7970   26.7240   46.1920 C   0  0  0  0  0  0  0  0  0  0  0  0
   59.9330   25.6400   46.3440 C   0  0  0  0  0  0  0  0  0  0  0  0
   58.5470   25.8190   46.2240 C   0  0  0  0  0  0  0  0  0  0  0  0
   57.6810   24.7280   46.3850 C   0  0  0  0  0  0  0  0  0  0  0  0
   56.3000   24.9030   46.2790 C   0  0  0  0  0  0  0  0  0  0  0  0
   55.7710   26.1670   46.0150 C   0  0  0  0  0  0  0  0  0  0  0  0
   54.3950   26.3350   45.9160 O   0  0  0  0  0  0  0  0  0  0  0  0
   56.6210   27.2640   45.8490 C   0  0  0  0  0  0  0  0  0  0  0  0
   58.0200   27.1070   45.9410 C   0  0  0  0  0  0  0  0  0  0  0  0
   59.5584   32.2179   49.9811 H   0  0  0  0  0  0  0  0  0  0  0  0
   61.3397   32.1141   49.6811 H   0  0  0  0  0  0  0  0  0  0  0  0
   61.8371   32.2273   46.9492 H   0  0  0  0  0  0  0  0  0  0  0  0
   61.5749   33.8813   45.0984 H   0  0  0  0  0  0  0  0  0  0  0  0
   59.8105   35.6455   45.2365 H   0  0  0  0  0  0  0  0  0  0  0  0
   58.3150   35.7624   47.2312 H   0  0  0  0  0  0  0  0  0  0  0  0
   58.5847   34.1264   49.0958 H   0  0  0  0  0  0  0  0  0  0  0  0
   57.6806   32.5924   46.8383 H   0  0  0  0  0  0  0  0  0  0  0  0
   57.0594   33.0824   44.4753 H   0  0  0  0  0  0  0  0  0  0  0  0
   57.3054   31.3252   42.7247 H   0  0  0  0  0  0  0  0  0  0  0  0
   58.1825   29.0728   43.3297 H   0  0  0  0  0  0  0  0  0  0  0  0
   60.9832   28.8408   45.7938 H   0  0  0  0  0  0  0  0  0  0  0  0
   61.8823   26.5774   46.2951 H   0  0  0  0  0  0  0  0  0  0  0  0
   60.3399   24.6409   46.5588 H   0  0  0  0  0  0  0  0  0  0  0  0
   58.0917   23.7296   46.5958 H   0  0  0  0  0  0  0  0  0  0  0  0
   55.6269   24.0420   46.4040 H   0  0  0  0  0  0  0  0  0  0  0  0
   56.1958   28.2578   45.6450 H   0  0  0  0  0  0  0  0  0  0  0  0
  1  2  2  0
  2  3  2  0
  2  4  1  0
  4  5  1  0
  5  6  2  0
  6  7  1  0
  7  8  2  0
  8  9  1  0
  9 10  2  0
  2 11  1  0
 11 12  1  0
 12 13  2  0
 13 14  1  0
 14 15  2  0
 15 16  1  0
 16 17  2  0
 17 18  1  0
 18 19  2  0
 19 20  1  0
 20 21  2  0
 21 22  1  0
 22 23  2  0
 23 24  1  0
 24 25  2  0
 25 26  1  0
 25 27  1  0
 27 28  2  0
 10  5  1  0
 17 12  1  0
 28 18  1  0
 28 22  1  0
  4 29  1  0
  4 30  1  0
  6 31  1  0
  7 32  1  0
  8 33  1  0
  9 34  1  0
 10 35  1  0
 13 36  1  0
 14 37  1  0
 15 38  1  0
 16 39  1  0
 19 40  1  0
 20 41  1  0
 21 42  1  0
 23 43  1  0
 24 44  1  0
 27 45  1  0
M  CHG  2  11  -1  26  -1
M  END
>  <UniqueID>  (43) 
43

>  <SMILES>  (43) 
O=S(=O)(Cc1ccccc1)[N-]c1ccccc1-c1cccc2ccc([O-])cc12

>  <Energy>  (43) 
58.58685609843128

>  <Genealogy>  (43) 
O=S(=O)(Cc1ccccc1)[N-]c1ccccc1-c1cccc2ccc([O-])cc12 (protonated)
O=S(=O)(Cc1ccccc1)[N-]c1ccccc1-c1cccc2ccc([O-])cc12 (3D coordinates assigned)
O=S(=O)(Cc1ccccc1)[N-]c1ccccc1-c1cccc2ccc([O-])cc12 (optimized conformer: 58.58685609843128 kcal/mol)

>  <smiles>  (43) 
O=S(=O)(Cc1ccccc1)Nc1ccccc1-c1cccc2ccc(O)cc12

>  <score_type>  (43) 
oracle

>  <origin>  (43) 
adg

>  <m_score__min__energy>  (43) 
-14.02

>  <m_primary>  (43) 
energy

$$$$
43:0
     RDKit          3D

 46 47  0  0  0  0  0  0  0  0999 V2000
   58.4463   31.1254   42.5640 H   0  0  0  0  0  0  0  0  0  0  0  0
   57.8480   31.5210   43.3980 C   0  0  0  0  0  0  0  0  0  0  0  0
   57.0160   30.5850   44.1910 C   0  0  0  0  0  0  0  0  0  0  0  0
   55.8350   30.9080   44.4950 O   0  0  0  0  0  0  0  0  0  0  0  0
   57.5340   29.2600   44.6150 C   0  0  0  0  0  0  0  0  0  0  0  0
   57.7230   28.2450   43.6610 C   0  0  0  0  0  0  0  0  0  0  0  0
   57.4855   28.4382   42.6045 H   0  0  0  0  0  0  0  0  0  0  0  0
   58.2100   26.9930   44.0440 C   0  0  0  0  0  0  0  0  0  0  0  0
   58.3553   26.2105   43.2846 H   0  0  0  0  0  0  0  0  0  0  0  0
   58.5150   26.7230   45.3820 C   0  0  0  0  0  0  0  0  0  0  0  0
   59.0090   25.4480   45.7020 O   0  0  0  0  0  0  0  0  0  0  0  0
   58.2270   24.3140   46.0850 C   0  0  0  0  0  0  0  0  0  0  0  0
   57.6538   23.9613   45.2149 H   0  0  0  0  0  0  0  0  0  0  0  0
   58.9042   23.5251   46.4442 H   0  0  0  0  0  0  0  0  0  0  0  0
   57.2550   24.6760   47.2130 C   0  0  0  0  0  0  0  0  0  0  0  0
   57.3660   23.9485   48.0306 H   0  0  0  0  0  0  0  0  0  0  0  0
   57.4901   25.6912   47.5653 H   0  0  0  0  0  0  0  0  0  0  0  0
   55.8560   24.6560   46.7350 N   0  0  0  0  0  0  0  0  0  0  0  0
   55.7970   24.8270   45.2730 C   0  0  0  0  0  0  0  0  0  0  0  0
   55.4466   25.8425   45.0365 H   0  0  0  0  0  0  0  0  0  0  0  0
   56.7992   24.6760   44.8454 H   0  0  0  0  0  0  0  0  0  0  0  0
   55.1011   24.0901   44.8454 H   0  0  0  0  0  0  0  0  0  0  0  0
   55.1940   23.3970   47.1110 C   0  0  0  0  0  0  0  0  0  0  0  0
   55.1524   23.3178   48.2074 H   0  0  0  0  0  0  0  0  0  0  0  0
   54.1724   23.3839   46.7034 H   0  0  0  0  0  0  0  0  0  0  0  0
   55.7623   22.5480   46.7034 H   0  0  0  0  0  0  0  0  0  0  0  0
   58.2990   27.7260   46.3450 C   0  0  0  0  0  0  0  0  0  0  0  0
   58.5117   27.5210   47.4046 H   0  0  0  0  0  0  0  0  0  0  0  0
   57.8160   28.9810   45.9640 C   0  0  0  0  0  0  0  0  0  0  0  0
   57.6550   29.7575   46.7263 H   0  0  0  0  0  0  0  0  0  0  0  0
   57.8950   32.8330   43.6640 C   0  0  0  0  0  0  0  0  0  0  0  0
   57.5041   33.5304   42.9085 H   0  0  0  0  0  0  0  0  0  0  0  0
   58.4450   33.3980   44.9210 C   0  0  0  0  0  0  0  0  0  0  0  0
   59.1250   34.6250   44.8650 C   0  0  0  0  0  0  0  0  0  0  0  0
   59.2503   35.1351   43.8985 H   0  0  0  0  0  0  0  0  0  0  0  0
   59.6440   35.2040   46.0260 C   0  0  0  0  0  0  0  0  0  0  0  0
   60.1782   36.1639   45.9690 H   0  0  0  0  0  0  0  0  0  0  0  0
   59.4860   34.5670   47.2580 C   0  0  0  0  0  0  0  0  0  0  0  0
   59.8925   35.0287   48.1699 H   0  0  0  0  0  0  0  0  0  0  0  0
   58.8110   33.3410   47.3370 C   0  0  0  0  0  0  0  0  0  0  0  0
   58.5930   32.6840   48.6680 C   0  0  0  0  0  0  0  0  0  0  0  0
   58.8295   33.3967   49.4718 H   0  0  0  0  0  0  0  0  0  0  0  0
   57.5424   32.3696   48.7540 H   0  0  0  0  0  0  0  0  0  0  0  0
   59.2473   31.8039   48.7540 H   0  0  0  0  0  0  0  0  0  0  0  0
   58.2740   32.7690   46.1710 C   0  0  0  0  0  0  0  0  0  0  0  0
   57.7159   31.8232   46.2342 H   0  0  0  0  0  0  0  0  0  0  0  0
  1  2  1  0
  2  3  1  0
  3  4  2  0
  3  5  1  0
  5  6  2  0
  6  7  1  0
  6  8  1  0
  8  9  1  0
  8 10  2  0
 10 11  1  0
 11 12  1  0
 12 13  1  0
 12 14  1  0
 12 15  1  0
 15 16  1  0
 15 17  1  0
 15 18  1  0
 18 19  1  0
 19 20  1  0
 19 21  1  0
 19 22  1  0
 18 23  1  0
 23 24  1  0
 23 25  1  0
 23 26  1  0
 10 27  1  0
 27 28  1  0
 27 29  2  0
 29 30  1  0
  2 31  2  0
 31 32  1  0
 31 33  1  0
 33 34  2  0
 34 35  1  0
 34 36  1  0
 36 37  1  0
 36 38  2  0
 38 39  1  0
 38 40  1  0
 40 41  1  0
 41 42  1  0
 41 43  1  0
 41 44  1  0
 40 45  2  0
 45 46  1  0
 29  5  1  0
 45 33  1  0
M  END
>  <UniqueID>  (44) 
44

>  <SMILES>  (44) 
Cc1cccc(/C=C/C(=O)c2ccc(OCCN(C)C)cc2)c1

>  <Energy>  (44) 
49.93270593712141

>  <Genealogy>  (44) 
Cc1cccc(/C=C/C(=O)c2ccc(OCCN(C)C)cc2)c1 (cis-trans isomerization)
Cc1cccc(/C=C/C(=O)c2ccc(OCCN(C)C)cc2)c1 (3D coordinates assigned)
Cc1cccc(/C=C/C(=O)c2ccc(OCCN(C)C)cc2)c1 (optimized conformer: 49.93270593712141 kcal/mol)

>  <smiles>  (44) 
Cc1cccc(C=CC(=O)c2ccc(OCCN(C)C)cc2)c1

>  <score_type>  (44) 
oracle

>  <origin>  (44) 
adg

>  <m_score__min__energy>  (44) 
-7.7699999999999996

>  <m_primary>  (44) 
energy

$$$$
44:0
     RDKit          3D

 56 59  0  0  0  0  0  0  0  0999 V2000
   60.4268   30.4104   44.6189 H   0  0  0  0  0  0  0  0  0  0  0  0
   59.6810   29.6530   44.9020 C   0  0  0  0  0  0  0  0  0  0  0  0
   58.9819   29.2611   44.1486 H   0  0  0  0  0  0  0  0  0  0  0  0
   59.6240   29.2070   46.1670 C   0  0  0  0  0  0  0  0  0  0  0  0
   58.7340   28.2520   46.6690 C   0  0  0  0  0  0  0  0  0  0  0  0
   57.7350   27.6380   46.0060 C   0  0  0  0  0  0  0  0  0  0  0  0
   57.2945   28.1569   45.1419 H   0  0  0  0  0  0  0  0  0  0  0  0
   57.1950   26.3140   46.3660 C   0  0  0  0  0  0  0  0  0  0  0  0
   57.9500   25.3240   46.8730 N   0  0  0  0  0  0  0  0  0  0  0  0
   57.0560   24.3460   47.1320 C   0  0  0  0  0  0  0  0  0  0  0  0
   57.3890   23.2320   47.6150 O   0  0  0  0  0  0  0  0  0  0  0  0
   55.7740   24.6590   46.8460 N   0  0  0  0  0  0  0  0  0  0  0  0
   55.8760   25.9130   46.3740 C   0  0  0  0  0  0  0  0  0  0  0  0
   54.7820   26.6860   46.0070 O   0  0  0  0  0  0  0  0  0  0  0  0
   59.0440   28.1020   48.0130 C   0  0  0  0  0  0  0  0  0  0  0  0
   58.5382   27.4419   48.7330 H   0  0  0  0  0  0  0  0  0  0  0  0
   60.1100   28.9410   48.2730 C   0  0  0  0  0  0  0  0  0  0  0  0
   60.7280   29.1200   49.6340 C   0  0  0  0  0  0  0  0  0  0  0  0
   60.0624   28.6696   50.3851 H   0  0  0  0  0  0  0  0  0  0  0  0
   61.7132   28.6310   49.6193 H   0  0  0  0  0  0  0  0  0  0  0  0
   60.9450   30.5810   49.9900 C   0  0  0  0  0  0  0  0  0  0  0  0
   62.0820   31.0350   49.9470 O   0  0  0  0  0  0  0  0  0  0  0  0
   59.8570   31.4800   50.3610 N   0  0  0  0  0  0  0  0  0  0  0  0
   59.5430   31.1680   51.3120 H   0  0  0  0  0  0  0  0  0  0  0  0
   60.3210   32.8670   50.5080 C   0  0  0  0  0  0  0  0  0  0  0  0
   59.4977   33.4777   50.9070 H   0  0  0  0  0  0  0  0  0  0  0  0
   61.1819   32.8693   51.1927 H   0  0  0  0  0  0  0  0  0  0  0  0
   60.7730   33.4570   49.1740 C   0  0  0  0  0  0  0  0  0  0  0  0
   60.8817   34.5454   49.2907 H   0  0  0  0  0  0  0  0  0  0  0  0
   61.7255   32.9760   48.9068 H   0  0  0  0  0  0  0  0  0  0  0  0
   59.8250   33.1950   48.0800 N   0  0  0  0  0  0  0  0  0  0  0  0
   60.0660   33.8780   46.8260 C   0  0  0  0  0  0  0  0  0  0  0  0
   61.2050   34.3790   46.6070 O   0  0  0  0  0  0  0  0  0  0  0  0
   59.0020   33.9670   45.7470 C   0  0  2  0  0  0  0  0  0  0  0  0
   59.3627   34.8182   45.1509 H   0  0  0  0  0  0  0  0  0  0  0  0
   57.6030   34.1570   46.3120 C   0  0  0  0  0  0  0  0  0  0  0  0
   57.3775   35.2313   46.3825 H   0  0  0  0  0  0  0  0  0  0  0  0
   57.5450   33.7069   47.3140 H   0  0  0  0  0  0  0  0  0  0  0  0
   56.6690   33.5340   45.4580 O   0  0  0  0  0  0  0  0  0  0  0  0
   57.3890   32.7860   44.5060 C   0  0  0  0  0  0  0  0  0  0  0  0
   57.3114   33.2715   43.5220 H   0  0  0  0  0  0  0  0  0  0  0  0
   56.9731   31.7695   44.4446 H   0  0  0  0  0  0  0  0  0  0  0  0
   58.8440   32.7150   44.9220 C   0  0  0  0  0  0  0  0  0  0  0  0
   59.5100   32.7277   44.0466 H   0  0  0  0  0  0  0  0  0  0  0  0
   59.1033   31.7937   45.4643 H   0  0  0  0  0  0  0  0  0  0  0  0
   58.7860   32.1470   48.1470 C   0  0  0  0  0  0  0  0  0  0  0  0
   57.8179   32.6134   47.9118 H   0  0  0  0  0  0  0  0  0  0  0  0
   59.0901   31.3725   47.4275 H   0  0  0  0  0  0  0  0  0  0  0  0
   58.6520   31.4320   49.5110 C   0  0  0  0  0  0  0  0  0  0  0  0
   57.8257   31.9030   50.0635 H   0  0  0  0  0  0  0  0  0  0  0  0
   58.4769   30.3697   49.2855 H   0  0  0  0  0  0  0  0  0  0  0  0
   60.4550   29.6250   47.1550 N   0  0  0  0  0  0  0  0  0  0  0  0
   61.5170   30.6300   47.0320 C   0  0  0  0  0  0  0  0  0  0  0  0
   61.8455   30.9409   48.0347 H   0  0  0  0  0  0  0  0  0  0  0  0
   62.3681   30.1989   46.4845 H   0  0  0  0  0  0  0  0  0  0  0  0
   61.1335   31.5036   46.4845 H   0  0  0  0  0  0  0  0  0  0  0  0
  1  2  1  0
  2  3  1  0
  2  4  2  0
  4  5  1  0
  5  6  2  0
  6  7  1  0
  6  8  1  0
  8  9  1  0
  9 10  1  0
 10 11  2  0
 10 12  1  0
 12 13  1  0
 13 14  1  0
  5 15  1  0
 15 16  1  0
 15 17  2  0
 17 18  1  0
 18 19  1  0
 18 20  1  0
 18 21  1  0
 21 22  2  0
 21 23  1  0
 23 24  1  0
 23 25  1  0
 25 26  1  0
 25 27  1  0
 25 28  1  0
 28 29  1  0
 28 30  1  0
 28 31  1  0
 31 32  1  0
 32 33  2  0
 32 34  1  0
 34 35  1  6
 34 36  1  0
 36 37  1  0
 36 38  1  0
 36 39  1  0
 39 40  1  0
 40 41  1  0
 40 42  1  0
 40 43  1  0
 43 44  1  0
 43 45  1  0
 31 46  1  0
 46 47  1  0
 46 48  1  0
 46 49  1  0
 49 50  1  0
 49 51  1  0
 17 52  1  0
 52 53  1  0
 53 54  1  0
 53 55  1  0
 53 56  1  0
 52  4  1  0
 13  8  2  0
 49 23  1  0
 43 34  1  0
M  CHG  4   9  -1  12  -1  14  -1  23   1
M  END
>  <UniqueID>  (45) 
45

>  <SMILES>  (45) 
C=c1/c(=C/c2[n-]c(=O)[n-]c2[O-])cc(CC(=O)[NH+]2CCN(C(=O)[C@H]3CCOC3)CC2)n1C

>  <Energy>  (45) 
135.60948723914578

>  <Genealogy>  (45) 
C=c1c(=Cc2[n-]c(=O)[n-]c2[O-])cc(CC(=O)[NH+]2CCN(C(=O)C3CCOC3)CC2)n1C (protonated)
C=c1c(=Cc2[n-]c(=O)[n-]c2[O-])cc(CC(=O)[NH+]2CCN(C(=O)[C@H]3CCOC3)CC2)n1C (chirality)
C=c1/c(=C/c2[n-]c(=O)[n-]c2[O-])cc(CC(=O)[NH+]2CCN(C(=O)[C@H]3CCOC3)CC2)n1C (cis-trans isomerization)
C=c1/c(=C/c2[n-]c(=O)[n-]c2[O-])cc(CC(=O)[NH+]2CCN(C(=O)[C@H]3CCOC3)CC2)n1C (3D coordinates assigned)
C=c1/c(=C/c2[n-]c(=O)[n-]c2[O-])cc(CC(=O)[NH+]2CCN(C(=O)[C@H]3CCOC3)CC2)n1C (nonaromatic ring conformer: 135.60948723914578 kcal/mol)

>  <smiles>  (45) 
C=c1c(=Cc2[nH]c(=O)[nH]c2O)cc(CC(=O)N2CCN(C(=O)C3CCOC3)CC2)n1C

>  <score_type>  (45) 
oracle

>  <origin>  (45) 
adg

>  <m_score__min__energy>  (45) 
-16.920000000000002

>  <m_primary>  (45) 
energy

$$$$
45:0
     RDKit          3D

 58 61  0  0  0  0  0  0  0  0999 V2000
   66.0270   32.3030   50.3070 C   0  0  0  0  0  0  0  0  0  0  0  0
   65.3620   33.1260   49.3590 O   0  0  0  0  0  0  0  0  0  0  0  0
   64.1350   32.8060   48.7570 C   0  0  0  0  0  0  0  0  0  0  0  0
   63.8960   33.2590   47.4560 C   0  0  0  0  0  0  0  0  0  0  0  0
   62.6860   32.9770   46.8180 C   0  0  0  0  0  0  0  0  0  0  0  0
   61.7040   32.2320   47.4760 C   0  0  0  0  0  0  0  0  0  0  0  0
   61.9300   31.7590   48.7740 C   0  0  0  0  0  0  0  0  0  0  0  0
   60.9230   30.9980   49.4540 N   0  0  0  0  0  0  0  0  0  0  0  0
   60.1920   29.9730   48.9720 C   0  0  0  0  0  0  0  0  0  0  0  0
   60.3900   29.3330   47.6360 C   0  0  0  0  0  0  0  0  0  0  0  0
   59.1940   29.6430   49.8130 N   0  0  0  0  0  0  0  0  0  0  0  0
   59.2770   30.4600   50.8510 N   0  0  0  0  0  0  0  0  0  0  0  0
   60.3300   31.2710   50.6320 C   0  0  0  0  0  0  0  0  0  0  0  0
   60.7640   32.6380   51.7130 S   0  0  0  0  0  0  0  0  0  0  0  0
   59.5270   33.7960   51.0310 C   0  0  0  0  0  0  0  0  0  0  0  0
   59.5960   33.8520   49.5320 C   0  0  0  0  0  0  0  0  0  0  0  0
   60.5020   34.5380   48.9890 O   0  0  0  0  0  0  0  0  0  0  0  0
   58.7240   33.0790   48.6950 N   0  0  0  0  0  0  0  0  0  0  0  0
   58.5900   33.1960   47.2740 C   0  0  0  0  0  0  0  0  0  0  0  0
   58.9710   34.3910   46.6520 C   0  0  0  0  0  0  0  0  0  0  0  0
   58.8150   34.5480   45.2720 C   0  0  0  0  0  0  0  0  0  0  0  0
   58.2580   33.5180   44.5100 C   0  0  0  0  0  0  0  0  0  0  0  0
   57.8410   32.3290   45.1280 C   0  0  0  0  0  0  0  0  0  0  0  0
   57.1110   31.0410   44.1680 S   0  0  0  0  0  0  0  0  0  0  0  0
   57.2460   31.3790   42.7070 O   0  0  0  0  0  0  0  0  0  0  0  0
   55.6460   30.9590   44.4900 O   0  0  0  0  0  0  0  0  0  0  0  0
   57.8550   29.4940   44.4770 N   0  0  0  0  0  0  0  0  0  0  0  0
   57.4470   28.5110   43.4630 C   0  0  0  0  0  0  0  0  0  0  0  0
   58.2080   27.1840   43.6630 C   0  0  0  0  0  0  0  0  0  0  0  0
   59.0040   27.2130   44.8300 O   0  0  0  0  0  0  0  0  0  0  0  0
   59.9720   28.2410   44.7250 C   0  0  0  0  0  0  0  0  0  0  0  0
   59.3200   29.6200   44.4940 C   0  0  0  0  0  0  0  0  0  0  0  0
   58.0020   32.1740   46.5130 C   0  0  0  0  0  0  0  0  0  0  0  0
   63.1440   32.0500   49.4140 C   0  0  0  0  0  0  0  0  0  0  0  0
   65.7637   32.6289   51.3241 H   0  0  0  0  0  0  0  0  0  0  0  0
   65.7175   31.2570   50.1655 H   0  0  0  0  0  0  0  0  0  0  0  0
   67.1147   32.3859   50.1655 H   0  0  0  0  0  0  0  0  0  0  0  0
   64.6669   33.8420   46.9309 H   0  0  0  0  0  0  0  0  0  0  0  0
   62.5058   33.3419   45.7961 H   0  0  0  0  0  0  0  0  0  0  0  0
   60.7501   32.0164   46.9724 H   0  0  0  0  0  0  0  0  0  0  0  0
   60.7126   28.2903   47.7731 H   0  0  0  0  0  0  0  0  0  0  0  0
   59.4436   29.3534   47.0758 H   0  0  0  0  0  0  0  0  0  0  0  0
   61.1596   29.8843   47.0758 H   0  0  0  0  0  0  0  0  0  0  0  0
   58.5222   33.4635   51.3307 H   0  0  0  0  0  0  0  0  0  0  0  0
   59.7397   34.8008   51.4249 H   0  0  0  0  0  0  0  0  0  0  0  0
   59.3949   35.2098   47.2519 H   0  0  0  0  0  0  0  0  0  0  0  0
   59.1309   35.4828   44.7857 H   0  0  0  0  0  0  0  0  0  0  0  0
   58.1460   33.6393   43.4225 H   0  0  0  0  0  0  0  0  0  0  0  0
   56.3663   28.3259   43.5519 H   0  0  0  0  0  0  0  0  0  0  0  0
   57.6816   28.9097   42.4650 H   0  0  0  0  0  0  0  0  0  0  0  0
   57.4798   26.3639   43.7476 H   0  0  0  0  0  0  0  0  0  0  0  0
   58.8703   27.0328   42.7978 H   0  0  0  0  0  0  0  0  0  0  0  0
   60.5574   28.2753   45.6556 H   0  0  0  0  0  0  0  0  0  0  0  0
   60.6156   28.0179   43.8612 H   0  0  0  0  0  0  0  0  0  0  0  0
   59.6164   30.3021   45.3044 H   0  0  0  0  0  0  0  0  0  0  0  0
   59.6567   30.0179   43.5254 H   0  0  0  0  0  0  0  0  0  0  0  0
   57.6663   31.2486   47.0039 H   0  0  0  0  0  0  0  0  0  0  0  0
   63.3235   31.6853   50.4361 H   0  0  0  0  0  0  0  0  0  0  0  0
  1  2  1  0
  2  3  1  0
  3  4  2  0
  4  5  1  0
  5  6  2  0
  6  7  1  0
  7  8  1  0
  8  9  1  0
  9 10  1  0
  9 11  2  0
 11 12  1  0
 12 13  2  0
 13 14  1  0
 14 15  1  0
 15 16  1  0
 16 17  2  0
 16 18  1  0
 18 19  1  0
 19 20  2  0
 20 21  1  0
 21 22  2  0
 22 23  1  0
 23 24  1  0
 24 25  2  0
 24 26  2  0
 24 27  1  0
 27 28  1  0
 28 29  1  0
 29 30  1  0
 30 31  1  0
 31 32  1  0
 23 33  2  0
  7 34  2  0
 34  3  1  0
 13  8  1  0
 33 19  1  0
 32 27  1  0
  1 35  1  0
  1 36  1  0
  1 37  1  0
  4 38  1  0
  5 39  1  0
  6 40  1  0
 10 41  1  0
 10 42  1  0
 10 43  1  0
 15 44  1  0
 15 45  1  0
 20 46  1  0
 21 47  1  0
 22 48  1  0
 28 49  1  0
 28 50  1  0
 29 51  1  0
 29 52  1  0
 31 53  1  0
 31 54  1  0
 32 55  1  0
 32 56  1  0
 33 57  1  0
 34 58  1  0
M  CHG  1  18  -1
M  END
>  <UniqueID>  (46) 
46

>  <SMILES>  (46) 
COc1cccc(-n2c(C)nnc2SCC(=O)[N-]c2cccc(S(=O)(=O)N3CCOCC3)c2)c1

>  <Energy>  (46) 
108.791153830908

>  <Genealogy>  (46) 
COc1cccc(-n2c(C)nnc2SCC(=O)[N-]c2cccc(S(=O)(=O)N3CCOCC3)c2)c1 (protonated)
COc1cccc(-n2c(C)nnc2SCC(=O)[N-]c2cccc(S(=O)(=O)N3CCOCC3)c2)c1 (3D coordinates assigned)
COc1cccc(-n2c(C)nnc2SCC(=O)[N-]c2cccc(S(=O)(=O)N3CCOCC3)c2)c1 (nonaromatic ring conformer: 108.791153830908 kcal/mol)

>  <smiles>  (46) 
COc1cccc(-n2c(C)nnc2SCC(=O)Nc2cccc(S(=O)(=O)N3CCOCC3)c2)c1

>  <score_type>  (46) 
oracle

>  <origin>  (46) 
adg

>  <m_score__min__energy>  (46) 
-11.73

>  <m_primary>  (46) 
energy

$$$$
46:0
     RDKit          3D

 44 46  0  0  0  0  0  0  0  0999 V2000
   58.0710   26.7870   43.5530 C   0  0  0  0  0  0  0  0  0  0  0  0
   58.1970   27.1050   44.8510 C   0  0  0  0  0  0  0  0  0  0  0  0
   58.0600   26.2380   45.9480 C   0  0  0  0  0  0  0  0  0  0  0  0
   57.5640   24.9880   46.0280 C   0  0  0  0  0  0  0  0  0  0  0  0
   56.1400   24.6240   45.9310 C   0  0  0  0  0  0  0  0  0  0  0  0
   55.6680   23.3850   45.7100 N   0  0  0  0  0  0  0  0  0  0  0  0
   54.3400   23.5490   45.5570 C   0  0  0  0  0  0  0  0  0  0  0  0
   53.5500   22.5930   45.3380 O   0  0  0  0  0  0  0  0  0  0  0  0
   53.9270   24.8320   45.6470 N   0  0  0  0  0  0  0  0  0  0  0  0
   55.0780   25.4990   45.8660 C   0  0  0  0  0  0  0  0  0  0  0  0
   55.1560   26.8800   45.9980 O   0  0  0  0  0  0  0  0  0  0  0  0
   58.5410   26.9250   47.0480 C   0  0  0  0  0  0  0  0  0  0  0  0
   58.8820   28.1890   46.6120 C   0  0  0  0  0  0  0  0  0  0  0  0
   59.4260   29.2720   47.4930 C   0  0  0  0  0  0  0  0  0  0  0  0
   58.6480   28.3120   45.2850 N   0  0  0  0  0  0  0  0  0  0  0  0
   58.9410   29.5050   44.4750 C   0  0  0  0  0  0  0  0  0  0  0  0
   57.8260   30.5170   44.5540 C   0  0  0  0  0  0  0  0  0  0  0  0
   56.6870   30.1480   44.9510 O   0  0  0  0  0  0  0  0  0  0  0  0
   58.0400   31.8960   44.1750 N   0  0  0  0  0  0  0  0  0  0  0  0
   57.7600   32.3480   42.8080 C   0  0  0  0  0  0  0  0  0  0  0  0
   58.4040   32.8680   45.1720 C   0  0  0  0  0  0  0  0  0  0  0  0
   58.1660   32.6130   46.5330 C   0  0  0  0  0  0  0  0  0  0  0  0
   58.5160   33.5610   47.5000 C   0  0  0  0  0  0  0  0  0  0  0  0
   59.1050   34.7700   47.1160 C   0  0  0  0  0  0  0  0  0  0  0  0
   59.3510   35.0300   45.7650 C   0  0  0  0  0  0  0  0  0  0  0  0
   59.0050   34.0820   44.7960 C   0  0  0  0  0  0  0  0  0  0  0  0
   58.2025   27.5605   42.7820 H   0  0  0  0  0  0  0  0  0  0  0  0
   57.8363   25.7530   43.2603 H   0  0  0  0  0  0  0  0  0  0  0  0
   58.2835   24.1697   46.1785 H   0  0  0  0  0  0  0  0  0  0  0  0
   56.2120   22.4950   45.6290 H   0  0  0  0  0  0  0  0  0  0  0  0
   58.6339   26.5380   48.0735 H   0  0  0  0  0  0  0  0  0  0  0  0
   59.2854   28.9921   48.5475 H   0  0  0  0  0  0  0  0  0  0  0  0
   60.4986   29.4063   47.2892 H   0  0  0  0  0  0  0  0  0  0  0  0
   58.8934   30.2126   47.2892 H   0  0  0  0  0  0  0  0  0  0  0  0
   59.8691   29.9670   44.8426 H   0  0  0  0  0  0  0  0  0  0  0  0
   59.0472   29.1912   43.4261 H   0  0  0  0  0  0  0  0  0  0  0  0
   57.1810   33.2827   42.8422 H   0  0  0  0  0  0  0  0  0  0  0  0
   58.7080   32.5231   42.2783 H   0  0  0  0  0  0  0  0  0  0  0  0
   57.1810   31.5772   42.2783 H   0  0  0  0  0  0  0  0  0  0  0  0
   57.7024   31.6637   46.8394 H   0  0  0  0  0  0  0  0  0  0  0  0
   58.3277   33.3554   48.5641 H   0  0  0  0  0  0  0  0  0  0  0  0
   59.3747   35.5165   47.8776 H   0  0  0  0  0  0  0  0  0  0  0  0
   59.8166   35.9799   45.4636 H   0  0  0  0  0  0  0  0  0  0  0  0
   59.2043   34.2877   43.7340 H   0  0  0  0  0  0  0  0  0  0  0  0
  1  2  2  0
  2  3  1  0
  3  4  2  3
  4  5  1  0
  5  6  1  0
  6  7  1  0
  7  8  2  0
  7  9  1  0
  9 10  1  0
 10 11  1  0
  3 12  1  0
 12 13  2  0
 13 14  1  0
 13 15  1  0
 15 16  1  0
 16 17  1  0
 17 18  2  0
 17 19  1  0
 19 20  1  0
 19 21  1  0
 21 22  2  0
 22 23  1  0
 23 24  2  0
 24 25  1  0
 25 26  2  0
 15  2  1  0
 26 21  1  0
 10  5  2  0
  1 27  1  0
  1 28  1  0
  4 29  1  0
  6 30  1  0
 12 31  1  0
 14 32  1  0
 14 33  1  0
 14 34  1  0
 16 35  1  0
 16 36  1  0
 20 37  1  0
 20 38  1  0
 20 39  1  0
 22 40  1  0
 23 41  1  0
 24 42  1  0
 25 43  1  0
 26 44  1  0
M  CHG  2   9  -1  11  -1
M  END
>  <UniqueID>  (47) 
47

>  <SMILES>  (47) 
C=c1c(=Cc2[nH]c(=O)[n-]c2[O-])cc(C)n1CC(=O)N(C)c1ccccc1

>  <Energy>  (47) 
121.1682937801194

>  <Genealogy>  (47) 
C=c1c(=Cc2[nH]c(=O)[n-]c2[O-])cc(C)n1CC(=O)N(C)c1ccccc1 (protonated)
C=c1c(=Cc2[nH]c(=O)[n-]c2[O-])cc(C)n1CC(=O)N(C)c1ccccc1 (3D coordinates assigned)
C=c1c(=Cc2[nH]c(=O)[n-]c2[O-])cc(C)n1CC(=O)N(C)c1ccccc1 (optimized conformer: 121.1682937801194 kcal/mol)

>  <smiles>  (47) 
C=c1c(=Cc2[nH]c(=O)[nH]c2O)cc(C)n1CC(=O)N(C)c1ccccc1

>  <score_type>  (47) 
oracle

>  <origin>  (47) 
adg

>  <m_score__min__energy>  (47) 
-14.859999999999999

>  <m_primary>  (47) 
energy

$$$$
47:0
     RDKit          3D

 43 45  0  0  0  0  0  0  0  0999 V2000
   60.7440   34.3560   47.8890 C   0  0  0  0  0  0  0  0  0  0  0  0
   59.7940   34.5600   46.7460 C   0  0  0  0  0  0  0  0  0  0  0  0
   59.7140   35.7100   46.2320 O   0  0  0  0  0  0  0  0  0  0  0  0
   58.9570   33.4530   46.2120 C   0  0  0  0  0  0  0  0  0  0  0  0
   59.2580   32.1180   46.5430 C   0  0  0  0  0  0  0  0  0  0  0  0
   58.4800   31.0690   46.0480 C   0  0  0  0  0  0  0  0  0  0  0  0
   57.3940   31.3230   45.2040 C   0  0  0  0  0  0  0  0  0  0  0  0
   56.6380   30.2370   44.7390 O   0  0  0  0  0  0  0  0  0  0  0  0
   57.1120   28.9280   44.6020 C   0  0  0  0  0  0  0  0  0  0  0  0
   57.9790   28.5250   43.6470 N   0  0  0  0  0  0  0  0  0  0  0  0
   58.2910   27.2070   43.7740 C   0  0  0  0  0  0  0  0  0  0  0  0
   57.6680   26.5590   44.8380 C   0  0  0  0  0  0  0  0  0  0  0  0
   57.8510   25.1550   45.2450 C   0  0  0  0  0  0  0  0  0  0  0  0
   58.0720   24.8990   46.4590 O   0  0  0  0  0  0  0  0  0  0  0  0
   57.7620   24.0750   44.2960 N   0  0  0  0  0  0  0  0  0  0  0  0
   56.6990   24.0610   43.2830 C   0  0  0  0  0  0  0  0  0  0  0  0
   56.2700   22.6180   42.9610 C   0  0  0  0  0  0  0  0  0  0  0  0
   56.2660   21.7620   44.1650 N   0  0  0  0  0  0  0  0  0  0  0  0
   55.2020   22.1480   45.1080 C   0  0  0  0  0  0  0  0  0  0  0  0
   57.5920   21.6740   44.8330 C   0  0  0  0  0  0  0  0  0  0  0  0
   58.5350   22.8470   44.5010 C   0  0  0  0  0  0  0  0  0  0  0  0
   56.7160   27.6820   45.6570 S   0  0  0  0  0  0  0  0  0  0  0  0
   57.0720   32.6540   44.8860 C   0  0  0  0  0  0  0  0  0  0  0  0
   57.8480   33.7070   45.3810 C   0  0  0  0  0  0  0  0  0  0  0  0
   60.2036   34.4720   48.8401 H   0  0  0  0  0  0  0  0  0  0  0  0
   61.1739   33.3451   47.8325 H   0  0  0  0  0  0  0  0  0  0  0  0
   61.5510   35.1013   47.8325 H   0  0  0  0  0  0  0  0  0  0  0  0
   60.1143   31.8990   47.1979 H   0  0  0  0  0  0  0  0  0  0  0  0
   58.7238   30.0327   46.3247 H   0  0  0  0  0  0  0  0  0  0  0  0
   58.9817   26.6929   43.0895 H   0  0  0  0  0  0  0  0  0  0  0  0
   55.8308   24.6190   43.6635 H   0  0  0  0  0  0  0  0  0  0  0  0
   57.0816   24.5286   42.3638 H   0  0  0  0  0  0  0  0  0  0  0  0
   55.2565   22.6354   42.5338 H   0  0  0  0  0  0  0  0  0  0  0  0
   56.9944   22.1986   42.2473 H   0  0  0  0  0  0  0  0  0  0  0  0
   55.5612   22.0177   46.1395 H   0  0  0  0  0  0  0  0  0  0  0  0
   54.9315   23.2016   44.9443 H   0  0  0  0  0  0  0  0  0  0  0  0
   54.3189   21.5130   44.9443 H   0  0  0  0  0  0  0  0  0  0  0  0
   57.4316   21.6553   45.9211 H   0  0  0  0  0  0  0  0  0  0  0  0
   58.0769   20.7586   44.4630 H   0  0  0  0  0  0  0  0  0  0  0  0
   59.2381   22.9950   45.3339 H   0  0  0  0  0  0  0  0  0  0  0  0
   59.0884   22.6131   43.5796 H   0  0  0  0  0  0  0  0  0  0  0  0
   56.2048   32.8685   44.2442 H   0  0  0  0  0  0  0  0  0  0  0  0
   57.5899   34.7437   45.1189 H   0  0  0  0  0  0  0  0  0  0  0  0
  1  2  1  0
  2  3  2  0
  2  4  1  0
  4  5  2  0
  5  6  1  0
  6  7  2  0
  7  8  1  0
  8  9  1  0
  9 10  2  0
 10 11  1  0
 11 12  2  0
 12 13  1  0
 13 14  2  0
 13 15  1  0
 15 16  1  0
 16 17  1  0
 17 18  1  0
 18 19  1  0
 18 20  1  0
 20 21  1  0
 12 22  1  0
  7 23  1  0
 23 24  2  0
 24  4  1  0
 22  9  1  0
 21 15  1  0
  1 25  1  0
  1 26  1  0
  1 27  1  0
  5 28  1  0
  6 29  1  0
 11 30  1  0
 16 31  1  0
 16 32  1  0
 17 33  1  0
 17 34  1  0
 19 35  1  0
 19 36  1  0
 19 37  1  0
 20 38  1  0
 20 39  1  0
 21 40  1  0
 21 41  1  0
 23 42  1  0
 24 43  1  0
M  END
>  <UniqueID>  (48) 
48

>  <SMILES>  (48) 
CC(=O)c1ccc(Oc2ncc(C(=O)N3CCN(C)CC3)s2)cc1

>  <Energy>  (48) 
90.45433315194224

>  <Genealogy>  (48) 
CC(=O)c1ccc(Oc2ncc(C(=O)N3CCN(C)CC3)s2)cc1 (3D coordinates assigned)
CC(=O)c1ccc(Oc2ncc(C(=O)N3CCN(C)CC3)s2)cc1 (nonaromatic ring conformer: 90.45433315194224 kcal/mol)

>  <smiles>  (48) 
CC(=O)c1ccc(Oc2ncc(C(=O)N3CCN(C)CC3)s2)cc1

>  <score_type>  (48) 
oracle

>  <origin>  (48) 
adg

>  <m_score__min__energy>  (48) 
-7.54

>  <m_primary>  (48) 
energy

$$$$
48:0
     RDKit          3D

 68 71  0  0  0  0  0  0  0  0999 V2000
   66.2410   28.9980   51.6520 C   0  0  0  0  0  0  0  0  0  0  0  0
   64.8490   29.5070   51.9060 C   0  0  0  0  0  0  0  0  0  0  0  0
   64.1770   29.0420   52.9180 N   0  0  0  0  0  0  0  0  0  0  0  0
   64.2870   30.5450   51.0700 N   0  0  0  0  0  0  0  0  0  0  0  0
   62.8550   30.5050   50.7310 C   0  0  0  0  0  0  0  0  0  0  0  0
   62.5440   31.3660   49.5040 C   0  0  0  0  0  0  0  0  0  0  0  0
   63.1090   32.7120   49.6770 N   0  0  0  0  0  0  0  0  0  0  0  0
   62.3520   33.8830   49.3180 C   0  0  0  0  0  0  0  0  0  0  0  0
   62.5660   34.9750   49.9100 O   0  0  0  0  0  0  0  0  0  0  0  0
   61.3070   33.8290   48.2770 C   0  0  0  0  0  0  0  0  0  0  0  0
   59.9650   33.7820   48.6780 C   0  0  0  0  0  0  0  0  0  0  0  0
   58.9500   33.6410   47.7320 C   0  0  0  0  0  0  0  0  0  0  0  0
   59.2600   33.5510   46.3700 C   0  0  0  0  0  0  0  0  0  0  0  0
   57.9800   33.2830   45.1820 S   0  0  0  0  0  0  0  0  0  0  0  0
   56.8390   34.2230   45.4560 O   0  0  0  0  0  0  0  0  0  0  0  0
   58.5110   33.5820   43.8060 O   0  0  0  0  0  0  0  0  0  0  0  0
   57.3930   31.6370   45.2480 N   0  0  0  0  0  0  0  0  0  0  0  0
   58.3580   30.7480   45.9470 C   0  0  0  0  0  0  0  0  0  0  0  0
   58.9970   29.6990   45.0280 C   0  0  0  0  0  0  0  0  0  0  0  0
   57.9390   28.9500   44.3390 N   0  0  0  0  0  0  0  0  0  0  0  0
   58.1230   27.5630   43.9960 C   0  0  0  0  0  0  0  0  0  0  0  0
   57.8000   27.1540   42.8490 O   0  0  0  0  0  0  0  0  0  0  0  0
   58.7140   26.6340   44.9150 N   0  0  0  0  0  0  0  0  0  0  0  0
   58.0420   25.5430   45.5600 C   0  0  0  0  0  0  0  0  0  0  0  0
   58.4550   24.2090   45.3810 C   0  0  0  0  0  0  0  0  0  0  0  0
   57.7840   23.1720   46.0350 C   0  0  0  0  0  0  0  0  0  0  0  0
   56.7110   23.4570   46.8840 C   0  0  0  0  0  0  0  0  0  0  0  0
   56.3110   24.7820   47.0830 C   0  0  0  0  0  0  0  0  0  0  0  0
   56.9790   25.8210   46.4280 C   0  0  0  0  0  0  0  0  0  0  0  0
   56.7640   29.6740   43.8390 C   0  0  0  0  0  0  0  0  0  0  0  0
   56.9930   31.1880   43.8960 C   0  0  0  0  0  0  0  0  0  0  0  0
   60.5960   33.6490   45.9590 C   0  0  0  0  0  0  0  0  0  0  0  0
   61.6280   33.8000   46.9000 C   0  0  0  0  0  0  0  0  0  0  0  0
   63.0500   33.8930   46.4140 C   0  0  0  0  0  0  0  0  0  0  0  0
   64.4480   32.8780   50.2620 C   0  0  0  0  0  0  0  0  0  0  0  0
   65.1680   31.5330   50.4270 C   0  0  0  0  0  0  0  0  0  0  0  0
   66.7449   28.8137   52.6123 H   0  0  0  0  0  0  0  0  0  0  0  0
   66.1897   28.0604   51.0790 H   0  0  0  0  0  0  0  0  0  0  0  0
   66.8066   29.7475   51.0790 H   0  0  0  0  0  0  0  0  0  0  0  0
   63.8700   28.0460   52.9590 H   0  0  0  0  0  0  0  0  0  0  0  0
   63.9040   29.6620   53.7150 H   0  0  0  0  0  0  0  0  0  0  0  0
   62.5667   29.4647   50.5199 H   0  0  0  0  0  0  0  0  0  0  0  0
   62.2872   30.9034   51.5848 H   0  0  0  0  0  0  0  0  0  0  0  0
   62.9835   30.8987   48.6104 H   0  0  0  0  0  0  0  0  0  0  0  0
   61.4532   31.4451   49.3859 H   0  0  0  0  0  0  0  0  0  0  0  0
   59.7106   33.8568   49.7456 H   0  0  0  0  0  0  0  0  0  0  0  0
   57.9002   33.6003   48.0580 H   0  0  0  0  0  0  0  0  0  0  0  0
   59.1579   31.3700   46.3750 H   0  0  0  0  0  0  0  0  0  0  0  0
   57.7960   30.2030   46.7198 H   0  0  0  0  0  0  0  0  0  0  0  0
   59.6354   30.2005   44.2858 H   0  0  0  0  0  0  0  0  0  0  0  0
   59.6085   29.0077   45.6265 H   0  0  0  0  0  0  0  0  0  0  0  0
   59.3081   23.9823   44.7246 H   0  0  0  0  0  0  0  0  0  0  0  0
   58.1009   22.1299   45.8813 H   0  0  0  0  0  0  0  0  0  0  0  0
   56.1815   22.6395   47.3953 H   0  0  0  0  0  0  0  0  0  0  0  0
   55.4701   25.0071   47.7554 H   0  0  0  0  0  0  0  0  0  0  0  0
   56.6677   26.8627   46.5955 H   0  0  0  0  0  0  0  0  0  0  0  0
   56.5738   29.3770   42.7971 H   0  0  0  0  0  0  0  0  0  0  0  0
   55.9000   29.4240   44.4722 H   0  0  0  0  0  0  0  0  0  0  0  0
   57.7878   31.4541   43.1837 H   0  0  0  0  0  0  0  0  0  0  0  0
   56.0460   31.6851   43.6390 H   0  0  0  0  0  0  0  0  0  0  0  0
   60.8395   33.6072   44.8871 H   0  0  0  0  0  0  0  0  0  0  0  0
   63.7303   33.9375   47.2772 H   0  0  0  0  0  0  0  0  0  0  0  0
   63.2879   33.0085   45.8049 H   0  0  0  0  0  0  0  0  0  0  0  0
   63.1707   34.8010   45.8049 H   0  0  0  0  0  0  0  0  0  0  0  0
   65.0469   33.5241   49.6033 H   0  0  0  0  0  0  0  0  0  0  0  0
   64.3324   33.3287   51.2587 H   0  0  0  0  0  0  0  0  0  0  0  0
   65.4664   31.1596   49.4363 H   0  0  0  0  0  0  0  0  0  0  0  0
   66.0536   31.6823   51.0621 H   0  0  0  0  0  0  0  0  0  0  0  0
  1  2  1  0
  2  3  2  0
  2  4  1  0
  4  5  1  0
  5  6  1  0
  6  7  1  0
  7  8  1  0
  8  9  2  0
  8 10  1  0
 10 11  2  0
 11 12  1  0
 12 13  2  0
 13 14  1  0
 14 15  2  0
 14 16  2  0
 14 17  1  0
 17 18  1  0
 18 19  1  0
 19 20  1  0
 20 21  1  0
 21 22  2  0
 21 23  1  0
 23 24  1  0
 24 25  2  0
 25 26  1  0
 26 27  2  0
 27 28  1  0
 28 29  2  0
 20 30  1  0
 30 31  1  0
 13 32  1  0
 32 33  2  0
 33 34  1  0
  7 35  1  0
 35 36  1  0
 36  4  1  0
 33 10  1  0
 31 17  1  0
 29 24  1  0
  1 37  1  0
  1 38  1  0
  1 39  1  0
  3 40  1  0
  3 41  1  0
  5 42  1  0
  5 43  1  0
  6 44  1  0
  6 45  1  0
 11 46  1  0
 12 47  1  0
 18 48  1  0
 18 49  1  0
 19 50  1  0
 19 51  1  0
 25 52  1  0
 26 53  1  0
 27 54  1  0
 28 55  1  0
 29 56  1  0
 30 57  1  0
 30 58  1  0
 31 59  1  0
 31 60  1  0
 32 61  1  0
 34 62  1  0
 34 63  1  0
 34 64  1  0
 35 65  1  0
 35 66  1  0
 36 67  1  0
 36 68  1  0
M  CHG  2   3   1  23  -1
M  END
>  <UniqueID>  (49) 
49

>  <SMILES>  (49) 
CC(=[NH2+])N1CCN(C(=O)c2ccc(S(=O)(=O)N3CCN(C(=O)[N-]c4ccccc4)CC3)cc2C)CC1

>  <Energy>  (49) 
87.18078302424549

>  <Genealogy>  (49) 
CC(=[NH2+])N1CCN(C(=O)c2ccc(S(=O)(=O)N3CCN(C(=O)[N-]c4ccccc4)CC3)cc2C)CC1 (protonated)
CC(=[NH2+])N1CCN(C(=O)c2ccc(S(=O)(=O)N3CCN(C(=O)[N-]c4ccccc4)CC3)cc2C)CC1 (3D coordinates assigned)
CC(=[NH2+])N1CCN(C(=O)c2ccc(S(=O)(=O)N3CCN(C(=O)[N-]c4ccccc4)CC3)cc2C)CC1 (nonaromatic ring conformer: 87.18078302424549 kcal/mol)

>  <smiles>  (49) 
CC(=N)N1CCN(C(=O)c2ccc(S(=O)(=O)N3CCN(C(=O)Nc4ccccc4)CC3)cc2C)CC1

>  <score_type>  (49) 
oracle

>  <origin>  (49) 
adg

>  <m_score__min__energy>  (49) 
-10.550000000000001

>  <m_primary>  (49) 
energy

$$$$
49:0
     RDKit          3D

 67 71  0  0  0  0  0  0  0  0999 V2000
   56.6590   33.7550   45.3120 O   0  0  0  0  0  0  0  0  0  0  0  0
   57.7170   33.0880   45.4790 C   0  0  0  0  0  0  0  0  0  0  0  0
   57.7740   31.6810   45.0140 C   0  0  0  0  0  0  0  0  0  0  0  0
   56.8740   31.2070   44.0400 C   0  0  0  0  0  0  0  0  0  0  0  0
   56.9420   29.8830   43.5970 C   0  0  0  0  0  0  0  0  0  0  0  0
   57.9150   29.0220   44.1080 C   0  0  0  0  0  0  0  0  0  0  0  0
   58.8330   29.4880   45.0580 C   0  0  0  0  0  0  0  0  0  0  0  0
   60.1030   28.3990   45.6970 S   0  0  0  0  0  0  0  0  0  0  0  0
   60.0610   29.1520   47.3190 C   0  0  0  0  0  0  0  0  0  0  0  0
   60.9380   30.1250   47.7780 C   0  0  0  0  0  0  0  0  0  0  0  0
   60.7080   30.5360   49.0530 N   0  0  0  0  0  0  0  0  0  0  0  0
   59.6470   29.8930   49.5950 C   0  0  0  0  0  0  0  0  0  0  0  0
   59.2010   30.1000   50.7980 N   0  0  0  0  0  0  0  0  0  0  0  0
   57.8870   30.5710   51.1500 C   0  0  0  0  0  0  0  0  0  0  0  0
   57.0300   29.7790   51.6350 O   0  0  0  0  0  0  0  0  0  0  0  0
   57.5380   31.9630   50.9640 N   0  0  0  0  0  0  0  0  0  0  0  0
   58.5790   32.6900   50.2160 C   0  0  0  0  0  0  0  0  0  0  0  0
   59.4820   33.3900   51.2300 C   0  0  0  0  0  0  0  0  0  0  0  0
   58.7830   33.2490   52.5750 C   0  0  0  0  0  0  0  0  0  0  0  0
   57.4230   32.6480   52.2590 C   0  0  0  0  0  0  0  0  0  0  0  0
   58.9510   28.7890   48.5310 S   0  0  0  0  0  0  0  0  0  0  0  0
   58.7620   30.8110   45.5080 C   0  0  0  0  0  0  0  0  0  0  0  0
   58.8240   33.6920   46.1660 N   0  0  0  0  0  0  0  0  0  0  0  0
   60.1530   33.7270   45.5450 C   0  0  0  0  0  0  0  0  0  0  0  0
   61.2640   33.5310   46.5980 C   0  0  0  0  0  0  0  0  0  0  0  0
   60.7790   33.7490   47.9790 N   0  0  0  0  0  0  0  0  0  0  0  0
   61.9010   33.8740   48.9320 C   0  0  0  0  0  0  0  0  0  0  0  0
   63.1930   33.2930   48.3340 C   0  0  0  0  0  0  0  0  0  0  0  0
   64.0250   32.6160   49.3940 C   0  0  0  0  0  0  0  0  0  0  0  0
   63.5000   31.5320   50.1210 C   0  0  0  0  0  0  0  0  0  0  0  0
   64.2960   30.8570   51.0530 C   0  0  0  0  0  0  0  0  0  0  0  0
   65.6210   31.2510   51.2580 C   0  0  0  0  0  0  0  0  0  0  0  0
   66.1540   32.3190   50.5300 C   0  0  0  0  0  0  0  0  0  0  0  0
   65.3600   33.0000   49.6000 C   0  0  0  0  0  0  0  0  0  0  0  0
   59.8670   34.9060   48.0440 C   0  0  0  0  0  0  0  0  0  0  0  0
   58.5610   34.5390   47.3350 C   0  0  0  0  0  0  0  0  0  0  0  0
   56.1122   31.8834   43.6250 H   0  0  0  0  0  0  0  0  0  0  0  0
   56.2274   29.5187   42.8442 H   0  0  0  0  0  0  0  0  0  0  0  0
   57.9608   27.9779   43.7647 H   0  0  0  0  0  0  0  0  0  0  0  0
   61.7528   30.5305   47.1602 H   0  0  0  0  0  0  0  0  0  0  0  0
   56.6240   32.0260   50.4510 H   0  0  0  0  0  0  0  0  0  0  0  0
   59.1696   31.9833   49.6145 H   0  0  0  0  0  0  0  0  0  0  0  0
   58.1213   33.4254   49.5380 H   0  0  0  0  0  0  0  0  0  0  0  0
   60.4703   32.9080   51.2596 H   0  0  0  0  0  0  0  0  0  0  0  0
   59.6440   34.4457   50.9667 H   0  0  0  0  0  0  0  0  0  0  0  0
   59.3541   32.5826   53.2381 H   0  0  0  0  0  0  0  0  0  0  0  0
   58.6941   34.2146   53.0943 H   0  0  0  0  0  0  0  0  0  0  0  0
   57.1383   31.9289   53.0412 H   0  0  0  0  0  0  0  0  0  0  0  0
   56.6513   33.4309   52.2182 H   0  0  0  0  0  0  0  0  0  0  0  0
   59.4847   31.1733   46.2540 H   0  0  0  0  0  0  0  0  0  0  0  0
   60.2212   32.9234   44.7970 H   0  0  0  0  0  0  0  0  0  0  0  0
   60.2910   34.7098   45.0705 H   0  0  0  0  0  0  0  0  0  0  0  0
   61.6496   32.5040   46.5173 H   0  0  0  0  0  0  0  0  0  0  0  0
   62.0498   34.2743   46.3979 H   0  0  0  0  0  0  0  0  0  0  0  0
   62.0584   34.9372   49.1663 H   0  0  0  0  0  0  0  0  0  0  0  0
   61.6520   33.3134   49.8451 H   0  0  0  0  0  0  0  0  0  0  0  0
   62.9312   32.5578   47.5588 H   0  0  0  0  0  0  0  0  0  0  0  0
   63.7799   34.1172   47.9025 H   0  0  0  0  0  0  0  0  0  0  0  0
   62.4600   31.2139   49.9561 H   0  0  0  0  0  0  0  0  0  0  0  0
   63.8783   30.0153   51.6249 H   0  0  0  0  0  0  0  0  0  0  0  0
   66.2449   30.7206   51.9925 H   0  0  0  0  0  0  0  0  0  0  0  0
   67.1988   32.6245   50.6883 H   0  0  0  0  0  0  0  0  0  0  0  0
   65.7833   33.8391   49.0284 H   0  0  0  0  0  0  0  0  0  0  0  0
   59.6604   35.1564   49.0950 H   0  0  0  0  0  0  0  0  0  0  0  0
   60.3286   35.7762   47.5545 H   0  0  0  0  0  0  0  0  0  0  0  0
   57.9106   33.9950   48.0357 H   0  0  0  0  0  0  0  0  0  0  0  0
   58.0706   35.4640   46.9975 H   0  0  0  0  0  0  0  0  0  0  0  0
  1  2  2  0
  2  3  1  0
  3  4  2  0
  4  5  1  0
  5  6  2  0
  6  7  1  0
  7  8  1  0
  8  9  1  0
  9 10  2  0
 10 11  1  0
 11 12  1  0
 12 13  2  3
 13 14  1  0
 14 15  2  0
 14 16  1  0
 16 17  1  0
 17 18  1  0
 18 19  1  0
 19 20  1  0
 12 21  1  0
  7 22  2  0
  2 23  1  0
 23 24  1  0
 24 25  1  0
 25 26  1  0
 26 27  1  0
 27 28  1  0
 28 29  1  0
 29 30  2  0
 30 31  1  0
 31 32  2  0
 32 33  1  0
 33 34  2  0
 26 35  1  0
 35 36  1  0
 22  3  1  0
 36 23  1  0
 21  9  1  0
 34 29  1  0
 20 16  1  0
  4 37  1  0
  5 38  1  0
  6 39  1  0
 10 40  1  0
 16 41  1  0
 17 42  1  0
 17 43  1  0
 18 44  1  0
 18 45  1  0
 19 46  1  0
 19 47  1  0
 20 48  1  0
 20 49  1  0
 22 50  1  0
 24 51  1  0
 24 52  1  0
 25 53  1  0
 25 54  1  0
 27 55  1  0
 27 56  1  0
 28 57  1  0
 28 58  1  0
 30 59  1  0
 31 60  1  0
 32 61  1  0
 33 62  1  0
 34 63  1  0
 35 64  1  0
 35 65  1  0
 36 66  1  0
 36 67  1  0
M  CHG  2  11  -1  16   1
M  END
>  <UniqueID>  (50) 
50

>  <SMILES>  (50) 
O=C(c1cccc(Sc2c[n-]c(=NC(=O)[NH+]3CCCC3)s2)c1)N1CCN(CCc2ccccc2)CC1

>  <Energy>  (50) 
109.98302696850604

>  <Genealogy>  (50) 
O=C(c1cccc(Sc2c[n-]c(=NC(=O)[NH+]3CCCC3)s2)c1)N1CCN(CCc2ccccc2)CC1 (protonated)
O=C(c1cccc(Sc2c[n-]c(=NC(=O)[NH+]3CCCC3)s2)c1)N1CCN(CCc2ccccc2)CC1 (3D coordinates assigned)
O=C(c1cccc(Sc2c[n-]c(=NC(=O)[NH+]3CCCC3)s2)c1)N1CCN(CCc2ccccc2)CC1 (nonaromatic ring conformer: 109.98302696850604 kcal/mol)

>  <smiles>  (50) 
O=C(N=c1[nH]cc(Sc2cccc(C(=O)N3CCN(CCc4ccccc4)CC3)c2)s1)N1CCCC1

>  <score_type>  (50) 
oracle

>  <origin>  (50) 
adg

>  <m_score__min__energy>  (50) 
-10.779999999999999

>  <m_primary>  (50) 
energy

$$$$
50:0
     RDKit          3D

 69 73  0  0  0  0  0  0  0  0999 V2000
   59.0210   28.0120   48.5160 O   0  0  0  0  0  0  0  0  0  0  0  0
   59.1630   29.1820   48.9600 C   0  0  0  0  0  0  0  0  0  0  0  0
   58.1480   29.7070   49.8330 N   0  0  0  0  0  0  0  0  0  0  0  0
   58.3460   30.5210   50.9990 C   0  0  0  0  0  0  0  0  0  0  0  0
   57.4390   31.5490   51.2620 C   0  0  0  0  0  0  0  0  0  0  0  0
   57.6280   32.3880   52.3570 C   0  0  0  0  0  0  0  0  0  0  0  0
   58.7190   32.2050   53.2120 C   0  0  0  0  0  0  0  0  0  0  0  0
   58.9220   33.3600   54.5270 Cl  0  0  0  0  0  0  0  0  0  0  0  0
   59.6230   31.1380   52.9940 C   0  0  0  0  0  0  0  0  0  0  0  0
   61.0290   30.9350   54.0760 S   0  0  0  0  0  0  0  0  0  0  0  0
   60.5470   30.2910   55.3470 O   0  0  0  0  0  0  0  0  0  0  0  0
   61.5540   32.3050   54.4070 O   0  0  0  0  0  0  0  0  0  0  0  0
   62.3610   29.9700   53.4760 N   0  0  0  0  0  0  0  0  0  0  0  0
   61.8960   28.6720   52.9320 C   0  0  0  0  0  0  0  0  0  0  0  0
   62.9960   27.6030   53.0020 C   0  0  0  0  0  0  0  0  0  0  0  0
   64.2560   28.2070   52.8140 O   0  0  0  0  0  0  0  0  0  0  0  0
   64.6000   28.9800   53.9520 C   0  0  0  0  0  0  0  0  0  0  0  0
   63.4350   29.8500   54.4810 C   0  0  0  0  0  0  0  0  0  0  0  0
   59.4140   30.2970   51.8850 C   0  0  0  0  0  0  0  0  0  0  0  0
   60.3370   29.9820   48.5300 C   0  0  0  0  0  0  0  0  0  0  0  0
   60.5740   30.2000   47.1630 C   0  0  0  0  0  0  0  0  0  0  0  0
   61.6980   30.9150   46.7450 C   0  0  0  0  0  0  0  0  0  0  0  0
   62.5880   31.4350   47.6860 C   0  0  0  0  0  0  0  0  0  0  0  0
   62.3360   31.2820   49.0560 C   0  0  0  0  0  0  0  0  0  0  0  0
   63.4540   31.9390   50.2590 S   0  0  0  0  0  0  0  0  0  0  0  0
   63.6540   30.8970   51.3240 O   0  0  0  0  0  0  0  0  0  0  0  0
   64.7860   32.1900   49.6090 O   0  0  0  0  0  0  0  0  0  0  0  0
   62.8900   33.4160   51.0240 N   0  0  0  0  0  0  0  0  0  0  0  0
   61.5440   33.3070   51.5920 C   0  0  0  0  0  0  0  0  0  0  0  0
   60.3940   33.5620   50.5890 C   0  0  0  0  0  0  0  0  0  0  0  0
   60.8020   34.0020   49.2370 N   0  0  0  0  0  0  0  0  0  0  0  0
   59.8280   33.9400   48.1540 C   0  0  0  0  0  0  0  0  0  0  0  0
   59.9850   34.7140   46.9800 C   0  0  0  0  0  0  0  0  0  0  0  0
   59.0590   34.6340   45.9380 C   0  0  0  0  0  0  0  0  0  0  0  0
   57.9550   33.7890   46.0430 C   0  0  0  0  0  0  0  0  0  0  0  0
   57.7740   33.0220   47.1920 C   0  0  0  0  0  0  0  0  0  0  0  0
   58.6960   33.0970   48.2390 C   0  0  0  0  0  0  0  0  0  0  0  0
   62.1350   34.5730   48.9680 C   0  0  0  0  0  0  0  0  0  0  0  0
   63.0310   34.6190   50.2010 C   0  0  0  0  0  0  0  0  0  0  0  0
   61.2160   30.5470   49.4710 C   0  0  0  0  0  0  0  0  0  0  0  0
   56.5717   31.6968   50.6017 H   0  0  0  0  0  0  0  0  0  0  0  0
   56.9132   33.2013   52.5509 H   0  0  0  0  0  0  0  0  0  0  0  0
   62.7630   30.5140   52.6750 H   0  0  0  0  0  0  0  0  0  0  0  0
   61.0286   28.3304   53.5159 H   0  0  0  0  0  0  0  0  0  0  0  0
   61.6256   28.8187   51.8759 H   0  0  0  0  0  0  0  0  0  0  0  0
   62.9682   27.1132   53.9865 H   0  0  0  0  0  0  0  0  0  0  0  0
   62.8286   26.8548   52.2133 H   0  0  0  0  0  0  0  0  0  0  0  0
   64.9170   28.2972   54.7541 H   0  0  0  0  0  0  0  0  0  0  0  0
   65.4040   29.6659   53.6468 H   0  0  0  0  0  0  0  0  0  0  0  0
   63.0253   29.3868   55.3907 H   0  0  0  0  0  0  0  0  0  0  0  0
   63.8223   30.8561   54.6995 H   0  0  0  0  0  0  0  0  0  0  0  0
   60.0962   29.4523   51.7091 H   0  0  0  0  0  0  0  0  0  0  0  0
   59.8693   29.8047   46.4166 H   0  0  0  0  0  0  0  0  0  0  0  0
   61.8825   31.0688   45.6716 H   0  0  0  0  0  0  0  0  0  0  0  0
   63.4907   31.9669   47.3510 H   0  0  0  0  0  0  0  0  0  0  0  0
   61.4251   32.2916   51.9980 H   0  0  0  0  0  0  0  0  0  0  0  0
   61.4666   34.0926   52.3581 H   0  0  0  0  0  0  0  0  0  0  0  0
   59.8264   32.6259   50.4818 H   0  0  0  0  0  0  0  0  0  0  0  0
   59.8110   34.3945   51.0098 H   0  0  0  0  0  0  0  0  0  0  0  0
   60.8490   35.3884   46.8868 H   0  0  0  0  0  0  0  0  0  0  0  0
   59.2010   35.2399   45.0309 H   0  0  0  0  0  0  0  0  0  0  0  0
   57.2279   33.7280   45.2198 H   0  0  0  0  0  0  0  0  0  0  0  0
   56.9028   32.3556   47.2750 H   0  0  0  0  0  0  0  0  0  0  0  0
   58.5389   32.4909   49.1434 H   0  0  0  0  0  0  0  0  0  0  0  0
   62.6291   33.9598   48.2000 H   0  0  0  0  0  0  0  0  0  0  0  0
   61.9841   35.6107   48.6358 H   0  0  0  0  0  0  0  0  0  0  0  0
   64.0783   34.7070   49.8764 H   0  0  0  0  0  0  0  0  0  0  0  0
   62.7300   35.4850   50.8089 H   0  0  0  0  0  0  0  0  0  0  0  0
   61.0229   30.4109   50.5453 H   0  0  0  0  0  0  0  0  0  0  0  0
  1  2  2  0
  2  3  1  0
  3  4  1  0
  4  5  2  0
  5  6  1  0
  6  7  2  0
  7  8  1  0
  7  9  1  0
  9 10  1  0
 10 11  2  0
 10 12  2  0
 10 13  1  0
 13 14  1  0
 14 15  1  0
 15 16  1  0
 16 17  1  0
 17 18  1  0
  9 19  2  0
  2 20  1  0
 20 21  2  0
 21 22  1  0
 22 23  2  0
 23 24  1  0
 24 25  1  0
 25 26  2  0
 25 27  2  0
 25 28  1  0
 28 29  1  0
 29 30  1  0
 30 31  1  0
 31 32  1  0
 32 33  2  0
 33 34  1  0
 34 35  2  0
 35 36  1  0
 36 37  2  0
 31 38  1  0
 38 39  1  0
 24 40  2  0
 19  4  1  0
 40 20  1  0
 18 13  1  0
 39 28  1  0
 37 32  1  0
  5 41  1  0
  6 42  1  0
 13 43  1  0
 14 44  1  0
 14 45  1  0
 15 46  1  0
 15 47  1  0
 17 48  1  0
 17 49  1  0
 18 50  1  0
 18 51  1  0
 19 52  1  0
 21 53  1  0
 22 54  1  0
 23 55  1  0
 29 56  1  0
 29 57  1  0
 30 58  1  0
 30 59  1  0
 33 60  1  0
 34 61  1  0
 35 62  1  0
 36 63  1  0
 37 64  1  0
 38 65  1  0
 38 66  1  0
 39 67  1  0
 39 68  1  0
 40 69  1  0
M  CHG  2   3  -1  13   1
M  END
>  <UniqueID>  (51) 
51

>  <SMILES>  (51) 
O=C([N-]c1ccc(Cl)c(S(=O)(=O)[NH+]2CCOCC2)c1)c1cccc(S(=O)(=O)N2CCN(c3ccccc3)CC2)c1

>  <Energy>  (51) 
100.60466504880964

>  <Genealogy>  (51) 
O=C([N-]c1ccc(Cl)c(S(=O)(=O)[NH+]2CCOCC2)c1)c1cccc(S(=O)(=O)N2CCN(c3ccccc3)CC2)c1 (protonated)
O=C([N-]c1ccc(Cl)c(S(=O)(=O)[NH+]2CCOCC2)c1)c1cccc(S(=O)(=O)N2CCN(c3ccccc3)CC2)c1 (3D coordinates assigned)
O=C([N-]c1ccc(Cl)c(S(=O)(=O)[NH+]2CCOCC2)c1)c1cccc(S(=O)(=O)N2CCN(c3ccccc3)CC2)c1 (nonaromatic ring conformer: 100.60466504880964 kcal/mol)

>  <smiles>  (51) 
O=C(Nc1ccc(Cl)c(S(=O)(=O)N2CCOCC2)c1)c1cccc(S(=O)(=O)N2CCN(c3ccccc3)CC2)c1

>  <score_type>  (51) 
oracle

>  <origin>  (51) 
adg

>  <m_score__min__energy>  (51) 
-10.56

>  <m_primary>  (51) 
energy

$$$$
51:0
     RDKit          3D

 66 69  0  0  0  0  0  0  0  0999 V2000
   58.9910   33.5590   51.6880 C   0  0  0  0  0  0  0  0  0  0  0  0
   60.5140   33.4630   51.5070 C   0  0  0  0  0  0  0  0  0  0  0  0
   61.1880   33.4530   52.8900 C   0  0  0  0  0  0  0  0  0  0  0  0
   60.9230   32.2110   50.6700 C   0  0  2  0  0  0  0  0  0  0  0  0
   61.4720   31.1410   51.5190 N   0  0  0  0  0  0  0  0  0  0  0  0
   61.8710   32.5530   49.5130 C   0  0  0  0  0  0  0  0  0  0  0  0
   63.2170   32.1420   49.6260 C   0  0  0  0  0  0  0  0  0  0  0  0
   64.1340   32.3870   48.6030 C   0  0  0  0  0  0  0  0  0  0  0  0
   63.7300   33.0430   47.4440 C   0  0  0  0  0  0  0  0  0  0  0  0
   62.4070   33.4570   47.3050 C   0  0  0  0  0  0  0  0  0  0  0  0
   61.4670   33.2220   48.3220 C   0  0  0  0  0  0  0  0  0  0  0  0
   60.1160   33.6620   48.1070 N   0  0  0  0  0  0  0  0  0  0  0  0
   59.8800   34.7360   47.1230 C   0  0  0  0  0  0  0  0  0  0  0  0
   58.5090   34.5870   46.4560 C   0  0  0  0  0  0  0  0  0  0  0  0
   58.3010   33.1780   46.0890 N   0  0  0  0  0  0  0  0  0  0  0  0
   58.2180   32.7850   44.6990 C   0  0  0  0  0  0  0  0  0  0  0  0
   58.4510   33.6250   43.7880 O   0  0  0  0  0  0  0  0  0  0  0  0
   57.9330   31.3920   44.3100 C   0  0  0  0  0  0  0  0  0  0  0  0
   56.7860   31.0750   43.5690 C   0  0  0  0  0  0  0  0  0  0  0  0
   56.5000   29.7440   43.2540 C   0  0  0  0  0  0  0  0  0  0  0  0
   57.3530   28.7230   43.6830 C   0  0  0  0  0  0  0  0  0  0  0  0
   58.5140   29.0290   44.4100 C   0  0  0  0  0  0  0  0  0  0  0  0
   59.3850   27.9270   44.9510 C   0  0  0  0  0  0  0  0  0  0  0  0
   58.5500   26.8060   45.4140 N   0  0  0  0  0  0  0  0  0  0  0  0
   58.0950   25.9020   44.4900 C   0  0  0  0  0  0  0  0  0  0  0  0
   57.2580   24.8510   44.8710 C   0  0  0  0  0  0  0  0  0  0  0  0
   56.6300   23.5990   43.5730 Br  0  0  0  0  0  0  0  0  0  0  0  0
   56.8790   24.7290   46.2060 C   0  0  0  0  0  0  0  0  0  0  0  0
   57.3360   25.6530   47.1410 C   0  0  0  0  0  0  0  0  0  0  0  0
   58.1760   26.6950   46.7310 C   0  0  0  0  0  0  0  0  0  0  0  0
   58.5790   27.5250   47.5910 O   0  0  0  0  0  0  0  0  0  0  0  0
   58.8020   30.3680   44.7130 C   0  0  0  0  0  0  0  0  0  0  0  0
   58.4360   32.1510   47.1390 C   0  0  0  0  0  0  0  0  0  0  0  0
   59.0220   32.7360   48.4300 C   0  0  0  0  0  0  0  0  0  0  0  0
   58.7495   33.5742   52.7611 H   0  0  0  0  0  0  0  0  0  0  0  0
   58.6232   34.4821   51.2163 H   0  0  0  0  0  0  0  0  0  0  0  0
   58.5102   32.6894   51.2163 H   0  0  0  0  0  0  0  0  0  0  0  0
   60.8566   34.3420   50.9413 H   0  0  0  0  0  0  0  0  0  0  0  0
   60.4165   33.4644   53.6740 H   0  0  0  0  0  0  0  0  0  0  0  0
   61.8014   32.5457   52.9924 H   0  0  0  0  0  0  0  0  0  0  0  0
   61.8280   34.3417   52.9924 H   0  0  0  0  0  0  0  0  0  0  0  0
   59.9967   31.8318   50.2136 H   0  0  0  0  0  0  0  0  0  0  0  0
   61.5970   30.2610   50.9670 H   0  0  0  0  0  0  0  0  0  0  0  0
   60.8030   30.9270   52.2930 H   0  0  0  0  0  0  0  0  0  0  0  0
   62.3810   31.4260   51.9460 H   0  0  0  0  0  0  0  0  0  0  0  0
   63.5484   31.6199   50.5357 H   0  0  0  0  0  0  0  0  0  0  0  0
   65.1788   32.0608   48.7130 H   0  0  0  0  0  0  0  0  0  0  0  0
   64.4544   33.2344   46.6386 H   0  0  0  0  0  0  0  0  0  0  0  0
   62.0943   33.9750   46.3863 H   0  0  0  0  0  0  0  0  0  0  0  0
   59.9255   35.7082   47.6356 H   0  0  0  0  0  0  0  0  0  0  0  0
   60.6543   34.6704   46.3444 H   0  0  0  0  0  0  0  0  0  0  0  0
   57.7225   34.9049   47.1563 H   0  0  0  0  0  0  0  0  0  0  0  0
   58.4667   35.2144   45.5535 H   0  0  0  0  0  0  0  0  0  0  0  0
   56.1098   31.8756   43.2348 H   0  0  0  0  0  0  0  0  0  0  0  0
   55.6022   29.4993   42.6675 H   0  0  0  0  0  0  0  0  0  0  0  0
   57.1133   27.6751   43.4498 H   0  0  0  0  0  0  0  0  0  0  0  0
   60.0609   27.5744   44.1580 H   0  0  0  0  0  0  0  0  0  0  0  0
   59.9720   28.3134   45.7972 H   0  0  0  0  0  0  0  0  0  0  0  0
   58.3925   26.0054   43.4361 H   0  0  0  0  0  0  0  0  0  0  0  0
   56.2209   23.9054   46.5200 H   0  0  0  0  0  0  0  0  0  0  0  0
   57.0387   25.5650   48.1964 H   0  0  0  0  0  0  0  0  0  0  0  0
   59.7167   30.6166   45.2711 H   0  0  0  0  0  0  0  0  0  0  0  0
   57.4432   31.7303   47.3564 H   0  0  0  0  0  0  0  0  0  0  0  0
   59.1213   31.3726   46.7723 H   0  0  0  0  0  0  0  0  0  0  0  0
   58.2349   33.2772   48.9755 H   0  0  0  0  0  0  0  0  0  0  0  0
   59.4116   31.9184   49.0543 H   0  0  0  0  0  0  0  0  0  0  0  0
  1  2  1  0
  2  3  1  0
  2  4  1  0
  4  5  1  0
  4  6  1  0
  6  7  2  0
  7  8  1  0
  8  9  2  0
  9 10  1  0
 10 11  2  0
 11 12  1  0
 12 13  1  0
 13 14  1  0
 14 15  1  0
 15 16  1  0
 16 17  2  0
 16 18  1  0
 18 19  2  0
 19 20  1  0
 20 21  2  0
 21 22  1  0
 22 23  1  0
 23 24  1  0
 24 25  1  0
 25 26  2  0
 26 27  1  0
 26 28  1  0
 28 29  2  0
 29 30  1  0
 30 31  2  0
 22 32  2  0
 15 33  1  0
 33 34  1  0
 11  6  1  0
 34 12  1  0
 32 18  1  0
 30 24  1  0
  1 35  1  0
  1 36  1  0
  1 37  1  0
  2 38  1  0
  3 39  1  0
  3 40  1  0
  3 41  1  0
  4 42  1  6
  5 43  1  0
  5 44  1  0
  5 45  1  0
  7 46  1  0
  8 47  1  0
  9 48  1  0
 10 49  1  0
 13 50  1  0
 13 51  1  0
 14 52  1  0
 14 53  1  0
 19 54  1  0
 20 55  1  0
 21 56  1  0
 23 57  1  0
 23 58  1  0
 25 59  1  0
 28 60  1  0
 29 61  1  0
 32 62  1  0
 33 63  1  0
 33 64  1  0
 34 65  1  0
 34 66  1  0
M  CHG  1   5   1
M  END
>  <UniqueID>  (52) 
52

>  <SMILES>  (52) 
CC(C)[C@H]([NH3+])c1ccccc1N1CCN(C(=O)c2cccc(Cn3cc(Br)ccc3=O)c2)CC1

>  <Energy>  (52) 
83.36425397912375

>  <Genealogy>  (52) 
CC(C)C([NH3+])c1ccccc1N1CCN(C(=O)c2cccc(Cn3cc(Br)ccc3=O)c2)CC1 (protonated)
CC(C)[C@H]([NH3+])c1ccccc1N1CCN(C(=O)c2cccc(Cn3cc(Br)ccc3=O)c2)CC1 (chirality)
CC(C)[C@H]([NH3+])c1ccccc1N1CCN(C(=O)c2cccc(Cn3cc(Br)ccc3=O)c2)CC1 (3D coordinates assigned)
CC(C)[C@H]([NH3+])c1ccccc1N1CCN(C(=O)c2cccc(Cn3cc(Br)ccc3=O)c2)CC1 (nonaromatic ring conformer: 83.36425397912375 kcal/mol)

>  <smiles>  (52) 
CC(C)C(N)c1ccccc1N1CCN(C(=O)c2cccc(Cn3cc(Br)ccc3=O)c2)CC1

>  <score_type>  (52) 
oracle

>  <origin>  (52) 
adg

>  <m_score__min__energy>  (52) 
-8.1300000000000008

>  <m_primary>  (52) 
energy

$$$$
52:0
     RDKit          3D

 58 61  0  0  0  0  0  0  0  0999 V2000
   60.4520   27.3430   47.0350 C   0  0  0  0  0  0  0  0  0  0  0  0
   59.6500   28.4100   47.1910 C   0  0  0  0  0  0  0  0  0  0  0  0
   58.4280   28.6310   46.5430 C   0  0  0  0  0  0  0  0  0  0  0  0
   57.6290   27.7870   45.8620 C   0  0  0  0  0  0  0  0  0  0  0  0
   57.2090   26.4570   46.3340 C   0  0  0  0  0  0  0  0  0  0  0  0
   58.0280   25.5520   46.8990 N   0  0  0  0  0  0  0  0  0  0  0  0
   57.1870   24.5690   47.2860 C   0  0  0  0  0  0  0  0  0  0  0  0
   57.5860   23.5180   47.8540 O   0  0  0  0  0  0  0  0  0  0  0  0
   55.8820   24.8040   47.0260 N   0  0  0  0  0  0  0  0  0  0  0  0
   55.9140   26.0100   46.4360 C   0  0  0  0  0  0  0  0  0  0  0  0
   54.7830   26.6910   46.0070 O   0  0  0  0  0  0  0  0  0  0  0  0
   58.1060   29.9560   46.7620 C   0  0  0  0  0  0  0  0  0  0  0  0
   59.0630   30.4670   47.6180 C   0  0  0  0  0  0  0  0  0  0  0  0
   59.0690   31.8910   48.1230 C   0  0  0  0  0  0  0  0  0  0  0  0
   59.6640   31.9740   49.5040 C   0  0  0  0  0  0  0  0  0  0  0  0
   60.6510   32.7400   49.6840 O   0  0  0  0  0  0  0  0  0  0  0  0
   59.1130   31.2320   50.6190 N   0  0  0  0  0  0  0  0  0  0  0  0
   58.2320   30.0780   50.3880 C   0  0  0  0  0  0  0  0  0  0  0  0
   57.6140   29.5820   51.7030 C   0  0  0  0  0  0  0  0  0  0  0  0
   57.2500   30.7060   52.5930 N   0  0  0  0  0  0  0  0  0  0  0  0
   56.1820   31.5770   52.0470 C   0  0  0  0  0  0  0  0  0  0  0  0
   54.8210   30.9430   52.1930 C   0  0  0  0  0  0  0  0  0  0  0  0
   54.6960   29.6430   52.7060 C   0  0  0  0  0  0  0  0  0  0  0  0
   53.4360   29.0580   52.8330 C   0  0  0  0  0  0  0  0  0  0  0  0
   52.2900   29.7660   52.4600 C   0  0  0  0  0  0  0  0  0  0  0  0
   52.3930   31.0740   51.9520 C   0  0  0  0  0  0  0  0  0  0  0  0
   51.1770   31.8290   51.5660 C   0  0  0  0  0  0  0  0  0  0  0  0
   51.0290   32.3380   50.2420 N   0  0  0  0  0  0  0  0  0  0  0  0
   50.2600   32.0320   52.4070 O   0  0  0  0  0  0  0  0  0  0  0  0
   53.6690   31.6530   51.8170 C   0  0  0  0  0  0  0  0  0  0  0  0
   58.4400   31.4900   53.0080 C   0  0  0  0  0  0  0  0  0  0  0  0
   59.5970   31.4840   51.9840 C   0  0  0  0  0  0  0  0  0  0  0  0
   59.9980   29.5230   47.8930 N   0  0  0  0  0  0  0  0  0  0  0  0
   61.2100   29.7160   48.7010 C   0  0  0  0  0  0  0  0  0  0  0  0
   61.3938   27.2757   47.5993 H   0  0  0  0  0  0  0  0  0  0  0  0
   60.1667   26.5370   46.3430 H   0  0  0  0  0  0  0  0  0  0  0  0
   57.2625   28.1164   44.8786 H   0  0  0  0  0  0  0  0  0  0  0  0
   57.2506   30.5009   46.3361 H   0  0  0  0  0  0  0  0  0  0  0  0
   59.6637   32.5127   47.4376 H   0  0  0  0  0  0  0  0  0  0  0  0
   58.0303   32.2501   48.1680 H   0  0  0  0  0  0  0  0  0  0  0  0
   57.4253   30.3737   49.7011 H   0  0  0  0  0  0  0  0  0  0  0  0
   58.8302   29.2632   49.9541 H   0  0  0  0  0  0  0  0  0  0  0  0
   56.7088   29.0002   51.4747 H   0  0  0  0  0  0  0  0  0  0  0  0
   58.3603   28.9616   52.2208 H   0  0  0  0  0  0  0  0  0  0  0  0
   56.1900   32.5343   52.5887 H   0  0  0  0  0  0  0  0  0  0  0  0
   56.3772   31.7309   50.9755 H   0  0  0  0  0  0  0  0  0  0  0  0
   55.5936   29.0839   53.0087 H   0  0  0  0  0  0  0  0  0  0  0  0
   53.3440   28.0356   53.2282 H   0  0  0  0  0  0  0  0  0  0  0  0
   51.3004   29.2971   52.5644 H   0  0  0  0  0  0  0  0  0  0  0  0
   51.8370   32.7700   49.7400 H   0  0  0  0  0  0  0  0  0  0  0  0
   53.7648   32.6716   51.4130 H   0  0  0  0  0  0  0  0  0  0  0  0
   58.1269   32.5324   53.1672 H   0  0  0  0  0  0  0  0  0  0  0  0
   58.8266   31.0142   53.9213 H   0  0  0  0  0  0  0  0  0  0  0  0
   60.1004   32.4617   52.0090 H   0  0  0  0  0  0  0  0  0  0  0  0
   60.2920   30.6760   52.2563 H   0  0  0  0  0  0  0  0  0  0  0  0
   60.9492   29.6745   49.7688 H   0  0  0  0  0  0  0  0  0  0  0  0
   61.9353   28.9220   48.4695 H   0  0  0  0  0  0  0  0  0  0  0  0
   61.6528   30.6960   48.4695 H   0  0  0  0  0  0  0  0  0  0  0  0
  1  2  2  0
  2  3  1  0
  3  4  2  3
  4  5  1  0
  5  6  1  0
  6  7  1  0
  7  8  2  0
  7  9  1  0
  9 10  1  0
 10 11  1  0
  3 12  1  0
 12 13  2  0
 13 14  1  0
 14 15  1  0
 15 16  2  0
 15 17  1  0
 17 18  1  0
 18 19  1  0
 19 20  1  0
 20 21  1  0
 21 22  1  0
 22 23  2  0
 23 24  1  0
 24 25  2  0
 25 26  1  0
 26 27  1  0
 27 28  1  0
 27 29  2  0
 26 30  2  0
 20 31  1  0
 31 32  1  0
 13 33  1  0
 33 34  1  0
 33  2  1  0
 10  5  2  0
 32 17  1  0
 30 22  1  0
  1 35  1  0
  1 36  1  0
  4 37  1  0
 12 38  1  0
 14 39  1  0
 14 40  1  0
 18 41  1  0
 18 42  1  0
 19 43  1  0
 19 44  1  0
 21 45  1  0
 21 46  1  0
 23 47  1  0
 24 48  1  0
 25 49  1  0
 28 50  1  0
 30 51  1  0
 31 52  1  0
 31 53  1  0
 32 54  1  0
 32 55  1  0
 34 56  1  0
 34 57  1  0
 34 58  1  0
M  CHG  4   6  -1   9  -1  11  -1  28  -1
M  END
>  <UniqueID>  (53) 
53

>  <SMILES>  (53) 
C=c1c(=Cc2[n-]c(=O)[n-]c2[O-])cc(CC(=O)N2CCN(Cc3cccc(C([NH-])=O)c3)CC2)n1C

>  <Energy>  (53) 
135.09192734849108

>  <Genealogy>  (53) 
C=c1c(=Cc2[n-]c(=O)[n-]c2[O-])cc(CC(=O)N2CCN(Cc3cccc(C([NH-])=O)c3)CC2)n1C (protonated)
C=c1c(=Cc2[n-]c(=O)[n-]c2[O-])cc(CC(=O)N2CCN(Cc3cccc(C([NH-])=O)c3)CC2)n1C (3D coordinates assigned)
C=c1c(=Cc2[n-]c(=O)[n-]c2[O-])cc(CC(=O)N2CCN(Cc3cccc(C([NH-])=O)c3)CC2)n1C (nonaromatic ring conformer: 135.09192734849108 kcal/mol)

>  <smiles>  (53) 
C=c1c(=Cc2[nH]c(=O)[nH]c2O)cc(CC(=O)N2CCN(Cc3cccc(C(N)=O)c3)CC2)n1C

>  <score_type>  (53) 
oracle

>  <origin>  (53) 
adg

>  <m_score__min__energy>  (53) 
-22.890000000000001

>  <m_primary>  (53) 
energy

$$$$
53:0
     RDKit          3D

 48 51  0  0  0  0  0  0  0  0999 V2000
   55.1480   29.3600   44.6530 O   0  0  0  0  0  0  0  0  0  0  0  0
   56.3570   29.5120   44.3340 C   0  0  0  0  0  0  0  0  0  0  0  0
   56.6510   30.5820   43.3380 C   0  0  0  0  0  0  0  0  0  0  0  0
   57.3330   31.6700   44.0930 C   0  0  0  0  0  0  0  0  0  0  0  0
   57.3080   31.7660   45.4540 N   0  0  0  0  0  0  0  0  0  0  0  0
   58.0130   32.8510   45.8320 C   0  0  0  0  0  0  0  0  0  0  0  0
   58.3000   33.3990   47.0720 C   0  0  0  0  0  0  0  0  0  0  0  0
   59.0640   34.5480   47.1790 C   0  0  0  0  0  0  0  0  0  0  0  0
   59.5440   35.1500   46.0260 C   0  0  0  0  0  0  0  0  0  0  0  0
   59.2440   34.5850   44.7990 C   0  0  0  0  0  0  0  0  0  0  0  0
   58.4810   33.4360   44.6760 C   0  0  0  0  0  0  0  0  0  0  0  0
   58.0550   32.6990   43.6100 N   0  0  0  0  0  0  0  0  0  0  0  0
   57.4090   28.7340   44.8680 N   0  0  0  0  0  0  0  0  0  0  0  0
   58.7980   28.9330   44.4820 C   0  0  0  0  0  0  0  0  0  0  0  0
   59.6210   29.0750   45.7080 C   0  0  0  0  0  0  0  0  0  0  0  0
   59.1550   28.4460   46.8650 N   0  0  0  0  0  0  0  0  0  0  0  0
   60.0100   28.4110   47.9880 C   0  0  0  0  0  0  0  0  0  0  0  0
   60.2290   29.7910   48.4910 C   0  0  0  0  0  0  0  0  0  0  0  0
   59.3810   30.4300   49.3610 C   0  0  0  0  0  0  0  0  0  0  0  0
   59.5920   31.7010   49.8170 C   0  0  0  0  0  0  0  0  0  0  0  0
   60.7000   32.4030   49.4060 C   0  0  0  0  0  0  0  0  0  0  0  0
   61.5810   31.7970   48.5320 C   0  0  0  0  0  0  0  0  0  0  0  0
   62.7280   32.4500   48.0690 O   0  0  0  0  0  0  0  0  0  0  0  0
   61.3480   30.5120   48.0820 C   0  0  0  0  0  0  0  0  0  0  0  0
   58.1970   27.4010   46.7700 C   0  0  0  0  0  0  0  0  0  0  0  0
   57.0460   27.6990   45.8440 C   0  0  0  0  0  0  0  0  0  0  0  0
   57.3092   30.1961   42.5456 H   0  0  0  0  0  0  0  0  0  0  0  0
   55.7327   30.9434   42.8522 H   0  0  0  0  0  0  0  0  0  0  0  0
   57.9160   32.9150   47.9821 H   0  0  0  0  0  0  0  0  0  0  0  0
   59.2876   34.9782   48.1664 H   0  0  0  0  0  0  0  0  0  0  0  0
   60.1543   36.0632   46.0857 H   0  0  0  0  0  0  0  0  0  0  0  0
   59.6260   35.0668   43.8869 H   0  0  0  0  0  0  0  0  0  0  0  0
   58.2500   32.8930   42.6130 H   0  0  0  0  0  0  0  0  0  0  0  0
   59.1475   28.0670   43.9007 H   0  0  0  0  0  0  0  0  0  0  0  0
   58.8876   29.8396   43.8655 H   0  0  0  0  0  0  0  0  0  0  0  0
   60.6177   28.6655   45.4870 H   0  0  0  0  0  0  0  0  0  0  0  0
   59.6003   30.1498   45.9411 H   0  0  0  0  0  0  0  0  0  0  0  0
   59.5497   27.8016   48.7797 H   0  0  0  0  0  0  0  0  0  0  0  0
   60.9754   27.9704   47.6984 H   0  0  0  0  0  0  0  0  0  0  0  0
   58.4867   29.8921   49.7086 H   0  0  0  0  0  0  0  0  0  0  0  0
   58.8754   32.1620   50.5127 H   0  0  0  0  0  0  0  0  0  0  0  0
   60.8813   33.4265   49.7659 H   0  0  0  0  0  0  0  0  0  0  0  0
   63.3760   32.8940   48.6900 H   0  0  0  0  0  0  0  0  0  0  0  0
   62.0619   30.0481   47.3854 H   0  0  0  0  0  0  0  0  0  0  0  0
   58.7075   26.4973   46.4057 H   0  0  0  0  0  0  0  0  0  0  0  0
   57.7686   27.2733   47.7751 H   0  0  0  0  0  0  0  0  0  0  0  0
   56.7692   26.7797   45.3070 H   0  0  0  0  0  0  0  0  0  0  0  0
   56.1998   28.0650   46.4440 H   0  0  0  0  0  0  0  0  0  0  0  0
  1  2  2  0
  2  3  1  0
  3  4  1  0
  4  5  2  0
  5  6  1  0
  6  7  2  0
  7  8  1  0
  8  9  2  0
  9 10  1  0
 10 11  2  0
 11 12  1  0
  2 13  1  0
 13 14  1  0
 14 15  1  0
 15 16  1  0
 16 17  1  0
 17 18  1  0
 18 19  2  0
 19 20  1  0
 20 21  2  0
 21 22  1  0
 22 23  1  0
 22 24  2  0
 16 25  1  0
 25 26  1  0
 12  4  1  0
 26 13  1  0
 11  6  1  0
 24 18  1  0
  3 27  1  0
  3 28  1  0
  7 29  1  0
  8 30  1  0
  9 31  1  0
 10 32  1  0
 12 33  1  0
 14 34  1  0
 14 35  1  0
 15 36  1  0
 15 37  1  0
 17 38  1  0
 17 39  1  0
 19 40  1  0
 20 41  1  0
 21 42  1  0
 23 43  1  0
 24 44  1  0
 25 45  1  0
 25 46  1  0
 26 47  1  0
 26 48  1  0
M  END
>  <smiles>  (54) 
O=C(Cc1nc2ccccc2[nH]1)N1CCN(Cc2cccc(O)c2)CC1

>  <score_type>  (54) 
oracle

>  <origin>  (54) 
adg

>  <m_score__min__energy>  (54) 
-8.9399999999999995

>  <m_primary>  (54) 
energy

$$$$
54:0
     RDKit          3D

 52 54  0  0  0  0  0  0  0  0999 V2000
   64.5015   34.1502   47.0684 H   0  0  0  0  0  0  0  0  0  0  0  0
   63.5710   33.5750   47.1840 C   0  0  0  0  0  0  0  0  0  0  0  0
   62.3950   34.2210   47.3940 N   0  0  0  0  0  0  0  0  0  0  0  0
   61.2240   33.5500   47.5610 C   0  0  0  0  0  0  0  0  0  0  0  0
   59.7180   34.4990   47.8080 S   0  0  0  0  0  0  0  0  0  0  0  0
   58.8560   33.6720   46.4750 C   0  0  0  0  0  0  0  0  0  0  0  0
   57.4080   32.8420   46.6560 S   0  0  0  0  0  0  0  0  0  0  0  0
   57.3940   32.3420   45.0430 C   0  0  0  0  0  0  0  0  0  0  0  0
   56.5170   31.5520   44.4970 N   0  0  0  0  0  0  0  0  0  0  0  0
   56.4400   30.1300   44.6850 C   0  0  0  0  0  0  0  0  0  0  0  0
   55.3200   29.5550   44.7690 O   0  0  0  0  0  0  0  0  0  0  0  0
   57.6500   29.3590   44.7020 N   0  0  0  0  0  0  0  0  0  0  0  0
   58.5140   29.8080   44.3200 H   0  0  0  0  0  0  0  0  0  0  0  0
   57.7310   27.9960   45.1530 C   0  0  0  0  0  0  0  0  0  0  0  0
   58.0300   26.9410   44.2670 C   0  0  0  0  0  0  0  0  0  0  0  0
   58.2057   27.1530   43.2020 H   0  0  0  0  0  0  0  0  0  0  0  0
   58.1040   25.6260   44.7370 C   0  0  0  0  0  0  0  0  0  0  0  0
   58.3591   24.8098   44.0450 H   0  0  0  0  0  0  0  0  0  0  0  0
   57.8550   25.3460   46.0820 C   0  0  0  0  0  0  0  0  0  0  0  0
   57.9171   24.3110   46.4493 H   0  0  0  0  0  0  0  0  0  0  0  0
   57.5270   26.3810   46.9610 C   0  0  0  0  0  0  0  0  0  0  0  0
   57.3204   26.1591   48.0184 H   0  0  0  0  0  0  0  0  0  0  0  0
   57.4610   27.6990   46.4980 C   0  0  0  0  0  0  0  0  0  0  0  0
   57.1955   28.5091   47.1932 H   0  0  0  0  0  0  0  0  0  0  0  0
   58.4730   32.7970   44.3670 N   0  0  0  0  0  0  0  0  0  0  0  0
   59.2860   33.5480   45.1610 C   0  0  0  0  0  0  0  0  0  0  0  0
   60.2089   34.0183   44.7908 H   0  0  0  0  0  0  0  0  0  0  0  0
   61.2010   32.1440   47.5130 C   0  0  0  0  0  0  0  0  0  0  0  0
   59.9650   31.4840   47.6310 O   0  0  0  0  0  0  0  0  0  0  0  0
   59.7030   30.1390   47.3460 C   0  0  0  0  0  0  0  0  0  0  0  0
   59.7390   29.7060   46.1620 O   0  0  0  0  0  0  0  0  0  0  0  0
   59.4360   29.2470   48.4310 N   0  0  0  0  0  0  0  0  0  0  0  0
   58.6380   29.6110   49.5970 C   0  0  0  0  0  0  0  0  0  0  0  0
   58.5125   28.7285   50.2415 H   0  0  0  0  0  0  0  0  0  0  0  0
   57.6551   29.9729   49.2610 H   0  0  0  0  0  0  0  0  0  0  0  0
   59.3380   30.7240   50.3910 C   0  0  0  0  0  0  0  0  0  0  0  0
   60.3048   30.9414   49.9135 H   0  0  0  0  0  0  0  0  0  0  0  0
   59.4638   30.3651   51.4232 H   0  0  0  0  0  0  0  0  0  0  0  0
   58.5120   32.0290   50.4500 C   0  0  0  0  0  0  0  0  0  0  0  0
   58.0835   32.1954   49.4507 H   0  0  0  0  0  0  0  0  0  0  0  0
   57.3500   31.9270   51.4480 C   0  0  0  0  0  0  0  0  0  0  0  0
   57.7441   31.9616   52.4744 H   0  0  0  0  0  0  0  0  0  0  0  0
   56.6581   32.7679   51.2924 H   0  0  0  0  0  0  0  0  0  0  0  0
   56.8152   30.9785   51.2924 H   0  0  0  0  0  0  0  0  0  0  0  0
   59.4190   33.2070   50.8300 C   0  0  0  0  0  0  0  0  0  0  0  0
   59.4790   33.2850   51.9256 H   0  0  0  0  0  0  0  0  0  0  0  0
   60.4257   33.0423   50.4184 H   0  0  0  0  0  0  0  0  0  0  0  0
   59.0024   34.1382   50.4184 H   0  0  0  0  0  0  0  0  0  0  0  0
   62.4130   31.4660   47.2700 C   0  0  0  0  0  0  0  0  0  0  0  0
   62.4235   30.3681   47.2025 H   0  0  0  0  0  0  0  0  0  0  0  0
   63.5990   32.1840   47.1150 C   0  0  0  0  0  0  0  0  0  0  0  0
   64.5481   31.6563   46.9398 H   0  0  0  0  0  0  0  0  0  0  0  0
  1  2  1  0
  2  3  2  0
  3  4  1  0
  4  5  1  0
  5  6  1  0
  6  7  1  0
  7  8  1  0
  8  9  2  0
  9 10  1  0
 10 11  2  0
 10 12  1  0
 12 13  1  0
 12 14  1  0
 14 15  2  0
 15 16  1  0
 15 17  1  0
 17 18  1  0
 17 19  2  0
 19 20  1  0
 19 21  1  0
 21 22  1  0
 21 23  2  0
 23 24  1  0
  8 25  1  0
 25 26  1  0
 26 27  1  0
  4 28  2  0
 28 29  1  0
 29 30  1  0
 30 31  2  0
 30 32  1  0
 32 33  1  0
 33 34  1  0
 33 35  1  0
 33 36  1  0
 36 37  1  0
 36 38  1  0
 36 39  1  0
 39 40  1  0
 39 41  1  0
 41 42  1  0
 41 43  1  0
 41 44  1  0
 39 45  1  0
 45 46  1  0
 45 47  1  0
 45 48  1  0
 28 49  1  0
 49 50  1  0
 49 51  2  0
 51 52  1  0
 51  2  1  0
 26  6  2  0
 23 14  1  0
M  CHG  2  25  -1  32  -1
M  END
>  <UniqueID>  (55) 
54

>  <SMILES>  (55) 
CC(C)CC[N-]C(=O)Oc1cccnc1Sc1c[n-]/c(=N/C(=O)Nc2ccccc2)s1

>  <Energy>  (55) 
83.78421457311003

>  <Genealogy>  (55) 
CC(C)CC[N-]C(=O)Oc1cccnc1Sc1c[n-]c(=NC(=O)Nc2ccccc2)s1 (protonated)
CC(C)CC[N-]C(=O)Oc1cccnc1Sc1c[n-]/c(=N/C(=O)Nc2ccccc2)s1 (cis-trans isomerization)
CC(C)CC[N-]C(=O)Oc1cccnc1Sc1c[n-]/c(=N/C(=O)Nc2ccccc2)s1 (3D coordinates assigned)
CC(C)CC[N-]C(=O)Oc1cccnc1Sc1c[n-]/c(=N/C(=O)Nc2ccccc2)s1 (optimized conformer: 83.78421457311003 kcal/mol)

>  <smiles>  (55) 
CC(C)CCNC(=O)Oc1cccnc1Sc1c[nH]c(=NC(=O)Nc2ccccc2)s1

>  <score_type>  (55) 
oracle

>  <origin>  (55) 
adg

>  <m_score__min__energy>  (55) 
-12.42

>  <m_primary>  (55) 
energy

$$$$
55:0
     RDKit          3D

 58 60  0  0  0  0  0  0  0  0999 V2000
   56.1810   25.4560   45.9290 C   0  0  0  0  0  0  0  0  0  0  0  0
   56.7310   26.6660   46.0610 C   0  0  0  0  0  0  0  0  0  0  0  0
   58.1760   26.9230   45.7210 C   0  0  0  0  0  0  0  0  0  0  0  0
   58.4120   28.3450   45.4200 N   0  0  0  0  0  0  0  0  0  0  0  0
   58.0060   28.8800   44.1100 C   0  0  0  0  0  0  0  0  0  0  0  0
   56.9530   29.9440   44.2580 C   0  0  0  0  0  0  0  0  0  0  0  0
   55.6720   29.7180   43.9570 C   0  0  0  0  0  0  0  0  0  0  0  0
   59.2320   29.1520   46.2930 C   0  0  0  0  0  0  0  0  0  0  0  0
   58.8300   29.4010   47.6160 C   0  0  0  0  0  0  0  0  0  0  0  0
   59.6320   30.1640   48.4700 C   0  0  0  0  0  0  0  0  0  0  0  0
   60.8520   30.6890   48.0180 C   0  0  0  0  0  0  0  0  0  0  0  0
   61.7060   31.4940   48.9170 C   0  0  0  0  0  0  0  0  0  0  0  0
   62.2860   30.9250   49.8830 O   0  0  0  0  0  0  0  0  0  0  0  0
   61.8700   32.9150   48.7290 N   0  0  0  0  0  0  0  0  0  0  0  0
   62.8140   33.4030   47.7060 C   0  0  0  0  0  0  0  0  0  0  0  0
   62.1460   33.6890   46.3540 C   0  0  0  0  0  0  0  0  0  0  0  0
   60.8410   34.5040   46.4710 C   0  0  0  0  0  0  0  0  0  0  0  0
   59.7490   33.8260   47.2190 N   0  0  2  0  0  0  0  0  0  0  0  0
   58.4680   34.0280   46.4740 C   0  0  0  0  0  0  0  0  0  0  0  0
   58.6360   34.5170   45.0330 C   0  0  0  0  0  0  0  0  0  0  0  0
   57.9490   33.2510   44.5300 C   0  0  0  0  0  0  0  0  0  0  0  0
   57.7550   32.7700   45.9640 C   0  0  0  0  0  0  0  0  0  0  0  0
   59.7180   34.2410   48.6540 C   0  0  0  0  0  0  0  0  0  0  0  0
   60.9870   33.8410   49.4560 C   0  0  0  0  0  0  0  0  0  0  0  0
   61.2430   30.4650   46.6890 C   0  0  0  0  0  0  0  0  0  0  0  0
   60.4440   29.6970   45.8370 C   0  0  0  0  0  0  0  0  0  0  0  0
   55.1226   25.3019   46.1861 H   0  0  0  0  0  0  0  0  0  0  0  0
   56.7864   24.6136   45.5632 H   0  0  0  0  0  0  0  0  0  0  0  0
   56.1118   27.4978   46.4281 H   0  0  0  0  0  0  0  0  0  0  0  0
   58.8026   26.6293   46.5760 H   0  0  0  0  0  0  0  0  0  0  0  0
   58.4321   26.3329   44.8287 H   0  0  0  0  0  0  0  0  0  0  0  0
   58.8857   29.3130   43.6113 H   0  0  0  0  0  0  0  0  0  0  0  0
   57.5869   28.0567   43.5129 H   0  0  0  0  0  0  0  0  0  0  0  0
   57.2472   30.9382   44.6253 H   0  0  0  0  0  0  0  0  0  0  0  0
   54.9289   30.5200   44.0776 H   0  0  0  0  0  0  0  0  0  0  0  0
   55.3597   28.7298   43.5884 H   0  0  0  0  0  0  0  0  0  0  0  0
   57.8768   28.9924   47.9828 H   0  0  0  0  0  0  0  0  0  0  0  0
   59.3044   30.3539   49.5028 H   0  0  0  0  0  0  0  0  0  0  0  0
   63.2758   34.3322   48.0713 H   0  0  0  0  0  0  0  0  0  0  0  0
   63.5573   32.6089   47.5418 H   0  0  0  0  0  0  0  0  0  0  0  0
   62.8536   34.2531   45.7287 H   0  0  0  0  0  0  0  0  0  0  0  0
   61.8812   32.7169   45.9125 H   0  0  0  0  0  0  0  0  0  0  0  0
   61.0722   35.4490   46.9843 H   0  0  0  0  0  0  0  0  0  0  0  0
   60.4717   34.6475   45.4448 H   0  0  0  0  0  0  0  0  0  0  0  0
   59.9150   32.7960   47.1610 H   0  0  0  0  0  0  0  0  0  0  0  0
   57.9763   34.6519   47.2349 H   0  0  0  0  0  0  0  0  0  0  0  0
   58.0909   35.4452   44.8063 H   0  0  0  0  0  0  0  0  0  0  0  0
   59.6273   34.8038   44.6522 H   0  0  0  0  0  0  0  0  0  0  0  0
   57.0090   33.4370   43.9898 H   0  0  0  0  0  0  0  0  0  0  0  0
   58.4510   32.6055   43.7942 H   0  0  0  0  0  0  0  0  0  0  0  0
   56.7025   32.6920   46.2742 H   0  0  0  0  0  0  0  0  0  0  0  0
   58.0972   31.7703   46.2698 H   0  0  0  0  0  0  0  0  0  0  0  0
   59.6136   35.3353   48.6952 H   0  0  0  0  0  0  0  0  0  0  0  0
   58.8700   33.7163   49.1184 H   0  0  0  0  0  0  0  0  0  0  0  0
   61.5548   34.7540   49.6885 H   0  0  0  0  0  0  0  0  0  0  0  0
   60.6470   33.3205   50.3634 H   0  0  0  0  0  0  0  0  0  0  0  0
   62.1835   30.8962   46.3156 H   0  0  0  0  0  0  0  0  0  0  0  0
   60.7669   29.5179   44.8008 H   0  0  0  0  0  0  0  0  0  0  0  0
  1  2  2  0
  2  3  1  0
  3  4  1  0
  4  5  1  0
  5  6  1  0
  6  7  2  0
  4  8  1  0
  8  9  2  0
  9 10  1  0
 10 11  2  0
 11 12  1  0
 12 13  2  0
 12 14  1  0
 14 15  1  0
 15 16  1  0
 16 17  1  0
 17 18  1  0
 18 19  1  0
 19 20  1  0
 20 21  1  0
 21 22  1  0
 18 23  1  0
 23 24  1  0
 11 25  1  0
 25 26  2  0
 26  8  1  0
 24 14  1  0
 22 19  1  0
  1 27  1  0
  1 28  1  0
  2 29  1  0
  3 30  1  0
  3 31  1  0
  5 32  1  0
  5 33  1  0
  6 34  1  0
  7 35  1  0
  7 36  1  0
  9 37  1  0
 10 38  1  0
 15 39  1  0
 15 40  1  0
 16 41  1  0
 16 42  1  0
 17 43  1  0
 17 44  1  0
 18 45  1  1
 19 46  1  0
 20 47  1  0
 20 48  1  0
 21 49  1  0
 21 50  1  0
 22 51  1  0
 22 52  1  0
 23 53  1  0
 23 54  1  0
 24 55  1  0
 24 56  1  0
 25 57  1  0
 26 58  1  0
M  CHG  1  18   1
M  END
>  <UniqueID>  (56) 
55

>  <SMILES>  (56) 
C=CCN(CC=C)c1ccc(C(=O)N2CCC[N@H+](C3CCC3)CC2)cc1

>  <Energy>  (56) 
138.30126662024293

>  <Genealogy>  (56) 
C=CCN(CC=C)c1ccc(C(=O)N2CCC[NH+](C3CCC3)CC2)cc1 (protonated)
C=CCN(CC=C)c1ccc(C(=O)N2CCC[N@H+](C3CCC3)CC2)cc1 (chirality)
C=CCN(CC=C)c1ccc(C(=O)N2CCC[N@H+](C3CCC3)CC2)cc1 (3D coordinates assigned)
C=CCN(CC=C)c1ccc(C(=O)N2CCC[N@H+](C3CCC3)CC2)cc1 (nonaromatic ring conformer: 138.30126662024293 kcal/mol)

>  <smiles>  (56) 
C=CCN(CC=C)c1ccc(C(=O)N2CCCN(C3CCC3)CC2)cc1

>  <score_type>  (56) 
oracle

>  <origin>  (56) 
adg

>  <m_score__min__energy>  (56) 
-4.3899999999999997

>  <m_primary>  (56) 
energy

$$$$
56:0
     RDKit          3D

 42 44  0  0  0  0  0  0  0  0999 V2000
   58.7020   29.6530   48.1400 C   0  0  0  0  0  0  0  0  0  0  0  0
   58.4660   30.1180   46.9040 C   0  0  0  0  0  0  0  0  0  0  0  0
   58.3340   31.4660   46.7800 N   0  0  0  0  0  0  0  0  0  0  0  0
   58.1290   32.0980   45.5970 C   0  0  0  0  0  0  0  0  0  0  0  0
   57.9170   33.8860   45.6170 S   0  0  0  0  0  0  0  0  0  0  0  0
   58.5680   34.1330   47.3100 C   0  0  0  0  0  0  0  0  0  0  0  0
   60.0380   33.8310   47.3910 C   0  0  0  0  0  0  0  0  0  0  0  0
   60.8750   34.0950   46.2960 C   0  0  0  0  0  0  0  0  0  0  0  0
   62.2440   33.8180   46.3710 C   0  0  0  0  0  0  0  0  0  0  0  0
   62.7900   33.2830   47.5470 C   0  0  0  0  0  0  0  0  0  0  0  0
   64.1530   33.0090   47.6360 O   0  0  0  0  0  0  0  0  0  0  0  0
   61.9600   33.0230   48.6420 C   0  0  0  0  0  0  0  0  0  0  0  0
   60.5910   33.2940   48.5670 C   0  0  0  0  0  0  0  0  0  0  0  0
   58.1010   31.3490   44.4090 C   0  0  0  0  0  0  0  0  0  0  0  0
   57.9940   31.9880   43.0420 C   0  0  0  0  0  0  0  0  0  0  0  0
   56.9990   31.2500   42.1540 C   0  0  0  0  0  0  0  0  0  0  0  0
   58.2040   29.9550   44.4970 C   0  0  0  0  0  0  0  0  0  0  0  0
   58.3830   29.2960   45.7360 C   0  0  0  0  0  0  0  0  0  0  0  0
   58.4200   27.9370   45.7960 C   0  0  0  0  0  0  0  0  0  0  0  0
   57.2490   27.0400   45.8980 C   0  0  0  0  0  0  0  0  0  0  0  0
   57.2630   25.7980   46.4190 N   0  0  0  0  0  0  0  0  0  0  0  0
   55.9610   25.4370   46.4040 C   0  0  0  0  0  0  0  0  0  0  0  0
   55.5650   24.3130   46.8100 O   0  0  0  0  0  0  0  0  0  0  0  0
   55.1170   26.3770   45.9300 N   0  0  0  0  0  0  0  0  0  0  0  0
   55.9470   27.3890   45.6270 C   0  0  0  0  0  0  0  0  0  0  0  0
   55.5220   28.6080   45.1150 O   0  0  0  0  0  0  0  0  0  0  0  0
   58.8188   28.5722   48.3080 H   0  0  0  0  0  0  0  0  0  0  0  0
   58.7787   30.3525   48.9855 H   0  0  0  0  0  0  0  0  0  0  0  0
   58.4024   35.1793   47.6063 H   0  0  0  0  0  0  0  0  0  0  0  0
   58.0391   33.4434   47.9843 H   0  0  0  0  0  0  0  0  0  0  0  0
   60.4525   34.5218   45.3744 H   0  0  0  0  0  0  0  0  0  0  0  0
   62.8934   34.0200   45.5064 H   0  0  0  0  0  0  0  0  0  0  0  0
   64.6010   32.3480   47.0120 H   0  0  0  0  0  0  0  0  0  0  0  0
   62.3860   32.6038   49.5654 H   0  0  0  0  0  0  0  0  0  0  0  0
   59.9434   33.0863   49.4316 H   0  0  0  0  0  0  0  0  0  0  0  0
   57.6625   33.0302   43.1601 H   0  0  0  0  0  0  0  0  0  0  0  0
   58.9829   31.9423   42.5625 H   0  0  0  0  0  0  0  0  0  0  0  0
   56.2744   30.7125   42.7833 H   0  0  0  0  0  0  0  0  0  0  0  0
   56.4672   31.9738   41.5189 H   0  0  0  0  0  0  0  0  0  0  0  0
   57.5373   30.5311   41.5189 H   0  0  0  0  0  0  0  0  0  0  0  0
   58.1440   29.3556   43.5766 H   0  0  0  0  0  0  0  0  0  0  0  0
   59.4119   27.4623   45.7659 H   0  0  0  0  0  0  0  0  0  0  0  0
  1  2  2  0
  2  3  1  0
  3  4  2  0
  4  5  1  0
  5  6  1  0
  6  7  1  0
  7  8  2  0
  8  9  1  0
  9 10  2  0
 10 11  1  0
 10 12  1  0
 12 13  2  0
  4 14  1  0
 14 15  1  0
 15 16  1  0
 14 17  2  0
 17 18  1  0
 18 19  2  3
 19 20  1  0
 20 21  1  0
 21 22  1  0
 22 23  2  0
 22 24  1  0
 24 25  1  0
 25 26  1  0
 18  2  1  0
 25 20  2  0
 13  7  1  0
  1 27  1  0
  1 28  1  0
  6 29  1  0
  6 30  1  0
  8 31  1  0
  9 32  1  0
 11 33  1  0
 12 34  1  0
 13 35  1  0
 15 36  1  0
 15 37  1  0
 16 38  1  0
 16 39  1  0
 16 40  1  0
 17 41  1  0
 19 42  1  0
M  CHG  3  21  -1  24  -1  26  -1
M  END
>  <UniqueID>  (57) 
56

>  <SMILES>  (57) 
C=c1nc(SCc2ccc(O)cc2)c(CC)cc1=Cc1[n-]c(=O)[n-]c1[O-]

>  <Energy>  (57) 
81.76104227126199

>  <Genealogy>  (57) 
C=c1nc(SCc2ccc(O)cc2)c(CC)cc1=Cc1[n-]c(=O)[n-]c1[O-] (protonated)
C=c1nc(SCc2ccc(O)cc2)c(CC)cc1=Cc1[n-]c(=O)[n-]c1[O-] (3D coordinates assigned)
C=c1nc(SCc2ccc(O)cc2)c(CC)cc1=Cc1[n-]c(=O)[n-]c1[O-] (optimized conformer: 81.76104227126199 kcal/mol)

>  <smiles>  (57) 
C=c1nc(SCc2ccc(O)cc2)c(CC)cc1=Cc1[nH]c(=O)[nH]c1O

>  <score_type>  (57) 
oracle

>  <origin>  (57) 
adg

>  <m_score__min__energy>  (57) 
-16.239999999999998

>  <m_primary>  (57) 
energy

$$$$
57:0
     RDKit          3D

 45 47  0  0  0  0  0  0  0  0999 V2000
   59.9590   28.2600   48.6230 C   0  0  0  0  0  0  0  0  0  0  0  0
   60.3930   28.3100   47.2690 O   0  0  0  0  0  0  0  0  0  0  0  0
   59.6470   27.7660   46.2170 C   0  0  0  0  0  0  0  0  0  0  0  0
   59.8900   26.5920   45.8230 O   0  0  0  0  0  0  0  0  0  0  0  0
   58.5810   28.5610   45.5520 C   0  0  0  0  0  0  0  0  0  0  0  0
   58.9380   29.7270   44.8460 C   0  0  0  0  0  0  0  0  0  0  0  0
   57.9700   30.4970   44.2000 C   0  0  0  0  0  0  0  0  0  0  0  0
   56.6310   30.1170   44.2450 C   0  0  0  0  0  0  0  0  0  0  0  0
   56.2540   28.9660   44.9360 C   0  0  0  0  0  0  0  0  0  0  0  0
   57.2180   28.1680   45.5800 C   0  0  0  0  0  0  0  0  0  0  0  0
   56.8130   26.9920   46.2970 N   0  0  0  0  0  0  0  0  0  0  0  0
   55.8250   26.0520   45.8560 C   0  0  0  0  0  0  0  0  0  0  0  0
   54.6020   26.3220   45.9910 O   0  0  0  0  0  0  0  0  0  0  0  0
   56.2330   24.7950   45.1860 C   0  0  0  0  0  0  0  0  0  0  0  0
   57.0810   24.6620   44.0890 C   0  0  0  0  0  0  0  0  0  0  0  0
   57.7730   25.7630   43.3500 C   0  0  0  0  0  0  0  0  0  0  0  0
   57.2170   23.3630   43.7600 N   0  0  0  0  0  0  0  0  0  0  0  0
   56.4670   22.6500   44.6210 C   0  0  0  0  0  0  0  0  0  0  0  0
   56.3660   21.1810   44.5640 C   0  0  0  0  0  0  0  0  0  0  0  0
   56.0440   20.6370   43.4740 O   0  0  0  0  0  0  0  0  0  0  0  0
   56.5750   20.3640   45.7270 N   0  0  0  0  0  0  0  0  0  0  0  0
   55.7110   20.1720   46.7450 C   0  0  0  0  0  0  0  0  0  0  0  0
   56.2780   19.2830   47.6400 C   0  0  0  0  0  0  0  0  0  0  0  0
   57.5050   18.9590   47.0930 C   0  0  0  0  0  0  0  0  0  0  0  0
   57.6520   19.6250   45.9340 N   0  0  0  0  0  0  0  0  0  0  0  0
   55.8570   23.4990   45.5380 C   0  0  0  0  0  0  0  0  0  0  0  0
   55.0300   23.1000   46.7260 C   0  0  0  0  0  0  0  0  0  0  0  0
   60.8277   28.3601   49.2904 H   0  0  0  0  0  0  0  0  0  0  0  0
   59.2541   29.0829   48.8127 H   0  0  0  0  0  0  0  0  0  0  0  0
   59.4597   27.2984   48.8127 H   0  0  0  0  0  0  0  0  0  0  0  0
   59.9934   30.0342   44.8035 H   0  0  0  0  0  0  0  0  0  0  0  0
   58.2650   31.4055   43.6544 H   0  0  0  0  0  0  0  0  0  0  0  0
   55.8698   30.7256   43.7348 H   0  0  0  0  0  0  0  0  0  0  0  0
   55.1930   28.6790   44.9782 H   0  0  0  0  0  0  0  0  0  0  0  0
   58.2153   26.4667   44.0705 H   0  0  0  0  0  0  0  0  0  0  0  0
   58.5667   25.3381   42.7180 H   0  0  0  0  0  0  0  0  0  0  0  0
   57.0459   26.2939   42.7180 H   0  0  0  0  0  0  0  0  0  0  0  0
   57.7880   22.9770   42.9730 H   0  0  0  0  0  0  0  0  0  0  0  0
   54.7222   20.6431   46.8462 H   0  0  0  0  0  0  0  0  0  0  0  0
   55.8463   18.9142   48.5821 H   0  0  0  0  0  0  0  0  0  0  0  0
   58.2405   18.2697   47.5332 H   0  0  0  0  0  0  0  0  0  0  0  0
   58.4780   19.5720   45.2960 H   0  0  0  0  0  0  0  0  0  0  0  0
   55.5671   23.3591   47.6503 H   0  0  0  0  0  0  0  0  0  0  0  0
   54.0682   23.6332   46.6990 H   0  0  0  0  0  0  0  0  0  0  0  0
   54.8488   22.0154   46.6990 H   0  0  0  0  0  0  0  0  0  0  0  0
  1  2  1  0
  2  3  1  0
  3  4  2  0
  3  5  1  0
  5  6  2  0
  6  7  1  0
  7  8  2  0
  8  9  1  0
  9 10  2  0
 10 11  1  0
 11 12  1  0
 12 13  2  0
 12 14  1  0
 14 15  2  0
 15 16  1  0
 15 17  1  0
 17 18  1  0
 18 19  1  0
 19 20  2  0
 19 21  1  0
 21 22  1  0
 22 23  2  0
 23 24  1  0
 24 25  2  0
 18 26  2  0
 26 27  1  0
 10  5  1  0
 26 14  1  0
 25 21  1  0
  1 28  1  0
  1 29  1  0
  1 30  1  0
  6 31  1  0
  7 32  1  0
  8 33  1  0
  9 34  1  0
 16 35  1  0
 16 36  1  0
 16 37  1  0
 17 38  1  0
 22 39  1  0
 23 40  1  0
 24 41  1  0
 25 42  1  0
 27 43  1  0
 27 44  1  0
 27 45  1  0
M  CHG  2  11  -1  25   1
M  END
>  <UniqueID>  (58) 
57

>  <SMILES>  (58) 
COC(=O)c1ccccc1[N-]C(=O)c1c(C)[nH]c(C(=O)n2ccc[nH+]2)c1C

>  <Energy>  (58) 
111.80760439359001

>  <Genealogy>  (58) 
COC(=O)c1ccccc1[N-]C(=O)c1c(C)[nH]c(C(=O)n2ccc[nH+]2)c1C (protonated)
COC(=O)c1ccccc1[N-]C(=O)c1c(C)[nH]c(C(=O)n2ccc[nH+]2)c1C (3D coordinates assigned)
COC(=O)c1ccccc1[N-]C(=O)c1c(C)[nH]c(C(=O)n2ccc[nH+]2)c1C (optimized conformer: 111.80760439359001 kcal/mol)

>  <smiles>  (58) 
COC(=O)c1ccccc1NC(=O)c1c(C)[nH]c(C(=O)n2cccn2)c1C

>  <score_type>  (58) 
oracle

>  <origin>  (58) 
adg

>  <m_score__min__energy>  (58) 
-8.3300000000000001

>  <m_primary>  (58) 
energy

$$$$
58:0
     RDKit          3D

 49 52  0  0  0  0  0  0  0  0999 V2000
   58.1220   32.3330   50.0310 O   0  0  0  0  0  0  0  0  0  0  0  0
   58.8450   31.9440   49.0760 C   0  0  0  0  0  0  0  0  0  0  0  0
   59.6730   30.7870   49.2640 N   0  0  0  0  0  0  0  0  0  0  0  0
   60.7570   30.3490   48.3860 C   0  0  0  0  0  0  0  0  0  0  0  0
   61.8250   31.4060   48.2600 C   0  0  0  0  0  0  0  0  0  0  0  0
   61.9270   32.1810   47.0920 C   0  0  0  0  0  0  0  0  0  0  0  0
   62.9030   33.1770   46.9900 C   0  0  0  0  0  0  0  0  0  0  0  0
   63.7890   33.4010   48.0480 C   0  0  0  0  0  0  0  0  0  0  0  0
   63.7040   32.6240   49.2070 C   0  0  0  0  0  0  0  0  0  0  0  0
   62.7320   31.6260   49.3100 C   0  0  0  0  0  0  0  0  0  0  0  0
   58.7670   32.6550   47.7870 C   0  0  0  0  0  0  0  0  0  0  0  0
   59.0760   34.0210   47.7310 C   0  0  0  0  0  0  0  0  0  0  0  0
   58.9790   34.7160   46.5230 C   0  0  0  0  0  0  0  0  0  0  0  0
   58.5820   34.0500   45.3610 C   0  0  0  0  0  0  0  0  0  0  0  0
   58.2930   32.6760   45.3950 C   0  0  0  0  0  0  0  0  0  0  0  0
   57.8300   31.9750   44.1450 C   0  0  0  0  0  0  0  0  0  0  0  0
   57.3600   30.5780   44.4780 C   0  0  0  0  0  0  0  0  0  0  0  0
   56.0180   30.3640   44.5020 N   0  0  0  0  0  0  0  0  0  0  0  0
   55.4910   29.2010   44.8790 N   0  0  0  0  0  0  0  0  0  0  0  0
   56.2670   28.1710   45.2890 C   0  0  0  0  0  0  0  0  0  0  0  0
   55.7210   27.0920   45.6450 O   0  0  0  0  0  0  0  0  0  0  0  0
   57.6620   28.3150   45.3160 C   0  0  0  0  0  0  0  0  0  0  0  0
   58.2330   29.5240   44.8490 C   0  0  0  0  0  0  0  0  0  0  0  0
   59.7410   29.7210   44.8380 C   0  0  0  0  0  0  0  0  0  0  0  0
   60.5370   28.4280   45.0450 C   0  0  0  0  0  0  0  0  0  0  0  0
   59.9300   27.5980   46.1690 C   0  0  0  0  0  0  0  0  0  0  0  0
   58.5210   27.1570   45.7790 C   0  0  0  0  0  0  0  0  0  0  0  0
   58.3900   31.9830   46.6130 C   0  0  0  0  0  0  0  0  0  0  0  0
   61.2059   29.4344   48.8007 H   0  0  0  0  0  0  0  0  0  0  0  0
   60.3378   30.1600   47.3867 H   0  0  0  0  0  0  0  0  0  0  0  0
   61.2362   32.0033   46.2546 H   0  0  0  0  0  0  0  0  0  0  0  0
   62.9738   33.7851   46.0761 H   0  0  0  0  0  0  0  0  0  0  0  0
   64.5529   34.1885   47.9685 H   0  0  0  0  0  0  0  0  0  0  0  0
   64.4029   32.7986   50.0383 H   0  0  0  0  0  0  0  0  0  0  0  0
   62.6765   31.0087   50.2187 H   0  0  0  0  0  0  0  0  0  0  0  0
   59.3962   34.5480   48.6419 H   0  0  0  0  0  0  0  0  0  0  0  0
   59.2157   35.7896   46.4868 H   0  0  0  0  0  0  0  0  0  0  0  0
   58.4953   34.6043   44.4149 H   0  0  0  0  0  0  0  0  0  0  0  0
   57.0003   32.5409   43.6964 H   0  0  0  0  0  0  0  0  0  0  0  0
   58.6678   31.9137   43.4348 H   0  0  0  0  0  0  0  0  0  0  0  0
   60.0270   30.1523   43.8673 H   0  0  0  0  0  0  0  0  0  0  0  0
   59.9829   30.3838   45.6820 H   0  0  0  0  0  0  0  0  0  0  0  0
   60.5224   27.8417   44.1144 H   0  0  0  0  0  0  0  0  0  0  0  0
   61.5711   28.6879   45.3152 H   0  0  0  0  0  0  0  0  0  0  0  0
   60.5550   26.7104   46.3469 H   0  0  0  0  0  0  0  0  0  0  0  0
   59.8816   28.2049   47.0852 H   0  0  0  0  0  0  0  0  0  0  0  0
   58.5936   26.4226   44.9633 H   0  0  0  0  0  0  0  0  0  0  0  0
   58.0462   26.7224   46.6710 H   0  0  0  0  0  0  0  0  0  0  0  0
   58.1690   30.9060   46.6474 H   0  0  0  0  0  0  0  0  0  0  0  0
  1  2  2  0
  2  3  1  0
  3  4  1  0
  4  5  1  0
  5  6  2  0
  6  7  1  0
  7  8  2  0
  8  9  1  0
  9 10  2  0
  2 11  1  0
 11 12  2  0
 12 13  1  0
 13 14  2  0
 14 15  1  0
 15 16  1  0
 16 17  1  0
 17 18  2  0
 18 19  1  0
 19 20  1  0
 20 21  2  0
 20 22  1  0
 22 23  2  0
 23 24  1  0
 24 25  1  0
 25 26  1  0
 26 27  1  0
 15 28  2  0
 10  5  1  0
 28 11  1  0
 23 17  1  0
 27 22  1  0
  4 29  1  0
  4 30  1  0
  6 31  1  0
  7 32  1  0
  8 33  1  0
  9 34  1  0
 10 35  1  0
 12 36  1  0
 13 37  1  0
 14 38  1  0
 16 39  1  0
 16 40  1  0
 24 41  1  0
 24 42  1  0
 25 43  1  0
 25 44  1  0
 26 45  1  0
 26 46  1  0
 27 47  1  0
 27 48  1  0
 28 49  1  0
M  CHG  2   3  -1  19  -1
M  END
>  <UniqueID>  (59) 
58

>  <SMILES>  (59) 
O=C([N-]Cc1ccccc1)c1cccc(Cc2n[n-]c(=O)c3c2CCCC3)c1

>  <Energy>  (59) 
54.14627805111806

>  <Genealogy>  (59) 
O=C([N-]Cc1ccccc1)c1cccc(Cc2n[n-]c(=O)c3c2CCCC3)c1 (protonated)
O=C([N-]Cc1ccccc1)c1cccc(Cc2n[n-]c(=O)c3c2CCCC3)c1 (3D coordinates assigned)
O=C([N-]Cc1ccccc1)c1cccc(Cc2n[n-]c(=O)c3c2CCCC3)c1 (nonaromatic ring conformer: 54.14627805111806 kcal/mol)

>  <smiles>  (59) 
O=C(NCc1ccccc1)c1cccc(Cc2n[nH]c(=O)c3c2CCCC3)c1

>  <score_type>  (59) 
oracle

>  <origin>  (59) 
adg

>  <m_score__min__energy>  (59) 
-14.109999999999999

>  <m_primary>  (59) 
energy

$$$$
59:0
     RDKit          3D

 45 47  0  0  0  0  0  0  0  0999 V2000
   60.8960   33.7970   49.8660 C   0  0  0  0  0  0  0  0  0  0  0  0
   59.5870   33.6670   49.3210 O   0  0  0  0  0  0  0  0  0  0  0  0
   59.2510   33.9530   47.9890 C   0  0  0  0  0  0  0  0  0  0  0  0
   59.9690   34.9520   47.3210 C   0  0  0  0  0  0  0  0  0  0  0  0
   59.6900   35.2520   45.9850 C   0  0  0  0  0  0  0  0  0  0  0  0
   58.6880   34.5570   45.3040 C   0  0  0  0  0  0  0  0  0  0  0  0
   57.9440   33.5680   45.9620 C   0  0  0  0  0  0  0  0  0  0  0  0
   56.8970   32.7780   45.2140 C   0  0  0  0  0  0  0  0  0  0  0  0
   57.4990   32.0650   44.0010 C   0  0  0  0  0  0  0  0  0  0  0  0
   57.8730   30.7040   44.3580 N   0  0  0  0  0  0  0  0  0  0  0  0
   56.9380   29.6350   44.5050 C   0  0  0  0  0  0  0  0  0  0  0  0
   55.7320   29.8710   44.7820 O   0  0  0  0  0  0  0  0  0  0  0  0
   57.4120   28.2260   44.3340 C   0  0  0  0  0  0  0  0  0  0  0  0
   57.5050   27.5190   45.6880 C   0  0  0  0  0  0  0  0  0  0  0  0
   56.7050   26.2580   45.6720 C   0  0  0  0  0  0  0  0  0  0  0  0
   55.4990   26.1130   46.2540 N   0  0  0  0  0  0  0  0  0  0  0  0
   55.1080   24.8760   45.9930 N   0  0  0  0  0  0  0  0  0  0  0  0
   56.0890   24.3190   45.2570 C   0  0  0  0  0  0  0  0  0  0  0  0
   56.0610   22.9460   44.7470 C   0  0  0  0  0  0  0  0  0  0  0  0
   56.2010   21.8000   45.5020 C   0  0  0  0  0  0  0  0  0  0  0  0
   56.1060   20.7930   44.5670 C   0  0  0  0  0  0  0  0  0  0  0  0
   56.1720   19.3290   44.8400 C   0  0  0  0  0  0  0  0  0  0  0  0
   55.9230   21.3240   43.3810 O   0  0  0  0  0  0  0  0  0  0  0  0
   55.8920   22.6240   43.4490 N   0  0  0  0  0  0  0  0  0  0  0  0
   57.0710   25.1620   45.0540 O   0  0  0  0  0  0  0  0  0  0  0  0
   58.2290   33.2670   47.3050 C   0  0  0  0  0  0  0  0  0  0  0  0
   60.8381   33.7912   50.9645 H   0  0  0  0  0  0  0  0  0  0  0  0
   61.5194   32.9563   49.5273 H   0  0  0  0  0  0  0  0  0  0  0  0
   61.3418   34.7438   49.5273 H   0  0  0  0  0  0  0  0  0  0  0  0
   60.7584   35.5047   47.8515 H   0  0  0  0  0  0  0  0  0  0  0  0
   60.2610   36.0375   45.4683 H   0  0  0  0  0  0  0  0  0  0  0  0
   58.4821   34.7865   44.2481 H   0  0  0  0  0  0  0  0  0  0  0  0
   56.4625   32.0279   45.8912 H   0  0  0  0  0  0  0  0  0  0  0  0
   56.1244   33.4755   44.8583 H   0  0  0  0  0  0  0  0  0  0  0  0
   56.7571   32.0378   43.1893 H   0  0  0  0  0  0  0  0  0  0  0  0
   58.3950   32.6104   43.6697 H   0  0  0  0  0  0  0  0  0  0  0  0
   56.7045   27.6825   43.6906 H   0  0  0  0  0  0  0  0  0  0  0  0
   58.4110   28.2421   43.8739 H   0  0  0  0  0  0  0  0  0  0  0  0
   58.5572   27.2782   45.8998 H   0  0  0  0  0  0  0  0  0  0  0  0
   57.1059   28.1853   46.4670 H   0  0  0  0  0  0  0  0  0  0  0  0
   56.3520   21.7117   46.5880 H   0  0  0  0  0  0  0  0  0  0  0  0
   56.1797   19.1586   45.9267 H   0  0  0  0  0  0  0  0  0  0  0  0
   55.2953   18.8336   44.3974 H   0  0  0  0  0  0  0  0  0  0  0  0
   57.0897   18.9145   44.3974 H   0  0  0  0  0  0  0  0  0  0  0  0
   57.6497   32.4901   47.8254 H   0  0  0  0  0  0  0  0  0  0  0  0
  1  2  1  0
  2  3  1  0
  3  4  2  0
  4  5  1  0
  5  6  2  0
  6  7  1  0
  7  8  1  0
  8  9  1  0
  9 10  1  0
 10 11  1  0
 11 12  2  0
 11 13  1  0
 13 14  1  0
 14 15  1  0
 15 16  2  0
 16 17  1  0
 17 18  2  0
 18 19  1  0
 19 20  1  0
 20 21  2  0
 21 22  1  0
 21 23  1  0
 23 24  1  0
 18 25  1  0
  7 26  2  0
 26  3  1  0
 25 15  1  0
 24 19  2  0
  1 27  1  0
  1 28  1  0
  1 29  1  0
  4 30  1  0
  5 31  1  0
  6 32  1  0
  8 33  1  0
  8 34  1  0
  9 35  1  0
  9 36  1  0
 13 37  1  0
 13 38  1  0
 14 39  1  0
 14 40  1  0
 20 41  1  0
 22 42  1  0
 22 43  1  0
 22 44  1  0
 26 45  1  0
M  CHG  1  10  -1
M  END
>  <UniqueID>  (60) 
59

>  <SMILES>  (60) 
COc1cccc(CC[N-]C(=O)CCc2nnc(-c3cc(C)on3)o2)c1

>  <Energy>  (60) 
97.93872717781545

>  <Genealogy>  (60) 
COc1cccc(CC[N-]C(=O)CCc2nnc(-c3cc(C)on3)o2)c1 (protonated)
COc1cccc(CC[N-]C(=O)CCc2nnc(-c3cc(C)on3)o2)c1 (3D coordinates assigned)
COc1cccc(CC[N-]C(=O)CCc2nnc(-c3cc(C)on3)o2)c1 (optimized conformer: 97.93872717781545 kcal/mol)

>  <smiles>  (60) 
COc1cccc(CCNC(=O)CCc2nnc(-c3cc(C)on3)o2)c1

>  <score_type>  (60) 
oracle

>  <origin>  (60) 
adg

>  <m_score__min__energy>  (60) 
-9.8599999999999994

>  <m_primary>  (60) 
energy

$$$$
60:0
     RDKit          3D

 65 69  0  0  0  0  0  0  0  0999 V2000
   59.3580   28.2060   45.9730 O   0  0  0  0  0  0  0  0  0  0  0  0
   58.1580   28.3220   46.3520 C   0  0  0  0  0  0  0  0  0  0  0  0
   57.5130   27.2300   47.1500 C   0  0  0  0  0  0  0  0  0  0  0  0
   57.1140   26.1170   46.2830 N   0  0  0  0  0  0  0  0  0  0  0  0
   55.8570   25.8700   45.8310 C   0  0  0  0  0  0  0  0  0  0  0  0
   54.7720   26.7090   46.0620 O   0  0  0  0  0  0  0  0  0  0  0  0
   55.7820   24.6700   45.1360 C   0  0  0  0  0  0  0  0  0  0  0  0
   57.0660   24.1660   45.1860 C   0  0  0  0  0  0  0  0  0  0  0  0
   57.5800   22.9790   44.6680 C   0  0  0  0  0  0  0  0  0  0  0  0
   58.9460   22.7100   44.8760 C   0  0  0  0  0  0  0  0  0  0  0  0
   59.7590   23.6200   45.5900 C   0  0  0  0  0  0  0  0  0  0  0  0
   59.2130   24.8090   46.1090 C   0  0  0  0  0  0  0  0  0  0  0  0
   57.8510   25.0580   45.8850 C   0  0  0  0  0  0  0  0  0  0  0  0
   57.4080   29.5020   46.0400 N   0  0  0  0  0  0  0  0  0  0  0  0
   57.3090   30.1170   44.7460 C   0  0  0  0  0  0  0  0  0  0  0  0
   56.5240   29.4840   43.7720 C   0  0  0  0  0  0  0  0  0  0  0  0
   56.3750   30.0480   42.5040 C   0  0  0  0  0  0  0  0  0  0  0  0
   57.0170   31.2470   42.1920 C   0  0  0  0  0  0  0  0  0  0  0  0
   57.8290   31.8700   43.1420 C   0  0  0  0  0  0  0  0  0  0  0  0
   58.0070   31.2990   44.4200 C   0  0  0  0  0  0  0  0  0  0  0  0
   58.8920   31.8570   45.3620 O   0  0  0  0  0  0  0  0  0  0  0  0
   58.5220   32.6810   46.4680 C   0  0  0  0  0  0  0  0  0  0  0  0
   58.9100   32.0630   47.7810 C   0  0  0  0  0  0  0  0  0  0  0  0
   59.0020   32.8070   48.7970 O   0  0  0  0  0  0  0  0  0  0  0  0
   59.1690   30.6510   47.8880 N   0  0  0  0  0  0  0  0  0  0  0  0
   59.4100   29.9890   49.1380 C   0  0  0  0  0  0  0  0  0  0  0  0
   60.5240   29.1520   49.3140 C   0  0  0  0  0  0  0  0  0  0  0  0
   60.7450   28.5250   50.5440 C   0  0  0  0  0  0  0  0  0  0  0  0
   59.8630   28.7350   51.6080 C   0  0  0  0  0  0  0  0  0  0  0  0
   58.7600   29.5840   51.4500 C   0  0  0  0  0  0  0  0  0  0  0  0
   57.6270   29.8370   52.7740 S   0  0  0  0  0  0  0  0  0  0  0  0
   58.0410   28.9850   53.9410 O   0  0  0  0  0  0  0  0  0  0  0  0
   56.2430   29.4270   52.3490 O   0  0  0  0  0  0  0  0  0  0  0  0
   57.6530   31.5190   53.2400 N   0  0  0  0  0  0  0  0  0  0  0  0
   59.0150   31.9790   53.5160 C   0  0  0  0  0  0  0  0  0  0  0  0
   59.0730   33.4560   53.1400 C   0  0  0  0  0  0  0  0  0  0  0  0
   57.7860   33.7360   52.3810 C   0  0  0  0  0  0  0  0  0  0  0  0
   57.1580   32.3720   52.1620 C   0  0  0  0  0  0  0  0  0  0  0  0
   58.5390   30.2120   50.2160 C   0  0  0  0  0  0  0  0  0  0  0  0
   58.2270   26.8631   47.9021 H   0  0  0  0  0  0  0  0  0  0  0  0
   56.6150   27.6347   47.6396 H   0  0  0  0  0  0  0  0  0  0  0  0
   54.8997   24.2227   44.6549 H   0  0  0  0  0  0  0  0  0  0  0  0
   56.9399   22.2758   44.1151 H   0  0  0  0  0  0  0  0  0  0  0  0
   59.3851   21.7828   44.4792 H   0  0  0  0  0  0  0  0  0  0  0  0
   60.8256   23.3973   45.7410 H   0  0  0  0  0  0  0  0  0  0  0  0
   59.8347   25.5203   46.6724 H   0  0  0  0  0  0  0  0  0  0  0  0
   56.0212   28.5348   44.0091 H   0  0  0  0  0  0  0  0  0  0  0  0
   55.7507   29.5467   41.7497 H   0  0  0  0  0  0  0  0  0  0  0  0
   56.8836   31.7009   41.1989 H   0  0  0  0  0  0  0  0  0  0  0  0
   58.3344   32.8144   42.8918 H   0  0  0  0  0  0  0  0  0  0  0  0
   59.0252   33.6543   46.3705 H   0  0  0  0  0  0  0  0  0  0  0  0
   57.4282   32.7973   46.4558 H   0  0  0  0  0  0  0  0  0  0  0  0
   59.3130   30.1030   47.0130 H   0  0  0  0  0  0  0  0  0  0  0  0
   61.2246   28.9893   48.4818 H   0  0  0  0  0  0  0  0  0  0  0  0
   61.6151   27.8648   50.6748 H   0  0  0  0  0  0  0  0  0  0  0  0
   60.0354   28.2326   52.5712 H   0  0  0  0  0  0  0  0  0  0  0  0
   59.2474   31.8518   54.5836 H   0  0  0  0  0  0  0  0  0  0  0  0
   59.7495   31.3983   52.9386 H   0  0  0  0  0  0  0  0  0  0  0  0
   59.1292   34.0803   54.0439 H   0  0  0  0  0  0  0  0  0  0  0  0
   59.9613   33.6869   52.5337 H   0  0  0  0  0  0  0  0  0  0  0  0
   57.1188   34.3787   52.9741 H   0  0  0  0  0  0  0  0  0  0  0  0
   57.9701   34.2643   51.4339 H   0  0  0  0  0  0  0  0  0  0  0  0
   56.0613   32.4453   52.2064 H   0  0  0  0  0  0  0  0  0  0  0  0
   57.4195   31.9636   51.1747 H   0  0  0  0  0  0  0  0  0  0  0  0
   57.6771   30.8841   50.0918 H   0  0  0  0  0  0  0  0  0  0  0  0
  1  2  2  0
  2  3  1  0
  3  4  1  0
  4  5  1  0
  5  6  1  0
  5  7  2  0
  7  8  1  0
  8  9  2  0
  9 10  1  0
 10 11  2  0
 11 12  1  0
 12 13  2  0
  2 14  1  0
 14 15  1  0
 15 16  2  0
 16 17  1  0
 17 18  2  0
 18 19  1  0
 19 20  2  0
 20 21  1  0
 21 22  1  0
 22 23  1  0
 23 24  2  0
 23 25  1  0
 25 26  1  0
 26 27  2  0
 27 28  1  0
 28 29  2  0
 29 30  1  0
 30 31  1  0
 31 32  2  0
 31 33  2  0
 31 34  1  0
 34 35  1  0
 35 36  1  0
 36 37  1  0
 37 38  1  0
 30 39  2  0
 13  4  1  0
 20 15  1  0
 39 26  1  0
 13  8  1  0
 38 34  1  0
  3 40  1  0
  3 41  1  0
  7 42  1  0
  9 43  1  0
 10 44  1  0
 11 45  1  0
 12 46  1  0
 16 47  1  0
 17 48  1  0
 18 49  1  0
 19 50  1  0
 22 51  1  0
 22 52  1  0
 25 53  1  0
 27 54  1  0
 28 55  1  0
 29 56  1  0
 35 57  1  0
 35 58  1  0
 36 59  1  0
 36 60  1  0
 37 61  1  0
 37 62  1  0
 38 63  1  0
 38 64  1  0
 39 65  1  0
M  CHG  2   6  -1  14  -1
M  END
>  <UniqueID>  (61) 
60

>  <SMILES>  (61) 
O=C(Cn1c([O-])cc2ccccc21)[N-]c1ccccc1OCC(=O)Nc1cccc(S(=O)(=O)N2CCCC2)c1

>  <Energy>  (61) 
113.65565914870619

>  <Genealogy>  (61) 
O=C(Cn1c([O-])cc2ccccc21)[N-]c1ccccc1OCC(=O)Nc1cccc(S(=O)(=O)N2CCCC2)c1 (protonated)
O=C(Cn1c([O-])cc2ccccc21)[N-]c1ccccc1OCC(=O)Nc1cccc(S(=O)(=O)N2CCCC2)c1 (3D coordinates assigned)
O=C(Cn1c([O-])cc2ccccc21)[N-]c1ccccc1OCC(=O)Nc1cccc(S(=O)(=O)N2CCCC2)c1 (nonaromatic ring conformer: 113.65565914870619 kcal/mol)

>  <smiles>  (61) 
O=C(COc1ccccc1NC(=O)Cn1c(O)cc2ccccc21)Nc1cccc(S(=O)(=O)N2CCCC2)c1

>  <score_type>  (61) 
oracle

>  <origin>  (61) 
adg

>  <m_score__min__energy>  (61) 
-15.5

>  <m_primary>  (61) 
energy

$$$$
61:0
     RDKit          3D

 47 49  0  0  0  0  0  0  0  0999 V2000
   56.3050   22.0780   48.4740 C   0  0  0  0  0  0  0  0  0  0  0  0
   57.3490   22.2290   47.5170 O   0  0  0  0  0  0  0  0  0  0  0  0
   57.1500   22.3320   46.1300 C   0  0  0  0  0  0  0  0  0  0  0  0
   57.6090   21.3490   45.2310 C   0  0  0  0  0  0  0  0  0  0  0  0
   57.3810   21.4860   43.8590 C   0  0  0  0  0  0  0  0  0  0  0  0
   56.7020   22.6030   43.3680 C   0  0  0  0  0  0  0  0  0  0  0  0
   56.2460   23.5870   44.2480 C   0  0  0  0  0  0  0  0  0  0  0  0
   56.4540   23.4490   45.6330 C   0  0  0  0  0  0  0  0  0  0  0  0
   55.9890   24.4490   46.5500 N   0  0  0  0  0  0  0  0  0  0  0  0
   55.8940   25.8560   46.2830 C   0  0  0  0  0  0  0  0  0  0  0  0
   54.7680   26.3440   45.9950 O   0  0  0  0  0  0  0  0  0  0  0  0
   57.0840   26.7290   46.2450 C   0  0  0  0  0  0  0  0  0  0  0  0
   58.0970   26.7880   47.1880 C   0  0  0  0  0  0  0  0  0  0  0  0
   58.9240   27.8100   46.8910 N   0  0  0  0  0  0  0  0  0  0  0  0
   58.4720   28.3830   45.7870 N   0  0  0  0  0  0  0  0  0  0  0  0
   59.0410   29.5940   45.2020 C   0  0  0  0  0  0  0  0  0  0  0  0
   58.0670   30.7330   45.3080 C   0  0  0  0  0  0  0  0  0  0  0  0
   56.8300   30.5130   45.2050 O   0  0  0  0  0  0  0  0  0  0  0  0
   58.5460   32.1170   45.5010 C   0  0  0  0  0  0  0  0  0  0  0  0
   58.9340   32.5080   46.7910 C   0  0  0  0  0  0  0  0  0  0  0  0
   59.2600   33.8420   47.0670 C   0  0  0  0  0  0  0  0  0  0  0  0
   59.6570   34.2460   48.4560 C   0  0  0  0  0  0  0  0  0  0  0  0
   59.2410   34.7830   46.0320 C   0  0  0  0  0  0  0  0  0  0  0  0
   58.8760   34.4020   44.7390 C   0  0  0  0  0  0  0  0  0  0  0  0
   58.5340   33.0710   44.4540 C   0  0  0  0  0  0  0  0  0  0  0  0
   58.1130   32.7240   43.0500 C   0  0  0  0  0  0  0  0  0  0  0  0
   57.3560   27.7590   45.3680 C   0  0  0  0  0  0  0  0  0  0  0  0
   56.7259   22.1389   49.4885 H   0  0  0  0  0  0  0  0  0  0  0  0
   55.5628   22.8781   48.3363 H   0  0  0  0  0  0  0  0  0  0  0  0
   55.8200   21.1004   48.3363 H   0  0  0  0  0  0  0  0  0  0  0  0
   58.1494   20.4694   45.6109 H   0  0  0  0  0  0  0  0  0  0  0  0
   57.7375   20.7116   43.1638 H   0  0  0  0  0  0  0  0  0  0  0  0
   56.5261   22.7080   42.2872 H   0  0  0  0  0  0  0  0  0  0  0  0
   55.7228   24.4723   43.8575 H   0  0  0  0  0  0  0  0  0  0  0  0
   58.2089   26.1074   48.0449 H   0  0  0  0  0  0  0  0  0  0  0  0
   59.9652   29.8560   45.7380 H   0  0  0  0  0  0  0  0  0  0  0  0
   59.2602   29.4089   44.1401 H   0  0  0  0  0  0  0  0  0  0  0  0
   58.9828   31.7587   47.5948 H   0  0  0  0  0  0  0  0  0  0  0  0
   59.0810   33.6598   49.1871 H   0  0  0  0  0  0  0  0  0  0  0  0
   60.7312   34.0577   48.5997 H   0  0  0  0  0  0  0  0  0  0  0  0
   59.4500   35.3167   48.5997 H   0  0  0  0  0  0  0  0  0  0  0  0
   59.5150   35.8283   46.2377 H   0  0  0  0  0  0  0  0  0  0  0  0
   58.8563   35.1530   43.9355 H   0  0  0  0  0  0  0  0  0  0  0  0
   57.2646   32.0247   43.0839 H   0  0  0  0  0  0  0  0  0  0  0  0
   57.8122   33.6400   42.5204 H   0  0  0  0  0  0  0  0  0  0  0  0
   58.9547   32.2539   42.5204 H   0  0  0  0  0  0  0  0  0  0  0  0
   56.7632   28.0240   44.4801 H   0  0  0  0  0  0  0  0  0  0  0  0
  1  2  1  0
  2  3  1  0
  3  4  2  0
  4  5  1  0
  5  6  2  0
  6  7  1  0
  7  8  2  0
  8  9  1  0
  9 10  1  0
 10 11  2  0
 10 12  1  0
 12 13  1  0
 13 14  2  0
 14 15  1  0
 15 16  1  0
 16 17  1  0
 17 18  2  0
 17 19  1  0
 19 20  2  0
 20 21  1  0
 21 22  1  0
 21 23  2  0
 23 24  1  0
 24 25  2  0
 25 26  1  0
 15 27  1  0
  8  3  1  0
 27 12  2  0
 25 19  1  0
  1 28  1  0
  1 29  1  0
  1 30  1  0
  4 31  1  0
  5 32  1  0
  6 33  1  0
  7 34  1  0
 13 35  1  0
 16 36  1  0
 16 37  1  0
 20 38  1  0
 22 39  1  0
 22 40  1  0
 22 41  1  0
 23 42  1  0
 24 43  1  0
 26 44  1  0
 26 45  1  0
 26 46  1  0
 27 47  1  0
M  CHG  1   9  -1
M  END
>  <UniqueID>  (62) 
61

>  <SMILES>  (62) 
COc1ccccc1[N-]C(=O)c1cnn(CC(=O)c2cc(C)ccc2C)c1

>  <Energy>  (62) 
85.99251055194192

>  <Genealogy>  (62) 
COc1ccccc1[N-]C(=O)c1cnn(CC(=O)c2cc(C)ccc2C)c1 (protonated)
COc1ccccc1[N-]C(=O)c1cnn(CC(=O)c2cc(C)ccc2C)c1 (3D coordinates assigned)
COc1ccccc1[N-]C(=O)c1cnn(CC(=O)c2cc(C)ccc2C)c1 (optimized conformer: 85.99251055194192 kcal/mol)

>  <smiles>  (62) 
COc1ccccc1NC(=O)c1cnn(CC(=O)c2cc(C)ccc2C)c1

>  <score_type>  (62) 
oracle

>  <origin>  (62) 
adg

>  <m_score__min__energy>  (62) 
-11.279999999999999

>  <m_primary>  (62) 
energy

$$$$
62:0
     RDKit          3D

 64 67  0  0  0  0  0  0  0  0999 V2000
   56.8800   24.7180   44.7670 C   0  0  0  0  0  0  0  0  0  0  0  0
   57.3180   25.7770   45.6720 N   0  0  0  0  0  0  0  0  0  0  0  0
   56.5820   26.8010   46.1480 C   0  0  0  0  0  0  0  0  0  0  0  0
   55.2190   26.9610   45.9310 O   0  0  0  0  0  0  0  0  0  0  0  0
   57.3900   27.6650   46.8610 C   0  0  0  0  0  0  0  0  0  0  0  0
   58.6500   27.1850   46.8080 N   0  0  0  0  0  0  0  0  0  0  0  0
   59.8350   27.7910   47.4100 C   0  0  0  0  0  0  0  0  0  0  0  0
   59.8530   27.5460   48.9190 C   0  0  0  0  0  0  0  0  0  0  0  0
   60.1960   28.8070   49.6490 C   0  0  0  0  0  0  0  0  0  0  0  0
   59.3130   29.6960   49.7920 O   0  0  0  0  0  0  0  0  0  0  0  0
   61.5440   29.0300   50.0840 N   0  0  0  0  0  0  0  0  0  0  0  0
   62.2290   30.2910   50.1370 C   0  0  0  0  0  0  0  0  0  0  0  0
   63.4370   30.3670   50.8410 C   0  0  0  0  0  0  0  0  0  0  0  0
   64.1350   31.5730   50.9180 C   0  0  0  0  0  0  0  0  0  0  0  0
   63.6280   32.7190   50.3010 C   0  0  0  0  0  0  0  0  0  0  0  0
   62.4130   32.6680   49.5990 C   0  0  0  0  0  0  0  0  0  0  0  0
   61.8570   33.8830   48.9600 C   0  0  0  0  0  0  0  0  0  0  0  0
   62.5170   34.9570   49.0010 O   0  0  0  0  0  0  0  0  0  0  0  0
   60.5920   33.8610   48.2730 N   0  0  0  0  0  0  0  0  0  0  0  0
   60.4640   34.5640   46.9870 C   0  0  0  0  0  0  0  0  0  0  0  0
   58.9960   34.7810   46.5880 C   0  0  0  0  0  0  0  0  0  0  0  0
   58.1060   33.5170   46.7390 C   0  0  0  0  0  0  0  0  0  0  0  0
   57.9440   32.7890   45.4140 C   0  0  0  0  0  0  0  0  0  0  0  0
   58.3110   33.3960   44.1980 C   0  0  0  0  0  0  0  0  0  0  0  0
   58.1380   32.7220   42.9870 C   0  0  0  0  0  0  0  0  0  0  0  0
   57.5920   31.4380   42.9700 C   0  0  0  0  0  0  0  0  0  0  0  0
   57.2020   30.8220   44.1670 C   0  0  0  0  0  0  0  0  0  0  0  0
   56.6390   29.4220   44.1540 C   0  0  0  0  0  0  0  0  0  0  0  0
   55.3800   29.3570   44.8920 N   0  0  0  0  0  0  0  0  0  0  0  0
   57.3900   31.4950   45.3860 C   0  0  0  0  0  0  0  0  0  0  0  0
   58.5580   32.5610   47.8720 C   0  0  0  0  0  0  0  0  0  0  0  0
   59.4050   33.2840   48.9190 C   0  0  0  0  0  0  0  0  0  0  0  0
   61.7050   31.4540   49.5440 C   0  0  0  0  0  0  0  0  0  0  0  0
   58.5740   26.0470   46.0830 C   0  0  0  0  0  0  0  0  0  0  0  0
   59.5700   25.3260   45.8050 O   0  0  0  0  0  0  0  0  0  0  0  0
   56.5244   23.8581   45.3537 H   0  0  0  0  0  0  0  0  0  0  0  0
   56.0629   25.0923   44.1328 H   0  0  0  0  0  0  0  0  0  0  0  0
   57.7228   24.4058   44.1328 H   0  0  0  0  0  0  0  0  0  0  0  0
   57.0650   28.5795   47.3787 H   0  0  0  0  0  0  0  0  0  0  0  0
   60.7361   27.3483   46.9605 H   0  0  0  0  0  0  0  0  0  0  0  0
   59.8131   28.8752   47.2256 H   0  0  0  0  0  0  0  0  0  0  0  0
   58.8602   27.1992   49.2416 H   0  0  0  0  0  0  0  0  0  0  0  0
   60.6126   26.7839   49.1474 H   0  0  0  0  0  0  0  0  0  0  0  0
   63.8383   29.4706   51.3364 H   0  0  0  0  0  0  0  0  0  0  0  0
   65.0874   31.6212   51.4663 H   0  0  0  0  0  0  0  0  0  0  0  0
   64.1834   33.6663   50.3654 H   0  0  0  0  0  0  0  0  0  0  0  0
   60.9576   35.5437   47.0681 H   0  0  0  0  0  0  0  0  0  0  0  0
   60.9359   33.9409   46.2130 H   0  0  0  0  0  0  0  0  0  0  0  0
   58.5787   35.5757   47.2239 H   0  0  0  0  0  0  0  0  0  0  0  0
   58.9926   35.0465   45.5205 H   0  0  0  0  0  0  0  0  0  0  0  0
   57.1168   33.8848   47.0490 H   0  0  0  0  0  0  0  0  0  0  0  0
   58.7377   34.4099   44.2016 H   0  0  0  0  0  0  0  0  0  0  0  0
   58.4331   33.2049   42.0437 H   0  0  0  0  0  0  0  0  0  0  0  0
   57.4673   30.9077   42.0144 H   0  0  0  0  0  0  0  0  0  0  0  0
   56.4617   29.1153   43.1126 H   0  0  0  0  0  0  0  0  0  0  0  0
   57.3630   28.7487   44.6362 H   0  0  0  0  0  0  0  0  0  0  0  0
   54.8010   28.5760   44.5040 H   0  0  0  0  0  0  0  0  0  0  0  0
   55.5890   29.1390   45.8930 H   0  0  0  0  0  0  0  0  0  0  0  0
   57.1014   31.0059   46.3281 H   0  0  0  0  0  0  0  0  0  0  0  0
   57.6664   32.1426   48.3620 H   0  0  0  0  0  0  0  0  0  0  0  0
   59.1722   31.7658   47.4244 H   0  0  0  0  0  0  0  0  0  0  0  0
   58.8115   34.0870   49.3804 H   0  0  0  0  0  0  0  0  0  0  0  0
   59.7193   32.5697   49.6943 H   0  0  0  0  0  0  0  0  0  0  0  0
   60.7321   31.4136   49.0323 H   0  0  0  0  0  0  0  0  0  0  0  0
  1  2  1  0
  2  3  1  0
  3  4  1  0
  3  5  2  0
  5  6  1  0
  6  7  1  0
  7  8  1  0
  8  9  1  0
  9 10  2  0
  9 11  1  0
 11 12  1  0
 12 13  2  0
 13 14  1  0
 14 15  2  0
 15 16  1  0
 16 17  1  0
 17 18  2  0
 17 19  1  0
 19 20  1  0
 20 21  1  0
 21 22  1  0
 22 23  1  0
 23 24  2  0
 24 25  1  0
 25 26  2  0
 26 27  1  0
 27 28  1  0
 28 29  1  0
 27 30  2  0
 22 31  1  0
 31 32  1  0
 16 33  2  0
  6 34  1  0
 34 35  2  0
 34  2  1  0
 33 12  1  0
 32 19  1  0
 30 23  1  0
  1 36  1  0
  1 37  1  0
  1 38  1  0
  5 39  1  0
  7 40  1  0
  7 41  1  0
  8 42  1  0
  8 43  1  0
 13 44  1  0
 14 45  1  0
 15 46  1  0
 20 47  1  0
 20 48  1  0
 21 49  1  0
 21 50  1  0
 22 51  1  0
 24 52  1  0
 25 53  1  0
 26 54  1  0
 28 55  1  0
 28 56  1  0
 29 57  1  0
 29 58  1  0
 30 59  1  0
 31 60  1  0
 31 61  1  0
 32 62  1  0
 32 63  1  0
 33 64  1  0
M  CHG  2   4  -1  11  -1
M  END
>  <UniqueID>  (63) 
62

>  <SMILES>  (63) 
Cn1c([O-])cn(CCC(=O)[N-]c2cccc(C(=O)N3CCC(c4cccc(CN)c4)CC3)c2)c1=O

>  <Energy>  (63) 
107.91152426602514

>  <Genealogy>  (63) 
Cn1c([O-])cn(CCC(=O)[N-]c2cccc(C(=O)N3CCC(c4cccc(CN)c4)CC3)c2)c1=O (protonated)
Cn1c([O-])cn(CCC(=O)[N-]c2cccc(C(=O)N3CCC(c4cccc(CN)c4)CC3)c2)c1=O (3D coordinates assigned)
Cn1c([O-])cn(CCC(=O)[N-]c2cccc(C(=O)N3CCC(c4cccc(CN)c4)CC3)c2)c1=O (nonaromatic ring conformer: 107.91152426602514 kcal/mol)

>  <smiles>  (63) 
Cn1c(O)cn(CCC(=O)Nc2cccc(C(=O)N3CCC(c4cccc(CN)c4)CC3)c2)c1=O

>  <score_type>  (63) 
oracle

>  <origin>  (63) 
adg

>  <m_score__min__energy>  (63) 
-15.75

>  <m_primary>  (63) 
energy

$$$$
63:0
     RDKit          3D

 56 59  0  0  0  0  0  0  0  0999 V2000
   59.9298   27.4150   46.3659 H   0  0  0  0  0  0  0  0  0  0  0  0
   59.3430   28.2270   46.8200 C   0  0  0  0  0  0  0  0  0  0  0  0
   58.3410   28.7570   46.0800 C   0  0  0  0  0  0  0  0  0  0  0  0
   57.0440   28.0710   45.8460 C   0  0  0  0  0  0  0  0  0  0  0  0
   56.7090   27.0520   46.5050 O   0  0  0  0  0  0  0  0  0  0  0  0
   56.1210   28.6070   44.9020 N   0  0  0  0  0  0  0  0  0  0  0  0
   56.3490   29.8550   44.2540 C   0  0  0  0  0  0  0  0  0  0  0  0
   55.5060   30.2700   43.4140 O   0  0  0  0  0  0  0  0  0  0  0  0
   57.5140   30.6410   44.5760 N   0  0  0  0  0  0  0  0  0  0  0  0
   57.6600   32.0070   44.0460 C   0  0  0  0  0  0  0  0  0  0  0  0
   58.7270   32.2139   43.8766 H   0  0  0  0  0  0  0  0  0  0  0  0
   57.0968   32.0769   43.1037 H   0  0  0  0  0  0  0  0  0  0  0  0
   57.0980   33.0460   45.0260 C   0  0  0  0  0  0  0  0  0  0  0  0
   56.7446   33.9185   44.4569 H   0  0  0  0  0  0  0  0  0  0  0  0
   56.2731   32.5798   45.5847 H   0  0  0  0  0  0  0  0  0  0  0  0
   58.1400   33.4980   46.0160 C   0  0  0  0  0  0  0  0  0  0  0  0
   59.0780   34.4800   45.6560 C   0  0  0  0  0  0  0  0  0  0  0  0
   59.0742   34.8939   44.6369 H   0  0  0  0  0  0  0  0  0  0  0  0
   60.0160   34.9330   46.5880 C   0  0  0  0  0  0  0  0  0  0  0  0
   60.7520   35.6979   46.2994 H   0  0  0  0  0  0  0  0  0  0  0  0
   60.0200   34.4150   47.8870 C   0  0  0  0  0  0  0  0  0  0  0  0
   60.7599   34.7711   48.6189 H   0  0  0  0  0  0  0  0  0  0  0  0
   59.0840   33.4450   48.2550 C   0  0  0  0  0  0  0  0  0  0  0  0
   59.0854   33.0405   49.2779 H   0  0  0  0  0  0  0  0  0  0  0  0
   58.1460   32.9880   47.3250 C   0  0  0  0  0  0  0  0  0  0  0  0
   57.4094   32.2258   47.6193 H   0  0  0  0  0  0  0  0  0  0  0  0
   58.5030   30.1100   45.4850 C   0  0  0  0  0  0  0  0  0  0  0  0
   59.5220   30.8020   45.7670 O   0  0  0  0  0  0  0  0  0  0  0  0
   59.7140   28.6480   48.1860 C   0  0  0  0  0  0  0  0  0  0  0  0
   60.7020   27.9610   48.9100 C   0  0  0  0  0  0  0  0  0  0  0  0
   61.1812   27.0717   48.4748 H   0  0  0  0  0  0  0  0  0  0  0  0
   61.0790   28.4030   50.1820 C   0  0  0  0  0  0  0  0  0  0  0  0
   61.8345   27.8446   50.7542 H   0  0  0  0  0  0  0  0  0  0  0  0
   60.4960   29.5590   50.7330 C   0  0  0  0  0  0  0  0  0  0  0  0
   60.8330   30.0340   52.0100 O   0  0  0  0  0  0  0  0  0  0  0  0
   60.9750   31.3800   52.3640 C   0  0  0  0  0  0  0  0  0  0  0  0
   60.4520   31.8330   53.4190 O   0  0  0  0  0  0  0  0  0  0  0  0
   61.7740   32.2310   51.5400 N   0  0  0  0  0  0  0  0  0  0  0  0
   62.9730   31.7670   50.8550 C   0  0  0  0  0  0  0  0  0  0  0  0
   63.8635   32.1676   51.3615 H   0  0  0  0  0  0  0  0  0  0  0  0
   63.0054   30.6676   50.8742 H   0  0  0  0  0  0  0  0  0  0  0  0
   62.9490   32.2440   49.4310 C   0  0  0  0  0  0  0  0  0  0  0  0
   63.6750   33.3850   49.0540 C   0  0  0  0  0  0  0  0  0  0  0  0
   64.2416   33.9489   49.8096 H   0  0  0  0  0  0  0  0  0  0  0  0
   63.6800   33.8070   47.7200 C   0  0  0  0  0  0  0  0  0  0  0  0
   64.2441   34.7059   47.4307 H   0  0  0  0  0  0  0  0  0  0  0  0
   62.9700   33.0890   46.7550 C   0  0  0  0  0  0  0  0  0  0  0  0
   62.9718   33.4252   45.7076 H   0  0  0  0  0  0  0  0  0  0  0  0
   62.2570   31.9430   47.1200 C   0  0  0  0  0  0  0  0  0  0  0  0
   61.7012   31.3758   46.3588 H   0  0  0  0  0  0  0  0  0  0  0  0
   62.2500   31.5170   48.4530 C   0  0  0  0  0  0  0  0  0  0  0  0
   61.6955   30.6101   48.7359 H   0  0  0  0  0  0  0  0  0  0  0  0
   59.5190   30.2460   50.0020 C   0  0  0  0  0  0  0  0  0  0  0  0
   59.0436   31.1398   50.4322 H   0  0  0  0  0  0  0  0  0  0  0  0
   59.1430   29.8050   48.7300 C   0  0  0  0  0  0  0  0  0  0  0  0
   58.3951   30.3695   48.1537 H   0  0  0  0  0  0  0  0  0  0  0  0
  1  2  1  0
  2  3  2  0
  3  4  1  0
  4  5  2  0
  4  6  1  0
  6  7  1  0
  7  8  2  0
  7  9  1  0
  9 10  1  0
 10 11  1  0
 10 12  1  0
 10 13  1  0
 13 14  1  0
 13 15  1  0
 13 16  1  0
 16 17  2  0
 17 18  1  0
 17 19  1  0
 19 20  1  0
 19 21  2  0
 21 22  1  0
 21 23  1  0
 23 24  1  0
 23 25  2  0
 25 26  1  0
  9 27  1  0
 27 28  2  0
  2 29  1  0
 29 30  2  0
 30 31  1  0
 30 32  1  0
 32 33  1  0
 32 34  2  0
 34 35  1  0
 35 36  1  0
 36 37  2  0
 36 38  1  0
 38 39  1  0
 39 40  1  0
 39 41  1  0
 39 42  1  0
 42 43  2  0
 43 44  1  0
 43 45  1  0
 45 46  1  0
 45 47  2  0
 47 48  1  0
 47 49  1  0
 49 50  1  0
 49 51  2  0
 51 52  1  0
 34 53  1  0
 53 54  1  0
 53 55  2  0
 55 56  1  0
 27  3  1  0
 55 29  1  0
 25 16  1  0
 51 42  1  0
M  CHG  2   6  -1  38  -1
M  END
>  <UniqueID>  (64) 
63

>  <SMILES>  (64) 
O=C([N-]Cc1ccccc1)Oc1ccc(/C=C2\C(=O)[N-]C(=O)N(CCc3ccccc3)C2=O)cc1

>  <Energy>  (64) 
68.35744982731276

>  <Genealogy>  (64) 
O=C([N-]Cc1ccccc1)Oc1ccc(C=C2C(=O)[N-]C(=O)N(CCc3ccccc3)C2=O)cc1 (protonated)
O=C([N-]Cc1ccccc1)Oc1ccc(/C=C2\C(=O)[N-]C(=O)N(CCc3ccccc3)C2=O)cc1 (cis-trans isomerization)
O=C([N-]Cc1ccccc1)Oc1ccc(/C=C2\C(=O)[N-]C(=O)N(CCc3ccccc3)C2=O)cc1 (3D coordinates assigned)
O=C([N-]Cc1ccccc1)Oc1ccc(/C=C2\C(=O)[N-]C(=O)N(CCc3ccccc3)C2=O)cc1 (nonaromatic ring conformer: 68.35744982731276 kcal/mol)

>  <smiles>  (64) 
O=C(NCc1ccccc1)Oc1ccc(C=C2C(=O)NC(=O)N(CCc3ccccc3)C2=O)cc1

>  <score_type>  (64) 
oracle

>  <origin>  (64) 
adg

>  <m_score__min__energy>  (64) 
-12.77

>  <m_primary>  (64) 
energy

$$$$
64:0
     RDKit          3D

 46 48  0  0  0  0  0  0  0  0999 V2000
   57.3670   22.3880   45.5440 C   0  0  0  0  0  0  0  0  0  0  0  0
   57.1000   23.8140   45.6950 N   0  0  0  0  0  0  0  0  0  0  0  0
   55.8910   24.4090   45.7400 C   0  0  0  0  0  0  0  0  0  0  0  0
   56.0910   25.7550   45.9610 C   0  0  0  0  0  0  0  0  0  0  0  0
   55.0770   26.7070   46.0410 O   0  0  0  0  0  0  0  0  0  0  0  0
   57.4160   26.0040   46.0790 N   0  0  0  0  0  0  0  0  0  0  0  0
   58.0920   27.2920   46.2620 C   0  0  0  0  0  0  0  0  0  0  0  0
   57.5810   28.3310   45.2570 C   0  0  0  0  0  0  0  0  0  0  0  0
   58.0740   29.7140   45.5890 C   0  0  0  0  0  0  0  0  0  0  0  0
   58.5770   29.9970   46.8690 C   0  0  0  0  0  0  0  0  0  0  0  0
   58.9870   31.2920   47.1940 C   0  0  0  0  0  0  0  0  0  0  0  0
   58.8970   32.3200   46.2470 C   0  0  0  0  0  0  0  0  0  0  0  0
   59.4140   33.9580   46.6580 S   0  0  0  0  0  0  0  0  0  0  0  0
   58.5420   34.4910   47.7600 O   0  0  0  0  0  0  0  0  0  0  0  0
   59.2390   34.8450   45.4570 O   0  0  0  0  0  0  0  0  0  0  0  0
   61.0840   34.0050   47.1690 N   0  0  0  0  0  0  0  0  0  0  0  0
   61.7540   32.7330   46.8580 C   0  0  0  0  0  0  0  0  0  0  0  0
   63.2330   32.7990   47.2940 C   0  0  0  0  0  0  0  0  0  0  0  0
   63.5240   33.9740   48.0330 O   0  0  0  0  0  0  0  0  0  0  0  0
   62.6210   34.0970   49.1150 C   0  0  0  0  0  0  0  0  0  0  0  0
   61.1750   34.2870   48.6110 C   0  0  0  0  0  0  0  0  0  0  0  0
   58.3900   32.0430   44.9710 C   0  0  0  0  0  0  0  0  0  0  0  0
   57.9800   30.7470   44.6430 C   0  0  0  0  0  0  0  0  0  0  0  0
   57.9980   24.7980   45.9100 C   0  0  0  0  0  0  0  0  0  0  0  0
   59.2440   24.6100   45.9480 O   0  0  0  0  0  0  0  0  0  0  0  0
   57.4539   21.9240   46.5376 H   0  0  0  0  0  0  0  0  0  0  0  0
   56.5414   21.9170   44.9903 H   0  0  0  0  0  0  0  0  0  0  0  0
   58.3070   22.2476   44.9903 H   0  0  0  0  0  0  0  0  0  0  0  0
   54.9182   23.9094   45.6215 H   0  0  0  0  0  0  0  0  0  0  0  0
   54.3840   26.6950   46.7770 H   0  0  0  0  0  0  0  0  0  0  0  0
   57.9021   27.6556   47.2826 H   0  0  0  0  0  0  0  0  0  0  0  0
   59.1700   27.1474   46.0975 H   0  0  0  0  0  0  0  0  0  0  0  0
   57.9338   28.0583   44.2514 H   0  0  0  0  0  0  0  0  0  0  0  0
   56.4819   28.3386   45.2997 H   0  0  0  0  0  0  0  0  0  0  0  0
   58.6485   29.1955   47.6189 H   0  0  0  0  0  0  0  0  0  0  0  0
   59.3823   31.5055   48.1981 H   0  0  0  0  0  0  0  0  0  0  0  0
   61.2514   31.9150   47.3950 H   0  0  0  0  0  0  0  0  0  0  0  0
   61.7033   32.5521   45.7742 H   0  0  0  0  0  0  0  0  0  0  0  0
   63.4567   31.9227   47.9202 H   0  0  0  0  0  0  0  0  0  0  0  0
   63.8518   32.8113   46.3847 H   0  0  0  0  0  0  0  0  0  0  0  0
   62.6706   33.1863   49.7300 H   0  0  0  0  0  0  0  0  0  0  0  0
   62.9036   34.9792   49.7082 H   0  0  0  0  0  0  0  0  0  0  0  0
   60.5099   33.6006   49.1556 H   0  0  0  0  0  0  0  0  0  0  0  0
   60.8741   35.3304   48.7864 H   0  0  0  0  0  0  0  0  0  0  0  0
   58.3141   32.8475   44.2246 H   0  0  0  0  0  0  0  0  0  0  0  0
   57.5821   30.5360   43.6394 H   0  0  0  0  0  0  0  0  0  0  0  0
  1  2  1  0
  2  3  1  0
  3  4  2  0
  4  5  1  0
  4  6  1  0
  6  7  1  0
  7  8  1  0
  8  9  1  0
  9 10  2  0
 10 11  1  0
 11 12  2  0
 12 13  1  0
 13 14  2  0
 13 15  2  0
 13 16  1  0
 16 17  1  0
 17 18  1  0
 18 19  1  0
 19 20  1  0
 20 21  1  0
 12 22  1  0
 22 23  2  0
  6 24  1  0
 24 25  2  0
 24  2  1  0
 23  9  1  0
 21 16  1  0
  1 26  1  0
  1 27  1  0
  1 28  1  0
  3 29  1  0
  5 30  1  0
  7 31  1  0
  7 32  1  0
  8 33  1  0
  8 34  1  0
 10 35  1  0
 11 36  1  0
 17 37  1  0
 17 38  1  0
 18 39  1  0
 18 40  1  0
 20 41  1  0
 20 42  1  0
 21 43  1  0
 21 44  1  0
 22 45  1  0
 23 46  1  0
M  END
>  <UniqueID>  (65) 
64

>  <SMILES>  (65) 
Cn1cc(O)n(CCc2ccc(S(=O)(=O)N3CCOCC3)cc2)c1=O

>  <Energy>  (65) 
82.41047290162979

>  <Genealogy>  (65) 
Cn1cc(O)n(CCc2ccc(S(=O)(=O)N3CCOCC3)cc2)c1=O (3D coordinates assigned)
Cn1cc(O)n(CCc2ccc(S(=O)(=O)N3CCOCC3)cc2)c1=O (nonaromatic ring conformer: 82.41047290162979 kcal/mol)

>  <smiles>  (65) 
Cn1cc(O)n(CCc2ccc(S(=O)(=O)N3CCOCC3)cc2)c1=O

>  <score_type>  (65) 
oracle

>  <origin>  (65) 
adg

>  <m_score__min__energy>  (65) 
-8.8399999999999999

>  <m_primary>  (65) 
energy

$$$$
65:0
     RDKit          3D

 52 55  0  0  0  0  0  0  0  0999 V2000
   55.1590   26.7200   46.0060 O   0  0  0  0  0  0  0  0  0  0  0  0
   56.2990   26.1840   46.0040 C   0  0  0  0  0  0  0  0  0  0  0  0
   56.4410   24.7790   46.2460 N   0  0  0  0  0  0  0  0  0  0  0  0
   56.8450   23.7850   45.2920 C   0  0  0  0  0  0  0  0  0  0  0  0
   58.0270   23.0370   45.4480 C   0  0  0  0  0  0  0  0  0  0  0  0
   58.3750   22.0670   44.5010 C   0  0  0  0  0  0  0  0  0  0  0  0
   57.5410   21.8270   43.4050 C   0  0  0  0  0  0  0  0  0  0  0  0
   56.3540   22.5480   43.2580 C   0  0  0  0  0  0  0  0  0  0  0  0
   55.5400   22.3070   42.2000 F   0  0  0  0  0  0  0  0  0  0  0  0
   56.0020   23.5180   44.2030 C   0  0  0  0  0  0  0  0  0  0  0  0
   57.4800   26.9860   45.8580 N   0  0  0  0  0  0  0  0  0  0  0  0
   57.4810   28.3830   45.5110 C   0  0  0  0  0  0  0  0  0  0  0  0
   56.6350   28.8340   44.4880 C   0  0  0  0  0  0  0  0  0  0  0  0
   56.6070   30.1850   44.1360 C   0  0  0  0  0  0  0  0  0  0  0  0
   57.4110   31.1020   44.8140 C   0  0  0  0  0  0  0  0  0  0  0  0
   58.2360   30.6800   45.8690 C   0  0  0  0  0  0  0  0  0  0  0  0
   59.0910   31.6520   46.5900 C   0  0  0  0  0  0  0  0  0  0  0  0
   59.6630   32.5710   45.9430 O   0  0  0  0  0  0  0  0  0  0  0  0
   59.2570   31.5850   48.0180 N   0  0  0  0  0  0  0  0  0  0  0  0
   59.6390   30.3220   48.6650 C   0  0  0  0  0  0  0  0  0  0  0  0
   58.8640   30.1400   49.9780 C   0  0  0  0  0  0  0  0  0  0  0  0
   58.7460   31.4050   50.7240 N   0  0  0  0  0  0  0  0  0  0  0  0
   57.6720   31.5770   51.6690 C   0  0  0  0  0  0  0  0  0  0  0  0
   57.0010   32.6460   51.6630 O   0  0  0  0  0  0  0  0  0  0  0  0
   57.3090   30.5270   52.6340 C   0  0  0  0  0  0  0  0  0  0  0  0
   57.5270   30.5450   53.9980 C   0  0  0  0  0  0  0  0  0  0  0  0
   57.0020   29.3640   54.4760 C   0  0  0  0  0  0  0  0  0  0  0  0
   56.4880   28.7020   53.3790 C   0  0  0  0  0  0  0  0  0  0  0  0
   56.6810   29.4230   52.2990 O   0  0  0  0  0  0  0  0  0  0  0  0
   59.5180   32.5720   50.2770 C   0  0  0  0  0  0  0  0  0  0  0  0
   59.2370   32.8350   48.7950 C   0  0  0  0  0  0  0  0  0  0  0  0
   58.2670   29.3170   46.2120 C   0  0  0  0  0  0  0  0  0  0  0  0
   58.6787   23.2152   46.3161 H   0  0  0  0  0  0  0  0  0  0  0  0
   59.3058   21.4928   44.6192 H   0  0  0  0  0  0  0  0  0  0  0  0
   57.8200   21.0696   42.6577 H   0  0  0  0  0  0  0  0  0  0  0  0
   55.0595   24.0740   44.0914 H   0  0  0  0  0  0  0  0  0  0  0  0
   58.3910   26.5430   46.1120 H   0  0  0  0  0  0  0  0  0  0  0  0
   55.9886   28.1184   43.9588 H   0  0  0  0  0  0  0  0  0  0  0  0
   55.9499   30.5270   43.3228 H   0  0  0  0  0  0  0  0  0  0  0  0
   57.3985   32.1620   44.5202 H   0  0  0  0  0  0  0  0  0  0  0  0
   59.4102   29.4845   47.9895 H   0  0  0  0  0  0  0  0  0  0  0  0
   60.7164   30.3446   48.8857 H   0  0  0  0  0  0  0  0  0  0  0  0
   57.8551   29.7674   49.7471 H   0  0  0  0  0  0  0  0  0  0  0  0
   59.4163   29.4241   50.6044 H   0  0  0  0  0  0  0  0  0  0  0  0
   58.0179   31.3377   54.5816 H   0  0  0  0  0  0  0  0  0  0  0  0
   56.9941   29.0186   55.5203 H   0  0  0  0  0  0  0  0  0  0  0  0
   55.9924   27.7203   53.4058 H   0  0  0  0  0  0  0  0  0  0  0  0
   59.2253   33.4528   50.8673 H   0  0  0  0  0  0  0  0  0  0  0  0
   60.5913   32.3760   50.4167 H   0  0  0  0  0  0  0  0  0  0  0  0
   58.2466   33.3032   48.6954 H   0  0  0  0  0  0  0  0  0  0  0  0
   60.0220   33.4995   48.4048 H   0  0  0  0  0  0  0  0  0  0  0  0
   58.9116   28.9771   47.0360 H   0  0  0  0  0  0  0  0  0  0  0  0
  1  2  2  0
  2  3  1  0
  3  4  1  0
  4  5  2  0
  5  6  1  0
  6  7  2  0
  7  8  1  0
  8  9  1  0
  8 10  2  0
  2 11  1  0
 11 12  1  0
 12 13  2  0
 13 14  1  0
 14 15  2  0
 15 16  1  0
 16 17  1  0
 17 18  2  0
 17 19  1  0
 19 20  1  0
 20 21  1  0
 21 22  1  0
 22 23  1  0
 23 24  2  0
 23 25  1  0
 25 26  2  0
 26 27  1  0
 27 28  2  0
 28 29  1  0
 22 30  1  0
 30 31  1  0
 16 32  2  0
 10  4  1  0
 32 12  1  0
 31 19  1  0
 29 25  1  0
  5 33  1  0
  6 34  1  0
  7 35  1  0
 10 36  1  0
 11 37  1  0
 13 38  1  0
 14 39  1  0
 15 40  1  0
 20 41  1  0
 20 42  1  0
 21 43  1  0
 21 44  1  0
 26 45  1  0
 27 46  1  0
 28 47  1  0
 30 48  1  0
 30 49  1  0
 31 50  1  0
 31 51  1  0
 32 52  1  0
M  CHG  1   3  -1
M  END
>  <UniqueID>  (66) 
65

>  <SMILES>  (66) 
O=C([N-]c1cccc(F)c1)Nc1cccc(C(=O)N2CCN(C(=O)c3ccco3)CC2)c1

>  <Energy>  (66) 
97.2371632617426

>  <Genealogy>  (66) 
O=C([N-]c1cccc(F)c1)Nc1cccc(C(=O)N2CCN(C(=O)c3ccco3)CC2)c1 (protonated)
O=C([N-]c1cccc(F)c1)Nc1cccc(C(=O)N2CCN(C(=O)c3ccco3)CC2)c1 (3D coordinates assigned)
O=C([N-]c1cccc(F)c1)Nc1cccc(C(=O)N2CCN(C(=O)c3ccco3)CC2)c1 (nonaromatic ring conformer: 97.2371632617426 kcal/mol)

>  <smiles>  (66) 
O=C(Nc1cccc(F)c1)Nc1cccc(C(=O)N2CCN(C(=O)c3ccco3)CC2)c1

>  <score_type>  (66) 
oracle

>  <origin>  (66) 
adg

>  <m_score__min__energy>  (66) 
-10.210000000000001

>  <m_primary>  (66) 
energy

$$$$
66:0
     RDKit          3D

 43 45  0  0  0  0  0  0  0  0999 V2000
   55.1600   27.4750   45.5920 H   0  0  0  0  0  0  0  0  0  0  0  0
   54.9520   26.5500   45.9480 O   0  0  0  0  0  0  0  0  0  0  0  0
   55.9450   25.6400   46.3140 C   0  0  0  0  0  0  0  0  0  0  0  0
   55.6560   24.7030   47.2530 N   0  0  0  0  0  0  0  0  0  0  0  0
   56.5770   23.7830   47.6400 C   0  0  0  0  0  0  0  0  0  0  0  0
   56.1950   22.6750   48.7750 S   0  0  0  0  0  0  0  0  0  0  0  0
   57.8130   23.7780   47.0770 N   0  0  0  0  0  0  0  0  0  0  0  0
   58.1560   24.6920   46.1330 C   0  0  0  0  0  0  0  0  0  0  0  0
   59.3090   24.6550   45.6260 O   0  0  0  0  0  0  0  0  0  0  0  0
   57.2310   25.6710   45.7370 C   0  0  0  0  0  0  0  0  0  0  0  0
   57.5920   26.6570   44.7040 C   0  0  0  0  0  0  0  0  0  0  0  0
   57.5170   26.3422   43.6527 H   0  0  0  0  0  0  0  0  0  0  0  0
   58.0070   27.9150   44.9490 C   0  0  0  0  0  0  0  0  0  0  0  0
   59.2490   28.4310   45.3590 C   0  0  0  0  0  0  0  0  0  0  0  0
   60.3960   27.7860   45.5830 C   0  0  0  0  0  0  0  0  0  0  0  0
   60.4367   26.6902   45.4966 H   0  0  0  0  0  0  0  0  0  0  0  0
   61.3005   28.3503   45.8540 H   0  0  0  0  0  0  0  0  0  0  0  0
   59.1660   29.7760   45.4570 N   0  0  0  0  0  0  0  0  0  0  0  0
   57.9380   30.1430   45.1270 N   0  0  0  0  0  0  0  0  0  0  0  0
   57.4970   31.5080   45.0700 C   0  0  0  0  0  0  0  0  0  0  0  0
   56.2790   31.7680   44.8700 O   0  0  0  0  0  0  0  0  0  0  0  0
   58.4760   32.6420   45.1890 C   0  0  0  0  0  0  0  0  0  0  0  0
   59.3990   32.2767   45.6629 H   0  0  0  0  0  0  0  0  0  0  0  0
   58.6976   33.0311   44.1843 H   0  0  0  0  0  0  0  0  0  0  0  0
   57.8920   33.7490   46.0260 C   0  0  0  0  0  0  0  0  0  0  0  0
   56.8310   34.3100   45.6430 O   0  0  0  0  0  0  0  0  0  0  0  0
   58.5500   34.2430   47.2000 N   0  0  0  0  0  0  0  0  0  0  0  0
   59.9190   34.0040   47.5470 C   0  0  0  0  0  0  0  0  0  0  0  0
   60.8860   33.9640   46.5360 C   0  0  0  0  0  0  0  0  0  0  0  0
   60.5870   34.1071   45.4871 H   0  0  0  0  0  0  0  0  0  0  0  0
   62.2310   33.7430   46.8520 C   0  0  0  0  0  0  0  0  0  0  0  0
   62.9817   33.6922   46.0496 H   0  0  0  0  0  0  0  0  0  0  0  0
   62.6250   33.5860   48.1900 C   0  0  0  0  0  0  0  0  0  0  0  0
   64.0650   33.3610   48.5450 C   0  0  0  0  0  0  0  0  0  0  0  0
   64.1745   33.3439   49.6394 H   0  0  0  0  0  0  0  0  0  0  0  0
   64.3996   32.3997   48.1280 H   0  0  0  0  0  0  0  0  0  0  0  0
   64.6769   34.1744   48.1280 H   0  0  0  0  0  0  0  0  0  0  0  0
   61.6600   33.6580   49.2060 C   0  0  0  0  0  0  0  0  0  0  0  0
   61.9626   33.5472   50.2577 H   0  0  0  0  0  0  0  0  0  0  0  0
   60.3150   33.8700   48.8870 C   0  0  0  0  0  0  0  0  0  0  0  0
   59.5647   33.9320   49.6890 H   0  0  0  0  0  0  0  0  0  0  0  0
   57.2230   29.0460   44.8170 C   0  0  0  0  0  0  0  0  0  0  0  0
   56.0170   29.0680   44.4440 O   0  0  0  0  0  0  0  0  0  0  0  0
  1  2  1  0
  2  3  1  0
  3  4  1  0
  4  5  1  0
  5  6  2  0
  5  7  1  0
  7  8  1  0
  8  9  2  0
  8 10  1  0
 10 11  1  0
 11 12  1  0
 11 13  2  0
 13 14  1  0
 14 15  2  0
 15 16  1  0
 15 17  1  0
 14 18  1  0
 18 19  1  0
 19 20  1  0
 20 21  2  0
 20 22  1  0
 22 23  1  0
 22 24  1  0
 22 25  1  0
 25 26  2  0
 25 27  1  0
 27 28  1  0
 28 29  2  0
 29 30  1  0
 29 31  1  0
 31 32  1  0
 31 33  2  0
 33 34  1  0
 34 35  1  0
 34 36  1  0
 34 37  1  0
 33 38  1  0
 38 39  1  0
 38 40  2  0
 40 41  1  0
 19 42  1  0
 42 43  2  0
 10  3  2  0
 42 13  1  0
 40 28  1  0
M  CHG  4   4  -1   7  -1  18  -1  27  -1
M  END
>  <UniqueID>  (67) 
66

>  <SMILES>  (67) 
C=c1[n-]n(C(=O)CC(=O)[N-]c2ccc(C)cc2)c(=O)/c1=C/c1c(O)[n-]c(=S)[n-]c1=O

>  <Energy>  (67) 
92.10857244923102

>  <Genealogy>  (67) 
C=c1[n-]n(C(=O)CC(=O)[N-]c2ccc(C)cc2)c(=O)c1=Cc1c(O)[n-]c(=S)[n-]c1=O (protonated)
C=c1[n-]n(C(=O)CC(=O)[N-]c2ccc(C)cc2)c(=O)/c1=C/c1c(O)[n-]c(=S)[n-]c1=O (cis-trans isomerization)
C=c1[n-]n(C(=O)CC(=O)[N-]c2ccc(C)cc2)c(=O)/c1=C/c1c(O)[n-]c(=S)[n-]c1=O (3D coordinates assigned)
C=c1[n-]n(C(=O)CC(=O)[N-]c2ccc(C)cc2)c(=O)/c1=C/c1c(O)[n-]c(=S)[n-]c1=O (optimized conformer: 92.10857244923102 kcal/mol)

>  <smiles>  (67) 
C=c1[nH]n(C(=O)CC(=O)Nc2ccc(C)cc2)c(=O)c1=Cc1c(O)[nH]c(=S)[nH]c1=O

>  <score_type>  (67) 
oracle

>  <origin>  (67) 
adg

>  <m_score__min__energy>  (67) 
-15.23

>  <m_primary>  (67) 
energy

$$$$
67:0
     RDKit          3D

 57 61  0  0  0  0  0  0  0  0999 V2000
   58.5580   28.0070   47.8710 C   0  0  0  0  0  0  0  0  0  0  0  0
   58.5390   28.5410   46.6420 C   0  0  0  0  0  0  0  0  0  0  0  0
   58.6950   29.8670   46.4440 N   0  0  0  0  0  0  0  0  0  0  0  0
   58.4470   30.1010   45.1420 C   0  0  0  0  0  0  0  0  0  0  0  0
   58.5310   31.4500   44.5030 C   0  0  0  0  0  0  0  0  0  0  0  0
   58.4990   32.5150   45.5580 C   0  0  0  0  0  0  0  0  0  0  0  0
   59.4690   32.9030   46.3760 C   0  0  0  0  0  0  0  0  0  0  0  0
   60.7580   32.3840   46.5260 C   0  0  0  0  0  0  0  0  0  0  0  0
   61.6110   32.9730   47.4800 C   0  0  0  0  0  0  0  0  0  0  0  0
   63.2250   32.3120   47.7420 S   0  0  0  0  0  0  0  0  0  0  0  0
   64.2370   33.3880   47.4630 O   0  0  0  0  0  0  0  0  0  0  0  0
   63.4580   31.2040   46.7490 O   0  0  0  0  0  0  0  0  0  0  0  0
   63.4780   31.6930   49.3610 N   0  0  0  0  0  0  0  0  0  0  0  0
   63.9150   32.7130   50.3340 C   0  0  0  0  0  0  0  0  0  0  0  0
   62.7430   33.4090   51.0360 C   0  0  0  0  0  0  0  0  0  0  0  0
   61.8480   32.4080   51.6340 N   0  0  0  0  0  0  0  0  0  0  0  0
   60.7730   33.0710   52.3830 C   0  0  0  0  0  0  0  0  0  0  0  0
   61.2790   31.5700   50.5690 C   0  0  0  0  0  0  0  0  0  0  0  0
   62.3950   30.8120   49.8390 C   0  0  0  0  0  0  0  0  0  0  0  0
   61.1490   34.0470   48.2720 C   0  0  0  0  0  0  0  0  0  0  0  0
   59.8540   34.5600   48.0990 C   0  0  0  0  0  0  0  0  0  0  0  0
   59.0310   33.9740   47.1420 C   0  0  0  0  0  0  0  0  0  0  0  0
   57.8180   34.3450   46.8770 N   0  0  0  0  0  0  0  0  0  0  0  0
   57.4200   33.4420   45.8490 C   0  0  0  0  0  0  0  0  0  0  0  0
   56.2940   33.4650   45.2870 O   0  0  0  0  0  0  0  0  0  0  0  0
   58.1520   28.9240   44.4810 C   0  0  0  0  0  0  0  0  0  0  0  0
   58.2330   27.9110   45.4230 C   0  0  0  0  0  0  0  0  0  0  0  0
   58.0400   26.6120   45.1160 C   0  0  0  0  0  0  0  0  0  0  0  0
   57.4080   25.6150   45.9880 C   0  0  0  0  0  0  0  0  0  0  0  0
   57.9810   24.4630   46.3680 N   0  0  0  0  0  0  0  0  0  0  0  0
   57.0010   23.8310   47.0520 C   0  0  0  0  0  0  0  0  0  0  0  0
   57.1540   22.7000   47.5770 O   0  0  0  0  0  0  0  0  0  0  0  0
   55.8320   24.4980   47.1070 N   0  0  0  0  0  0  0  0  0  0  0  0
   56.1070   25.6190   46.4170 C   0  0  0  0  0  0  0  0  0  0  0  0
   55.1890   26.6240   46.1810 O   0  0  0  0  0  0  0  0  0  0  0  0
   58.4282   26.9225   48.0015 H   0  0  0  0  0  0  0  0  0  0  0  0
   58.7034   28.6532   48.7492 H   0  0  0  0  0  0  0  0  0  0  0  0
   58.9120   30.5890   47.1710 H   0  0  0  0  0  0  0  0  0  0  0  0
   59.4697   31.5270   43.9348 H   0  0  0  0  0  0  0  0  0  0  0  0
   57.6752   31.5846   43.8252 H   0  0  0  0  0  0  0  0  0  0  0  0
   61.0983   31.5359   45.9138 H   0  0  0  0  0  0  0  0  0  0  0  0
   64.5411   32.2257   51.0959 H   0  0  0  0  0  0  0  0  0  0  0  0
   64.4708   33.4825   49.7782 H   0  0  0  0  0  0  0  0  0  0  0  0
   63.1315   34.0684   51.8261 H   0  0  0  0  0  0  0  0  0  0  0  0
   62.1808   34.0008   50.2986 H   0  0  0  0  0  0  0  0  0  0  0  0
   60.9548   32.9589   53.4621 H   0  0  0  0  0  0  0  0  0  0  0  0
   60.7509   34.1398   52.1240 H   0  0  0  0  0  0  0  0  0  0  0  0
   59.8080   32.6110   52.1240 H   0  0  0  0  0  0  0  0  0  0  0  0
   60.5775   30.8471   51.0110 H   0  0  0  0  0  0  0  0  0  0  0  0
   60.7513   32.2130   49.8493 H   0  0  0  0  0  0  0  0  0  0  0  0
   62.8252   30.0720   50.5299 H   0  0  0  0  0  0  0  0  0  0  0  0
   61.9444   30.3376   48.9547 H   0  0  0  0  0  0  0  0  0  0  0  0
   61.8111   34.4863   49.0327 H   0  0  0  0  0  0  0  0  0  0  0  0
   59.4979   35.4056   48.7058 H   0  0  0  0  0  0  0  0  0  0  0  0
   57.9018   28.8129   43.4156 H   0  0  0  0  0  0  0  0  0  0  0  0
   58.3854   26.2711   44.1288 H   0  0  0  0  0  0  0  0  0  0  0  0
   54.3520   26.6890   46.7410 H   0  0  0  0  0  0  0  0  0  0  0  0
  1  2  2  0
  2  3  1  0
  3  4  1  0
  4  5  1  0
  5  6  1  0
  6  7  2  0
  7  8  1  0
  8  9  2  0
  9 10  1  0
 10 11  2  0
 10 12  2  0
 10 13  1  0
 13 14  1  0
 14 15  1  0
 15 16  1  0
 16 17  1  0
 16 18  1  0
 18 19  1  0
  9 20  1  0
 20 21  2  0
 21 22  1  0
 22 23  2  0
 23 24  1  0
 24 25  2  0
  4 26  2  0
 26 27  1  0
 27 28  2  3
 28 29  1  0
 29 30  1  0
 30 31  1  0
 31 32  2  0
 31 33  1  0
 33 34  1  0
 34 35  1  0
 27  2  1  0
 34 29  2  0
 24  6  1  0
 22  7  1  0
 19 13  1  0
  1 36  1  0
  1 37  1  0
  3 38  1  0
  5 39  1  0
  5 40  1  0
  8 41  1  0
 14 42  1  0
 14 43  1  0
 15 44  1  0
 15 45  1  0
 17 46  1  0
 17 47  1  0
 17 48  1  0
 18 49  1  0
 18 50  1  0
 19 51  1  0
 19 52  1  0
 20 53  1  0
 21 54  1  0
 26 55  1  0
 28 56  1  0
 35 57  1  0
M  CHG  2  30  -1  33  -1
M  END
>  <UniqueID>  (68) 
67

>  <SMILES>  (68) 
C=c1[nH]c(CC2=c3cc(S(=O)(=O)N4CCN(C)CC4)ccc3=NC2=O)cc1=Cc1[n-]c(=O)[n-]c1O

>  <Energy>  (68) 
159.3096638942455

>  <Genealogy>  (68) 
C=c1[nH]c(CC2=c3cc(S(=O)(=O)N4CCN(C)CC4)ccc3=NC2=O)cc1=Cc1[n-]c(=O)[n-]c1O (protonated)
C=c1[nH]c(CC2=c3cc(S(=O)(=O)N4CCN(C)CC4)ccc3=NC2=O)cc1=Cc1[n-]c(=O)[n-]c1O (3D coordinates assigned)
C=c1[nH]c(CC2=c3cc(S(=O)(=O)N4CCN(C)CC4)ccc3=NC2=O)cc1=Cc1[n-]c(=O)[n-]c1O (nonaromatic ring conformer: 159.3096638942455 kcal/mol)

>  <smiles>  (68) 
C=c1[nH]c(CC2=c3cc(S(=O)(=O)N4CCN(C)CC4)ccc3=NC2=O)cc1=Cc1[nH]c(=O)[nH]c1O

>  <score_type>  (68) 
oracle

>  <origin>  (68) 
adg

>  <m_score__min__energy>  (68) 
-15.76

>  <m_primary>  (68) 
energy

$$$$
68:0
     RDKit          3D

 75 78  0  0  0  0  0  0  0  0999 V2000
   63.8800   33.7410   50.3530 C   0  0  0  0  0  0  0  0  0  0  0  0
   62.8180   34.5850   49.6520 C   0  0  0  0  0  0  0  0  0  0  0  0
   62.0130   33.7590   48.7440 N   0  0  0  0  0  0  0  0  0  0  0  0
   62.6770   32.7510   47.9010 C   0  0  0  0  0  0  0  0  0  0  0  0
   63.5070   33.4130   46.8010 C   0  0  0  0  0  0  0  0  0  0  0  0
   60.5730   33.8500   48.7930 C   0  0  0  0  0  0  0  0  0  0  0  0
   60.0010   34.1580   49.8750 O   0  0  0  0  0  0  0  0  0  0  0  0
   59.7450   33.6130   47.5940 C   0  0  0  0  0  0  0  0  0  0  0  0
   60.1810   34.0640   46.3390 C   0  0  0  0  0  0  0  0  0  0  0  0
   59.3950   33.8540   45.2030 C   0  0  0  0  0  0  0  0  0  0  0  0
   58.1900   33.1480   45.3010 C   0  0  0  0  0  0  0  0  0  0  0  0
   57.3820   32.9810   44.1320 N   0  0  0  0  0  0  0  0  0  0  0  0
   57.5370   31.9380   43.1600 C   0  0  0  0  0  0  0  0  0  0  0  0
   58.4990   32.0070   42.3510 O   0  0  0  0  0  0  0  0  0  0  0  0
   56.6990   30.6850   43.2230 C   0  0  0  0  0  0  0  0  0  0  0  0
   57.3750   29.5830   43.9980 C   0  0  0  0  0  0  0  0  0  0  0  0
   57.7360   28.3800   43.3690 C   0  0  0  0  0  0  0  0  0  0  0  0
   58.3450   27.3580   44.1030 C   0  0  0  0  0  0  0  0  0  0  0  0
   58.6030   27.5280   45.4660 C   0  0  0  0  0  0  0  0  0  0  0  0
   58.2480   28.7250   46.1080 C   0  0  0  0  0  0  0  0  0  0  0  0
   58.5420   28.9450   47.4940 N   0  0  0  0  0  0  0  0  0  0  0  0
   59.6820   29.6850   47.9650 C   0  0  0  0  0  0  0  0  0  0  0  0
   60.4000   30.3350   47.1610 O   0  0  0  0  0  0  0  0  0  0  0  0
   60.0320   29.6870   49.4340 C   0  0  1  0  0  0  0  0  0  0  0  0
   61.5070   30.1130   49.6650 C   0  0  0  0  0  0  0  0  0  0  0  0
   61.6790   31.1620   50.7720 C   0  0  0  0  0  0  0  0  0  0  0  0
   60.8300   30.8250   52.0000 C   0  0  0  0  0  0  0  0  0  0  0  0
   59.4230   30.6130   51.6370 N   0  0  0  0  0  0  0  0  0  0  0  0
   58.4050   30.7640   52.6390 C   0  0  0  0  0  0  0  0  0  0  0  0
   57.8690   29.7330   53.1240 O   0  0  0  0  0  0  0  0  0  0  0  0
   57.9400   32.1220   53.1160 C   0  0  0  0  0  0  0  0  0  0  0  0
   59.0020   33.0010   53.7740 C   0  0  0  0  0  0  0  0  0  0  0  0
   58.8190   34.0390   52.6730 C   0  0  0  0  0  0  0  0  0  0  0  0
   57.7810   33.1490   52.0000 C   0  0  0  0  0  0  0  0  0  0  0  0
   59.0220   30.5380   50.2280 C   0  0  0  0  0  0  0  0  0  0  0  0
   57.6470   29.7520   45.3660 C   0  0  0  0  0  0  0  0  0  0  0  0
   57.7560   32.6840   46.5540 C   0  0  0  0  0  0  0  0  0  0  0  0
   58.5300   32.9160   47.6940 C   0  0  0  0  0  0  0  0  0  0  0  0
   63.7623   33.8346   51.4427 H   0  0  0  0  0  0  0  0  0  0  0  0
   63.7626   32.6871   50.0607 H   0  0  0  0  0  0  0  0  0  0  0  0
   64.8802   34.0934   50.0607 H   0  0  0  0  0  0  0  0  0  0  0  0
   62.1593   35.0370   50.4082 H   0  0  0  0  0  0  0  0  0  0  0  0
   63.3202   35.3682   49.0651 H   0  0  0  0  0  0  0  0  0  0  0  0
   63.3384   32.1366   48.5295 H   0  0  0  0  0  0  0  0  0  0  0  0
   61.9040   32.1276   47.4278 H   0  0  0  0  0  0  0  0  0  0  0  0
   64.2895   34.0371   47.2574 H   0  0  0  0  0  0  0  0  0  0  0  0
   63.9744   32.6370   46.1771 H   0  0  0  0  0  0  0  0  0  0  0  0
   62.8543   34.0413   46.1771 H   0  0  0  0  0  0  0  0  0  0  0  0
   61.1456   34.5851   46.2490 H   0  0  0  0  0  0  0  0  0  0  0  0
   59.7240   34.2446   44.2287 H   0  0  0  0  0  0  0  0  0  0  0  0
   55.7417   30.9237   43.7095 H   0  0  0  0  0  0  0  0  0  0  0  0
   56.5485   30.3287   42.1932 H   0  0  0  0  0  0  0  0  0  0  0  0
   57.5389   28.2417   42.2957 H   0  0  0  0  0  0  0  0  0  0  0  0
   58.6221   26.4166   43.6060 H   0  0  0  0  0  0  0  0  0  0  0  0
   59.0857   26.7215   46.0375 H   0  0  0  0  0  0  0  0  0  0  0  0
   57.9500   28.4460   48.2020 H   0  0  0  0  0  0  0  0  0  0  0  0
   59.9537   28.6593   49.8184 H   0  0  0  0  0  0  0  0  0  0  0  0
   62.0877   29.2200   49.9393 H   0  0  0  0  0  0  0  0  0  0  0  0
   61.8599   30.5715   48.7294 H   0  0  0  0  0  0  0  0  0  0  0  0
   62.7377   31.1987   51.0684 H   0  0  0  0  0  0  0  0  0  0  0  0
   61.3484   32.1352   50.3800 H   0  0  0  0  0  0  0  0  0  0  0  0
   61.2216   29.9083   52.4652 H   0  0  0  0  0  0  0  0  0  0  0  0
   60.8830   31.6716   52.7004 H   0  0  0  0  0  0  0  0  0  0  0  0
   57.0767   31.7846   53.7084 H   0  0  0  0  0  0  0  0  0  0  0  0
   58.7308   33.3582   54.7784 H   0  0  0  0  0  0  0  0  0  0  0  0
   59.9998   32.5966   53.9995 H   0  0  0  0  0  0  0  0  0  0  0  0
   58.4223   35.0022   53.0263 H   0  0  0  0  0  0  0  0  0  0  0  0
   59.6873   34.4058   52.1059 H   0  0  0  0  0  0  0  0  0  0  0  0
   56.7775   33.5955   51.9400 H   0  0  0  0  0  0  0  0  0  0  0  0
   57.9003   32.8514   50.9478 H   0  0  0  0  0  0  0  0  0  0  0  0
   58.0249   30.0789   50.1576 H   0  0  0  0  0  0  0  0  0  0  0  0
   58.9973   31.5537   49.8064 H   0  0  0  0  0  0  0  0  0  0  0  0
   57.3859   30.6995   45.8600 H   0  0  0  0  0  0  0  0  0  0  0  0
   56.8053   32.1371   46.6378 H   0  0  0  0  0  0  0  0  0  0  0  0
   58.1864   32.5514   48.6733 H   0  0  0  0  0  0  0  0  0  0  0  0
  1  2  1  0
  2  3  1  0
  3  4  1  0
  4  5  1  0
  3  6  1  0
  6  7  2  0
  6  8  1  0
  8  9  2  0
  9 10  1  0
 10 11  2  0
 11 12  1  0
 12 13  1  0
 13 14  2  0
 13 15  1  0
 15 16  1  0
 16 17  2  0
 17 18  1  0
 18 19  2  0
 19 20  1  0
 20 21  1  0
 21 22  1  0
 22 23  2  0
 22 24  1  0
 24 25  1  0
 25 26  1  0
 26 27  1  0
 27 28  1  0
 28 29  1  0
 29 30  2  0
 29 31  1  0
 31 32  1  0
 32 33  1  0
 33 34  1  0
 28 35  1  0
 20 36  2  0
 11 37  1  0
 37 38  2  0
 38  8  1  0
 36 16  1  0
 35 24  1  0
 34 31  1  0
  1 39  1  0
  1 40  1  0
  1 41  1  0
  2 42  1  0
  2 43  1  0
  4 44  1  0
  4 45  1  0
  5 46  1  0
  5 47  1  0
  5 48  1  0
  9 49  1  0
 10 50  1  0
 15 51  1  0
 15 52  1  0
 17 53  1  0
 18 54  1  0
 19 55  1  0
 21 56  1  0
 24 57  1  1
 25 58  1  0
 25 59  1  0
 26 60  1  0
 26 61  1  0
 27 62  1  0
 27 63  1  0
 31 64  1  0
 32 65  1  0
 32 66  1  0
 33 67  1  0
 33 68  1  0
 34 69  1  0
 34 70  1  0
 35 71  1  0
 35 72  1  0
 36 73  1  0
 37 74  1  0
 38 75  1  0
M  CHG  1  12  -1
M  END
>  <UniqueID>  (69) 
68

>  <SMILES>  (69) 
CCN(CC)C(=O)c1ccc([N-]C(=O)Cc2cccc(NC(=O)[C@H]3CCCN(C(=O)C4CCC4)C3)c2)cc1

>  <Energy>  (69) 
150.9231766653817

>  <Genealogy>  (69) 
CCN(CC)C(=O)c1ccc([N-]C(=O)Cc2cccc(NC(=O)C3CCCN(C(=O)C4CCC4)C3)c2)cc1 (protonated)
CCN(CC)C(=O)c1ccc([N-]C(=O)Cc2cccc(NC(=O)[C@H]3CCCN(C(=O)C4CCC4)C3)c2)cc1 (chirality)
CCN(CC)C(=O)c1ccc([N-]C(=O)Cc2cccc(NC(=O)[C@H]3CCCN(C(=O)C4CCC4)C3)c2)cc1 (3D coordinates assigned)
CCN(CC)C(=O)c1ccc([N-]C(=O)Cc2cccc(NC(=O)[C@H]3CCCN(C(=O)C4CCC4)C3)c2)cc1 (nonaromatic ring conformer: 150.9231766653817 kcal/mol)

>  <smiles>  (69) 
CCN(CC)C(=O)c1ccc(NC(=O)Cc2cccc(NC(=O)C3CCCN(C(=O)C4CCC4)C3)c2)cc1

>  <score_type>  (69) 
oracle

>  <origin>  (69) 
adg

>  <m_score__min__energy>  (69) 
-11.300000000000001

>  <m_primary>  (69) 
energy

$$$$
69:0
     RDKit          3D

 59 62  0  0  0  0  0  0  0  0999 V2000
   56.2800   23.7080   43.0820 C   0  0  0  0  0  0  0  0  0  0  0  0
   56.2530   23.2840   44.5260 C   0  0  0  0  0  0  0  0  0  0  0  0
   55.6050   22.0960   44.8930 C   0  0  0  0  0  0  0  0  0  0  0  0
   55.5280   21.7180   46.2350 C   0  0  0  0  0  0  0  0  0  0  0  0
   56.0930   22.5220   47.2260 C   0  0  0  0  0  0  0  0  0  0  0  0
   56.7540   23.7120   46.8830 C   0  0  0  0  0  0  0  0  0  0  0  0
   57.3390   24.5800   47.9630 C   0  0  0  0  0  0  0  0  0  0  0  0
   56.8320   24.0970   45.5260 C   0  0  0  0  0  0  0  0  0  0  0  0
   57.4940   25.3140   45.1620 N   0  0  0  0  0  0  0  0  0  0  0  0
   57.0080   26.5860   45.6130 C   0  0  0  0  0  0  0  0  0  0  0  0
   55.8090   26.6880   45.9970 O   0  0  0  0  0  0  0  0  0  0  0  0
   57.8890   27.7750   45.6470 C   0  0  0  0  0  0  0  0  0  0  0  0
   59.1770   27.7030   46.2080 C   0  0  0  0  0  0  0  0  0  0  0  0
   59.9740   28.8470   46.2970 C   0  0  0  0  0  0  0  0  0  0  0  0
   59.4940   30.0790   45.8440 C   0  0  0  0  0  0  0  0  0  0  0  0
   60.2760   31.1760   45.9870 F   0  0  0  0  0  0  0  0  0  0  0  0
   58.2090   30.1710   45.2850 C   0  0  0  0  0  0  0  0  0  0  0  0
   57.5310   31.7330   44.7980 S   0  0  0  0  0  0  0  0  0  0  0  0
   58.2030   32.2120   43.5440 O   0  0  0  0  0  0  0  0  0  0  0  0
   56.0670   31.5560   44.4980 O   0  0  0  0  0  0  0  0  0  0  0  0
   57.7460   32.9440   46.0460 N   0  0  0  0  0  0  0  0  0  0  0  0
   58.1250   32.3330   47.3420 C   0  0  0  0  0  0  0  0  0  0  0  0
   59.0490   33.2250   48.1690 C   0  0  0  0  0  0  0  0  0  0  0  0
   60.2400   33.5320   47.3740 N   0  0  0  0  0  0  0  0  0  0  0  0
   61.5500   33.5000   47.9740 C   0  0  0  0  0  0  0  0  0  0  0  0
   62.6560   33.0220   47.2460 C   0  0  0  0  0  0  0  0  0  0  0  0
   63.9320   33.0110   47.8210 C   0  0  0  0  0  0  0  0  0  0  0  0
   64.1150   33.4720   49.1270 C   0  0  0  0  0  0  0  0  0  0  0  0
   65.3540   33.4630   49.6810 F   0  0  0  0  0  0  0  0  0  0  0  0
   63.0230   33.9460   49.8610 C   0  0  0  0  0  0  0  0  0  0  0  0
   61.7460   33.9620   49.2910 C   0  0  0  0  0  0  0  0  0  0  0  0
   60.0780   33.9150   45.9650 C   0  0  0  0  0  0  0  0  0  0  0  0
   58.5930   34.0710   45.5890 C   0  0  0  0  0  0  0  0  0  0  0  0
   57.4210   29.0140   45.1750 C   0  0  0  0  0  0  0  0  0  0  0  0
   56.3498   24.8042   43.0230 H   0  0  0  0  0  0  0  0  0  0  0  0
   57.1513   23.2578   42.5839 H   0  0  0  0  0  0  0  0  0  0  0  0
   55.3586   23.3719   42.5839 H   0  0  0  0  0  0  0  0  0  0  0  0
   55.1544   21.4577   44.1188 H   0  0  0  0  0  0  0  0  0  0  0  0
   55.0199   20.7826   46.5123 H   0  0  0  0  0  0  0  0  0  0  0  0
   56.0200   22.2216   48.2817 H   0  0  0  0  0  0  0  0  0  0  0  0
   57.0654   24.1741   48.9481 H   0  0  0  0  0  0  0  0  0  0  0  0
   58.4345   24.5984   47.8654 H   0  0  0  0  0  0  0  0  0  0  0  0
   56.9449   25.6023   47.8654 H   0  0  0  0  0  0  0  0  0  0  0  0
   58.3370   25.2560   44.5500 H   0  0  0  0  0  0  0  0  0  0  0  0
   59.5589   26.7403   46.5788 H   0  0  0  0  0  0  0  0  0  0  0  0
   60.9846   28.7777   46.7258 H   0  0  0  0  0  0  0  0  0  0  0  0
   57.2098   32.1419   47.9215 H   0  0  0  0  0  0  0  0  0  0  0  0
   58.6708   31.4034   47.1230 H   0  0  0  0  0  0  0  0  0  0  0  0
   58.5273   34.1577   48.4296 H   0  0  0  0  0  0  0  0  0  0  0  0
   59.3396   32.7074   49.0951 H   0  0  0  0  0  0  0  0  0  0  0  0
   62.5165   32.6547   46.2185 H   0  0  0  0  0  0  0  0  0  0  0  0
   64.7915   32.6390   47.2441 H   0  0  0  0  0  0  0  0  0  0  0  0
   63.1689   34.3073   50.8897 H   0  0  0  0  0  0  0  0  0  0  0  0
   60.8911   34.3367   49.8730 H   0  0  0  0  0  0  0  0  0  0  0  0
   60.5924   34.8720   45.7935 H   0  0  0  0  0  0  0  0  0  0  0  0
   60.5103   33.1200   45.3397 H   0  0  0  0  0  0  0  0  0  0  0  0
   58.2142   34.9981   46.0440 H   0  0  0  0  0  0  0  0  0  0  0  0
   58.5379   34.0926   44.4906 H   0  0  0  0  0  0  0  0  0  0  0  0
   56.4245   29.0778   44.7135 H   0  0  0  0  0  0  0  0  0  0  0  0
  1  2  1  0
  2  3  2  0
  3  4  1  0
  4  5  2  0
  5  6  1  0
  6  7  1  0
  6  8  2  0
  8  9  1  0
  9 10  1  0
 10 11  2  0
 10 12  1  0
 12 13  2  0
 13 14  1  0
 14 15  2  0
 15 16  1  0
 15 17  1  0
 17 18  1  0
 18 19  2  0
 18 20  2  0
 18 21  1  0
 21 22  1  0
 22 23  1  0
 23 24  1  0
 24 25  1  0
 25 26  2  0
 26 27  1  0
 27 28  2  0
 28 29  1  0
 28 30  1  0
 30 31  2  0
 24 32  1  0
 32 33  1  0
 17 34  2  0
  8  2  1  0
 34 12  1  0
 33 21  1  0
 31 25  1  0
  1 35  1  0
  1 36  1  0
  1 37  1  0
  3 38  1  0
  4 39  1  0
  5 40  1  0
  7 41  1  0
  7 42  1  0
  7 43  1  0
  9 44  1  0
 13 45  1  0
 14 46  1  0
 22 47  1  0
 22 48  1  0
 23 49  1  0
 23 50  1  0
 26 51  1  0
 27 52  1  0
 30 53  1  0
 31 54  1  0
 32 55  1  0
 32 56  1  0
 33 57  1  0
 33 58  1  0
 34 59  1  0
M  END
>  <UniqueID>  (70) 
69

>  <SMILES>  (70) 
Cc1cccc(C)c1NC(=O)c1ccc(F)c(S(=O)(=O)N2CCN(c3ccc(F)cc3)CC2)c1

>  <Energy>  (70) 
79.59459153201837

>  <Genealogy>  (70) 
Cc1cccc(C)c1NC(=O)c1ccc(F)c(S(=O)(=O)N2CCN(c3ccc(F)cc3)CC2)c1 (3D coordinates assigned)
Cc1cccc(C)c1NC(=O)c1ccc(F)c(S(=O)(=O)N2CCN(c3ccc(F)cc3)CC2)c1 (nonaromatic ring conformer: 79.59459153201837 kcal/mol)

>  <smiles>  (70) 
Cc1cccc(C)c1NC(=O)c1ccc(F)c(S(=O)(=O)N2CCN(c3ccc(F)cc3)CC2)c1

>  <score_type>  (70) 
oracle

>  <origin>  (70) 
adg

>  <m_score__min__energy>  (70) 
-9.8599999999999994

>  <m_primary>  (70) 
energy

$$$$
70:0
     RDKit          3D

 28 29  0  0  0  0  0  0  0  0999 V2000
   55.1180   29.4350   44.5180 N   0  0  0  0  0  0  0  0  0  0  0  0
   56.5030   29.7250   44.3270 C   0  0  0  0  0  0  0  0  0  0  0  0
   57.0330   31.2700   44.4870 S   0  0  0  0  0  0  0  0  0  0  0  0
   57.4890   28.6140   44.1000 C   0  0  0  0  0  0  0  0  0  0  0  0
   57.4350   27.6050   45.2130 C   0  0  0  0  0  0  0  0  0  0  0  0
   56.3540   26.8520   45.4740 N   0  0  0  0  0  0  0  0  0  0  0  0
   56.6880   26.1360   46.5610 C   0  0  0  0  0  0  0  0  0  0  0  0
   55.9120   25.3050   47.1030 O   0  0  0  0  0  0  0  0  0  0  0  0
   57.9270   26.3910   47.0230 N   0  0  0  0  0  0  0  0  0  0  0  0
   58.4050   27.3240   46.1700 C   0  0  0  0  0  0  0  0  0  0  0  0
   59.7440   27.9380   46.3130 C   0  0  0  0  0  0  0  0  0  0  0  0
   60.7710   27.2920   45.9750 O   0  0  0  0  0  0  0  0  0  0  0  0
   59.9020   29.3110   46.8460 C   0  0  0  0  0  0  0  0  0  0  0  0
   59.7810   30.4110   45.9770 C   0  0  0  0  0  0  0  0  0  0  0  0
   59.9040   31.7160   46.4600 C   0  0  0  0  0  0  0  0  0  0  0  0
   60.1440   31.9400   47.8180 C   0  0  0  0  0  0  0  0  0  0  0  0
   60.2980   33.5790   48.4230 Cl  0  0  0  0  0  0  0  0  0  0  0  0
   60.2620   30.8560   48.6940 C   0  0  0  0  0  0  0  0  0  0  0  0
   60.1400   29.5440   48.2200 C   0  0  0  0  0  0  0  0  0  0  0  0
   60.3480   28.2250   49.3660 Cl  0  0  0  0  0  0  0  0  0  0  0  0
   54.7680   28.4520   44.4920 H   0  0  0  0  0  0  0  0  0  0  0  0
   54.4330   30.2030   44.6950 H   0  0  0  0  0  0  0  0  0  0  0  0
   57.2529   28.1131   43.1495 H   0  0  0  0  0  0  0  0  0  0  0  0
   58.5002   29.0459   44.0694 H   0  0  0  0  0  0  0  0  0  0  0  0
   55.4480   26.8330   44.9540 H   0  0  0  0  0  0  0  0  0  0  0  0
   59.5878   30.2418   44.9074 H   0  0  0  0  0  0  0  0  0  0  0  0
   59.8118   32.5681   45.7705 H   0  0  0  0  0  0  0  0  0  0  0  0
   60.4519   31.0353   49.7625 H   0  0  0  0  0  0  0  0  0  0  0  0
  1  2  1  0
  2  3  2  0
  2  4  1  0
  4  5  1  0
  5  6  1  0
  6  7  1  0
  7  8  2  0
  7  9  1  0
  9 10  1  0
 10 11  1  0
 11 12  2  0
 11 13  1  0
 13 14  2  0
 14 15  1  0
 15 16  2  0
 16 17  1  0
 16 18  1  0
 18 19  2  0
 19 20  1  0
 10  5  2  0
 19 13  1  0
  1 21  1  0
  1 22  1  0
  4 23  1  0
  4 24  1  0
  6 25  1  0
 14 26  1  0
 15 27  1  0
 18 28  1  0
M  CHG  1   9  -1
M  END
>  <UniqueID>  (71) 
70

>  <SMILES>  (71) 
NC(=S)Cc1[nH]c(=O)[n-]c1C(=O)c1ccc(Cl)cc1Cl

>  <Energy>  (71) 
61.81529667797385

>  <Genealogy>  (71) 
NC(=S)Cc1[nH]c(=O)[n-]c1C(=O)c1ccc(Cl)cc1Cl (protonated)
NC(=S)Cc1[nH]c(=O)[n-]c1C(=O)c1ccc(Cl)cc1Cl (3D coordinates assigned)
NC(=S)Cc1[nH]c(=O)[n-]c1C(=O)c1ccc(Cl)cc1Cl (optimized conformer: 61.81529667797385 kcal/mol)

>  <smiles>  (71) 
NC(=S)Cc1[nH]c(=O)[nH]c1C(=O)c1ccc(Cl)cc1Cl

>  <score_type>  (71) 
oracle

>  <origin>  (71) 
adg

>  <m_score__min__energy>  (71) 
-9.9700000000000006

>  <m_primary>  (71) 
energy

$$$$
71:0
     RDKit          3D

 46 49  0  0  0  0  0  0  0  0999 V2000
   65.2340   31.9910   50.5050 C   0  0  0  0  0  0  0  0  0  0  0  0
   65.1860   32.8260   49.3530 O   0  0  0  0  0  0  0  0  0  0  0  0
   64.0040   33.2280   48.7130 C   0  0  0  0  0  0  0  0  0  0  0  0
   63.7830   33.0120   47.3390 C   0  0  0  0  0  0  0  0  0  0  0  0
   62.5890   33.4260   46.7430 C   0  0  0  0  0  0  0  0  0  0  0  0
   61.5890   34.0420   47.5070 C   0  0  0  0  0  0  0  0  0  0  0  0
   60.3550   34.5070   46.8370 C   0  0  0  0  0  0  0  0  0  0  0  0
   59.1900   33.8400   46.8260 C   0  0  0  0  0  0  0  0  0  0  0  0
   58.5940   33.0630   48.3210 S   0  0  0  0  0  0  0  0  0  0  0  0
   58.5420   31.4350   47.5560 C   0  0  0  0  0  0  0  0  0  0  0  0
   59.0060   30.3240   48.2670 C   0  0  0  0  0  0  0  0  0  0  0  0
   58.8870   29.0420   47.7230 C   0  0  0  0  0  0  0  0  0  0  0  0
   58.2850   28.8610   46.4700 C   0  0  0  0  0  0  0  0  0  0  0  0
   58.2460   27.2680   45.7200 S   0  0  0  0  0  0  0  0  0  0  0  0
   59.6310   26.6860   45.6800 O   0  0  0  0  0  0  0  0  0  0  0  0
   57.7230   27.3820   44.3160 O   0  0  0  0  0  0  0  0  0  0  0  0
   57.2020   26.2380   46.6370 N   0  0  0  0  0  0  0  0  0  0  0  0
   56.5530   25.1320   46.0110 C   0  0  0  0  0  0  0  0  0  0  0  0
   57.2910   23.9880   45.6770 C   0  0  0  0  0  0  0  0  0  0  0  0
   56.6780   22.9300   45.0010 C   0  0  0  0  0  0  0  0  0  0  0  0
   55.3250   23.0080   44.6600 C   0  0  0  0  0  0  0  0  0  0  0  0
   54.5830   24.1450   44.9940 C   0  0  0  0  0  0  0  0  0  0  0  0
   55.1940   25.2100   45.6680 C   0  0  0  0  0  0  0  0  0  0  0  0
   54.4530   26.3420   45.9850 O   0  0  0  0  0  0  0  0  0  0  0  0
   57.8260   29.9750   45.7530 C   0  0  0  0  0  0  0  0  0  0  0  0
   57.9780   31.2630   46.2740 C   0  0  0  0  0  0  0  0  0  0  0  0
   57.7010   32.3930   45.4320 N   0  0  0  0  0  0  0  0  0  0  0  0
   58.3350   33.6590   45.6410 C   0  0  0  0  0  0  0  0  0  0  0  0
   58.1530   34.5960   44.8200 O   0  0  0  0  0  0  0  0  0  0  0  0
   61.8220   34.2860   48.8710 C   0  0  0  0  0  0  0  0  0  0  0  0
   63.0170   33.8740   49.4700 C   0  0  0  0  0  0  0  0  0  0  0  0
   63.2250   34.1110   50.8230 O   0  0  0  0  0  0  0  0  0  0  0  0
   65.1982   32.6138   51.4110 H   0  0  0  0  0  0  0  0  0  0  0  0
   64.3738   31.3055   50.4971 H   0  0  0  0  0  0  0  0  0  0  0  0
   66.1671   31.4086   50.4971 H   0  0  0  0  0  0  0  0  0  0  0  0
   64.5541   32.5150   46.7321 H   0  0  0  0  0  0  0  0  0  0  0  0
   62.4329   33.2671   45.6658 H   0  0  0  0  0  0  0  0  0  0  0  0
   60.3948   35.4709   46.3085 H   0  0  0  0  0  0  0  0  0  0  0  0
   59.4659   30.4593   49.2571 H   0  0  0  0  0  0  0  0  0  0  0  0
   59.2668   28.1726   48.2797 H   0  0  0  0  0  0  0  0  0  0  0  0
   58.3552   23.9231   45.9477 H   0  0  0  0  0  0  0  0  0  0  0  0
   57.2607   22.0351   44.7370 H   0  0  0  0  0  0  0  0  0  0  0  0
   54.8433   22.1741   44.1283 H   0  0  0  0  0  0  0  0  0  0  0  0
   53.5175   24.2032   44.7270 H   0  0  0  0  0  0  0  0  0  0  0  0
   57.3434   29.8345   44.7746 H   0  0  0  0  0  0  0  0  0  0  0  0
   61.0599   34.8042   49.4715 H   0  0  0  0  0  0  0  0  0  0  0  0
  1  2  1  0
  2  3  1  0
  3  4  2  0
  4  5  1  0
  5  6  2  0
  6  7  1  0
  7  8  2  3
  8  9  1  0
  9 10  1  0
 10 11  2  0
 11 12  1  0
 12 13  2  0
 13 14  1  0
 14 15  2  0
 14 16  2  0
 14 17  1  0
 17 18  1  0
 18 19  2  0
 19 20  1  0
 20 21  2  0
 21 22  1  0
 22 23  2  0
 23 24  1  0
 13 25  1  0
 25 26  2  0
 26 27  1  0
 27 28  1  0
 28 29  2  0
  6 30  1  0
 30 31  2  0
 31 32  1  0
 31  3  1  0
 28  8  1  0
 26 10  1  0
 23 18  1  0
  1 33  1  0
  1 34  1  0
  1 35  1  0
  4 36  1  0
  5 37  1  0
  7 38  1  0
 11 39  1  0
 12 40  1  0
 19 41  1  0
 20 42  1  0
 21 43  1  0
 22 44  1  0
 25 45  1  0
 30 46  1  0
M  CHG  4  17  -1  24  -1  27  -1  32  -1
M  END
>  <UniqueID>  (72) 
71

>  <SMILES>  (72) 
COc1ccc(C=C2Sc3ccc(S(=O)(=O)[N-]c4ccccc4[O-])cc3[N-]C2=O)cc1[O-]

>  <Energy>  (72) 
75.60680247577287

>  <Genealogy>  (72) 
COc1ccc(C=C2Sc3ccc(S(=O)(=O)[N-]c4ccccc4[O-])cc3[N-]C2=O)cc1[O-] (protonated)
COc1ccc(C=C2Sc3ccc(S(=O)(=O)[N-]c4ccccc4[O-])cc3[N-]C2=O)cc1[O-] (3D coordinates assigned)
COc1ccc(C=C2Sc3ccc(S(=O)(=O)[N-]c4ccccc4[O-])cc3[N-]C2=O)cc1[O-] (nonaromatic ring conformer: 75.60680247577287 kcal/mol)

>  <smiles>  (72) 
COc1ccc(C=C2Sc3ccc(S(=O)(=O)Nc4ccccc4O)cc3NC2=O)cc1O

>  <score_type>  (72) 
oracle

>  <origin>  (72) 
adg

>  <m_score__min__energy>  (72) 
-18.789999999999999

>  <m_primary>  (72) 
energy

$$$$
72:0
     RDKit          3D

 46 49  0  0  0  0  0  0  0  0999 V2000
   54.0120   26.3270   46.3890 H   0  0  0  0  0  0  0  0  0  0  0  0
   54.9390   26.3560   45.9810 O   0  0  0  0  0  0  0  0  0  0  0  0
   55.9010   25.3980   46.2920 C   0  0  0  0  0  0  0  0  0  0  0  0
   55.6900   24.3950   47.1590 N   0  0  0  0  0  0  0  0  0  0  0  0
   56.8500   23.7060   47.1080 C   0  0  0  0  0  0  0  0  0  0  0  0
   57.0520   22.6670   47.7890 O   0  0  0  0  0  0  0  0  0  0  0  0
   57.7730   24.2120   46.2630 N   0  0  0  0  0  0  0  0  0  0  0  0
   57.1730   25.3070   45.7670 C   0  0  0  0  0  0  0  0  0  0  0  0
   57.7640   26.1450   44.7140 C   0  0  0  0  0  0  0  0  0  0  0  0
   57.9636   25.6624   43.7459 H   0  0  0  0  0  0  0  0  0  0  0  0
   58.0840   27.4490   44.8240 C   0  0  0  0  0  0  0  0  0  0  0  0
   57.3340   28.4480   44.2350 C   0  0  0  0  0  0  0  0  0  0  0  0
   56.4252   28.3112   43.6305 H   0  0  0  0  0  0  0  0  0  0  0  0
   57.9370   29.6500   44.5460 C   0  0  0  0  0  0  0  0  0  0  0  0
   57.4760   30.9560   44.0250 C   0  0  0  0  0  0  0  0  0  0  0  0
   57.6160   31.2200   42.8010 O   0  0  0  0  0  0  0  0  0  0  0  0
   56.9970   31.9850   44.9060 N   0  0  0  0  0  0  0  0  0  0  0  0
   57.7280   32.8650   45.5250 C   0  0  0  0  0  0  0  0  0  0  0  0
   58.0460   34.0550   44.9730 N   0  0  0  0  0  0  0  0  0  0  0  0
   58.8640   34.7850   45.7800 C   0  0  0  0  0  0  0  0  0  0  0  0
   59.2455   35.7769   45.4960 H   0  0  0  0  0  0  0  0  0  0  0  0
   59.1800   34.1790   46.9920 C   0  0  0  0  0  0  0  0  0  0  0  0
   60.1860   34.6620   47.9890 C   0  0  0  0  0  0  0  0  0  0  0  0
   60.4990   35.6838   47.7285 H   0  0  0  0  0  0  0  0  0  0  0  0
   59.7370   34.6610   48.9932 H   0  0  0  0  0  0  0  0  0  0  0  0
   61.3840   33.7510   47.9740 C   0  0  0  0  0  0  0  0  0  0  0  0
   62.3370   33.8490   46.9440 C   0  0  0  0  0  0  0  0  0  0  0  0
   62.1716   34.5469   46.1100 H   0  0  0  0  0  0  0  0  0  0  0  0
   63.4930   33.0640   46.9750 C   0  0  0  0  0  0  0  0  0  0  0  0
   64.2329   33.1436   46.1650 H   0  0  0  0  0  0  0  0  0  0  0  0
   63.7100   32.1780   48.0340 C   0  0  0  0  0  0  0  0  0  0  0  0
   64.6189   31.5588   48.0558 H   0  0  0  0  0  0  0  0  0  0  0  0
   62.7720   32.0790   49.0650 C   0  0  0  0  0  0  0  0  0  0  0  0
   62.9427   31.3802   49.8972 H   0  0  0  0  0  0  0  0  0  0  0  0
   61.6160   32.8670   49.0410 C   0  0  0  0  0  0  0  0  0  0  0  0
   60.8861   32.7941   49.8607 H   0  0  0  0  0  0  0  0  0  0  0  0
   58.4140   32.6860   47.0580 S   0  0  0  0  0  0  0  0  0  0  0  0
   59.0390   29.4400   45.3060 N   0  0  0  0  0  0  0  0  0  0  0  0
   60.0270   30.4450   45.7180 C   0  0  0  0  0  0  0  0  0  0  0  0
   60.0697   30.4884   46.8163 H   0  0  0  0  0  0  0  0  0  0  0  0
   61.0162   30.1701   45.3232 H   0  0  0  0  0  0  0  0  0  0  0  0
   59.7353   31.4294   45.3232 H   0  0  0  0  0  0  0  0  0  0  0  0
   59.1580   28.0930   45.4620 C   0  0  0  0  0  0  0  0  0  0  0  0
   60.2240   27.5150   46.0390 C   0  0  0  0  0  0  0  0  0  0  0  0
   61.0006   28.1373   46.5076 H   0  0  0  0  0  0  0  0  0  0  0  0
   60.3205   26.4193   46.0430 H   0  0  0  0  0  0  0  0  0  0  0  0
  1  2  1  0
  2  3  1  0
  3  4  1  0
  4  5  1  0
  5  6  2  0
  5  7  1  0
  7  8  1  0
  8  9  1  0
  9 10  1  0
  9 11  2  0
 11 12  1  0
 12 13  1  0
 12 14  2  0
 14 15  1  0
 15 16  2  0
 15 17  1  0
 17 18  2  3
 18 19  1  0
 19 20  1  0
 20 21  1  0
 20 22  2  0
 22 23  1  0
 23 24  1  0
 23 25  1  0
 23 26  1  0
 26 27  2  0
 27 28  1  0
 27 29  1  0
 29 30  1  0
 29 31  2  0
 31 32  1  0
 31 33  1  0
 33 34  1  0
 33 35  2  0
 35 36  1  0
 22 37  1  0
 14 38  1  0
 38 39  1  0
 39 40  1  0
 39 41  1  0
 39 42  1  0
 38 43  1  0
 43 44  2  0
 44 45  1  0
 44 46  1  0
  8  3  2  0
 43 11  1  0
 37 18  1  0
 35 26  1  0
M  CHG  3   4  -1   7  -1  19  -1
M  END
>  <UniqueID>  (73) 
72

>  <SMILES>  (73) 
C=c1/c(=C\c2[n-]c(=O)[n-]c2O)cc(C(=O)N=c2[n-]cc(Cc3ccccc3)s2)n1C

>  <Energy>  (73) 
156.52059781691707

>  <Genealogy>  (73) 
C=c1c(=Cc2[n-]c(=O)[n-]c2O)cc(C(=O)N=c2[n-]cc(Cc3ccccc3)s2)n1C (protonated)
C=c1/c(=C\c2[n-]c(=O)[n-]c2O)cc(C(=O)N=c2[n-]cc(Cc3ccccc3)s2)n1C (cis-trans isomerization)
C=c1/c(=C\c2[n-]c(=O)[n-]c2O)cc(C(=O)N=c2[n-]cc(Cc3ccccc3)s2)n1C (3D coordinates assigned)
C=c1/c(=C\c2[n-]c(=O)[n-]c2O)cc(C(=O)N=c2[n-]cc(Cc3ccccc3)s2)n1C (optimized conformer: 156.52059781691707 kcal/mol)

>  <smiles>  (73) 
C=c1c(=Cc2[nH]c(=O)[nH]c2O)cc(C(=O)N=c2[nH]cc(Cc3ccccc3)s2)n1C

>  <score_type>  (73) 
oracle

>  <origin>  (73) 
adg

>  <m_score__min__energy>  (73) 
-15.57

>  <m_primary>  (73) 
energy

$$$$
73:0
     RDKit          3D

 65 68  0  0  0  0  0  0  0  0999 V2000
   65.0480   32.0730   49.7620 C   0  0  0  0  0  0  0  0  0  0  0  0
   64.0030   33.1070   50.0560 C   0  0  0  0  0  0  0  0  0  0  0  0
   64.2500   33.9790   50.9360 O   0  0  0  0  0  0  0  0  0  0  0  0
   62.7360   33.1210   49.3580 N   0  0  0  0  0  0  0  0  0  0  0  0
   61.7350   34.1550   49.6660 C   0  0  0  0  0  0  0  0  0  0  0  0
   60.3200   33.5730   49.6000 C   0  0  0  0  0  0  0  0  0  0  0  0
   60.0980   32.8160   48.3580 N   0  0  0  0  0  0  0  0  0  0  0  0
   58.7590   32.3740   48.0410 C   0  0  0  0  0  0  0  0  0  0  0  0
   57.8850   32.3370   48.9470 O   0  0  0  0  0  0  0  0  0  0  0  0
   58.3850   31.9480   46.6740 C   0  0  0  0  0  0  0  0  0  0  0  0
   58.2640   30.5780   46.3970 C   0  0  0  0  0  0  0  0  0  0  0  0
   57.9240   30.1260   45.1110 C   0  0  0  0  0  0  0  0  0  0  0  0
   57.8070   28.6290   44.8650 C   0  0  1  0  0  0  0  0  0  0  0  0
   59.1420   27.9160   44.6200 C   0  0  0  0  0  0  0  0  0  0  0  0
   57.0580   27.9730   45.9380 N   0  0  0  0  0  0  0  0  0  0  0  0
   56.3880   26.7080   45.8470 C   0  0  0  0  0  0  0  0  0  0  0  0
   55.1430   26.6340   46.0220 O   0  0  0  0  0  0  0  0  0  0  0  0
   57.1520   25.4790   45.5450 C   0  0  0  0  0  0  0  0  0  0  0  0
   56.9100   24.7860   44.3480 C   0  0  0  0  0  0  0  0  0  0  0  0
   57.5920   23.6010   44.0700 C   0  0  0  0  0  0  0  0  0  0  0  0
   58.5090   23.1060   44.9970 C   0  0  0  0  0  0  0  0  0  0  0  0
   58.7310   23.7770   46.1570 N   0  0  0  0  0  0  0  0  0  0  0  0
   58.0860   24.9430   46.4580 C   0  0  0  0  0  0  0  0  0  0  0  0
   58.3200   25.5820   47.6830 O   0  0  0  0  0  0  0  0  0  0  0  0
   58.8350   26.9080   47.8060 C   0  0  0  0  0  0  0  0  0  0  0  0
   60.3550   26.9160   47.6630 C   0  0  0  0  0  0  0  0  0  0  0  0
   60.7900   28.2070   47.4250 F   0  0  0  0  0  0  0  0  0  0  0  0
   60.9520   26.4480   48.8190 F   0  0  0  0  0  0  0  0  0  0  0  0
   60.7290   26.1130   46.6020 F   0  0  0  0  0  0  0  0  0  0  0  0
   57.7510   31.0730   44.0850 C   0  0  0  0  0  0  0  0  0  0  0  0
   57.8750   32.4380   44.3500 C   0  0  0  0  0  0  0  0  0  0  0  0
   58.1590   32.8930   45.6450 C   0  0  0  0  0  0  0  0  0  0  0  0
   58.2670   34.3800   45.8970 C   0  0  0  0  0  0  0  0  0  0  0  0
   59.6620   34.8880   46.2440 C   0  0  0  0  0  0  0  0  0  0  0  0
   59.0870   35.1490   44.8660 C   0  0  0  0  0  0  0  0  0  0  0  0
   61.2260   32.5250   47.4650 C   0  0  0  0  0  0  0  0  0  0  0  0
   62.4770   32.1570   48.2730 C   0  0  0  0  0  0  0  0  0  0  0  0
   65.4481   31.6771   50.7071 H   0  0  0  0  0  0  0  0  0  0  0  0
   64.5996   31.2532   49.1816 H   0  0  0  0  0  0  0  0  0  0  0  0
   65.8630   32.5301   49.1816 H   0  0  0  0  0  0  0  0  0  0  0  0
   61.9183   34.5454   50.6779 H   0  0  0  0  0  0  0  0  0  0  0  0
   61.8207   34.9631   48.9247 H   0  0  0  0  0  0  0  0  0  0  0  0
   60.1710   32.9010   50.4580 H   0  0  0  0  0  0  0  0  0  0  0  0
   59.6051   34.4087   49.6235 H   0  0  0  0  0  0  0  0  0  0  0  0
   58.4381   29.8461   47.1995 H   0  0  0  0  0  0  0  0  0  0  0  0
   57.2477   28.5384   43.9222 H   0  0  0  0  0  0  0  0  0  0  0  0
   59.6075   27.6674   45.5852 H   0  0  0  0  0  0  0  0  0  0  0  0
   58.9651   26.9923   44.0495 H   0  0  0  0  0  0  0  0  0  0  0  0
   59.8113   28.5768   44.0495 H   0  0  0  0  0  0  0  0  0  0  0  0
   56.1792   25.1793   43.6260 H   0  0  0  0  0  0  0  0  0  0  0  0
   57.4082   23.0623   43.1287 H   0  0  0  0  0  0  0  0  0  0  0  0
   59.0523   22.1725   44.7888 H   0  0  0  0  0  0  0  0  0  0  0  0
   58.3957   27.5396   47.0198 H   0  0  0  0  0  0  0  0  0  0  0  0
   58.5730   27.2966   48.8012 H   0  0  0  0  0  0  0  0  0  0  0  0
   57.5160   30.7349   43.0650 H   0  0  0  0  0  0  0  0  0  0  0  0
   57.7485   33.1644   43.5337 H   0  0  0  0  0  0  0  0  0  0  0  0
   57.2668   34.4858   46.3424 H   0  0  0  0  0  0  0  0  0  0  0  0
   59.7831   35.7185   46.9551 H   0  0  0  0  0  0  0  0  0  0  0  0
   60.5841   34.4255   46.6258 H   0  0  0  0  0  0  0  0  0  0  0  0
   58.7911   36.1686   44.5781 H   0  0  0  0  0  0  0  0  0  0  0  0
   59.4196   34.9539   43.8358 H   0  0  0  0  0  0  0  0  0  0  0  0
   60.9593   31.6832   46.8091 H   0  0  0  0  0  0  0  0  0  0  0  0
   61.4432   33.4218   46.8662 H   0  0  0  0  0  0  0  0  0  0  0  0
   62.3357   31.1581   48.7114 H   0  0  0  0  0  0  0  0  0  0  0  0
   63.3396   32.1731   47.5906 H   0  0  0  0  0  0  0  0  0  0  0  0
  1  2  1  0
  2  3  2  0
  2  4  1  0
  4  5  1  0
  5  6  1  0
  6  7  1  0
  7  8  1  0
  8  9  2  0
  8 10  1  0
 10 11  2  0
 11 12  1  0
 12 13  1  0
 13 14  1  0
 13 15  1  0
 15 16  1  0
 16 17  2  0
 16 18  1  0
 18 19  2  0
 19 20  1  0
 20 21  2  0
 21 22  1  0
 22 23  2  0
 23 24  1  0
 24 25  1  0
 25 26  1  0
 26 27  1  0
 26 28  1  0
 26 29  1  0
 12 30  2  0
 30 31  1  0
 31 32  2  0
 32 33  1  0
 33 34  1  0
 34 35  1  0
  7 36  1  0
 36 37  1  0
 37  4  1  0
 32 10  1  0
 35 33  1  0
 23 18  1  0
  1 38  1  0
  1 39  1  0
  1 40  1  0
  5 41  1  0
  5 42  1  0
  6 43  1  0
  6 44  1  0
 11 45  1  0
 13 46  1  6
 14 47  1  0
 14 48  1  0
 14 49  1  0
 19 50  1  0
 20 51  1  0
 21 52  1  0
 25 53  1  0
 25 54  1  0
 30 55  1  0
 31 56  1  0
 33 57  1  0
 34 58  1  0
 34 59  1  0
 35 60  1  0
 35 61  1  0
 36 62  1  0
 36 63  1  0
 37 64  1  0
 37 65  1  0
M  CHG  1  15  -1
M  END
>  <UniqueID>  (74) 
73

>  <SMILES>  (74) 
CC(=O)N1CCN(C(=O)c2cc([C@@H](C)[N-]C(=O)c3cccnc3OCC(F)(F)F)ccc2C2CC2)CC1

>  <Energy>  (74) 
335.9275194529545

>  <Genealogy>  (74) 
CC(=O)N1CCN(C(=O)c2cc(C(C)[N-]C(=O)c3cccnc3OCC(F)(F)F)ccc2C2CC2)CC1 (protonated)
CC(=O)N1CCN(C(=O)c2cc([C@@H](C)[N-]C(=O)c3cccnc3OCC(F)(F)F)ccc2C2CC2)CC1 (chirality)
CC(=O)N1CCN(C(=O)c2cc([C@@H](C)[N-]C(=O)c3cccnc3OCC(F)(F)F)ccc2C2CC2)CC1 (3D coordinates assigned)
CC(=O)N1CCN(C(=O)c2cc([C@@H](C)[N-]C(=O)c3cccnc3OCC(F)(F)F)ccc2C2CC2)CC1 (nonaromatic ring conformer: 335.9275194529545 kcal/mol)

>  <smiles>  (74) 
CC(=O)N1CCN(C(=O)c2cc(C(C)NC(=O)c3cccnc3OCC(F)(F)F)ccc2C2CC2)CC1

>  <score_type>  (74) 
oracle

>  <origin>  (74) 
adg

>  <m_score__min__energy>  (74) 
-11.029999999999999

>  <m_primary>  (74) 
energy

$$$$
74:0
     RDKit          3D

 54 57  0  0  0  0  0  0  0  0999 V2000
   55.7590   22.7560   43.3800 O   0  0  0  0  0  0  0  0  0  0  0  0
   55.3990   23.5640   44.2770 C   0  0  0  0  0  0  0  0  0  0  0  0
   56.2440   24.6760   44.5920 N   0  0  0  0  0  0  0  0  0  0  0  0
   56.1960   25.5380   46.0950 S   0  0  0  0  0  0  0  0  0  0  0  0
   55.8130   24.6250   47.2220 O   0  0  0  0  0  0  0  0  0  0  0  0
   55.1660   26.6280   45.9830 O   0  0  0  0  0  0  0  0  0  0  0  0
   57.7840   26.2440   46.4470 C   0  0  0  0  0  0  0  0  0  0  0  0
   58.4530   25.8310   47.6150 C   0  0  0  0  0  0  0  0  0  0  0  0
   59.7180   26.3280   47.9280 C   0  0  0  0  0  0  0  0  0  0  0  0
   60.3410   27.2370   47.0770 C   0  0  0  0  0  0  0  0  0  0  0  0
   59.6980   27.6570   45.9120 C   0  0  0  0  0  0  0  0  0  0  0  0
   58.4150   27.1800   45.5820 C   0  0  0  0  0  0  0  0  0  0  0  0
   57.7670   27.6980   44.3130 C   0  0  0  0  0  0  0  0  0  0  0  0
   57.6540   29.2040   44.2740 C   0  0  0  0  0  0  0  0  0  0  0  0
   56.4000   29.8160   44.4230 C   0  0  0  0  0  0  0  0  0  0  0  0
   56.2990   31.2070   44.4690 C   0  0  0  0  0  0  0  0  0  0  0  0
   57.4570   31.9830   44.3660 C   0  0  0  0  0  0  0  0  0  0  0  0
   57.3670   33.7710   44.5150 S   0  0  0  0  0  0  0  0  0  0  0  0
   57.9490   33.9520   46.2560 C   0  0  0  0  0  0  0  0  0  0  0  0
   58.1540   32.6190   46.9670 C   0  0  0  0  0  0  0  0  0  0  0  0
   59.6580   32.3790   47.0430 C   0  0  0  0  0  0  0  0  0  0  0  0
   60.3490   33.6880   46.6700 C   0  0  0  0  0  0  0  0  0  0  0  0
   59.2660   34.7140   46.3720 C   0  0  0  0  0  0  0  0  0  0  0  0
   58.6690   31.3760   44.2590 N   0  0  0  0  0  0  0  0  0  0  0  0
   58.7940   30.0210   44.2100 C   0  0  0  0  0  0  0  0  0  0  0  0
   54.1230   23.3390   44.9740 C   0  0  0  0  0  0  0  0  0  0  0  0
   52.9620   24.0010   44.5470 C   0  0  0  0  0  0  0  0  0  0  0  0
   51.7510   23.7980   45.2140 C   0  0  0  0  0  0  0  0  0  0  0  0
   51.6920   22.9360   46.3120 C   0  0  0  0  0  0  0  0  0  0  0  0
   52.8500   22.2910   46.7590 C   0  0  0  0  0  0  0  0  0  0  0  0
   54.0660   22.4930   46.0970 C   0  0  0  0  0  0  0  0  0  0  0  0
   55.1800   21.8570   46.5390 F   0  0  0  0  0  0  0  0  0  0  0  0
   57.9719   25.1072   48.2892 H   0  0  0  0  0  0  0  0  0  0  0  0
   60.2242   26.0014   48.8484 H   0  0  0  0  0  0  0  0  0  0  0  0
   61.3407   27.6243   47.3232 H   0  0  0  0  0  0  0  0  0  0  0  0
   60.2003   28.3705   45.2422 H   0  0  0  0  0  0  0  0  0  0  0  0
   58.3704   27.3704   43.4536 H   0  0  0  0  0  0  0  0  0  0  0  0
   56.7450   27.2927   44.2791 H   0  0  0  0  0  0  0  0  0  0  0  0
   55.4940   29.1974   44.5038 H   0  0  0  0  0  0  0  0  0  0  0  0
   55.3169   31.6885   44.5853 H   0  0  0  0  0  0  0  0  0  0  0  0
   57.1354   34.5164   46.7350 H   0  0  0  0  0  0  0  0  0  0  0  0
   57.7269   32.6618   47.9798 H   0  0  0  0  0  0  0  0  0  0  0  0
   57.6541   31.8039   46.4232 H   0  0  0  0  0  0  0  0  0  0  0  0
   59.9402   32.0826   48.0640 H   0  0  0  0  0  0  0  0  0  0  0  0
   59.9576   31.5727   46.3573 H   0  0  0  0  0  0  0  0  0  0  0  0
   60.9729   34.0342   47.5072 H   0  0  0  0  0  0  0  0  0  0  0  0
   60.9966   33.5454   45.7924 H   0  0  0  0  0  0  0  0  0  0  0  0
   59.2067   35.4486   47.1886 H   0  0  0  0  0  0  0  0  0  0  0  0
   59.4871   35.2593   45.4426 H   0  0  0  0  0  0  0  0  0  0  0  0
   59.7910   29.5651   44.1200 H   0  0  0  0  0  0  0  0  0  0  0  0
   53.0052   24.6821   43.6843 H   0  0  0  0  0  0  0  0  0  0  0  0
   50.8429   24.3175   44.8742 H   0  0  0  0  0  0  0  0  0  0  0  0
   50.7343   22.7644   46.8253 H   0  0  0  0  0  0  0  0  0  0  0  0
   52.8045   21.6239   47.6324 H   0  0  0  0  0  0  0  0  0  0  0  0
  1  2  2  0
  2  3  1  0
  3  4  1  0
  4  5  2  0
  4  6  2  0
  4  7  1  0
  7  8  2  0
  8  9  1  0
  9 10  2  0
 10 11  1  0
 11 12  2  0
 12 13  1  0
 13 14  1  0
 14 15  2  0
 15 16  1  0
 16 17  2  0
 17 18  1  0
 18 19  1  0
 19 20  1  0
 20 21  1  0
 21 22  1  0
 22 23  1  0
 17 24  1  0
 24 25  2  0
  2 26  1  0
 26 27  2  0
 27 28  1  0
 28 29  2  0
 29 30  1  0
 30 31  2  0
 31 32  1  0
 12  7  1  0
 25 14  1  0
 31 26  1  0
 23 19  1  0
  8 33  1  0
  9 34  1  0
 10 35  1  0
 11 36  1  0
 13 37  1  0
 13 38  1  0
 15 39  1  0
 16 40  1  0
 19 41  1  0
 20 42  1  0
 20 43  1  0
 21 44  1  0
 21 45  1  0
 22 46  1  0
 22 47  1  0
 23 48  1  0
 23 49  1  0
 25 50  1  0
 27 51  1  0
 28 52  1  0
 29 53  1  0
 30 54  1  0
M  CHG  1   3  -1
M  END
>  <UniqueID>  (75) 
74

>  <SMILES>  (75) 
O=C([N-]S(=O)(=O)c1ccccc1Cc1ccc(SC2CCCC2)nc1)c1ccccc1F

>  <Energy>  (75) 
65.92624544289232

>  <Genealogy>  (75) 
O=C([N-]S(=O)(=O)c1ccccc1Cc1ccc(SC2CCCC2)nc1)c1ccccc1F (protonated)
O=C([N-]S(=O)(=O)c1ccccc1Cc1ccc(SC2CCCC2)nc1)c1ccccc1F (3D coordinates assigned)
O=C([N-]S(=O)(=O)c1ccccc1Cc1ccc(SC2CCCC2)nc1)c1ccccc1F (nonaromatic ring conformer: 65.92624544289232 kcal/mol)

>  <smiles>  (75) 
O=C(NS(=O)(=O)c1ccccc1Cc1ccc(SC2CCCC2)nc1)c1ccccc1F

>  <score_type>  (75) 
oracle

>  <origin>  (75) 
adg

>  <m_score__min__energy>  (75) 
-11.699999999999999

>  <m_primary>  (75) 
energy

$$$$
75:0
     RDKit          3D

 71 75  0  0  0  0  0  0  0  0999 V2000
   60.2610   29.4800   45.7700 C   0  0  0  0  0  0  0  0  0  0  0  0
   59.2120   30.5360   45.5790 C   0  0  0  0  0  0  0  0  0  0  0  0
   59.4870   31.8610   45.9890 C   0  0  0  0  0  0  0  0  0  0  0  0
   58.5390   32.8860   45.8240 C   0  0  0  0  0  0  0  0  0  0  0  0
   57.2910   32.6120   45.2540 C   0  0  0  0  0  0  0  0  0  0  0  0
   57.0240   31.3030   44.8570 C   0  0  0  0  0  0  0  0  0  0  0  0
   55.8770   30.8650   44.3170 N   0  0  0  0  0  0  0  0  0  0  0  0
   56.0410   29.5440   44.1120 C   0  0  0  0  0  0  0  0  0  0  0  0
   57.3100   29.1340   44.5120 C   0  0  0  0  0  0  0  0  0  0  0  0
   57.7780   27.6990   44.4490 C   0  0  0  0  0  0  0  0  0  0  0  0
   57.5200   26.9500   45.7650 C   0  0  0  0  0  0  0  0  0  0  0  0
   56.4360   25.9130   45.6230 C   0  0  0  0  0  0  0  0  0  0  0  0
   55.2890   26.1940   46.0670 O   0  0  0  0  0  0  0  0  0  0  0  0
   56.6700   24.5970   44.9640 C   0  0  0  0  0  0  0  0  0  0  0  0
   55.7440   24.0940   44.0270 C   0  0  0  0  0  0  0  0  0  0  0  0
   55.9460   22.8580   43.4140 C   0  0  0  0  0  0  0  0  0  0  0  0
   57.0780   22.1050   43.7170 C   0  0  0  0  0  0  0  0  0  0  0  0
   58.0080   22.5810   44.6390 C   0  0  0  0  0  0  0  0  0  0  0  0
   57.8140   23.8210   45.2820 C   0  0  0  0  0  0  0  0  0  0  0  0
   58.7210   24.2980   46.2460 O   0  0  0  0  0  0  0  0  0  0  0  0
   60.0640   24.7080   45.9920 C   0  0  0  0  0  0  0  0  0  0  0  0
   60.3400   26.0250   46.6540 C   0  0  0  0  0  0  0  0  0  0  0  0
   61.2490   26.7580   46.1870 O   0  0  0  0  0  0  0  0  0  0  0  0
   59.5500   26.4520   47.7780 N   0  0  0  0  0  0  0  0  0  0  0  0
   59.6330   27.7490   48.3960 C   0  0  0  0  0  0  0  0  0  0  0  0
   58.5520   28.6360   48.2660 C   0  0  0  0  0  0  0  0  0  0  0  0
   58.5810   29.8900   48.8820 C   0  0  0  0  0  0  0  0  0  0  0  0
   59.6950   30.2810   49.6340 C   0  0  0  0  0  0  0  0  0  0  0  0
   59.7240   31.8600   50.4210 S   0  0  0  0  0  0  0  0  0  0  0  0
   61.1440   32.3560   50.4570 O   0  0  0  0  0  0  0  0  0  0  0  0
   58.9200   32.8340   49.6040 O   0  0  0  0  0  0  0  0  0  0  0  0
   59.0790   31.8180   52.0500 N   0  0  0  0  0  0  0  0  0  0  0  0
   57.7150   32.3710   52.1250 C   0  0  0  0  0  0  0  0  0  0  0  0
   56.6260   31.3460   51.7260 C   0  0  0  0  0  0  0  0  0  0  0  0
   57.0880   30.0100   51.6790 O   0  0  0  0  0  0  0  0  0  0  0  0
   57.8880   29.7400   52.8050 C   0  0  0  0  0  0  0  0  0  0  0  0
   59.2200   30.4950   52.6960 C   0  0  0  0  0  0  0  0  0  0  0  0
   60.7710   29.3930   49.7840 C   0  0  0  0  0  0  0  0  0  0  0  0
   60.7370   28.1330   49.1810 C   0  0  0  0  0  0  0  0  0  0  0  0
   57.9440   30.2820   45.0050 C   0  0  0  0  0  0  0  0  0  0  0  0
   60.4243   29.3156   46.8453 H   0  0  0  0  0  0  0  0  0  0  0  0
   59.9266   28.5422   45.3023 H   0  0  0  0  0  0  0  0  0  0  0  0
   61.2010   29.8081   45.3023 H   0  0  0  0  0  0  0  0  0  0  0  0
   60.4604   32.0940   46.4454 H   0  0  0  0  0  0  0  0  0  0  0  0
   58.7800   33.9101   46.1451 H   0  0  0  0  0  0  0  0  0  0  0  0
   56.5420   33.4069   45.1230 H   0  0  0  0  0  0  0  0  0  0  0  0
   55.0220   31.4260   44.1100 H   0  0  0  0  0  0  0  0  0  0  0  0
   55.2756   28.8787   43.6860 H   0  0  0  0  0  0  0  0  0  0  0  0
   57.2412   27.1859   43.6375 H   0  0  0  0  0  0  0  0  0  0  0  0
   58.8631   27.7037   44.2684 H   0  0  0  0  0  0  0  0  0  0  0  0
   58.4493   26.4514   46.0776 H   0  0  0  0  0  0  0  0  0  0  0  0
   57.1903   27.6847   46.5143 H   0  0  0  0  0  0  0  0  0  0  0  0
   54.8504   24.6845   43.7763 H   0  0  0  0  0  0  0  0  0  0  0  0
   55.2105   22.4771   42.6902 H   0  0  0  0  0  0  0  0  0  0  0  0
   57.2380   21.1330   43.2276 H   0  0  0  0  0  0  0  0  0  0  0  0
   58.9027   21.9834   44.8677 H   0  0  0  0  0  0  0  0  0  0  0  0
   60.7559   23.9504   46.3886 H   0  0  0  0  0  0  0  0  0  0  0  0
   60.2059   24.8164   44.9066 H   0  0  0  0  0  0  0  0  0  0  0  0
   58.7560   25.8370   48.0670 H   0  0  0  0  0  0  0  0  0  0  0  0
   57.6736   28.3407   47.6733 H   0  0  0  0  0  0  0  0  0  0  0  0
   57.7250   30.5726   48.7755 H   0  0  0  0  0  0  0  0  0  0  0  0
   57.5260   32.6997   53.1576 H   0  0  0  0  0  0  0  0  0  0  0  0
   57.6583   33.2068   51.4121 H   0  0  0  0  0  0  0  0  0  0  0  0
   55.8091   31.4046   52.4603 H   0  0  0  0  0  0  0  0  0  0  0  0
   56.2982   31.6071   50.7090 H   0  0  0  0  0  0  0  0  0  0  0  0
   57.3592   30.0636   53.7136 H   0  0  0  0  0  0  0  0  0  0  0  0
   58.0884   28.6596   52.8548 H   0  0  0  0  0  0  0  0  0  0  0  0
   59.6255   30.6398   53.7082 H   0  0  0  0  0  0  0  0  0  0  0  0
   59.8922   29.8908   52.0690 H   0  0  0  0  0  0  0  0  0  0  0  0
   61.6465   29.6905   50.3798 H   0  0  0  0  0  0  0  0  0  0  0  0
   61.5775   27.4371   49.3203 H   0  0  0  0  0  0  0  0  0  0  0  0
  1  2  1  0
  2  3  2  0
  3  4  1  0
  4  5  2  0
  5  6  1  0
  6  7  1  0
  7  8  1  0
  8  9  2  0
  9 10  1  0
 10 11  1  0
 11 12  1  0
 12 13  2  0
 12 14  1  0
 14 15  2  0
 15 16  1  0
 16 17  2  0
 17 18  1  0
 18 19  2  0
 19 20  1  0
 20 21  1  0
 21 22  1  0
 22 23  2  0
 22 24  1  0
 24 25  1  0
 25 26  2  0
 26 27  1  0
 27 28  2  0
 28 29  1  0
 29 30  2  0
 29 31  2  0
 29 32  1  0
 32 33  1  0
 33 34  1  0
 34 35  1  0
 35 36  1  0
 36 37  1  0
 28 38  1  0
 38 39  2  0
  9 40  1  0
 40  2  1  0
 40  6  2  0
 19 14  1  0
 39 25  1  0
 37 32  1  0
  1 41  1  0
  1 42  1  0
  1 43  1  0
  3 44  1  0
  4 45  1  0
  5 46  1  0
  7 47  1  0
  8 48  1  0
 10 49  1  0
 10 50  1  0
 11 51  1  0
 11 52  1  0
 15 53  1  0
 16 54  1  0
 17 55  1  0
 18 56  1  0
 21 57  1  0
 21 58  1  0
 24 59  1  0
 26 60  1  0
 27 61  1  0
 33 62  1  0
 33 63  1  0
 34 64  1  0
 34 65  1  0
 36 66  1  0
 36 67  1  0
 37 68  1  0
 37 69  1  0
 38 70  1  0
 39 71  1  0
M  END
>  <UniqueID>  (76) 
75

>  <SMILES>  (76) 
Cc1cccc2[nH]cc(CCC(=O)c3ccccc3OCC(=O)Nc3ccc(S(=O)(=O)N4CCOCC4)cc3)c12

>  <Energy>  (76) 
120.8051046389023

>  <Genealogy>  (76) 
Cc1cccc2[nH]cc(CCC(=O)c3ccccc3OCC(=O)Nc3ccc(S(=O)(=O)N4CCOCC4)cc3)c12 (3D coordinates assigned)
Cc1cccc2[nH]cc(CCC(=O)c3ccccc3OCC(=O)Nc3ccc(S(=O)(=O)N4CCOCC4)cc3)c12 (nonaromatic ring conformer: 120.8051046389023 kcal/mol)

>  <smiles>  (76) 
Cc1cccc2[nH]cc(CCC(=O)c3ccccc3OCC(=O)Nc3ccc(S(=O)(=O)N4CCOCC4)cc3)c12

>  <score_type>  (76) 
oracle

>  <origin>  (76) 
adg

>  <m_score__min__energy>  (76) 
-10.9

>  <m_primary>  (76) 
energy

$$$$
76:0
     RDKit          3D

 50 53  0  0  0  0  0  0  0  0999 V2000
   55.1590   25.9680   45.9950 O   0  0  0  0  0  0  0  0  0  0  0  0
   56.3540   25.6190   45.7870 C   0  0  0  0  0  0  0  0  0  0  0  0
   56.6120   24.3890   44.9980 C   0  0  0  0  0  0  0  0  0  0  0  0
   55.7890   24.0740   43.9010 C   0  0  0  0  0  0  0  0  0  0  0  0
   56.0340   22.9280   43.1390 C   0  0  0  0  0  0  0  0  0  0  0  0
   57.1060   22.0900   43.4570 C   0  0  0  0  0  0  0  0  0  0  0  0
   57.9390   22.4010   44.5340 C   0  0  0  0  0  0  0  0  0  0  0  0
   57.6990   23.5470   45.3000 C   0  0  0  0  0  0  0  0  0  0  0  0
   57.4490   26.4540   46.3390 C   0  0  0  0  0  0  0  0  0  0  0  0
   58.3990   25.9120   47.2230 C   0  0  0  0  0  0  0  0  0  0  0  0
   59.4120   26.7150   47.7530 C   0  0  0  0  0  0  0  0  0  0  0  0
   59.5000   28.0720   47.4090 C   0  0  0  0  0  0  0  0  0  0  0  0
   60.5420   28.8810   47.9810 N   0  0  0  0  0  0  0  0  0  0  0  0
   61.1270   30.0110   47.3130 C   0  0  0  0  0  0  0  0  0  0  0  0
   61.0790   30.0870   46.0550 O   0  0  0  0  0  0  0  0  0  0  0  0
   61.8300   31.0230   48.0590 N   0  0  0  0  0  0  0  0  0  0  0  0
   61.4580   31.3480   49.4450 C   0  0  0  0  0  0  0  0  0  0  0  0
   62.7190   31.4720   50.3100 C   0  0  0  0  0  0  0  0  0  0  0  0
   63.7860   32.2220   49.6220 N   0  0  0  0  0  0  0  0  0  0  0  0
   65.1160   32.2980   50.1900 C   0  0  0  0  0  0  0  0  0  0  0  0
   65.6830   31.2180   50.8950 C   0  0  0  0  0  0  0  0  0  0  0  0
   66.9400   31.3310   51.3990 N   0  0  0  0  0  0  0  0  0  0  0  0
   67.6680   32.4660   51.2390 C   0  0  0  0  0  0  0  0  0  0  0  0
   67.1160   33.5380   50.5420 C   0  0  0  0  0  0  0  0  0  0  0  0
   65.8600   33.4300   50.0370 N   0  0  0  0  0  0  0  0  0  0  0  0
   63.4900   32.8520   48.3250 C   0  0  0  0  0  0  0  0  0  0  0  0
   62.8590   31.8250   47.3790 C   0  0  0  0  0  0  0  0  0  0  0  0
   58.5290   28.6240   46.5550 C   0  0  0  0  0  0  0  0  0  0  0  0
   57.5140   27.8220   46.0270 C   0  0  0  0  0  0  0  0  0  0  0  0
   54.9478   24.7335   43.6415 H   0  0  0  0  0  0  0  0  0  0  0  0
   55.3816   22.6854   42.2873 H   0  0  0  0  0  0  0  0  0  0  0  0
   57.2937   21.1858   42.8594 H   0  0  0  0  0  0  0  0  0  0  0  0
   58.7857   21.7435   44.7806 H   0  0  0  0  0  0  0  0  0  0  0  0
   58.3630   23.7912   46.1423 H   0  0  0  0  0  0  0  0  0  0  0  0
   58.3441   24.8486   47.4990 H   0  0  0  0  0  0  0  0  0  0  0  0
   60.1468   26.2793   48.4460 H   0  0  0  0  0  0  0  0  0  0  0  0
   60.9860   28.5570   48.8700 H   0  0  0  0  0  0  0  0  0  0  0  0
   60.9096   32.3014   49.4612 H   0  0  0  0  0  0  0  0  0  0  0  0
   60.8217   30.5455   49.8463 H   0  0  0  0  0  0  0  0  0  0  0  0
   62.4607   31.9955   51.2423 H   0  0  0  0  0  0  0  0  0  0  0  0
   63.0928   30.4580   50.5151 H   0  0  0  0  0  0  0  0  0  0  0  0
   65.1116   30.2888   51.0367 H   0  0  0  0  0  0  0  0  0  0  0  0
   68.6835   32.5380   51.6557 H   0  0  0  0  0  0  0  0  0  0  0  0
   67.6925   34.4643   50.4017 H   0  0  0  0  0  0  0  0  0  0  0  0
   62.7901   33.6870   48.4763 H   0  0  0  0  0  0  0  0  0  0  0  0
   64.4248   33.2263   47.8822 H   0  0  0  0  0  0  0  0  0  0  0  0
   62.3971   32.3553   46.5331 H   0  0  0  0  0  0  0  0  0  0  0  0
   63.6509   31.1453   47.0313 H   0  0  0  0  0  0  0  0  0  0  0  0
   58.5687   29.6936   46.3011 H   0  0  0  0  0  0  0  0  0  0  0  0
   56.7592   28.2658   45.3612 H   0  0  0  0  0  0  0  0  0  0  0  0
  1  2  2  0
  2  3  1  0
  3  4  2  0
  4  5  1  0
  5  6  2  0
  6  7  1  0
  7  8  2  0
  2  9  1  0
  9 10  2  0
 10 11  1  0
 11 12  2  0
 12 13  1  0
 13 14  1  0
 14 15  2  0
 14 16  1  0
 16 17  1  0
 17 18  1  0
 18 19  1  0
 19 20  1  0
 20 21  2  0
 21 22  1  0
 22 23  2  0
 23 24  1  0
 24 25  2  0
 19 26  1  0
 26 27  1  0
 12 28  1  0
 28 29  2  0
  8  3  1  0
 29  9  1  0
 27 16  1  0
 25 20  1  0
  4 30  1  0
  5 31  1  0
  6 32  1  0
  7 33  1  0
  8 34  1  0
 10 35  1  0
 11 36  1  0
 13 37  1  0
 17 38  1  0
 17 39  1  0
 18 40  1  0
 18 41  1  0
 21 42  1  0
 23 43  1  0
 24 44  1  0
 26 45  1  0
 26 46  1  0
 27 47  1  0
 27 48  1  0
 28 49  1  0
 29 50  1  0
M  END
>  <UniqueID>  (77) 
76

>  <SMILES>  (77) 
O=C(c1ccccc1)c1ccc(NC(=O)N2CCN(c3cnccn3)CC2)cc1

>  <Energy>  (77) 
69.98016093905106

>  <Genealogy>  (77) 
O=C(c1ccccc1)c1ccc(NC(=O)N2CCN(c3cnccn3)CC2)cc1 (3D coordinates assigned)
O=C(c1ccccc1)c1ccc(NC(=O)N2CCN(c3cnccn3)CC2)cc1 (nonaromatic ring conformer: 69.98016093905106 kcal/mol)

>  <smiles>  (77) 
O=C(c1ccccc1)c1ccc(NC(=O)N2CCN(c3cnccn3)CC2)cc1

>  <score_type>  (77) 
oracle

>  <origin>  (77) 
adg

>  <m_score__min__energy>  (77) 
-7.79

>  <m_primary>  (77) 
energy

$$$$
77:0
     RDKit          3D

 53 56  0  0  0  0  0  0  0  0999 V2000
   57.5709   27.1223   47.2798 H   0  0  0  0  0  0  0  0  0  0  0  0
   58.1640   27.7270   46.5780 C   0  0  0  0  0  0  0  0  0  0  0  0
   57.5250   28.4350   45.5560 C   0  0  0  0  0  0  0  0  0  0  0  0
   56.4309   28.3817   45.4550 H   0  0  0  0  0  0  0  0  0  0  0  0
   58.2750   29.2170   44.6540 C   0  0  0  0  0  0  0  0  0  0  0  0
   57.6510   29.9660   43.5930 N   0  0  0  0  0  0  0  0  0  0  0  0
   57.7860   29.6420   42.6100 H   0  0  0  0  0  0  0  0  0  0  0  0
   56.8940   31.2040   43.7890 C   0  0  0  0  0  0  0  0  0  0  0  0
   55.9342   30.9680   44.2719 H   0  0  0  0  0  0  0  0  0  0  0  0
   56.7223   31.6731   42.8090 H   0  0  0  0  0  0  0  0  0  0  0  0
   57.6620   32.1640   44.6580 C   0  0  0  0  0  0  0  0  0  0  0  0
   58.1100   33.3990   44.1210 C   0  0  0  0  0  0  0  0  0  0  0  0
   57.8861   33.6507   43.0739 H   0  0  0  0  0  0  0  0  0  0  0  0
   58.8380   34.3050   44.9150 C   0  0  0  0  0  0  0  0  0  0  0  0
   59.1943   35.2613   44.5045 H   0  0  0  0  0  0  0  0  0  0  0  0
   59.0920   33.9510   46.2360 C   0  0  0  0  0  0  0  0  0  0  0  0
   59.7860   34.6510   47.1510 N   0  0  0  0  0  0  0  0  0  0  0  0
   59.7420   33.8470   48.2430 C   0  0  0  0  0  0  0  0  0  0  0  0
   60.3160   34.1310   49.3760 N   0  0  0  0  0  0  0  0  0  0  0  0
   61.6540   33.7550   49.8570 C   0  0  1  0  0  0  0  0  0  0  0  0
   61.7040   34.0481   50.9161 H   0  0  0  0  0  0  0  0  0  0  0  0
   61.8760   32.2260   49.8880 C   0  0  0  0  0  0  0  0  0  0  0  0
   60.8906   31.7377   49.9116 H   0  0  0  0  0  0  0  0  0  0  0  0
   62.4846   32.0199   50.7808 H   0  0  0  0  0  0  0  0  0  0  0  0
   62.6600   31.6630   48.6910 C   0  0  0  0  0  0  0  0  0  0  0  0
   61.9947   31.6445   47.8152 H   0  0  0  0  0  0  0  0  0  0  0  0
   63.0041   30.6564   48.9709 H   0  0  0  0  0  0  0  0  0  0  0  0
   63.8580   32.4570   48.3530 N   0  0  2  0  0  0  0  0  0  0  0  0
   64.2580   32.0430   47.4760 H   0  0  0  0  0  0  0  0  0  0  0  0
   64.9120   32.3530   49.3810 C   0  0  0  0  0  0  0  0  0  0  0  0
   64.4550   32.3981   50.3806 H   0  0  0  0  0  0  0  0  0  0  0  0
   65.4451   31.3979   49.2643 H   0  0  0  0  0  0  0  0  0  0  0  0
   65.6214   33.1855   49.2643 H   0  0  0  0  0  0  0  0  0  0  0  0
   63.5100   33.8590   48.0420 C   0  0  0  0  0  0  0  0  0  0  0  0
   62.8562   33.8688   47.1574 H   0  0  0  0  0  0  0  0  0  0  0  0
   64.4526   34.3979   47.8658 H   0  0  0  0  0  0  0  0  0  0  0  0
   62.7840   34.5740   49.1940 C   0  0  0  0  0  0  0  0  0  0  0  0
   62.3465   35.5025   48.7985 H   0  0  0  0  0  0  0  0  0  0  0  0
   63.5391   34.7474   49.9749 H   0  0  0  0  0  0  0  0  0  0  0  0
   59.0460   32.6980   48.0450 N   0  0  0  0  0  0  0  0  0  0  0  0
   58.8680   31.5800   48.9690 C   0  0  0  0  0  0  0  0  0  0  0  0
   58.9264   31.9471   50.0043 H   0  0  0  0  0  0  0  0  0  0  0  0
   57.8848   31.1169   48.7991 H   0  0  0  0  0  0  0  0  0  0  0  0
   59.6588   30.8344   48.7991 H   0  0  0  0  0  0  0  0  0  0  0  0
   58.6520   32.7740   46.7630 C   0  0  0  0  0  0  0  0  0  0  0  0
   57.9320   31.8470   46.0080 C   0  0  0  0  0  0  0  0  0  0  0  0
   57.5861   30.9007   46.4495 H   0  0  0  0  0  0  0  0  0  0  0  0
   59.6720   29.2600   44.7930 C   0  0  0  0  0  0  0  0  0  0  0  0
   60.2712   29.8582   44.0908 H   0  0  0  0  0  0  0  0  0  0  0  0
   60.3080   28.5500   45.8150 C   0  0  0  0  0  0  0  0  0  0  0  0
   61.4026   28.5928   45.9149 H   0  0  0  0  0  0  0  0  0  0  0  0
   59.5540   27.7850   46.7110 C   0  0  0  0  0  0  0  0  0  0  0  0
   60.3530   26.8950   47.9940 Cl  0  0  0  0  0  0  0  0  0  0  0  0
  1  2  1  0
  2  3  2  0
  3  4  1  0
  3  5  1  0
  5  6  1  0
  6  7  1  0
  6  8  1  0
  8  9  1  0
  8 10  1  0
  8 11  1  0
 11 12  2  0
 12 13  1  0
 12 14  1  0
 14 15  1  0
 14 16  2  0
 16 17  1  0
 17 18  1  0
 18 19  2  0
 19 20  1  0
 20 21  1  1
 20 22  1  0
 22 23  1  0
 22 24  1  0
 22 25  1  0
 25 26  1  0
 25 27  1  0
 25 28  1  0
 28 29  1  6
 28 30  1  0
 30 31  1  0
 30 32  1  0
 30 33  1  0
 28 34  1  0
 34 35  1  0
 34 36  1  0
 34 37  1  0
 37 38  1  0
 37 39  1  0
 18 40  1  0
 40 41  1  0
 41 42  1  0
 41 43  1  0
 41 44  1  0
 40 45  1  0
 45 46  2  0
 46 47  1  0
  5 48  2  0
 48 49  1  0
 48 50  1  0
 50 51  1  0
 50 52  2  0
 52 53  1  0
 52  2  1  0
 46 11  1  0
 45 16  1  0
 37 20  1  0
M  CHG  2  17  -1  28   1
M  END
>  <UniqueID>  (78) 
77

>  <SMILES>  (78) 
Cn1/c(=N/C2CC[NH+](C)CC2)[n-]c2ccc(CNc3ccc(Cl)cc3)cc21

>  <Energy>  (78) 
101.59325124508332

>  <Genealogy>  (78) 
Cn1c(=NC2CC[NH+](C)CC2)[n-]c2ccc(CNc3ccc(Cl)cc3)cc21 (protonated)
Cn1/c(=N/C2CC[NH+](C)CC2)[n-]c2ccc(CNc3ccc(Cl)cc3)cc21 (cis-trans isomerization)
Cn1/c(=N/C2CC[NH+](C)CC2)[n-]c2ccc(CNc3ccc(Cl)cc3)cc21 (3D coordinates assigned)
Cn1/c(=N/C2CC[NH+](C)CC2)[n-]c2ccc(CNc3ccc(Cl)cc3)cc21 (nonaromatic ring conformer: 101.59325124508332 kcal/mol)

>  <smiles>  (78) 
CN1CCC(N=c2[nH]c3ccc(CNc4ccc(Cl)cc4)cc3n2C)CC1

>  <score_type>  (78) 
oracle

>  <origin>  (78) 
adg

>  <m_score__min__energy>  (78) 
-8.3300000000000001

>  <m_primary>  (78) 
energy

$$$$
78:0
     RDKit          3D

 34 37  0  0  0  0  0  0  0  0999 V2000
   55.1450   27.4830   45.4470 H   0  0  0  0  0  0  0  0  0  0  0  0
   54.9310   26.6670   46.0080 O   0  0  0  0  0  0  0  0  0  0  0  0
   55.9100   25.7170   46.2770 C   0  0  0  0  0  0  0  0  0  0  0  0
   55.8520   24.8490   47.3010 N   0  0  0  0  0  0  0  0  0  0  0  0
   57.0020   24.1560   47.1660 C   0  0  0  0  0  0  0  0  0  0  0  0
   57.3310   23.2290   47.9510 O   0  0  0  0  0  0  0  0  0  0  0  0
   57.7740   24.5380   46.1270 N   0  0  0  0  0  0  0  0  0  0  0  0
   57.0640   25.5280   45.5550 C   0  0  0  0  0  0  0  0  0  0  0  0
   57.4970   26.3390   44.4010 C   0  0  0  0  0  0  0  0  0  0  0  0
   57.3840   25.8980   43.3996 H   0  0  0  0  0  0  0  0  0  0  0  0
   58.0180   27.5730   44.4790 C   0  0  0  0  0  0  0  0  0  0  0  0
   59.3040   27.9020   44.9440 C   0  0  0  0  0  0  0  0  0  0  0  0
   60.0815   27.1700   45.2078 H   0  0  0  0  0  0  0  0  0  0  0  0
   59.4520   29.2540   45.0220 N   0  0  0  0  0  0  0  0  0  0  0  0
   58.3260   29.7430   44.5410 N   0  0  0  0  0  0  0  0  0  0  0  0
   57.6680   30.8950   44.7110 C   0  0  0  0  0  0  0  0  0  0  0  0
   58.2420   32.1740   45.1930 C   0  0  0  0  0  0  0  0  0  0  0  0
   57.9320   33.3810   44.5440 C   0  0  0  0  0  0  0  0  0  0  0  0
   57.2677   33.3750   43.6672 H   0  0  0  0  0  0  0  0  0  0  0  0
   58.4620   34.5890   45.0050 C   0  0  0  0  0  0  0  0  0  0  0  0
   58.2111   35.5290   44.4917 H   0  0  0  0  0  0  0  0  0  0  0  0
   59.3090   34.6070   46.1150 C   0  0  0  0  0  0  0  0  0  0  0  0
   59.7173   35.5615   46.4787 H   0  0  0  0  0  0  0  0  0  0  0  0
   59.6400   33.4100   46.7670 C   0  0  0  0  0  0  0  0  0  0  0  0
   60.5190   33.4320   47.9830 C   0  0  0  0  0  0  0  0  0  0  0  0
   59.8936   33.4163   48.8878 H   0  0  0  0  0  0  0  0  0  0  0  0
   61.1763   32.5500   47.9763 H   0  0  0  0  0  0  0  0  0  0  0  0
   61.1314   34.3458   47.9763 H   0  0  0  0  0  0  0  0  0  0  0  0
   59.0910   32.2000   46.3140 C   0  0  0  0  0  0  0  0  0  0  0  0
   59.3270   31.2636   46.8407 H   0  0  0  0  0  0  0  0  0  0  0  0
   56.3250   30.5840   44.4600 C   0  0  0  0  0  0  0  0  0  0  0  0
   55.5013   31.3130   44.4638 H   0  0  0  0  0  0  0  0  0  0  0  0
   56.1820   29.2490   44.2100 N   0  0  0  0  0  0  0  0  0  0  0  0
   57.4560   28.8120   44.2540 C   0  0  0  0  0  0  0  0  0  0  0  0
  1  2  1  0
  2  3  1  0
  3  4  1  0
  4  5  1  0
  5  6  2  0
  5  7  1  0
  7  8  1  0
  8  9  1  0
  9 10  1  0
  9 11  2  0
 11 12  1  0
 12 13  1  0
 12 14  2  0
 14 15  1  0
 15 16  1  0
 16 17  1  0
 17 18  2  0
 18 19  1  0
 18 20  1  0
 20 21  1  0
 20 22  2  0
 22 23  1  0
 22 24  1  0
 24 25  1  0
 25 26  1  0
 25 27  1  0
 25 28  1  0
 24 29  2  0
 29 30  1  0
 16 31  2  0
 31 32  1  0
 31 33  1  0
 33 34  2  0
  8  3  2  0
 34 11  1  0
 34 15  1  0
 29 17  1  0
M  CHG  2   4  -1   7  -1
M  END
>  <UniqueID>  (79) 
78

>  <SMILES>  (79) 
Cc1cccc(-c2cnc3/c(=C\c4[n-]c(=O)[n-]c4O)cnn23)c1

>  <Energy>  (79) 
161.87316551313293

>  <Genealogy>  (79) 
Cc1cccc(-c2cnc3c(=Cc4[n-]c(=O)[n-]c4O)cnn23)c1 (protonated)
Cc1cccc(-c2cnc3/c(=C\c4[n-]c(=O)[n-]c4O)cnn23)c1 (cis-trans isomerization)
Cc1cccc(-c2cnc3/c(=C\c4[n-]c(=O)[n-]c4O)cnn23)c1 (3D coordinates assigned)
Cc1cccc(-c2cnc3/c(=C\c4[n-]c(=O)[n-]c4O)cnn23)c1 (optimized conformer: 161.87316551313293 kcal/mol)

>  <smiles>  (79) 
Cc1cccc(-c2cnc3c(=Cc4[nH]c(=O)[nH]c4O)cnn23)c1

>  <score_type>  (79) 
oracle

>  <origin>  (79) 
adg

>  <m_score__min__energy>  (79) 
-12.880000000000001

>  <m_primary>  (79) 
energy

$$$$
79:0
     RDKit          3D

 39 41  0  0  0  0  0  0  0  0999 V2000
   61.3650   31.0550   51.0930 O   0  0  0  0  0  0  0  0  0  0  0  0
   60.1090   30.9960   51.0120 C   0  0  0  0  0  0  0  0  0  0  0  0
   59.2900   30.5690   52.2050 C   0  0  0  0  0  0  0  0  0  0  0  0
   58.4510   29.3120   51.9410 C   0  0  0  0  0  0  0  0  0  0  0  0
   57.0600   29.5000   52.4580 C   0  0  0  0  0  0  0  0  0  0  0  0
   56.1410   30.2900   51.8720 N   0  0  0  0  0  0  0  0  0  0  0  0
   55.0920   30.1460   52.7110 C   0  0  0  0  0  0  0  0  0  0  0  0
   53.7930   30.8260   52.5280 C   0  0  0  0  0  0  0  0  0  0  0  0
   53.4490   31.3870   51.2850 C   0  0  0  0  0  0  0  0  0  0  0  0
   52.2170   32.0250   51.1150 C   0  0  0  0  0  0  0  0  0  0  0  0
   51.3180   32.1120   52.1810 C   0  0  0  0  0  0  0  0  0  0  0  0
   50.0960   32.7500   52.0090 O   0  0  0  0  0  0  0  0  0  0  0  0
   51.6500   31.5570   53.4200 C   0  0  0  0  0  0  0  0  0  0  0  0
   52.8800   30.9170   53.5950 C   0  0  0  0  0  0  0  0  0  0  0  0
   55.3710   29.3210   53.7410 N   0  0  0  0  0  0  0  0  0  0  0  0
   56.5970   28.9450   53.5500 O   0  0  0  0  0  0  0  0  0  0  0  0
   59.4880   31.3230   49.7610 N   0  0  0  0  0  0  0  0  0  0  0  0
   58.4730   32.3540   49.5660 C   0  0  0  0  0  0  0  0  0  0  0  0
   58.7390   33.1440   48.3130 C   0  0  0  0  0  0  0  0  0  0  0  0
   59.9090   33.9110   48.1880 C   0  0  0  0  0  0  0  0  0  0  0  0
   60.1490   34.6460   47.0230 C   0  0  0  0  0  0  0  0  0  0  0  0
   59.2290   34.6150   45.9730 C   0  0  0  0  0  0  0  0  0  0  0  0
   59.4650   35.3260   44.8430 F   0  0  0  0  0  0  0  0  0  0  0  0
   58.0690   33.8430   46.0840 C   0  0  0  0  0  0  0  0  0  0  0  0
   57.8240   33.1070   47.2470 C   0  0  0  0  0  0  0  0  0  0  0  0
   59.9726   30.3645   53.0430 H   0  0  0  0  0  0  0  0  0  0  0  0
   58.5913   31.3875   52.4328 H   0  0  0  0  0  0  0  0  0  0  0  0
   58.4133   29.1213   50.8583 H   0  0  0  0  0  0  0  0  0  0  0  0
   58.9130   28.4577   52.4575 H   0  0  0  0  0  0  0  0  0  0  0  0
   54.1531   31.3233   50.4423 H   0  0  0  0  0  0  0  0  0  0  0  0
   51.9545   32.4598   50.1393 H   0  0  0  0  0  0  0  0  0  0  0  0
   50.9418   31.6241   54.2590 H   0  0  0  0  0  0  0  0  0  0  0  0
   53.1359   30.4819   54.5723 H   0  0  0  0  0  0  0  0  0  0  0  0
   57.4855   31.8759   49.4868 H   0  0  0  0  0  0  0  0  0  0  0  0
   58.5016   33.0403   50.4252 H   0  0  0  0  0  0  0  0  0  0  0  0
   60.6395   33.9335   49.0101 H   0  0  0  0  0  0  0  0  0  0  0  0
   61.0642   35.2497   46.9335 H   0  0  0  0  0  0  0  0  0  0  0  0
   57.3473   33.8145   45.2543 H   0  0  0  0  0  0  0  0  0  0  0  0
   56.9122   32.4970   47.3280 H   0  0  0  0  0  0  0  0  0  0  0  0
  1  2  2  0
  2  3  1  0
  3  4  1  0
  4  5  1  0
  5  6  2  0
  6  7  1  0
  7  8  1  0
  8  9  2  0
  9 10  1  0
 10 11  2  0
 11 12  1  0
 11 13  1  0
 13 14  2  0
  7 15  2  0
 15 16  1  0
  2 17  1  0
 17 18  1  0
 18 19  1  0
 19 20  2  0
 20 21  1  0
 21 22  2  0
 22 23  1  0
 22 24  1  0
 24 25  2  0
 16  5  1  0
 25 19  1  0
 14  8  1  0
  3 26  1  0
  3 27  1  0
  4 28  1  0
  4 29  1  0
  9 30  1  0
 10 31  1  0
 13 32  1  0
 14 33  1  0
 18 34  1  0
 18 35  1  0
 20 36  1  0
 21 37  1  0
 24 38  1  0
 25 39  1  0
M  CHG  2  12  -1  17  -1
M  END
>  <UniqueID>  (80) 
79

>  <SMILES>  (80) 
O=C(CCc1nc(-c2ccc([O-])cc2)no1)[N-]Cc1ccc(F)cc1

>  <Energy>  (80) 
69.8269459189955

>  <Genealogy>  (80) 
O=C(CCc1nc(-c2ccc([O-])cc2)no1)[N-]Cc1ccc(F)cc1 (protonated)
O=C(CCc1nc(-c2ccc([O-])cc2)no1)[N-]Cc1ccc(F)cc1 (3D coordinates assigned)
O=C(CCc1nc(-c2ccc([O-])cc2)no1)[N-]Cc1ccc(F)cc1 (optimized conformer: 69.8269459189955 kcal/mol)

>  <smiles>  (80) 
O=C(CCc1nc(-c2ccc(O)cc2)no1)NCc1ccc(F)cc1

>  <score_type>  (80) 
oracle

>  <origin>  (80) 
adg

>  <m_score__min__energy>  (80) 
-11.869999999999999

>  <m_primary>  (80) 
energy

$$$$
80:0
     RDKit          3D

 60 64  0  0  0  0  0  0  0  0999 V2000
   55.1970   29.3390   44.5360 O   0  0  0  0  0  0  0  0  0  0  0  0
   56.3420   29.7260   44.8860 C   0  0  0  0  0  0  0  0  0  0  0  0
   56.9170   30.8690   44.2370 N   0  0  0  0  0  0  0  0  0  0  0  0
   57.3930   31.9260   44.8240 C   0  0  0  0  0  0  0  0  0  0  0  0
   57.6930   33.0500   44.1390 N   0  0  0  0  0  0  0  0  0  0  0  0
   58.2030   34.0140   44.9500 C   0  0  0  0  0  0  0  0  0  0  0  0
   58.3090   33.6540   46.2890 C   0  0  0  0  0  0  0  0  0  0  0  0
   58.8890   34.4950   47.3810 C   0  0  0  0  0  0  0  0  0  0  0  0
   60.3610   34.2250   47.5150 C   0  0  0  0  0  0  0  0  0  0  0  0
   61.1480   34.0000   46.3730 C   0  0  0  0  0  0  0  0  0  0  0  0
   62.5230   33.7770   46.4980 C   0  0  0  0  0  0  0  0  0  0  0  0
   63.1230   33.7900   47.7600 C   0  0  0  0  0  0  0  0  0  0  0  0
   62.3490   34.0300   48.8990 C   0  0  0  0  0  0  0  0  0  0  0  0
   60.9740   34.2510   48.7790 C   0  0  0  0  0  0  0  0  0  0  0  0
   57.7780   32.0670   46.4630 S   0  0  0  0  0  0  0  0  0  0  0  0
   57.0100   29.0360   45.9520 N   0  0  0  0  0  0  0  0  0  0  0  0
   57.4710   27.6750   45.9420 C   0  0  0  0  0  0  0  0  0  0  0  0
   56.5090   26.6600   46.0400 C   0  0  0  0  0  0  0  0  0  0  0  0
   56.8790   25.3170   45.9550 C   0  0  0  0  0  0  0  0  0  0  0  0
   58.2200   24.9720   45.7870 C   0  0  0  0  0  0  0  0  0  0  0  0
   59.1970   25.9670   45.7320 C   0  0  0  0  0  0  0  0  0  0  0  0
   58.8420   27.3240   45.8390 C   0  0  0  0  0  0  0  0  0  0  0  0
   59.9280   28.3280   45.8850 C   0  0  0  0  0  0  0  0  0  0  0  0
   60.8860   28.2190   45.0710 O   0  0  0  0  0  0  0  0  0  0  0  0
   59.9320   29.3870   46.8620 N   0  0  0  0  0  0  0  0  0  0  0  0
   60.6800   30.6260   46.6110 C   0  0  0  0  0  0  0  0  0  0  0  0
   61.6970   30.8500   47.7340 C   0  0  0  0  0  0  0  0  0  0  0  0
   61.0970   30.6350   49.0630 N   0  0  0  0  0  0  0  0  0  0  0  0
   61.9080   30.7670   50.2520 C   0  0  0  0  0  0  0  0  0  0  0  0
   61.4300   30.4720   51.3810 O   0  0  0  0  0  0  0  0  0  0  0  0
   63.3480   31.1990   50.1660 C   0  0  0  0  0  0  0  0  0  0  0  0
   64.2600   30.6780   51.2690 C   0  0  0  0  0  0  0  0  0  0  0  0
   63.7930   32.1220   51.2910 C   0  0  0  0  0  0  0  0  0  0  0  0
   59.6670   30.2990   49.1630 C   0  0  0  0  0  0  0  0  0  0  0  0
   59.3220   29.1680   48.1840 C   0  0  0  0  0  0  0  0  0  0  0  0
   58.5083   35.0025   44.5762 H   0  0  0  0  0  0  0  0  0  0  0  0
   58.7344   35.5577   47.1428 H   0  0  0  0  0  0  0  0  0  0  0  0
   58.3900   34.2473   48.3295 H   0  0  0  0  0  0  0  0  0  0  0  0
   60.6810   33.9992   45.3771 H   0  0  0  0  0  0  0  0  0  0  0  0
   63.1330   33.5911   45.6017 H   0  0  0  0  0  0  0  0  0  0  0  0
   64.2041   33.6114   47.8571 H   0  0  0  0  0  0  0  0  0  0  0  0
   62.8229   34.0450   49.8916 H   0  0  0  0  0  0  0  0  0  0  0  0
   60.3698   34.4459   49.6773 H   0  0  0  0  0  0  0  0  0  0  0  0
   55.4513   26.9249   46.1854 H   0  0  0  0  0  0  0  0  0  0  0  0
   56.1129   24.5304   46.0205 H   0  0  0  0  0  0  0  0  0  0  0  0
   58.5079   23.9141   45.6977 H   0  0  0  0  0  0  0  0  0  0  0  0
   60.2533   25.6879   45.6039 H   0  0  0  0  0  0  0  0  0  0  0  0
   61.2083   30.5460   45.6495 H   0  0  0  0  0  0  0  0  0  0  0  0
   59.9804   31.4742   46.5779 H   0  0  0  0  0  0  0  0  0  0  0  0
   62.5336   30.1480   47.6027 H   0  0  0  0  0  0  0  0  0  0  0  0
   62.0449   31.8921   47.6791 H   0  0  0  0  0  0  0  0  0  0  0  0
   63.3950   31.2152   49.0671 H   0  0  0  0  0  0  0  0  0  0  0  0
   63.8732   29.9637   52.0107 H   0  0  0  0  0  0  0  0  0  0  0  0
   65.2389   30.1769   51.2966 H   0  0  0  0  0  0  0  0  0  0  0  0
   63.0681   32.4537   52.0490 H   0  0  0  0  0  0  0  0  0  0  0  0
   64.2941   33.1000   51.3414 H   0  0  0  0  0  0  0  0  0  0  0  0
   59.4404   29.9739   50.1891 H   0  0  0  0  0  0  0  0  0  0  0  0
   59.0695   31.1878   48.9118 H   0  0  0  0  0  0  0  0  0  0  0  0
   59.6917   28.2165   48.5940 H   0  0  0  0  0  0  0  0  0  0  0  0
   58.2295   29.1450   48.0579 H   0  0  0  0  0  0  0  0  0  0  0  0
  1  2  2  0
  2  3  1  0
  3  4  2  3
  4  5  1  0
  5  6  1  0
  6  7  2  0
  7  8  1  0
  8  9  1  0
  9 10  2  0
 10 11  1  0
 11 12  2  0
 12 13  1  0
 13 14  2  0
  7 15  1  0
  2 16  1  0
 16 17  1  0
 17 18  2  0
 18 19  1  0
 19 20  2  0
 20 21  1  0
 21 22  2  0
 22 23  1  0
 23 24  2  0
 23 25  1  0
 25 26  1  0
 26 27  1  0
 27 28  1  0
 28 29  1  0
 29 30  2  0
 29 31  1  0
 31 32  1  0
 32 33  1  0
 28 34  1  0
 34 35  1  0
 15  4  1  0
 22 17  1  0
 35 25  1  0
 14  9  1  0
 33 31  1  0
  6 36  1  0
  8 37  1  0
  8 38  1  0
 10 39  1  0
 11 40  1  0
 12 41  1  0
 13 42  1  0
 14 43  1  0
 18 44  1  0
 19 45  1  0
 20 46  1  0
 21 47  1  0
 26 48  1  0
 26 49  1  0
 27 50  1  0
 27 51  1  0
 31 52  1  0
 32 53  1  0
 32 54  1  0
 33 55  1  0
 33 56  1  0
 34 57  1  0
 34 58  1  0
 35 59  1  0
 35 60  1  0
M  CHG  2   5  -1  16  -1
M  END
>  <UniqueID>  (81) 
80

>  <SMILES>  (81) 
O=C(N=c1[n-]cc(Cc2ccccc2)s1)[N-]c1ccccc1C(=O)N1CCN(C(=O)C2CC2)CC1

>  <Energy>  (81) 
373.5381995409847

>  <Genealogy>  (81) 
O=C(N=c1[n-]cc(Cc2ccccc2)s1)[N-]c1ccccc1C(=O)N1CCN(C(=O)C2CC2)CC1 (protonated)
O=C(N=c1[n-]cc(Cc2ccccc2)s1)[N-]c1ccccc1C(=O)N1CCN(C(=O)C2CC2)CC1 (3D coordinates assigned)
O=C(N=c1[n-]cc(Cc2ccccc2)s1)[N-]c1ccccc1C(=O)N1CCN(C(=O)C2CC2)CC1 (nonaromatic ring conformer: 373.5381995409847 kcal/mol)

>  <smiles>  (81) 
O=C(N=c1[nH]cc(Cc2ccccc2)s1)Nc1ccccc1C(=O)N1CCN(C(=O)C2CC2)CC1

>  <score_type>  (81) 
oracle

>  <origin>  (81) 
adg

>  <m_score__min__energy>  (81) 
-12.59

>  <m_primary>  (81) 
energy

$$$$
81:0
     RDKit          3D

 53 55  0  0  0  0  0  0  0  0999 V2000
   55.1700   29.6380   44.7990 N   0  0  0  0  0  0  0  0  0  0  0  0
   56.6620   30.1580   44.0990 S   0  0  0  0  0  0  0  0  0  0  0  0
   56.4840   30.3370   42.6160 O   0  0  0  0  0  0  0  0  0  0  0  0
   57.7110   29.1120   44.3480 O   0  0  0  0  0  0  0  0  0  0  0  0
   57.1850   31.6990   44.8380 C   0  0  0  0  0  0  0  0  0  0  0  0
   58.0050   32.5540   43.8720 C   0  0  0  0  0  0  0  0  0  0  0  0
   58.3650   33.8210   44.5040 N   0  0  0  0  0  0  0  0  0  0  0  0
   58.7930   33.9590   45.8640 C   0  0  0  0  0  0  0  0  0  0  0  0
   58.0450   34.5700   46.6740 O   0  0  0  0  0  0  0  0  0  0  0  0
   60.0740   33.4160   46.3480 C   0  0  0  0  0  0  0  0  0  0  0  0
   60.2010   32.0640   46.7010 C   0  0  0  0  0  0  0  0  0  0  0  0
   61.4060   31.5940   47.2300 C   0  0  0  0  0  0  0  0  0  0  0  0
   61.5130   30.2350   47.5610 O   0  0  0  0  0  0  0  0  0  0  0  0
   60.5200   29.2640   47.3670 C   0  0  0  0  0  0  0  0  0  0  0  0
   60.5070   28.4180   46.2420 C   0  0  0  0  0  0  0  0  0  0  0  0
   59.5290   27.4270   46.1170 C   0  0  0  0  0  0  0  0  0  0  0  0
   58.5660   27.2480   47.1190 C   0  0  0  0  0  0  0  0  0  0  0  0
   57.5830   26.2100   46.9790 N   0  0  0  0  0  0  0  0  0  0  0  0
   56.3920   26.3550   46.1880 C   0  0  0  0  0  0  0  0  0  0  0  0
   56.0590   27.4850   45.7440 O   0  0  0  0  0  0  0  0  0  0  0  0
   55.5010   25.2500   45.9890 N   0  0  0  0  0  0  0  0  0  0  0  0
   55.7970   24.0390   45.2820 C   0  0  0  0  0  0  0  0  0  0  0  0
   56.2990   24.1250   43.9770 C   0  0  0  0  0  0  0  0  0  0  0  0
   56.6130   22.9670   43.2640 C   0  0  0  0  0  0  0  0  0  0  0  0
   56.4470   21.7120   43.8550 C   0  0  0  0  0  0  0  0  0  0  0  0
   55.9960   21.6050   45.1840 C   0  0  0  0  0  0  0  0  0  0  0  0
   55.7940   20.2480   45.8130 C   0  0  0  0  0  0  0  0  0  0  0  0
   55.1720   20.3660   47.0450 F   0  0  0  0  0  0  0  0  0  0  0  0
   57.0090   19.6110   46.0010 F   0  0  0  0  0  0  0  0  0  0  0  0
   55.0040   19.4750   44.9830 F   0  0  0  0  0  0  0  0  0  0  0  0
   55.6550   22.7760   45.8880 C   0  0  0  0  0  0  0  0  0  0  0  0
   58.5630   28.1100   48.2280 C   0  0  0  0  0  0  0  0  0  0  0  0
   59.5390   29.1040   48.3520 C   0  0  0  0  0  0  0  0  0  0  0  0
   62.4830   32.4820   47.3770 C   0  0  0  0  0  0  0  0  0  0  0  0
   62.3140   33.8250   47.0360 C   0  0  0  0  0  0  0  0  0  0  0  0
   61.1240   34.2600   46.5450 N   0  0  0  0  0  0  0  0  0  0  0  0
   55.1500   28.5940   44.7460 H   0  0  0  0  0  0  0  0  0  0  0  0
   56.2932   32.2660   45.1433 H   0  0  0  0  0  0  0  0  0  0  0  0
   57.8227   31.4598   45.7018 H   0  0  0  0  0  0  0  0  0  0  0  0
   58.9215   32.0124   43.5950 H   0  0  0  0  0  0  0  0  0  0  0  0
   57.4044   32.7580   42.9733 H   0  0  0  0  0  0  0  0  0  0  0  0
   59.3542   31.3758   46.5617 H   0  0  0  0  0  0  0  0  0  0  0  0
   61.2694   28.5372   45.4581 H   0  0  0  0  0  0  0  0  0  0  0  0
   59.5153   26.7829   45.2254 H   0  0  0  0  0  0  0  0  0  0  0  0
   57.6460   25.3860   47.6180 H   0  0  0  0  0  0  0  0  0  0  0  0
   56.4465   25.1107   43.5116 H   0  0  0  0  0  0  0  0  0  0  0  0
   56.9921   23.0426   42.2342 H   0  0  0  0  0  0  0  0  0  0  0  0
   56.6701   20.8022   43.2783 H   0  0  0  0  0  0  0  0  0  0  0  0
   55.2753   22.7035   46.9178 H   0  0  0  0  0  0  0  0  0  0  0  0
   57.7894   28.0028   49.0026 H   0  0  0  0  0  0  0  0  0  0  0  0
   59.5355   29.7654   49.2309 H   0  0  0  0  0  0  0  0  0  0  0  0
   63.4508   32.1231   47.7572 H   0  0  0  0  0  0  0  0  0  0  0  0
   63.1461   34.5328   47.1651 H   0  0  0  0  0  0  0  0  0  0  0  0
  1  2  1  0
  2  3  2  0
  2  4  2  0
  2  5  1  0
  5  6  1  0
  6  7  1  0
  7  8  1  0
  8  9  2  0
  8 10  1  0
 10 11  2  0
 11 12  1  0
 12 13  1  0
 13 14  1  0
 14 15  2  0
 15 16  1  0
 16 17  2  0
 17 18  1  0
 18 19  1  0
 19 20  2  0
 19 21  1  0
 21 22  1  0
 22 23  2  0
 23 24  1  0
 24 25  2  0
 25 26  1  0
 26 27  1  0
 27 28  1  0
 27 29  1  0
 27 30  1  0
 26 31  2  0
 17 32  1  0
 32 33  2  0
 12 34  2  0
 34 35  1  0
 35 36  2  0
 36 10  1  0
 33 14  1  0
 31 22  1  0
  1 37  1  0
  5 38  1  0
  5 39  1  0
  6 40  1  0
  6 41  1  0
 11 42  1  0
 15 43  1  0
 16 44  1  0
 18 45  1  0
 23 46  1  0
 24 47  1  0
 25 48  1  0
 31 49  1  0
 32 50  1  0
 33 51  1  0
 34 52  1  0
 35 53  1  0
M  CHG  3   1  -1   7  -1  21  -1
M  END
>  <UniqueID>  (82) 
81

>  <SMILES>  (82) 
[NH-]S(=O)(=O)CC[N-]C(=O)c1cc(Oc2ccc(NC(=O)[N-]c3cccc(C(F)(F)F)c3)cc2)ccn1

>  <Energy>  (82) 
67.56927666568012

>  <Genealogy>  (82) 
[NH-]S(=O)(=O)CC[N-]C(=O)c1cc(Oc2ccc(NC(=O)[N-]c3cccc(C(F)(F)F)c3)cc2)ccn1 (protonated)
[NH-]S(=O)(=O)CC[N-]C(=O)c1cc(Oc2ccc(NC(=O)[N-]c3cccc(C(F)(F)F)c3)cc2)ccn1 (3D coordinates assigned)
[NH-]S(=O)(=O)CC[N-]C(=O)c1cc(Oc2ccc(NC(=O)[N-]c3cccc(C(F)(F)F)c3)cc2)ccn1 (optimized conformer: 67.56927666568012 kcal/mol)

>  <smiles>  (82) 
NS(=O)(=O)CCNC(=O)c1cc(Oc2ccc(NC(=O)Nc3cccc(C(F)(F)F)c3)cc2)ccn1

>  <score_type>  (82) 
oracle

>  <origin>  (82) 
adg

>  <m_score__min__energy>  (82) 
-14.73

>  <m_primary>  (82) 
energy

$$$$
82:0
     RDKit          3D

 51 54  0  0  0  0  0  0  0  0999 V2000
   59.3285   28.3529   46.5348 H   0  0  0  0  0  0  0  0  0  0  0  0
   58.3170   28.7850   46.5460 C   0  0  0  0  0  0  0  0  0  0  0  0
   57.2930   28.0060   46.7240 N   0  0  0  0  0  0  0  0  0  0  0  0
   57.2170   26.6350   46.3050 C   0  0  0  0  0  0  0  0  0  0  0  0
   58.3960   25.8780   46.2990 C   0  0  0  0  0  0  0  0  0  0  0  0
   59.3433   26.3419   46.6111 H   0  0  0  0  0  0  0  0  0  0  0  0
   58.3790   24.5390   45.9000 C   0  0  0  0  0  0  0  0  0  0  0  0
   59.3127   23.9576   45.8866 H   0  0  0  0  0  0  0  0  0  0  0  0
   57.1770   23.9380   45.5180 C   0  0  0  0  0  0  0  0  0  0  0  0
   57.1664   22.8874   45.1921 H   0  0  0  0  0  0  0  0  0  0  0  0
   55.9880   24.6720   45.5500 C   0  0  0  0  0  0  0  0  0  0  0  0
   55.0414   24.1946   45.2565 H   0  0  0  0  0  0  0  0  0  0  0  0
   55.9970   26.0120   45.9540 C   0  0  0  0  0  0  0  0  0  0  0  0
   54.7890   26.6960   46.0360 O   0  0  0  0  0  0  0  0  0  0  0  0
   58.1470   30.2510   46.3570 C   0  0  0  0  0  0  0  0  0  0  0  0
   57.4070   30.7530   45.2680 C   0  0  0  0  0  0  0  0  0  0  0  0
   56.8690   29.8870   44.2040 C   0  0  0  0  0  0  0  0  0  0  0  0
   55.7720   30.1800   43.6620 O   0  0  0  0  0  0  0  0  0  0  0  0
   57.6080   28.7580   43.7320 N   0  0  0  0  0  0  0  0  0  0  0  0
   57.4010   27.6700   42.7620 C   0  0  0  0  0  0  0  0  0  0  0  0
   56.6157   26.9662   43.0748 H   0  0  0  0  0  0  0  0  0  0  0  0
   57.0604   27.9546   41.7555 H   0  0  0  0  0  0  0  0  0  0  0  0
   58.7730   27.0910   42.8770 C   0  0  0  0  0  0  0  0  0  0  0  0
   58.8263   26.0751   43.2955 H   0  0  0  0  0  0  0  0  0  0  0  0
   59.4356   26.9045   42.0190 H   0  0  0  0  0  0  0  0  0  0  0  0
   58.9670   28.2020   43.8550 C   0  0  0  0  0  0  0  0  0  0  0  0
   59.1874   27.8403   44.8702 H   0  0  0  0  0  0  0  0  0  0  0  0
   59.8073   28.8882   43.6732 H   0  0  0  0  0  0  0  0  0  0  0  0
   57.1860   32.0860   45.1680 N   0  0  0  0  0  0  0  0  0  0  0  0
   57.6740   32.9660   46.0740 C   0  0  0  0  0  0  0  0  0  0  0  0
   57.4470   34.1960   45.9090 O   0  0  0  0  0  0  0  0  0  0  0  0
   58.4070   32.5250   47.1440 N   0  0  0  0  0  0  0  0  0  0  0  0
   58.9640   33.4940   48.1090 C   0  0  0  0  0  0  0  0  0  0  0  0
   58.1494   34.1123   48.5142 H   0  0  0  0  0  0  0  0  0  0  0  0
   59.4597   32.9450   48.9232 H   0  0  0  0  0  0  0  0  0  0  0  0
   59.9900   34.3980   47.4190 C   0  0  0  0  0  0  0  0  0  0  0  0
   59.8418   34.3471   46.3302 H   0  0  0  0  0  0  0  0  0  0  0  0
   59.8493   35.4291   47.7754 H   0  0  0  0  0  0  0  0  0  0  0  0
   61.3920   33.9590   47.7480 C   0  0  0  0  0  0  0  0  0  0  0  0
   61.8350   33.9450   49.0810 C   0  0  0  0  0  0  0  0  0  0  0  0
   61.1648   34.2814   49.8858 H   0  0  0  0  0  0  0  0  0  0  0  0
   63.1270   33.5040   49.3870 C   0  0  0  0  0  0  0  0  0  0  0  0
   63.4724   33.5000   50.4314 H   0  0  0  0  0  0  0  0  0  0  0  0
   63.9790   33.0690   48.3700 C   0  0  0  0  0  0  0  0  0  0  0  0
   64.9962   32.7279   48.6128 H   0  0  0  0  0  0  0  0  0  0  0  0
   63.5390   33.0670   47.0430 C   0  0  0  0  0  0  0  0  0  0  0  0
   64.2091   32.7194   46.2429 H   0  0  0  0  0  0  0  0  0  0  0  0
   62.2490   33.5060   46.7310 C   0  0  0  0  0  0  0  0  0  0  0  0
   61.9040   33.4968   45.6865 H   0  0  0  0  0  0  0  0  0  0  0  0
   58.6560   31.1820   47.2910 C   0  0  0  0  0  0  0  0  0  0  0  0
   59.3330   30.7740   48.2770 O   0  0  0  0  0  0  0  0  0  0  0  0
  1  2  1  0
  2  3  2  0
  3  4  1  0
  4  5  2  0
  5  6  1  0
  5  7  1  0
  7  8  1  0
  7  9  2  0
  9 10  1  0
  9 11  1  0
 11 12  1  0
 11 13  2  0
 13 14  1  0
  2 15  1  0
 15 16  2  0
 16 17  1  0
 17 18  2  0
 17 19  1  0
 19 20  1  0
 20 21  1  0
 20 22  1  0
 20 23  1  0
 23 24  1  0
 23 25  1  0
 23 26  1  0
 26 27  1  0
 26 28  1  0
 16 29  1  0
 29 30  1  0
 30 31  2  0
 30 32  1  0
 32 33  1  0
 33 34  1  0
 33 35  1  0
 33 36  1  0
 36 37  1  0
 36 38  1  0
 36 39  1  0
 39 40  2  0
 40 41  1  0
 40 42  1  0
 42 43  1  0
 42 44  2  0
 44 45  1  0
 44 46  1  0
 46 47  1  0
 46 48  2  0
 48 49  1  0
 32 50  1  0
 50 51  2  0
 13  4  1  0
 50 15  1  0
 26 19  1  0
 48 39  1  0
M  CHG  2  14  -1  29  -1
M  END
>  <UniqueID>  (83) 
82

>  <SMILES>  (83) 
O=C(c1[n-]c(=O)n(CCc2ccccc2)c(=O)c1/C=N/c1ccccc1[O-])N1CCC1

>  <Energy>  (83) 
112.71236491177902

>  <Genealogy>  (83) 
O=C(c1[n-]c(=O)n(CCc2ccccc2)c(=O)c1C=Nc1ccccc1[O-])N1CCC1 (protonated)
O=C(c1[n-]c(=O)n(CCc2ccccc2)c(=O)c1/C=N/c1ccccc1[O-])N1CCC1 (cis-trans isomerization)
O=C(c1[n-]c(=O)n(CCc2ccccc2)c(=O)c1/C=N/c1ccccc1[O-])N1CCC1 (3D coordinates assigned)
O=C(c1[n-]c(=O)n(CCc2ccccc2)c(=O)c1/C=N/c1ccccc1[O-])N1CCC1 (nonaromatic ring conformer: 112.71236491177902 kcal/mol)

>  <smiles>  (83) 
O=C(c1[nH]c(=O)n(CCc2ccccc2)c(=O)c1C=Nc1ccccc1O)N1CCC1

>  <score_type>  (83) 
oracle

>  <origin>  (83) 
adg

>  <m_score__min__energy>  (83) 
-14.109999999999999

>  <m_primary>  (83) 
energy

$$$$
83:0
     RDKit          3D

 63 67  0  0  0  0  0  0  0  0999 V2000
   57.7100   22.9630   45.1110 C   0  0  0  0  0  0  0  0  0  0  0  0
   57.5700   24.1580   46.0700 C   0  0  0  0  0  0  0  0  0  0  0  0
   57.0000   23.6460   47.4080 C   0  0  0  0  0  0  0  0  0  0  0  0
   58.8710   24.7050   46.3030 O   0  0  0  0  0  0  0  0  0  0  0  0
   59.0770   26.0110   46.7670 C   0  0  0  0  0  0  0  0  0  0  0  0
   60.3500   26.3820   47.2080 C   0  0  0  0  0  0  0  0  0  0  0  0
   60.5730   27.6640   47.7170 C   0  0  0  0  0  0  0  0  0  0  0  0
   59.5200   28.5810   47.7960 C   0  0  0  0  0  0  0  0  0  0  0  0
   59.7460   29.8940   48.3400 C   0  0  0  0  0  0  0  0  0  0  0  0
   59.9270   30.9510   48.7770 N   0  0  0  0  0  0  0  0  0  0  0  0
   58.2440   28.2190   47.3450 C   0  0  0  0  0  0  0  0  0  0  0  0
   58.0200   26.9460   46.7890 C   0  0  0  0  0  0  0  0  0  0  0  0
   56.6360   26.5430   46.3140 C   0  0  1  0  0  0  0  0  0  0  0  0
   55.9410   27.6340   45.6220 N   0  0  0  0  0  0  0  0  0  0  0  0
   56.5420   28.7430   44.9350 C   0  0  0  0  0  0  0  0  0  0  0  0
   56.9430   28.6180   43.7480 O   0  0  0  0  0  0  0  0  0  0  0  0
   56.6630   30.0160   45.5760 N   0  0  0  0  0  0  0  0  0  0  0  0
   57.3360   31.1670   45.0460 C   0  0  0  0  0  0  0  0  0  0  0  0
   57.4810   31.3720   43.6630 C   0  0  0  0  0  0  0  0  0  0  0  0
   58.1160   32.5200   43.1850 C   0  0  0  0  0  0  0  0  0  0  0  0
   58.6010   33.4790   44.0770 C   0  0  0  0  0  0  0  0  0  0  0  0
   58.4490   33.2950   45.4600 C   0  0  0  0  0  0  0  0  0  0  0  0
   58.9240   34.3530   46.4250 C   0  0  0  0  0  0  0  0  0  0  0  0
   60.3380   34.1130   46.9050 C   0  0  0  0  0  0  0  0  0  0  0  0
   61.3200   33.8420   46.0000 N   0  0  0  0  0  0  0  0  0  0  0  0
   62.5840   33.6340   46.3640 N   0  0  0  0  0  0  0  0  0  0  0  0
   62.9670   33.6780   47.6640 C   0  0  0  0  0  0  0  0  0  0  0  0
   64.1770   33.4980   47.9600 O   0  0  0  0  0  0  0  0  0  0  0  0
   62.0080   33.9250   48.6560 C   0  0  0  0  0  0  0  0  0  0  0  0
   60.6720   34.1360   48.2780 C   0  0  0  0  0  0  0  0  0  0  0  0
   59.6700   34.4250   49.3740 C   0  0  0  0  0  0  0  0  0  0  0  0
   59.8780   33.4700   50.5580 C   0  0  0  0  0  0  0  0  0  0  0  0
   61.3520   33.3340   51.0170 C   0  0  0  0  0  0  0  0  0  0  0  0
   62.3740   34.0500   50.1160 C   0  0  0  0  0  0  0  0  0  0  0  0
   57.7980   32.1460   45.9360 C   0  0  0  0  0  0  0  0  0  0  0  0
   56.6470   25.2530   45.4490 C   0  0  1  0  0  0  0  0  0  0  0  0
   57.0190   25.5400   44.1210 O   0  0  0  0  0  0  0  0  0  0  0  0
   57.8186   22.0362   45.6935 H   0  0  0  0  0  0  0  0  0  0  0  0
   56.8137   22.8947   44.4770 H   0  0  0  0  0  0  0  0  0  0  0  0
   58.5978   23.1037   44.4770 H   0  0  0  0  0  0  0  0  0  0  0  0
   57.5340   24.1256   48.2415 H   0  0  0  0  0  0  0  0  0  0  0  0
   55.9295   23.8917   47.4685 H   0  0  0  0  0  0  0  0  0  0  0  0
   57.1299   22.5554   47.4685 H   0  0  0  0  0  0  0  0  0  0  0  0
   61.1798   25.6619   47.1542 H   0  0  0  0  0  0  0  0  0  0  0  0
   61.5788   27.9526   48.0563 H   0  0  0  0  0  0  0  0  0  0  0  0
   57.4122   28.9342   47.4260 H   0  0  0  0  0  0  0  0  0  0  0  0
   56.0676   26.3149   47.2277 H   0  0  0  0  0  0  0  0  0  0  0  0
   57.0928   30.6253   42.9547 H   0  0  0  0  0  0  0  0  0  0  0  0
   58.2347   32.6697   42.1017 H   0  0  0  0  0  0  0  0  0  0  0  0
   59.1030   34.3801   43.6949 H   0  0  0  0  0  0  0  0  0  0  0  0
   58.8841   35.3308   45.9227 H   0  0  0  0  0  0  0  0  0  0  0  0
   58.2645   34.3203   47.3048 H   0  0  0  0  0  0  0  0  0  0  0  0
   59.7989   35.4618   49.7182 H   0  0  0  0  0  0  0  0  0  0  0  0
   58.6550   34.2814   48.9751 H   0  0  0  0  0  0  0  0  0  0  0  0
   59.2855   33.8405   51.4075 H   0  0  0  0  0  0  0  0  0  0  0  0
   59.5610   32.4731   50.2178 H   0  0  0  0  0  0  0  0  0  0  0  0
   61.4355   33.7533   52.0305 H   0  0  0  0  0  0  0  0  0  0  0  0
   61.5943   32.2620   50.9713 H   0  0  0  0  0  0  0  0  0  0  0  0
   62.4045   35.1157   50.3869 H   0  0  0  0  0  0  0  0  0  0  0  0
   63.3567   33.5793   50.2670 H   0  0  0  0  0  0  0  0  0  0  0  0
   57.6491   32.0128   47.0177 H   0  0  0  0  0  0  0  0  0  0  0  0
   55.6231   24.8513   45.4345 H   0  0  0  0  0  0  0  0  0  0  0  0
   56.7660   26.4810   43.9300 H   0  0  0  0  0  0  0  0  0  0  0  0
  1  2  1  0
  2  3  1  0
  2  4  1  0
  4  5  1  0
  5  6  2  0
  6  7  1  0
  7  8  2  0
  8  9  1  0
  9 10  3  0
  8 11  1  0
 11 12  2  0
 12 13  1  0
 13 14  1  0
 14 15  1  0
 15 16  2  0
 15 17  1  0
 17 18  1  0
 18 19  2  0
 19 20  1  0
 20 21  2  0
 21 22  1  0
 22 23  1  0
 23 24  1  0
 24 25  2  0
 25 26  1  0
 26 27  1  0
 27 28  2  0
 27 29  1  0
 29 30  2  0
 30 31  1  0
 31 32  1  0
 32 33  1  0
 33 34  1  0
 22 35  2  0
 13 36  1  0
 36 37  1  0
 36  2  1  0
 12  5  1  0
 35 18  1  0
 30 24  1  0
 34 29  1  0
  1 38  1  0
  1 39  1  0
  1 40  1  0
  3 41  1  0
  3 42  1  0
  3 43  1  0
  6 44  1  0
  7 45  1  0
 11 46  1  0
 13 47  1  1
 19 48  1  0
 20 49  1  0
 21 50  1  0
 23 51  1  0
 23 52  1  0
 31 53  1  0
 31 54  1  0
 32 55  1  0
 32 56  1  0
 33 57  1  0
 33 58  1  0
 34 59  1  0
 34 60  1  0
 35 61  1  0
 36 62  1  6
 37 63  1  0
M  CHG  3  14  -1  17  -1  26  -1
M  END
>  <UniqueID>  (84) 
83

>  <SMILES>  (84) 
CC1(C)Oc2ccc(C#N)cc2[C@@H]([N-]C(=O)[N-]c2cccc(Cc3n[n-]c(=O)c4c3CCCC4)c2)[C@H]1O

>  <Energy>  (84) 
81.6222890632322

>  <Genealogy>  (84) 
CC1(C)Oc2ccc(C#N)cc2C([N-]C(=O)[N-]c2cccc(Cc3n[n-]c(=O)c4c3CCCC4)c2)C1O (protonated)
CC1(C)Oc2ccc(C#N)cc2[C@@H]([N-]C(=O)[N-]c2cccc(Cc3n[n-]c(=O)c4c3CCCC4)c2)[C@H]1O (chirality)
CC1(C)Oc2ccc(C#N)cc2[C@@H]([N-]C(=O)[N-]c2cccc(Cc3n[n-]c(=O)c4c3CCCC4)c2)[C@H]1O (3D coordinates assigned)
CC1(C)Oc2ccc(C#N)cc2[C@@H]([N-]C(=O)[N-]c2cccc(Cc3n[n-]c(=O)c4c3CCCC4)c2)[C@H]1O (nonaromatic ring conformer: 81.6222890632322 kcal/mol)

>  <smiles>  (84) 
CC1(C)Oc2ccc(C#N)cc2C(NC(=O)Nc2cccc(Cc3n[nH]c(=O)c4c3CCCC4)c2)C1O

>  <score_type>  (84) 
oracle

>  <origin>  (84) 
adg

>  <m_score__min__energy>  (84) 
-14.51

>  <m_primary>  (84) 
energy

$$$$
84:0
     RDKit          3D

 45 48  0  0  0  0  0  0  0  0999 V2000
   55.2846   27.5143   53.3534 H   0  0  0  0  0  0  0  0  0  0  0  0
   54.4830   28.1790   52.9990 C   0  0  0  0  0  0  0  0  0  0  0  0
   53.4748   27.7774   52.8192 H   0  0  0  0  0  0  0  0  0  0  0  0
   54.7350   29.4800   52.7860 C   0  0  0  0  0  0  0  0  0  0  0  0
   53.8250   30.4520   52.3370 C   0  0  0  0  0  0  0  0  0  0  0  0
   52.4860   30.4130   52.1970 C   0  0  0  0  0  0  0  0  0  0  0  0
   51.9015   30.0545   53.0572 H   0  0  0  0  0  0  0  0  0  0  0  0
   51.7370   30.8080   50.9940 C   0  0  0  0  0  0  0  0  0  0  0  0
   51.7040   30.0780   49.8670 N   0  0  0  0  0  0  0  0  0  0  0  0
   51.0250   30.8660   49.0050 C   0  0  0  0  0  0  0  0  0  0  0  0
   50.7690   30.5150   47.8250 O   0  0  0  0  0  0  0  0  0  0  0  0
   50.6520   32.0640   49.5040 N   0  0  0  0  0  0  0  0  0  0  0  0
   51.1230   32.0180   50.7600 C   0  0  0  0  0  0  0  0  0  0  0  0
   51.0180   33.0700   51.6630 O   0  0  0  0  0  0  0  0  0  0  0  0
   54.5770   31.5730   52.0280 C   0  0  0  0  0  0  0  0  0  0  0  0
   54.2026   32.5174   51.6062 H   0  0  0  0  0  0  0  0  0  0  0  0
   55.8840   31.2790   52.3500 C   0  0  0  0  0  0  0  0  0  0  0  0
   57.0360   32.2230   52.1660 C   0  0  0  0  0  0  0  0  0  0  0  0
   57.4158   32.5342   53.1503 H   0  0  0  0  0  0  0  0  0  0  0  0
   57.8376   31.7187   51.6064 H   0  0  0  0  0  0  0  0  0  0  0  0
   56.6990   33.1080   51.6064 H   0  0  0  0  0  0  0  0  0  0  0  0
   55.9830   30.0190   52.8330 N   0  0  0  0  0  0  0  0  0  0  0  0
   57.2360   29.3330   53.1820 C   0  0  0  0  0  0  0  0  0  0  0  0
   57.7141   29.8543   54.0244 H   0  0  0  0  0  0  0  0  0  0  0  0
   57.0118   28.2939   53.4647 H   0  0  0  0  0  0  0  0  0  0  0  0
   58.1630   29.3330   52.0100 C   0  0  0  0  0  0  0  0  0  0  0  0
   59.4490   28.9380   52.0530 N   0  0  0  0  0  0  0  0  0  0  0  0
   59.9250   29.1010   50.8280 N   0  0  0  0  0  0  0  0  0  0  0  0
   58.9110   29.5900   50.0850 C   0  0  0  0  0  0  0  0  0  0  0  0
   59.0090   29.9200   48.6450 C   0  0  0  0  0  0  0  0  0  0  0  0
   59.2610   28.8970   47.7130 C   0  0  0  0  0  0  0  0  0  0  0  0
   59.3733   27.8594   48.0606 H   0  0  0  0  0  0  0  0  0  0  0  0
   59.3700   29.1850   46.3520 C   0  0  0  0  0  0  0  0  0  0  0  0
   59.5667   28.3760   45.6331 H   0  0  0  0  0  0  0  0  0  0  0  0
   59.2300   30.4960   45.9030 C   0  0  0  0  0  0  0  0  0  0  0  0
   59.3191   30.7208   44.8299 H   0  0  0  0  0  0  0  0  0  0  0  0
   58.9770   31.5250   46.8110 C   0  0  0  0  0  0  0  0  0  0  0  0
   58.8656   32.5575   46.4483 H   0  0  0  0  0  0  0  0  0  0  0  0
   58.8630   31.2520   48.1890 C   0  0  0  0  0  0  0  0  0  0  0  0
   58.6090   32.2730   49.1210 O   0  0  0  0  0  0  0  0  0  0  0  0
   59.6020   33.1140   49.6990 C   0  0  0  0  0  0  0  0  0  0  0  0
   59.5365   33.0585   50.7956 H   0  0  0  0  0  0  0  0  0  0  0  0
   60.5988   32.7812   49.3739 H   0  0  0  0  0  0  0  0  0  0  0  0
   59.4379   34.1520   49.3739 H   0  0  0  0  0  0  0  0  0  0  0  0
   57.8280   29.7350   50.8100 O   0  0  0  0  0  0  0  0  0  0  0  0
  1  2  1  0
  2  3  1  0
  2  4  2  0
  4  5  1  0
  5  6  2  0
  6  7  1  0
  6  8  1  0
  8  9  1  0
  9 10  1  0
 10 11  2  0
 10 12  1  0
 12 13  1  0
 13 14  1  0
  5 15  1  0
 15 16  1  0
 15 17  2  0
 17 18  1  0
 18 19  1  0
 18 20  1  0
 18 21  1  0
 17 22  1  0
 22 23  1  0
 23 24  1  0
 23 25  1  0
 23 26  1  0
 26 27  2  0
 27 28  1  0
 28 29  2  0
 29 30  1  0
 30 31  2  0
 31 32  1  0
 31 33  1  0
 33 34  1  0
 33 35  2  0
 35 36  1  0
 35 37  1  0
 37 38  1  0
 37 39  2  0
 39 40  1  0
 40 41  1  0
 41 42  1  0
 41 43  1  0
 41 44  1  0
 29 45  1  0
 22  4  1  0
 45 26  1  0
 13  8  2  0
 39 30  1  0
M  CHG  3   9  -1  12  -1  14  -1
M  END
>  <UniqueID>  (85) 
84

>  <SMILES>  (85) 
C=c1/c(=C\c2[n-]c(=O)[n-]c2[O-])cc(C)n1Cc1nnc(-c2ccccc2OC)o1

>  <Energy>  (85) 
151.3373866893504

>  <Genealogy>  (85) 
C=c1c(=Cc2[n-]c(=O)[n-]c2[O-])cc(C)n1Cc1nnc(-c2ccccc2OC)o1 (protonated)
C=c1/c(=C\c2[n-]c(=O)[n-]c2[O-])cc(C)n1Cc1nnc(-c2ccccc2OC)o1 (cis-trans isomerization)
C=c1/c(=C\c2[n-]c(=O)[n-]c2[O-])cc(C)n1Cc1nnc(-c2ccccc2OC)o1 (3D coordinates assigned)
C=c1/c(=C\c2[n-]c(=O)[n-]c2[O-])cc(C)n1Cc1nnc(-c2ccccc2OC)o1 (optimized conformer: 151.3373866893504 kcal/mol)

>  <smiles>  (85) 
C=c1c(=Cc2[nH]c(=O)[nH]c2O)cc(C)n1Cc1nnc(-c2ccccc2OC)o1

>  <score_type>  (85) 
oracle

>  <origin>  (85) 
adg

>  <m_score__min__energy>  (85) 
-16.760000000000002

>  <m_primary>  (85) 
energy

$$$$
85:0
     RDKit          3D

 65 68  0  0  0  0  0  0  0  0999 V2000
   59.6140   29.0520   49.0450 C   0  0  0  0  0  0  0  0  0  0  0  0
   59.6980   28.4250   47.7150 N   0  0  0  0  0  0  0  0  0  0  0  0
   60.2690   29.3690   46.7390 C   0  0  0  0  0  0  0  0  0  0  0  0
   60.3340   28.7430   45.3270 C   0  0  0  0  0  0  0  0  0  0  0  0
   60.0140   27.2980   45.3080 N   0  0  0  0  0  0  0  0  0  0  0  0
   58.5570   27.0250   45.2950 C   0  0  0  0  0  0  0  0  0  0  0  0
   57.7820   28.2210   44.7250 C   0  0  0  0  0  0  0  0  0  0  0  0
   56.3370   28.2390   45.2380 C   0  0  0  0  0  0  0  0  0  0  0  0
   55.6670   29.4750   44.8520 N   0  0  0  0  0  0  0  0  0  0  0  0
   56.2870   30.5190   44.0910 C   0  0  0  0  0  0  0  0  0  0  0  0
   56.2860   30.4740   42.8300 O   0  0  0  0  0  0  0  0  0  0  0  0
   56.9800   31.6560   44.7920 C   0  0  0  0  0  0  0  0  0  0  0  0
   57.7750   31.1620   46.0250 C   0  0  0  0  0  0  0  0  0  0  0  0
   58.8890   32.1460   46.4320 C   0  0  0  0  0  0  0  0  0  0  0  0
   58.5570   33.5090   45.9890 N   0  0  0  0  0  0  0  0  0  0  0  0
   59.6780   34.6560   46.6800 S   0  0  0  0  0  0  0  0  0  0  0  0
   60.0240   35.6990   45.6490 O   0  0  0  0  0  0  0  0  0  0  0  0
   59.0480   35.3400   47.8610 O   0  0  0  0  0  0  0  0  0  0  0  0
   61.1450   33.8210   47.2190 C   0  0  0  0  0  0  0  0  0  0  0  0
   62.2710   33.8290   46.3790 C   0  0  0  0  0  0  0  0  0  0  0  0
   63.4450   33.1730   46.7480 C   0  0  0  0  0  0  0  0  0  0  0  0
   63.5170   32.4900   47.9600 C   0  0  0  0  0  0  0  0  0  0  0  0
   62.4110   32.4640   48.8190 C   0  0  0  0  0  0  0  0  0  0  0  0
   62.4750   31.7750   50.0360 C   0  0  0  0  0  0  0  0  0  0  0  0
   61.3700   31.7550   50.8840 C   0  0  0  0  0  0  0  0  0  0  0  0
   60.2090   32.4310   50.5110 C   0  0  0  0  0  0  0  0  0  0  0  0
   60.1480   33.1020   49.3290 N   0  0  0  0  0  0  0  0  0  0  0  0
   61.2110   33.1350   48.4620 C   0  0  0  0  0  0  0  0  0  0  0  0
   58.5780   33.6150   44.5140 C   0  0  0  0  0  0  0  0  0  0  0  0
   57.9020   32.4090   43.8230 C   0  0  0  0  0  0  0  0  0  0  0  0
   60.7370   26.5820   46.3800 C   0  0  0  0  0  0  0  0  0  0  0  0
   60.5060   27.1940   47.7810 C   0  0  0  0  0  0  0  0  0  0  0  0
   59.7174   28.2798   49.8216 H   0  0  0  0  0  0  0  0  0  0  0  0
   60.4211   29.7915   49.1534 H   0  0  0  0  0  0  0  0  0  0  0  0
   58.6407   29.5530   49.1534 H   0  0  0  0  0  0  0  0  0  0  0  0
   59.6408   30.2713   46.7028 H   0  0  0  0  0  0  0  0  0  0  0  0
   61.2919   29.6207   47.0556 H   0  0  0  0  0  0  0  0  0  0  0  0
   59.6156   29.2675   44.6799 H   0  0  0  0  0  0  0  0  0  0  0  0
   61.3696   28.8504   44.9722 H   0  0  0  0  0  0  0  0  0  0  0  0
   58.3618   26.1394   44.6725 H   0  0  0  0  0  0  0  0  0  0  0  0
   58.2226   26.8490   46.3281 H   0  0  0  0  0  0  0  0  0  0  0  0
   58.2829   29.1517   45.0299 H   0  0  0  0  0  0  0  0  0  0  0  0
   57.7620   28.1333   43.6287 H   0  0  0  0  0  0  0  0  0  0  0  0
   55.7918   27.3844   44.8108 H   0  0  0  0  0  0  0  0  0  0  0  0
   56.3513   28.1732   46.3359 H   0  0  0  0  0  0  0  0  0  0  0  0
   56.2041   32.3493   45.1488 H   0  0  0  0  0  0  0  0  0  0  0  0
   57.0807   31.0437   46.8700 H   0  0  0  0  0  0  0  0  0  0  0  0
   58.2495   30.2057   45.7598 H   0  0  0  0  0  0  0  0  0  0  0  0
   58.9981   32.1372   47.5265 H   0  0  0  0  0  0  0  0  0  0  0  0
   59.8306   31.8356   45.9555 H   0  0  0  0  0  0  0  0  0  0  0  0
   62.2260   34.3601   45.4168 H   0  0  0  0  0  0  0  0  0  0  0  0
   64.3180   33.1950   46.0791 H   0  0  0  0  0  0  0  0  0  0  0  0
   64.4442   31.9701   48.2429 H   0  0  0  0  0  0  0  0  0  0  0  0
   63.3978   31.2494   50.3226 H   0  0  0  0  0  0  0  0  0  0  0  0
   61.4130   31.2109   51.8391 H   0  0  0  0  0  0  0  0  0  0  0  0
   59.3346   32.4217   51.1783 H   0  0  0  0  0  0  0  0  0  0  0  0
   59.2550   33.5950   49.1160 H   0  0  0  0  0  0  0  0  0  0  0  0
   58.0483   34.5328   44.2189 H   0  0  0  0  0  0  0  0  0  0  0  0
   59.6308   33.6349   44.1958 H   0  0  0  0  0  0  0  0  0  0  0  0
   57.3076   32.7710   42.9711 H   0  0  0  0  0  0  0  0  0  0  0  0
   58.6877   31.7180   43.4836 H   0  0  0  0  0  0  0  0  0  0  0  0
   60.3960   25.5363   46.3942 H   0  0  0  0  0  0  0  0  0  0  0  0
   61.8119   26.6618   46.1605 H   0  0  0  0  0  0  0  0  0  0  0  0
   59.9826   26.4580   48.4090 H   0  0  0  0  0  0  0  0  0  0  0  0
   61.4868   27.4517   48.2071 H   0  0  0  0  0  0  0  0  0  0  0  0
  1  2  1  0
  2  3  1  0
  3  4  1  0
  4  5  1  0
  5  6  1  0
  6  7  1  0
  7  8  1  0
  8  9  1  0
  9 10  1  0
 10 11  2  0
 10 12  1  0
 12 13  1  0
 13 14  1  0
 14 15  1  0
 15 16  1  0
 16 17  2  0
 16 18  2  0
 16 19  1  0
 19 20  2  0
 20 21  1  0
 21 22  2  0
 22 23  1  0
 23 24  2  0
 24 25  1  0
 25 26  2  0
 26 27  1  0
 27 28  2  0
 15 29  1  0
 29 30  1  0
  5 31  1  0
 31 32  1  0
 32  2  1  0
 30 12  1  0
 28 19  1  0
 28 23  1  0
  1 33  1  0
  1 34  1  0
  1 35  1  0
  3 36  1  0
  3 37  1  0
  4 38  1  0
  4 39  1  0
  6 40  1  0
  6 41  1  0
  7 42  1  0
  7 43  1  0
  8 44  1  0
  8 45  1  0
 12 46  1  0
 13 47  1  0
 13 48  1  0
 14 49  1  0
 14 50  1  0
 20 51  1  0
 21 52  1  0
 22 53  1  0
 24 54  1  0
 25 55  1  0
 26 56  1  0
 27 57  1  0
 29 58  1  0
 29 59  1  0
 30 60  1  0
 30 61  1  0
 31 62  1  0
 31 63  1  0
 32 64  1  0
 32 65  1  0
M  CHG  2   9  -1  27   1
M  END
>  <UniqueID>  (86) 
85

>  <SMILES>  (86) 
CN1CCN(CCC[N-]C(=O)C2CCN(S(=O)(=O)c3cccc4ccc[nH+]c34)CC2)CC1

>  <Energy>  (86) 
81.8027335976917

>  <Genealogy>  (86) 
CN1CCN(CCC[N-]C(=O)C2CCN(S(=O)(=O)c3cccc4ccc[nH+]c34)CC2)CC1 (protonated)
CN1CCN(CCC[N-]C(=O)C2CCN(S(=O)(=O)c3cccc4ccc[nH+]c34)CC2)CC1 (3D coordinates assigned)
CN1CCN(CCC[N-]C(=O)C2CCN(S(=O)(=O)c3cccc4ccc[nH+]c34)CC2)CC1 (nonaromatic ring conformer: 81.8027335976917 kcal/mol)

>  <smiles>  (86) 
CN1CCN(CCCNC(=O)C2CCN(S(=O)(=O)c3cccc4cccnc34)CC2)CC1

>  <score_type>  (86) 
oracle

>  <origin>  (86) 
adg

>  <m_score__min__energy>  (86) 
-9.9000000000000004

>  <m_primary>  (86) 
energy

$$$$
