0:0
     RDKit          3D

 35 37  0  0  0  0  0  0  0  0999 V2000
   54.8690   29.4670   45.6090 H   0  0  0  0  0  0  0  0  0  0  0  0
   55.5210   28.9370   44.9870 N   0  0  0  0  0  0  0  0  0  0  0  0
   57.0600   29.7190   45.0710 S   0  0  0  0  0  0  0  0  0  0  0  0
   57.8630   29.3930   43.8440 O   0  0  0  0  0  0  0  0  0  0  0  0
   56.8410   31.2050   45.1350 O   0  0  0  0  0  0  0  0  0  0  0  0
   57.9290   29.1700   46.5030 C   0  0  0  0  0  0  0  0  0  0  0  0
   58.3670   27.8410   46.5830 C   0  0  0  0  0  0  0  0  0  0  0  0
   58.1568   27.1432   45.7591 H   0  0  0  0  0  0  0  0  0  0  0  0
   59.0700   27.4010   47.7070 C   0  0  0  0  0  0  0  0  0  0  0  0
   59.4223   26.3603   47.7609 H   0  0  0  0  0  0  0  0  0  0  0  0
   59.3270   28.2790   48.7630 C   0  0  0  0  0  0  0  0  0  0  0  0
   59.8895   27.9282   49.6408 H   0  0  0  0  0  0  0  0  0  0  0  0
   58.8730   29.6030   48.7110 C   0  0  0  0  0  0  0  0  0  0  0  0
   59.1610   30.4740   49.8210 N   0  0  0  0  0  0  0  0  0  0  0  0
   58.3440   30.8030   50.7800 C   0  0  0  0  0  0  0  0  0  0  0  0
   58.7230   31.7390   51.6870 N   0  0  0  0  0  0  0  0  0  0  0  0
   57.8930   32.0730   52.7080 C   0  0  0  0  0  0  0  0  0  0  0  0
   58.2004   32.8358   53.4385 H   0  0  0  0  0  0  0  0  0  0  0  0
   56.6840   31.4670   52.8290 N   0  0  0  0  0  0  0  0  0  0  0  0
   56.3040   30.5180   51.9360 C   0  0  0  0  0  0  0  0  0  0  0  0
   55.1290   29.9700   52.0450 N   0  0  0  0  0  0  0  0  0  0  0  0
   53.8660   30.6600   52.0630 C   0  0  0  0  0  0  0  0  0  0  0  0
   53.3890   31.2260   50.8730 C   0  0  0  0  0  0  0  0  0  0  0  0
   53.9795   31.1338   49.9495 H   0  0  0  0  0  0  0  0  0  0  0  0
   52.1680   31.9070   50.8510 C   0  0  0  0  0  0  0  0  0  0  0  0
   51.7928   32.3327   49.9087 H   0  0  0  0  0  0  0  0  0  0  0  0
   51.4240   32.0470   52.0260 C   0  0  0  0  0  0  0  0  0  0  0  0
   50.2080   32.7200   52.0020 O   0  0  0  0  0  0  0  0  0  0  0  0
   51.9050   31.5160   53.2250 C   0  0  0  0  0  0  0  0  0  0  0  0
   51.3229   31.6343   54.1508 H   0  0  0  0  0  0  0  0  0  0  0  0
   53.1260   30.8340   53.2500 C   0  0  0  0  0  0  0  0  0  0  0  0
   53.5100   30.4321   54.1992 H   0  0  0  0  0  0  0  0  0  0  0  0
   57.1380   30.1930   50.9160 N   0  0  0  0  0  0  0  0  0  0  0  0
   58.2020   30.0540   47.5560 C   0  0  0  0  0  0  0  0  0  0  0  0
   57.8907   31.1063   47.4807 H   0  0  0  0  0  0  0  0  0  0  0  0
  1  2  1  0
  2  3  1  0
  3  4  2  0
  3  5  2  0
  3  6  1  0
  6  7  2  0
  7  8  1  0
  7  9  1  0
  9 10  1  0
  9 11  2  0
 11 12  1  0
 11 13  1  0
 13 14  1  0
 14 15  2  0
 15 16  1  0
 16 17  1  0
 17 18  1  0
 17 19  2  0
 19 20  1  0
 20 21  2  3
 21 22  1  0
 22 23  2  0
 23 24  1  0
 23 25  1  0
 25 26  1  0
 25 27  2  0
 27 28  1  0
 27 29  1  0
 29 30  1  0
 29 31  2  0
 31 32  1  0
 20 33  1  0
 13 34  2  0
 34 35  1  0
 34  6  1  0
 33 15  1  0
 31 22  1  0
M  CHG  4   2  -1  16  -1  28  -1  33  -1
M  END
>  <UniqueID>  (1) 
1

>  <SMILES>  (1) 
[NH-]S(=O)(=O)c1cccc(/N=c2/[n-]cnc(=Nc3ccc([O-])cc3)[n-]2)c1

>  <Energy>  (1) 
48.00112194896571

>  <Genealogy>  (1) 
[NH-]S(=O)(=O)c1cccc(N=c2[n-]cnc(=Nc3ccc([O-])cc3)[n-]2)c1 (protonated)
[NH-]S(=O)(=O)c1cccc(/N=c2/[n-]cnc(=Nc3ccc([O-])cc3)[n-]2)c1 (cis-trans isomerization)
[NH-]S(=O)(=O)c1cccc(/N=c2/[n-]cnc(=Nc3ccc([O-])cc3)[n-]2)c1 (3D coordinates assigned)
[NH-]S(=O)(=O)c1cccc(/N=c2/[n-]cnc(=Nc3ccc([O-])cc3)[n-]2)c1 (optimized conformer: 48.00112194896571 kcal/mol)

>  <smiles>  (1) 
NS(=O)(=O)c1cccc(N=c2[nH]cnc(=Nc3ccc(O)cc3)[nH]2)c1

>  <score_type>  (1) 
oracle

>  <origin>  (1) 
adg

>  <m_score__min__energy>  (1) 
-15.68

>  <m_primary>  (1) 
energy

$$$$
1:0
     RDKit          3D

 39 41  0  0  0  0  0  0  0  0999 V2000
   54.3610   19.4300   45.9900 C   0  0  0  0  0  0  0  0  0  0  0  0
   54.4510   21.1860   46.2570 S   0  0  0  0  0  0  0  0  0  0  0  0
   54.4860   21.4930   47.7290 O   0  0  0  0  0  0  0  0  0  0  0  0
   53.2320   21.8260   45.6570 O   0  0  0  0  0  0  0  0  0  0  0  0
   55.8590   21.8370   45.4800 N   0  0  0  0  0  0  0  0  0  0  0  0
   56.3550   23.1740   45.6240 C   0  0  0  0  0  0  0  0  0  0  0  0
   57.7370   23.3740   45.6550 C   0  0  0  0  0  0  0  0  0  0  0  0
   58.2680   24.6550   45.8080 C   0  0  0  0  0  0  0  0  0  0  0  0
   57.4200   25.7690   45.8950 C   0  0  0  0  0  0  0  0  0  0  0  0
   57.9530   27.0930   46.0540 N   0  0  0  0  0  0  0  0  0  0  0  0
   58.3130   28.0050   45.0050 C   0  0  0  0  0  0  0  0  0  0  0  0
   58.9670   27.5640   44.0250 O   0  0  0  0  0  0  0  0  0  0  0  0
   57.9990   29.4550   45.0810 C   0  0  0  0  0  0  0  0  0  0  0  0
   58.9830   30.3700   45.4900 C   0  0  0  0  0  0  0  0  0  0  0  0
   58.6870   31.7340   45.5750 C   0  0  0  0  0  0  0  0  0  0  0  0
   59.6480   32.6610   46.0030 C   0  0  0  0  0  0  0  0  0  0  0  0
   59.3230   34.0190   46.0760 C   0  0  0  0  0  0  0  0  0  0  0  0
   58.0410   34.4560   45.7240 C   0  0  0  0  0  0  0  0  0  0  0  0
   57.0790   33.5380   45.2990 C   0  0  0  0  0  0  0  0  0  0  0  0
   57.3960   32.1770   45.2220 C   0  0  0  0  0  0  0  0  0  0  0  0
   56.4630   31.2810   44.8120 N   0  0  0  0  0  0  0  0  0  0  0  0
   56.7240   29.9500   44.7320 C   0  0  0  0  0  0  0  0  0  0  0  0
   55.8100   29.1670   44.3570 O   0  0  0  0  0  0  0  0  0  0  0  0
   56.0250   25.5760   45.8800 C   0  0  0  0  0  0  0  0  0  0  0  0
   55.1290   26.6880   45.9950 N   0  0  0  0  0  0  0  0  0  0  0  0
   55.5000   24.2830   45.7360 C   0  0  0  0  0  0  0  0  0  0  0  0
   54.3345   18.9125   46.9603 H   0  0  0  0  0  0  0  0  0  0  0  0
   53.4495   19.1917   45.4223 H   0  0  0  0  0  0  0  0  0  0  0  0
   55.2434   19.0997   45.4223 H   0  0  0  0  0  0  0  0  0  0  0  0
   58.4139   22.5124   45.5577 H   0  0  0  0  0  0  0  0  0  0  0  0
   59.3581   24.7923   45.8607 H   0  0  0  0  0  0  0  0  0  0  0  0
   59.9914   30.0119   45.7447 H   0  0  0  0  0  0  0  0  0  0  0  0
   60.6563   32.3203   46.2810 H   0  0  0  0  0  0  0  0  0  0  0  0
   60.0773   34.7461   46.4111 H   0  0  0  0  0  0  0  0  0  0  0  0
   57.7907   35.5256   45.7823 H   0  0  0  0  0  0  0  0  0  0  0  0
   56.0717   33.8844   45.0246 H   0  0  0  0  0  0  0  0  0  0  0  0
   55.1600   27.4690   45.3020 H   0  0  0  0  0  0  0  0  0  0  0  0
   54.4110   26.7350   46.7510 H   0  0  0  0  0  0  0  0  0  0  0  0
   54.4101   24.1364   45.7106 H   0  0  0  0  0  0  0  0  0  0  0  0
  1  2  1  0
  2  3  2  0
  2  4  2  0
  2  5  1  0
  5  6  1  0
  6  7  2  0
  7  8  1  0
  8  9  2  0
  9 10  1  0
 10 11  1  0
 11 12  2  0
 11 13  1  0
 13 14  2  0
 14 15  1  0
 15 16  2  0
 16 17  1  0
 17 18  2  0
 18 19  1  0
 19 20  2  0
 20 21  1  0
 21 22  1  0
 22 23  2  0
  9 24  1  0
 24 25  1  0
 24 26  2  0
 26  6  1  0
 22 13  1  0
 20 15  1  0
  1 27  1  0
  1 28  1  0
  1 29  1  0
  7 30  1  0
  8 31  1  0
 14 32  1  0
 16 33  1  0
 17 34  1  0
 18 35  1  0
 19 36  1  0
 25 37  1  0
 25 38  1  0
 26 39  1  0
M  CHG  3   5  -1  10  -1  21  -1
M  END
>  <UniqueID>  (2) 
2

>  <SMILES>  (2) 
CS(=O)(=O)[N-]c1ccc([N-]C(=O)c2cc3ccccc3[n-]c2=O)c(N)c1

>  <Energy>  (2) 
51.98155737009626

>  <Genealogy>  (2) 
CS(=O)(=O)[N-]c1ccc([N-]C(=O)c2cc3ccccc3[n-]c2=O)c(N)c1 (protonated)
CS(=O)(=O)[N-]c1ccc([N-]C(=O)c2cc3ccccc3[n-]c2=O)c(N)c1 (3D coordinates assigned)
CS(=O)(=O)[N-]c1ccc([N-]C(=O)c2cc3ccccc3[n-]c2=O)c(N)c1 (optimized conformer: 51.98155737009626 kcal/mol)

>  <smiles>  (2) 
CS(=O)(=O)Nc1ccc(NC(=O)c2cc3ccccc3[nH]c2=O)c(N)c1

>  <score_type>  (2) 
oracle

>  <origin>  (2) 
adg

>  <m_score__min__energy>  (2) 
-13.460000000000001

>  <m_primary>  (2) 
energy

$$$$
2:0
     RDKit          3D

 50 52  0  0  0  0  0  0  0  0999 V2000
   55.6880   24.0620   44.3040 C   0  0  0  0  0  0  0  0  0  0  0  0
   54.6970   24.6920   45.6400 S   0  0  0  0  0  0  0  0  0  0  0  0
   53.2490   24.6200   45.2520 O   0  0  0  0  0  0  0  0  0  0  0  0
   54.9430   23.8600   46.8670 O   0  0  0  0  0  0  0  0  0  0  0  0
   55.1450   26.3390   45.9460 N   0  0  0  0  0  0  0  0  0  0  0  0
   56.4740   26.7920   46.2340 C   0  0  0  0  0  0  0  0  0  0  0  0
   56.9440   27.9440   45.5940 C   0  0  0  0  0  0  0  0  0  0  0  0
   58.2350   28.4190   45.8420 C   0  0  0  0  0  0  0  0  0  0  0  0
   59.0780   27.7400   46.7410 C   0  0  0  0  0  0  0  0  0  0  0  0
   60.3800   28.1760   47.0280 O   0  0  0  0  0  0  0  0  0  0  0  0
   60.7150   29.0960   48.0670 C   0  0  0  0  0  0  0  0  0  0  0  0
   60.0440   30.4130   47.8290 C   0  0  0  0  0  0  0  0  0  0  0  0
   59.4770   31.0160   48.7820 O   0  0  0  0  0  0  0  0  0  0  0  0
   60.0790   31.0020   46.5230 N   0  0  0  0  0  0  0  0  0  0  0  0
   59.3000   32.1530   46.1690 C   0  0  0  0  0  0  0  0  0  0  0  0
   58.0580   31.9660   45.5450 C   0  0  0  0  0  0  0  0  0  0  0  0
   57.2870   33.0650   45.1570 C   0  0  0  0  0  0  0  0  0  0  0  0
   57.7440   34.3600   45.4000 C   0  0  0  0  0  0  0  0  0  0  0  0
   58.9670   34.5610   46.0460 C   0  0  0  0  0  0  0  0  0  0  0  0
   59.7500   33.4650   46.4460 C   0  0  0  0  0  0  0  0  0  0  0  0
   60.9650   33.6880   47.1870 N   0  0  0  0  0  0  0  0  0  0  0  0
   60.8820   34.2000   48.5560 C   0  0  0  0  0  0  0  0  0  0  0  0
   62.1460   33.8110   49.3300 C   0  0  0  0  0  0  0  0  0  0  0  0
   63.3080   34.2000   48.6230 O   0  0  0  0  0  0  0  0  0  0  0  0
   63.3950   33.4780   47.4080 C   0  0  0  0  0  0  0  0  0  0  0  0
   62.2360   33.8410   46.4750 C   0  0  0  0  0  0  0  0  0  0  0  0
   58.6090   26.5870   47.3780 C   0  0  0  0  0  0  0  0  0  0  0  0
   57.3180   26.1120   47.1300 C   0  0  0  0  0  0  0  0  0  0  0  0
   56.5496   23.5142   44.7133 H   0  0  0  0  0  0  0  0  0  0  0  0
   55.0818   23.3831   43.6863 H   0  0  0  0  0  0  0  0  0  0  0  0
   56.0454   24.8990   43.6863 H   0  0  0  0  0  0  0  0  0  0  0  0
   56.2917   28.4807   44.8894 H   0  0  0  0  0  0  0  0  0  0  0  0
   58.5929   29.3261   45.3330 H   0  0  0  0  0  0  0  0  0  0  0  0
   60.3833   28.6888   49.0335 H   0  0  0  0  0  0  0  0  0  0  0  0
   61.8048   29.2453   48.0760 H   0  0  0  0  0  0  0  0  0  0  0  0
   60.8060   30.6660   45.8500 H   0  0  0  0  0  0  0  0  0  0  0  0
   57.6881   30.9468   45.3596 H   0  0  0  0  0  0  0  0  0  0  0  0
   56.3186   32.9085   44.6594 H   0  0  0  0  0  0  0  0  0  0  0  0
   57.1414   35.2240   45.0830 H   0  0  0  0  0  0  0  0  0  0  0  0
   59.3190   35.5844   46.2427 H   0  0  0  0  0  0  0  0  0  0  0  0
   60.7908   35.2959   48.5317 H   0  0  0  0  0  0  0  0  0  0  0  0
   60.0019   33.7673   49.0542 H   0  0  0  0  0  0  0  0  0  0  0  0
   62.1364   34.3100   50.3103 H   0  0  0  0  0  0  0  0  0  0  0  0
   62.1596   32.7184   49.4564 H   0  0  0  0  0  0  0  0  0  0  0  0
   64.3465   33.7201   46.9120 H   0  0  0  0  0  0  0  0  0  0  0  0
   63.3429   32.4025   47.6327 H   0  0  0  0  0  0  0  0  0  0  0  0
   62.3463   34.8839   46.1430 H   0  0  0  0  0  0  0  0  0  0  0  0
   62.2477   33.1729   45.6012 H   0  0  0  0  0  0  0  0  0  0  0  0
   59.2620   26.0488   48.0808 H   0  0  0  0  0  0  0  0  0  0  0  0
   56.9611   25.2035   47.6373 H   0  0  0  0  0  0  0  0  0  0  0  0
  1  2  1  0
  2  3  2  0
  2  4  2  0
  2  5  1  0
  5  6  1  0
  6  7  2  0
  7  8  1  0
  8  9  2  0
  9 10  1  0
 10 11  1  0
 11 12  1  0
 12 13  2  0
 12 14  1  0
 14 15  1  0
 15 16  2  0
 16 17  1  0
 17 18  2  0
 18 19  1  0
 19 20  2  0
 20 21  1  0
 21 22  1  0
 22 23  1  0
 23 24  1  0
 24 25  1  0
 25 26  1  0
  9 27  1  0
 27 28  2  0
 28  6  1  0
 20 15  1  0
 26 21  1  0
  1 29  1  0
  1 30  1  0
  1 31  1  0
  7 32  1  0
  8 33  1  0
 11 34  1  0
 11 35  1  0
 14 36  1  0
 16 37  1  0
 17 38  1  0
 18 39  1  0
 19 40  1  0
 22 41  1  0
 22 42  1  0
 23 43  1  0
 23 44  1  0
 25 45  1  0
 25 46  1  0
 26 47  1  0
 26 48  1  0
 27 49  1  0
 28 50  1  0
M  CHG  1   5  -1
M  END
>  <UniqueID>  (3) 
3

>  <SMILES>  (3) 
CS(=O)(=O)[N-]c1ccc(OCC(=O)Nc2ccccc2N2CCOCC2)cc1

>  <Energy>  (3) 
57.83882907933603

>  <Genealogy>  (3) 
CS(=O)(=O)[N-]c1ccc(OCC(=O)Nc2ccccc2N2CCOCC2)cc1 (protonated)
CS(=O)(=O)[N-]c1ccc(OCC(=O)Nc2ccccc2N2CCOCC2)cc1 (3D coordinates assigned)
CS(=O)(=O)[N-]c1ccc(OCC(=O)Nc2ccccc2N2CCOCC2)cc1 (nonaromatic ring conformer: 57.83882907933603 kcal/mol)

>  <smiles>  (3) 
CS(=O)(=O)Nc1ccc(OCC(=O)Nc2ccccc2N2CCOCC2)cc1

>  <score_type>  (3) 
oracle

>  <origin>  (3) 
adg

>  <m_score__min__energy>  (3) 
-10.06

>  <m_primary>  (3) 
energy

$$$$
3:0
     RDKit          3D

 43 44  0  0  0  0  0  0  0  0999 V2000
   60.9590   30.4290   47.3550 C   0  0  0  0  0  0  0  0  0  0  0  0
   59.4740   30.1460   47.1290 C   0  0  0  0  0  0  0  0  0  0  0  0
   59.3020   29.9150   45.6570 C   0  0  0  0  0  0  0  0  0  0  0  0
   57.9490   29.7690   45.2200 N   0  0  0  0  0  0  0  0  0  0  0  0
   57.1880   30.6160   44.5050 C   0  0  0  0  0  0  0  0  0  0  0  0
   57.6440   32.2670   43.9130 S   0  0  0  0  0  0  0  0  0  0  0  0
   57.0430   33.4930   45.1410 C   0  0  0  0  0  0  0  0  0  0  0  0
   58.0880   33.4380   46.2330 C   0  0  0  0  0  0  0  0  0  0  0  0
   57.7300   33.0480   47.3560 O   0  0  0  0  0  0  0  0  0  0  0  0
   59.4120   33.8220   45.9670 N   0  0  0  0  0  0  0  0  0  0  0  0
   60.4880   33.8320   46.8790 C   0  0  0  0  0  0  0  0  0  0  0  0
   61.7670   33.5580   46.3790 C   0  0  0  0  0  0  0  0  0  0  0  0
   62.8830   33.5560   47.1740 C   0  0  0  0  0  0  0  0  0  0  0  0
   62.7900   33.8320   48.5230 C   0  0  0  0  0  0  0  0  0  0  0  0
   63.8500   33.8540   49.3970 O   0  0  0  0  0  0  0  0  0  0  0  0
   64.6780   32.7380   49.5960 C   0  0  0  0  0  0  0  0  0  0  0  0
   63.9120   31.5560   50.1950 C   0  0  0  0  0  0  0  0  0  0  0  0
   61.5400   34.1020   49.0200 C   0  0  0  0  0  0  0  0  0  0  0  0
   60.4190   34.1000   48.2100 C   0  0  0  0  0  0  0  0  0  0  0  0
   55.9780   30.0520   44.3090 N   0  0  0  0  0  0  0  0  0  0  0  0
   55.9580   28.8580   44.8900 N   0  0  0  0  0  0  0  0  0  0  0  0
   57.1850   28.6860   45.4560 C   0  0  0  0  0  0  0  0  0  0  0  0
   57.4600   27.6270   46.0860 O   0  0  0  0  0  0  0  0  0  0  0  0
   61.1646   30.4682   48.4349 H   0  0  0  0  0  0  0  0  0  0  0  0
   61.5587   29.6290   46.8964 H   0  0  0  0  0  0  0  0  0  0  0  0
   61.2224   31.3935   46.8964 H   0  0  0  0  0  0  0  0  0  0  0  0
   59.1678   29.2520   47.6920 H   0  0  0  0  0  0  0  0  0  0  0  0
   58.8527   30.9854   47.4745 H   0  0  0  0  0  0  0  0  0  0  0  0
   59.7417   30.7710   45.1241 H   0  0  0  0  0  0  0  0  0  0  0  0
   59.7998   28.9591   45.4368 H   0  0  0  0  0  0  0  0  0  0  0  0
   56.9887   34.4987   44.6987 H   0  0  0  0  0  0  0  0  0  0  0  0
   56.0290   33.2729   45.5061 H   0  0  0  0  0  0  0  0  0  0  0  0
   59.6080   34.1360   44.9680 H   0  0  0  0  0  0  0  0  0  0  0  0
   61.8800   33.3360   45.3076 H   0  0  0  0  0  0  0  0  0  0  0  0
   63.8649   33.3317   46.7317 H   0  0  0  0  0  0  0  0  0  0  0  0
   65.1016   32.4328   48.6278 H   0  0  0  0  0  0  0  0  0  0  0  0
   65.4698   33.0240   50.3040 H   0  0  0  0  0  0  0  0  0  0  0  0
   63.9492   31.6134   51.2929 H   0  0  0  0  0  0  0  0  0  0  0  0
   62.8644   31.5910   49.8613 H   0  0  0  0  0  0  0  0  0  0  0  0
   64.3718   30.6141   49.8613 H   0  0  0  0  0  0  0  0  0  0  0  0
   61.4264   34.3260   50.0910 H   0  0  0  0  0  0  0  0  0  0  0  0
   59.4391   34.3226   48.6575 H   0  0  0  0  0  0  0  0  0  0  0  0
   55.1470   28.2020   44.8950 H   0  0  0  0  0  0  0  0  0  0  0  0
  1  2  1  0
  2  3  1  0
  3  4  1  0
  4  5  1  0
  5  6  1  0
  6  7  1  0
  7  8  1  0
  8  9  2  0
  8 10  1  0
 10 11  1  0
 11 12  2  0
 12 13  1  0
 13 14  2  0
 14 15  1  0
 15 16  1  0
 16 17  1  0
 14 18  1  0
 18 19  2  0
  5 20  2  0
 20 21  1  0
 21 22  1  0
 22 23  2  0
 22  4  1  0
 19 11  1  0
  1 24  1  0
  1 25  1  0
  1 26  1  0
  2 27  1  0
  2 28  1  0
  3 29  1  0
  3 30  1  0
  7 31  1  0
  7 32  1  0
 10 33  1  0
 12 34  1  0
 13 35  1  0
 16 36  1  0
 16 37  1  0
 17 38  1  0
 17 39  1  0
 17 40  1  0
 18 41  1  0
 19 42  1  0
 21 43  1  0
M  END
>  <smiles>  (4) 
CCCn1c(SCC(=O)Nc2ccc(OCC)cc2)n[nH]c1=O

>  <score_type>  (4) 
oracle

>  <origin>  (4) 
adg

>  <m_score__min__energy>  (4) 
-7.3399999999999999

>  <m_primary>  (4) 
energy

$$$$
4:0
     RDKit          3D

 49 51  0  0  0  0  0  0  0  0999 V2000
   60.8400   29.2900   49.5510 C   0  0  0  0  0  0  0  0  0  0  0  0
   59.4860   29.9720   49.3300 C   0  0  2  0  0  0  0  0  0  0  0  0
   58.5570   28.9910   48.9400 O   0  0  0  0  0  0  0  0  0  0  0  0
   59.5170   31.1180   48.2610 C   0  0  1  0  0  0  0  0  0  0  0  0
   59.5270   32.4740   49.0450 C   0  0  0  0  0  0  0  0  0  0  0  0
   59.7790   33.7710   48.2430 C   0  0  0  0  0  0  0  0  0  0  0  0
   59.0480   33.8270   46.9270 C   0  0  0  0  0  0  0  0  0  0  0  0
   59.7640   33.9220   45.7220 C   0  0  0  0  0  0  0  0  0  0  0  0
   59.0830   33.9910   44.5020 C   0  0  0  0  0  0  0  0  0  0  0  0
   57.6860   33.9590   44.4760 C   0  0  0  0  0  0  0  0  0  0  0  0
   56.9680   33.8540   45.6700 C   0  0  0  0  0  0  0  0  0  0  0  0
   57.6440   33.7850   46.8920 C   0  0  0  0  0  0  0  0  0  0  0  0
   60.7960   31.0080   47.3690 C   0  0  0  0  0  0  0  0  0  0  0  0
   60.5970   30.1060   46.1880 C   0  0  0  0  0  0  0  0  0  0  0  0
   61.5020   29.3640   45.8360 O   0  0  0  0  0  0  0  0  0  0  0  0
   59.3820   30.2950   45.3270 C   0  0  1  0  0  0  0  0  0  0  0  0
   59.0920   28.9110   44.1420 S   0  0  0  0  0  0  0  0  0  0  0  0
   58.3220   27.7380   45.2660 C   0  0  0  0  0  0  0  0  0  0  0  0
   59.1140   26.9580   46.1190 C   0  0  0  0  0  0  0  0  0  0  0  0
   58.5190   26.0130   46.9610 C   0  0  0  0  0  0  0  0  0  0  0  0
   57.1340   25.8290   46.9400 C   0  0  0  0  0  0  0  0  0  0  0  0
   56.3390   26.5800   46.0670 C   0  0  0  0  0  0  0  0  0  0  0  0
   54.9610   26.3780   46.0440 O   0  0  0  0  0  0  0  0  0  0  0  0
   56.9370   27.5270   45.2220 C   0  0  0  0  0  0  0  0  0  0  0  0
   58.1790   30.6020   46.1720 C   0  0  0  0  0  0  0  0  0  0  0  0
   57.0320   30.5770   45.6500 O   0  0  0  0  0  0  0  0  0  0  0  0
   58.3030   31.0520   47.4940 O   0  0  0  0  0  0  0  0  0  0  0  0
   61.0304   29.1941   50.6301 H   0  0  0  0  0  0  0  0  0  0  0  0
   60.8268   28.2910   49.0908 H   0  0  0  0  0  0  0  0  0  0  0  0
   61.6349   29.8953   49.0908 H   0  0  0  0  0  0  0  0  0  0  0  0
   59.2032   30.4512   50.2789 H   0  0  0  0  0  0  0  0  0  0  0  0
   58.0250   29.3720   48.1930 H   0  0  0  0  0  0  0  0  0  0  0  0
   58.5473   32.5766   49.5345 H   0  0  0  0  0  0  0  0  0  0  0  0
   60.3911   32.3954   49.7212 H   0  0  0  0  0  0  0  0  0  0  0  0
   59.4553   34.6254   48.8556 H   0  0  0  0  0  0  0  0  0  0  0  0
   60.8542   33.7998   48.0124 H   0  0  0  0  0  0  0  0  0  0  0  0
   60.8637   33.9422   45.7379 H   0  0  0  0  0  0  0  0  0  0  0  0
   59.6480   34.0706   43.5615 H   0  0  0  0  0  0  0  0  0  0  0  0
   57.1520   34.0164   43.5160 H   0  0  0  0  0  0  0  0  0  0  0  0
   55.8686   33.8256   45.6486 H   0  0  0  0  0  0  0  0  0  0  0  0
   57.0747   33.6975   47.8292 H   0  0  0  0  0  0  0  0  0  0  0  0
   61.0598   32.0121   47.0054 H   0  0  0  0  0  0  0  0  0  0  0  0
   61.5980   30.5776   47.9867 H   0  0  0  0  0  0  0  0  0  0  0  0
   59.5753   31.1674   44.6854 H   0  0  0  0  0  0  0  0  0  0  0  0
   60.2061   27.0892   46.1264 H   0  0  0  0  0  0  0  0  0  0  0  0
   59.1423   25.4136   47.6409 H   0  0  0  0  0  0  0  0  0  0  0  0
   56.6678   25.0925   47.6109 H   0  0  0  0  0  0  0  0  0  0  0  0
   54.3650   26.7100   46.7920 H   0  0  0  0  0  0  0  0  0  0  0  0
   56.3165   28.1061   44.5223 H   0  0  0  0  0  0  0  0  0  0  0  0
  1  2  1  0
  2  3  1  0
  2  4  1  0
  4  5  1  1
  5  6  1  0
  6  7  1  0
  7  8  2  0
  8  9  1  0
  9 10  2  0
 10 11  1  0
 11 12  2  0
  4 13  1  0
 13 14  1  0
 14 15  2  0
 14 16  1  0
 16 17  1  0
 17 18  1  0
 18 19  2  0
 19 20  1  0
 20 21  2  0
 21 22  1  0
 22 23  1  0
 22 24  2  0
 16 25  1  0
 25 26  2  0
 25 27  1  0
 27  4  1  0
 12  7  1  0
 24 18  1  0
  1 28  1  0
  1 29  1  0
  1 30  1  0
  2 31  1  1
  3 32  1  0
  5 33  1  0
  5 34  1  0
  6 35  1  0
  6 36  1  0
  8 37  1  0
  9 38  1  0
 10 39  1  0
 11 40  1  0
 12 41  1  0
 13 42  1  0
 13 43  1  0
 16 44  1  6
 19 45  1  0
 20 46  1  0
 21 47  1  0
 23 48  1  0
 24 49  1  0
M  END
>  <UniqueID>  (5) 
4

>  <SMILES>  (5) 
C[C@H](O)[C@@]1(CCc2ccccc2)CC(=O)C(Sc2cccc(O)c2)C(=O)O1

>  <Energy>  (5) 
50.605641430259695

>  <Genealogy>  (5) 
C[C@H](O)[C@@]1(CCc2ccccc2)CC(=O)C(Sc2cccc(O)c2)C(=O)O1 (chirality)
C[C@H](O)[C@@]1(CCc2ccccc2)CC(=O)C(Sc2cccc(O)c2)C(=O)O1 (3D coordinates assigned)
C[C@H](O)[C@@]1(CCc2ccccc2)CC(=O)C(Sc2cccc(O)c2)C(=O)O1 (nonaromatic ring conformer: 50.605641430259695 kcal/mol)

>  <smiles>  (5) 
CC(O)C1(CCc2ccccc2)CC(=O)C(Sc2cccc(O)c2)C(=O)O1

>  <score_type>  (5) 
oracle

>  <origin>  (5) 
adg

>  <m_score__min__energy>  (5) 
-9.5099999999999998

>  <m_primary>  (5) 
energy

$$$$
5:0
     RDKit          3D

 54 56  0  0  0  0  0  0  0  0999 V2000
   63.8040   34.1990   51.3900 C   0  0  0  0  0  0  0  0  0  0  0  0
   62.7210   33.6040   50.6810 O   0  0  0  0  0  0  0  0  0  0  0  0
   62.5750   33.6350   49.2860 C   0  0  0  0  0  0  0  0  0  0  0  0
   61.4630   34.2300   48.6580 C   0  0  0  0  0  0  0  0  0  0  0  0
   61.3380   34.2140   47.2570 C   0  0  0  0  0  0  0  0  0  0  0  0
   60.1270   34.8300   46.5820 C   0  0  0  0  0  0  0  0  0  0  0  0
   58.8960   34.0160   46.6990 N   0  0  0  0  0  0  0  0  0  0  0  0
   58.0200   34.0780   45.5060 C   0  0  0  0  0  0  0  0  0  0  0  0
   57.0210   32.9180   45.4640 C   0  0  0  0  0  0  0  0  0  0  0  0
   57.7490   31.6440   45.4820 N   0  0  0  0  0  0  0  0  0  0  0  0
   57.2060   30.4940   44.8000 C   0  0  0  0  0  0  0  0  0  0  0  0
   55.9810   30.4710   44.4970 O   0  0  0  0  0  0  0  0  0  0  0  0
   58.0650   29.2900   44.5000 C   0  0  0  0  0  0  0  0  0  0  0  0
   58.1720   28.3380   45.6960 C   0  0  0  0  0  0  0  0  0  0  0  0
   59.8470   28.2680   46.3090 S   0  0  0  0  0  0  0  0  0  0  0  0
   60.2360   26.8340   46.5350 O   0  0  0  0  0  0  0  0  0  0  0  0
   60.7820   28.8600   45.2900 O   0  0  0  0  0  0  0  0  0  0  0  0
   59.9750   29.1540   47.8260 C   0  0  0  0  0  0  0  0  0  0  0  0
   61.1400   29.8790   48.1180 C   0  0  0  0  0  0  0  0  0  0  0  0
   61.2530   30.5660   49.3310 C   0  0  0  0  0  0  0  0  0  0  0  0
   60.2070   30.5280   50.2580 C   0  0  0  0  0  0  0  0  0  0  0  0
   59.0470   29.8010   49.9740 C   0  0  0  0  0  0  0  0  0  0  0  0
   58.9310   29.1130   48.7620 C   0  0  0  0  0  0  0  0  0  0  0  0
   59.0050   31.5470   46.2390 C   0  0  0  0  0  0  0  0  0  0  0  0
   59.0990   32.6690   47.2840 C   0  0  0  0  0  0  0  0  0  0  0  0
   62.3650   33.6450   46.4870 C   0  0  0  0  0  0  0  0  0  0  0  0
   63.4730   33.0630   47.1050 C   0  0  0  0  0  0  0  0  0  0  0  0
   63.5750   33.0520   48.4980 C   0  0  0  0  0  0  0  0  0  0  0  0
   64.6530   32.4760   49.0860 F   0  0  0  0  0  0  0  0  0  0  0  0
   63.6304   34.1036   52.4720 H   0  0  0  0  0  0  0  0  0  0  0  0
   64.7414   33.6892   51.1227 H   0  0  0  0  0  0  0  0  0  0  0  0
   63.8764   35.2636   51.1227 H   0  0  0  0  0  0  0  0  0  0  0  0
   60.6853   34.7116   49.2690 H   0  0  0  0  0  0  0  0  0  0  0  0
   59.9376   35.8121   47.0398 H   0  0  0  0  0  0  0  0  0  0  0  0
   60.3614   34.9019   45.5097 H   0  0  0  0  0  0  0  0  0  0  0  0
   57.4623   35.0259   45.5244 H   0  0  0  0  0  0  0  0  0  0  0  0
   58.6584   34.0078   44.6130 H   0  0  0  0  0  0  0  0  0  0  0  0
   56.3577   32.9736   46.3397 H   0  0  0  0  0  0  0  0  0  0  0  0
   56.4210   32.9842   44.5445 H   0  0  0  0  0  0  0  0  0  0  0  0
   57.6253   28.7444   43.6521 H   0  0  0  0  0  0  0  0  0  0  0  0
   59.0776   29.6498   44.2652 H   0  0  0  0  0  0  0  0  0  0  0  0
   57.5095   28.6932   46.4991 H   0  0  0  0  0  0  0  0  0  0  0  0
   57.8755   27.3302   45.3697 H   0  0  0  0  0  0  0  0  0  0  0  0
   61.9658   29.9072   47.3919 H   0  0  0  0  0  0  0  0  0  0  0  0
   62.1659   31.1369   49.5560 H   0  0  0  0  0  0  0  0  0  0  0  0
   60.2967   31.0702   51.2109 H   0  0  0  0  0  0  0  0  0  0  0  0
   58.2250   29.7702   50.7044 H   0  0  0  0  0  0  0  0  0  0  0  0
   58.0191   28.5384   48.5422 H   0  0  0  0  0  0  0  0  0  0  0  0
   59.0440   30.5737   46.7501 H   0  0  0  0  0  0  0  0  0  0  0  0
   59.8477   31.6453   45.5388 H   0  0  0  0  0  0  0  0  0  0  0  0
   58.3299   32.4996   48.0520 H   0  0  0  0  0  0  0  0  0  0  0  0
   60.1129   32.6417   47.7097 H   0  0  0  0  0  0  0  0  0  0  0  0
   62.2959   33.6580   45.3892 H   0  0  0  0  0  0  0  0  0  0  0  0
   64.2681   32.6117   46.4933 H   0  0  0  0  0  0  0  0  0  0  0  0
  1  2  1  0
  2  3  1  0
  3  4  2  0
  4  5  1  0
  5  6  1  0
  6  7  1  0
  7  8  1  0
  8  9  1  0
  9 10  1  0
 10 11  1  0
 11 12  2  0
 11 13  1  0
 13 14  1  0
 14 15  1  0
 15 16  2  0
 15 17  2  0
 15 18  1  0
 18 19  2  0
 19 20  1  0
 20 21  2  0
 21 22  1  0
 22 23  2  0
 10 24  1  0
 24 25  1  0
  5 26  2  0
 26 27  1  0
 27 28  2  0
 28 29  1  0
 28  3  1  0
 25  7  1  0
 23 18  1  0
  1 30  1  0
  1 31  1  0
  1 32  1  0
  4 33  1  0
  6 34  1  0
  6 35  1  0
  8 36  1  0
  8 37  1  0
  9 38  1  0
  9 39  1  0
 13 40  1  0
 13 41  1  0
 14 42  1  0
 14 43  1  0
 19 44  1  0
 20 45  1  0
 21 46  1  0
 22 47  1  0
 23 48  1  0
 24 49  1  0
 24 50  1  0
 25 51  1  0
 25 52  1  0
 26 53  1  0
 27 54  1  0
M  END
>  <UniqueID>  (6) 
5

>  <SMILES>  (6) 
COc1cc(CN2CCN(C(=O)CCS(=O)(=O)c3ccccc3)CC2)ccc1F

>  <Energy>  (6) 
59.274606797007436

>  <Genealogy>  (6) 
COc1cc(CN2CCN(C(=O)CCS(=O)(=O)c3ccccc3)CC2)ccc1F (3D coordinates assigned)
COc1cc(CN2CCN(C(=O)CCS(=O)(=O)c3ccccc3)CC2)ccc1F (nonaromatic ring conformer: 59.274606797007436 kcal/mol)

>  <smiles>  (6) 
COc1cc(CN2CCN(C(=O)CCS(=O)(=O)c3ccccc3)CC2)ccc1F

>  <score_type>  (6) 
oracle

>  <origin>  (6) 
adg

>  <m_score__min__energy>  (6) 
-9.2200000000000006

>  <m_primary>  (6) 
energy

$$$$
6:0
     RDKit          3D

 46 48  0  0  0  0  0  0  0  0999 V2000
   64.1610   33.0860   48.8130 C   0  0  0  0  0  0  0  0  0  0  0  0
   63.0670   32.5340   47.5240 S   0  0  0  0  0  0  0  0  0  0  0  0
   62.9540   33.5980   46.4680 O   0  0  0  0  0  0  0  0  0  0  0  0
   63.6160   31.2840   46.8960 O   0  0  0  0  0  0  0  0  0  0  0  0
   61.5030   32.2090   48.1970 N   0  0  0  0  0  0  0  0  0  0  0  0
   61.1650   30.8800   48.5950 C   0  0  0  0  0  0  0  0  0  0  0  0
   61.4460   30.4520   49.8990 C   0  0  0  0  0  0  0  0  0  0  0  0
   61.1240   29.1510   50.2930 C   0  0  0  0  0  0  0  0  0  0  0  0
   60.5290   28.2720   49.3860 C   0  0  0  0  0  0  0  0  0  0  0  0
   60.2430   28.6940   48.0830 C   0  0  0  0  0  0  0  0  0  0  0  0
   60.5460   30.0100   47.6830 C   0  0  0  0  0  0  0  0  0  0  0  0
   60.2850   30.4770   46.3870 O   0  0  0  0  0  0  0  0  0  0  0  0
   59.8800   29.6940   45.2970 C   0  0  0  0  0  0  0  0  0  0  0  0
   60.6590   28.8360   44.7990 O   0  0  0  0  0  0  0  0  0  0  0  0
   58.5030   29.8350   44.7780 C   0  0  0  0  0  0  0  0  0  0  0  0
   58.2100   30.7550   43.7530 C   0  0  0  0  0  0  0  0  0  0  0  0
   56.9050   30.8780   43.2650 C   0  0  0  0  0  0  0  0  0  0  0  0
   55.8830   30.0850   43.7910 C   0  0  0  0  0  0  0  0  0  0  0  0
   56.1620   29.1690   44.8070 C   0  0  0  0  0  0  0  0  0  0  0  0
   57.4640   29.0420   45.3000 C   0  0  0  0  0  0  0  0  0  0  0  0
   60.4050   33.5120   48.5130 S   0  0  0  0  0  0  0  0  0  0  0  0
   61.1820   34.7650   48.8060 O   0  0  0  0  0  0  0  0  0  0  0  0
   59.5560   33.1920   49.7120 O   0  0  0  0  0  0  0  0  0  0  0  0
   59.3680   33.7390   47.1110 C   0  0  0  0  0  0  0  0  0  0  0  0
   58.0760   33.1940   47.1070 C   0  0  0  0  0  0  0  0  0  0  0  0
   57.2500   33.3510   45.9910 C   0  0  0  0  0  0  0  0  0  0  0  0
   57.7100   34.0500   44.8720 C   0  0  0  0  0  0  0  0  0  0  0  0
   58.9990   34.5920   44.8680 C   0  0  0  0  0  0  0  0  0  0  0  0
   59.8290   34.4360   45.9830 C   0  0  0  0  0  0  0  0  0  0  0  0
   63.7155   32.8612   49.7933 H   0  0  0  0  0  0  0  0  0  0  0  0
   65.1267   32.5672   48.7215 H   0  0  0  0  0  0  0  0  0  0  0  0
   64.3175   34.1710   48.7215 H   0  0  0  0  0  0  0  0  0  0  0  0
   61.9206   31.1409   50.6132 H   0  0  0  0  0  0  0  0  0  0  0  0
   61.3395   28.8187   51.3192 H   0  0  0  0  0  0  0  0  0  0  0  0
   60.2845   27.2454   49.6965 H   0  0  0  0  0  0  0  0  0  0  0  0
   59.7804   27.9963   47.3694 H   0  0  0  0  0  0  0  0  0  0  0  0
   59.0119   31.3804   43.3338 H   0  0  0  0  0  0  0  0  0  0  0  0
   56.6834   31.6005   42.4657 H   0  0  0  0  0  0  0  0  0  0  0  0
   54.8577   30.1821   43.4047 H   0  0  0  0  0  0  0  0  0  0  0  0
   55.3555   28.5457   45.2206 H   0  0  0  0  0  0  0  0  0  0  0  0
   57.6776   28.3183   46.1004 H   0  0  0  0  0  0  0  0  0  0  0  0
   57.7116   32.6411   47.9853 H   0  0  0  0  0  0  0  0  0  0  0  0
   56.2364   32.9238   45.9934 H   0  0  0  0  0  0  0  0  0  0  0  0
   57.0583   34.1739   43.9945 H   0  0  0  0  0  0  0  0  0  0  0  0
   59.3608   35.1419   43.9867 H   0  0  0  0  0  0  0  0  0  0  0  0
   60.8440   34.8599   45.9760 H   0  0  0  0  0  0  0  0  0  0  0  0
  1  2  1  0
  2  3  2  0
  2  4  2  0
  2  5  1  0
  5  6  1  0
  6  7  2  0
  7  8  1  0
  8  9  2  0
  9 10  1  0
 10 11  2  0
 11 12  1  0
 12 13  1  0
 13 14  2  0
 13 15  1  0
 15 16  2  0
 16 17  1  0
 17 18  2  0
 18 19  1  0
 19 20  2  0
  5 21  1  0
 21 22  2  0
 21 23  2  0
 21 24  1  0
 24 25  2  0
 25 26  1  0
 26 27  2  0
 27 28  1  0
 28 29  2  0
 11  6  1  0
 20 15  1  0
 29 24  1  0
  1 30  1  0
  1 31  1  0
  1 32  1  0
  7 33  1  0
  8 34  1  0
  9 35  1  0
 10 36  1  0
 16 37  1  0
 17 38  1  0
 18 39  1  0
 19 40  1  0
 20 41  1  0
 25 42  1  0
 26 43  1  0
 27 44  1  0
 28 45  1  0
 29 46  1  0
M  END
>  <UniqueID>  (7) 
6

>  <SMILES>  (7) 
CS(=O)(=O)N(c1ccccc1OC(=O)c1ccccc1)S(=O)(=O)c1ccccc1

>  <Energy>  (7) 
55.89243936689194

>  <Genealogy>  (7) 
CS(=O)(=O)N(c1ccccc1OC(=O)c1ccccc1)S(=O)(=O)c1ccccc1 (3D coordinates assigned)
CS(=O)(=O)N(c1ccccc1OC(=O)c1ccccc1)S(=O)(=O)c1ccccc1 (optimized conformer: 55.89243936689194 kcal/mol)

>  <smiles>  (7) 
CS(=O)(=O)N(c1ccccc1OC(=O)c1ccccc1)S(=O)(=O)c1ccccc1

>  <score_type>  (7) 
oracle

>  <origin>  (7) 
adg

>  <m_score__min__energy>  (7) 
-8.7899999999999991

>  <m_primary>  (7) 
energy

$$$$
7:0
     RDKit          3D

 42 43  0  0  0  0  0  0  0  0999 V2000
   56.2720   30.0600   43.5410 C   0  0  0  0  0  0  0  0  0  0  0  0
   56.1330   29.7500   44.8860 O   0  0  0  0  0  0  0  0  0  0  0  0
   56.6810   28.5420   45.1900 C   0  0  0  0  0  0  0  0  0  0  0  0
   58.1720   28.5070   45.0160 C   0  0  0  0  0  0  0  0  0  0  0  0
   58.8280   29.4740   45.9810 C   0  0  0  0  0  0  0  0  0  0  0  0
   59.3270   29.0260   47.1730 C   0  0  0  0  0  0  0  0  0  0  0  0
   59.9310   29.9560   47.9920 C   0  0  0  0  0  0  0  0  0  0  0  0
   60.0420   31.3120   47.6400 C   0  0  0  0  0  0  0  0  0  0  0  0
   60.6820   32.1280   48.5900 N   0  0  0  0  0  0  0  0  0  0  0  0
   62.0980   32.3560   48.4730 C   0  0  0  0  0  0  0  0  0  0  0  0
   62.9790   32.5240   49.5350 C   0  0  0  0  0  0  0  0  0  0  0  0
   64.2400   32.7120   49.0030 C   0  0  0  0  0  0  0  0  0  0  0  0
   65.2730   32.8980   49.7050 O   0  0  0  0  0  0  0  0  0  0  0  0
   64.1060   32.6560   47.6550 N   0  0  0  0  0  0  0  0  0  0  0  0
   62.8390   32.4440   47.3490 N   0  0  0  0  0  0  0  0  0  0  0  0
   59.5320   31.7670   46.4240 C   0  0  0  0  0  0  0  0  0  0  0  0
   59.6920   33.1340   46.0100 C   0  0  0  0  0  0  0  0  0  0  0  0
   60.8710   33.6680   46.0510 O   0  0  0  0  0  0  0  0  0  0  0  0
   58.7250   34.0460   45.5440 N   0  0  0  0  0  0  0  0  0  0  0  0
   59.2690   35.3740   45.1830 C   0  0  0  0  0  0  0  0  0  0  0  0
   57.3140   33.8930   45.4000 C   0  0  0  0  0  0  0  0  0  0  0  0
   58.9330   30.8210   45.6200 C   0  0  0  0  0  0  0  0  0  0  0  0
   56.7201   31.0594   43.4395 H   0  0  0  0  0  0  0  0  0  0  0  0
   56.9226   29.3157   43.0585 H   0  0  0  0  0  0  0  0  0  0  0  0
   55.2835   30.0507   43.0585 H   0  0  0  0  0  0  0  0  0  0  0  0
   56.4459   28.3055   46.2382 H   0  0  0  0  0  0  0  0  0  0  0  0
   56.2538   27.8053   44.4938 H   0  0  0  0  0  0  0  0  0  0  0  0
   58.5384   27.4890   45.2146 H   0  0  0  0  0  0  0  0  0  0  0  0
   58.4228   28.7986   43.9854 H   0  0  0  0  0  0  0  0  0  0  0  0
   59.2497   27.9685   47.4658 H   0  0  0  0  0  0  0  0  0  0  0  0
   60.3414   29.6243   48.9571 H   0  0  0  0  0  0  0  0  0  0  0  0
   60.2600   32.5990   49.4070 H   0  0  0  0  0  0  0  0  0  0  0  0
   62.7195   32.5098   50.6039 H   0  0  0  0  0  0  0  0  0  0  0  0
   64.8510   32.7530   46.9570 H   0  0  0  0  0  0  0  0  0  0  0  0
   62.4430   32.3490   46.3640 H   0  0  0  0  0  0  0  0  0  0  0  0
   59.4997   35.9372   46.0993 H   0  0  0  0  0  0  0  0  0  0  0  0
   60.1870   35.2455   44.5907 H   0  0  0  0  0  0  0  0  0  0  0  0
   58.5247   35.9265   44.5907 H   0  0  0  0  0  0  0  0  0  0  0  0
   56.8473   33.8424   46.3948 H   0  0  0  0  0  0  0  0  0  0  0  0
   56.9065   34.7522   44.8471 H   0  0  0  0  0  0  0  0  0  0  0  0
   57.1002   32.9664   44.8471 H   0  0  0  0  0  0  0  0  0  0  0  0
   58.5194   31.1396   44.6518 H   0  0  0  0  0  0  0  0  0  0  0  0
  1  2  1  0
  2  3  1  0
  3  4  1  0
  4  5  1  0
  5  6  2  0
  6  7  1  0
  7  8  2  0
  8  9  1  0
  9 10  1  0
 10 11  2  0
 11 12  1  0
 12 13  2  0
 12 14  1  0
 14 15  1  0
  8 16  1  0
 16 17  1  0
 17 18  2  0
 17 19  1  0
 19 20  1  0
 19 21  1  0
 16 22  2  0
 22  5  1  0
 15 10  1  0
  1 23  1  0
  1 24  1  0
  1 25  1  0
  3 26  1  0
  3 27  1  0
  4 28  1  0
  4 29  1  0
  6 30  1  0
  7 31  1  0
  9 32  1  0
 11 33  1  0
 14 34  1  0
 15 35  1  0
 20 36  1  0
 20 37  1  0
 20 38  1  0
 21 39  1  0
 21 40  1  0
 21 41  1  0
 22 42  1  0
M  END
>  <smiles>  (8) 
COCCc1ccc(Nc2cc(=O)[nH][nH]2)c(C(=O)N(C)C)c1

>  <score_type>  (8) 
oracle

>  <origin>  (8) 
adg

>  <m_score__min__energy>  (8) 
-7.0599999999999996

>  <m_primary>  (8) 
energy

$$$$
8:0
     RDKit          3D

 59 62  0  0  0  0  0  0  0  0999 V2000
   56.0481   28.2472   52.6015 H   0  0  0  0  0  0  0  0  0  0  0  0
   56.2100   29.3170   52.4030 C   0  0  0  0  0  0  0  0  0  0  0  0
   57.4240   29.7550   51.9810 N   0  0  0  0  0  0  0  0  0  0  0  0
   57.6490   31.0740   51.7330 C   0  0  0  0  0  0  0  0  0  0  0  0
   58.9060   31.5270   51.3210 O   0  0  0  0  0  0  0  0  0  0  0  0
   59.1440   32.8040   50.7280 C   0  0  0  0  0  0  0  0  0  0  0  0
   60.1720   33.1203   50.9584 H   0  0  0  0  0  0  0  0  0  0  0  0
   58.4160   33.5191   51.1387 H   0  0  0  0  0  0  0  0  0  0  0  0
   58.9660   32.7520   49.2020 C   0  0  0  0  0  0  0  0  0  0  0  0
   59.9255   32.9909   48.7200 H   0  0  0  0  0  0  0  0  0  0  0  0
   58.1964   33.4836   48.9149 H   0  0  0  0  0  0  0  0  0  0  0  0
   58.5410   31.4570   48.7780 O   0  0  0  0  0  0  0  0  0  0  0  0
   58.8940   30.8730   47.5560 C   0  0  0  0  0  0  0  0  0  0  0  0
   57.9370   30.4970   46.6620 N   0  0  0  0  0  0  0  0  0  0  0  0
   58.2450   29.9300   45.4610 C   0  0  0  0  0  0  0  0  0  0  0  0
   57.3100   29.5620   44.6360 N   0  0  0  0  0  0  0  0  0  0  0  0
   56.5050   30.4690   43.8170 C   0  0  0  0  0  0  0  0  0  0  0  0
   56.0056   29.8888   43.0271 H   0  0  0  0  0  0  0  0  0  0  0  0
   55.7675   30.9594   44.4694 H   0  0  0  0  0  0  0  0  0  0  0  0
   57.3680   31.5560   43.1660 C   0  0  0  0  0  0  0  0  0  0  0  0
   58.2885   31.0962   42.7771 H   0  0  0  0  0  0  0  0  0  0  0  0
   56.7870   32.0173   42.3538 H   0  0  0  0  0  0  0  0  0  0  0  0
   57.7380   32.6330   44.1530 C   0  0  0  0  0  0  0  0  0  0  0  0
   58.8890   33.4150   43.9510 C   0  0  0  0  0  0  0  0  0  0  0  0
   59.5080   33.2588   43.0552 H   0  0  0  0  0  0  0  0  0  0  0  0
   59.2490   34.3910   44.8860 C   0  0  0  0  0  0  0  0  0  0  0  0
   60.1472   35.0044   44.7216 H   0  0  0  0  0  0  0  0  0  0  0  0
   58.4690   34.5880   46.0290 C   0  0  0  0  0  0  0  0  0  0  0  0
   58.7519   35.3581   46.7618 H   0  0  0  0  0  0  0  0  0  0  0  0
   57.3300   33.8070   46.2410 C   0  0  0  0  0  0  0  0  0  0  0  0
   56.7182   33.9609   47.1421 H   0  0  0  0  0  0  0  0  0  0  0  0
   56.9670   32.8300   45.3090 C   0  0  0  0  0  0  0  0  0  0  0  0
   56.0731   32.2130   45.4826 H   0  0  0  0  0  0  0  0  0  0  0  0
   59.5850   29.7250   45.1190 C   0  0  0  0  0  0  0  0  0  0  0  0
   59.8482   29.2904   44.1433 H   0  0  0  0  0  0  0  0  0  0  0  0
   60.5850   30.0760   46.0250 C   0  0  0  0  0  0  0  0  0  0  0  0
   61.6407   29.8958   45.7739 H   0  0  0  0  0  0  0  0  0  0  0  0
   60.2490   30.6570   47.2530 C   0  0  0  0  0  0  0  0  0  0  0  0
   61.3020   30.9340   48.2490 C   0  0  0  0  0  0  0  0  0  0  0  0
   62.1180   32.0600   48.0520 C   0  0  0  0  0  0  0  0  0  0  0  0
   61.9662   32.6961   47.1675 H   0  0  0  0  0  0  0  0  0  0  0  0
   63.1200   32.3780   48.9700 C   0  0  0  0  0  0  0  0  0  0  0  0
   63.7553   33.2610   48.8066 H   0  0  0  0  0  0  0  0  0  0  0  0
   63.3160   31.5770   50.0940 C   0  0  0  0  0  0  0  0  0  0  0  0
   64.1033   31.8313   50.8189 H   0  0  0  0  0  0  0  0  0  0  0  0
   62.5150   30.4530   50.3010 C   0  0  0  0  0  0  0  0  0  0  0  0
   62.6784   29.8235   51.1881 H   0  0  0  0  0  0  0  0  0  0  0  0
   61.5020   30.1180   49.3870 C   0  0  0  0  0  0  0  0  0  0  0  0
   60.5380   28.6600   49.6680 S   0  0  0  0  0  0  0  0  0  0  0  0
   60.7770   27.6860   48.5510 O   0  0  0  0  0  0  0  0  0  0  0  0
   60.9400   28.0140   50.9660 O   0  0  0  0  0  0  0  0  0  0  0  0
   58.8590   29.0630   49.7470 N   0  0  0  0  0  0  0  0  0  0  0  0
   58.7820   29.9520   50.2900 H   0  0  0  0  0  0  0  0  0  0  0  0
   58.5500   29.2750   48.7730 H   0  0  0  0  0  0  0  0  0  0  0  0
   56.6380   31.9700   51.8890 N   0  0  0  0  0  0  0  0  0  0  0  0
   55.4090   31.5730   52.3070 C   0  0  0  0  0  0  0  0  0  0  0  0
   54.6031   32.3120   52.4272 H   0  0  0  0  0  0  0  0  0  0  0  0
   55.1690   30.2270   52.5840 C   0  0  0  0  0  0  0  0  0  0  0  0
   53.4590   29.6440   53.1980 Br  0  0  0  0  0  0  0  0  0  0  0  0
  1  2  1  0
  2  3  2  0
  3  4  1  0
  4  5  1  0
  5  6  1  0
  6  7  1  0
  6  8  1  0
  6  9  1  0
  9 10  1  0
  9 11  1  0
  9 12  1  0
 12 13  1  0
 13 14  1  0
 14 15  1  0
 15 16  2  0
 16 17  1  0
 17 18  1  0
 17 19  1  0
 17 20  1  0
 20 21  1  0
 20 22  1  0
 20 23  1  0
 23 24  2  0
 24 25  1  0
 24 26  1  0
 26 27  1  0
 26 28  2  0
 28 29  1  0
 28 30  1  0
 30 31  1  0
 30 32  2  0
 32 33  1  0
 15 34  1  0
 34 35  1  0
 34 36  2  0
 36 37  1  0
 36 38  1  0
 38 39  1  0
 39 40  2  0
 40 41  1  0
 40 42  1  0
 42 43  1  0
 42 44  2  0
 44 45  1  0
 44 46  1  0
 46 47  1  0
 46 48  2  0
 48 49  1  0
 49 50  2  0
 49 51  2  0
 49 52  1  0
 52 53  1  0
 52 54  1  0
  4 55  2  0
 55 56  1  0
 56 57  1  0
 56 58  2  0
 58 59  1  0
 58  2  1  0
 38 13  2  0
 48 39  1  0
 32 23  1  0
M  CHG  1  14  -1
M  END
>  <UniqueID>  (9) 
7

>  <SMILES>  (9) 
NS(=O)(=O)c1ccccc1-c1cc/c(=N/CCc2ccccc2)[n-]c1OCCOc1ncc(Br)cn1

>  <Energy>  (9) 
63.838700600668375

>  <Genealogy>  (9) 
NS(=O)(=O)c1ccccc1-c1ccc(=NCCc2ccccc2)[n-]c1OCCOc1ncc(Br)cn1 (protonated)
NS(=O)(=O)c1ccccc1-c1cc/c(=N/CCc2ccccc2)[n-]c1OCCOc1ncc(Br)cn1 (cis-trans isomerization)
NS(=O)(=O)c1ccccc1-c1cc/c(=N/CCc2ccccc2)[n-]c1OCCOc1ncc(Br)cn1 (3D coordinates assigned)
NS(=O)(=O)c1ccccc1-c1cc/c(=N/CCc2ccccc2)[n-]c1OCCOc1ncc(Br)cn1 (optimized conformer: 63.838700600668375 kcal/mol)

>  <smiles>  (9) 
NS(=O)(=O)c1ccccc1-c1ccc(=NCCc2ccccc2)[nH]c1OCCOc1ncc(Br)cn1

>  <score_type>  (9) 
oracle

>  <origin>  (9) 
adg

>  <m_score__min__energy>  (9) 
-10.07

>  <m_primary>  (9) 
energy

$$$$
9:0
     RDKit          3D

 45 47  0  0  0  0  0  0  0  0999 V2000
   54.7380   26.3430   45.9820 N   0  0  0  0  0  0  0  0  0  0  0  0
   55.7270   24.9280   45.8720 S   0  0  0  0  0  0  0  0  0  0  0  0
   55.6730   24.1610   47.1630 O   0  0  0  0  0  0  0  0  0  0  0  0
   55.2170   24.0560   44.7600 O   0  0  0  0  0  0  0  0  0  0  0  0
   57.3410   25.3810   45.5330 O   0  0  0  0  0  0  0  0  0  0  0  0
   58.0030   26.4720   46.1140 C   0  0  0  0  0  0  0  0  0  0  0  0
   57.8070   27.7390   45.5540 C   0  0  0  0  0  0  0  0  0  0  0  0
   58.4370   28.8640   46.0940 C   0  0  0  0  0  0  0  0  0  0  0  0
   59.2710   28.7360   47.2180 C   0  0  0  0  0  0  0  0  0  0  0  0
   59.9540   29.8700   47.7790 N   0  0  0  0  0  0  0  0  0  0  0  0
   61.0580   30.5380   47.1420 C   0  0  0  0  0  0  0  0  0  0  0  0
   61.5340   30.0940   46.0610 O   0  0  0  0  0  0  0  0  0  0  0  0
   61.6650   31.7460   47.7470 C   0  0  0  0  0  0  0  0  0  0  0  0
   62.9350   32.1590   47.3100 C   0  0  0  0  0  0  0  0  0  0  0  0
   63.5420   33.2890   47.8600 C   0  0  0  0  0  0  0  0  0  0  0  0
   62.8850   34.0220   48.8480 C   0  0  0  0  0  0  0  0  0  0  0  0
   61.6150   33.6370   49.2790 C   0  0  0  0  0  0  0  0  0  0  0  0
   60.9820   32.5070   48.7230 C   0  0  0  0  0  0  0  0  0  0  0  0
   59.6790   32.1300   49.0960 O   0  0  0  0  0  0  0  0  0  0  0  0
   58.4750   32.7790   48.6880 C   0  0  0  0  0  0  0  0  0  0  0  0
   58.5430   33.1530   47.2320 C   0  0  0  0  0  0  0  0  0  0  0  0
   58.0520   32.2810   46.2430 C   0  0  0  0  0  0  0  0  0  0  0  0
   58.1230   32.6370   44.8930 C   0  0  0  0  0  0  0  0  0  0  0  0
   58.6910   33.8590   44.5180 C   0  0  0  0  0  0  0  0  0  0  0  0
   59.1920   34.7250   45.4960 C   0  0  0  0  0  0  0  0  0  0  0  0
   59.1210   34.3740   46.8470 C   0  0  0  0  0  0  0  0  0  0  0  0
   59.4890   27.4650   47.7650 C   0  0  0  0  0  0  0  0  0  0  0  0
   58.8540   26.3420   47.2280 C   0  0  0  0  0  0  0  0  0  0  0  0
   55.1590   27.0640   45.3500 H   0  0  0  0  0  0  0  0  0  0  0  0
   57.1498   27.8512   44.6790 H   0  0  0  0  0  0  0  0  0  0  0  0
   58.2795   29.8525   45.6378 H   0  0  0  0  0  0  0  0  0  0  0  0
   59.5830   30.2540   48.6760 H   0  0  0  0  0  0  0  0  0  0  0  0
   63.4552   31.5868   46.5277 H   0  0  0  0  0  0  0  0  0  0  0  0
   64.5384   33.6014   47.5143 H   0  0  0  0  0  0  0  0  0  0  0  0
   63.3693   34.9059   49.2886 H   0  0  0  0  0  0  0  0  0  0  0  0
   61.1036   34.2201   50.0591 H   0  0  0  0  0  0  0  0  0  0  0  0
   57.6255   32.0986   48.8473 H   0  0  0  0  0  0  0  0  0  0  0  0
   58.3457   33.6945   49.2840 H   0  0  0  0  0  0  0  0  0  0  0  0
   57.6108   31.3160   46.5330 H   0  0  0  0  0  0  0  0  0  0  0  0
   57.7314   31.9548   44.1241 H   0  0  0  0  0  0  0  0  0  0  0  0
   58.7437   34.1388   43.4555 H   0  0  0  0  0  0  0  0  0  0  0  0
   59.6427   35.6841   45.2010 H   0  0  0  0  0  0  0  0  0  0  0  0
   59.5194   35.0567   47.6120 H   0  0  0  0  0  0  0  0  0  0  0  0
   60.1658   27.3499   48.6245 H   0  0  0  0  0  0  0  0  0  0  0  0
   59.0198   25.3519   47.6777 H   0  0  0  0  0  0  0  0  0  0  0  0
  1  2  1  0
  2  3  2  0
  2  4  2  0
  2  5  1  0
  5  6  1  0
  6  7  2  0
  7  8  1  0
  8  9  2  0
  9 10  1  0
 10 11  1  0
 11 12  2  0
 11 13  1  0
 13 14  2  0
 14 15  1  0
 15 16  2  0
 16 17  1  0
 17 18  2  0
 18 19  1  0
 19 20  1  0
 20 21  1  0
 21 22  2  0
 22 23  1  0
 23 24  2  0
 24 25  1  0
 25 26  2  0
  9 27  1  0
 27 28  2  0
 28  6  1  0
 18 13  1  0
 26 21  1  0
  1 29  1  0
  7 30  1  0
  8 31  1  0
 10 32  1  0
 14 33  1  0
 15 34  1  0
 16 35  1  0
 17 36  1  0
 20 37  1  0
 20 38  1  0
 22 39  1  0
 23 40  1  0
 24 41  1  0
 25 42  1  0
 26 43  1  0
 27 44  1  0
 28 45  1  0
M  CHG  1   1  -1
M  END
>  <UniqueID>  (10) 
8

>  <SMILES>  (10) 
[NH-]S(=O)(=O)Oc1ccc(NC(=O)c2ccccc2OCc2ccccc2)cc1

>  <Energy>  (10) 
54.38908210957463

>  <Genealogy>  (10) 
[NH-]S(=O)(=O)Oc1ccc(NC(=O)c2ccccc2OCc2ccccc2)cc1 (protonated)
[NH-]S(=O)(=O)Oc1ccc(NC(=O)c2ccccc2OCc2ccccc2)cc1 (3D coordinates assigned)
[NH-]S(=O)(=O)Oc1ccc(NC(=O)c2ccccc2OCc2ccccc2)cc1 (optimized conformer: 54.38908210957463 kcal/mol)

>  <smiles>  (10) 
NS(=O)(=O)Oc1ccc(NC(=O)c2ccccc2OCc2ccccc2)cc1

>  <score_type>  (10) 
oracle

>  <origin>  (10) 
adg

>  <m_score__min__energy>  (10) 
-11.65

>  <m_primary>  (10) 
energy

$$$$
10:0
     RDKit          3D

 42 44  0  0  0  0  0  0  0  0999 V2000
   56.6870   24.1580   47.0670 C   0  0  0  0  0  0  0  0  0  0  0  0
   57.2680   25.4140   46.5810 N   0  0  0  0  0  0  0  0  0  0  0  0
   58.6290   25.5360   46.5030 C   0  0  0  0  0  0  0  0  0  0  0  0
   59.2130   26.6930   45.9870 C   0  0  0  0  0  0  0  0  0  0  0  0
   58.4000   27.7330   45.5450 C   0  0  0  0  0  0  0  0  0  0  0  0
   57.0120   27.6230   45.6420 C   0  0  0  0  0  0  0  0  0  0  0  0
   56.1850   28.6980   45.1700 N   0  0  0  0  0  0  0  0  0  0  0  0
   56.6980   29.8750   44.5250 C   0  0  0  0  0  0  0  0  0  0  0  0
   56.5010   30.0500   43.1490 C   0  0  0  0  0  0  0  0  0  0  0  0
   57.0300   31.1670   42.4970 C   0  0  0  0  0  0  0  0  0  0  0  0
   57.7630   32.1170   43.2130 C   0  0  0  0  0  0  0  0  0  0  0  0
   57.9820   31.9550   44.5920 C   0  0  0  0  0  0  0  0  0  0  0  0
   58.7770   32.9550   45.3460 C   0  0  0  0  0  0  0  0  0  0  0  0
   58.2300   34.5020   45.4480 S   0  0  0  0  0  0  0  0  0  0  0  0
   59.9510   32.5620   46.0880 N   0  0  0  0  0  0  0  0  0  0  0  0
   59.8240   32.8860   47.4900 C   0  0  0  0  0  0  0  0  0  0  0  0
   60.6290   33.8860   48.0660 C   0  0  0  0  0  0  0  0  0  0  0  0
   60.5070   34.2010   49.4220 C   0  0  0  0  0  0  0  0  0  0  0  0
   59.5970   33.5060   50.2220 C   0  0  0  0  0  0  0  0  0  0  0  0
   58.8100   32.4930   49.6680 C   0  0  0  0  0  0  0  0  0  0  0  0
   58.9250   32.1770   48.3110 C   0  0  0  0  0  0  0  0  0  0  0  0
   57.4510   30.8270   45.2380 C   0  0  0  0  0  0  0  0  0  0  0  0
   56.4540   26.4320   46.1500 C   0  0  0  0  0  0  0  0  0  0  0  0
   55.1990   26.2960   46.1840 O   0  0  0  0  0  0  0  0  0  0  0  0
   56.6860   24.1559   48.1670 H   0  0  0  0  0  0  0  0  0  0  0  0
   55.6545   24.0651   46.6992 H   0  0  0  0  0  0  0  0  0  0  0  0
   57.2848   23.3110   46.6992 H   0  0  0  0  0  0  0  0  0  0  0  0
   59.2696   24.7123   46.8512 H   0  0  0  0  0  0  0  0  0  0  0  0
   60.3078   26.7829   45.9298 H   0  0  0  0  0  0  0  0  0  0  0  0
   58.8514   28.6413   45.1194 H   0  0  0  0  0  0  0  0  0  0  0  0
   55.1460   28.5810   45.2440 H   0  0  0  0  0  0  0  0  0  0  0  0
   55.9271   29.3045   42.5791 H   0  0  0  0  0  0  0  0  0  0  0  0
   56.8689   31.2988   41.4169 H   0  0  0  0  0  0  0  0  0  0  0  0
   58.1712   32.9970   42.6944 H   0  0  0  0  0  0  0  0  0  0  0  0
   60.1080   31.5310   45.9950 H   0  0  0  0  0  0  0  0  0  0  0  0
   60.7860   33.0350   45.6710 H   0  0  0  0  0  0  0  0  0  0  0  0
   61.3599   34.4239   47.4443 H   0  0  0  0  0  0  0  0  0  0  0  0
   61.1279   34.9966   49.8596 H   0  0  0  0  0  0  0  0  0  0  0  0
   59.4999   33.7563   51.2887 H   0  0  0  0  0  0  0  0  0  0  0  0
   58.0983   31.9429   50.3011 H   0  0  0  0  0  0  0  0  0  0  0  0
   58.3109   31.3713   47.8824 H   0  0  0  0  0  0  0  0  0  0  0  0
   57.6256   30.6855   46.3148 H   0  0  0  0  0  0  0  0  0  0  0  0
  1  2  1  0
  2  3  1  0
  3  4  2  0
  4  5  1  0
  5  6  2  0
  6  7  1  0
  7  8  1  0
  8  9  2  0
  9 10  1  0
 10 11  2  0
 11 12  1  0
 12 13  1  0
 13 14  2  0
 13 15  1  0
 15 16  1  0
 16 17  2  0
 17 18  1  0
 18 19  2  0
 19 20  1  0
 20 21  2  0
 12 22  2  0
  6 23  1  0
 23 24  2  0
 23  2  1  0
 22  8  1  0
 21 16  1  0
  1 25  1  0
  1 26  1  0
  1 27  1  0
  3 28  1  0
  4 29  1  0
  5 30  1  0
  7 31  1  0
  9 32  1  0
 10 33  1  0
 11 34  1  0
 15 35  1  0
 15 36  1  0
 17 37  1  0
 18 38  1  0
 19 39  1  0
 20 40  1  0
 21 41  1  0
 22 42  1  0
M  CHG  1  15   1
M  END
>  <UniqueID>  (11) 
9

>  <SMILES>  (11) 
Cn1cccc(Nc2cccc(C(=S)[NH2+]c3ccccc3)c2)c1=O

>  <Energy>  (11) 
58.17827689674261

>  <Genealogy>  (11) 
Cn1cccc(Nc2cccc(C(=S)[NH2+]c3ccccc3)c2)c1=O (protonated)
Cn1cccc(Nc2cccc(C(=S)[NH2+]c3ccccc3)c2)c1=O (3D coordinates assigned)
Cn1cccc(Nc2cccc(C(=S)[NH2+]c3ccccc3)c2)c1=O (optimized conformer: 58.17827689674261 kcal/mol)

>  <smiles>  (11) 
Cn1cccc(Nc2cccc(C(=S)Nc3ccccc3)c2)c1=O

>  <score_type>  (11) 
oracle

>  <origin>  (11) 
adg

>  <m_score__min__energy>  (11) 
-7.96

>  <m_primary>  (11) 
energy

$$$$
11:0
     RDKit          3D

 49 52  0  0  0  0  0  0  0  0999 V2000
   64.5648   33.1967   47.9242 H   0  0  0  0  0  0  0  0  0  0  0  0
   63.6920   33.0830   48.5840 C   0  0  0  0  0  0  0  0  0  0  0  0
   63.8660   32.4660   49.7640 C   0  0  0  0  0  0  0  0  0  0  0  0
   64.6198   32.8715   50.4550 H   0  0  0  0  0  0  0  0  0  0  0  0
   63.1000   31.2690   50.1890 C   0  0  0  0  0  0  0  0  0  0  0  0
   63.4690   30.4910   51.3040 C   0  0  0  0  0  0  0  0  0  0  0  0
   64.3574   30.7644   51.8922 H   0  0  0  0  0  0  0  0  0  0  0  0
   62.7130   29.3750   51.6660 C   0  0  0  0  0  0  0  0  0  0  0  0
   63.0007   28.7806   52.5457 H   0  0  0  0  0  0  0  0  0  0  0  0
   61.5940   29.0100   50.9170 C   0  0  0  0  0  0  0  0  0  0  0  0
   60.9966   28.1368   51.2180 H   0  0  0  0  0  0  0  0  0  0  0  0
   61.2250   29.7490   49.7820 C   0  0  0  0  0  0  0  0  0  0  0  0
   60.0350   29.3430   48.9960 C   0  0  0  0  0  0  0  0  0  0  0  0
   58.9300   29.9030   49.2320 O   0  0  0  0  0  0  0  0  0  0  0  0
   60.1280   28.3330   47.9720 N   0  0  0  0  0  0  0  0  0  0  0  0
   61.0640   27.9450   47.7240 H   0  0  0  0  0  0  0  0  0  0  0  0
   59.0080   27.8770   47.1950 C   0  0  0  0  0  0  0  0  0  0  0  0
   58.6690   26.5140   47.1280 C   0  0  0  0  0  0  0  0  0  0  0  0
   59.2524   25.7754   47.6973 H   0  0  0  0  0  0  0  0  0  0  0  0
   57.5940   26.0950   46.3410 C   0  0  0  0  0  0  0  0  0  0  0  0
   57.3306   25.0279   46.2966 H   0  0  0  0  0  0  0  0  0  0  0  0
   56.8520   27.0260   45.6100 C   0  0  0  0  0  0  0  0  0  0  0  0
   56.0064   26.6884   44.9928 H   0  0  0  0  0  0  0  0  0  0  0  0
   57.1800   28.3910   45.6590 C   0  0  0  0  0  0  0  0  0  0  0  0
   56.4020   29.3710   44.8640 C   0  0  0  0  0  0  0  0  0  0  0  0
   55.1440   29.3110   44.8740 O   0  0  0  0  0  0  0  0  0  0  0  0
   57.0340   30.3600   44.0340 N   0  0  0  0  0  0  0  0  0  0  0  0
   57.3250   31.5750   44.3930 C   0  0  0  0  0  0  0  0  0  0  0  0
   57.0110   32.1110   45.5930 N   0  0  0  0  0  0  0  0  0  0  0  0
   57.4150   33.4060   45.6790 C   0  0  0  0  0  0  0  0  0  0  0  0
   57.2579   34.0145   46.5818 H   0  0  0  0  0  0  0  0  0  0  0  0
   58.0410   33.9050   44.5430 C   0  0  0  0  0  0  0  0  0  0  0  0
   58.4361   34.9241   44.4192 H   0  0  0  0  0  0  0  0  0  0  0  0
   58.0900   32.6800   43.3890 S   0  0  0  0  0  0  0  0  0  0  0  0
   58.2780   28.8030   46.4350 C   0  0  0  0  0  0  0  0  0  0  0  0
   58.5679   29.8640   46.4462 H   0  0  0  0  0  0  0  0  0  0  0  0
   61.9820   30.8810   49.4290 C   0  0  0  0  0  0  0  0  0  0  0  0
   61.6954   31.4711   48.5460 H   0  0  0  0  0  0  0  0  0  0  0  0
   62.3890   33.6200   48.1200 C   0  0  0  0  0  0  0  0  0  0  0  0
   61.4560   34.0450   49.0830 C   0  0  0  0  0  0  0  0  0  0  0  0
   61.7069   33.9796   50.1520 H   0  0  0  0  0  0  0  0  0  0  0  0
   60.2120   34.5500   48.6920 C   0  0  0  0  0  0  0  0  0  0  0  0
   59.4934   34.8882   49.4531 H   0  0  0  0  0  0  0  0  0  0  0  0
   59.8800   34.6260   47.3390 C   0  0  0  0  0  0  0  0  0  0  0  0
   58.9030   35.0290   47.0339 H   0  0  0  0  0  0  0  0  0  0  0  0
   60.7890   34.1900   46.3720 C   0  0  0  0  0  0  0  0  0  0  0  0
   60.5234   34.2432   45.3059 H   0  0  0  0  0  0  0  0  0  0  0  0
   62.0360   33.6860   46.7560 C   0  0  0  0  0  0  0  0  0  0  0  0
   62.7453   33.3392   45.9900 H   0  0  0  0  0  0  0  0  0  0  0  0
  1  2  1  0
  2  3  2  0
  3  4  1  0
  3  5  1  0
  5  6  2  0
  6  7  1  0
  6  8  1  0
  8  9  1  0
  8 10  2  0
 10 11  1  0
 10 12  1  0
 12 13  1  0
 13 14  2  0
 13 15  1  0
 15 16  1  0
 15 17  1  0
 17 18  2  0
 18 19  1  0
 18 20  1  0
 20 21  1  0
 20 22  2  0
 22 23  1  0
 22 24  1  0
 24 25  1  0
 25 26  2  0
 25 27  1  0
 27 28  2  3
 28 29  1  0
 29 30  1  0
 30 31  1  0
 30 32  2  0
 32 33  1  0
 32 34  1  0
 24 35  2  0
 35 36  1  0
 12 37  2  0
 37 38  1  0
  2 39  1  0
 39 40  2  0
 40 41  1  0
 40 42  1  0
 42 43  1  0
 42 44  2  0
 44 45  1  0
 44 46  1  0
 46 47  1  0
 46 48  2  0
 48 49  1  0
 37  5  1  0
 48 39  1  0
 35 17  1  0
 34 28  1  0
M  CHG  1  29  -1
M  END
>  <UniqueID>  (12) 
10

>  <SMILES>  (12) 
O=C(N=c1[n-]ccs1)c1cccc(NC(=O)c2cccc(/C=C/c3ccccc3)c2)c1

>  <Energy>  (12) 
103.27476065414022

>  <Genealogy>  (12) 
O=C(N=c1[n-]ccs1)c1cccc(NC(=O)c2cccc(C=Cc3ccccc3)c2)c1 (protonated)
O=C(N=c1[n-]ccs1)c1cccc(NC(=O)c2cccc(/C=C/c3ccccc3)c2)c1 (cis-trans isomerization)
O=C(N=c1[n-]ccs1)c1cccc(NC(=O)c2cccc(/C=C/c3ccccc3)c2)c1 (3D coordinates assigned)
O=C(N=c1[n-]ccs1)c1cccc(NC(=O)c2cccc(/C=C/c3ccccc3)c2)c1 (optimized conformer: 103.27476065414022 kcal/mol)

>  <smiles>  (12) 
O=C(N=c1[nH]ccs1)c1cccc(NC(=O)c2cccc(C=Cc3ccccc3)c2)c1

>  <score_type>  (12) 
oracle

>  <origin>  (12) 
adg

>  <m_score__min__energy>  (12) 
-12.4

>  <m_primary>  (12) 
energy

$$$$
12:0
     RDKit          3D

 36 37  0  0  0  0  0  0  0  0999 V2000
   55.1320   29.3850   44.8950 N   0  0  0  0  0  0  0  0  0  0  0  0
   56.1720   29.5920   43.9450 C   0  0  0  0  0  0  0  0  0  0  0  0
   55.9000   29.6450   42.7150 O   0  0  0  0  0  0  0  0  0  0  0  0
   57.5830   29.7820   44.4070 C   0  0  0  0  0  0  0  0  0  0  0  0
   57.6180   30.4740   45.6560 O   0  0  0  0  0  0  0  0  0  0  0  0
   57.9770   31.8210   45.8330 C   0  0  0  0  0  0  0  0  0  0  0  0
   57.1810   32.8780   45.3450 C   0  0  0  0  0  0  0  0  0  0  0  0
   57.5370   34.2050   45.5950 C   0  0  0  0  0  0  0  0  0  0  0  0
   58.6820   34.4950   46.3380 C   0  0  0  0  0  0  0  0  0  0  0  0
   59.4850   33.4590   46.8160 C   0  0  0  0  0  0  0  0  0  0  0  0
   59.1600   32.1250   46.5420 C   0  0  0  0  0  0  0  0  0  0  0  0
   60.0150   31.0910   47.0480 N   0  0  0  0  0  0  0  0  0  0  0  0
   59.6700   29.7050   47.1790 C   0  0  0  0  0  0  0  0  0  0  0  0
   58.7140   29.3850   47.9320 O   0  0  0  0  0  0  0  0  0  0  0  0
   60.4470   28.6210   46.4920 C   0  0  0  0  0  0  0  0  0  0  0  0
   59.5430   27.6800   45.9250 O   0  0  0  0  0  0  0  0  0  0  0  0
   59.0560   26.5740   46.6290 C   0  0  0  0  0  0  0  0  0  0  0  0
   59.7940   25.9930   47.4710 O   0  0  0  0  0  0  0  0  0  0  0  0
   57.6820   26.0730   46.3760 C   0  0  0  0  0  0  0  0  0  0  0  0
   56.6220   26.9770   46.1990 C   0  0  0  0  0  0  0  0  0  0  0  0
   55.3620   26.5220   45.9780 N   0  0  0  0  0  0  0  0  0  0  0  0
   55.0990   25.1920   45.9190 C   0  0  0  0  0  0  0  0  0  0  0  0
   53.9240   24.7920   45.7140 O   0  0  0  0  0  0  0  0  0  0  0  0
   56.1030   24.2940   46.0810 N   0  0  0  0  0  0  0  0  0  0  0  0
   57.3810   24.6980   46.3040 C   0  0  0  0  0  0  0  0  0  0  0  0
   58.2810   23.8260   46.4390 O   0  0  0  0  0  0  0  0  0  0  0  0
   55.2230   28.6600   45.6410 H   0  0  0  0  0  0  0  0  0  0  0  0
   58.0592   28.7976   44.5264 H   0  0  0  0  0  0  0  0  0  0  0  0
   58.1225   30.3794   43.6573 H   0  0  0  0  0  0  0  0  0  0  0  0
   56.2739   32.6557   44.7638 H   0  0  0  0  0  0  0  0  0  0  0  0
   56.9136   35.0233   45.2054 H   0  0  0  0  0  0  0  0  0  0  0  0
   58.9516   35.5408   46.5469 H   0  0  0  0  0  0  0  0  0  0  0  0
   60.3796   33.6919   47.4122 H   0  0  0  0  0  0  0  0  0  0  0  0
   61.0662   29.0609   45.6963 H   0  0  0  0  0  0  0  0  0  0  0  0
   61.0958   28.1144   47.2216 H   0  0  0  0  0  0  0  0  0  0  0  0
   56.8135   28.0594   46.2396 H   0  0  0  0  0  0  0  0  0  0  0  0
  1  2  1  0
  2  3  2  0
  2  4  1  0
  4  5  1  0
  5  6  1  0
  6  7  2  0
  7  8  1  0
  8  9  2  0
  9 10  1  0
 10 11  2  0
 11 12  1  0
 12 13  1  0
 13 14  2  0
 13 15  1  0
 15 16  1  0
 16 17  1  0
 17 18  2  0
 17 19  1  0
 19 20  2  0
 20 21  1  0
 21 22  1  0
 22 23  2  0
 22 24  1  0
 24 25  1  0
 25 26  2  0
 11  6  1  0
 25 19  1  0
  1 27  1  0
  4 28  1  0
  4 29  1  0
  7 30  1  0
  8 31  1  0
  9 32  1  0
 10 33  1  0
 15 34  1  0
 15 35  1  0
 20 36  1  0
M  CHG  4   1  -1  12  -1  21  -1  24  -1
M  END
>  <UniqueID>  (13) 
11

>  <SMILES>  (13) 
[NH-]C(=O)COc1ccccc1[N-]C(=O)COC(=O)c1c[n-]c(=O)[n-]c1=O

>  <Energy>  (13) 
40.60439523328989

>  <Genealogy>  (13) 
[NH-]C(=O)COc1ccccc1[N-]C(=O)COC(=O)c1c[n-]c(=O)[n-]c1=O (protonated)
[NH-]C(=O)COc1ccccc1[N-]C(=O)COC(=O)c1c[n-]c(=O)[n-]c1=O (3D coordinates assigned)
[NH-]C(=O)COc1ccccc1[N-]C(=O)COC(=O)c1c[n-]c(=O)[n-]c1=O (optimized conformer: 40.60439523328989 kcal/mol)

>  <smiles>  (13) 
NC(=O)COc1ccccc1NC(=O)COC(=O)c1c[nH]c(=O)[nH]c1=O

>  <score_type>  (13) 
oracle

>  <origin>  (13) 
adg

>  <m_score__min__energy>  (13) 
-14.81

>  <m_primary>  (13) 
energy

$$$$
13:0
     RDKit          3D

 47 50  0  0  0  0  0  0  0  0999 V2000
   56.9920   33.8690   46.1290 O   0  0  0  0  0  0  0  0  0  0  0  0
   58.1890   33.4800   46.2040 C   0  0  0  0  0  0  0  0  0  0  0  0
   59.0910   34.0810   47.2330 C   0  0  0  0  0  0  0  0  0  0  0  0
   60.8210   33.6910   46.8180 S   0  0  0  0  0  0  0  0  0  0  0  0
   60.9980   32.5080   48.1530 C   0  0  0  0  0  0  0  0  0  0  0  0
   60.6120   32.8480   49.3440 N   0  0  0  0  0  0  0  0  0  0  0  0
   59.5450   32.2590   50.1040 C   0  0  0  0  0  0  0  0  0  0  0  0
   58.8590   33.0880   51.0020 C   0  0  0  0  0  0  0  0  0  0  0  0
   57.8590   32.5740   51.8280 C   0  0  0  0  0  0  0  0  0  0  0  0
   57.5510   31.2160   51.7860 C   0  0  0  0  0  0  0  0  0  0  0  0
   58.2420   30.3700   50.9170 C   0  0  0  0  0  0  0  0  0  0  0  0
   59.2300   30.8740   50.0600 C   0  0  0  0  0  0  0  0  0  0  0  0
   59.9460   29.9250   49.2500 N   0  0  0  0  0  0  0  0  0  0  0  0
   60.4600   30.1190   48.0710 C   0  0  0  0  0  0  0  0  0  0  0  0
   59.9450   29.3170   46.9350 C   0  0  0  0  0  0  0  0  0  0  0  0
   60.5540   29.4190   45.6710 C   0  0  0  0  0  0  0  0  0  0  0  0
   60.0830   28.6630   44.5930 C   0  0  0  0  0  0  0  0  0  0  0  0
   59.0050   27.7920   44.7670 C   0  0  0  0  0  0  0  0  0  0  0  0
   58.5530   27.0560   43.7210 F   0  0  0  0  0  0  0  0  0  0  0  0
   58.4030   27.6680   46.0210 C   0  0  0  0  0  0  0  0  0  0  0  0
   58.8710   28.4210   47.1020 C   0  0  0  0  0  0  0  0  0  0  0  0
   61.5400   31.1450   47.8610 C   0  0  0  0  0  0  0  0  0  0  0  0
   58.6890   32.4680   45.3160 N   0  0  0  0  0  0  0  0  0  0  0  0
   57.8590   31.6670   44.4580 C   0  0  0  0  0  0  0  0  0  0  0  0
   57.7900   31.9690   43.0890 C   0  0  0  0  0  0  0  0  0  0  0  0
   57.0020   31.1950   42.2310 C   0  0  0  0  0  0  0  0  0  0  0  0
   56.2900   30.1010   42.7300 C   0  0  0  0  0  0  0  0  0  0  0  0
   56.3710   29.7770   44.0860 C   0  0  0  0  0  0  0  0  0  0  0  0
   57.1560   30.5500   44.9480 C   0  0  0  0  0  0  0  0  0  0  0  0
   58.9541   35.1723   47.2494 H   0  0  0  0  0  0  0  0  0  0  0  0
   58.8474   33.6682   48.2231 H   0  0  0  0  0  0  0  0  0  0  0  0
   59.1121   34.1571   51.0562 H   0  0  0  0  0  0  0  0  0  0  0  0
   57.3139   33.2408   52.5122 H   0  0  0  0  0  0  0  0  0  0  0  0
   56.7632   30.8104   52.4377 H   0  0  0  0  0  0  0  0  0  0  0  0
   58.0084   29.2952   50.9046 H   0  0  0  0  0  0  0  0  0  0  0  0
   61.4073   30.0987   45.5295 H   0  0  0  0  0  0  0  0  0  0  0  0
   60.5619   28.7543   43.6070 H   0  0  0  0  0  0  0  0  0  0  0  0
   57.5588   26.9764   46.1585 H   0  0  0  0  0  0  0  0  0  0  0  0
   58.3976   28.3131   48.0890 H   0  0  0  0  0  0  0  0  0  0  0  0
   62.3826   30.9334   48.5357 H   0  0  0  0  0  0  0  0  0  0  0  0
   61.8858   31.1043   46.8176 H   0  0  0  0  0  0  0  0  0  0  0  0
   59.7250   32.3630   45.2320 H   0  0  0  0  0  0  0  0  0  0  0  0
   58.3596   32.8204   42.6881 H   0  0  0  0  0  0  0  0  0  0  0  0
   56.9426   31.4477   41.1621 H   0  0  0  0  0  0  0  0  0  0  0  0
   55.6665   29.4958   42.0555 H   0  0  0  0  0  0  0  0  0  0  0  0
   55.8160   28.9116   44.4773 H   0  0  0  0  0  0  0  0  0  0  0  0
   57.2243   30.2840   46.0132 H   0  0  0  0  0  0  0  0  0  0  0  0
  1  2  2  0
  2  3  1  0
  3  4  1  0
  4  5  1  0
  5  6  2  0
  6  7  1  0
  7  8  2  0
  8  9  1  0
  9 10  2  0
 10 11  1  0
 11 12  2  0
 12 13  1  0
 13 14  2  0
 14 15  1  0
 15 16  2  0
 16 17  1  0
 17 18  2  0
 18 19  1  0
 18 20  1  0
 20 21  2  0
 14 22  1  0
  2 23  1  0
 23 24  1  0
 24 25  2  0
 25 26  1  0
 26 27  2  0
 27 28  1  0
 28 29  2  0
 22  5  1  0
 29 24  1  0
 12  7  1  0
 21 15  1  0
  3 30  1  0
  3 31  1  0
  8 32  1  0
  9 33  1  0
 10 34  1  0
 11 35  1  0
 16 36  1  0
 17 37  1  0
 20 38  1  0
 21 39  1  0
 22 40  1  0
 22 41  1  0
 23 42  1  0
 25 43  1  0
 26 44  1  0
 27 45  1  0
 28 46  1  0
 29 47  1  0
M  END
>  <UniqueID>  (14) 
12

>  <SMILES>  (14) 
O=C(CSC1=Nc2ccccc2N=C(c2ccc(F)cc2)C1)Nc1ccccc1

>  <Energy>  (14) 
63.856897669630065

>  <Genealogy>  (14) 
O=C(CSC1=Nc2ccccc2N=C(c2ccc(F)cc2)C1)Nc1ccccc1 (3D coordinates assigned)
O=C(CSC1=Nc2ccccc2N=C(c2ccc(F)cc2)C1)Nc1ccccc1 (nonaromatic ring conformer: 63.856897669630065 kcal/mol)

>  <smiles>  (14) 
O=C(CSC1=Nc2ccccc2N=C(c2ccc(F)cc2)C1)Nc1ccccc1

>  <score_type>  (14) 
oracle

>  <origin>  (14) 
adg

>  <m_score__min__energy>  (14) 
-6.79

>  <m_primary>  (14) 
energy

$$$$
14:0
     RDKit          3D

 49 51  0  0  0  0  0  0  0  0999 V2000
   59.6440   35.2880   46.3250 C   0  0  0  0  0  0  0  0  0  0  0  0
   59.3800   34.0090   47.0100 N   0  0  0  0  0  0  0  0  0  0  0  0
   58.9740   32.9160   46.2870 C   0  0  0  0  0  0  0  0  0  0  0  0
   58.7890   32.9620   44.4920 S   0  0  0  0  0  0  0  0  0  0  0  0
   57.0320   32.4350   44.5000 C   0  0  0  0  0  0  0  0  0  0  0  0
   56.8470   30.9410   44.3960 C   0  0  0  0  0  0  0  0  0  0  0  0
   55.6880   30.4660   44.5510 O   0  0  0  0  0  0  0  0  0  0  0  0
   57.9470   30.0580   44.1260 N   0  0  0  0  0  0  0  0  0  0  0  0
   58.2310   28.8490   44.8570 C   0  0  0  0  0  0  0  0  0  0  0  0
   59.5300   28.6430   45.3520 C   0  0  0  0  0  0  0  0  0  0  0  0
   59.8410   27.4950   46.0880 C   0  0  0  0  0  0  0  0  0  0  0  0
   58.8640   26.5340   46.3220 C   0  0  0  0  0  0  0  0  0  0  0  0
   57.5610   26.7220   45.8440 C   0  0  0  0  0  0  0  0  0  0  0  0
   56.3400   25.4840   46.1460 S   0  0  0  0  0  0  0  0  0  0  0  0
   54.7620   26.1740   45.9790 N   0  0  0  0  0  0  0  0  0  0  0  0
   56.4860   24.3490   45.1690 O   0  0  0  0  0  0  0  0  0  0  0  0
   56.5140   24.9450   47.5430 O   0  0  0  0  0  0  0  0  0  0  0  0
   57.2410   27.8870   45.1290 C   0  0  0  0  0  0  0  0  0  0  0  0
   58.7160   31.7430   46.9160 N   0  0  0  0  0  0  0  0  0  0  0  0
   58.8510   31.6080   48.2550 C   0  0  0  0  0  0  0  0  0  0  0  0
   59.3250   32.6710   49.0260 C   0  0  0  0  0  0  0  0  0  0  0  0
   59.4840   32.5310   50.5030 C   0  0  0  0  0  0  0  0  0  0  0  0
   58.4560   32.4530   51.2300 O   0  0  0  0  0  0  0  0  0  0  0  0
   60.7660   32.3880   51.1340 N   0  0  0  0  0  0  0  0  0  0  0  0
   62.0600   32.6240   50.5640 C   0  0  0  0  0  0  0  0  0  0  0  0
   62.9390   33.5880   51.0900 C   0  0  0  0  0  0  0  0  0  0  0  0
   64.1870   33.7950   50.4980 C   0  0  0  0  0  0  0  0  0  0  0  0
   64.5750   33.0310   49.3920 C   0  0  0  0  0  0  0  0  0  0  0  0
   63.7190   32.0480   48.8840 C   0  0  0  0  0  0  0  0  0  0  0  0
   62.4710   31.8390   49.4730 C   0  0  0  0  0  0  0  0  0  0  0  0
   61.6490   30.8810   48.9750 F   0  0  0  0  0  0  0  0  0  0  0  0
   59.5930   33.8870   48.3630 C   0  0  0  0  0  0  0  0  0  0  0  0
   60.0390   34.8630   49.0210 O   0  0  0  0  0  0  0  0  0  0  0  0
   59.8070   36.0778   47.0731 H   0  0  0  0  0  0  0  0  0  0  0  0
   60.5406   35.1886   45.6955 H   0  0  0  0  0  0  0  0  0  0  0  0
   58.7813   35.5517   45.6955 H   0  0  0  0  0  0  0  0  0  0  0  0
   56.5708   32.7777   45.4380 H   0  0  0  0  0  0  0  0  0  0  0  0
   56.5585   32.8804   43.6126 H   0  0  0  0  0  0  0  0  0  0  0  0
   58.6160   30.3380   43.3770 H   0  0  0  0  0  0  0  0  0  0  0  0
   60.3110   29.3930   45.1585 H   0  0  0  0  0  0  0  0  0  0  0  0
   60.8583   27.3526   46.4816 H   0  0  0  0  0  0  0  0  0  0  0  0
   59.1152   25.6227   46.8846 H   0  0  0  0  0  0  0  0  0  0  0  0
   54.7740   27.0880   46.4860 H   0  0  0  0  0  0  0  0  0  0  0  0
   56.2106   28.0486   44.7795 H   0  0  0  0  0  0  0  0  0  0  0  0
   58.5861   30.6563   48.7387 H   0  0  0  0  0  0  0  0  0  0  0  0
   62.6431   34.1797   51.9688 H   0  0  0  0  0  0  0  0  0  0  0  0
   64.8661   34.5602   50.9021 H   0  0  0  0  0  0  0  0  0  0  0  0
   65.5542   33.2034   48.9214 H   0  0  0  0  0  0  0  0  0  0  0  0
   64.0292   31.4403   48.0211 H   0  0  0  0  0  0  0  0  0  0  0  0
  1  2  1  0
  2  3  1  0
  3  4  1  0
  4  5  1  0
  5  6  1  0
  6  7  2  0
  6  8  1  0
  8  9  1  0
  9 10  2  0
 10 11  1  0
 11 12  2  0
 12 13  1  0
 13 14  1  0
 14 15  1  0
 14 16  2  0
 14 17  2  0
 13 18  2  0
  3 19  2  0
 19 20  1  0
 20 21  2  0
 21 22  1  0
 22 23  2  0
 22 24  1  0
 24 25  1  0
 25 26  2  0
 26 27  1  0
 27 28  2  0
 28 29  1  0
 29 30  2  0
 30 31  1  0
 21 32  1  0
 32 33  2  0
 32  2  1  0
 18  9  1  0
 30 25  1  0
  1 34  1  0
  1 35  1  0
  1 36  1  0
  5 37  1  0
  5 38  1  0
  8 39  1  0
 10 40  1  0
 11 41  1  0
 12 42  1  0
 15 43  1  0
 18 44  1  0
 20 45  1  0
 26 46  1  0
 27 47  1  0
 28 48  1  0
 29 49  1  0
M  CHG  2  15  -1  24  -1
M  END
>  <UniqueID>  (15) 
13

>  <SMILES>  (15) 
Cn1c(SCC(=O)Nc2cccc(S([NH-])(=O)=O)c2)ncc(C(=O)[N-]c2ccccc2F)c1=O

>  <Energy>  (15) 
67.19792710446123

>  <Genealogy>  (15) 
Cn1c(SCC(=O)Nc2cccc(S([NH-])(=O)=O)c2)ncc(C(=O)[N-]c2ccccc2F)c1=O (protonated)
Cn1c(SCC(=O)Nc2cccc(S([NH-])(=O)=O)c2)ncc(C(=O)[N-]c2ccccc2F)c1=O (3D coordinates assigned)
Cn1c(SCC(=O)Nc2cccc(S([NH-])(=O)=O)c2)ncc(C(=O)[N-]c2ccccc2F)c1=O (optimized conformer: 67.19792710446123 kcal/mol)

>  <smiles>  (15) 
Cn1c(SCC(=O)Nc2cccc(S(N)(=O)=O)c2)ncc(C(=O)Nc2ccccc2F)c1=O

>  <score_type>  (15) 
oracle

>  <origin>  (15) 
adg

>  <m_score__min__energy>  (15) 
-13.57

>  <m_primary>  (15) 
energy

$$$$
15:0
     RDKit          3D

 57 60  0  0  0  0  0  0  0  0999 V2000
   53.6590   29.1660   53.3900 C   0  0  0  0  0  0  0  0  0  0  0  0
   54.9870   29.6660   52.9020 C   0  0  0  0  0  0  0  0  0  0  0  0
   55.0700   30.8220   52.1120 C   0  0  0  0  0  0  0  0  0  0  0  0
   56.3070   31.2640   51.6340 C   0  0  0  0  0  0  0  0  0  0  0  0
   57.4830   30.5590   51.9430 C   0  0  0  0  0  0  0  0  0  0  0  0
   58.8000   31.0040   51.4300 C   0  0  0  0  0  0  0  0  0  0  0  0
   59.8480   30.4990   51.9180 O   0  0  0  0  0  0  0  0  0  0  0  0
   58.9340   32.0300   50.3760 C   0  0  0  0  0  0  0  0  0  0  0  0
   59.3880   33.3280   50.5190 C   0  0  0  0  0  0  0  0  0  0  0  0
   59.4140   33.9390   49.3220 N   0  0  0  0  0  0  0  0  0  0  0  0
   58.9940   33.0400   48.4040 C   0  0  0  0  0  0  0  0  0  0  0  0
   58.9000   33.3140   46.9480 C   0  0  0  0  0  0  0  0  0  0  0  0
   59.0130   34.6260   46.4580 C   0  0  0  0  0  0  0  0  0  0  0  0
   58.9020   34.8820   45.0900 C   0  0  0  0  0  0  0  0  0  0  0  0
   58.6670   33.8360   44.1970 C   0  0  0  0  0  0  0  0  0  0  0  0
   58.5450   32.5220   44.6590 C   0  0  0  0  0  0  0  0  0  0  0  0
   58.2860   31.5120   43.7150 O   0  0  0  0  0  0  0  0  0  0  0  0
   56.9940   31.0640   43.2970 C   0  0  0  0  0  0  0  0  0  0  0  0
   56.3130   30.2970   44.3920 C   0  0  0  0  0  0  0  0  0  0  0  0
   55.1430   29.8630   44.2090 O   0  0  0  0  0  0  0  0  0  0  0  0
   57.0290   29.9930   45.5950 N   0  0  0  0  0  0  0  0  0  0  0  0
   57.6140   28.7410   45.9800 C   0  0  0  0  0  0  0  0  0  0  0  0
   58.8620   28.6600   46.6230 C   0  0  0  0  0  0  0  0  0  0  0  0
   59.3950   27.4130   46.9630 C   0  0  0  0  0  0  0  0  0  0  0  0
   58.6990   26.2420   46.6520 C   0  0  0  0  0  0  0  0  0  0  0  0
   57.4720   26.3120   45.9800 C   0  0  0  0  0  0  0  0  0  0  0  0
   56.5920   24.8390   45.5850 S   0  0  0  0  0  0  0  0  0  0  0  0
   56.6800   24.5580   43.8810 N   0  0  0  0  0  0  0  0  0  0  0  0
   57.1930   23.6740   46.3210 O   0  0  0  0  0  0  0  0  0  0  0  0
   55.1530   24.9810   45.9960 O   0  0  0  0  0  0  0  0  0  0  0  0
   56.9360   27.5620   45.6460 C   0  0  0  0  0  0  0  0  0  0  0  0
   58.6860   32.2630   46.0380 C   0  0  0  0  0  0  0  0  0  0  0  0
   58.6940   31.8380   49.0270 C   0  0  0  0  0  0  0  0  0  0  0  0
   57.3920   29.3840   52.7090 C   0  0  0  0  0  0  0  0  0  0  0  0
   56.1540   28.9430   53.1860 C   0  0  0  0  0  0  0  0  0  0  0  0
   53.6501   29.1627   54.4900 H   0  0  0  0  0  0  0  0  0  0  0  0
   52.8602   29.8249   53.0189 H   0  0  0  0  0  0  0  0  0  0  0  0
   53.4932   28.1439   53.0189 H   0  0  0  0  0  0  0  0  0  0  0  0
   54.1566   31.3839   51.8672 H   0  0  0  0  0  0  0  0  0  0  0  0
   56.3604   32.1696   51.0119 H   0  0  0  0  0  0  0  0  0  0  0  0
   59.6841   33.7920   51.4714 H   0  0  0  0  0  0  0  0  0  0  0  0
   59.7440   34.9140   49.1480 H   0  0  0  0  0  0  0  0  0  0  0  0
   59.1901   35.4569   47.1568 H   0  0  0  0  0  0  0  0  0  0  0  0
   59.0001   35.9115   44.7151 H   0  0  0  0  0  0  0  0  0  0  0  0
   58.5770   34.0468   43.1211 H   0  0  0  0  0  0  0  0  0  0  0  0
   56.3787   31.9364   43.0320 H   0  0  0  0  0  0  0  0  0  0  0  0
   57.1162   30.4015   42.4274 H   0  0  0  0  0  0  0  0  0  0  0  0
   59.4194   29.5786   46.8587 H   0  0  0  0  0  0  0  0  0  0  0  0
   60.3656   27.3535   47.4771 H   0  0  0  0  0  0  0  0  0  0  0  0
   59.1152   25.2640   46.9352 H   0  0  0  0  0  0  0  0  0  0  0  0
   56.5540   25.4830   43.4130 H   0  0  0  0  0  0  0  0  0  0  0  0
   57.6530   24.2450   43.6720 H   0  0  0  0  0  0  0  0  0  0  0  0
   55.9735   27.6183   45.1164 H   0  0  0  0  0  0  0  0  0  0  0  0
   58.6280   31.2280   46.4060 H   0  0  0  0  0  0  0  0  0  0  0  0
   58.3366   30.9161   48.5450 H   0  0  0  0  0  0  0  0  0  0  0  0
   58.3012   28.8074   52.9347 H   0  0  0  0  0  0  0  0  0  0  0  0
   56.0953   28.0238   53.7874 H   0  0  0  0  0  0  0  0  0  0  0  0
  1  2  1  0
  2  3  2  0
  3  4  1  0
  4  5  2  0
  5  6  1  0
  6  7  2  0
  6  8  1  0
  8  9  2  0
  9 10  1  0
 10 11  1  0
 11 12  1  0
 12 13  2  0
 13 14  1  0
 14 15  2  0
 15 16  1  0
 16 17  1  0
 17 18  1  0
 18 19  1  0
 19 20  2  0
 19 21  1  0
 21 22  1  0
 22 23  2  0
 23 24  1  0
 24 25  2  0
 25 26  1  0
 26 27  1  0
 27 28  1  0
 27 29  2  0
 27 30  2  0
 26 31  2  0
 16 32  2  0
 11 33  2  0
  5 34  1  0
 34 35  2  0
 35  2  1  0
 33  8  1  0
 32 12  1  0
 31 22  1  0
  1 36  1  0
  1 37  1  0
  1 38  1  0
  3 39  1  0
  4 40  1  0
  9 41  1  0
 10 42  1  0
 13 43  1  0
 14 44  1  0
 15 45  1  0
 18 46  1  0
 18 47  1  0
 23 48  1  0
 24 49  1  0
 25 50  1  0
 28 51  1  0
 28 52  1  0
 31 53  1  0
 32 54  1  0
 33 55  1  0
 34 56  1  0
 35 57  1  0
M  CHG  1  21  -1
M  END
>  <UniqueID>  (16) 
14

>  <SMILES>  (16) 
Cc1ccc(C(=O)c2c[nH]c(-c3cccc(OCC(=O)[N-]c4cccc(S(N)(=O)=O)c4)c3)c2)cc1

>  <Energy>  (16) 
94.09778568833656

>  <Genealogy>  (16) 
Cc1ccc(C(=O)c2c[nH]c(-c3cccc(OCC(=O)[N-]c4cccc(S(N)(=O)=O)c4)c3)c2)cc1 (protonated)
Cc1ccc(C(=O)c2c[nH]c(-c3cccc(OCC(=O)[N-]c4cccc(S(N)(=O)=O)c4)c3)c2)cc1 (3D coordinates assigned)
Cc1ccc(C(=O)c2c[nH]c(-c3cccc(OCC(=O)[N-]c4cccc(S(N)(=O)=O)c4)c3)c2)cc1 (optimized conformer: 94.09778568833656 kcal/mol)

>  <smiles>  (16) 
Cc1ccc(C(=O)c2c[nH]c(-c3cccc(OCC(=O)Nc4cccc(S(N)(=O)=O)c4)c3)c2)cc1

>  <score_type>  (16) 
oracle

>  <origin>  (16) 
adg

>  <m_score__min__energy>  (16) 
-11.279999999999999

>  <m_primary>  (16) 
energy

$$$$
16:0
     RDKit          3D

 37 39  0  0  0  0  0  0  0  0999 V2000
   53.5770   24.6520   45.8790 O   0  0  0  0  0  0  0  0  0  0  0  0
   54.7590   25.0130   45.6330 C   0  0  0  0  0  0  0  0  0  0  0  0
   55.1610   26.3390   46.0000 N   0  0  0  0  0  0  0  0  0  0  0  0
   56.4890   26.8760   45.9170 C   0  0  0  0  0  0  0  0  0  0  0  0
   57.6030   26.1670   46.4000 C   0  0  0  0  0  0  0  0  0  0  0  0
   58.8820   26.7200   46.3030 C   0  0  0  0  0  0  0  0  0  0  0  0
   59.0640   27.9680   45.7020 C   0  0  0  0  0  0  0  0  0  0  0  0
   57.9710   28.6620   45.1720 C   0  0  0  0  0  0  0  0  0  0  0  0
   58.1890   29.9460   44.5700 N   0  0  0  0  0  0  0  0  0  0  0  0
   57.3780   31.1150   44.7520 C   0  0  0  0  0  0  0  0  0  0  0  0
   56.1440   31.0360   44.5090 O   0  0  0  0  0  0  0  0  0  0  0  0
   57.9400   32.3770   45.2820 C   0  0  0  0  0  0  0  0  0  0  0  0
   58.3710   33.3960   44.4150 C   0  0  0  0  0  0  0  0  0  0  0  0
   58.8870   34.5780   44.9480 C   0  0  0  0  0  0  0  0  0  0  0  0
   58.9670   34.7410   46.3330 C   0  0  0  0  0  0  0  0  0  0  0  0
   58.5220   33.7140   47.1670 C   0  0  0  0  0  0  0  0  0  0  0  0
   58.0220   32.5700   46.6290 N   0  0  0  0  0  0  0  0  0  0  0  0
   56.6800   28.1160   45.2960 C   0  0  0  0  0  0  0  0  0  0  0  0
   55.7030   24.0440   45.0280 C   0  0  0  0  0  0  0  0  0  0  0  0
   56.5630   23.2900   45.8470 C   0  0  0  0  0  0  0  0  0  0  0  0
   57.4600   22.3780   45.2820 C   0  0  0  0  0  0  0  0  0  0  0  0
   57.5150   22.2170   43.8950 C   0  0  0  0  0  0  0  0  0  0  0  0
   56.6760   22.9720   43.0710 C   0  0  0  0  0  0  0  0  0  0  0  0
   55.7790   23.8850   43.6320 C   0  0  0  0  0  0  0  0  0  0  0  0
   57.4670   25.1749   46.8552 H   0  0  0  0  0  0  0  0  0  0  0  0
   59.7484   26.1713   46.7009 H   0  0  0  0  0  0  0  0  0  0  0  0
   60.0711   28.4068   45.6453 H   0  0  0  0  0  0  0  0  0  0  0  0
   58.3021   33.2628   43.3253 H   0  0  0  0  0  0  0  0  0  0  0  0
   59.2303   35.3803   44.2783 H   0  0  0  0  0  0  0  0  0  0  0  0
   59.3759   35.6679   46.7614 H   0  0  0  0  0  0  0  0  0  0  0  0
   58.5759   33.8303   48.2595 H   0  0  0  0  0  0  0  0  0  0  0  0
   55.8140   28.6680   44.9018 H   0  0  0  0  0  0  0  0  0  0  0  0
   56.5297   23.4186   46.9389 H   0  0  0  0  0  0  0  0  0  0  0  0
   58.1232   21.7865   45.9303 H   0  0  0  0  0  0  0  0  0  0  0  0
   58.2183   21.4964   43.4521 H   0  0  0  0  0  0  0  0  0  0  0  0
   56.7217   22.8474   41.9790 H   0  0  0  0  0  0  0  0  0  0  0  0
   55.1279   24.4834   42.9778 H   0  0  0  0  0  0  0  0  0  0  0  0
  1  2  2  0
  2  3  1  0
  3  4  1  0
  4  5  2  0
  5  6  1  0
  6  7  2  0
  7  8  1  0
  8  9  1  0
  9 10  1  0
 10 11  2  0
 10 12  1  0
 12 13  2  0
 13 14  1  0
 14 15  2  0
 15 16  1  0
 16 17  2  0
  8 18  2  0
  2 19  1  0
 19 20  2  0
 20 21  1  0
 21 22  2  0
 22 23  1  0
 23 24  2  0
 18  4  1  0
 24 19  1  0
 17 12  1  0
  5 25  1  0
  6 26  1  0
  7 27  1  0
 13 28  1  0
 14 29  1  0
 15 30  1  0
 16 31  1  0
 18 32  1  0
 20 33  1  0
 21 34  1  0
 22 35  1  0
 23 36  1  0
 24 37  1  0
M  CHG  2   3  -1   9  -1
M  END
>  <UniqueID>  (17) 
15

>  <SMILES>  (17) 
O=C([N-]c1cccc([N-]C(=O)c2ccccn2)c1)c1ccccc1

>  <Energy>  (17) 
53.21407779577742

>  <Genealogy>  (17) 
O=C([N-]c1cccc([N-]C(=O)c2ccccn2)c1)c1ccccc1 (protonated)
O=C([N-]c1cccc([N-]C(=O)c2ccccn2)c1)c1ccccc1 (3D coordinates assigned)
O=C([N-]c1cccc([N-]C(=O)c2ccccn2)c1)c1ccccc1 (optimized conformer: 53.21407779577742 kcal/mol)

>  <smiles>  (17) 
O=C(Nc1cccc(NC(=O)c2ccccn2)c1)c1ccccc1

>  <score_type>  (17) 
oracle

>  <origin>  (17) 
adg

>  <m_score__min__energy>  (17) 
-11.67

>  <m_primary>  (17) 
energy

$$$$
17:0
     RDKit          3D

 52 54  0  0  0  0  0  0  0  0999 V2000
   56.4815   27.2452   47.5519 H   0  0  0  0  0  0  0  0  0  0  0  0
   57.0700   27.0130   46.6520 C   0  0  0  0  0  0  0  0  0  0  0  0
   58.0100   27.8470   46.3050 N   0  0  0  0  0  0  0  0  0  0  0  0
   57.8300   29.1430   45.7130 C   0  0  0  0  0  0  0  0  0  0  0  0
   58.8650   30.0780   45.8030 C   0  0  0  0  0  0  0  0  0  0  0  0
   59.7938   29.8162   46.3310 H   0  0  0  0  0  0  0  0  0  0  0  0
   58.7270   31.3440   45.2260 C   0  0  0  0  0  0  0  0  0  0  0  0
   59.5541   32.0661   45.2923 H   0  0  0  0  0  0  0  0  0  0  0  0
   57.5430   31.7020   44.5630 C   0  0  0  0  0  0  0  0  0  0  0  0
   57.4410   33.0090   43.9650 N   0  0  0  0  0  0  0  0  0  0  0  0
   57.3800   33.0760   42.9230 H   0  0  0  0  0  0  0  0  0  0  0  0
   57.4170   34.2670   44.7140 C   0  0  0  0  0  0  0  0  0  0  0  0
   57.0954   35.0796   44.0460 H   0  0  0  0  0  0  0  0  0  0  0  0
   56.7152   34.1663   45.5550 H   0  0  0  0  0  0  0  0  0  0  0  0
   58.8110   34.5910   45.2680 C   0  0  0  0  0  0  0  0  0  0  0  0
   59.5422   33.9053   44.8150 H   0  0  0  0  0  0  0  0  0  0  0  0
   59.0426   35.6372   45.0194 H   0  0  0  0  0  0  0  0  0  0  0  0
   58.8680   34.4400   46.7950 C   0  0  0  0  0  0  0  0  0  0  0  0
   58.2056   35.1884   47.2544 H   0  0  0  0  0  0  0  0  0  0  0  0
   58.5436   33.4219   47.0564 H   0  0  0  0  0  0  0  0  0  0  0  0
   60.2470   34.6380   47.3030 N   0  0  0  0  0  0  0  0  0  0  0  0
   61.2170   33.8410   46.5400 C   0  0  0  0  0  0  0  0  0  0  0  0
   60.8604   33.7037   45.5085 H   0  0  0  0  0  0  0  0  0  0  0  0
   62.1911   34.3507   46.5037 H   0  0  0  0  0  0  0  0  0  0  0  0
   61.3470   32.4930   47.2260 C   0  0  0  0  0  0  0  0  0  0  0  0
   60.6800   31.7543   46.7575 H   0  0  0  0  0  0  0  0  0  0  0  0
   62.3666   32.0869   47.1515 H   0  0  0  0  0  0  0  0  0  0  0  0
   60.9370   32.7460   48.6630 C   0  0  0  0  0  0  0  0  0  0  0  0
   60.1622   32.0291   48.9725 H   0  0  0  0  0  0  0  0  0  0  0  0
   61.7842   32.6244   49.3539 H   0  0  0  0  0  0  0  0  0  0  0  0
   60.3870   34.1690   48.6920 C   0  0  0  0  0  0  0  0  0  0  0  0
   59.4056   34.1786   49.1887 H   0  0  0  0  0  0  0  0  0  0  0  0
   61.0697   34.8283   49.2481 H   0  0  0  0  0  0  0  0  0  0  0  0
   56.4810   30.7750   44.5190 C   0  0  0  0  0  0  0  0  0  0  0  0
   55.5375   31.0491   44.0243 H   0  0  0  0  0  0  0  0  0  0  0  0
   56.6180   29.5110   45.0990 C   0  0  0  0  0  0  0  0  0  0  0  0
   55.5400   28.6330   45.0780 O   0  0  0  0  0  0  0  0  0  0  0  0
   56.7440   25.7710   45.9100 C   0  0  0  0  0  0  0  0  0  0  0  0
   57.7500   24.8590   45.5460 C   0  0  0  0  0  0  0  0  0  0  0  0
   58.7981   25.0720   45.8030 H   0  0  0  0  0  0  0  0  0  0  0  0
   57.4300   23.6850   44.8610 C   0  0  0  0  0  0  0  0  0  0  0  0
   58.2282   22.9881   44.5657 H   0  0  0  0  0  0  0  0  0  0  0  0
   56.0900   23.3900   44.5470 C   0  0  0  0  0  0  0  0  0  0  0  0
   55.7170   22.2230   43.8630 O   0  0  0  0  0  0  0  0  0  0  0  0
   56.6330   21.3340   43.2310 C   0  0  0  0  0  0  0  0  0  0  0  0
   57.1990   20.7847   43.9977 H   0  0  0  0  0  0  0  0  0  0  0  0
   56.0782   20.6209   42.6036 H   0  0  0  0  0  0  0  0  0  0  0  0
   57.3292   21.9099   42.6036 H   0  0  0  0  0  0  0  0  0  0  0  0
   55.0860   24.2840   44.9340 C   0  0  0  0  0  0  0  0  0  0  0  0
   54.0355   24.0571   44.6998 H   0  0  0  0  0  0  0  0  0  0  0  0
   55.4040   25.4640   45.6160 C   0  0  0  0  0  0  0  0  0  0  0  0
   54.3830   26.3320   45.9860 O   0  0  0  0  0  0  0  0  0  0  0  0
  1  2  1  0
  2  3  2  0
  3  4  1  0
  4  5  2  0
  5  6  1  0
  5  7  1  0
  7  8  1  0
  7  9  2  0
  9 10  1  0
 10 11  1  0
 10 12  1  0
 12 13  1  0
 12 14  1  0
 12 15  1  0
 15 16  1  0
 15 17  1  0
 15 18  1  0
 18 19  1  0
 18 20  1  0
 18 21  1  0
 21 22  1  0
 22 23  1  0
 22 24  1  0
 22 25  1  0
 25 26  1  0
 25 27  1  0
 25 28  1  0
 28 29  1  0
 28 30  1  0
 28 31  1  0
 31 32  1  0
 31 33  1  0
  9 34  1  0
 34 35  1  0
 34 36  2  0
 36 37  1  0
  2 38  1  0
 38 39  2  0
 39 40  1  0
 39 41  1  0
 41 42  1  0
 41 43  2  0
 43 44  1  0
 44 45  1  0
 45 46  1  0
 45 47  1  0
 45 48  1  0
 43 49  1  0
 49 50  1  0
 49 51  2  0
 51 52  1  0
 36  4  1  0
 51 38  1  0
 31 21  1  0
M  CHG  2  37  -1  52  -1
M  END
>  <UniqueID>  (18) 
16

>  <SMILES>  (18) 
COc1ccc(/C=N\c2ccc(NCCCN3CCCC3)cc2[O-])c([O-])c1

>  <Energy>  (18) 
64.81423125555126

>  <Genealogy>  (18) 
COc1ccc(C=Nc2ccc(NCCCN3CCCC3)cc2[O-])c([O-])c1 (protonated)
COc1ccc(/C=N\c2ccc(NCCCN3CCCC3)cc2[O-])c([O-])c1 (cis-trans isomerization)
COc1ccc(/C=N\c2ccc(NCCCN3CCCC3)cc2[O-])c([O-])c1 (3D coordinates assigned)
COc1ccc(/C=N\c2ccc(NCCCN3CCCC3)cc2[O-])c([O-])c1 (nonaromatic ring conformer: 64.81423125555126 kcal/mol)

>  <smiles>  (18) 
COc1ccc(C=Nc2ccc(NCCCN3CCCC3)cc2O)c(O)c1

>  <score_type>  (18) 
oracle

>  <origin>  (18) 
adg

>  <m_score__min__energy>  (18) 
-15.56

>  <m_primary>  (18) 
energy

$$$$
18:0
     RDKit          3D

 51 53  0  0  0  0  0  0  0  0999 V2000
   58.1800   30.8040   51.4330 C   0  0  0  0  0  0  0  0  0  0  0  0
   57.8700   31.9230   50.6040 O   0  0  0  0  0  0  0  0  0  0  0  0
   58.7100   32.4200   49.5960 C   0  0  0  0  0  0  0  0  0  0  0  0
   60.0900   32.6180   49.7920 C   0  0  0  0  0  0  0  0  0  0  0  0
   60.8860   33.1070   48.7550 C   0  0  0  0  0  0  0  0  0  0  0  0
   60.3230   33.4000   47.4990 C   0  0  0  0  0  0  0  0  0  0  0  0
   61.1050   33.8650   46.4300 O   0  0  0  0  0  0  0  0  0  0  0  0
   62.5290   33.8380   46.3950 C   0  0  0  0  0  0  0  0  0  0  0  0
   58.9420   33.2020   47.3020 C   0  0  0  0  0  0  0  0  0  0  0  0
   58.2270   33.4570   45.7020 S   0  0  0  0  0  0  0  0  0  0  0  0
   56.7490   33.7160   45.8280 O   0  0  0  0  0  0  0  0  0  0  0  0
   58.8790   34.6560   45.0650 O   0  0  0  0  0  0  0  0  0  0  0  0
   58.4730   32.0700   44.6860 N   0  0  0  0  0  0  0  0  0  0  0  0
   58.1570   30.7410   45.1110 C   0  0  0  0  0  0  0  0  0  0  0  0
   58.7560   30.2060   46.2610 C   0  0  0  0  0  0  0  0  0  0  0  0
   58.5560   28.8690   46.6030 C   0  0  0  0  0  0  0  0  0  0  0  0
   57.7500   28.0460   45.8000 C   0  0  0  0  0  0  0  0  0  0  0  0
   57.5790   26.6500   46.0990 N   0  0  0  0  0  0  0  0  0  0  0  0
   56.2980   25.9990   46.1250 C   0  0  0  0  0  0  0  0  0  0  0  0
   55.2430   26.6790   46.0080 O   0  0  0  0  0  0  0  0  0  0  0  0
   56.2120   24.5300   46.3160 C   0  0  0  0  0  0  0  0  0  0  0  0
   55.9550   24.0220   47.6040 C   0  0  0  0  0  0  0  0  0  0  0  0
   55.8670   22.6440   47.8220 C   0  0  0  0  0  0  0  0  0  0  0  0
   56.0360   21.7550   46.7590 C   0  0  0  0  0  0  0  0  0  0  0  0
   56.2940   22.2410   45.4760 C   0  0  0  0  0  0  0  0  0  0  0  0
   56.3820   23.6200   45.2430 C   0  0  0  0  0  0  0  0  0  0  0  0
   56.6570   24.1510   43.5820 Cl  0  0  0  0  0  0  0  0  0  0  0  0
   57.0870   28.6020   44.6960 C   0  0  0  0  0  0  0  0  0  0  0  0
   57.2800   29.9490   44.3460 C   0  0  0  0  0  0  0  0  0  0  0  0
   56.6330   30.5040   43.1090 C   0  0  0  0  0  0  0  0  0  0  0  0
   58.1480   32.7180   48.3520 C   0  0  0  0  0  0  0  0  0  0  0  0
   58.0988   31.0972   52.4901 H   0  0  0  0  0  0  0  0  0  0  0  0
   57.4746   29.9863   51.2240 H   0  0  0  0  0  0  0  0  0  0  0  0
   59.2057   30.4658   51.2240 H   0  0  0  0  0  0  0  0  0  0  0  0
   60.5431   32.3862   50.7672 H   0  0  0  0  0  0  0  0  0  0  0  0
   61.9620   33.2646   48.9208 H   0  0  0  0  0  0  0  0  0  0  0  0
   62.9210   33.8306   47.4228 H   0  0  0  0  0  0  0  0  0  0  0  0
   62.8657   32.9333   45.8676 H   0  0  0  0  0  0  0  0  0  0  0  0
   62.8998   34.7293   45.8676 H   0  0  0  0  0  0  0  0  0  0  0  0
   59.3870   30.8447   46.8966 H   0  0  0  0  0  0  0  0  0  0  0  0
   59.0315   28.4574   47.5055 H   0  0  0  0  0  0  0  0  0  0  0  0
   58.3980   26.1410   46.5070 H   0  0  0  0  0  0  0  0  0  0  0  0
   55.8222   24.7163   48.4468 H   0  0  0  0  0  0  0  0  0  0  0  0
   55.6643   22.2596   48.8325 H   0  0  0  0  0  0  0  0  0  0  0  0
   55.9658   20.6710   46.9324 H   0  0  0  0  0  0  0  0  0  0  0  0
   56.4292   21.5365   44.6421 H   0  0  0  0  0  0  0  0  0  0  0  0
   56.4084   27.9765   44.0975 H   0  0  0  0  0  0  0  0  0  0  0  0
   55.8269   31.1955   43.3956 H   0  0  0  0  0  0  0  0  0  0  0  0
   57.3839   31.0432   42.5128 H   0  0  0  0  0  0  0  0  0  0  0  0
   56.2144   29.6798   42.5128 H   0  0  0  0  0  0  0  0  0  0  0  0
   57.0693   32.5712   48.1941 H   0  0  0  0  0  0  0  0  0  0  0  0
  1  2  1  0
  2  3  1  0
  3  4  2  0
  4  5  1  0
  5  6  2  0
  6  7  1  0
  7  8  1  0
  6  9  1  0
  9 10  1  0
 10 11  2  0
 10 12  2  0
 10 13  1  0
 13 14  1  0
 14 15  2  0
 15 16  1  0
 16 17  2  0
 17 18  1  0
 18 19  1  0
 19 20  2  0
 19 21  1  0
 21 22  2  0
 22 23  1  0
 23 24  2  0
 24 25  1  0
 25 26  2  0
 26 27  1  0
 17 28  1  0
 28 29  2  0
 29 30  1  0
  9 31  2  0
 31  3  1  0
 29 14  1  0
 26 21  1  0
  1 32  1  0
  1 33  1  0
  1 34  1  0
  4 35  1  0
  5 36  1  0
  8 37  1  0
  8 38  1  0
  8 39  1  0
 15 40  1  0
 16 41  1  0
 18 42  1  0
 22 43  1  0
 23 44  1  0
 24 45  1  0
 25 46  1  0
 28 47  1  0
 30 48  1  0
 30 49  1  0
 30 50  1  0
 31 51  1  0
M  CHG  1  13  -1
M  END
>  <UniqueID>  (19) 
17

>  <SMILES>  (19) 
COc1ccc(OC)c(S(=O)(=O)[N-]c2ccc(NC(=O)c3ccccc3Cl)cc2C)c1

>  <Energy>  (19) 
67.3201273664813

>  <Genealogy>  (19) 
COc1ccc(OC)c(S(=O)(=O)[N-]c2ccc(NC(=O)c3ccccc3Cl)cc2C)c1 (protonated)
COc1ccc(OC)c(S(=O)(=O)[N-]c2ccc(NC(=O)c3ccccc3Cl)cc2C)c1 (3D coordinates assigned)
COc1ccc(OC)c(S(=O)(=O)[N-]c2ccc(NC(=O)c3ccccc3Cl)cc2C)c1 (optimized conformer: 67.3201273664813 kcal/mol)

>  <smiles>  (19) 
COc1ccc(OC)c(S(=O)(=O)Nc2ccc(NC(=O)c3ccccc3Cl)cc2C)c1

>  <score_type>  (19) 
oracle

>  <origin>  (19) 
adg

>  <m_score__min__energy>  (19) 
-10.1

>  <m_primary>  (19) 
energy

$$$$
19:0
     RDKit          3D

 51 54  0  0  1  0  0  0  0  0999 V2000
   56.1620   22.0860   42.5670 N   0  0  0  0  0  0  0  0  0  0  0  0
   56.2580   22.9490   43.7000 C   0  0  1  0  0  0  0  0  0  0  0  0
   56.8120   24.3290   43.3200 C   0  0  0  0  0  0  0  0  0  0  0  0
   57.3100   24.9180   44.6170 C   0  0  0  0  0  0  0  0  0  0  0  0
   56.4320   24.7860   45.7940 C   0  0  1  0  0  0  0  0  0  0  0  0
   55.9330   26.1310   46.1280 N   0  0  0  0  0  0  0  0  0  0  0  0
   56.5960   27.2010   45.9870 C   0  0  0  0  0  0  0  0  0  0  0  0
   56.0760   28.2090   45.2990 N   0  0  0  0  0  0  0  0  0  0  0  0
   56.7610   29.3570   45.1350 C   0  0  0  0  0  0  0  0  0  0  0  0
   56.2740   30.3450   44.4730 N   0  0  0  0  0  0  0  0  0  0  0  0
   57.1480   31.1400   43.6200 C   0  0  0  0  0  0  0  0  0  0  0  0
   57.6870   32.2900   44.3950 C   0  0  0  0  0  0  0  0  0  0  0  0
   58.5380   33.2210   43.8160 C   0  0  0  0  0  0  0  0  0  0  0  0
   59.0260   34.2800   44.5510 C   0  0  0  0  0  0  0  0  0  0  0  0
   58.6370   34.3690   45.8650 C   0  0  0  0  0  0  0  0  0  0  0  0
   57.8000   33.4780   46.4840 C   0  0  0  0  0  0  0  0  0  0  0  0
   57.3200   32.4220   45.7320 C   0  0  0  0  0  0  0  0  0  0  0  0
   57.9800   29.4610   45.6810 N   0  0  0  0  0  0  0  0  0  0  0  0
   58.5750   28.4910   46.3890 C   0  0  0  0  0  0  0  0  0  0  0  0
   59.8360   28.6190   46.9460 C   0  0  0  0  0  0  0  0  0  0  0  0
   60.4240   27.5930   47.6730 C   0  0  0  0  0  0  0  0  0  0  0  0
   59.6900   26.4270   47.8220 C   0  0  0  0  0  0  0  0  0  0  0  0
   58.4440   26.2930   47.2750 C   0  0  0  0  0  0  0  0  0  0  0  0
   57.8550   27.3090   46.5510 C   0  0  0  0  0  0  0  0  0  0  0  0
   55.2300   23.9210   45.6870 C   0  0  0  0  0  0  0  0  0  0  0  0
   54.9520   23.3130   44.3420 C   0  0  0  0  0  0  0  0  0  0  0  0
   56.4720   22.5950   41.7320 H   0  0  0  0  0  0  0  0  0  0  0  0
   56.7730   21.2570   42.6940 H   0  0  0  0  0  0  0  0  0  0  0  0
   56.8934   22.3574   44.3755 H   0  0  0  0  0  0  0  0  0  0  0  0
   57.6362   24.2298   42.5983 H   0  0  0  0  0  0  0  0  0  0  0  0
   56.0510   24.9635   42.8422 H   0  0  0  0  0  0  0  0  0  0  0  0
   58.2647   24.4280   44.8588 H   0  0  0  0  0  0  0  0  0  0  0  0
   57.3774   26.0001   44.4315 H   0  0  0  0  0  0  0  0  0  0  0  0
   57.0743   24.2979   46.5418 H   0  0  0  0  0  0  0  0  0  0  0  0
   55.1480   28.1260   44.8850 H   0  0  0  0  0  0  0  0  0  0  0  0
   57.9806   30.5151   43.2646 H   0  0  0  0  0  0  0  0  0  0  0  0
   56.5764   31.5149   42.7582 H   0  0  0  0  0  0  0  0  0  0  0  0
   58.8259   33.1127   42.7599 H   0  0  0  0  0  0  0  0  0  0  0  0
   59.7004   35.0245   44.1027 H   0  0  0  0  0  0  0  0  0  0  0  0
   59.0225   35.2105   46.4594 H   0  0  0  0  0  0  0  0  0  0  0  0
   57.5202   33.5986   47.5410 H   0  0  0  0  0  0  0  0  0  0  0  0
   56.6461   31.6837   46.1910 H   0  0  0  0  0  0  0  0  0  0  0  0
   58.5020   30.3500   45.5500 H   0  0  0  0  0  0  0  0  0  0  0  0
   60.3877   29.5606   46.8085 H   0  0  0  0  0  0  0  0  0  0  0  0
   61.4273   27.7006   48.1110 H   0  0  0  0  0  0  0  0  0  0  0  0
   60.1193   25.5906   48.3931 H   0  0  0  0  0  0  0  0  0  0  0  0
   57.8964   25.3495   47.4161 H   0  0  0  0  0  0  0  0  0  0  0  0
   55.3472   23.0976   46.4069 H   0  0  0  0  0  0  0  0  0  0  0  0
   54.3770   24.5870   45.8842 H   0  0  0  0  0  0  0  0  0  0  0  0
   54.3352   22.4104   44.4641 H   0  0  0  0  0  0  0  0  0  0  0  0
   54.4111   24.0325   43.7098 H   0  0  0  0  0  0  0  0  0  0  0  0
  1  2  1  0
  2  3  1  0
  3  4  1  0
  4  5  1  0
  5  6  1  0
  6  7  2  0
  7  8  1  0
  8  9  1  0
  9 10  2  0
 10 11  1  0
 11 12  1  0
 12 13  2  0
 13 14  1  0
 14 15  2  0
 15 16  1  0
 16 17  2  0
  9 18  1  0
 18 19  1  0
 19 20  2  0
 20 21  1  0
 21 22  2  0
 22 23  1  0
 23 24  2  0
  5 25  1  0
 25 26  1  0
 26  2  1  0
 24  7  1  0
 17 12  1  0
 24 19  1  0
  1 27  1  0
  1 28  1  0
  2 29  1  1
  3 30  1  0
  3 31  1  0
  4 32  1  0
  4 33  1  0
  5 34  1  1
  8 35  1  0
 11 36  1  0
 11 37  1  0
 13 38  1  0
 14 39  1  0
 15 40  1  0
 16 41  1  0
 17 42  1  0
 18 43  1  0
 20 44  1  0
 21 45  1  0
 22 46  1  0
 23 47  1  0
 25 48  1  0
 25 49  1  0
 26 50  1  0
 26 51  1  0
M  END
>  <smiles>  (20) 
NC1CCC(N=c2[nH]c(=NCc3ccccc3)[nH]c3ccccc23)CC1

>  <score_type>  (20) 
oracle

>  <origin>  (20) 
adg

>  <m_score__min__energy>  (20) 
-10.25

>  <m_primary>  (20) 
energy

$$$$
20:0
     RDKit          3D

 43 45  0  0  1  0  0  0  0  0999 V2000
   60.5340   29.5740   45.6810 C   0  0  0  0  0  0  0  0  0  0  0  0
   61.0780   30.0420   47.0110 C   0  0  0  0  0  0  0  0  0  0  0  0
   60.0450   30.5110   47.8520 O   0  0  0  0  0  0  0  0  0  0  0  0
   59.9170   31.8470   48.1270 C   0  0  0  0  0  0  0  0  0  0  0  0
   60.5840   32.4300   49.1830 C   0  0  0  0  0  0  0  0  0  0  0  0
   60.4350   33.7960   49.4340 C   0  0  0  0  0  0  0  0  0  0  0  0
   59.6230   34.5490   48.6240 C   0  0  0  0  0  0  0  0  0  0  0  0
   58.9600   33.9310   47.5610 C   0  0  0  0  0  0  0  0  0  0  0  0
   59.0920   32.5890   47.2970 C   0  0  0  0  0  0  0  0  0  0  0  0
   58.4080   31.9300   46.2170 N   0  0  0  0  0  0  0  0  0  0  0  0
   58.4320   32.4890   44.9450 C   0  0  0  0  0  0  0  0  0  0  0  0
   59.0710   33.5950   44.8130 O   0  0  0  0  0  0  0  0  0  0  0  0
   57.8140   31.9730   43.7450 C   0  0  0  0  0  0  0  0  0  0  0  0
   58.0550   32.5110   42.5190 N   0  0  0  0  0  0  0  0  0  0  0  0
   57.3420   31.8130   41.5830 C   0  0  0  0  0  0  0  0  0  0  0  0
   56.6570   30.8400   42.2170 N   0  0  0  0  0  0  0  0  0  0  0  0
   56.9540   30.9450   43.5450 C   0  0  0  0  0  0  0  0  0  0  0  0
   56.3630   29.9830   44.4950 C   0  0  0  0  0  0  0  0  0  0  0  0
   55.1160   29.8830   44.5010 O   0  0  0  0  0  0  0  0  0  0  0  0
   57.2710   29.2790   45.3010 N   0  0  0  0  0  0  0  0  0  0  0  0
   57.2210   28.0620   45.6120 C   0  0  0  0  0  0  0  0  0  0  0  0
   58.3440   27.3070   45.8940 C   0  0  0  0  0  0  0  0  0  0  0  0
   58.1880   25.9720   46.2010 C   0  0  0  0  0  0  0  0  0  0  0  0
   56.9380   25.3580   46.2340 C   0  0  0  0  0  0  0  0  0  0  0  0
   55.8590   26.1530   45.9460 C   0  0  0  0  0  0  0  0  0  0  0  0
   56.0100   27.4620   45.6470 N   0  0  0  0  0  0  0  0  0  0  0  0
   59.7101   28.8652   45.8508 H   0  0  0  0  0  0  0  0  0  0  0  0
   60.1622   30.4389   45.1121 H   0  0  0  0  0  0  0  0  0  0  0  0
   61.3337   29.0772   45.1121 H   0  0  0  0  0  0  0  0  0  0  0  0
   61.5884   29.2020   47.5049 H   0  0  0  0  0  0  0  0  0  0  0  0
   61.7787   30.8698   46.8274 H   0  0  0  0  0  0  0  0  0  0  0  0
   61.2334   31.8197   49.8279 H   0  0  0  0  0  0  0  0  0  0  0  0
   60.9654   34.2651   50.2758 H   0  0  0  0  0  0  0  0  0  0  0  0
   59.4957   35.6258   48.8093 H   0  0  0  0  0  0  0  0  0  0  0  0
   58.3107   34.5389   46.9138 H   0  0  0  0  0  0  0  0  0  0  0  0
   57.8940   31.0510   46.4000 H   0  0  0  0  0  0  0  0  0  0  0  0
   58.6500   33.3130   42.2390 H   0  0  0  0  0  0  0  0  0  0  0  0
   57.3297   32.0112   40.5011 H   0  0  0  0  0  0  0  0  0  0  0  0
   59.3447   27.7633   45.8738 H   0  0  0  0  0  0  0  0  0  0  0  0
   59.0811   25.3712   46.4276 H   0  0  0  0  0  0  0  0  0  0  0  0
   56.8229   24.2917   46.4782 H   0  0  0  0  0  0  0  0  0  0  0  0
   54.8495   25.7163   45.9586 H   0  0  0  0  0  0  0  0  0  0  0  0
   55.1480   28.0460   45.4250 H   0  0  0  0  0  0  0  0  0  0  0  0
  1  2  1  0
  2  3  1  0
  3  4  1  0
  4  5  2  0
  5  6  1  0
  6  7  2  0
  7  8  1  0
  8  9  2  0
  9 10  1  0
 10 11  1  0
 11 12  2  0
 11 13  1  0
 13 14  1  0
 14 15  1  0
 15 16  2  0
 16 17  1  0
 17 18  1  0
 18 19  2  0
 18 20  1  0
 20 21  2  0
 21 22  1  0
 22 23  2  0
 23 24  1  0
 24 25  2  0
 25 26  1  0
  9  4  1  0
 17 13  2  0
 26 21  1  0
  1 27  1  0
  1 28  1  0
  1 29  1  0
  2 30  1  0
  2 31  1  0
  5 32  1  0
  6 33  1  0
  7 34  1  0
  8 35  1  0
 10 36  1  0
 14 37  1  0
 15 38  1  0
 22 39  1  0
 23 40  1  0
 24 41  1  0
 25 42  1  0
 26 43  1  0
M  END
>  <smiles>  (21) 
CCOc1ccccc1NC(=O)c1[nH]cnc1C(=O)N=c1cccc[nH]1

>  <score_type>  (21) 
oracle

>  <origin>  (21) 
adg

>  <m_score__min__energy>  (21) 
-7.1799999999999997

>  <m_primary>  (21) 
energy

$$$$
21:0
     RDKit          3D

 49 51  0  0  0  0  0  0  0  0999 V2000
   56.6990   30.2440   43.5580 C   0  0  0  0  0  0  0  0  0  0  0  0
   56.6850   30.8270   44.8570 O   0  0  0  0  0  0  0  0  0  0  0  0
   57.4940   31.9040   45.2560 C   0  0  0  0  0  0  0  0  0  0  0  0
   56.9930   33.2190   45.3370 C   0  0  0  0  0  0  0  0  0  0  0  0
   57.8220   34.2680   45.7440 C   0  0  0  0  0  0  0  0  0  0  0  0
   59.1550   34.0200   46.0720 C   0  0  0  0  0  0  0  0  0  0  0  0
   59.6630   32.7230   45.9980 C   0  0  0  0  0  0  0  0  0  0  0  0
   58.8440   31.6580   45.5870 C   0  0  0  0  0  0  0  0  0  0  0  0
   59.4020   30.2530   45.5720 C   0  0  0  0  0  0  0  0  0  0  0  0
   58.8210   29.3970   46.7050 C   0  0  0  0  0  0  0  0  0  0  0  0
   59.8830   28.5420   47.2930 N   0  0  0  0  0  0  0  0  0  0  0  0
   59.3400   27.3060   47.8960 C   0  0  0  0  0  0  0  0  0  0  0  0
   58.3910   26.6420   46.9340 C   0  0  0  0  0  0  0  0  0  0  0  0
   58.8810   25.7230   45.9930 C   0  0  0  0  0  0  0  0  0  0  0  0
   58.0170   25.1350   45.0660 C   0  0  0  0  0  0  0  0  0  0  0  0
   56.6570   25.4620   45.0710 C   0  0  0  0  0  0  0  0  0  0  0  0
   56.1620   26.3800   46.0020 C   0  0  0  0  0  0  0  0  0  0  0  0
   54.8110   26.7070   46.0040 O   0  0  0  0  0  0  0  0  0  0  0  0
   57.0260   26.9700   46.9310 C   0  0  0  0  0  0  0  0  0  0  0  0
   60.7360   29.2830   48.2450 C   0  0  0  0  0  0  0  0  0  0  0  0
   59.8870   30.1790   49.0920 C   0  0  0  0  0  0  0  0  0  0  0  0
   59.8390   31.5520   49.0380 C   0  0  0  0  0  0  0  0  0  0  0  0
   58.9130   31.9890   49.9090 N   0  0  0  0  0  0  0  0  0  0  0  0
   58.4380   30.8580   50.4720 C   0  0  0  0  0  0  0  0  0  0  0  0
   57.3290   30.8500   51.4700 C   0  0  0  0  0  0  0  0  0  0  0  0
   58.9940   29.7280   49.9890 N   0  0  0  0  0  0  0  0  0  0  0  0
   56.7253   29.1480   43.6482 H   0  0  0  0  0  0  0  0  0  0  0  0
   55.7934   30.5452   43.0111 H   0  0  0  0  0  0  0  0  0  0  0  0
   57.5891   30.5884   43.0111 H   0  0  0  0  0  0  0  0  0  0  0  0
   55.9431   33.4208   45.0783 H   0  0  0  0  0  0  0  0  0  0  0  0
   57.4226   35.2911   45.8058 H   0  0  0  0  0  0  0  0  0  0  0  0
   59.8061   34.8479   46.3893 H   0  0  0  0  0  0  0  0  0  0  0  0
   60.7133   32.5325   46.2636 H   0  0  0  0  0  0  0  0  0  0  0  0
   59.1563   29.7826   44.6085 H   0  0  0  0  0  0  0  0  0  0  0  0
   60.4908   30.3160   45.7150 H   0  0  0  0  0  0  0  0  0  0  0  0
   58.4103   30.0553   47.4847 H   0  0  0  0  0  0  0  0  0  0  0  0
   58.0246   28.7554   46.3000 H   0  0  0  0  0  0  0  0  0  0  0  0
   60.1671   26.6182   48.1260 H   0  0  0  0  0  0  0  0  0  0  0  0
   58.8006   27.5601   48.8204 H   0  0  0  0  0  0  0  0  0  0  0  0
   59.9502   25.4646   45.9854 H   0  0  0  0  0  0  0  0  0  0  0  0
   58.4064   24.4144   44.3317 H   0  0  0  0  0  0  0  0  0  0  0  0
   55.9769   24.9968   44.3423 H   0  0  0  0  0  0  0  0  0  0  0  0
   56.6344   27.6933   47.6614 H   0  0  0  0  0  0  0  0  0  0  0  0
   61.2701   28.5692   48.8894 H   0  0  0  0  0  0  0  0  0  0  0  0
   61.4622   29.8913   47.6859 H   0  0  0  0  0  0  0  0  0  0  0  0
   60.4573   32.1888   48.3882 H   0  0  0  0  0  0  0  0  0  0  0  0
   57.7502   30.8530   52.4862 H   0  0  0  0  0  0  0  0  0  0  0  0
   56.7031   31.7437   51.3298 H   0  0  0  0  0  0  0  0  0  0  0  0
   56.7161   29.9474   51.3298 H   0  0  0  0  0  0  0  0  0  0  0  0
  1  2  1  0
  2  3  1  0
  3  4  2  0
  4  5  1  0
  5  6  2  0
  6  7  1  0
  7  8  2  0
  8  9  1  0
  9 10  1  0
 10 11  1  0
 11 12  1  0
 12 13  1  0
 13 14  2  0
 14 15  1  0
 15 16  2  0
 16 17  1  0
 17 18  1  0
 17 19  2  0
 11 20  1  0
 20 21  1  0
 21 22  2  0
 22 23  1  0
 23 24  1  0
 24 25  1  0
 24 26  2  0
  8  3  1  0
 19 13  1  0
 26 21  1  0
  1 27  1  0
  1 28  1  0
  1 29  1  0
  4 30  1  0
  5 31  1  0
  6 32  1  0
  7 33  1  0
  9 34  1  0
  9 35  1  0
 10 36  1  0
 10 37  1  0
 12 38  1  0
 12 39  1  0
 14 40  1  0
 15 41  1  0
 16 42  1  0
 19 43  1  0
 20 44  1  0
 20 45  1  0
 22 46  1  0
 25 47  1  0
 25 48  1  0
 25 49  1  0
M  CHG  2  18  -1  23  -1
M  END
>  <UniqueID>  (22) 
18

>  <SMILES>  (22) 
COc1ccccc1CCN(Cc1cccc([O-])c1)Cc1c[n-]c(C)n1

>  <Energy>  (22) 
73.51474926202282

>  <Genealogy>  (22) 
COc1ccccc1CCN(Cc1cccc([O-])c1)Cc1c[n-]c(C)n1 (protonated)
COc1ccccc1CCN(Cc1cccc([O-])c1)Cc1c[n-]c(C)n1 (3D coordinates assigned)
COc1ccccc1CCN(Cc1cccc([O-])c1)Cc1c[n-]c(C)n1 (optimized conformer: 73.51474926202282 kcal/mol)

>  <smiles>  (22) 
COc1ccccc1CCN(Cc1cccc(O)c1)Cc1c[nH]c(C)n1

>  <score_type>  (22) 
oracle

>  <origin>  (22) 
adg

>  <m_score__min__energy>  (22) 
-12.779999999999999

>  <m_primary>  (22) 
energy

$$$$
22:0
     RDKit          3D

 55 57  0  0  0  0  0  0  0  0999 V2000
   62.4540   31.3220   49.4170 C   0  0  0  0  0  0  0  0  0  0  0  0
   62.2200   32.0820   48.1020 C   0  0  0  0  0  0  0  0  0  0  0  0
   63.5810   32.4600   47.4920 C   0  0  0  0  0  0  0  0  0  0  0  0
   61.4260   31.1750   47.1370 C   0  0  0  0  0  0  0  0  0  0  0  0
   61.4810   33.2690   48.4270 O   0  0  0  0  0  0  0  0  0  0  0  0
   60.0920   33.4440   48.3090 C   0  0  0  0  0  0  0  0  0  0  0  0
   59.3150   33.0860   49.2330 O   0  0  0  0  0  0  0  0  0  0  0  0
   59.5590   34.0060   47.0980 N   0  0  0  0  0  0  0  0  0  0  0  0
   58.2100   34.5940   47.0540 C   0  0  0  0  0  0  0  0  0  0  0  0
   57.3640   33.9080   45.9710 C   0  0  0  0  0  0  0  0  0  0  0  0
   58.1980   33.5070   44.8270 N   0  0  0  0  0  0  0  0  0  0  0  0
   57.8060   32.4160   43.9780 C   0  0  0  0  0  0  0  0  0  0  0  0
   57.6770   32.6160   42.7400 O   0  0  0  0  0  0  0  0  0  0  0  0
   57.5790   31.0570   44.5200 C   0  0  0  0  0  0  0  0  0  0  0  0
   58.3890   30.5290   45.5350 C   0  0  0  0  0  0  0  0  0  0  0  0
   58.1300   29.2490   46.0490 C   0  0  0  0  0  0  0  0  0  0  0  0
   59.0220   28.7330   47.1120 C   0  0  0  0  0  0  0  0  0  0  0  0
   59.9430   27.7100   46.8340 C   0  0  0  0  0  0  0  0  0  0  0  0
   60.7820   27.2280   47.8430 C   0  0  0  0  0  0  0  0  0  0  0  0
   60.7080   27.7640   49.1320 C   0  0  0  0  0  0  0  0  0  0  0  0
   59.8040   28.7910   49.4120 C   0  0  0  0  0  0  0  0  0  0  0  0
   58.9710   29.2830   48.4030 C   0  0  0  0  0  0  0  0  0  0  0  0
   57.0620   28.4890   45.5120 C   0  0  0  0  0  0  0  0  0  0  0  0
   56.6770   27.1540   46.0360 C   0  0  0  0  0  0  0  0  0  0  0  0
   55.3200   26.7170   46.0000 N   0  0  0  0  0  0  0  0  0  0  0  0
   57.5610   26.3760   46.4860 O   0  0  0  0  0  0  0  0  0  0  0  0
   56.3170   29.0420   44.4580 C   0  0  0  0  0  0  0  0  0  0  0  0
   56.5860   30.2930   43.9990 N   0  0  0  0  0  0  0  0  0  0  0  0
   59.4970   34.1540   44.6260 C   0  0  0  0  0  0  0  0  0  0  0  0
   60.3620   33.9170   45.8680 C   0  0  0  0  0  0  0  0  0  0  0  0
   62.2487   31.9888   50.2674 H   0  0  0  0  0  0  0  0  0  0  0  0
   61.7820   30.4523   49.4624 H   0  0  0  0  0  0  0  0  0  0  0  0
   63.4988   30.9809   49.4624 H   0  0  0  0  0  0  0  0  0  0  0  0
   64.3015   32.6601   48.2987 H   0  0  0  0  0  0  0  0  0  0  0  0
   63.9476   31.6297   46.8706 H   0  0  0  0  0  0  0  0  0  0  0  0
   63.4669   33.3605   46.8706 H   0  0  0  0  0  0  0  0  0  0  0  0
   60.8105   30.4720   47.7175 H   0  0  0  0  0  0  0  0  0  0  0  0
   60.7751   31.7950   46.5030 H   0  0  0  0  0  0  0  0  0  0  0  0
   62.1267   30.6119   46.5030 H   0  0  0  0  0  0  0  0  0  0  0  0
   57.7243   34.4613   48.0320 H   0  0  0  0  0  0  0  0  0  0  0  0
   58.2942   35.6649   46.8171 H   0  0  0  0  0  0  0  0  0  0  0  0
   56.8869   33.0142   46.3994 H   0  0  0  0  0  0  0  0  0  0  0  0
   56.6025   34.6189   45.6179 H   0  0  0  0  0  0  0  0  0  0  0  0
   59.2293   31.1191   45.9294 H   0  0  0  0  0  0  0  0  0  0  0  0
   60.0044   27.2871   45.8204 H   0  0  0  0  0  0  0  0  0  0  0  0
   61.5015   26.4257   47.6223 H   0  0  0  0  0  0  0  0  0  0  0  0
   61.3625   27.3764   49.9266 H   0  0  0  0  0  0  0  0  0  0  0  0
   59.7475   29.2127   50.4264 H   0  0  0  0  0  0  0  0  0  0  0  0
   58.2727   30.1044   48.6212 H   0  0  0  0  0  0  0  0  0  0  0  0
   54.7800   26.7160   45.1060 H   0  0  0  0  0  0  0  0  0  0  0  0
   55.5069   28.4565   43.9987 H   0  0  0  0  0  0  0  0  0  0  0  0
   59.9919   33.7238   43.7428 H   0  0  0  0  0  0  0  0  0  0  0  0
   59.3572   35.2335   44.4675 H   0  0  0  0  0  0  0  0  0  0  0  0
   60.8136   32.9159   45.8055 H   0  0  0  0  0  0  0  0  0  0  0  0
   61.1421   34.6917   45.9033 H   0  0  0  0  0  0  0  0  0  0  0  0
  1  2  1  0
  2  3  1  0
  2  4  1  0
  2  5  1  0
  5  6  1  0
  6  7  2  0
  6  8  1  0
  8  9  1  0
  9 10  1  0
 10 11  1  0
 11 12  1  0
 12 13  2  0
 12 14  1  0
 14 15  2  0
 15 16  1  0
 16 17  1  0
 17 18  2  0
 18 19  1  0
 19 20  2  0
 20 21  1  0
 21 22  2  0
 16 23  2  0
 23 24  1  0
 24 25  1  0
 24 26  2  0
 23 27  1  0
 27 28  2  0
 11 29  1  0
 29 30  1  0
 30  8  1  0
 28 14  1  0
 22 17  1  0
  1 31  1  0
  1 32  1  0
  1 33  1  0
  3 34  1  0
  3 35  1  0
  3 36  1  0
  4 37  1  0
  4 38  1  0
  4 39  1  0
  9 40  1  0
  9 41  1  0
 10 42  1  0
 10 43  1  0
 15 44  1  0
 18 45  1  0
 19 46  1  0
 20 47  1  0
 21 48  1  0
 22 49  1  0
 25 50  1  0
 27 51  1  0
 29 52  1  0
 29 53  1  0
 30 54  1  0
 30 55  1  0
M  CHG  1  25  -1
M  END
>  <UniqueID>  (23) 
19

>  <SMILES>  (23) 
CC(C)(C)OC(=O)N1CCN(C(=O)c2cc(-c3ccccc3)c(C([NH-])=O)cn2)CC1

>  <Energy>  (23) 
67.00590568299766

>  <Genealogy>  (23) 
CC(C)(C)OC(=O)N1CCN(C(=O)c2cc(-c3ccccc3)c(C([NH-])=O)cn2)CC1 (protonated)
CC(C)(C)OC(=O)N1CCN(C(=O)c2cc(-c3ccccc3)c(C([NH-])=O)cn2)CC1 (3D coordinates assigned)
CC(C)(C)OC(=O)N1CCN(C(=O)c2cc(-c3ccccc3)c(C([NH-])=O)cn2)CC1 (nonaromatic ring conformer: 67.00590568299766 kcal/mol)

>  <smiles>  (23) 
CC(C)(C)OC(=O)N1CCN(C(=O)c2cc(-c3ccccc3)c(C(N)=O)cn2)CC1

>  <score_type>  (23) 
oracle

>  <origin>  (23) 
adg

>  <m_score__min__energy>  (23) 
-12.31

>  <m_primary>  (23) 
energy

$$$$
23:0
     RDKit          3D

 72 77  0  0  0  0  0  0  0  0999 V2000
   58.0060   30.8520   46.7500 O   0  0  0  0  0  0  0  0  0  0  0  0
   59.0180   30.1090   46.8610 C   0  0  0  0  0  0  0  0  0  0  0  0
   60.3280   30.6440   46.6420 N   0  0  0  0  0  0  0  0  0  0  0  0
   60.9780   31.6650   47.4120 C   0  0  0  0  0  0  0  0  0  0  0  0
   60.2450   32.3150   48.4150 C   0  0  0  0  0  0  0  0  0  0  0  0
   60.8210   33.3540   49.1510 C   0  0  0  0  0  0  0  0  0  0  0  0
   62.1290   33.7620   48.8820 C   0  0  0  0  0  0  0  0  0  0  0  0
   62.8610   33.1350   47.8690 C   0  0  0  0  0  0  0  0  0  0  0  0
   62.2890   32.0930   47.1320 C   0  0  0  0  0  0  0  0  0  0  0  0
   58.8580   28.6770   47.2070 C   0  0  0  0  0  0  0  0  0  0  0  0
   59.6860   27.9700   48.0930 C   0  0  0  0  0  0  0  0  0  0  0  0
   60.7040   28.5360   48.9350 N   0  0  0  0  0  0  0  0  0  0  0  0
   60.5870   28.5840   50.3910 C   0  0  0  0  0  0  0  0  0  0  0  0
   59.8670   29.8340   50.8210 C   0  0  0  0  0  0  0  0  0  0  0  0
   58.5320   30.0450   50.4380 C   0  0  0  0  0  0  0  0  0  0  0  0
   57.8600   31.2060   50.8330 C   0  0  0  0  0  0  0  0  0  0  0  0
   58.5170   32.1660   51.6080 C   0  0  0  0  0  0  0  0  0  0  0  0
   59.8450   31.9660   51.9900 C   0  0  0  0  0  0  0  0  0  0  0  0
   60.5210   30.8060   51.5990 C   0  0  0  0  0  0  0  0  0  0  0  0
   59.2580   26.3390   48.0690 S   0  0  0  0  0  0  0  0  0  0  0  0
   58.0050   26.5000   46.9640 C   0  0  0  0  0  0  0  0  0  0  0  0
   57.2250   25.4060   46.4560 N   0  0  0  0  0  0  0  0  0  0  0  0
   57.6520   24.0190   46.4920 C   0  0  0  0  0  0  0  0  0  0  0  0
   56.5900   23.2300   45.7070 C   0  0  0  0  0  0  0  0  0  0  0  0
   55.3830   24.1640   45.5200 C   0  0  0  0  0  0  0  0  0  0  0  0
   55.8960   25.4720   45.9720 C   0  0  0  0  0  0  0  0  0  0  0  0
   55.1950   26.5180   46.0020 O   0  0  0  0  0  0  0  0  0  0  0  0
   57.9100   27.8380   46.5800 C   0  0  0  0  0  0  0  0  0  0  0  0
   57.0220   28.2940   45.5560 N   0  0  0  0  0  0  0  0  0  0  0  0
   57.3760   28.1700   44.1440 C   0  0  0  0  0  0  0  0  0  0  0  0
   57.3600   29.5150   43.4920 C   0  0  0  0  0  0  0  0  0  0  0  0
   58.2190   30.5590   43.7540 C   0  0  0  0  0  0  0  0  0  0  0  0
   57.7360   31.6130   43.0760 N   0  0  0  0  0  0  0  0  0  0  0  0
   58.3030   32.9570   43.0330 C   0  0  0  0  0  0  0  0  0  0  0  0
   58.3710   33.5310   44.4210 C   0  0  0  0  0  0  0  0  0  0  0  0
   57.3500   33.2630   45.3480 C   0  0  0  0  0  0  0  0  0  0  0  0
   57.4290   33.7740   46.6480 C   0  0  0  0  0  0  0  0  0  0  0  0
   58.5300   34.5450   47.0320 C   0  0  0  0  0  0  0  0  0  0  0  0
   59.5570   34.8010   46.1190 C   0  0  0  0  0  0  0  0  0  0  0  0
   59.4830   34.2900   44.8190 C   0  0  0  0  0  0  0  0  0  0  0  0
   56.6440   31.2370   42.4320 N   0  0  0  0  0  0  0  0  0  0  0  0
   56.3820   29.9610   42.6790 N   0  0  0  0  0  0  0  0  0  0  0  0
   59.2104   32.0053   48.6238 H   0  0  0  0  0  0  0  0  0  0  0  0
   60.2429   33.8513   49.9437 H   0  0  0  0  0  0  0  0  0  0  0  0
   62.5831   34.5758   49.4664 H   0  0  0  0  0  0  0  0  0  0  0  0
   63.8885   33.4618   47.6513 H   0  0  0  0  0  0  0  0  0  0  0  0
   62.8655   31.6067   46.3313 H   0  0  0  0  0  0  0  0  0  0  0  0
   61.5410   28.9910   48.5080 H   0  0  0  0  0  0  0  0  0  0  0  0
   60.0246   27.7047   50.7382 H   0  0  0  0  0  0  0  0  0  0  0  0
   61.5960   28.5860   50.8291 H   0  0  0  0  0  0  0  0  0  0  0  0
   58.0130   29.2937   49.8247 H   0  0  0  0  0  0  0  0  0  0  0  0
   56.8134   31.3639   50.5335 H   0  0  0  0  0  0  0  0  0  0  0  0
   57.9876   33.0794   51.9170 H   0  0  0  0  0  0  0  0  0  0  0  0
   60.3606   32.7225   52.5998 H   0  0  0  0  0  0  0  0  0  0  0  0
   61.5677   30.6533   51.9009 H   0  0  0  0  0  0  0  0  0  0  0  0
   58.6382   23.9099   46.0171 H   0  0  0  0  0  0  0  0  0  0  0  0
   57.7459   23.6522   47.5248 H   0  0  0  0  0  0  0  0  0  0  0  0
   56.9902   22.9293   44.7275 H   0  0  0  0  0  0  0  0  0  0  0  0
   56.2998   22.3171   46.2478 H   0  0  0  0  0  0  0  0  0  0  0  0
   55.0751   24.2043   44.4647 H   0  0  0  0  0  0  0  0  0  0  0  0
   54.4923   23.8346   46.0751 H   0  0  0  0  0  0  0  0  0  0  0  0
   56.1720   28.8320   45.8420 H   0  0  0  0  0  0  0  0  0  0  0  0
   58.3829   27.7356   44.0579 H   0  0  0  0  0  0  0  0  0  0  0  0
   56.6440   27.5183   43.6445 H   0  0  0  0  0  0  0  0  0  0  0  0
   59.1171   30.5347   44.3887 H   0  0  0  0  0  0  0  0  0  0  0  0
   59.3164   32.9114   42.6076 H   0  0  0  0  0  0  0  0  0  0  0  0
   57.6645   33.5985   42.4078 H   0  0  0  0  0  0  0  0  0  0  0  0
   56.4863   32.6499   45.0510 H   0  0  0  0  0  0  0  0  0  0  0  0
   56.6238   33.5688   47.3688 H   0  0  0  0  0  0  0  0  0  0  0  0
   58.5882   34.9503   48.0529 H   0  0  0  0  0  0  0  0  0  0  0  0
   60.4245   35.4051   46.4232 H   0  0  0  0  0  0  0  0  0  0  0  0
   60.2984   34.4834   44.1065 H   0  0  0  0  0  0  0  0  0  0  0  0
  1  2  2  0
  2  3  1  0
  3  4  1  0
  4  5  2  0
  5  6  1  0
  6  7  2  0
  7  8  1  0
  8  9  2  0
  2 10  1  0
 10 11  2  0
 11 12  1  0
 12 13  1  0
 13 14  1  0
 14 15  2  0
 15 16  1  0
 16 17  2  0
 17 18  1  0
 18 19  2  0
 11 20  1  0
 20 21  1  0
 21 22  1  0
 22 23  1  0
 23 24  1  0
 24 25  1  0
 25 26  1  0
 26 27  2  0
 21 28  2  0
 28 29  1  0
 29 30  1  0
 30 31  1  0
 31 32  2  0
 32 33  1  0
 33 34  1  0
 34 35  1  0
 35 36  2  0
 36 37  1  0
 37 38  2  0
 38 39  1  0
 39 40  2  0
 33 41  1  0
 41 42  2  0
  9  4  1  0
 28 10  1  0
 42 31  1  0
 19 14  1  0
 26 22  1  0
 40 35  1  0
  5 43  1  0
  6 44  1  0
  7 45  1  0
  8 46  1  0
  9 47  1  0
 12 48  1  0
 13 49  1  0
 13 50  1  0
 15 51  1  0
 16 52  1  0
 17 53  1  0
 18 54  1  0
 19 55  1  0
 23 56  1  0
 23 57  1  0
 24 58  1  0
 24 59  1  0
 25 60  1  0
 25 61  1  0
 29 62  1  0
 30 63  1  0
 30 64  1  0
 32 65  1  0
 34 66  1  0
 34 67  1  0
 36 68  1  0
 37 69  1  0
 38 70  1  0
 39 71  1  0
 40 72  1  0
M  CHG  1   3  -1
M  END
>  <UniqueID>  (24) 
20

>  <SMILES>  (24) 
O=C([N-]c1ccccc1)c1c(NCc2ccccc2)sc(N2CCCC2=O)c1NCc1cn(Cc2ccccc2)nn1

>  <Energy>  (24) 
154.4110371662725

>  <Genealogy>  (24) 
O=C([N-]c1ccccc1)c1c(NCc2ccccc2)sc(N2CCCC2=O)c1NCc1cn(Cc2ccccc2)nn1 (protonated)
O=C([N-]c1ccccc1)c1c(NCc2ccccc2)sc(N2CCCC2=O)c1NCc1cn(Cc2ccccc2)nn1 (3D coordinates assigned)
O=C([N-]c1ccccc1)c1c(NCc2ccccc2)sc(N2CCCC2=O)c1NCc1cn(Cc2ccccc2)nn1 (nonaromatic ring conformer: 154.4110371662725 kcal/mol)

>  <smiles>  (24) 
O=C(Nc1ccccc1)c1c(NCc2ccccc2)sc(N2CCCC2=O)c1NCc1cn(Cc2ccccc2)nn1

>  <score_type>  (24) 
oracle

>  <origin>  (24) 
adg

>  <m_score__min__energy>  (24) 
-11.92

>  <m_primary>  (24) 
energy

$$$$
24:0
     RDKit          3D

 54 57  0  0  0  0  0  0  0  0999 V2000
   57.2130   22.6360   47.2540 O   0  0  0  0  0  0  0  0  0  0  0  0
   57.2680   23.9660   46.8610 C   0  0  0  0  0  0  0  0  0  0  0  0
   56.0850   24.6730   46.6160 C   0  0  0  0  0  0  0  0  0  0  0  0
   56.1370   26.0150   46.2300 C   0  0  0  0  0  0  0  0  0  0  0  0
   54.9610   26.7170   45.9940 O   0  0  0  0  0  0  0  0  0  0  0  0
   57.3720   26.6550   46.0890 C   0  0  0  0  0  0  0  0  0  0  0  0
   58.5650   25.9530   46.3310 C   0  0  0  0  0  0  0  0  0  0  0  0
   59.8970   26.6450   46.2320 C   0  0  0  0  0  0  0  0  0  0  0  0
   59.7110   28.0650   45.9000 N   0  0  0  0  0  0  0  0  0  0  0  0
   59.7510   28.5030   44.4980 C   0  0  0  0  0  0  0  0  0  0  0  0
   58.5390   29.3380   44.1830 C   0  0  0  0  0  0  0  0  0  0  0  0
   57.3690   28.7300   43.7040 C   0  0  0  0  0  0  0  0  0  0  0  0
   56.2270   29.4960   43.4470 C   0  0  0  0  0  0  0  0  0  0  0  0
   56.2500   30.8770   43.6670 C   0  0  0  0  0  0  0  0  0  0  0  0
   57.4070   31.4880   44.1580 C   0  0  0  0  0  0  0  0  0  0  0  0
   58.5480   30.7230   44.4190 C   0  0  0  0  0  0  0  0  0  0  0  0
   59.7210   29.0520   46.9430 C   0  0  0  0  0  0  0  0  0  0  0  0
   58.5320   29.6910   47.3270 C   0  0  0  0  0  0  0  0  0  0  0  0
   58.5440   30.6350   48.3560 C   0  0  0  0  0  0  0  0  0  0  0  0
   59.7360   30.9600   49.0130 C   0  0  0  0  0  0  0  0  0  0  0  0
   59.6840   31.9070   50.0500 O   0  0  0  0  0  0  0  0  0  0  0  0
   59.7360   33.3250   49.8760 C   0  0  0  0  0  0  0  0  0  0  0  0
   59.7370   33.6950   48.4150 C   0  0  0  0  0  0  0  0  0  0  0  0
   58.5240   33.8310   47.7170 C   0  0  0  0  0  0  0  0  0  0  0  0
   58.5270   34.1650   46.3590 C   0  0  0  0  0  0  0  0  0  0  0  0
   59.7360   34.3550   45.6870 C   0  0  0  0  0  0  0  0  0  0  0  0
   60.9470   34.2050   46.3680 C   0  0  0  0  0  0  0  0  0  0  0  0
   60.9500   33.8700   47.7260 C   0  0  0  0  0  0  0  0  0  0  0  0
   60.9320   30.3320   48.6140 C   0  0  0  0  0  0  0  0  0  0  0  0
   60.9190   29.3770   47.5930 C   0  0  0  0  0  0  0  0  0  0  0  0
   58.5050   24.6030   46.7170 C   0  0  0  0  0  0  0  0  0  0  0  0
   55.1125   24.1712   46.7275 H   0  0  0  0  0  0  0  0  0  0  0  0
   57.4099   27.7122   45.7875 H   0  0  0  0  0  0  0  0  0  0  0  0
   60.4209   26.5633   47.1958 H   0  0  0  0  0  0  0  0  0  0  0  0
   60.4904   26.1669   45.4387 H   0  0  0  0  0  0  0  0  0  0  0  0
   60.6588   29.1009   44.3292 H   0  0  0  0  0  0  0  0  0  0  0  0
   59.7590   27.6184   43.8442 H   0  0  0  0  0  0  0  0  0  0  0  0
   57.3494   27.6441   43.5294 H   0  0  0  0  0  0  0  0  0  0  0  0
   55.3124   29.0130   43.0725 H   0  0  0  0  0  0  0  0  0  0  0  0
   55.3569   31.4826   43.4534 H   0  0  0  0  0  0  0  0  0  0  0  0
   57.4201   32.5728   44.3395 H   0  0  0  0  0  0  0  0  0  0  0  0
   59.4551   31.2069   44.8102 H   0  0  0  0  0  0  0  0  0  0  0  0
   57.5886   29.4477   46.8163 H   0  0  0  0  0  0  0  0  0  0  0  0
   57.6067   31.1282   48.6532 H   0  0  0  0  0  0  0  0  0  0  0  0
   58.8586   33.7784   50.3604 H   0  0  0  0  0  0  0  0  0  0  0  0
   60.6657   33.6979   50.3305 H   0  0  0  0  0  0  0  0  0  0  0  0
   57.5695   33.6742   48.2408 H   0  0  0  0  0  0  0  0  0  0  0  0
   57.5752   34.2782   45.8193 H   0  0  0  0  0  0  0  0  0  0  0  0
   59.7353   34.6231   44.6202 H   0  0  0  0  0  0  0  0  0  0  0  0
   61.8986   34.3505   45.8357 H   0  0  0  0  0  0  0  0  0  0  0  0
   61.9050   33.7430   48.2569 H   0  0  0  0  0  0  0  0  0  0  0  0
   61.8796   30.5939   49.1075 H   0  0  0  0  0  0  0  0  0  0  0  0
   61.8541   28.8782   47.2984 H   0  0  0  0  0  0  0  0  0  0  0  0
   59.4340   24.0453   46.9065 H   0  0  0  0  0  0  0  0  0  0  0  0
  1  2  1  0
  2  3  2  0
  3  4  1  0
  4  5  1  0
  4  6  2  0
  6  7  1  0
  7  8  1  0
  8  9  1  0
  9 10  1  0
 10 11  1  0
 11 12  2  0
 12 13  1  0
 13 14  2  0
 14 15  1  0
 15 16  2  0
  9 17  1  0
 17 18  2  0
 18 19  1  0
 19 20  2  0
 20 21  1  0
 21 22  1  0
 22 23  1  0
 23 24  2  0
 24 25  1  0
 25 26  2  0
 26 27  1  0
 27 28  2  0
 20 29  1  0
 29 30  2  0
  7 31  2  0
 31  2  1  0
 16 11  1  0
 30 17  1  0
 28 23  1  0
  3 32  1  0
  6 33  1  0
  8 34  1  0
  8 35  1  0
 10 36  1  0
 10 37  1  0
 12 38  1  0
 13 39  1  0
 14 40  1  0
 15 41  1  0
 16 42  1  0
 18 43  1  0
 19 44  1  0
 22 45  1  0
 22 46  1  0
 24 47  1  0
 25 48  1  0
 26 49  1  0
 27 50  1  0
 28 51  1  0
 29 52  1  0
 30 53  1  0
 31 54  1  0
M  CHG  2   1  -1   5  -1
M  END
>  <UniqueID>  (25) 
21

>  <SMILES>  (25) 
[O-]c1cc([O-])cc(CN(Cc2ccccc2)c2ccc(OCc3ccccc3)cc2)c1

>  <Energy>  (25) 
60.01387606909525

>  <Genealogy>  (25) 
[O-]c1cc([O-])cc(CN(Cc2ccccc2)c2ccc(OCc3ccccc3)cc2)c1 (protonated)
[O-]c1cc([O-])cc(CN(Cc2ccccc2)c2ccc(OCc3ccccc3)cc2)c1 (3D coordinates assigned)
[O-]c1cc([O-])cc(CN(Cc2ccccc2)c2ccc(OCc3ccccc3)cc2)c1 (optimized conformer: 60.01387606909525 kcal/mol)

>  <smiles>  (25) 
Oc1cc(O)cc(CN(Cc2ccccc2)c2ccc(OCc3ccccc3)cc2)c1

>  <score_type>  (25) 
oracle

>  <origin>  (25) 
adg

>  <m_score__min__energy>  (25) 
-14.710000000000001

>  <m_primary>  (25) 
energy

$$$$
25:0
     RDKit          3D

 50 53  0  0  0  0  0  0  0  0999 V2000
   61.0090   31.8300   46.5670 H   0  0  0  0  0  0  0  0  0  0  0  0
   61.3930   30.9140   46.7630 O   0  0  0  0  0  0  0  0  0  0  0  0
   60.5830   29.8320   47.0980 C   0  0  0  0  0  0  0  0  0  0  0  0
   59.7640   29.2550   46.1770 N   0  0  0  0  0  0  0  0  0  0  0  0
   59.0560   28.2330   46.7030 C   0  0  0  0  0  0  0  0  0  0  0  0
   58.2060   27.5480   45.9920 N   0  0  0  0  0  0  0  0  0  0  0  0
   57.0750   28.0490   45.2630 C   0  0  0  0  0  0  0  0  0  0  0  0
   55.8960   27.7800   45.6180 O   0  0  0  0  0  0  0  0  0  0  0  0
   57.3020   28.8820   44.1260 N   0  0  0  0  0  0  0  0  0  0  0  0
   56.5720   30.4440   43.9590 S   0  0  0  0  0  0  0  0  0  0  0  0
   56.5200   30.8140   42.5040 O   0  0  0  0  0  0  0  0  0  0  0  0
   55.1650   30.4010   44.4910 O   0  0  0  0  0  0  0  0  0  0  0  0
   57.5260   31.6400   44.8310 C   0  0  0  0  0  0  0  0  0  0  0  0
   57.7710   31.4910   46.2030 C   0  0  0  0  0  0  0  0  0  0  0  0
   57.3491   30.6318   46.7451 H   0  0  0  0  0  0  0  0  0  0  0  0
   58.5500   32.4310   46.8850 C   0  0  0  0  0  0  0  0  0  0  0  0
   58.7475   32.3015   47.9594 H   0  0  0  0  0  0  0  0  0  0  0  0
   59.0800   33.5360   46.2080 C   0  0  0  0  0  0  0  0  0  0  0  0
   59.8610   34.4550   46.9230 O   0  0  0  0  0  0  0  0  0  0  0  0
   61.1030   34.1760   47.5130 C   0  0  0  0  0  0  0  0  0  0  0  0
   62.1750   33.8120   46.6880 C   0  0  0  0  0  0  0  0  0  0  0  0
   62.0349   33.7626   45.5981 H   0  0  0  0  0  0  0  0  0  0  0  0
   63.4230   33.5110   47.2440 C   0  0  0  0  0  0  0  0  0  0  0  0
   64.2633   33.2352   46.5899 H   0  0  0  0  0  0  0  0  0  0  0  0
   63.6040   33.5600   48.6280 C   0  0  0  0  0  0  0  0  0  0  0  0
   64.5865   33.3249   49.0631 H   0  0  0  0  0  0  0  0  0  0  0  0
   62.5360   33.9080   49.4600 C   0  0  0  0  0  0  0  0  0  0  0  0
   62.6784   33.9459   50.5501 H   0  0  0  0  0  0  0  0  0  0  0  0
   61.2870   34.2080   48.9080 C   0  0  0  0  0  0  0  0  0  0  0  0
   60.4454   34.4699   49.5661 H   0  0  0  0  0  0  0  0  0  0  0  0
   58.8520   33.6720   44.8260 C   0  0  0  0  0  0  0  0  0  0  0  0
   59.2850   34.5231   44.2800 H   0  0  0  0  0  0  0  0  0  0  0  0
   58.0770   32.7290   44.1450 C   0  0  0  0  0  0  0  0  0  0  0  0
   57.8992   32.8430   43.0655 H   0  0  0  0  0  0  0  0  0  0  0  0
   59.4170   28.0030   48.3370 S   0  0  0  0  0  0  0  0  0  0  0  0
   60.5340   29.2600   48.3730 C   0  0  0  0  0  0  0  0  0  0  0  0
   61.2680   29.7140   49.6000 C   0  0  0  0  0  0  0  0  0  0  0  0
   61.3704   28.8660   50.2931 H   0  0  0  0  0  0  0  0  0  0  0  0
   62.2587   30.0861   49.2999 H   0  0  0  0  0  0  0  0  0  0  0  0
   60.5240   30.8270   50.2890 C   0  0  0  0  0  0  0  0  0  0  0  0
   61.1230   31.5390   51.3440 C   0  0  0  0  0  0  0  0  0  0  0  0
   62.1420   31.2823   51.6692 H   0  0  0  0  0  0  0  0  0  0  0  0
   60.4280   32.5720   51.9810 C   0  0  0  0  0  0  0  0  0  0  0  0
   60.9028   33.1276   52.8031 H   0  0  0  0  0  0  0  0  0  0  0  0
   59.1310   32.9000   51.5750 C   0  0  0  0  0  0  0  0  0  0  0  0
   58.2620   34.1990   52.3710 Cl  0  0  0  0  0  0  0  0  0  0  0  0
   58.5260   32.1910   50.5310 C   0  0  0  0  0  0  0  0  0  0  0  0
   57.5056   32.4488   50.2112 H   0  0  0  0  0  0  0  0  0  0  0  0
   59.2160   31.1560   49.8940 C   0  0  0  0  0  0  0  0  0  0  0  0
   58.7330   30.5962   49.0796 H   0  0  0  0  0  0  0  0  0  0  0  0
  1  2  1  0
  2  3  1  0
  3  4  1  0
  4  5  1  0
  5  6  2  0
  6  7  1  0
  7  8  2  0
  7  9  1  0
  9 10  1  0
 10 11  2  0
 10 12  2  0
 10 13  1  0
 13 14  2  0
 14 15  1  0
 14 16  1  0
 16 17  1  0
 16 18  2  0
 18 19  1  0
 19 20  1  0
 20 21  2  0
 21 22  1  0
 21 23  1  0
 23 24  1  0
 23 25  2  0
 25 26  1  0
 25 27  1  0
 27 28  1  0
 27 29  2  0
 29 30  1  0
 18 31  1  0
 31 32  1  0
 31 33  2  0
 33 34  1  0
  5 35  1  0
 35 36  1  0
 36 37  1  0
 37 38  1  0
 37 39  1  0
 37 40  1  0
 40 41  2  0
 41 42  1  0
 41 43  1  0
 43 44  1  0
 43 45  2  0
 45 46  1  0
 45 47  1  0
 47 48  1  0
 47 49  2  0
 49 50  1  0
 36  3  2  0
 49 40  1  0
 33 13  1  0
 29 20  1  0
M  CHG  2   4  -1   9  -1
M  END
>  <UniqueID>  (26) 
22

>  <SMILES>  (26) 
O=C(/N=c1/[n-]c(O)c(Cc2ccc(Cl)cc2)s1)[N-]S(=O)(=O)c1ccc(Oc2ccccc2)cc1

>  <Energy>  (26) 
95.18195267115553

>  <Genealogy>  (26) 
O=C(N=c1[n-]c(O)c(Cc2ccc(Cl)cc2)s1)[N-]S(=O)(=O)c1ccc(Oc2ccccc2)cc1 (protonated)
O=C(/N=c1/[n-]c(O)c(Cc2ccc(Cl)cc2)s1)[N-]S(=O)(=O)c1ccc(Oc2ccccc2)cc1 (cis-trans isomerization)
O=C(/N=c1/[n-]c(O)c(Cc2ccc(Cl)cc2)s1)[N-]S(=O)(=O)c1ccc(Oc2ccccc2)cc1 (3D coordinates assigned)
O=C(/N=c1/[n-]c(O)c(Cc2ccc(Cl)cc2)s1)[N-]S(=O)(=O)c1ccc(Oc2ccccc2)cc1 (optimized conformer: 95.18195267115553 kcal/mol)

>  <smiles>  (26) 
O=C(N=c1[nH]c(O)c(Cc2ccc(Cl)cc2)s1)NS(=O)(=O)c1ccc(Oc2ccccc2)cc1

>  <score_type>  (26) 
oracle

>  <origin>  (26) 
adg

>  <m_score__min__energy>  (26) 
-13.16

>  <m_primary>  (26) 
energy

$$$$
26:0
     RDKit          3D

 36 38  0  0  0  0  0  0  0  0999 V2000
   57.2506   21.0351   44.5785 H   0  0  0  0  0  0  0  0  0  0  0  0
   56.9390   22.0460   44.8800 C   0  0  0  0  0  0  0  0  0  0  0  0
   55.6140   22.2960   44.9860 C   0  0  0  0  0  0  0  0  0  0  0  0
   54.9140   21.4773   44.7630 H   0  0  0  0  0  0  0  0  0  0  0  0
   55.0350   23.6380   45.3940 C   0  0  0  0  0  0  0  0  0  0  0  0
   54.3200   23.9665   44.6253 H   0  0  0  0  0  0  0  0  0  0  0  0
   54.5378   23.5157   46.3676 H   0  0  0  0  0  0  0  0  0  0  0  0
   56.0990   24.6760   45.5410 C   0  0  0  0  0  0  0  0  0  0  0  0
   57.4430   24.4210   45.4350 C   0  0  0  0  0  0  0  0  0  0  0  0
   58.0910   25.6210   45.6530 C   0  0  0  0  0  0  0  0  0  0  0  0
   59.4690   25.8070   45.6260 O   0  0  0  0  0  0  0  0  0  0  0  0
   57.1930   26.6020   45.8930 N   0  0  0  0  0  0  0  0  0  0  0  0
   57.4770   28.0230   46.1050 C   0  0  0  0  0  0  0  0  0  0  0  0
   58.4699   28.1264   46.5670 H   0  0  0  0  0  0  0  0  0  0  0  0
   56.7007   28.4413   46.7625 H   0  0  0  0  0  0  0  0  0  0  0  0
   57.4590   28.7900   44.7790 C   0  0  0  0  0  0  0  0  0  0  0  0
   57.3440   28.0736   43.9522 H   0  0  0  0  0  0  0  0  0  0  0  0
   58.4048   29.3438   44.6853 H   0  0  0  0  0  0  0  0  0  0  0  0
   56.3300   29.7720   44.7340 C   0  0  0  0  0  0  0  0  0  0  0  0
   55.1450   29.3600   44.8760 O   0  0  0  0  0  0  0  0  0  0  0  0
   56.6130   31.1570   44.4810 N   0  0  0  0  0  0  0  0  0  0  0  0
   57.3300   31.9570   45.2170 C   0  0  0  0  0  0  0  0  0  0  0  0
   57.9810   31.5060   46.3280 N   0  0  0  0  0  0  0  0  0  0  0  0
   58.7340   32.3300   47.1060 C   0  0  0  0  0  0  0  0  0  0  0  0
   59.2455   31.9311   47.9943 H   0  0  0  0  0  0  0  0  0  0  0  0
   58.8580   33.6810   46.7780 C   0  0  0  0  0  0  0  0  0  0  0  0
   59.4661   34.3520   47.4025 H   0  0  0  0  0  0  0  0  0  0  0  0
   58.2010   34.1700   45.6480 C   0  0  0  0  0  0  0  0  0  0  0  0
   58.2879   35.2325   45.3768 H   0  0  0  0  0  0  0  0  0  0  0  0
   57.4330   33.3080   44.8620 C   0  0  0  0  0  0  0  0  0  0  0  0
   56.9126   33.6875   43.9703 H   0  0  0  0  0  0  0  0  0  0  0  0
   55.9750   26.0240   45.8190 C   0  0  0  0  0  0  0  0  0  0  0  0
   54.7740   26.7020   45.9930 O   0  0  0  0  0  0  0  0  0  0  0  0
   58.0220   23.0730   45.1510 C   0  0  0  0  0  0  0  0  0  0  0  0
   58.6756   23.1438   44.2691 H   0  0  0  0  0  0  0  0  0  0  0  0
   58.5898   22.7490   46.0357 H   0  0  0  0  0  0  0  0  0  0  0  0
  1  2  1  0
  2  3  2  0
  3  4  1  0
  3  5  1  0
  5  6  1  0
  5  7  1  0
  5  8  1  0
  8  9  1  0
  9 10  2  0
 10 11  1  0
 10 12  1  0
 12 13  1  0
 13 14  1  0
 13 15  1  0
 13 16  1  0
 16 17  1  0
 16 18  1  0
 16 19  1  0
 19 20  2  0
 19 21  1  0
 21 22  2  0
 22 23  1  0
 23 24  1  0
 24 25  1  0
 24 26  2  0
 26 27  1  0
 26 28  1  0
 28 29  1  0
 28 30  2  0
 30 31  1  0
 12 32  1  0
 32 33  1  0
  9 34  1  0
 34 35  1  0
 34 36  1  0
 34  2  1  0
 32  8  2  0
 30 22  1  0
M  CHG  3  11  -1  23  -1  33  -1
M  END
>  <UniqueID>  (27) 
23

>  <SMILES>  (27) 
O=C(CCn1c([O-])c2c(c1[O-])CC=CC2)/N=c1/cccc[n-]1

>  <Energy>  (27) 
69.17849904491257

>  <Genealogy>  (27) 
O=C(CCn1c([O-])c2c(c1[O-])CC=CC2)N=c1cccc[n-]1 (protonated)
O=C(CCn1c([O-])c2c(c1[O-])CC=CC2)/N=c1/cccc[n-]1 (cis-trans isomerization)
O=C(CCn1c([O-])c2c(c1[O-])CC=CC2)/N=c1/cccc[n-]1 (3D coordinates assigned)
O=C(CCn1c([O-])c2c(c1[O-])CC=CC2)/N=c1/cccc[n-]1 (nonaromatic ring conformer: 69.17849904491257 kcal/mol)

>  <smiles>  (27) 
O=C(CCn1c(O)c2c(c1O)CC=CC2)N=c1cccc[nH]1

>  <score_type>  (27) 
oracle

>  <origin>  (27) 
adg

>  <m_score__min__energy>  (27) 
-14.06

>  <m_primary>  (27) 
energy

$$$$
27:0
     RDKit          3D

 43 45  0  0  0  0  0  0  0  0999 V2000
   57.1730   28.6610   43.3460 N   0  0  0  0  0  0  0  0  0  0  0  0
   56.6370   29.6380   44.2420 C   0  0  0  0  0  0  0  0  0  0  0  0
   55.5620   29.3870   44.8520 O   0  0  0  0  0  0  0  0  0  0  0  0
   57.3280   30.9260   44.4560 C   0  0  0  0  0  0  0  0  0  0  0  0
   57.4000   31.8900   43.4390 C   0  0  0  0  0  0  0  0  0  0  0  0
   58.0720   33.0890   43.6750 C   0  0  0  0  0  0  0  0  0  0  0  0
   58.6600   33.3270   44.9180 C   0  0  0  0  0  0  0  0  0  0  0  0
   58.5580   32.3550   45.9270 C   0  0  0  0  0  0  0  0  0  0  0  0
   59.1670   32.5510   47.2170 N   0  0  0  0  0  0  0  0  0  0  0  0
   59.7860   31.3980   47.8920 C   0  0  0  0  0  0  0  0  0  0  0  0
   60.4260   31.7970   49.2270 C   0  0  0  0  0  0  0  0  0  0  0  0
   61.1470   33.0690   49.0780 N   0  0  0  0  0  0  0  0  0  0  0  0
   62.4870   33.2050   49.5780 C   0  0  0  0  0  0  0  0  0  0  0  0
   62.7300   33.9180   50.7630 C   0  0  0  0  0  0  0  0  0  0  0  0
   64.0320   34.0540   51.2510 C   0  0  0  0  0  0  0  0  0  0  0  0
   65.1100   33.4760   50.5650 C   0  0  0  0  0  0  0  0  0  0  0  0
   66.5150   33.6550   51.0700 C   0  0  0  0  0  0  0  0  0  0  0  0
   67.4290   33.1370   50.1430 O   0  0  0  0  0  0  0  0  0  0  0  0
   64.8720   32.7830   49.3690 C   0  0  0  0  0  0  0  0  0  0  0  0
   63.5700   32.6430   48.8790 C   0  0  0  0  0  0  0  0  0  0  0  0
   63.3670   31.9880   47.7080 F   0  0  0  0  0  0  0  0  0  0  0  0
   60.4910   34.2190   48.4380 C   0  0  0  0  0  0  0  0  0  0  0  0
   59.1030   33.8470   47.9090 C   0  0  0  0  0  0  0  0  0  0  0  0
   57.9100   31.1870   45.6600 N   0  0  0  0  0  0  0  0  0  0  0  0
   58.0590   28.8320   42.8220 H   0  0  0  0  0  0  0  0  0  0  0  0
   56.6750   27.7540   43.2030 H   0  0  0  0  0  0  0  0  0  0  0  0
   56.9298   31.7014   42.4626 H   0  0  0  0  0  0  0  0  0  0  0  0
   58.1386   33.8474   42.8810 H   0  0  0  0  0  0  0  0  0  0  0  0
   59.1986   34.2675   45.1060 H   0  0  0  0  0  0  0  0  0  0  0  0
   59.0130   30.6384   48.0805 H   0  0  0  0  0  0  0  0  0  0  0  0
   60.5770   31.0026   47.2378 H   0  0  0  0  0  0  0  0  0  0  0  0
   59.6401   31.9106   49.9883 H   0  0  0  0  0  0  0  0  0  0  0  0
   61.1343   31.0143   49.5363 H   0  0  0  0  0  0  0  0  0  0  0  0
   61.8906   34.3720   51.3101 H   0  0  0  0  0  0  0  0  0  0  0  0
   64.2126   34.6175   52.1783 H   0  0  0  0  0  0  0  0  0  0  0  0
   66.7147   34.7265   51.2182 H   0  0  0  0  0  0  0  0  0  0  0  0
   66.6261   33.1184   52.0238 H   0  0  0  0  0  0  0  0  0  0  0  0
   67.8260   32.3270   50.5590 H   0  0  0  0  0  0  0  0  0  0  0  0
   65.7150   32.3469   48.8130 H   0  0  0  0  0  0  0  0  0  0  0  0
   60.3878   35.0284   49.1757 H   0  0  0  0  0  0  0  0  0  0  0  0
   61.1103   34.5421   47.5883 H   0  0  0  0  0  0  0  0  0  0  0  0
   58.3976   33.7778   48.7502 H   0  0  0  0  0  0  0  0  0  0  0  0
   58.7628   34.6198   47.2040 H   0  0  0  0  0  0  0  0  0  0  0  0
  1  2  1  0
  2  3  2  0
  2  4  1  0
  4  5  2  0
  5  6  1  0
  6  7  2  0
  7  8  1  0
  8  9  1  0
  9 10  1  0
 10 11  1  0
 11 12  1  0
 12 13  1  0
 13 14  2  0
 14 15  1  0
 15 16  2  0
 16 17  1  0
 17 18  1  0
 16 19  1  0
 19 20  2  0
 20 21  1  0
 12 22  1  0
 22 23  1  0
  8 24  2  0
 24  4  1  0
 23  9  1  0
 20 13  1  0
  1 25  1  0
  1 26  1  0
  5 27  1  0
  6 28  1  0
  7 29  1  0
 10 30  1  0
 10 31  1  0
 11 32  1  0
 11 33  1  0
 14 34  1  0
 15 35  1  0
 17 36  1  0
 17 37  1  0
 18 38  1  0
 19 39  1  0
 22 40  1  0
 22 41  1  0
 23 42  1  0
 23 43  1  0
M  END
>  <UniqueID>  (28) 
24

>  <SMILES>  (28) 
NC(=O)c1cccc(N2CCN(c3ccc(CO)cc3F)CC2)n1

>  <Energy>  (28) 
51.673399382626506

>  <Genealogy>  (28) 
NC(=O)c1cccc(N2CCN(c3ccc(CO)cc3F)CC2)n1 (3D coordinates assigned)
NC(=O)c1cccc(N2CCN(c3ccc(CO)cc3F)CC2)n1 (nonaromatic ring conformer: 51.673399382626506 kcal/mol)

>  <smiles>  (28) 
NC(=O)c1cccc(N2CCN(c3ccc(CO)cc3F)CC2)n1

>  <score_type>  (28) 
oracle

>  <origin>  (28) 
adg

>  <m_score__min__energy>  (28) 
-8.2400000000000002

>  <m_primary>  (28) 
energy

$$$$
28:0
     RDKit          3D

 65 69  0  0  0  0  0  0  0  0999 V2000
   58.6090   26.5970   47.8850 O   0  0  0  0  0  0  0  0  0  0  0  0
   59.0980   27.7540   47.7740 C   0  0  0  0  0  0  0  0  0  0  0  0
   58.7800   28.5650   46.5720 C   0  0  0  0  0  0  0  0  0  0  0  0
   59.4730   29.7580   46.3000 C   0  0  0  0  0  0  0  0  0  0  0  0
   59.1550   30.5220   45.1740 C   0  0  0  0  0  0  0  0  0  0  0  0
   58.1360   30.1180   44.3060 C   0  0  0  0  0  0  0  0  0  0  0  0
   57.8550   30.9210   43.1900 O   0  0  0  0  0  0  0  0  0  0  0  0
   57.9680   32.3430   43.1710 C   0  0  0  0  0  0  0  0  0  0  0  0
   57.4050   32.9120   44.4730 C   0  0  0  0  0  0  0  0  0  0  0  0
   58.4780   33.0630   45.4780 N   0  0  0  0  0  0  0  0  0  0  0  0
   59.5990   33.9110   44.9850 C   0  0  0  0  0  0  0  0  0  0  0  0
   59.5760   35.3320   45.5670 C   0  0  0  0  0  0  0  0  0  0  0  0
   59.6560   35.3050   47.1030 C   0  0  0  0  0  0  0  0  0  0  0  0
   59.0040   34.0500   47.7090 C   0  0  0  0  0  0  0  0  0  0  0  0
   57.9180   33.4950   46.7820 C   0  0  0  0  0  0  0  0  0  0  0  0
   57.4310   28.9310   44.5790 C   0  0  0  0  0  0  0  0  0  0  0  0
   57.7480   28.1660   45.7050 C   0  0  0  0  0  0  0  0  0  0  0  0
   59.9560   28.2700   48.8680 C   0  0  0  0  0  0  0  0  0  0  0  0
   60.0650   29.6510   49.0570 C   0  0  0  0  0  0  0  0  0  0  0  0
   60.8560   30.1830   50.0390 N   0  0  0  0  0  0  0  0  0  0  0  0
   60.9380   31.6570   50.1210 C   0  0  0  0  0  0  0  0  0  0  0  0
   61.8850   32.2080   49.0820 C   0  0  0  0  0  0  0  0  0  0  0  0
   62.1220   33.5910   48.9990 C   0  0  0  0  0  0  0  0  0  0  0  0
   62.9850   34.1010   48.0240 C   0  0  0  0  0  0  0  0  0  0  0  0
   63.6060   33.2390   47.1170 C   0  0  0  0  0  0  0  0  0  0  0  0
   63.3620   31.8650   47.1800 C   0  0  0  0  0  0  0  0  0  0  0  0
   62.4990   31.3500   48.1520 C   0  0  0  0  0  0  0  0  0  0  0  0
   61.5670   29.3520   50.8850 C   0  0  0  0  0  0  0  0  0  0  0  0
   62.4050   29.8610   51.9070 C   0  0  0  0  0  0  0  0  0  0  0  0
   63.1110   29.0020   52.7510 C   0  0  0  0  0  0  0  0  0  0  0  0
   63.0000   27.6230   52.6020 C   0  0  0  0  0  0  0  0  0  0  0  0
   63.6890   26.7960   53.4270 F   0  0  0  0  0  0  0  0  0  0  0  0
   62.1830   27.0910   51.6070 C   0  0  0  0  0  0  0  0  0  0  0  0
   61.4650   27.9410   50.7410 C   0  0  0  0  0  0  0  0  0  0  0  0
   60.6450   27.4090   49.7320 C   0  0  0  0  0  0  0  0  0  0  0  0
   60.5150   26.1590   49.6100 O   0  0  0  0  0  0  0  0  0  0  0  0
   60.2715   30.0923   46.9787 H   0  0  0  0  0  0  0  0  0  0  0  0
   59.7109   31.4488   44.9688 H   0  0  0  0  0  0  0  0  0  0  0  0
   59.0264   32.6262   43.0736 H   0  0  0  0  0  0  0  0  0  0  0  0
   57.4027   32.7462   42.3179 H   0  0  0  0  0  0  0  0  0  0  0  0
   56.9547   33.8956   44.2735 H   0  0  0  0  0  0  0  0  0  0  0  0
   56.6451   32.2198   44.8648 H   0  0  0  0  0  0  0  0  0  0  0  0
   60.5495   33.4329   45.2643 H   0  0  0  0  0  0  0  0  0  0  0  0
   59.4897   34.0000   43.8941 H   0  0  0  0  0  0  0  0  0  0  0  0
   60.4347   35.8952   45.1728 H   0  0  0  0  0  0  0  0  0  0  0  0
   58.6304   35.8126   45.2757 H   0  0  0  0  0  0  0  0  0  0  0  0
   60.7146   35.3304   47.4009 H   0  0  0  0  0  0  0  0  0  0  0  0
   59.1065   36.1802   47.4800 H   0  0  0  0  0  0  0  0  0  0  0  0
   59.7757   33.2808   47.8603 H   0  0  0  0  0  0  0  0  0  0  0  0
   58.5404   34.3238   48.6682 H   0  0  0  0  0  0  0  0  0  0  0  0
   57.4409   32.6316   47.2687 H   0  0  0  0  0  0  0  0  0  0  0  0
   57.1867   34.2947   46.5931 H   0  0  0  0  0  0  0  0  0  0  0  0
   56.6270   28.6038   43.9033 H   0  0  0  0  0  0  0  0  0  0  0  0
   57.1854   27.2443   45.9144 H   0  0  0  0  0  0  0  0  0  0  0  0
   59.5001   30.3278   48.3991 H   0  0  0  0  0  0  0  0  0  0  0  0
   59.9370   32.0821   49.9560 H   0  0  0  0  0  0  0  0  0  0  0  0
   61.3152   31.9308   51.1174 H   0  0  0  0  0  0  0  0  0  0  0  0
   61.6266   34.2749   49.7039 H   0  0  0  0  0  0  0  0  0  0  0  0
   63.1752   35.1831   47.9712 H   0  0  0  0  0  0  0  0  0  0  0  0
   64.2872   33.6422   46.3532 H   0  0  0  0  0  0  0  0  0  0  0  0
   63.8496   31.1872   46.4638 H   0  0  0  0  0  0  0  0  0  0  0  0
   62.2994   30.2689   48.1895 H   0  0  0  0  0  0  0  0  0  0  0  0
   62.5009   30.9490   52.0376 H   0  0  0  0  0  0  0  0  0  0  0  0
   63.7582   29.4172   53.5376 H   0  0  0  0  0  0  0  0  0  0  0  0
   62.0974   26.0000   51.4961 H   0  0  0  0  0  0  0  0  0  0  0  0
  1  2  2  0
  2  3  1  0
  3  4  2  0
  4  5  1  0
  5  6  2  0
  6  7  1  0
  7  8  1  0
  8  9  1  0
  9 10  1  0
 10 11  1  0
 11 12  1  0
 12 13  1  0
 13 14  1  0
 14 15  1  0
  6 16  1  0
 16 17  2  0
  2 18  1  0
 18 19  2  0
 19 20  1  0
 20 21  1  0
 21 22  1  0
 22 23  2  0
 23 24  1  0
 24 25  2  0
 25 26  1  0
 26 27  2  0
 20 28  1  0
 28 29  2  0
 29 30  1  0
 30 31  2  0
 31 32  1  0
 31 33  1  0
 33 34  2  0
 34 35  1  0
 35 36  2  0
 17  3  1  0
 35 18  1  0
 15 10  1  0
 27 22  1  0
 34 28  1  0
  4 37  1  0
  5 38  1  0
  8 39  1  0
  8 40  1  0
  9 41  1  0
  9 42  1  0
 11 43  1  0
 11 44  1  0
 12 45  1  0
 12 46  1  0
 13 47  1  0
 13 48  1  0
 14 49  1  0
 14 50  1  0
 15 51  1  0
 15 52  1  0
 16 53  1  0
 17 54  1  0
 19 55  1  0
 21 56  1  0
 21 57  1  0
 23 58  1  0
 24 59  1  0
 25 60  1  0
 26 61  1  0
 27 62  1  0
 29 63  1  0
 30 64  1  0
 33 65  1  0
M  END
>  <UniqueID>  (29) 
25

>  <SMILES>  (29) 
O=C(c1ccc(OCCN2CCCCC2)cc1)c1cn(Cc2ccccc2)c2ccc(F)cc2c1=O

>  <Energy>  (29) 
92.66222393353473

>  <Genealogy>  (29) 
O=C(c1ccc(OCCN2CCCCC2)cc1)c1cn(Cc2ccccc2)c2ccc(F)cc2c1=O (3D coordinates assigned)
O=C(c1ccc(OCCN2CCCCC2)cc1)c1cn(Cc2ccccc2)c2ccc(F)cc2c1=O (nonaromatic ring conformer: 92.66222393353473 kcal/mol)

>  <smiles>  (29) 
O=C(c1ccc(OCCN2CCCCC2)cc1)c1cn(Cc2ccccc2)c2ccc(F)cc2c1=O

>  <score_type>  (29) 
oracle

>  <origin>  (29) 
adg

>  <m_score__min__energy>  (29) 
-9.9800000000000004

>  <m_primary>  (29) 
energy

$$$$
29:0
     RDKit          3D

 43 45  0  0  0  0  0  0  0  0999 V2000
   64.9180   32.8370   49.4140 C   0  0  0  0  0  0  0  0  0  0  0  0
   63.6300   33.1650   48.7270 C   0  0  0  0  0  0  0  0  0  0  0  0
   63.4330   33.1520   47.0460 S   0  0  0  0  0  0  0  0  0  0  0  0
   61.8300   33.6310   47.0980 C   0  0  0  0  0  0  0  0  0  0  0  0
   61.0280   33.8740   46.0380 N   0  0  0  0  0  0  0  0  0  0  0  0
   59.7560   34.3090   46.2590 C   0  0  0  0  0  0  0  0  0  0  0  0
   58.7140   34.7340   44.8650 S   0  0  0  0  0  0  0  0  0  0  0  0
   58.3790   33.0020   44.3760 C   0  0  0  0  0  0  0  0  0  0  0  0
   57.1920   32.4510   45.1010 C   0  0  0  0  0  0  0  0  0  0  0  0
   56.6220   33.1490   45.9820 O   0  0  0  0  0  0  0  0  0  0  0  0
   56.8030   31.0910   44.8630 N   0  0  0  0  0  0  0  0  0  0  0  0
   57.5800   29.9050   45.0770 C   0  0  0  0  0  0  0  0  0  0  0  0
   58.8650   29.8450   44.5250 C   0  0  0  0  0  0  0  0  0  0  0  0
   59.6670   28.7190   44.7170 C   0  0  0  0  0  0  0  0  0  0  0  0
   59.1820   27.6290   45.4440 C   0  0  0  0  0  0  0  0  0  0  0  0
   57.8820   27.6580   45.9790 C   0  0  0  0  0  0  0  0  0  0  0  0
   57.3360   26.5550   46.7130 N   0  0  0  0  0  0  0  0  0  0  0  0
   56.0530   25.5260   46.1650 S   0  0  0  0  0  0  0  0  0  0  0  0
   56.5330   24.7820   44.6230 C   0  0  0  0  0  0  0  0  0  0  0  0
   54.8040   26.3350   45.9520 O   0  0  0  0  0  0  0  0  0  0  0  0
   55.7980   24.4430   47.1750 O   0  0  0  0  0  0  0  0  0  0  0  0
   57.0850   28.7950   45.7860 C   0  0  0  0  0  0  0  0  0  0  0  0
   59.3000   34.4840   47.5330 N   0  0  0  0  0  0  0  0  0  0  0  0
   60.0960   34.2450   48.6140 C   0  0  0  0  0  0  0  0  0  0  0  0
   59.6400   34.4230   49.7750 O   0  0  0  0  0  0  0  0  0  0  0  0
   61.4130   33.8150   48.4030 C   0  0  0  0  0  0  0  0  0  0  0  0
   62.4290   33.5510   49.3460 C   0  0  0  0  0  0  0  0  0  0  0  0
   62.2550   33.6930   50.8320 C   0  0  0  0  0  0  0  0  0  0  0  0
   64.7722   32.8741   50.5037 H   0  0  0  0  0  0  0  0  0  0  0  0
   65.2427   31.8275   49.1217 H   0  0  0  0  0  0  0  0  0  0  0  0
   65.6860   33.5682   49.1217 H   0  0  0  0  0  0  0  0  0  0  0  0
   58.1857   32.9665   43.2937 H   0  0  0  0  0  0  0  0  0  0  0  0
   59.2572   32.3925   44.6354 H   0  0  0  0  0  0  0  0  0  0  0  0
   59.2457   30.6920   43.9353 H   0  0  0  0  0  0  0  0  0  0  0  0
   60.6825   28.6897   44.2953 H   0  0  0  0  0  0  0  0  0  0  0  0
   59.8190   26.7456   45.5983 H   0  0  0  0  0  0  0  0  0  0  0  0
   57.1196   23.8728   44.8214 H   0  0  0  0  0  0  0  0  0  0  0  0
   55.6335   24.5195   44.0468 H   0  0  0  0  0  0  0  0  0  0  0  0
   57.1429   25.4934   44.0468 H   0  0  0  0  0  0  0  0  0  0  0  0
   56.0632   28.8196   46.1926 H   0  0  0  0  0  0  0  0  0  0  0  0
   63.0070   33.0793   51.3495 H   0  0  0  0  0  0  0  0  0  0  0  0
   62.3832   34.7477   51.1171 H   0  0  0  0  0  0  0  0  0  0  0  0
   61.2474   33.3560   51.1171 H   0  0  0  0  0  0  0  0  0  0  0  0
  1  2  1  0
  2  3  1  0
  3  4  1  0
  4  5  1  0
  5  6  1  0
  6  7  1  0
  7  8  1  0
  8  9  1  0
  9 10  2  0
  9 11  1  0
 11 12  1  0
 12 13  2  0
 13 14  1  0
 14 15  2  0
 15 16  1  0
 16 17  1  0
 17 18  1  0
 18 19  1  0
 18 20  2  0
 18 21  2  0
 16 22  2  0
  6 23  2  0
 23 24  1  0
 24 25  2  0
 24 26  1  0
 26 27  1  0
 27 28  1  0
 27  2  2  0
 26  4  2  0
 22 12  1  0
  1 29  1  0
  1 30  1  0
  1 31  1  0
  8 32  1  0
  8 33  1  0
 13 34  1  0
 14 35  1  0
 15 36  1  0
 19 37  1  0
 19 38  1  0
 19 39  1  0
 22 40  1  0
 28 41  1  0
 28 42  1  0
 28 43  1  0
M  CHG  3   5  -1  11  -1  17  -1
M  END
>  <UniqueID>  (30) 
26

>  <SMILES>  (30) 
Cc1sc2[n-]c(SCC(=O)[N-]c3cccc([N-]S(C)(=O)=O)c3)nc(=O)c2c1C

>  <Energy>  (30) 
73.66248238524726

>  <Genealogy>  (30) 
Cc1sc2[n-]c(SCC(=O)[N-]c3cccc([N-]S(C)(=O)=O)c3)nc(=O)c2c1C (protonated)
Cc1sc2[n-]c(SCC(=O)[N-]c3cccc([N-]S(C)(=O)=O)c3)nc(=O)c2c1C (3D coordinates assigned)
Cc1sc2[n-]c(SCC(=O)[N-]c3cccc([N-]S(C)(=O)=O)c3)nc(=O)c2c1C (optimized conformer: 73.66248238524726 kcal/mol)

>  <smiles>  (30) 
Cc1sc2[nH]c(SCC(=O)Nc3cccc(NS(C)(=O)=O)c3)nc(=O)c2c1C

>  <score_type>  (30) 
oracle

>  <origin>  (30) 
adg

>  <m_score__min__energy>  (30) 
-13.5

>  <m_primary>  (30) 
energy

$$$$
30:0
     RDKit          3D

 39 41  0  0  1  0  0  0  0  0999 V2000
   64.3480   33.3330   47.7860 N   0  0  0  0  0  0  0  0  0  0  0  0
   63.2350   32.4760   47.5720 C   0  0  0  0  0  0  0  0  0  0  0  0
   63.4330   31.3480   47.0550 O   0  0  0  0  0  0  0  0  0  0  0  0
   61.8920   32.9060   47.9490 C   0  0  0  0  0  0  0  0  0  0  0  0
   61.6490   34.0250   48.7180 C   0  0  0  0  0  0  0  0  0  0  0  0
   60.3770   34.4340   49.0760 C   0  0  0  0  0  0  0  0  0  0  0  0
   59.2860   33.6730   48.6360 C   0  0  0  0  0  0  0  0  0  0  0  0
   59.4930   32.5270   47.8510 C   0  0  0  0  0  0  0  0  0  0  0  0
   59.0550   28.1330   44.7900 N   0  0  0  0  0  0  0  0  0  0  0  0
   58.6570   29.3530   44.8840 C   0  0  0  0  0  0  0  0  0  0  0  0
   58.7230   29.9490   46.0850 N   0  0  0  0  0  0  0  0  0  0  0  0
   58.3230   31.2410   46.2790 C   0  0  0  0  0  0  0  0  0  0  0  0
   58.4280   31.7030   47.4490 N   0  0  0  0  0  0  0  0  0  0  0  0
   58.3370   27.0630   45.3900 C   0  0  0  0  0  0  0  0  0  0  0  0
   58.9540   25.9530   45.9360 C   0  0  0  0  0  0  0  0  0  0  0  0
   58.1900   24.9370   46.5100 C   0  0  0  0  0  0  0  0  0  0  0  0
   56.7940   25.0320   46.5380 C   0  0  0  0  0  0  0  0  0  0  0  0
   56.1860   26.1510   45.9870 C   0  0  0  0  0  0  0  0  0  0  0  0
   54.7850   26.2930   45.9920 O   0  0  0  0  0  0  0  0  0  0  0  0
   56.9510   27.1510   45.4220 C   0  0  0  0  0  0  0  0  0  0  0  0
   58.1890   29.9980   43.7980 N   0  0  0  0  0  0  0  0  0  0  0  0
   57.7920   31.2700   43.9790 C   0  0  0  0  0  0  0  0  0  0  0  0
   57.8450   31.9130   45.1910 C   0  0  0  0  0  0  0  0  0  0  0  0
   57.2640   33.6890   45.3300 Br  0  0  0  0  0  0  0  0  0  0  0  0
   60.8060   32.1580   47.5180 C   0  0  0  0  0  0  0  0  0  0  0  0
   64.3620   34.1100   48.4820 H   0  0  0  0  0  0  0  0  0  0  0  0
   65.2310   33.2010   47.2220 H   0  0  0  0  0  0  0  0  0  0  0  0
   62.5073   34.6203   49.0629 H   0  0  0  0  0  0  0  0  0  0  0  0
   60.2259   35.3338   49.6905 H   0  0  0  0  0  0  0  0  0  0  0  0
   58.2632   33.9743   48.9065 H   0  0  0  0  0  0  0  0  0  0  0  0
   59.0970   29.3990   46.9000 H   0  0  0  0  0  0  0  0  0  0  0  0
   60.0508   25.8707   45.9177 H   0  0  0  0  0  0  0  0  0  0  0  0
   58.6873   24.0565   46.9429 H   0  0  0  0  0  0  0  0  0  0  0  0
   56.1884   24.2324   46.9896 H   0  0  0  0  0  0  0  0  0  0  0  0
   54.3600   26.7200   46.8130 H   0  0  0  0  0  0  0  0  0  0  0  0
   56.4550   28.0325   44.9897 H   0  0  0  0  0  0  0  0  0  0  0  0
   58.1390   29.5310   42.8650 H   0  0  0  0  0  0  0  0  0  0  0  0
   57.4048   31.8240   43.1112 H   0  0  0  0  0  0  0  0  0  0  0  0
   60.9765   31.2607   46.9050 H   0  0  0  0  0  0  0  0  0  0  0  0
  1  2  1  0
  2  3  2  0
  2  4  1  0
  4  5  2  0
  5  6  1  0
  6  7  2  0
  7  8  1  0
  8  9  1  0
  9 10  2  0
 10 11  1  0
 11 12  1  0
 12 13  2  0
 13 14  1  0
 14 15  2  0
 15 16  1  0
 16 17  2  0
 17 18  1  0
 18 19  1  0
 18 20  2  0
 12 21  1  0
 21 22  1  0
 22 23  2  0
 23 24  1  0
  8 25  2  0
 25  4  1  0
 23 10  1  0
 20 14  1  0
  1 26  1  0
  1 27  1  0
  5 28  1  0
  6 29  1  0
  7 30  1  0
 11 31  1  0
 15 32  1  0
 16 33  1  0
 17 34  1  0
 19 35  1  0
 20 36  1  0
 21 37  1  0
 22 38  1  0
 25 39  1  0
M  END
>  <smiles>  (31) 
NC(=O)c1cccc(N=c2[nH]c(=Nc3cccc(O)c3)[nH]cc2Br)c1

>  <score_type>  (31) 
oracle

>  <origin>  (31) 
adg

>  <m_score__min__energy>  (31) 
-9.9800000000000004

>  <m_primary>  (31) 
energy

$$$$
31:0
     RDKit          3D

 54 58  0  0  0  0  0  0  0  0999 V2000
   61.4920   26.3000   46.0000 C   0  0  0  0  0  0  0  0  0  0  0  0
   60.2790   27.0990   46.3810 C   0  0  0  0  0  0  0  0  0  0  0  0
   59.4340   27.6000   45.3750 C   0  0  0  0  0  0  0  0  0  0  0  0
   58.3420   28.4110   45.6990 C   0  0  0  0  0  0  0  0  0  0  0  0
   57.4940   28.9010   44.6500 N   0  0  0  0  0  0  0  0  0  0  0  0
   56.7390   30.1120   44.7520 C   0  0  0  0  0  0  0  0  0  0  0  0
   55.4950   30.0840   44.5340 O   0  0  0  0  0  0  0  0  0  0  0  0
   57.4090   31.3850   45.0780 C   0  0  0  0  0  0  0  0  0  0  0  0
   57.7690   31.8120   46.3620 C   0  0  0  0  0  0  0  0  0  0  0  0
   58.4230   33.0450   46.3540 C   0  0  0  0  0  0  0  0  0  0  0  0
   58.9620   33.7050   47.4650 C   0  0  0  0  0  0  0  0  0  0  0  0
   59.6160   34.9320   47.2700 C   0  0  0  0  0  0  0  0  0  0  0  0
   59.7310   35.4860   45.9780 C   0  0  0  0  0  0  0  0  0  0  0  0
   59.2020   34.8090   44.8680 C   0  0  0  0  0  0  0  0  0  0  0  0
   58.5590   33.5900   45.0840 C   0  0  0  0  0  0  0  0  0  0  0  0
   57.8970   32.5440   43.9470 S   0  0  0  0  0  0  0  0  0  0  0  0
   58.0940   28.7330   47.0440 C   0  0  0  0  0  0  0  0  0  0  0  0
   58.9200   28.2360   48.0510 C   0  0  0  0  0  0  0  0  0  0  0  0
   60.0310   27.4290   47.7290 C   0  0  0  0  0  0  0  0  0  0  0  0
   60.8800   26.8930   48.7580 N   0  0  0  0  0  0  0  0  0  0  0  0
   60.6760   27.0060   50.1780 C   0  0  0  0  0  0  0  0  0  0  0  0
   60.3990   25.9680   50.8360 O   0  0  0  0  0  0  0  0  0  0  0  0
   60.8150   28.2830   50.9030 C   0  0  0  0  0  0  0  0  0  0  0  0
   60.7890   28.3000   52.2630 N   0  0  0  0  0  0  0  0  0  0  0  0
   60.9710   29.8980   52.6790 S   0  0  0  0  0  0  0  0  0  0  0  0
   61.0960   30.6110   51.1800 C   0  0  0  0  0  0  0  0  0  0  0  0
   60.9920   29.5540   50.2750 C   0  0  0  0  0  0  0  0  0  0  0  0
   61.1620   29.7160   48.8560 N   0  0  0  0  0  0  0  0  0  0  0  0
   60.6730   30.9010   48.1400 C   0  0  0  0  0  0  0  0  0  0  0  0
   61.7400   31.9780   48.0980 C   0  0  0  0  0  0  0  0  0  0  0  0
   62.7520   31.9660   47.1110 C   0  0  0  0  0  0  0  0  0  0  0  0
   63.7720   32.9300   47.1610 C   0  0  0  0  0  0  0  0  0  0  0  0
   63.7930   33.8590   48.1620 N   0  0  0  0  0  0  0  0  0  0  0  0
   62.8260   33.8930   49.1280 C   0  0  0  0  0  0  0  0  0  0  0  0
   61.7790   32.9550   49.1140 C   0  0  0  0  0  0  0  0  0  0  0  0
   62.0079   25.9602   46.9101 H   0  0  0  0  0  0  0  0  0  0  0  0
   61.1843   25.4272   45.4054 H   0  0  0  0  0  0  0  0  0  0  0  0
   62.1724   26.9273   45.4054 H   0  0  0  0  0  0  0  0  0  0  0  0
   59.6341   27.3514   44.3223 H   0  0  0  0  0  0  0  0  0  0  0  0
   57.5593   31.2384   47.2769 H   0  0  0  0  0  0  0  0  0  0  0  0
   58.8747   33.2704   48.4717 H   0  0  0  0  0  0  0  0  0  0  0  0
   60.0423   35.4658   48.1322 H   0  0  0  0  0  0  0  0  0  0  0  0
   60.2374   36.4527   45.8397 H   0  0  0  0  0  0  0  0  0  0  0  0
   59.2920   35.2284   43.8551 H   0  0  0  0  0  0  0  0  0  0  0  0
   57.2436   29.3806   47.3037 H   0  0  0  0  0  0  0  0  0  0  0  0
   58.7040   28.4746   49.1029 H   0  0  0  0  0  0  0  0  0  0  0  0
   61.2307   31.6789   50.9531 H   0  0  0  0  0  0  0  0  0  0  0  0
   61.6850   28.9780   48.3180 H   0  0  0  0  0  0  0  0  0  0  0  0
   60.4055   30.6170   47.1115 H   0  0  0  0  0  0  0  0  0  0  0  0
   59.7920   31.2953   48.6675 H   0  0  0  0  0  0  0  0  0  0  0  0
   62.7406   31.2097   46.3124 H   0  0  0  0  0  0  0  0  0  0  0  0
   64.5573   32.9369   46.3908 H   0  0  0  0  0  0  0  0  0  0  0  0
   62.8674   34.6567   49.9186 H   0  0  0  0  0  0  0  0  0  0  0  0
   60.9979   32.9829   49.8880 H   0  0  0  0  0  0  0  0  0  0  0  0
  1  2  1  0
  2  3  2  0
  3  4  1  0
  4  5  1  0
  5  6  1  0
  6  7  2  0
  6  8  1  0
  8  9  2  0
  9 10  1  0
 10 11  2  0
 11 12  1  0
 12 13  2  0
 13 14  1  0
 14 15  2  0
 15 16  1  0
  4 17  2  0
 17 18  1  0
 18 19  2  0
 19 20  1  0
 20 21  1  0
 21 22  2  0
 21 23  1  0
 23 24  2  0
 24 25  1  0
 25 26  1  0
 26 27  2  0
 27 28  1  0
 28 29  1  0
 29 30  1  0
 30 31  2  0
 31 32  1  0
 32 33  2  0
 33 34  1  0
 34 35  2  0
 19  2  1  0
 27 23  1  0
 35 30  1  0
 16  8  1  0
 15 10  1  0
  1 36  1  0
  1 37  1  0
  1 38  1  0
  3 39  1  0
  9 40  1  0
 11 41  1  0
 12 42  1  0
 13 43  1  0
 14 44  1  0
 17 45  1  0
 18 46  1  0
 26 47  1  0
 28 48  1  0
 29 49  1  0
 29 50  1  0
 31 51  1  0
 32 52  1  0
 34 53  1  0
 35 54  1  0
M  CHG  2   5  -1  20  -1
M  END
>  <UniqueID>  (32) 
27

>  <SMILES>  (32) 
Cc1cc([N-]C(=O)c2cc3ccccc3s2)ccc1[N-]C(=O)c1nscc1NCc1ccncc1

>  <Energy>  (32) 
131.82810247783073

>  <Genealogy>  (32) 
Cc1cc([N-]C(=O)c2cc3ccccc3s2)ccc1[N-]C(=O)c1nscc1NCc1ccncc1 (protonated)
Cc1cc([N-]C(=O)c2cc3ccccc3s2)ccc1[N-]C(=O)c1nscc1NCc1ccncc1 (3D coordinates assigned)
Cc1cc([N-]C(=O)c2cc3ccccc3s2)ccc1[N-]C(=O)c1nscc1NCc1ccncc1 (optimized conformer: 131.82810247783073 kcal/mol)

>  <smiles>  (32) 
Cc1cc(NC(=O)c2cc3ccccc3s2)ccc1NC(=O)c1nscc1NCc1ccncc1

>  <score_type>  (32) 
oracle

>  <origin>  (32) 
adg

>  <m_score__min__energy>  (32) 
-12.210000000000001

>  <m_primary>  (32) 
energy

$$$$
32:0
     RDKit          3D

 63 67  0  0  0  0  0  0  0  0999 V2000
   58.0399   27.2287   44.7846 H   0  0  0  0  0  0  0  0  0  0  0  0
   57.7590   27.8620   45.6390 C   0  0  0  0  0  0  0  0  0  0  0  0
   57.7720   27.3670   46.8410 N   0  0  0  0  0  0  0  0  0  0  0  0
   58.7790   27.6340   47.8290 C   0  0  0  0  0  0  0  0  0  0  0  0
   58.6900   28.8130   48.5780 C   0  0  0  0  0  0  0  0  0  0  0  0
   57.8586   29.5107   48.3993 H   0  0  0  0  0  0  0  0  0  0  0  0
   59.6480   29.1120   49.5510 C   0  0  0  0  0  0  0  0  0  0  0  0
   59.5734   30.0528   50.1161 H   0  0  0  0  0  0  0  0  0  0  0  0
   60.7100   28.2210   49.8170 C   0  0  0  0  0  0  0  0  0  0  0  0
   61.7070   28.5390   50.8230 N   0  0  0  0  0  0  0  0  0  0  0  0
   61.9150   27.6690   51.9920 C   0  0  0  0  0  0  0  0  0  0  0  0
   61.5993   26.6442   51.7466 H   0  0  0  0  0  0  0  0  0  0  0  0
   61.3203   28.0447   52.8377 H   0  0  0  0  0  0  0  0  0  0  0  0
   63.4000   27.6680   52.3740 C   0  0  0  0  0  0  0  0  0  0  0  0
   63.9719   27.2153   51.5506 H   0  0  0  0  0  0  0  0  0  0  0  0
   63.4953   27.0960   53.3088 H   0  0  0  0  0  0  0  0  0  0  0  0
   63.9420   29.0280   52.6330 N   0  0  0  0  0  0  0  0  0  0  0  0
   65.3420   29.1260   52.1830 C   0  0  0  0  0  0  0  0  0  0  0  0
   66.0062   29.1725   53.0586 H   0  0  0  0  0  0  0  0  0  0  0  0
   65.5951   28.2434   51.5773 H   0  0  0  0  0  0  0  0  0  0  0  0
   65.4697   30.0353   51.5773 H   0  0  0  0  0  0  0  0  0  0  0  0
   63.1220   30.1370   52.0880 C   0  0  0  0  0  0  0  0  0  0  0  0
   63.7663   31.0184   51.9542 H   0  0  0  0  0  0  0  0  0  0  0  0
   62.3094   30.3323   52.8032 H   0  0  0  0  0  0  0  0  0  0  0  0
   62.4780   29.7890   50.7370 C   0  0  0  0  0  0  0  0  0  0  0  0
   63.2691   29.6717   49.9817 H   0  0  0  0  0  0  0  0  0  0  0  0
   61.7930   30.6029   50.4570 H   0  0  0  0  0  0  0  0  0  0  0  0
   60.7650   27.0130   49.0930 C   0  0  0  0  0  0  0  0  0  0  0  0
   61.5631   26.2870   49.3074 H   0  0  0  0  0  0  0  0  0  0  0  0
   59.8170   26.7260   48.1050 C   0  0  0  0  0  0  0  0  0  0  0  0
   59.8839   25.7843   47.5405 H   0  0  0  0  0  0  0  0  0  0  0  0
   57.3710   29.2640   45.4130 C   0  0  0  0  0  0  0  0  0  0  0  0
   56.1760   29.7510   44.8870 C   0  0  0  0  0  0  0  0  0  0  0  0
   55.0970   28.9630   44.5000 O   0  0  0  0  0  0  0  0  0  0  0  0
   56.1760   31.1000   44.7750 N   0  0  0  0  0  0  0  0  0  0  0  0
   57.3890   31.4660   45.2320 C   0  0  0  0  0  0  0  0  0  0  0  0
   57.8790   32.7650   45.3350 C   0  0  0  0  0  0  0  0  0  0  0  0
   57.2741   33.6248   45.0113 H   0  0  0  0  0  0  0  0  0  0  0  0
   59.1680   32.9470   45.8640 C   0  0  0  0  0  0  0  0  0  0  0  0
   59.5755   33.9643   45.9593 H   0  0  0  0  0  0  0  0  0  0  0  0
   59.9500   31.8420   46.2760 C   0  0  0  0  0  0  0  0  0  0  0  0
   61.2290   32.0920   46.8780 N   0  0  0  0  0  0  0  0  0  0  0  0
   61.7740   33.3700   47.2300 C   0  0  0  0  0  0  0  0  0  0  0  0
   62.3620   34.0770   46.3650 O   0  0  0  0  0  0  0  0  0  0  0  0
   61.6720   33.8340   48.6560 C   0  0  0  0  0  0  0  0  0  0  0  0
   62.6353   33.6529   49.1552 H   0  0  0  0  0  0  0  0  0  0  0  0
   61.4179   34.9041   48.6410 H   0  0  0  0  0  0  0  0  0  0  0  0
   60.5890   33.1180   49.4220 C   0  0  0  0  0  0  0  0  0  0  0  0
   59.2830   33.0590   48.9080 C   0  0  0  0  0  0  0  0  0  0  0  0
   59.0562   33.5232   47.9369 H   0  0  0  0  0  0  0  0  0  0  0  0
   58.2700   32.4140   49.6230 C   0  0  0  0  0  0  0  0  0  0  0  0
   57.2536   32.3649   49.2052 H   0  0  0  0  0  0  0  0  0  0  0  0
   58.5400   31.8270   50.8730 C   0  0  0  0  0  0  0  0  0  0  0  0
   57.4940   31.1880   51.6270 N   0  0  0  0  0  0  0  0  0  0  0  0
   57.3490   29.9470   51.5870 O   0  0  0  0  0  0  0  0  0  0  0  0
   56.6450   31.9310   52.4190 O   0  0  0  0  0  0  0  0  0  0  0  0
   59.8500   31.8810   51.3830 C   0  0  0  0  0  0  0  0  0  0  0  0
   60.0773   31.4211   52.3561 H   0  0  0  0  0  0  0  0  0  0  0  0
   60.8650   32.5160   50.6600 C   0  0  0  0  0  0  0  0  0  0  0  0
   61.8875   32.5440   51.0645 H   0  0  0  0  0  0  0  0  0  0  0  0
   59.4180   30.5340   46.1650 C   0  0  0  0  0  0  0  0  0  0  0  0
   59.9981   29.6583   46.4916 H   0  0  0  0  0  0  0  0  0  0  0  0
   58.1380   30.3870   45.6300 C   0  0  0  0  0  0  0  0  0  0  0  0
  1  2  1  0
  2  3  2  0
  3  4  1  0
  4  5  2  0
  5  6  1  0
  5  7  1  0
  7  8  1  0
  7  9  2  0
  9 10  1  0
 10 11  1  0
 11 12  1  0
 11 13  1  0
 11 14  1  0
 14 15  1  0
 14 16  1  0
 14 17  1  0
 17 18  1  0
 18 19  1  0
 18 20  1  0
 18 21  1  0
 17 22  1  0
 22 23  1  0
 22 24  1  0
 22 25  1  0
 25 26  1  0
 25 27  1  0
  9 28  1  0
 28 29  1  0
 28 30  2  0
 30 31  1  0
  2 32  1  0
 32 33  2  0
 33 34  1  0
 33 35  1  0
 35 36  1  0
 36 37  2  0
 37 38  1  0
 37 39  1  0
 39 40  1  0
 39 41  2  0
 41 42  1  0
 42 43  1  0
 43 44  2  0
 43 45  1  0
 45 46  1  0
 45 47  1  0
 45 48  1  0
 48 49  2  0
 49 50  1  0
 49 51  1  0
 51 52  1  0
 51 53  2  0
 53 54  1  0
 54 55  2  0
 54 56  1  0
 53 57  1  0
 57 58  1  0
 57 59  2  0
 59 60  1  0
 41 61  1  0
 61 62  1  0
 61 63  2  0
 30  4  1  0
 63 32  1  0
 25 10  1  0
 63 36  1  0
 59 48  1  0
M  CHG  5  34  -1  35  -1  42  -1  54   1  56  -1
M  END
>  <UniqueID>  (33) 
28

>  <SMILES>  (33) 
CN1CCN(c2ccc(/N=C/c3c([O-])[n-]c4ccc([N-]C(=O)Cc5ccc([N+](=O)[O-])cc5)cc34)cc2)CC1

>  <Energy>  (33) 
119.4096285865196

>  <Genealogy>  (33) 
CN1CCN(c2ccc(N=Cc3c([O-])[n-]c4ccc([N-]C(=O)Cc5ccc([N+](=O)[O-])cc5)cc34)cc2)CC1 (protonated)
CN1CCN(c2ccc(/N=C/c3c([O-])[n-]c4ccc([N-]C(=O)Cc5ccc([N+](=O)[O-])cc5)cc34)cc2)CC1 (cis-trans isomerization)
CN1CCN(c2ccc(/N=C/c3c([O-])[n-]c4ccc([N-]C(=O)Cc5ccc([N+](=O)[O-])cc5)cc34)cc2)CC1 (3D coordinates assigned)
CN1CCN(c2ccc(/N=C/c3c([O-])[n-]c4ccc([N-]C(=O)Cc5ccc([N+](=O)[O-])cc5)cc34)cc2)CC1 (nonaromatic ring conformer: 119.4096285865196 kcal/mol)

>  <smiles>  (33) 
CN1CCN(c2ccc(N=Cc3c(O)[nH]c4ccc(NC(=O)Cc5ccc([N+](=O)[O-])cc5)cc34)cc2)CC1

>  <score_type>  (33) 
oracle

>  <origin>  (33) 
adg

>  <m_score__min__energy>  (33) 
-14.08

>  <m_primary>  (33) 
energy

$$$$
33:0
     RDKit          3D

 48 50  0  0  0  0  0  0  0  0999 V2000
   59.6910   28.2160   44.1510 C   0  0  0  0  0  0  0  0  0  0  0  0
   59.2760   29.0330   45.2900 N   0  0  0  0  0  0  0  0  0  0  0  0
   59.5970   28.6220   46.6300 C   0  0  0  0  0  0  0  0  0  0  0  0
   59.4860   27.2680   46.9850 C   0  0  0  0  0  0  0  0  0  0  0  0
   59.8770   26.8330   48.2540 C   0  0  0  0  0  0  0  0  0  0  0  0
   60.3920   27.7450   49.1770 C   0  0  0  0  0  0  0  0  0  0  0  0
   60.5010   29.0950   48.8400 C   0  0  0  0  0  0  0  0  0  0  0  0
   60.0860   29.5500   47.5800 C   0  0  0  0  0  0  0  0  0  0  0  0
   60.1700   30.9540   47.2850 N   0  0  0  0  0  0  0  0  0  0  0  0
   61.3380   31.7490   47.5630 C   0  0  0  0  0  0  0  0  0  0  0  0
   62.6180   31.2360   47.2820 C   0  0  0  0  0  0  0  0  0  0  0  0
   63.7590   32.0010   47.5250 C   0  0  0  0  0  0  0  0  0  0  0  0
   63.6400   33.2860   48.0480 C   0  0  0  0  0  0  0  0  0  0  0  0
   62.3790   33.8130   48.3280 C   0  0  0  0  0  0  0  0  0  0  0  0
   61.2160   33.0600   48.0880 C   0  0  0  0  0  0  0  0  0  0  0  0
   59.8690   33.6710   48.4040 C   0  0  0  0  0  0  0  0  0  0  0  0
   59.0320   33.8440   47.1600 C   0  0  0  0  0  0  0  0  0  0  0  0
   59.5680   34.4740   46.0230 C   0  0  0  0  0  0  0  0  0  0  0  0
   58.7860   34.6450   44.8760 C   0  0  0  0  0  0  0  0  0  0  0  0
   57.4630   34.1980   44.8560 C   0  0  0  0  0  0  0  0  0  0  0  0
   56.9160   33.5850   45.9880 C   0  0  0  0  0  0  0  0  0  0  0  0
   57.6930   33.4140   47.1370 C   0  0  0  0  0  0  0  0  0  0  0  0
   58.1440   30.3250   45.0260 S   0  0  0  0  0  0  0  0  0  0  0  0
   56.9840   29.8780   43.7520 C   0  0  0  0  0  0  0  0  0  0  0  0
   58.8820   31.5600   44.5880 O   0  0  0  0  0  0  0  0  0  0  0  0
   57.4030   30.6140   46.3000 O   0  0  0  0  0  0  0  0  0  0  0  0
   60.1610   27.2907   44.5154 H   0  0  0  0  0  0  0  0  0  0  0  0
   58.8114   27.9645   43.5403 H   0  0  0  0  0  0  0  0  0  0  0  0
   60.4129   28.7780   43.5403 H   0  0  0  0  0  0  0  0  0  0  0  0
   59.0882   26.5442   46.2585 H   0  0  0  0  0  0  0  0  0  0  0  0
   59.7790   25.7716   48.5258 H   0  0  0  0  0  0  0  0  0  0  0  0
   60.7122   27.3993   50.1709 H   0  0  0  0  0  0  0  0  0  0  0  0
   60.9156   29.8076   49.5683 H   0  0  0  0  0  0  0  0  0  0  0  0
   59.4160   31.3670   46.6970 H   0  0  0  0  0  0  0  0  0  0  0  0
   62.7197   30.2224   46.8669 H   0  0  0  0  0  0  0  0  0  0  0  0
   64.7543   31.5884   47.3031 H   0  0  0  0  0  0  0  0  0  0  0  0
   64.5414   33.8863   48.2406 H   0  0  0  0  0  0  0  0  0  0  0  0
   62.2936   34.8289   48.7411 H   0  0  0  0  0  0  0  0  0  0  0  0
   59.3344   33.0135   49.1054 H   0  0  0  0  0  0  0  0  0  0  0  0
   60.0368   34.6639   48.8467 H   0  0  0  0  0  0  0  0  0  0  0  0
   60.6073   34.8341   46.0356 H   0  0  0  0  0  0  0  0  0  0  0  0
   59.2140   35.1326   43.9877 H   0  0  0  0  0  0  0  0  0  0  0  0
   56.8517   34.3279   43.9508 H   0  0  0  0  0  0  0  0  0  0  0  0
   55.8726   33.2370   45.9739 H   0  0  0  0  0  0  0  0  0  0  0  0
   57.2551   32.9406   48.0281 H   0  0  0  0  0  0  0  0  0  0  0  0
   56.0524   29.5190   44.2139 H   0  0  0  0  0  0  0  0  0  0  0  0
   56.7684   30.7574   43.1274 H   0  0  0  0  0  0  0  0  0  0  0  0
   57.4143   29.0813   43.1274 H   0  0  0  0  0  0  0  0  0  0  0  0
  1  2  1  0
  2  3  1  0
  3  4  2  0
  4  5  1  0
  5  6  2  0
  6  7  1  0
  7  8  2  0
  8  9  1  0
  9 10  1  0
 10 11  2  0
 11 12  1  0
 12 13  2  0
 13 14  1  0
 14 15  2  0
 15 16  1  0
 16 17  1  0
 17 18  2  0
 18 19  1  0
 19 20  2  0
 20 21  1  0
 21 22  2  0
  2 23  1  0
 23 24  1  0
 23 25  2  0
 23 26  2  0
  8  3  1  0
 15 10  1  0
 22 17  1  0
  1 27  1  0
  1 28  1  0
  1 29  1  0
  4 30  1  0
  5 31  1  0
  6 32  1  0
  7 33  1  0
  9 34  1  0
 11 35  1  0
 12 36  1  0
 13 37  1  0
 14 38  1  0
 16 39  1  0
 16 40  1  0
 18 41  1  0
 19 42  1  0
 20 43  1  0
 21 44  1  0
 22 45  1  0
 24 46  1  0
 24 47  1  0
 24 48  1  0
M  END
>  <UniqueID>  (34) 
29

>  <SMILES>  (34) 
CN(c1ccccc1Nc1ccccc1Cc1ccccc1)S(C)(=O)=O

>  <Energy>  (34) 
55.83835668057353

>  <Genealogy>  (34) 
CN(c1ccccc1Nc1ccccc1Cc1ccccc1)S(C)(=O)=O (3D coordinates assigned)
CN(c1ccccc1Nc1ccccc1Cc1ccccc1)S(C)(=O)=O (optimized conformer: 55.83835668057353 kcal/mol)

>  <smiles>  (34) 
CN(c1ccccc1Nc1ccccc1Cc1ccccc1)S(C)(=O)=O

>  <score_type>  (34) 
oracle

>  <origin>  (34) 
adg

>  <m_score__min__energy>  (34) 
-7.6299999999999999

>  <m_primary>  (34) 
energy

$$$$
34:0
     RDKit          3D

 39 41  0  0  0  0  0  0  0  0999 V2000
   60.8430   28.6770   44.5020 O   0  0  0  0  0  0  0  0  0  0  0  0
   60.0440   29.0950   45.3810 C   0  0  0  0  0  0  0  0  0  0  0  0
   60.4620   30.1820   46.2190 N   0  0  0  0  0  0  0  0  0  0  0  0
   59.8970   30.5610   47.4830 C   0  0  0  0  0  0  0  0  0  0  0  0
   60.1870   29.7560   48.5930 C   0  0  0  0  0  0  0  0  0  0  0  0
   59.6470   30.0490   49.8450 C   0  0  0  0  0  0  0  0  0  0  0  0
   58.8260   31.1650   50.0070 C   0  0  0  0  0  0  0  0  0  0  0  0
   58.5560   31.9980   48.9200 C   0  0  0  0  0  0  0  0  0  0  0  0
   59.0920   31.7180   47.6500 C   0  0  0  0  0  0  0  0  0  0  0  0
   58.8670   32.6510   46.5760 N   0  0  0  0  0  0  0  0  0  0  0  0
   59.7220   33.8500   46.4990 C   0  0  0  0  0  0  0  0  0  0  0  0
   59.2910   34.8340   45.3960 C   0  0  0  0  0  0  0  0  0  0  0  0
   57.9500   34.6380   45.0020 O   0  0  0  0  0  0  0  0  0  0  0  0
   57.8270   33.3560   44.4300 C   0  0  0  0  0  0  0  0  0  0  0  0
   57.9130   32.2860   45.5170 C   0  0  0  0  0  0  0  0  0  0  0  0
   58.7340   28.4240   45.5450 C   0  0  0  0  0  0  0  0  0  0  0  0
   57.5440   29.0370   45.1150 C   0  0  0  0  0  0  0  0  0  0  0  0
   56.3150   28.3880   45.2700 C   0  0  0  0  0  0  0  0  0  0  0  0
   55.1540   29.0100   44.8270 O   0  0  0  0  0  0  0  0  0  0  0  0
   56.2580   27.1200   45.8720 C   0  0  0  0  0  0  0  0  0  0  0  0
   55.0440   26.4530   46.0290 O   0  0  0  0  0  0  0  0  0  0  0  0
   57.4380   26.5160   46.3230 C   0  0  0  0  0  0  0  0  0  0  0  0
   57.3930   25.2620   46.9230 O   0  0  0  0  0  0  0  0  0  0  0  0
   58.6650   27.1670   46.1700 C   0  0  0  0  0  0  0  0  0  0  0  0
   60.8473   28.8841   48.4755 H   0  0  0  0  0  0  0  0  0  0  0  0
   59.8686   29.3999   50.7050 H   0  0  0  0  0  0  0  0  0  0  0  0
   58.3910   31.3888   50.9922 H   0  0  0  0  0  0  0  0  0  0  0  0
   57.9173   32.8828   49.0580 H   0  0  0  0  0  0  0  0  0  0  0  0
   59.6815   34.3707   47.4671 H   0  0  0  0  0  0  0  0  0  0  0  0
   60.7392   33.5103   46.2540 H   0  0  0  0  0  0  0  0  0  0  0  0
   59.4029   35.8610   45.7738 H   0  0  0  0  0  0  0  0  0  0  0  0
   59.9303   34.6589   44.5181 H   0  0  0  0  0  0  0  0  0  0  0  0
   56.8565   33.2775   43.9181 H   0  0  0  0  0  0  0  0  0  0  0  0
   58.6437   33.2034   43.7091 H   0  0  0  0  0  0  0  0  0  0  0  0
   56.9173   32.1550   45.9658 H   0  0  0  0  0  0  0  0  0  0  0  0
   58.2646   31.3545   45.0495 H   0  0  0  0  0  0  0  0  0  0  0  0
   57.5800   30.0347   44.6531 H   0  0  0  0  0  0  0  0  0  0  0  0
   54.3830   26.7040   46.7540 H   0  0  0  0  0  0  0  0  0  0  0  0
   59.5847   26.6916   46.5419 H   0  0  0  0  0  0  0  0  0  0  0  0
  1  2  2  0
  2  3  1  0
  3  4  1  0
  4  5  2  0
  5  6  1  0
  6  7  2  0
  7  8  1  0
  8  9  2  0
  9 10  1  0
 10 11  1  0
 11 12  1  0
 12 13  1  0
 13 14  1  0
 14 15  1  0
  2 16  1  0
 16 17  2  0
 17 18  1  0
 18 19  1  0
 18 20  2  0
 20 21  1  0
 20 22  1  0
 22 23  1  0
 22 24  2  0
  9  4  1  0
 15 10  1  0
 24 16  1  0
  5 25  1  0
  6 26  1  0
  7 27  1  0
  8 28  1  0
 11 29  1  0
 11 30  1  0
 12 31  1  0
 12 32  1  0
 14 33  1  0
 14 34  1  0
 15 35  1  0
 15 36  1  0
 17 37  1  0
 21 38  1  0
 24 39  1  0
M  CHG  3   3  -1  19  -1  23  -1
M  END
>  <UniqueID>  (35) 
30

>  <SMILES>  (35) 
O=C([N-]c1ccccc1N1CCOCC1)c1cc([O-])c(O)c([O-])c1

>  <Energy>  (35) 
57.995436312190215

>  <Genealogy>  (35) 
O=C([N-]c1ccccc1N1CCOCC1)c1cc([O-])c(O)c([O-])c1 (protonated)
O=C([N-]c1ccccc1N1CCOCC1)c1cc([O-])c(O)c([O-])c1 (3D coordinates assigned)
O=C([N-]c1ccccc1N1CCOCC1)c1cc([O-])c(O)c([O-])c1 (nonaromatic ring conformer: 57.995436312190215 kcal/mol)

>  <smiles>  (35) 
O=C(Nc1ccccc1N1CCOCC1)c1cc(O)c(O)c(O)c1

>  <score_type>  (35) 
oracle

>  <origin>  (35) 
adg

>  <m_score__min__energy>  (35) 
-14.27

>  <m_primary>  (35) 
energy

$$$$
35:0
     RDKit          3D

 40 42  0  0  0  0  0  0  0  0999 V2000
   58.1960   32.3460   49.2360 C   0  0  0  0  0  0  0  0  0  0  0  0
   59.5530   32.7410   48.7200 C   0  0  0  0  0  0  0  0  0  0  0  0
   60.7120   32.2840   49.3800 C   0  0  0  0  0  0  0  0  0  0  0  0
   61.9530   32.6650   48.8840 C   0  0  0  0  0  0  0  0  0  0  0  0
   63.4740   32.2650   49.4650 S   0  0  0  0  0  0  0  0  0  0  0  0
   64.3240   33.1300   48.2880 C   0  0  0  0  0  0  0  0  0  0  0  0
   63.4130   33.7410   47.4280 C   0  0  0  0  0  0  0  0  0  0  0  0
   62.0840   33.4720   47.7710 C   0  0  0  0  0  0  0  0  0  0  0  0
   60.9530   33.9310   47.0970 C   0  0  0  0  0  0  0  0  0  0  0  0
   59.6700   33.5710   47.5720 C   0  0  0  0  0  0  0  0  0  0  0  0
   58.4750   34.0260   46.9150 N   0  0  0  0  0  0  0  0  0  0  0  0
   58.0620   33.7170   45.2590 S   0  0  0  0  0  0  0  0  0  0  0  0
   59.2070   34.1320   44.3800 O   0  0  0  0  0  0  0  0  0  0  0  0
   56.8470   34.5260   44.8940 O   0  0  0  0  0  0  0  0  0  0  0  0
   57.7660   31.9960   45.0310 C   0  0  0  0  0  0  0  0  0  0  0  0
   56.8110   31.5510   44.1080 C   0  0  0  0  0  0  0  0  0  0  0  0
   56.5590   30.1840   43.9590 C   0  0  0  0  0  0  0  0  0  0  0  0
   57.2600   29.2420   44.7350 C   0  0  0  0  0  0  0  0  0  0  0  0
   57.0260   27.8280   44.6100 N   0  0  0  0  0  0  0  0  0  0  0  0
   56.9100   26.7390   45.9560 S   0  0  0  0  0  0  0  0  0  0  0  0
   57.8130   25.2430   45.6160 C   0  0  0  0  0  0  0  0  0  0  0  0
   55.4650   26.3870   46.1700 O   0  0  0  0  0  0  0  0  0  0  0  0
   57.4370   27.3970   47.1990 O   0  0  0  0  0  0  0  0  0  0  0  0
   58.2280   29.6970   45.6440 C   0  0  0  0  0  0  0  0  0  0  0  0
   58.4770   31.0630   45.7940 C   0  0  0  0  0  0  0  0  0  0  0  0
   58.2068   32.3491   50.3359 H   0  0  0  0  0  0  0  0  0  0  0  0
   57.4435   33.0624   48.8747 H   0  0  0  0  0  0  0  0  0  0  0  0
   57.9456   31.3377   48.8747 H   0  0  0  0  0  0  0  0  0  0  0  0
   60.6356   31.6398   50.2683 H   0  0  0  0  0  0  0  0  0  0  0  0
   65.4192   33.1996   48.2127 H   0  0  0  0  0  0  0  0  0  0  0  0
   63.7073   34.3667   46.5725 H   0  0  0  0  0  0  0  0  0  0  0  0
   61.0573   34.5664   46.2052 H   0  0  0  0  0  0  0  0  0  0  0  0
   56.2572   32.2799   43.4981 H   0  0  0  0  0  0  0  0  0  0  0  0
   55.8084   29.8426   43.2310 H   0  0  0  0  0  0  0  0  0  0  0  0
   57.0390   27.3970   43.6590 H   0  0  0  0  0  0  0  0  0  0  0  0
   58.1013   24.7653   46.5640 H   0  0  0  0  0  0  0  0  0  0  0  0
   57.1789   24.5555   45.0370 H   0  0  0  0  0  0  0  0  0  0  0  0
   58.7167   25.4838   45.0370 H   0  0  0  0  0  0  0  0  0  0  0  0
   58.7959   28.9707   46.2440 H   0  0  0  0  0  0  0  0  0  0  0  0
   59.2343   31.4065   46.5141 H   0  0  0  0  0  0  0  0  0  0  0  0
  1  2  1  0
  2  3  2  0
  3  4  1  0
  4  5  1  0
  5  6  1  0
  6  7  2  0
  7  8  1  0
  8  9  1  0
  9 10  2  0
 10 11  1  0
 11 12  1  0
 12 13  2  0
 12 14  2  0
 12 15  1  0
 15 16  2  0
 16 17  1  0
 17 18  2  0
 18 19  1  0
 19 20  1  0
 20 21  1  0
 20 22  2  0
 20 23  2  0
 18 24  1  0
 24 25  2  0
 10  2  1  0
 25 15  1  0
  8  4  2  0
  1 26  1  0
  1 27  1  0
  1 28  1  0
  3 29  1  0
  6 30  1  0
  7 31  1  0
  9 32  1  0
 16 33  1  0
 17 34  1  0
 19 35  1  0
 21 36  1  0
 21 37  1  0
 21 38  1  0
 24 39  1  0
 25 40  1  0
M  CHG  1  11  -1
M  END
>  <UniqueID>  (36) 
31

>  <SMILES>  (36) 
Cc1cc2sccc2cc1[N-]S(=O)(=O)c1ccc(NS(C)(=O)=O)cc1

>  <Energy>  (36) 
74.2510596644577

>  <Genealogy>  (36) 
Cc1cc2sccc2cc1[N-]S(=O)(=O)c1ccc(NS(C)(=O)=O)cc1 (protonated)
Cc1cc2sccc2cc1[N-]S(=O)(=O)c1ccc(NS(C)(=O)=O)cc1 (3D coordinates assigned)
Cc1cc2sccc2cc1[N-]S(=O)(=O)c1ccc(NS(C)(=O)=O)cc1 (optimized conformer: 74.2510596644577 kcal/mol)

>  <smiles>  (36) 
Cc1cc2sccc2cc1NS(=O)(=O)c1ccc(NS(C)(=O)=O)cc1

>  <score_type>  (36) 
oracle

>  <origin>  (36) 
adg

>  <m_score__min__energy>  (36) 
-10.15

>  <m_primary>  (36) 
energy

$$$$
36:0
     RDKit          3D

 35 36  0  0  0  0  0  0  0  0999 V2000
   60.6720   30.6300   46.6550 C   0  0  0  0  0  0  0  0  0  0  0  0
   59.3730   31.0650   46.0280 C   0  0  0  0  0  0  0  0  0  0  0  0
   59.1310   32.4430   45.9140 C   0  0  0  0  0  0  0  0  0  0  0  0
   57.9670   32.9140   45.3170 C   0  0  0  0  0  0  0  0  0  0  0  0
   57.0410   32.0200   44.7930 C   0  0  0  0  0  0  0  0  0  0  0  0
   57.2490   30.6330   44.8850 C   0  0  0  0  0  0  0  0  0  0  0  0
   56.2810   29.7510   44.1970 C   0  0  0  0  0  0  0  0  0  0  0  0
   56.5060   29.3570   43.0210 O   0  0  0  0  0  0  0  0  0  0  0  0
   55.1510   29.2880   44.8610 O   0  0  0  0  0  0  0  0  0  0  0  0
   58.3910   30.1380   45.5750 C   0  0  0  0  0  0  0  0  0  0  0  0
   58.5630   28.3930   45.9140 S   0  0  0  0  0  0  0  0  0  0  0  0
   59.5490   28.1850   47.0290 O   0  0  0  0  0  0  0  0  0  0  0  0
   59.0730   27.6590   44.7070 O   0  0  0  0  0  0  0  0  0  0  0  0
   57.0160   27.7600   46.3690 N   0  0  0  0  0  0  0  0  0  0  0  0
   56.4830   26.5220   45.8880 C   0  0  0  0  0  0  0  0  0  0  0  0
   55.2460   26.3140   45.9950 O   0  0  0  0  0  0  0  0  0  0  0  0
   57.3290   25.5460   45.2560 N   0  0  0  0  0  0  0  0  0  0  0  0
   56.9670   24.1650   45.0900 C   0  0  0  0  0  0  0  0  0  0  0  0
   56.9920   23.5950   43.8070 C   0  0  0  0  0  0  0  0  0  0  0  0
   56.6660   22.2480   43.6230 C   0  0  0  0  0  0  0  0  0  0  0  0
   56.3280   21.4520   44.7210 C   0  0  0  0  0  0  0  0  0  0  0  0
   55.9220   19.7610   44.4900 Cl  0  0  0  0  0  0  0  0  0  0  0  0
   56.3220   22.0040   46.0070 C   0  0  0  0  0  0  0  0  0  0  0  0
   56.6460   23.3510   46.1930 C   0  0  0  0  0  0  0  0  0  0  0  0
   60.5789   30.6612   47.7506 H   0  0  0  0  0  0  0  0  0  0  0  0
   60.9076   29.6039   46.3361 H   0  0  0  0  0  0  0  0  0  0  0  0
   61.4780   31.3073   46.3361 H   0  0  0  0  0  0  0  0  0  0  0  0
   59.8710   33.1587   46.3016 H   0  0  0  0  0  0  0  0  0  0  0  0
   57.7787   33.9962   45.2593 H   0  0  0  0  0  0  0  0  0  0  0  0
   56.1347   32.4023   44.3005 H   0  0  0  0  0  0  0  0  0  0  0  0
   58.2100   25.8750   44.8040 H   0  0  0  0  0  0  0  0  0  0  0  0
   57.2701   24.2128   42.9404 H   0  0  0  0  0  0  0  0  0  0  0  0
   56.6755   21.8139   42.6123 H   0  0  0  0  0  0  0  0  0  0  0  0
   56.0620   21.3770   46.8726 H   0  0  0  0  0  0  0  0  0  0  0  0
   56.6502   23.7775   47.2070 H   0  0  0  0  0  0  0  0  0  0  0  0
  1  2  1  0
  2  3  2  0
  3  4  1  0
  4  5  2  0
  5  6  1  0
  6  7  1  0
  7  8  2  0
  7  9  1  0
  6 10  2  0
 10 11  1  0
 11 12  2  0
 11 13  2  0
 11 14  1  0
 14 15  1  0
 15 16  2  0
 15 17  1  0
 17 18  1  0
 18 19  2  0
 19 20  1  0
 20 21  2  0
 21 22  1  0
 21 23  1  0
 23 24  2  0
 10  2  1  0
 24 18  1  0
  1 25  1  0
  1 26  1  0
  1 27  1  0
  3 28  1  0
  4 29  1  0
  5 30  1  0
 17 31  1  0
 19 32  1  0
 20 33  1  0
 23 34  1  0
 24 35  1  0
M  CHG  2   9  -1  14  -1
M  END
>  <UniqueID>  (37) 
32

>  <SMILES>  (37) 
Cc1cccc(C(=O)[O-])c1S(=O)(=O)[N-]C(=O)Nc1ccc(Cl)cc1

>  <Energy>  (37) 
52.51277807636222

>  <Genealogy>  (37) 
Cc1cccc(C(=O)[O-])c1S(=O)(=O)[N-]C(=O)Nc1ccc(Cl)cc1 (protonated)
Cc1cccc(C(=O)[O-])c1S(=O)(=O)[N-]C(=O)Nc1ccc(Cl)cc1 (3D coordinates assigned)
Cc1cccc(C(=O)[O-])c1S(=O)(=O)[N-]C(=O)Nc1ccc(Cl)cc1 (optimized conformer: 52.51277807636222 kcal/mol)

>  <smiles>  (37) 
Cc1cccc(C(=O)O)c1S(=O)(=O)NC(=O)Nc1ccc(Cl)cc1

>  <score_type>  (37) 
oracle

>  <origin>  (37) 
adg

>  <m_score__min__energy>  (37) 
-11.699999999999999

>  <m_primary>  (37) 
energy

$$$$
37:0
     RDKit          3D

 40 42  0  0  1  0  0  0  0  0999 V2000
   63.4480   34.6200   51.1820 C   0  0  0  0  0  0  0  0  0  0  0  0
   63.0620   33.8810   50.3040 C   0  0  0  0  0  0  0  0  0  0  0  0
   62.6140   32.9780   49.2510 C   0  0  0  0  0  0  0  0  0  0  0  0
   63.5150   32.6640   48.2130 C   0  0  0  0  0  0  0  0  0  0  0  0
   62.5940   31.5240   47.1110 S   0  0  0  0  0  0  0  0  0  0  0  0
   61.1580   31.5670   48.0880 C   0  0  0  0  0  0  0  0  0  0  0  0
   59.9380   30.9200   47.9040 C   0  0  0  0  0  0  0  0  0  0  0  0
   59.8100   30.1660   46.8700 N   0  0  0  0  0  0  0  0  0  0  0  0
   58.5210   29.5260   46.6870 C   0  0  0  0  0  0  0  0  0  0  0  0
   57.8220   30.0860   45.4820 C   0  0  0  0  0  0  0  0  0  0  0  0
   56.6330   29.7540   45.2470 O   0  0  0  0  0  0  0  0  0  0  0  0
   58.5680   30.9770   44.6640 N   0  0  0  0  0  0  0  0  0  0  0  0
   57.9400   31.5410   43.4940 C   0  0  0  0  0  0  0  0  0  0  0  0
   57.9980   33.0400   43.4300 C   0  0  0  0  0  0  0  0  0  0  0  0
   58.3980   33.5000   44.7980 C   0  0  0  0  0  0  0  0  0  0  0  0
   59.6460   34.0350   45.0560 C   0  0  0  0  0  0  0  0  0  0  0  0
   59.9200   34.4300   46.3490 C   0  0  0  0  0  0  0  0  0  0  0  0
   58.9950   34.3010   47.3610 C   0  0  0  0  0  0  0  0  0  0  0  0
   57.7460   33.7650   47.1040 C   0  0  0  0  0  0  0  0  0  0  0  0
   57.4580   33.3670   45.8150 C   0  0  0  0  0  0  0  0  0  0  0  0
   58.9200   31.0910   48.8060 N   0  0  0  0  0  0  0  0  0  0  0  0
   59.1990   31.9020   49.8270 C   0  0  0  0  0  0  0  0  0  0  0  0
   60.3560   32.5340   50.0290 N   0  0  0  0  0  0  0  0  0  0  0  0
   61.4140   32.3970   49.1540 C   0  0  0  0  0  0  0  0  0  0  0  0
   63.7987   35.2914   51.9797 H   0  0  0  0  0  0  0  0  0  0  0  0
   64.5469   33.0248   48.0907 H   0  0  0  0  0  0  0  0  0  0  0  0
   58.6700   28.4449   46.5491 H   0  0  0  0  0  0  0  0  0  0  0  0
   57.9015   29.7131   47.5765 H   0  0  0  0  0  0  0  0  0  0  0  0
   59.5710   31.2110   44.9260 H   0  0  0  0  0  0  0  0  0  0  0  0
   58.4435   31.1374   42.6032 H   0  0  0  0  0  0  0  0  0  0  0  0
   56.8759   31.2663   43.5414 H   0  0  0  0  0  0  0  0  0  0  0  0
   58.7421   33.3617   42.6865 H   0  0  0  0  0  0  0  0  0  0  0  0
   57.0295   33.4668   43.1302 H   0  0  0  0  0  0  0  0  0  0  0  0
   60.3951   34.1421   44.2576 H   0  0  0  0  0  0  0  0  0  0  0  0
   60.9059   34.8605   46.5783 H   0  0  0  0  0  0  0  0  0  0  0  0
   59.2510   34.6262   48.3802 H   0  0  0  0  0  0  0  0  0  0  0  0
   57.0016   33.6589   47.9068 H   0  0  0  0  0  0  0  0  0  0  0  0
   56.4708   32.9382   45.5879 H   0  0  0  0  0  0  0  0  0  0  0  0
   58.0130   30.6010   48.6550 H   0  0  0  0  0  0  0  0  0  0  0  0
   58.4036   32.0644   50.5693 H   0  0  0  0  0  0  0  0  0  0  0  0
  1  2  3  0
  2  3  1  0
  3  4  2  0
  4  5  1  0
  5  6  1  0
  6  7  1  0
  7  8  2  0
  8  9  1  0
  9 10  1  0
 10 11  2  0
 10 12  1  0
 12 13  1  0
 13 14  1  0
 14 15  1  0
 15 16  2  0
 16 17  1  0
 17 18  2  0
 18 19  1  0
 19 20  2  0
  7 21  1  0
 21 22  1  0
 22 23  2  0
 23 24  1  0
 24  3  1  0
 24  6  2  0
 20 15  1  0
  1 25  1  0
  4 26  1  0
  9 27  1  0
  9 28  1  0
 12 29  1  0
 13 30  1  0
 13 31  1  0
 14 32  1  0
 14 33  1  0
 16 34  1  0
 17 35  1  0
 18 36  1  0
 19 37  1  0
 20 38  1  0
 21 39  1  0
 22 40  1  0
M  END
>  <smiles>  (38) 
C#Cc1csc2c(=NCC(=O)NCCc3ccccc3)[nH]cnc12

>  <score_type>  (38) 
oracle

>  <origin>  (38) 
adg

>  <m_score__min__energy>  (38) 
-7.5700000000000003

>  <m_primary>  (38) 
energy

$$$$
38:0
     RDKit          3D

 56 59  0  0  0  0  0  0  0  0999 V2000
   58.0390   32.1310   42.1340 C   0  0  0  0  0  0  0  0  0  0  0  0
   58.0440   32.4400   43.6100 C   0  0  0  0  0  0  0  0  0  0  0  0
   58.7160   33.5490   44.0520 N   0  0  0  0  0  0  0  0  0  0  0  0
   58.7510   33.8930   45.3690 C   0  0  0  0  0  0  0  0  0  0  0  0
   59.6220   35.3320   45.8820 Cl  0  0  0  0  0  0  0  0  0  0  0  0
   58.0930   33.1090   46.3160 C   0  0  0  0  0  0  0  0  0  0  0  0
   57.4140   31.9640   45.9040 C   0  0  0  0  0  0  0  0  0  0  0  0
   57.3990   31.5960   44.5510 C   0  0  0  0  0  0  0  0  0  0  0  0
   56.5410   30.1160   44.0780 S   0  0  0  0  0  0  0  0  0  0  0  0
   56.1330   30.1760   42.6300 O   0  0  0  0  0  0  0  0  0  0  0  0
   55.3140   29.9720   44.9300 O   0  0  0  0  0  0  0  0  0  0  0  0
   57.5560   28.7250   44.3190 N   0  0  0  0  0  0  0  0  0  0  0  0
   57.6600   28.4280   45.7460 C   0  0  0  0  0  0  0  0  0  0  0  0
   58.8000   29.2080   46.3340 C   0  0  0  0  0  0  0  0  0  0  0  0
   59.9760   29.3970   45.6010 C   0  0  0  0  0  0  0  0  0  0  0  0
   61.0300   30.1360   46.1370 C   0  0  0  0  0  0  0  0  0  0  0  0
   60.9390   30.6880   47.4260 C   0  0  0  0  0  0  0  0  0  0  0  0
   59.7670   30.4650   48.1940 C   0  0  0  0  0  0  0  0  0  0  0  0
   58.7080   29.7260   47.6330 C   0  0  0  0  0  0  0  0  0  0  0  0
   59.6280   30.9930   49.5790 C   0  0  0  0  0  0  0  0  0  0  0  0
   58.3150   31.6050   50.0130 C   0  0  0  0  0  0  0  0  0  0  0  0
   58.4000   32.2580   51.3750 C   0  0  0  0  0  0  0  0  0  0  0  0
   59.0170   33.5180   51.4940 C   0  0  0  0  0  0  0  0  0  0  0  0
   59.0960   34.1520   52.7350 C   0  0  0  0  0  0  0  0  0  0  0  0
   58.5480   33.5520   53.8650 C   0  0  0  0  0  0  0  0  0  0  0  0
   57.9070   32.3110   53.7570 C   0  0  0  0  0  0  0  0  0  0  0  0
   57.8320   31.6600   52.5200 C   0  0  0  0  0  0  0  0  0  0  0  0
   57.0140   30.1060   52.4400 Cl  0  0  0  0  0  0  0  0  0  0  0  0
   60.5760   30.8350   50.4610 N   0  0  0  0  0  0  0  0  0  0  0  0
   61.8910   30.2750   50.1760 C   0  0  0  0  0  0  0  0  0  0  0  0
   62.6050   31.1810   49.2270 C   0  0  0  0  0  0  0  0  0  0  0  0
   63.7170   31.6750   49.5630 O   0  0  0  0  0  0  0  0  0  0  0  0
   62.0370   31.4760   47.9380 N   0  0  0  0  0  0  0  0  0  0  0  0
   62.4360   32.7020   47.2430 C   0  0  0  0  0  0  0  0  0  0  0  0
   58.0214   31.0409   41.9877 H   0  0  0  0  0  0  0  0  0  0  0  0
   57.1480   32.5779   41.6688 H   0  0  0  0  0  0  0  0  0  0  0  0
   58.9440   32.5488   41.6688 H   0  0  0  0  0  0  0  0  0  0  0  0
   59.2180   34.1580   43.3650 H   0  0  0  0  0  0  0  0  0  0  0  0
   58.1098   33.3919   47.3789 H   0  0  0  0  0  0  0  0  0  0  0  0
   56.8865   31.3450   46.6447 H   0  0  0  0  0  0  0  0  0  0  0  0
   56.7235   28.7104   46.2492 H   0  0  0  0  0  0  0  0  0  0  0  0
   57.8393   27.3518   45.8860 H   0  0  0  0  0  0  0  0  0  0  0  0
   60.0700   28.9602   44.5959 H   0  0  0  0  0  0  0  0  0  0  0  0
   61.9436   30.2887   45.5437 H   0  0  0  0  0  0  0  0  0  0  0  0
   57.7956   29.5528   48.2225 H   0  0  0  0  0  0  0  0  0  0  0  0
   58.0199   32.3657   49.2753 H   0  0  0  0  0  0  0  0  0  0  0  0
   57.5745   30.7941   50.0777 H   0  0  0  0  0  0  0  0  0  0  0  0
   59.4395   34.0059   50.6032 H   0  0  0  0  0  0  0  0  0  0  0  0
   59.5932   35.1295   52.8203 H   0  0  0  0  0  0  0  0  0  0  0  0
   58.6182   34.0519   54.8423 H   0  0  0  0  0  0  0  0  0  0  0  0
   57.4606   31.8460   54.6483 H   0  0  0  0  0  0  0  0  0  0  0  0
   62.4666   30.1897   51.1095 H   0  0  0  0  0  0  0  0  0  0  0  0
   61.7827   29.2759   49.7287 H   0  0  0  0  0  0  0  0  0  0  0  0
   62.6882   33.4769   47.9819 H   0  0  0  0  0  0  0  0  0  0  0  0
   63.3138   32.4970   46.6126 H   0  0  0  0  0  0  0  0  0  0  0  0
   61.6057   33.0529   46.6126 H   0  0  0  0  0  0  0  0  0  0  0  0
  1  2  1  0
  2  3  2  0
  3  4  1  0
  4  5  1  0
  4  6  2  0
  6  7  1  0
  7  8  2  0
  8  9  1  0
  9 10  2  0
  9 11  2  0
  9 12  1  0
 12 13  1  0
 13 14  1  0
 14 15  2  0
 15 16  1  0
 16 17  2  0
 17 18  1  0
 18 19  2  0
 18 20  1  0
 20 21  1  0
 21 22  1  0
 22 23  2  0
 23 24  1  0
 24 25  2  0
 25 26  1  0
 26 27  2  0
 27 28  1  0
 20 29  2  0
 29 30  1  0
 30 31  1  0
 31 32  2  0
 31 33  1  0
 33 34  1  0
  8  2  1  0
 19 14  1  0
 27 22  1  0
 33 17  1  0
  1 35  1  0
  1 36  1  0
  1 37  1  0
  3 38  1  0
  6 39  1  0
  7 40  1  0
 13 41  1  0
 13 42  1  0
 15 43  1  0
 16 44  1  0
 19 45  1  0
 21 46  1  0
 21 47  1  0
 23 48  1  0
 24 49  1  0
 25 50  1  0
 26 51  1  0
 30 52  1  0
 30 53  1  0
 34 54  1  0
 34 55  1  0
 34 56  1  0
M  CHG  2   3   1  12  -1
M  END
>  <UniqueID>  (39) 
33

>  <SMILES>  (39) 
Cc1[nH+]c(Cl)ccc1S(=O)(=O)[N-]Cc1ccc2c(c1)C(Cc1ccccc1Cl)=NCC(=O)N2C

>  <Energy>  (39) 
72.64703228410679

>  <Genealogy>  (39) 
Cc1[nH+]c(Cl)ccc1S(=O)(=O)[N-]Cc1ccc2c(c1)C(Cc1ccccc1Cl)=NCC(=O)N2C (protonated)
Cc1[nH+]c(Cl)ccc1S(=O)(=O)[N-]Cc1ccc2c(c1)C(Cc1ccccc1Cl)=NCC(=O)N2C (3D coordinates assigned)
Cc1[nH+]c(Cl)ccc1S(=O)(=O)[N-]Cc1ccc2c(c1)C(Cc1ccccc1Cl)=NCC(=O)N2C (nonaromatic ring conformer: 72.64703228410679 kcal/mol)

>  <smiles>  (39) 
Cc1nc(Cl)ccc1S(=O)(=O)NCc1ccc2c(c1)C(Cc1ccccc1Cl)=NCC(=O)N2C

>  <score_type>  (39) 
oracle

>  <origin>  (39) 
adg

>  <m_score__min__energy>  (39) 
-7.6100000000000003

>  <m_primary>  (39) 
energy

$$$$
39:0
     RDKit          3D

 42 44  0  0  0  0  0  0  0  0999 V2000
   55.3110   28.9800   44.8660 N   0  0  0  0  0  0  0  0  0  0  0  0
   56.5950   30.0350   44.3970 S   0  0  0  0  0  0  0  0  0  0  0  0
   56.7280   30.0240   42.9000 O   0  0  0  0  0  0  0  0  0  0  0  0
   56.2850   31.4370   44.8440 O   0  0  0  0  0  0  0  0  0  0  0  0
   58.0990   29.4980   45.1380 C   0  0  0  0  0  0  0  0  0  0  0  0
   59.3250   29.7250   44.4990 C   0  0  0  0  0  0  0  0  0  0  0  0
   60.5130   29.2770   45.0810 C   0  0  0  0  0  0  0  0  0  0  0  0
   60.4830   28.5930   46.3000 C   0  0  0  0  0  0  0  0  0  0  0  0
   59.2550   28.3380   46.9380 C   0  0  0  0  0  0  0  0  0  0  0  0
   59.1780   27.6400   48.1520 O   0  0  0  0  0  0  0  0  0  0  0  0
   60.0470   27.8240   49.2380 C   0  0  0  0  0  0  0  0  0  0  0  0
   60.6630   26.6970   49.7950 C   0  0  0  0  0  0  0  0  0  0  0  0
   61.4890   26.8210   50.9140 C   0  0  0  0  0  0  0  0  0  0  0  0
   61.7130   28.0770   51.4850 C   0  0  0  0  0  0  0  0  0  0  0  0
   62.7380   28.2290   52.8990 Cl  0  0  0  0  0  0  0  0  0  0  0  0
   61.1300   29.2150   50.9180 C   0  0  0  0  0  0  0  0  0  0  0  0
   60.3230   29.1050   49.7760 C   0  0  0  0  0  0  0  0  0  0  0  0
   59.7940   30.2970   49.1820 N   0  0  0  0  0  0  0  0  0  0  0  0
   58.9600   31.2170   49.9070 C   0  0  0  0  0  0  0  0  0  0  0  0
   58.5140   30.9010   51.0420 O   0  0  0  0  0  0  0  0  0  0  0  0
   58.6510   32.5110   49.3790 N   0  0  0  0  0  0  0  0  0  0  0  0
   59.1660   33.0280   48.1480 C   0  0  0  0  0  0  0  0  0  0  0  0
   58.2670   33.3630   47.1290 C   0  0  0  0  0  0  0  0  0  0  0  0
   58.7320   33.8820   45.9210 C   0  0  0  0  0  0  0  0  0  0  0  0
   60.1020   34.0490   45.7130 C   0  0  0  0  0  0  0  0  0  0  0  0
   61.0160   33.6870   46.7080 C   0  0  0  0  0  0  0  0  0  0  0  0
   62.7340   33.8890   46.3940 Cl  0  0  0  0  0  0  0  0  0  0  0  0
   60.5530   33.1640   47.9310 C   0  0  0  0  0  0  0  0  0  0  0  0
   61.7030   32.6370   49.1600 Cl  0  0  0  0  0  0  0  0  0  0  0  0
   58.0700   28.8080   46.3580 C   0  0  0  0  0  0  0  0  0  0  0  0
   54.7210   29.5030   45.5510 H   0  0  0  0  0  0  0  0  0  0  0  0
   59.3520   30.2573   43.5367 H   0  0  0  0  0  0  0  0  0  0  0  0
   61.4741   29.4627   44.5793 H   0  0  0  0  0  0  0  0  0  0  0  0
   61.4219   28.2533   46.7616 H   0  0  0  0  0  0  0  0  0  0  0  0
   60.4950   25.7062   49.3477 H   0  0  0  0  0  0  0  0  0  0  0  0
   61.9643   25.9285   51.3470 H   0  0  0  0  0  0  0  0  0  0  0  0
   61.3054   30.2022   51.3704 H   0  0  0  0  0  0  0  0  0  0  0  0
   59.9560   30.4400   48.1610 H   0  0  0  0  0  0  0  0  0  0  0  0
   57.1876   33.2161   47.2818 H   0  0  0  0  0  0  0  0  0  0  0  0
   58.0184   34.1600   45.1314 H   0  0  0  0  0  0  0  0  0  0  0  0
   60.4645   34.4672   44.7624 H   0  0  0  0  0  0  0  0  0  0  0  0
   57.1088   28.6343   46.8638 H   0  0  0  0  0  0  0  0  0  0  0  0
  1  2  1  0
  2  3  2  0
  2  4  2  0
  2  5  1  0
  5  6  2  0
  6  7  1  0
  7  8  2  0
  8  9  1  0
  9 10  1  0
 10 11  1  0
 11 12  2  0
 12 13  1  0
 13 14  2  0
 14 15  1  0
 14 16  1  0
 16 17  2  0
 17 18  1  0
 18 19  1  0
 19 20  2  0
 19 21  1  0
 21 22  1  0
 22 23  2  0
 23 24  1  0
 24 25  2  0
 25 26  1  0
 26 27  1  0
 26 28  2  0
 28 29  1  0
  9 30  2  0
 30  5  1  0
 17 11  1  0
 28 22  1  0
  1 31  1  0
  6 32  1  0
  7 33  1  0
  8 34  1  0
 12 35  1  0
 13 36  1  0
 16 37  1  0
 18 38  1  0
 23 39  1  0
 24 40  1  0
 25 41  1  0
 30 42  1  0
M  CHG  2   1  -1  21  -1
M  END
>  <UniqueID>  (40) 
34

>  <SMILES>  (40) 
[NH-]S(=O)(=O)c1cccc(Oc2ccc(Cl)cc2NC(=O)[N-]c2cccc(Cl)c2Cl)c1

>  <Energy>  (40) 
61.56393307688611

>  <Genealogy>  (40) 
[NH-]S(=O)(=O)c1cccc(Oc2ccc(Cl)cc2NC(=O)[N-]c2cccc(Cl)c2Cl)c1 (protonated)
[NH-]S(=O)(=O)c1cccc(Oc2ccc(Cl)cc2NC(=O)[N-]c2cccc(Cl)c2Cl)c1 (3D coordinates assigned)
[NH-]S(=O)(=O)c1cccc(Oc2ccc(Cl)cc2NC(=O)[N-]c2cccc(Cl)c2Cl)c1 (optimized conformer: 61.56393307688611 kcal/mol)

>  <smiles>  (40) 
NS(=O)(=O)c1cccc(Oc2ccc(Cl)cc2NC(=O)Nc2cccc(Cl)c2Cl)c1

>  <score_type>  (40) 
oracle

>  <origin>  (40) 
adg

>  <m_score__min__energy>  (40) 
-14.51

>  <m_primary>  (40) 
energy

$$$$
40:0
     RDKit          3D

 45 48  0  0  0  0  0  0  0  0999 V2000
   59.7030   35.3780   46.3220 C   0  0  0  0  0  0  0  0  0  0  0  0
   59.9230   34.2830   47.2830 N   0  0  0  0  0  0  0  0  0  0  0  0
   58.6550   33.8150   47.8840 C   0  0  0  0  0  0  0  0  0  0  0  0
   57.7650   33.1030   46.8520 C   0  0  0  0  0  0  0  0  0  0  0  0
   58.5720   32.2500   45.9740 N   0  0  0  0  0  0  0  0  0  0  0  0
   58.0610   31.8500   44.6910 C   0  0  0  0  0  0  0  0  0  0  0  0
   58.2800   32.6710   43.5730 C   0  0  0  0  0  0  0  0  0  0  0  0
   57.7560   32.3210   42.3260 C   0  0  0  0  0  0  0  0  0  0  0  0
   57.0040   31.1530   42.1850 C   0  0  0  0  0  0  0  0  0  0  0  0
   56.7860   30.3240   43.2880 C   0  0  0  0  0  0  0  0  0  0  0  0
   57.3310   30.6490   44.5370 C   0  0  0  0  0  0  0  0  0  0  0  0
   57.0980   29.7730   45.6470 N   0  0  0  0  0  0  0  0  0  0  0  0
   57.8010   28.7410   46.0400 C   0  0  0  0  0  0  0  0  0  0  0  0
   59.1360   28.9790   46.3930 C   0  0  0  0  0  0  0  0  0  0  0  0
   59.9670   27.9220   46.7440 C   0  0  0  0  0  0  0  0  0  0  0  0
   59.4660   26.6260   46.7630 C   0  0  0  0  0  0  0  0  0  0  0  0
   58.1190   26.4020   46.4560 C   0  0  0  0  0  0  0  0  0  0  0  0
   57.6140   25.1370   46.5160 N   0  0  0  0  0  0  0  0  0  0  0  0
   56.2990   24.9030   46.2720 C   0  0  0  0  0  0  0  0  0  0  0  0
   55.8430   23.7290   46.3310 O   0  0  0  0  0  0  0  0  0  0  0  0
   55.4660   25.9730   45.9680 C   0  0  0  0  0  0  0  0  0  0  0  0
   54.2380   25.8010   45.7470 O   0  0  0  0  0  0  0  0  0  0  0  0
   55.9970   27.2180   45.9050 N   0  0  0  0  0  0  0  0  0  0  0  0
   57.2950   27.4550   46.1150 N   0  0  0  0  0  0  0  0  0  0  0  0
   59.9430   31.9130   46.3660 C   0  0  0  0  0  0  0  0  0  0  0  0
   60.7400   33.1880   46.6970 C   0  0  0  0  0  0  0  0  0  0  0  0
   59.5150   36.3137   46.8690 H   0  0  0  0  0  0  0  0  0  0  0  0
   60.5954   35.4958   45.6898 H   0  0  0  0  0  0  0  0  0  0  0  0
   58.8343   35.1420   45.6898 H   0  0  0  0  0  0  0  0  0  0  0  0
   58.8847   33.1144   48.7003 H   0  0  0  0  0  0  0  0  0  0  0  0
   58.1091   34.6930   48.2598 H   0  0  0  0  0  0  0  0  0  0  0  0
   57.0260   32.4820   47.3795 H   0  0  0  0  0  0  0  0  0  0  0  0
   57.2569   33.8620   46.2390 H   0  0  0  0  0  0  0  0  0  0  0  0
   58.8674   33.5949   43.6796 H   0  0  0  0  0  0  0  0  0  0  0  0
   57.9362   32.9667   41.4539 H   0  0  0  0  0  0  0  0  0  0  0  0
   56.5829   30.8854   41.2046 H   0  0  0  0  0  0  0  0  0  0  0  0
   56.1830   29.4109   43.1752 H   0  0  0  0  0  0  0  0  0  0  0  0
   59.5278   30.0068   46.3923 H   0  0  0  0  0  0  0  0  0  0  0  0
   61.0185   28.1107   47.0061 H   0  0  0  0  0  0  0  0  0  0  0  0
   60.1237   25.7818   47.0176 H   0  0  0  0  0  0  0  0  0  0  0  0
   58.2350   24.3320   46.7630 H   0  0  0  0  0  0  0  0  0  0  0  0
   59.9161   31.2628   47.2529 H   0  0  0  0  0  0  0  0  0  0  0  0
   60.4341   31.3945   45.5294 H   0  0  0  0  0  0  0  0  0  0  0  0
   61.5296   32.9242   47.4160 H   0  0  0  0  0  0  0  0  0  0  0  0
   61.1395   33.5669   45.7447 H   0  0  0  0  0  0  0  0  0  0  0  0
  1  2  1  0
  2  3  1  0
  3  4  1  0
  4  5  1  0
  5  6  1  0
  6  7  2  0
  7  8  1  0
  8  9  2  0
  9 10  1  0
 10 11  2  0
 11 12  1  0
 12 13  2  3
 13 14  1  0
 14 15  2  0
 15 16  1  0
 16 17  2  0
 17 18  1  0
 18 19  1  0
 19 20  2  0
 19 21  1  0
 21 22  2  0
 21 23  1  0
 23 24  1  0
  5 25  1  0
 25 26  1  0
 26  2  1  0
 11  6  1  0
 24 13  1  0
 24 17  1  0
  1 27  1  0
  1 28  1  0
  1 29  1  0
  3 30  1  0
  3 31  1  0
  4 32  1  0
  4 33  1  0
  7 34  1  0
  8 35  1  0
  9 36  1  0
 10 37  1  0
 14 38  1  0
 15 39  1  0
 16 40  1  0
 18 41  1  0
 25 42  1  0
 25 43  1  0
 26 44  1  0
 26 45  1  0
M  CHG  1  23  -1
M  END
>  <UniqueID>  (41) 
35

>  <SMILES>  (41) 
CN1CCN(c2ccccc2N=c2cccc3[nH]c(=O)c(=O)[n-]n23)CC1

>  <Energy>  (41) 
77.8028605674062

>  <Genealogy>  (41) 
CN1CCN(c2ccccc2N=c2cccc3[nH]c(=O)c(=O)[n-]n23)CC1 (protonated)
CN1CCN(c2ccccc2N=c2cccc3[nH]c(=O)c(=O)[n-]n23)CC1 (3D coordinates assigned)
CN1CCN(c2ccccc2N=c2cccc3[nH]c(=O)c(=O)[n-]n23)CC1 (nonaromatic ring conformer: 77.8028605674062 kcal/mol)

>  <smiles>  (41) 
CN1CCN(c2ccccc2N=c2cccc3[nH]c(=O)c(=O)[nH]n23)CC1

>  <score_type>  (41) 
oracle

>  <origin>  (41) 
adg

>  <m_score__min__energy>  (41) 
-10.550000000000001

>  <m_primary>  (41) 
energy

$$$$
41:0
     RDKit          3D

 21 22  0  0  0  0  0  0  0  0999 V2000
   57.0210   31.5020   42.9060 O   0  0  0  0  0  0  0  0  0  0  0  0
   56.7020   30.5690   43.6780 C   0  0  0  0  0  0  0  0  0  0  0  0
   57.4900   29.5030   44.0820 C   0  0  0  0  0  0  0  0  0  0  0  0
   56.7510   28.7000   44.9390 C   0  0  0  0  0  0  0  0  0  0  0  0
   57.2800   27.4880   45.5480 C   0  0  0  0  0  0  0  0  0  0  0  0
   58.6570   27.2280   45.5640 C   0  0  0  0  0  0  0  0  0  0  0  0
   59.1760   26.0870   46.1380 C   0  0  0  0  0  0  0  0  0  0  0  0
   58.3670   25.1480   46.7230 C   0  0  0  0  0  0  0  0  0  0  0  0
   57.0080   25.3780   46.7220 C   0  0  0  0  0  0  0  0  0  0  0  0
   56.4940   26.5260   46.1440 C   0  0  0  0  0  0  0  0  0  0  0  0
   55.1190   26.6810   46.1860 O   0  0  0  0  0  0  0  0  0  0  0  0
   55.5600   29.2840   45.0300 N   0  0  0  0  0  0  0  0  0  0  0  0
   55.5200   30.3820   44.2940 N   0  0  0  0  0  0  0  0  0  0  0  0
   58.5305   29.3230   43.7739 H   0  0  0  0  0  0  0  0  0  0  0  0
   59.3434   27.9551   45.1055 H   0  0  0  0  0  0  0  0  0  0  0  0
   60.2642   25.9266   46.1262 H   0  0  0  0  0  0  0  0  0  0  0  0
   58.7887   24.2400   47.1787 H   0  0  0  0  0  0  0  0  0  0  0  0
   56.3286   24.6458   47.1827 H   0  0  0  0  0  0  0  0  0  0  0  0
   54.7280   26.7170   47.1350 H   0  0  0  0  0  0  0  0  0  0  0  0
   54.7570   28.9530   45.5890 H   0  0  0  0  0  0  0  0  0  0  0  0
   54.6780   31.0220   44.2030 H   0  0  0  0  0  0  0  0  0  0  0  0
  1  2  2  0
  2  3  1  0
  3  4  2  0
  4  5  1  0
  5  6  2  0
  6  7  1  0
  7  8  2  0
  8  9  1  0
  9 10  2  0
 10 11  1  0
  4 12  1  0
 12 13  1  0
 13  2  1  0
 10  5  1  0
  3 14  1  0
  6 15  1  0
  7 16  1  0
  8 17  1  0
  9 18  1  0
 11 19  1  0
 12 20  1  0
 13 21  1  0
M  END
>  <smiles>  (42) 
O=c1cc(-c2ccccc2O)[nH][nH]1

>  <score_type>  (42) 
oracle

>  <origin>  (42) 
adg

>  <m_score__min__energy>  (42) 
-7.5499999999999998

>  <m_primary>  (42) 
energy

$$$$
42:0
     RDKit          3D

 31 32  0  0  0  0  0  0  0  0999 V2000
   60.7490   32.7650   50.7670 H   0  0  0  0  0  0  0  0  0  0  0  0
   61.2230   32.8990   49.8820 O   0  0  0  0  0  0  0  0  0  0  0  0
   60.5280   33.0390   48.6790 C   0  0  0  0  0  0  0  0  0  0  0  0
   61.2450   33.2850   47.4980 C   0  0  0  0  0  0  0  0  0  0  0  0
   63.1520   33.4370   47.5310 Br  0  0  0  0  0  0  0  0  0  0  0  0
   60.5710   33.4180   46.2810 C   0  0  0  0  0  0  0  0  0  0  0  0
   61.1397   33.6209   45.3615 H   0  0  0  0  0  0  0  0  0  0  0  0
   59.1780   33.2950   46.2230 C   0  0  0  0  0  0  0  0  0  0  0  0
   58.4890   33.4520   44.9210 C   0  0  0  0  0  0  0  0  0  0  0  0
   58.0990   34.7010   44.5600 F   0  0  0  0  0  0  0  0  0  0  0  0
   58.2040   32.4380   44.0860 C   0  0  0  0  0  0  0  0  0  0  0  0
   58.5214   32.5413   43.0379 H   0  0  0  0  0  0  0  0  0  0  0  0
   57.4970   31.1930   44.4640 C   0  0  0  0  0  0  0  0  0  0  0  0
   56.2600   30.8460   43.8900 C   0  0  0  0  0  0  0  0  0  0  0  0
   55.8009   31.5050   43.1384 H   0  0  0  0  0  0  0  0  0  0  0  0
   55.6120   29.6670   44.2710 C   0  0  0  0  0  0  0  0  0  0  0  0
   54.6550   29.3904   43.8045 H   0  0  0  0  0  0  0  0  0  0  0  0
   56.1800   28.8390   45.2450 C   0  0  0  0  0  0  0  0  0  0  0  0
   55.5360   27.6670   45.6220 O   0  0  0  0  0  0  0  0  0  0  0  0
   57.3930   29.1940   45.8420 C   0  0  0  0  0  0  0  0  0  0  0  0
   57.8360   28.5462   46.6128 H   0  0  0  0  0  0  0  0  0  0  0  0
   58.0440   30.3710   45.4610 C   0  0  0  0  0  0  0  0  0  0  0  0
   58.9901   30.6543   45.9454 H   0  0  0  0  0  0  0  0  0  0  0  0
   58.4570   33.0880   47.4120 C   0  0  0  0  0  0  0  0  0  0  0  0
   57.3583   33.0436   47.3811 H   0  0  0  0  0  0  0  0  0  0  0  0
   59.1250   32.9370   48.6410 C   0  0  0  0  0  0  0  0  0  0  0  0
   58.4310   32.6860   49.8370 O   0  0  0  0  0  0  0  0  0  0  0  0
   58.4580   31.4490   50.5400 C   0  0  0  0  0  0  0  0  0  0  0  0
   58.4538   31.6425   51.6228 H   0  0  0  0  0  0  0  0  0  0  0  0
   57.5726   30.8546   50.2703 H   0  0  0  0  0  0  0  0  0  0  0  0
   59.3685   30.8938   50.2703 H   0  0  0  0  0  0  0  0  0  0  0  0
  1  2  1  0
  2  3  1  0
  3  4  2  0
  4  5  1  0
  4  6  1  0
  6  7  1  0
  6  8  2  0
  8  9  1  0
  9 10  1  0
  9 11  2  0
 11 12  1  0
 11 13  1  0
 13 14  2  0
 14 15  1  0
 14 16  1  0
 16 17  1  0
 16 18  2  0
 18 19  1  0
 18 20  1  0
 20 21  1  0
 20 22  2  0
 22 23  1  0
  8 24  1  0
 24 25  1  0
 24 26  2  0
 26 27  1  0
 27 28  1  0
 28 29  1  0
 28 30  1  0
 28 31  1  0
 26  3  1  0
 22 13  1  0
M  CHG  1  19  -1
M  END
>  <UniqueID>  (43) 
36

>  <SMILES>  (43) 
COc1cc(/C(F)=C\c2ccc([O-])cc2)cc(Br)c1O

>  <Energy>  (43) 
40.954773979469934

>  <Genealogy>  (43) 
COc1cc(C(F)=Cc2ccc([O-])cc2)cc(Br)c1O (protonated)
COc1cc(/C(F)=C\c2ccc([O-])cc2)cc(Br)c1O (cis-trans isomerization)
COc1cc(/C(F)=C\c2ccc([O-])cc2)cc(Br)c1O (3D coordinates assigned)
COc1cc(/C(F)=C\c2ccc([O-])cc2)cc(Br)c1O (optimized conformer: 40.954773979469934 kcal/mol)

>  <smiles>  (43) 
COc1cc(C(F)=Cc2ccc(O)cc2)cc(Br)c1O

>  <score_type>  (43) 
oracle

>  <origin>  (43) 
adg

>  <m_score__min__energy>  (43) 
-9.9199999999999999

>  <m_primary>  (43) 
energy

$$$$
43:0
     RDKit          3D

 27 28  0  0  0  0  0  0  0  0999 V2000
   57.4980   28.2850   43.6100 N   0  0  0  0  0  0  0  0  0  0  0  0
   57.8220   27.9200   44.9580 C   0  0  0  0  0  0  0  0  0  0  0  0
   57.0200   26.9790   45.6230 C   0  0  0  0  0  0  0  0  0  0  0  0
   57.3290   26.5770   46.9240 C   0  0  0  0  0  0  0  0  0  0  0  0
   58.4430   27.1080   47.5740 C   0  0  0  0  0  0  0  0  0  0  0  0
   59.2470   28.0500   46.9270 C   0  0  0  0  0  0  0  0  0  0  0  0
   58.9370   28.4740   45.6260 C   0  0  0  0  0  0  0  0  0  0  0  0
   59.9840   29.7180   44.8550 S   0  0  0  0  0  0  0  0  0  0  0  0
   59.1950   31.0810   45.7300 C   0  0  0  0  0  0  0  0  0  0  0  0
   59.8750   31.6520   46.8150 C   0  0  0  0  0  0  0  0  0  0  0  0
   59.3450   32.7580   47.4830 C   0  0  0  0  0  0  0  0  0  0  0  0
   60.2150   33.4690   48.8300 Cl  0  0  0  0  0  0  0  0  0  0  0  0
   58.1280   33.3020   47.0720 C   0  0  0  0  0  0  0  0  0  0  0  0
   57.4310   32.7340   46.0040 C   0  0  0  0  0  0  0  0  0  0  0  0
   57.9420   31.6110   45.3290 C   0  0  0  0  0  0  0  0  0  0  0  0
   57.1770   31.0340   44.2550 N   0  0  0  0  0  0  0  0  0  0  0  0
   56.1570   30.3530   44.4920 O   0  0  0  0  0  0  0  0  0  0  0  0
   57.4610   31.3680   42.9510 O   0  0  0  0  0  0  0  0  0  0  0  0
   57.0210   27.6260   42.9570 H   0  0  0  0  0  0  0  0  0  0  0  0
   57.6980   29.2480   43.2600 H   0  0  0  0  0  0  0  0  0  0  0  0
   56.1412   26.5550   45.1151 H   0  0  0  0  0  0  0  0  0  0  0  0
   56.6930   25.8405   47.4370 H   0  0  0  0  0  0  0  0  0  0  0  0
   58.6887   26.7850   48.5964 H   0  0  0  0  0  0  0  0  0  0  0  0
   60.1283   28.4616   47.4407 H   0  0  0  0  0  0  0  0  0  0  0  0
   60.8343   31.2252   47.1430 H   0  0  0  0  0  0  0  0  0  0  0  0
   57.7166   34.1805   47.5906 H   0  0  0  0  0  0  0  0  0  0  0  0
   56.4719   33.1695   45.6871 H   0  0  0  0  0  0  0  0  0  0  0  0
  1  2  1  0
  2  3  2  0
  3  4  1  0
  4  5  2  0
  5  6  1  0
  6  7  2  0
  7  8  1  0
  8  9  1  0
  9 10  2  0
 10 11  1  0
 11 12  1  0
 11 13  2  0
 13 14  1  0
 14 15  2  0
 15 16  1  0
 16 17  2  0
 16 18  1  0
  7  2  1  0
 15  9  1  0
  1 19  1  0
  1 20  1  0
  3 21  1  0
  4 22  1  0
  5 23  1  0
  6 24  1  0
 10 25  1  0
 13 26  1  0
 14 27  1  0
M  CHG  2  16   1  18  -1
M  END
>  <UniqueID>  (44) 
37

>  <SMILES>  (44) 
Nc1ccccc1Sc1cc(Cl)ccc1[N+](=O)[O-]

>  <Energy>  (44) 
28.510682137993093

>  <Genealogy>  (44) 
Nc1ccccc1Sc1cc(Cl)ccc1[N+](=O)[O-] (3D coordinates assigned)
Nc1ccccc1Sc1cc(Cl)ccc1[N+](=O)[O-] (optimized conformer: 28.510682137993093 kcal/mol)

>  <smiles>  (44) 
Nc1ccccc1Sc1cc(Cl)ccc1[N+](=O)[O-]

>  <score_type>  (44) 
oracle

>  <origin>  (44) 
adg

>  <m_score__min__energy>  (44) 
-7.04

>  <m_primary>  (44) 
energy

$$$$
44:0
     RDKit          3D

 58 60  0  0  0  0  0  0  0  0999 V2000
   62.4120   33.5250   46.7950 C   0  0  0  0  0  0  0  0  0  0  0  0
   61.1350   33.9220   47.2770 O   0  0  0  0  0  0  0  0  0  0  0  0
   60.0600   34.2040   46.4270 C   0  0  0  0  0  0  0  0  0  0  0  0
   59.8790   35.3810   46.0070 O   0  0  0  0  0  0  0  0  0  0  0  0
   59.1380   33.1190   46.0220 C   0  0  0  0  0  0  0  0  0  0  0  0
   58.2960   33.2830   44.9090 C   0  0  0  0  0  0  0  0  0  0  0  0
   57.4260   32.2590   44.5230 C   0  0  0  0  0  0  0  0  0  0  0  0
   57.3930   31.0510   45.2280 C   0  0  0  0  0  0  0  0  0  0  0  0
   56.4820   30.0300   44.8000 N   0  0  0  0  0  0  0  0  0  0  0  0
   56.7180   28.6190   44.8850 C   0  0  0  0  0  0  0  0  0  0  0  0
   55.9840   27.8850   45.6010 O   0  0  0  0  0  0  0  0  0  0  0  0
   57.8740   28.0130   44.1460 C   0  0  0  0  0  0  0  0  0  0  0  0
   58.7750   27.2920   45.0640 N   0  0  0  0  0  0  0  0  0  0  0  0
   59.8980   28.0010   45.6850 C   0  0  0  0  0  0  0  0  0  0  0  0
   58.5130   25.9260   45.4600 C   0  0  0  0  0  0  0  0  0  0  0  0
   59.2460   25.3740   46.3250 O   0  0  0  0  0  0  0  0  0  0  0  0
   57.3770   25.1640   44.9030 C   0  0  0  0  0  0  0  0  0  0  0  0
   57.3870   24.8170   43.5420 C   0  0  0  0  0  0  0  0  0  0  0  0
   56.3400   24.0690   42.9990 C   0  0  0  0  0  0  0  0  0  0  0  0
   55.2700   23.6770   43.8060 C   0  0  0  0  0  0  0  0  0  0  0  0
   55.2380   24.0390   45.1550 C   0  0  0  0  0  0  0  0  0  0  0  0
   56.2880   24.7920   45.7150 C   0  0  0  0  0  0  0  0  0  0  0  0
   56.2770   25.1970   47.0590 O   0  0  0  0  0  0  0  0  0  0  0  0
   56.9860   24.5470   48.1090 C   0  0  0  0  0  0  0  0  0  0  0  0
   56.5670   23.1090   48.1680 C   0  0  0  0  0  0  0  0  0  0  0  0
   55.5190   22.8080   48.7980 O   0  0  0  0  0  0  0  0  0  0  0  0
   57.3430   22.0610   47.5730 N   0  0  0  0  0  0  0  0  0  0  0  0
   57.4560   21.7700   46.1730 C   0  0  0  0  0  0  0  0  0  0  0  0
   56.4760   21.0220   45.4940 C   0  0  0  0  0  0  0  0  0  0  0  0
   56.6360   20.7200   44.1370 C   0  0  0  0  0  0  0  0  0  0  0  0
   57.7800   21.1460   43.4560 C   0  0  0  0  0  0  0  0  0  0  0  0
   58.7670   21.8690   44.1310 C   0  0  0  0  0  0  0  0  0  0  0  0
   58.6110   22.1710   45.4890 C   0  0  0  0  0  0  0  0  0  0  0  0
   58.2110   30.8890   46.3620 C   0  0  0  0  0  0  0  0  0  0  0  0
   58.1350   29.7700   47.1250 F   0  0  0  0  0  0  0  0  0  0  0  0
   59.0820   31.9150   46.7480 C   0  0  0  0  0  0  0  0  0  0  0  0
   63.0772   33.3182   47.6463 H   0  0  0  0  0  0  0  0  0  0  0  0
   62.3069   32.6171   46.1828 H   0  0  0  0  0  0  0  0  0  0  0  0
   62.8401   34.3325   46.1828 H   0  0  0  0  0  0  0  0  0  0  0  0
   58.3216   34.2228   44.3380 H   0  0  0  0  0  0  0  0  0  0  0  0
   56.7621   32.4042   43.6581 H   0  0  0  0  0  0  0  0  0  0  0  0
   57.4894   27.3085   43.3939 H   0  0  0  0  0  0  0  0  0  0  0  0
   58.4424   28.8224   43.6645 H   0  0  0  0  0  0  0  0  0  0  0  0
   59.8074   27.9438   46.7798 H   0  0  0  0  0  0  0  0  0  0  0  0
   60.8441   27.5361   45.3706 H   0  0  0  0  0  0  0  0  0  0  0  0
   59.8851   29.0550   45.3706 H   0  0  0  0  0  0  0  0  0  0  0  0
   58.2226   25.1356   42.9014 H   0  0  0  0  0  0  0  0  0  0  0  0
   56.3583   23.7886   41.9355 H   0  0  0  0  0  0  0  0  0  0  0  0
   54.4499   23.0815   43.3784 H   0  0  0  0  0  0  0  0  0  0  0  0
   54.3880   23.7342   45.7831 H   0  0  0  0  0  0  0  0  0  0  0  0
   58.0672   24.6078   47.9159 H   0  0  0  0  0  0  0  0  0  0  0  0
   56.7606   25.0379   49.0672 H   0  0  0  0  0  0  0  0  0  0  0  0
   55.5817   20.6738   46.0316 H   0  0  0  0  0  0  0  0  0  0  0  0
   55.8614   20.1472   43.6061 H   0  0  0  0  0  0  0  0  0  0  0  0
   57.9033   20.9120   42.3883 H   0  0  0  0  0  0  0  0  0  0  0  0
   59.6679   22.2014   43.5945 H   0  0  0  0  0  0  0  0  0  0  0  0
   59.3983   22.7252   46.0210 H   0  0  0  0  0  0  0  0  0  0  0  0
   59.7287   31.7785   47.6273 H   0  0  0  0  0  0  0  0  0  0  0  0
  1  2  1  0
  2  3  1  0
  3  4  2  0
  3  5  1  0
  5  6  2  0
  6  7  1  0
  7  8  2  0
  8  9  1  0
  9 10  1  0
 10 11  2  0
 10 12  1  0
 12 13  1  0
 13 14  1  0
 13 15  1  0
 15 16  2  0
 15 17  1  0
 17 18  2  0
 18 19  1  0
 19 20  2  0
 20 21  1  0
 21 22  2  0
 22 23  1  0
 23 24  1  0
 24 25  1  0
 25 26  2  0
 25 27  1  0
 27 28  1  0
 28 29  2  0
 29 30  1  0
 30 31  2  0
 31 32  1  0
 32 33  2  0
  8 34  1  0
 34 35  1  0
 34 36  2  0
 36  5  1  0
 22 17  1  0
 33 28  1  0
  1 37  1  0
  1 38  1  0
  1 39  1  0
  6 40  1  0
  7 41  1  0
 12 42  1  0
 12 43  1  0
 14 44  1  0
 14 45  1  0
 14 46  1  0
 18 47  1  0
 19 48  1  0
 20 49  1  0
 21 50  1  0
 24 51  1  0
 24 52  1  0
 29 53  1  0
 30 54  1  0
 31 55  1  0
 32 56  1  0
 33 57  1  0
 36 58  1  0
M  CHG  2   9  -1  27  -1
M  END
>  <UniqueID>  (45) 
38

>  <SMILES>  (45) 
COC(=O)c1ccc([N-]C(=O)CN(C)C(=O)c2ccccc2OCC(=O)[N-]c2ccccc2)c(F)c1

>  <Energy>  (45) 
69.40875853006148

>  <Genealogy>  (45) 
COC(=O)c1ccc([N-]C(=O)CN(C)C(=O)c2ccccc2OCC(=O)[N-]c2ccccc2)c(F)c1 (protonated)
COC(=O)c1ccc([N-]C(=O)CN(C)C(=O)c2ccccc2OCC(=O)[N-]c2ccccc2)c(F)c1 (3D coordinates assigned)
COC(=O)c1ccc([N-]C(=O)CN(C)C(=O)c2ccccc2OCC(=O)[N-]c2ccccc2)c(F)c1 (optimized conformer: 69.40875853006148 kcal/mol)

>  <smiles>  (45) 
COC(=O)c1ccc(NC(=O)CN(C)C(=O)c2ccccc2OCC(=O)Nc2ccccc2)c(F)c1

>  <score_type>  (45) 
oracle

>  <origin>  (45) 
adg

>  <m_score__min__energy>  (45) 
-11.25

>  <m_primary>  (45) 
energy

$$$$
45:0
     RDKit          3D

 55 59  0  0  0  0  0  0  0  0999 V2000
   57.4990   34.3610   44.9170 C   0  0  0  0  0  0  0  0  0  0  0  0
   57.8470   33.7510   46.2450 C   0  0  0  0  0  0  0  0  0  0  0  0
   56.9080   33.4700   47.0370 O   0  0  0  0  0  0  0  0  0  0  0  0
   59.2490   33.4340   46.6170 C   0  0  0  0  0  0  0  0  0  0  0  0
   60.3150   34.1320   46.0250 C   0  0  0  0  0  0  0  0  0  0  0  0
   61.6340   33.8420   46.3790 C   0  0  0  0  0  0  0  0  0  0  0  0
   61.9090   32.8590   47.3310 C   0  0  0  0  0  0  0  0  0  0  0  0
   60.8630   32.1520   47.9430 C   0  0  0  0  0  0  0  0  0  0  0  0
   61.1520   31.1510   49.0000 C   0  0  0  0  0  0  0  0  0  0  0  0
   62.2520   31.1860   49.6200 O   0  0  0  0  0  0  0  0  0  0  0  0
   60.1750   30.1780   49.3960 N   0  0  0  0  0  0  0  0  0  0  0  0
   59.6860   29.1160   48.5690 C   0  0  0  0  0  0  0  0  0  0  0  0
   60.1680   27.8040   48.6990 C   0  0  0  0  0  0  0  0  0  0  0  0
   59.6110   26.7730   47.9380 C   0  0  0  0  0  0  0  0  0  0  0  0
   58.5830   27.0410   47.0220 C   0  0  0  0  0  0  0  0  0  0  0  0
   58.0180   25.9730   46.2520 N   0  0  0  0  0  0  0  0  0  0  0  0
   58.7090   24.8800   45.6360 C   0  0  0  0  0  0  0  0  0  0  0  0
   59.9510   24.6780   45.7250 O   0  0  0  0  0  0  0  0  0  0  0  0
   57.7530   24.0020   44.9690 C   0  0  0  0  0  0  0  0  0  0  0  0
   57.9480   22.8370   44.2340 C   0  0  0  0  0  0  0  0  0  0  0  0
   56.8170   22.1960   43.6950 C   0  0  0  0  0  0  0  0  0  0  0  0
   55.5260   22.7290   43.9020 C   0  0  0  0  0  0  0  0  0  0  0  0
   55.3560   23.9060   44.6530 C   0  0  0  0  0  0  0  0  0  0  0  0
   56.4910   24.5190   45.1790 C   0  0  0  0  0  0  0  0  0  0  0  0
   56.6350   25.7330   45.9770 C   0  0  0  0  0  0  0  0  0  0  0  0
   55.6950   26.4820   46.3500 O   0  0  0  0  0  0  0  0  0  0  0  0
   58.1150   28.3580   46.8690 C   0  0  0  0  0  0  0  0  0  0  0  0
   57.0640   28.6230   45.9770 O   0  0  0  0  0  0  0  0  0  0  0  0
   57.1480   29.5110   44.8970 C   0  0  0  0  0  0  0  0  0  0  0  0
   56.2710   29.3480   43.8170 C   0  0  0  0  0  0  0  0  0  0  0  0
   56.3390   30.2120   42.7200 C   0  0  0  0  0  0  0  0  0  0  0  0
   57.2940   31.2330   42.6880 C   0  0  0  0  0  0  0  0  0  0  0  0
   58.1790   31.3950   43.7560 C   0  0  0  0  0  0  0  0  0  0  0  0
   58.1100   30.5380   44.8580 C   0  0  0  0  0  0  0  0  0  0  0  0
   58.6600   29.3850   47.6590 C   0  0  0  0  0  0  0  0  0  0  0  0
   59.5370   32.4520   47.5850 C   0  0  0  0  0  0  0  0  0  0  0  0
   56.9598   35.3062   45.0777 H   0  0  0  0  0  0  0  0  0  0  0  0
   58.4213   34.5568   44.3505 H   0  0  0  0  0  0  0  0  0  0  0  0
   56.8611   33.6667   44.3505 H   0  0  0  0  0  0  0  0  0  0  0  0
   60.1090   34.9123   45.2775 H   0  0  0  0  0  0  0  0  0  0  0  0
   62.4610   34.3912   45.9051 H   0  0  0  0  0  0  0  0  0  0  0  0
   62.9516   32.6374   47.6029 H   0  0  0  0  0  0  0  0  0  0  0  0
   60.9861   27.5871   49.4016 H   0  0  0  0  0  0  0  0  0  0  0  0
   59.9812   25.7441   48.0580 H   0  0  0  0  0  0  0  0  0  0  0  0
   58.9575   22.4285   44.0786 H   0  0  0  0  0  0  0  0  0  0  0  0
   56.9396   21.2735   43.1085 H   0  0  0  0  0  0  0  0  0  0  0  0
   54.6491   22.2213   43.4739 H   0  0  0  0  0  0  0  0  0  0  0  0
   54.3551   24.3305   44.8203 H   0  0  0  0  0  0  0  0  0  0  0  0
   55.5268   28.5381   43.8321 H   0  0  0  0  0  0  0  0  0  0  0  0
   55.6396   30.0884   41.8800 H   0  0  0  0  0  0  0  0  0  0  0  0
   57.3481   31.9085   41.8216 H   0  0  0  0  0  0  0  0  0  0  0  0
   58.9309   32.1975   43.7300 H   0  0  0  0  0  0  0  0  0  0  0  0
   58.8094   30.6664   45.6972 H   0  0  0  0  0  0  0  0  0  0  0  0
   58.2751   30.4107   47.5600 H   0  0  0  0  0  0  0  0  0  0  0  0
   58.7106   31.9108   48.0689 H   0  0  0  0  0  0  0  0  0  0  0  0
  1  2  1  0
  2  3  2  0
  2  4  1  0
  4  5  2  0
  5  6  1  0
  6  7  2  0
  7  8  1  0
  8  9  1  0
  9 10  2  0
  9 11  1  0
 11 12  1  0
 12 13  2  0
 13 14  1  0
 14 15  2  0
 15 16  1  0
 16 17  1  0
 17 18  2  0
 17 19  1  0
 19 20  2  0
 20 21  1  0
 21 22  2  0
 22 23  1  0
 23 24  2  0
 24 25  1  0
 25 26  2  0
 15 27  1  0
 27 28  1  0
 28 29  1  0
 29 30  2  0
 30 31  1  0
 31 32  2  0
 32 33  1  0
 33 34  2  0
 27 35  2  0
  8 36  2  0
 36  4  1  0
 35 12  1  0
 25 16  1  0
 34 29  1  0
 24 19  1  0
  1 37  1  0
  1 38  1  0
  1 39  1  0
  5 40  1  0
  6 41  1  0
  7 42  1  0
 13 43  1  0
 14 44  1  0
 20 45  1  0
 21 46  1  0
 22 47  1  0
 23 48  1  0
 30 49  1  0
 31 50  1  0
 32 51  1  0
 33 52  1  0
 34 53  1  0
 35 54  1  0
 36 55  1  0
M  CHG  1  11  -1
M  END
>  <UniqueID>  (46) 
39

>  <SMILES>  (46) 
CC(=O)c1cccc(C(=O)[N-]c2ccc(N3C(=O)c4ccccc4C3=O)c(Oc3ccccc3)c2)c1

>  <Energy>  (46) 
112.90450920609153

>  <Genealogy>  (46) 
CC(=O)c1cccc(C(=O)[N-]c2ccc(N3C(=O)c4ccccc4C3=O)c(Oc3ccccc3)c2)c1 (protonated)
CC(=O)c1cccc(C(=O)[N-]c2ccc(N3C(=O)c4ccccc4C3=O)c(Oc3ccccc3)c2)c1 (3D coordinates assigned)
CC(=O)c1cccc(C(=O)[N-]c2ccc(N3C(=O)c4ccccc4C3=O)c(Oc3ccccc3)c2)c1 (nonaromatic ring conformer: 112.90450920609153 kcal/mol)

>  <smiles>  (46) 
CC(=O)c1cccc(C(=O)Nc2ccc(N3C(=O)c4ccccc4C3=O)c(Oc3ccccc3)c2)c1

>  <score_type>  (46) 
oracle

>  <origin>  (46) 
adg

>  <m_score__min__energy>  (46) 
-11.51

>  <m_primary>  (46) 
energy

$$$$
46:0
     RDKit          3D

 38 39  0  0  0  0  0  0  0  0999 V2000
   58.5050   32.4870   41.4650 C   0  0  0  0  0  0  0  0  0  0  0  0
   57.8230   32.2630   42.7770 C   0  0  0  0  0  0  0  0  0  0  0  0
   57.2110   31.0390   43.0720 C   0  0  0  0  0  0  0  0  0  0  0  0
   56.6300   30.8700   44.3300 C   0  0  0  0  0  0  0  0  0  0  0  0
   55.8390   29.3200   44.7630 S   0  0  0  0  0  0  0  0  0  0  0  0
   57.3800   28.3430   44.8120 C   0  0  0  0  0  0  0  0  0  0  0  0
   57.6120   27.7730   46.1850 C   0  0  0  0  0  0  0  0  0  0  0  0
   57.0060   26.7160   46.5040 O   0  0  0  0  0  0  0  0  0  0  0  0
   58.3940   28.4370   47.1890 N   0  0  0  0  0  0  0  0  0  0  0  0
   58.8710   29.7910   47.1870 C   0  0  0  0  0  0  0  0  0  0  0  0
   59.3430   30.3940   46.0100 C   0  0  0  0  0  0  0  0  0  0  0  0
   59.7740   31.7220   46.0190 C   0  0  0  0  0  0  0  0  0  0  0  0
   59.7890   32.4490   47.2130 C   0  0  0  0  0  0  0  0  0  0  0  0
   60.2940   34.1360   47.2190 S   0  0  0  0  0  0  0  0  0  0  0  0
   59.6890   34.9270   45.8060 N   0  0  0  0  0  0  0  0  0  0  0  0
   59.7600   34.8220   48.4450 O   0  0  0  0  0  0  0  0  0  0  0  0
   61.7940   34.2220   47.2350 O   0  0  0  0  0  0  0  0  0  0  0  0
   59.3940   31.8320   48.4050 C   0  0  0  0  0  0  0  0  0  0  0  0
   58.9470   30.4990   48.4040 C   0  0  0  0  0  0  0  0  0  0  0  0
   58.5740   29.8340   49.7000 C   0  0  0  0  0  0  0  0  0  0  0  0
   56.6900   31.8760   45.2420 N   0  0  0  0  0  0  0  0  0  0  0  0
   57.2890   33.0570   44.9420 C   0  0  0  0  0  0  0  0  0  0  0  0
   57.3240   33.9790   45.7980 O   0  0  0  0  0  0  0  0  0  0  0  0
   57.8540   33.2420   43.7210 N   0  0  0  0  0  0  0  0  0  0  0  0
   59.5366   32.8258   41.6411 H   0  0  0  0  0  0  0  0  0  0  0  0
   58.5203   31.5467   40.8944 H   0  0  0  0  0  0  0  0  0  0  0  0
   57.9598   33.2533   40.8944 H   0  0  0  0  0  0  0  0  0  0  0  0
   57.1884   30.2283   42.3289 H   0  0  0  0  0  0  0  0  0  0  0  0
   57.3067   27.5185   44.0876 H   0  0  0  0  0  0  0  0  0  0  0  0
   58.2226   29.0034   44.5591 H   0  0  0  0  0  0  0  0  0  0  0  0
   59.3734   29.8162   45.0745 H   0  0  0  0  0  0  0  0  0  0  0  0
   60.1029   32.1979   45.0834 H   0  0  0  0  0  0  0  0  0  0  0  0
   59.3420   34.1790   45.1640 H   0  0  0  0  0  0  0  0  0  0  0  0
   58.8530   35.4810   46.1000 H   0  0  0  0  0  0  0  0  0  0  0  0
   59.4335   32.3939   49.3498 H   0  0  0  0  0  0  0  0  0  0  0  0
   58.9203   30.4514   50.5419 H   0  0  0  0  0  0  0  0  0  0  0  0
   57.4811   29.7214   49.7531 H   0  0  0  0  0  0  0  0  0  0  0  0
   59.0477   28.8427   49.7531 H   0  0  0  0  0  0  0  0  0  0  0  0
  1  2  1  0
  2  3  1  0
  3  4  2  0
  4  5  1  0
  5  6  1  0
  6  7  1  0
  7  8  2  0
  7  9  1  0
  9 10  1  0
 10 11  2  0
 11 12  1  0
 12 13  2  0
 13 14  1  0
 14 15  1  0
 14 16  2  0
 14 17  2  0
 13 18  1  0
 18 19  2  0
 19 20  1  0
  4 21  1  0
 21 22  1  0
 22 23  2  0
 22 24  1  0
 24  2  2  0
 19 10  1  0
  1 25  1  0
  1 26  1  0
  1 27  1  0
  3 28  1  0
  6 29  1  0
  6 30  1  0
 11 31  1  0
 12 32  1  0
 15 33  1  0
 15 34  1  0
 18 35  1  0
 20 36  1  0
 20 37  1  0
 20 38  1  0
M  CHG  2   9  -1  21  -1
M  END
>  <UniqueID>  (47) 
40

>  <SMILES>  (47) 
Cc1cc(SCC(=O)[N-]c2ccc(S(N)(=O)=O)cc2C)[n-]c(=O)n1

>  <Energy>  (47) 
33.87080499256552

>  <Genealogy>  (47) 
Cc1cc(SCC(=O)[N-]c2ccc(S(N)(=O)=O)cc2C)[n-]c(=O)n1 (protonated)
Cc1cc(SCC(=O)[N-]c2ccc(S(N)(=O)=O)cc2C)[n-]c(=O)n1 (3D coordinates assigned)
Cc1cc(SCC(=O)[N-]c2ccc(S(N)(=O)=O)cc2C)[n-]c(=O)n1 (optimized conformer: 33.87080499256552 kcal/mol)

>  <smiles>  (47) 
Cc1cc(SCC(=O)Nc2ccc(S(N)(=O)=O)cc2C)[nH]c(=O)n1

>  <score_type>  (47) 
oracle

>  <origin>  (47) 
adg

>  <m_score__min__energy>  (47) 
-11.75

>  <m_primary>  (47) 
energy

$$$$
47:0
     RDKit          3D

 40 42  0  0  0  0  0  0  0  0999 V2000
   60.7660   27.7030   48.4060 C   0  0  0  0  0  0  0  0  0  0  0  0
   59.7190   27.3660   47.3990 C   0  0  0  0  0  0  0  0  0  0  0  0
   58.3640   27.5750   47.5310 C   0  0  0  0  0  0  0  0  0  0  0  0
   57.8540   27.1250   46.3300 C   0  0  0  0  0  0  0  0  0  0  0  0
   56.4400   27.1180   45.9370 C   0  0  0  0  0  0  0  0  0  0  0  0
   55.7160   26.1340   46.2440 O   0  0  0  0  0  0  0  0  0  0  0  0
   55.8860   28.2510   45.2550 N   0  0  0  0  0  0  0  0  0  0  0  0
   56.6150   29.3590   44.7070 C   0  0  0  0  0  0  0  0  0  0  0  0
   56.3560   29.7450   43.3870 C   0  0  0  0  0  0  0  0  0  0  0  0
   57.0200   30.8390   42.8270 C   0  0  0  0  0  0  0  0  0  0  0  0
   57.9460   31.5600   43.5850 C   0  0  0  0  0  0  0  0  0  0  0  0
   58.2210   31.1890   44.9090 C   0  0  0  0  0  0  0  0  0  0  0  0
   59.1480   31.9710   45.6810 N   0  0  0  0  0  0  0  0  0  0  0  0
   60.2360   31.4080   46.4350 C   0  0  0  0  0  0  0  0  0  0  0  0
   60.5450   30.1930   46.2960 O   0  0  0  0  0  0  0  0  0  0  0  0
   61.0370   32.2550   47.3450 C   0  0  0  0  0  0  0  0  0  0  0  0
   62.2510   31.7520   47.8500 C   0  0  0  0  0  0  0  0  0  0  0  0
   62.9910   32.4810   48.7800 C   0  0  0  0  0  0  0  0  0  0  0  0
   62.5290   33.7180   49.2260 C   0  0  0  0  0  0  0  0  0  0  0  0
   61.3300   34.2360   48.7350 C   0  0  0  0  0  0  0  0  0  0  0  0
   60.5780   33.5240   47.7820 C   0  0  0  0  0  0  0  0  0  0  0  0
   59.3830   34.1200   47.2440 N   0  0  0  0  0  0  0  0  0  0  0  0
   59.4630   35.0070   46.3700 O   0  0  0  0  0  0  0  0  0  0  0  0
   58.1470   33.5940   47.5430 O   0  0  0  0  0  0  0  0  0  0  0  0
   57.5290   30.1030   45.4760 C   0  0  0  0  0  0  0  0  0  0  0  0
   58.8570   26.6850   45.5450 N   0  0  0  0  0  0  0  0  0  0  0  0
   59.9600   26.8470   46.2170 O   0  0  0  0  0  0  0  0  0  0  0  0
   60.3568   27.5713   49.4185 H   0  0  0  0  0  0  0  0  0  0  0  0
   61.6319   27.0382   48.2711 H   0  0  0  0  0  0  0  0  0  0  0  0
   61.0816   28.7481   48.2711 H   0  0  0  0  0  0  0  0  0  0  0  0
   57.8193   27.9987   48.3876 H   0  0  0  0  0  0  0  0  0  0  0  0
   55.6250   29.1835   42.7867 H   0  0  0  0  0  0  0  0  0  0  0  0
   56.8134   31.1333   41.7874 H   0  0  0  0  0  0  0  0  0  0  0  0
   58.4623   32.4237   43.1406 H   0  0  0  0  0  0  0  0  0  0  0  0
   59.0480   33.0100   45.6480 H   0  0  0  0  0  0  0  0  0  0  0  0
   62.6195   30.7738   47.5074 H   0  0  0  0  0  0  0  0  0  0  0  0
   63.9410   32.0792   49.1623 H   0  0  0  0  0  0  0  0  0  0  0  0
   63.1106   34.2869   49.9663 H   0  0  0  0  0  0  0  0  0  0  0  0
   60.9691   35.2103   49.0963 H   0  0  0  0  0  0  0  0  0  0  0  0
   57.7037   29.8336   46.5281 H   0  0  0  0  0  0  0  0  0  0  0  0
  1  2  1  0
  2  3  2  0
  3  4  1  0
  4  5  1  0
  5  6  2  0
  5  7  1  0
  7  8  1  0
  8  9  2  0
  9 10  1  0
 10 11  2  0
 11 12  1  0
 12 13  1  0
 13 14  1  0
 14 15  2  0
 14 16  1  0
 16 17  2  0
 17 18  1  0
 18 19  2  0
 19 20  1  0
 20 21  2  0
 21 22  1  0
 22 23  2  0
 22 24  1  0
 12 25  2  0
  4 26  2  0
 26 27  1  0
 27  2  1  0
 25  8  1  0
 21 16  1  0
  1 28  1  0
  1 29  1  0
  1 30  1  0
  3 31  1  0
  9 32  1  0
 10 33  1  0
 11 34  1  0
 13 35  1  0
 17 36  1  0
 18 37  1  0
 19 38  1  0
 20 39  1  0
 25 40  1  0
M  CHG  3   7  -1  22   1  24  -1
M  END
>  <UniqueID>  (48) 
41

>  <SMILES>  (48) 
Cc1cc(C(=O)[N-]c2cccc(NC(=O)c3ccccc3[N+](=O)[O-])c2)no1

>  <Energy>  (48) 
86.67740940430333

>  <Genealogy>  (48) 
Cc1cc(C(=O)[N-]c2cccc(NC(=O)c3ccccc3[N+](=O)[O-])c2)no1 (protonated)
Cc1cc(C(=O)[N-]c2cccc(NC(=O)c3ccccc3[N+](=O)[O-])c2)no1 (3D coordinates assigned)
Cc1cc(C(=O)[N-]c2cccc(NC(=O)c3ccccc3[N+](=O)[O-])c2)no1 (optimized conformer: 86.67740940430333 kcal/mol)

>  <smiles>  (48) 
Cc1cc(C(=O)Nc2cccc(NC(=O)c3ccccc3[N+](=O)[O-])c2)no1

>  <score_type>  (48) 
oracle

>  <origin>  (48) 
adg

>  <m_score__min__energy>  (48) 
-11.16

>  <m_primary>  (48) 
energy

$$$$
48:0
     RDKit          3D

 22 24  0  0  0  0  0  0  0  0999 V2000
   57.0100   34.5800   44.8710 N   0  0  0  0  0  0  0  0  0  0  0  0
   57.5690   33.6220   45.2000 C   0  0  0  0  0  0  0  0  0  0  0  0
   58.2650   32.4330   45.6110 C   0  0  0  0  0  0  0  0  0  0  0  0
   59.5210   32.3680   46.1930 C   0  0  0  0  0  0  0  0  0  0  0  0
   59.7850   31.0220   46.4200 C   0  0  0  0  0  0  0  0  0  0  0  0
   58.7380   30.2790   45.9960 N   0  0  0  0  0  0  0  0  0  0  0  0
   57.8240   31.1340   45.5100 C   0  0  0  0  0  0  0  0  0  0  0  0
   56.6440   30.7050   45.0010 N   0  0  0  0  0  0  0  0  0  0  0  0
   56.3680   29.3710   44.9780 C   0  0  0  0  0  0  0  0  0  0  0  0
   55.2680   28.9820   44.5020 O   0  0  0  0  0  0  0  0  0  0  0  0
   57.3090   28.4400   45.4830 C   0  0  0  0  0  0  0  0  0  0  0  0
   57.0640   27.0550   45.4780 C   0  0  0  0  0  0  0  0  0  0  0  0
   58.0200   26.1710   45.9860 C   0  0  0  0  0  0  0  0  0  0  0  0
   59.2240   26.6550   46.5020 C   0  0  0  0  0  0  0  0  0  0  0  0
   59.4860   28.0280   46.5150 C   0  0  0  0  0  0  0  0  0  0  0  0
   58.5330   28.9310   46.0070 C   0  0  0  0  0  0  0  0  0  0  0  0
   60.1805   33.2160   46.4293 H   0  0  0  0  0  0  0  0  0  0  0  0
   60.7039   30.6231   46.8744 H   0  0  0  0  0  0  0  0  0  0  0  0
   56.1177   26.6666   45.0733 H   0  0  0  0  0  0  0  0  0  0  0  0
   57.8231   25.0888   45.9793 H   0  0  0  0  0  0  0  0  0  0  0  0
   59.9703   25.9519   46.9004 H   0  0  0  0  0  0  0  0  0  0  0  0
   60.4367   28.4028   46.9221 H   0  0  0  0  0  0  0  0  0  0  0  0
  1  2  3  0
  2  3  1  0
  3  4  1  0
  4  5  2  0
  5  6  1  0
  6  7  1  0
  7  8  1  0
  8  9  1  0
  9 10  2  0
  9 11  1  0
 11 12  2  0
 12 13  1  0
 13 14  2  0
 14 15  1  0
 15 16  2  0
  7  3  2  0
 16 11  1  0
 16  6  1  0
  4 17  1  0
  5 18  1  0
 12 19  1  0
 13 20  1  0
 14 21  1  0
 15 22  1  0
M  CHG  1   8  -1
M  END
>  <UniqueID>  (49) 
42

>  <SMILES>  (49) 
N#Cc1ccn2c1[n-]c(=O)c1ccccc12

>  <Energy>  (49) 
62.78592116426541

>  <Genealogy>  (49) 
N#Cc1ccn2c1[n-]c(=O)c1ccccc12 (protonated)
N#Cc1ccn2c1[n-]c(=O)c1ccccc12 (3D coordinates assigned)
N#Cc1ccn2c1[n-]c(=O)c1ccccc12 (optimized conformer: 62.78592116426541 kcal/mol)

>  <smiles>  (49) 
N#Cc1ccn2c1[nH]c(=O)c1ccccc12

>  <score_type>  (49) 
oracle

>  <origin>  (49) 
adg

>  <m_score__min__energy>  (49) 
-7.4800000000000004

>  <m_primary>  (49) 
energy

$$$$
49:0
     RDKit          3D

 55 58  0  0  0  0  0  0  0  0999 V2000
   58.1510   32.6520   51.1990 C   0  0  0  0  0  0  0  0  0  0  0  0
   58.8350   31.5900   50.4720 C   0  0  0  0  0  0  0  0  0  0  0  0
   59.9460   31.8570   49.7410 C   0  0  0  0  0  0  0  0  0  0  0  0
   60.6280   33.1220   49.5030 C   0  0  0  0  0  0  0  0  0  0  0  0
   62.0760   33.1810   49.4670 C   0  0  0  0  0  0  0  0  0  0  0  0
   62.9150   33.0500   50.5690 C   0  0  0  0  0  0  0  0  0  0  0  0
   62.2440   33.0710   52.2170 Cl  0  0  0  0  0  0  0  0  0  0  0  0
   64.2810   33.0020   50.4990 C   0  0  0  0  0  0  0  0  0  0  0  0
   64.9150   33.0890   49.2770 C   0  0  0  0  0  0  0  0  0  0  0  0
   64.1350   33.2220   48.1700 C   0  0  0  0  0  0  0  0  0  0  0  0
   62.7340   33.2710   48.2420 C   0  0  0  0  0  0  0  0  0  0  0  0
   61.9100   33.4580   46.7230 Cl  0  0  0  0  0  0  0  0  0  0  0  0
   60.4900   30.7680   49.0830 N   0  0  0  0  0  0  0  0  0  0  0  0
   59.9670   29.5400   49.1570 C   0  0  0  0  0  0  0  0  0  0  0  0
   60.7370   28.1970   48.1900 S   0  0  0  0  0  0  0  0  0  0  0  0
   59.9910   28.2600   46.5010 C   0  0  0  0  0  0  0  0  0  0  0  0
   58.7610   27.4490   46.4720 C   0  0  0  0  0  0  0  0  0  0  0  0
   58.8580   26.1280   46.9030 C   0  0  0  0  0  0  0  0  0  0  0  0
   57.7650   25.2710   46.8590 C   0  0  0  0  0  0  0  0  0  0  0  0
   56.5360   25.7310   46.3770 C   0  0  0  0  0  0  0  0  0  0  0  0
   56.4250   27.0540   45.9430 C   0  0  0  0  0  0  0  0  0  0  0  0
   57.5420   27.8690   46.0050 C   0  0  0  0  0  0  0  0  0  0  0  0
   57.4740   29.2910   45.5940 C   0  0  0  0  0  0  0  0  0  0  0  0
   56.9000   29.6540   44.5520 O   0  0  0  0  0  0  0  0  0  0  0  0
   58.1050   30.2140   46.4650 N   0  0  0  0  0  0  0  0  0  0  0  0
   58.1880   31.6050   46.2950 C   0  0  0  0  0  0  0  0  0  0  0  0
   58.3420   32.0840   44.9910 C   0  0  0  0  0  0  0  0  0  0  0  0
   58.4240   33.4320   44.7240 C   0  0  0  0  0  0  0  0  0  0  0  0
   58.3580   34.3770   45.7390 C   0  0  0  0  0  0  0  0  0  0  0  0
   58.2090   33.9160   47.0130 C   0  0  0  0  0  0  0  0  0  0  0  0
   58.1260   32.5460   47.2820 C   0  0  0  0  0  0  0  0  0  0  0  0
   58.8530   29.2790   49.8970 N   0  0  0  0  0  0  0  0  0  0  0  0
   58.2630   30.3070   50.5710 C   0  0  0  0  0  0  0  0  0  0  0  0
   57.2380   30.0950   51.2580 O   0  0  0  0  0  0  0  0  0  0  0  0
   58.2590   32.4843   52.2808 H   0  0  0  0  0  0  0  0  0  0  0  0
   58.5940   33.6230   50.9325 H   0  0  0  0  0  0  0  0  0  0  0  0
   57.0838   32.6503   50.9325 H   0  0  0  0  0  0  0  0  0  0  0  0
   60.2730   33.4935   48.5304 H   0  0  0  0  0  0  0  0  0  0  0  0
   60.3783   33.7103   50.3983 H   0  0  0  0  0  0  0  0  0  0  0  0
   64.8744   32.8938   51.4189 H   0  0  0  0  0  0  0  0  0  0  0  0
   66.0117   33.0522   49.2002 H   0  0  0  0  0  0  0  0  0  0  0  0
   64.6190   33.2936   47.1848 H   0  0  0  0  0  0  0  0  0  0  0  0
   61.3340   30.8780   48.4820 H   0  0  0  0  0  0  0  0  0  0  0  0
   59.7480   29.3023   46.2470 H   0  0  0  0  0  0  0  0  0  0  0  0
   60.7090   27.8600   45.7699 H   0  0  0  0  0  0  0  0  0  0  0  0
   59.8195   25.7555   47.2861 H   0  0  0  0  0  0  0  0  0  0  0  0
   57.8668   24.2312   47.2032 H   0  0  0  0  0  0  0  0  0  0  0  0
   55.6662   25.0586   46.3399 H   0  0  0  0  0  0  0  0  0  0  0  0
   55.4691   27.4404   45.5597 H   0  0  0  0  0  0  0  0  0  0  0  0
   58.5500   29.7880   47.3310 H   0  0  0  0  0  0  0  0  0  0  0  0
   58.3990   31.3671   44.1586 H   0  0  0  0  0  0  0  0  0  0  0  0
   58.5445   33.7678   43.6835 H   0  0  0  0  0  0  0  0  0  0  0  0
   58.4233   35.4538   45.5238 H   0  0  0  0  0  0  0  0  0  0  0  0
   58.1530   34.6342   47.8443 H   0  0  0  0  0  0  0  0  0  0  0  0
   58.0067   32.2155   48.3244 H   0  0  0  0  0  0  0  0  0  0  0  0
  1  2  1  0
  2  3  2  0
  3  4  1  0
  4  5  1  0
  5  6  2  0
  6  7  1  0
  6  8  1  0
  8  9  2  0
  9 10  1  0
 10 11  2  0
 11 12  1  0
  3 13  1  0
 13 14  1  0
 14 15  1  0
 15 16  1  0
 16 17  1  0
 17 18  2  0
 18 19  1  0
 19 20  2  0
 20 21  1  0
 21 22  2  0
 22 23  1  0
 23 24  2  0
 23 25  1  0
 25 26  1  0
 26 27  2  0
 27 28  1  0
 28 29  2  0
 29 30  1  0
 30 31  2  0
 14 32  2  0
 32 33  1  0
 33 34  2  0
 33  2  1  0
 11  5  1  0
 22 17  1  0
 31 26  1  0
  1 35  1  0
  1 36  1  0
  1 37  1  0
  4 38  1  0
  4 39  1  0
  8 40  1  0
  9 41  1  0
 10 42  1  0
 13 43  1  0
 16 44  1  0
 16 45  1  0
 18 46  1  0
 19 47  1  0
 20 48  1  0
 21 49  1  0
 25 50  1  0
 27 51  1  0
 28 52  1  0
 29 53  1  0
 30 54  1  0
 31 55  1  0
M  END
>  <smiles>  (50) 
Cc1c(Cc2c(Cl)cccc2Cl)[nH]c(SCc2ccccc2C(=O)Nc2ccccc2)nc1=O

>  <score_type>  (50) 
oracle

>  <origin>  (50) 
adg

>  <m_score__min__energy>  (50) 
-10.380000000000001

>  <m_primary>  (50) 
energy

$$$$
50:0
     RDKit          3D

 57 59  0  0  0  0  0  0  0  0999 V2000
   56.7890   20.9310   45.1690 C   0  0  0  0  0  0  0  0  0  0  0  0
   56.4690   22.3260   44.1100 S   0  0  0  0  0  0  0  0  0  0  0  0
   56.2170   21.8580   42.7040 O   0  0  0  0  0  0  0  0  0  0  0  0
   55.2440   23.0380   44.6100 O   0  0  0  0  0  0  0  0  0  0  0  0
   57.8010   23.4340   44.1190 N   0  0  0  0  0  0  0  0  0  0  0  0
   57.8270   24.5520   45.0130 C   0  0  0  0  0  0  0  0  0  0  0  0
   58.8020   24.6130   46.0190 C   0  0  0  0  0  0  0  0  0  0  0  0
   58.8260   25.6870   46.9110 C   0  0  0  0  0  0  0  0  0  0  0  0
   57.8850   26.7130   46.7970 C   0  0  0  0  0  0  0  0  0  0  0  0
   56.9170   26.6720   45.7810 C   0  0  0  0  0  0  0  0  0  0  0  0
   55.9810   27.7440   45.6210 N   0  0  0  0  0  0  0  0  0  0  0  0
   56.2310   28.9080   44.8240 C   0  0  0  0  0  0  0  0  0  0  0  0
   55.8390   30.0310   45.2360 O   0  0  0  0  0  0  0  0  0  0  0  0
   57.0220   28.8190   43.5550 C   0  0  0  0  0  0  0  0  0  0  0  0
   58.3980   28.6830   43.8890 O   0  0  0  0  0  0  0  0  0  0  0  0
   59.0210   29.4160   44.9040 C   0  0  0  0  0  0  0  0  0  0  0  0
   59.7650   28.8350   45.7410 O   0  0  0  0  0  0  0  0  0  0  0  0
   58.7810   30.8720   44.9980 C   0  0  0  0  0  0  0  0  0  0  0  0
   58.0750   31.5400   43.9820 C   0  0  0  0  0  0  0  0  0  0  0  0
   57.8260   32.9120   44.0790 C   0  0  0  0  0  0  0  0  0  0  0  0
   58.2690   33.6290   45.1910 C   0  0  0  0  0  0  0  0  0  0  0  0
   58.9750   32.9780   46.2110 C   0  0  0  0  0  0  0  0  0  0  0  0
   59.4880   33.8500   47.6520 S   0  0  0  0  0  0  0  0  0  0  0  0
   58.7850   33.3080   48.8660 O   0  0  0  0  0  0  0  0  0  0  0  0
   59.1320   35.3010   47.4910 O   0  0  0  0  0  0  0  0  0  0  0  0
   61.2140   33.6760   47.8390 N   0  0  0  0  0  0  0  0  0  0  0  0
   61.8750   33.7710   46.5270 C   0  0  0  0  0  0  0  0  0  0  0  0
   63.4010   33.8580   46.7030 C   0  0  0  0  0  0  0  0  0  0  0  0
   63.8780   33.2170   48.0180 C   0  0  0  0  0  0  0  0  0  0  0  0
   63.0150   32.0080   48.3860 C   0  0  0  0  0  0  0  0  0  0  0  0
   61.5200   32.3850   48.4930 C   0  0  0  0  0  0  0  0  0  0  0  0
   59.2340   31.6040   46.1110 C   0  0  0  0  0  0  0  0  0  0  0  0
   56.9000   25.5980   44.8830 C   0  0  0  0  0  0  0  0  0  0  0  0
   56.7170   21.2450   46.2208 H   0  0  0  0  0  0  0  0  0  0  0  0
   56.0485   20.1423   44.9702 H   0  0  0  0  0  0  0  0  0  0  0  0
   57.7993   20.5439   44.9702 H   0  0  0  0  0  0  0  0  0  0  0  0
   58.7090   23.0780   43.7450 H   0  0  0  0  0  0  0  0  0  0  0  0
   59.5507   23.8118   46.1058 H   0  0  0  0  0  0  0  0  0  0  0  0
   59.5869   25.7252   47.7045 H   0  0  0  0  0  0  0  0  0  0  0  0
   57.9025   27.5549   47.5048 H   0  0  0  0  0  0  0  0  0  0  0  0
   56.6933   27.9451   42.9735 H   0  0  0  0  0  0  0  0  0  0  0  0
   56.8687   29.7256   42.9512 H   0  0  0  0  0  0  0  0  0  0  0  0
   57.7166   30.9797   43.1058 H   0  0  0  0  0  0  0  0  0  0  0  0
   57.2791   33.4281   43.2762 H   0  0  0  0  0  0  0  0  0  0  0  0
   58.0636   34.7070   45.2669 H   0  0  0  0  0  0  0  0  0  0  0  0
   61.6287   32.8798   45.9312 H   0  0  0  0  0  0  0  0  0  0  0  0
   61.5218   34.6772   46.0132 H   0  0  0  0  0  0  0  0  0  0  0  0
   63.8837   33.3390   45.8617 H   0  0  0  0  0  0  0  0  0  0  0  0
   63.6749   34.9230   46.7307 H   0  0  0  0  0  0  0  0  0  0  0  0
   64.9220   32.8909   47.9008 H   0  0  0  0  0  0  0  0  0  0  0  0
   63.7942   33.9637   48.8214 H   0  0  0  0  0  0  0  0  0  0  0  0
   63.1336   31.2362   47.6113 H   0  0  0  0  0  0  0  0  0  0  0  0
   63.3461   31.6358   49.3667 H   0  0  0  0  0  0  0  0  0  0  0  0
   60.9219   31.5960   48.0136 H   0  0  0  0  0  0  0  0  0  0  0  0
   61.2757   32.4847   49.5609 H   0  0  0  0  0  0  0  0  0  0  0  0
   59.7953   31.0945   46.9081 H   0  0  0  0  0  0  0  0  0  0  0  0
   56.1571   25.5738   44.0722 H   0  0  0  0  0  0  0  0  0  0  0  0
  1  2  1  0
  2  3  2  0
  2  4  2  0
  2  5  1  0
  5  6  1  0
  6  7  2  0
  7  8  1  0
  8  9  2  0
  9 10  1  0
 10 11  1  0
 11 12  1  0
 12 13  2  0
 12 14  1  0
 14 15  1  0
 15 16  1  0
 16 17  2  0
 16 18  1  0
 18 19  2  0
 19 20  1  0
 20 21  2  0
 21 22  1  0
 22 23  1  0
 23 24  2  0
 23 25  2  0
 23 26  1  0
 26 27  1  0
 27 28  1  0
 28 29  1  0
 29 30  1  0
 30 31  1  0
 22 32  2  0
 10 33  2  0
 33  6  1  0
 32 18  1  0
 31 26  1  0
  1 34  1  0
  1 35  1  0
  1 36  1  0
  5 37  1  0
  7 38  1  0
  8 39  1  0
  9 40  1  0
 14 41  1  0
 14 42  1  0
 19 43  1  0
 20 44  1  0
 21 45  1  0
 27 46  1  0
 27 47  1  0
 28 48  1  0
 28 49  1  0
 29 50  1  0
 29 51  1  0
 30 52  1  0
 30 53  1  0
 31 54  1  0
 31 55  1  0
 32 56  1  0
 33 57  1  0
M  CHG  1  11  -1
M  END
>  <UniqueID>  (51) 
43

>  <SMILES>  (51) 
CS(=O)(=O)Nc1cccc([N-]C(=O)COC(=O)c2cccc(S(=O)(=O)N3CCCCC3)c2)c1

>  <Energy>  (51) 
61.658271434984165

>  <Genealogy>  (51) 
CS(=O)(=O)Nc1cccc([N-]C(=O)COC(=O)c2cccc(S(=O)(=O)N3CCCCC3)c2)c1 (protonated)
CS(=O)(=O)Nc1cccc([N-]C(=O)COC(=O)c2cccc(S(=O)(=O)N3CCCCC3)c2)c1 (3D coordinates assigned)
CS(=O)(=O)Nc1cccc([N-]C(=O)COC(=O)c2cccc(S(=O)(=O)N3CCCCC3)c2)c1 (nonaromatic ring conformer: 61.658271434984165 kcal/mol)

>  <smiles>  (51) 
CS(=O)(=O)Nc1cccc(NC(=O)COC(=O)c2cccc(S(=O)(=O)N3CCCCC3)c2)c1

>  <score_type>  (51) 
oracle

>  <origin>  (51) 
adg

>  <m_score__min__energy>  (51) 
-11.51

>  <m_primary>  (51) 
energy

$$$$
51:0
     RDKit          3D

 52 54  0  0  0  0  0  0  0  0999 V2000
   58.9260   29.5800   51.4300 C   0  0  0  0  0  0  0  0  0  0  0  0
   60.3540   29.4420   50.9100 C   0  0  1  0  0  0  0  0  0  0  0  0
   60.4370   28.1650   49.6590 Cl  0  0  0  0  0  0  0  0  0  0  0  0
   60.8500   30.7540   50.3610 C   0  0  0  0  0  0  0  0  0  0  0  0
   60.2310   31.8230   50.6240 O   0  0  0  0  0  0  0  0  0  0  0  0
   62.0730   30.7970   49.6120 N   0  0  0  0  0  0  0  0  0  0  0  0
   62.3800   31.8260   48.6460 C   0  0  0  0  0  0  0  0  0  0  0  0
   63.5350   32.6210   48.7920 C   0  0  0  0  0  0  0  0  0  0  0  0
   63.8150   33.6460   47.8820 C   0  0  0  0  0  0  0  0  0  0  0  0
   62.9390   33.9030   46.8280 C   0  0  0  0  0  0  0  0  0  0  0  0
   61.7790   33.1390   46.6810 C   0  0  0  0  0  0  0  0  0  0  0  0
   61.4920   32.0980   47.5790 C   0  0  0  0  0  0  0  0  0  0  0  0
   59.9930   31.1220   47.3270 S   0  0  0  0  0  0  0  0  0  0  0  0
   60.7880   29.8590   46.2690 C   0  0  0  0  0  0  0  0  0  0  0  0
   59.9350   28.6270   46.1380 C   0  0  0  0  0  0  0  0  0  0  0  0
   60.5030   27.3520   46.2630 C   0  0  0  0  0  0  0  0  0  0  0  0
   59.7070   26.2110   46.1400 C   0  0  0  0  0  0  0  0  0  0  0  0
   58.3340   26.3320   45.9070 C   0  0  0  0  0  0  0  0  0  0  0  0
   57.7430   27.6010   45.8070 C   0  0  0  0  0  0  0  0  0  0  0  0
   56.2850   27.7400   45.6230 C   0  0  0  0  0  0  0  0  0  0  0  0
   55.5270   26.7760   45.9170 O   0  0  0  0  0  0  0  0  0  0  0  0
   55.7310   28.9610   45.1150 N   0  0  0  0  0  0  0  0  0  0  0  0
   55.9610   29.4520   43.7550 C   0  0  0  0  0  0  0  0  0  0  0  0
   56.7690   30.7260   43.7750 C   0  0  0  0  0  0  0  0  0  0  0  0
   57.0690   31.3570   44.9950 C   0  0  0  0  0  0  0  0  0  0  0  0
   57.8900   32.4890   45.0200 C   0  0  0  0  0  0  0  0  0  0  0  0
   58.4120   32.9990   43.8290 C   0  0  0  0  0  0  0  0  0  0  0  0
   59.2200   34.0850   43.8610 F   0  0  0  0  0  0  0  0  0  0  0  0
   58.1070   32.3840   42.6090 C   0  0  0  0  0  0  0  0  0  0  0  0
   57.2880   31.2510   42.5800 C   0  0  0  0  0  0  0  0  0  0  0  0
   58.5550   28.7450   45.9100 C   0  0  0  0  0  0  0  0  0  0  0  0
   58.9346   29.5792   52.5300 H   0  0  0  0  0  0  0  0  0  0  0  0
   58.4934   30.5241   51.0674 H   0  0  0  0  0  0  0  0  0  0  0  0
   58.3206   28.7362   51.0674 H   0  0  0  0  0  0  0  0  0  0  0  0
   61.0043   29.1542   51.7492 H   0  0  0  0  0  0  0  0  0  0  0  0
   62.7570   30.0190   49.7640 H   0  0  0  0  0  0  0  0  0  0  0  0
   64.2228   32.4335   49.6297 H   0  0  0  0  0  0  0  0  0  0  0  0
   64.7271   34.2498   47.9981 H   0  0  0  0  0  0  0  0  0  0  0  0
   63.1616   34.7078   46.1120 H   0  0  0  0  0  0  0  0  0  0  0  0
   61.0848   33.3544   45.8554 H   0  0  0  0  0  0  0  0  0  0  0  0
   60.9547   30.2853   45.2688 H   0  0  0  0  0  0  0  0  0  0  0  0
   61.7402   29.5690   46.7373 H   0  0  0  0  0  0  0  0  0  0  0  0
   61.5805   27.2494   46.4589 H   0  0  0  0  0  0  0  0  0  0  0  0
   60.1622   25.2134   46.2268 H   0  0  0  0  0  0  0  0  0  0  0  0
   57.7145   25.4292   45.8016 H   0  0  0  0  0  0  0  0  0  0  0  0
   56.5072   28.6874   43.1831 H   0  0  0  0  0  0  0  0  0  0  0  0
   54.9880   29.6588   43.2855 H   0  0  0  0  0  0  0  0  0  0  0  0
   56.6563   30.9588   45.9337 H   0  0  0  0  0  0  0  0  0  0  0  0
   58.1246   32.9775   45.9773 H   0  0  0  0  0  0  0  0  0  0  0  0
   58.5123   32.7927   41.6716 H   0  0  0  0  0  0  0  0  0  0  0  0
   57.0498   30.7701   41.6198 H   0  0  0  0  0  0  0  0  0  0  0  0
   58.1035   29.7432   45.8108 H   0  0  0  0  0  0  0  0  0  0  0  0
  1  2  1  0
  2  3  1  0
  2  4  1  0
  4  5  2  0
  4  6  1  0
  6  7  1  0
  7  8  2  0
  8  9  1  0
  9 10  2  0
 10 11  1  0
 11 12  2  0
 12 13  1  0
 13 14  1  0
 14 15  1  0
 15 16  2  0
 16 17  1  0
 17 18  2  0
 18 19  1  0
 19 20  1  0
 20 21  2  0
 20 22  1  0
 22 23  1  0
 23 24  1  0
 24 25  2  0
 25 26  1  0
 26 27  2  0
 27 28  1  0
 27 29  1  0
 29 30  2  0
 19 31  2  0
 12  7  1  0
 31 15  1  0
 30 24  1  0
  1 32  1  0
  1 33  1  0
  1 34  1  0
  2 35  1  1
  6 36  1  0
  8 37  1  0
  9 38  1  0
 10 39  1  0
 11 40  1  0
 14 41  1  0
 14 42  1  0
 16 43  1  0
 17 44  1  0
 18 45  1  0
 23 46  1  0
 23 47  1  0
 25 48  1  0
 26 49  1  0
 29 50  1  0
 30 51  1  0
 31 52  1  0
M  CHG  1  22  -1
M  END
>  <UniqueID>  (52) 
44

>  <SMILES>  (52) 
C[C@@H](Cl)C(=O)Nc1ccccc1SCc1cccc(C(=O)[N-]Cc2ccc(F)cc2)c1

>  <Energy>  (52) 
46.30426058022538

>  <Genealogy>  (52) 
CC(Cl)C(=O)Nc1ccccc1SCc1cccc(C(=O)[N-]Cc2ccc(F)cc2)c1 (protonated)
C[C@@H](Cl)C(=O)Nc1ccccc1SCc1cccc(C(=O)[N-]Cc2ccc(F)cc2)c1 (chirality)
C[C@@H](Cl)C(=O)Nc1ccccc1SCc1cccc(C(=O)[N-]Cc2ccc(F)cc2)c1 (3D coordinates assigned)
C[C@@H](Cl)C(=O)Nc1ccccc1SCc1cccc(C(=O)[N-]Cc2ccc(F)cc2)c1 (optimized conformer: 46.30426058022538 kcal/mol)

>  <smiles>  (52) 
CC(Cl)C(=O)Nc1ccccc1SCc1cccc(C(=O)NCc2ccc(F)cc2)c1

>  <score_type>  (52) 
oracle

>  <origin>  (52) 
adg

>  <m_score__min__energy>  (52) 
-11.57

>  <m_primary>  (52) 
energy

$$$$
52:0
     RDKit          3D

 37 40  0  0  0  0  0  0  0  0999 V2000
   53.5220   23.8670   45.5680 C   0  0  0  0  0  0  0  0  0  0  0  0
   54.8640   24.3640   45.9980 C   0  0  0  0  0  0  0  0  0  0  0  0
   55.2140   25.6700   45.8040 N   0  0  0  0  0  0  0  0  0  0  0  0
   56.4440   26.1670   46.1560 C   0  0  0  0  0  0  0  0  0  0  0  0
   56.7770   27.5170   45.9140 C   0  0  0  0  0  0  0  0  0  0  0  0
   55.8940   28.4170   45.2250 N   0  0  0  0  0  0  0  0  0  0  0  0
   56.1780   29.7690   44.8380 C   0  0  0  0  0  0  0  0  0  0  0  0
   55.2270   30.5110   44.4780 O   0  0  0  0  0  0  0  0  0  0  0  0
   57.5100   30.3020   44.8370 N   0  0  0  0  0  0  0  0  0  0  0  0
   57.9070   31.5750   45.3660 C   0  0  0  0  0  0  0  0  0  0  0  0
   57.7430   32.7190   44.5760 C   0  0  0  0  0  0  0  0  0  0  0  0
   58.1490   33.9690   45.0520 C   0  0  0  0  0  0  0  0  0  0  0  0
   58.7050   34.0870   46.3310 C   0  0  0  0  0  0  0  0  0  0  0  0
   59.1120   35.3370   46.7910 O   0  0  0  0  0  0  0  0  0  0  0  0
   58.8430   32.9480   47.1360 C   0  0  0  0  0  0  0  0  0  0  0  0
   58.4380   31.6980   46.6600 C   0  0  0  0  0  0  0  0  0  0  0  0
   58.0110   28.0110   46.3610 C   0  0  0  0  0  0  0  0  0  0  0  0
   58.9370   27.1670   46.9800 C   0  0  0  0  0  0  0  0  0  0  0  0
   58.6410   25.8180   47.1800 C   0  0  0  0  0  0  0  0  0  0  0  0
   57.3970   25.3140   46.7780 C   0  0  0  0  0  0  0  0  0  0  0  0
   57.0300   23.9810   46.9650 C   0  0  0  0  0  0  0  0  0  0  0  0
   57.7500   22.9830   47.5080 N   0  0  0  0  0  0  0  0  0  0  0  0
   56.9950   21.8880   47.4740 N   0  0  0  0  0  0  0  0  0  0  0  0
   55.7990   22.1860   46.9140 C   0  0  0  0  0  0  0  0  0  0  0  0
   55.8070   23.5220   46.5830 C   0  0  0  0  0  0  0  0  0  0  0  0
   52.9128   23.6414   46.4557 H   0  0  0  0  0  0  0  0  0  0  0  0
   53.0207   24.6391   44.9659 H   0  0  0  0  0  0  0  0  0  0  0  0
   53.6445   22.9546   44.9659 H   0  0  0  0  0  0  0  0  0  0  0  0
   57.2926   32.6339   43.5761 H   0  0  0  0  0  0  0  0  0  0  0  0
   58.0313   34.8617   44.4201 H   0  0  0  0  0  0  0  0  0  0  0  0
   58.8580   35.6690   47.7140 H   0  0  0  0  0  0  0  0  0  0  0  0
   59.2712   33.0382   48.1452 H   0  0  0  0  0  0  0  0  0  0  0  0
   58.5354   30.8088   47.3003 H   0  0  0  0  0  0  0  0  0  0  0  0
   58.2529   29.0751   46.2228 H   0  0  0  0  0  0  0  0  0  0  0  0
   59.9058   27.5687   47.3118 H   0  0  0  0  0  0  0  0  0  0  0  0
   59.3806   25.1537   47.6509 H   0  0  0  0  0  0  0  0  0  0  0  0
   54.9675   21.4842   46.7521 H   0  0  0  0  0  0  0  0  0  0  0  0
  1  2  1  0
  2  3  2  0
  3  4  1  0
  4  5  2  0
  5  6  1  0
  6  7  1  0
  7  8  2  0
  7  9  1  0
  9 10  1  0
 10 11  2  0
 11 12  1  0
 12 13  2  0
 13 14  1  0
 13 15  1  0
 15 16  2  0
  5 17  1  0
 17 18  2  0
 18 19  1  0
 19 20  2  0
 20 21  1  0
 21 22  1  0
 22 23  1  0
 23 24  2  0
 24 25  1  0
 25  2  1  0
 20  4  1  0
 25 21  2  0
 16 10  1  0
  1 26  1  0
  1 27  1  0
  1 28  1  0
 11 29  1  0
 12 30  1  0
 14 31  1  0
 15 32  1  0
 16 33  1  0
 17 34  1  0
 18 35  1  0
 19 36  1  0
 24 37  1  0
M  CHG  3   6  -1   9  -1  22  -1
M  END
>  <UniqueID>  (53) 
45

>  <SMILES>  (53) 
Cc1nc2c([N-]C(=O)[N-]c3ccc(O)cc3)cccc2c2[n-]ncc12

>  <Energy>  (53) 
89.58208063231822

>  <Genealogy>  (53) 
Cc1nc2c([N-]C(=O)[N-]c3ccc(O)cc3)cccc2c2[n-]ncc12 (protonated)
Cc1nc2c([N-]C(=O)[N-]c3ccc(O)cc3)cccc2c2[n-]ncc12 (3D coordinates assigned)
Cc1nc2c([N-]C(=O)[N-]c3ccc(O)cc3)cccc2c2[n-]ncc12 (optimized conformer: 89.58208063231822 kcal/mol)

>  <smiles>  (53) 
Cc1nc2c(NC(=O)Nc3ccc(O)cc3)cccc2c2[nH]ncc12

>  <score_type>  (53) 
oracle

>  <origin>  (53) 
adg

>  <m_score__min__energy>  (53) 
-13.33

>  <m_primary>  (53) 
energy

$$$$
53:0
     RDKit          3D

 45 47  0  0  0  0  0  0  0  0999 V2000
   56.2720   29.7430   42.6170 C   0  0  0  0  0  0  0  0  0  0  0  0
   56.6440   29.8600   44.3480 S   0  0  0  0  0  0  0  0  0  0  0  0
   55.7130   28.9750   45.1420 O   0  0  0  0  0  0  0  0  0  0  0  0
   56.3830   31.2690   44.8110 O   0  0  0  0  0  0  0  0  0  0  0  0
   58.2900   29.4730   44.6800 N   0  0  0  0  0  0  0  0  0  0  0  0
   58.8080   29.2620   45.9810 C   0  0  0  0  0  0  0  0  0  0  0  0
   58.8970   28.0330   46.5940 C   0  0  0  0  0  0  0  0  0  0  0  0
   59.4070   27.8480   47.8630 C   0  0  0  0  0  0  0  0  0  0  0  0
   59.8490   28.9660   48.5460 C   0  0  0  0  0  0  0  0  0  0  0  0
   59.7840   30.2290   47.9800 C   0  0  0  0  0  0  0  0  0  0  0  0
   60.2510   31.3560   48.7190 N   0  0  0  0  0  0  0  0  0  0  0  0
   61.5400   31.4330   49.3430 C   0  0  0  0  0  0  0  0  0  0  0  0
   62.5190   32.1810   48.5060 C   0  0  0  0  0  0  0  0  0  0  0  0
   63.3910   31.6900   47.5620 C   0  0  0  0  0  0  0  0  0  0  0  0
   64.0950   32.7340   47.0480 N   0  0  0  0  0  0  0  0  0  0  0  0
   63.6600   33.8670   47.6700 C   0  0  0  0  0  0  0  0  0  0  0  0
   62.7200   33.5180   48.5350 N   0  0  0  0  0  0  0  0  0  0  0  0
   59.2010   32.7420   48.8880 S   0  0  0  0  0  0  0  0  0  0  0  0
   59.8940   33.7380   49.7970 O   0  0  0  0  0  0  0  0  0  0  0  0
   57.8600   32.3340   49.4510 O   0  0  0  0  0  0  0  0  0  0  0  0
   58.8970   33.4850   47.3330 C   0  0  0  0  0  0  0  0  0  0  0  0
   59.8640   34.1930   46.6640 C   0  0  0  0  0  0  0  0  0  0  0  0
   59.5910   34.7670   45.4370 C   0  0  0  0  0  0  0  0  0  0  0  0
   58.3340   34.6270   44.8760 C   0  0  0  0  0  0  0  0  0  0  0  0
   57.3730   33.9090   45.5660 C   0  0  0  0  0  0  0  0  0  0  0  0
   57.6420   33.3370   46.7880 C   0  0  0  0  0  0  0  0  0  0  0  0
   59.2650   30.3610   46.7070 C   0  0  0  0  0  0  0  0  0  0  0  0
   55.2300   29.4153   42.4872 H   0  0  0  0  0  0  0  0  0  0  0  0
   56.4082   30.7274   42.1453 H   0  0  0  0  0  0  0  0  0  0  0  0
   56.9472   29.0138   42.1453 H   0  0  0  0  0  0  0  0  0  0  0  0
   58.9970   29.3770   43.8900 H   0  0  0  0  0  0  0  0  0  0  0  0
   58.5423   27.1499   46.0424 H   0  0  0  0  0  0  0  0  0  0  0  0
   59.4600   26.8466   48.3151 H   0  0  0  0  0  0  0  0  0  0  0  0
   60.2607   28.8504   49.5595 H   0  0  0  0  0  0  0  0  0  0  0  0
   61.4362   31.9444   50.3113 H   0  0  0  0  0  0  0  0  0  0  0  0
   61.9169   30.4079   49.4740 H   0  0  0  0  0  0  0  0  0  0  0  0
   63.5001   30.6344   47.2726 H   0  0  0  0  0  0  0  0  0  0  0  0
   64.8380   32.6610   46.3030 H   0  0  0  0  0  0  0  0  0  0  0  0
   64.0248   34.8883   47.4860 H   0  0  0  0  0  0  0  0  0  0  0  0
   60.8642   34.3044   47.1081 H   0  0  0  0  0  0  0  0  0  0  0  0
   60.3711   35.3338   44.9076 H   0  0  0  0  0  0  0  0  0  0  0  0
   58.1028   35.0780   43.8997 H   0  0  0  0  0  0  0  0  0  0  0  0
   56.3710   33.7929   45.1273 H   0  0  0  0  0  0  0  0  0  0  0  0
   56.8653   32.7696   47.3216 H   0  0  0  0  0  0  0  0  0  0  0  0
   59.2107   31.3615   46.2531 H   0  0  0  0  0  0  0  0  0  0  0  0
  1  2  1  0
  2  3  2  0
  2  4  2  0
  2  5  1  0
  5  6  1  0
  6  7  2  0
  7  8  1  0
  8  9  2  0
  9 10  1  0
 10 11  1  0
 11 12  1  0
 12 13  1  0
 13 14  2  0
 14 15  1  0
 15 16  1  0
 16 17  2  0
 11 18  1  0
 18 19  2  0
 18 20  2  0
 18 21  1  0
 21 22  2  0
 22 23  1  0
 23 24  2  0
 24 25  1  0
 25 26  2  0
 10 27  2  0
 27  6  1  0
 17 13  1  0
 26 21  1  0
  1 28  1  0
  1 29  1  0
  1 30  1  0
  5 31  1  0
  7 32  1  0
  8 33  1  0
  9 34  1  0
 12 35  1  0
 12 36  1  0
 14 37  1  0
 15 38  1  0
 16 39  1  0
 22 40  1  0
 23 41  1  0
 24 42  1  0
 25 43  1  0
 26 44  1  0
 27 45  1  0
M  END
>  <smiles>  (54) 
CS(=O)(=O)Nc1cccc(N(Cc2c[nH]cn2)S(=O)(=O)c2ccccc2)c1

>  <score_type>  (54) 
oracle

>  <origin>  (54) 
adg

>  <m_score__min__energy>  (54) 
-9.6999999999999993

>  <m_primary>  (54) 
energy

$$$$
54:0
     RDKit          3D

 56 58  0  0  0  0  0  0  0  0999 V2000
   65.5050   36.2560   52.7020 C   0  0  0  0  0  0  0  0  0  0  0  0
   64.7510   35.0490   52.6950 O   0  0  0  0  0  0  0  0  0  0  0  0
   64.4630   34.2990   51.5440 C   0  0  0  0  0  0  0  0  0  0  0  0
   63.1670   34.2350   50.9990 C   0  0  0  0  0  0  0  0  0  0  0  0
   62.9190   33.4910   49.8440 C   0  0  0  0  0  0  0  0  0  0  0  0
   63.9570   32.7860   49.2210 C   0  0  0  0  0  0  0  0  0  0  0  0
   63.6960   32.0000   47.9590 C   0  0  0  0  0  0  0  0  0  0  0  0
   62.3770   32.4030   47.3420 C   0  0  0  0  0  0  0  0  0  0  0  0
   61.2390   31.6100   47.5450 C   0  0  0  0  0  0  0  0  0  0  0  0
   60.0380   31.9980   47.0430 N   0  0  0  0  0  0  0  0  0  0  0  0
   59.9170   33.1460   46.3290 C   0  0  0  0  0  0  0  0  0  0  0  0
   58.3120   33.6550   45.7200 S   0  0  0  0  0  0  0  0  0  0  0  0
   58.1960   32.3200   44.4770 C   0  0  0  0  0  0  0  0  0  0  0  0
   57.4040   31.1670   45.0040 C   0  0  0  0  0  0  0  0  0  0  0  0
   56.3210   30.8470   44.4410 O   0  0  0  0  0  0  0  0  0  0  0  0
   57.8430   30.4950   46.1910 N   0  0  0  0  0  0  0  0  0  0  0  0
   58.2330   29.1180   46.3040 C   0  0  0  0  0  0  0  0  0  0  0  0
   59.5550   28.7390   46.5940 C   0  0  0  0  0  0  0  0  0  0  0  0
   59.8870   27.3880   46.7180 C   0  0  0  0  0  0  0  0  0  0  0  0
   58.9000   26.3920   46.5670 C   0  0  0  0  0  0  0  0  0  0  0  0
   59.2050   25.0270   46.6930 O   0  0  0  0  0  0  0  0  0  0  0  0
   59.2020   24.0930   45.6200 C   0  0  0  0  0  0  0  0  0  0  0  0
   57.5720   26.7720   46.2920 C   0  0  0  0  0  0  0  0  0  0  0  0
   56.3100   25.5500   46.1060 S   0  0  0  0  0  0  0  0  0  0  0  0
   54.7670   26.3220   45.9820 N   0  0  0  0  0  0  0  0  0  0  0  0
   56.5490   24.7390   44.8650 O   0  0  0  0  0  0  0  0  0  0  0  0
   56.3220   24.6260   47.2920 O   0  0  0  0  0  0  0  0  0  0  0  0
   57.2460   28.1310   46.1740 C   0  0  0  0  0  0  0  0  0  0  0  0
   61.0080   33.9230   46.1010 N   0  0  0  0  0  0  0  0  0  0  0  0
   62.2280   33.5810   46.5890 C   0  0  0  0  0  0  0  0  0  0  0  0
   63.2120   34.3330   46.3650 O   0  0  0  0  0  0  0  0  0  0  0  0
   65.2490   32.8330   49.7720 C   0  0  0  0  0  0  0  0  0  0  0  0
   65.5100   33.5990   50.9250 C   0  0  0  0  0  0  0  0  0  0  0  0
   66.7970   33.6960   51.4790 O   0  0  0  0  0  0  0  0  0  0  0  0
   67.9680   33.1110   50.9160 C   0  0  0  0  0  0  0  0  0  0  0  0
   65.6966   36.5626   53.7409 H   0  0  0  0  0  0  0  0  0  0  0  0
   66.4623   36.0933   52.1853 H   0  0  0  0  0  0  0  0  0  0  0  0
   64.9389   37.0450   52.1853 H   0  0  0  0  0  0  0  0  0  0  0  0
   62.3427   34.7756   51.4871 H   0  0  0  0  0  0  0  0  0  0  0  0
   61.9040   33.4582   49.4212 H   0  0  0  0  0  0  0  0  0  0  0  0
   64.5053   32.1932   47.2394 H   0  0  0  0  0  0  0  0  0  0  0  0
   63.6564   30.9299   48.2107 H   0  0  0  0  0  0  0  0  0  0  0  0
   61.3189   30.6710   48.1124 H   0  0  0  0  0  0  0  0  0  0  0  0
   57.7052   32.7109   43.5735 H   0  0  0  0  0  0  0  0  0  0  0  0
   59.2119   31.9699   44.2418 H   0  0  0  0  0  0  0  0  0  0  0  0
   60.3303   29.5085   46.7237 H   0  0  0  0  0  0  0  0  0  0  0  0
   60.9259   27.0987   46.9350 H   0  0  0  0  0  0  0  0  0  0  0  0
   59.1987   23.0700   46.0244 H   0  0  0  0  0  0  0  0  0  0  0  0
   58.3043   24.2463   45.0030 H   0  0  0  0  0  0  0  0  0  0  0  0
   60.1006   24.2405   45.0030 H   0  0  0  0  0  0  0  0  0  0  0  0
   54.7460   27.0850   46.6940 H   0  0  0  0  0  0  0  0  0  0  0  0
   56.2046   28.4256   45.9773 H   0  0  0  0  0  0  0  0  0  0  0  0
   66.0642   32.2663   49.2984 H   0  0  0  0  0  0  0  0  0  0  0  0
   68.6359   32.7773   51.7238 H   0  0  0  0  0  0  0  0  0  0  0  0
   67.6847   32.2486   50.2948 H   0  0  0  0  0  0  0  0  0  0  0  0
   68.4874   33.8555   50.2948 H   0  0  0  0  0  0  0  0  0  0  0  0
  1  2  1  0
  2  3  1  0
  3  4  2  0
  4  5  1  0
  5  6  2  0
  6  7  1  0
  7  8  1  0
  8  9  2  0
  9 10  1  0
 10 11  2  0
 11 12  1  0
 12 13  1  0
 13 14  1  0
 14 15  2  0
 14 16  1  0
 16 17  1  0
 17 18  2  0
 18 19  1  0
 19 20  2  0
 20 21  1  0
 21 22  1  0
 20 23  1  0
 23 24  1  0
 24 25  1  0
 24 26  2  0
 24 27  2  0
 23 28  2  0
 11 29  1  0
 29 30  1  0
 30 31  2  0
  6 32  1  0
 32 33  2  0
 33 34  1  0
 34 35  1  0
 33  3  1  0
 30  8  1  0
 28 17  1  0
  1 36  1  0
  1 37  1  0
  1 38  1  0
  4 39  1  0
  5 40  1  0
  7 41  1  0
  7 42  1  0
  9 43  1  0
 13 44  1  0
 13 45  1  0
 18 46  1  0
 19 47  1  0
 22 48  1  0
 22 49  1  0
 22 50  1  0
 25 51  1  0
 28 52  1  0
 32 53  1  0
 35 54  1  0
 35 55  1  0
 35 56  1  0
M  CHG  3  16  -1  25  -1  29  -1
M  END
>  <UniqueID>  (55) 
46

>  <SMILES>  (55) 
COc1ccc(Cc2cnc(SCC(=O)[N-]c3ccc(OC)c(S([NH-])(=O)=O)c3)[n-]c2=O)cc1OC

>  <Energy>  (55) 
56.69869692303652

>  <Genealogy>  (55) 
COc1ccc(Cc2cnc(SCC(=O)[N-]c3ccc(OC)c(S([NH-])(=O)=O)c3)[n-]c2=O)cc1OC (protonated)
COc1ccc(Cc2cnc(SCC(=O)[N-]c3ccc(OC)c(S([NH-])(=O)=O)c3)[n-]c2=O)cc1OC (3D coordinates assigned)
COc1ccc(Cc2cnc(SCC(=O)[N-]c3ccc(OC)c(S([NH-])(=O)=O)c3)[n-]c2=O)cc1OC (optimized conformer: 56.69869692303652 kcal/mol)

>  <smiles>  (55) 
COc1ccc(Cc2cnc(SCC(=O)Nc3ccc(OC)c(S(N)(=O)=O)c3)[nH]c2=O)cc1OC

>  <score_type>  (55) 
oracle

>  <origin>  (55) 
adg

>  <m_score__min__energy>  (55) 
-14.27

>  <m_primary>  (55) 
energy

$$$$
55:0
     RDKit          3D

 46 49  0  0  0  0  0  0  0  0999 V2000
   60.1489   33.2789   50.7454 H   0  0  0  0  0  0  0  0  0  0  0  0
   59.7900   33.5160   49.7330 C   0  0  0  0  0  0  0  0  0  0  0  0
   60.3560   34.5790   49.0200 C   0  0  0  0  0  0  0  0  0  0  0  0
   61.1672   35.1711   49.4687 H   0  0  0  0  0  0  0  0  0  0  0  0
   59.8910   34.8900   47.7360 C   0  0  0  0  0  0  0  0  0  0  0  0
   60.3519   35.7129   47.1699 H   0  0  0  0  0  0  0  0  0  0  0  0
   58.8350   34.1520   47.1680 C   0  0  0  0  0  0  0  0  0  0  0  0
   58.3580   34.3970   45.8360 N   0  0  0  0  0  0  0  0  0  0  0  0
   58.0630   33.5180   44.9230 C   0  0  0  0  0  0  0  0  0  0  0  0
   58.7600   33.4270   43.7710 N   0  0  0  0  0  0  0  0  0  0  0  0
   58.3420   32.4400   42.9800 N   0  0  0  0  0  0  0  0  0  0  0  0
   57.3150   31.7370   43.5040 C   0  0  0  0  0  0  0  0  0  0  0  0
   56.5430   30.3520   42.6780 S   0  0  0  0  0  0  0  0  0  0  0  0
   55.8200   29.6850   44.2140 C   0  0  0  0  0  0  0  0  0  0  0  0
   55.0885   28.9020   43.9652 H   0  0  0  0  0  0  0  0  0  0  0  0
   55.3178   30.4941   44.7646 H   0  0  0  0  0  0  0  0  0  0  0  0
   56.9110   29.0990   45.0680 C   0  0  0  0  0  0  0  0  0  0  0  0
   58.1500   29.7530   45.1710 C   0  0  0  0  0  0  0  0  0  0  0  0
   58.3175   30.6942   44.6268 H   0  0  0  0  0  0  0  0  0  0  0  0
   59.1780   29.2130   45.9650 C   0  0  0  0  0  0  0  0  0  0  0  0
   60.4800   29.9140   46.0890 C   0  0  0  0  0  0  0  0  0  0  0  0
   61.5230   29.3870   45.6170 O   0  0  0  0  0  0  0  0  0  0  0  0
   60.5510   31.2130   46.7010 N   0  0  0  0  0  0  0  0  0  0  0  0
   59.7050   31.8260   46.6460 H   0  0  0  0  0  0  0  0  0  0  0  0
   61.7430   31.7540   47.2920 C   0  0  0  0  0  0  0  0  0  0  0  0
   62.3310   32.8980   46.7310 C   0  0  0  0  0  0  0  0  0  0  0  0
   61.9016   33.3433   45.8214 H   0  0  0  0  0  0  0  0  0  0  0  0
   63.4590   33.4750   47.3210 C   0  0  0  0  0  0  0  0  0  0  0  0
   63.9213   34.3641   46.8674 H   0  0  0  0  0  0  0  0  0  0  0  0
   64.0010   32.9250   48.4860 C   0  0  0  0  0  0  0  0  0  0  0  0
   64.8848   33.3844   48.9527 H   0  0  0  0  0  0  0  0  0  0  0  0
   63.4180   31.7900   49.0570 C   0  0  0  0  0  0  0  0  0  0  0  0
   63.8463   31.3541   49.9716 H   0  0  0  0  0  0  0  0  0  0  0  0
   62.2920   31.2080   48.4680 C   0  0  0  0  0  0  0  0  0  0  0  0
   61.8326   30.3193   48.9253 H   0  0  0  0  0  0  0  0  0  0  0  0
   58.9610   27.9910   46.6260 C   0  0  0  0  0  0  0  0  0  0  0  0
   59.7617   27.5540   47.2407 H   0  0  0  0  0  0  0  0  0  0  0  0
   57.7390   27.3280   46.5090 C   0  0  0  0  0  0  0  0  0  0  0  0
   57.5811   26.3735   47.0324 H   0  0  0  0  0  0  0  0  0  0  0  0
   56.7170   27.8710   45.7310 C   0  0  0  0  0  0  0  0  0  0  0  0
   55.5140   27.1840   45.6140 O   0  0  0  0  0  0  0  0  0  0  0  0
   56.8710   32.3210   45.0220 S   0  0  0  0  0  0  0  0  0  0  0  0
   58.2990   33.0680   47.8770 C   0  0  0  0  0  0  0  0  0  0  0  0
   57.5037   32.4584   47.4232 H   0  0  0  0  0  0  0  0  0  0  0  0
   58.7680   32.7560   49.1570 C   0  0  0  0  0  0  0  0  0  0  0  0
   58.3322   31.9116   49.7111 H   0  0  0  0  0  0  0  0  0  0  0  0
  1  2  1  0
  2  3  2  0
  3  4  1  0
  3  5  1  0
  5  6  1  0
  5  7  2  0
  7  8  1  0
  8  9  2  0
  9 10  1  0
 10 11  1  0
 11 12  2  0
 12 13  1  0
 13 14  1  0
 14 15  1  0
 14 16  1  0
 14 17  1  0
 17 18  2  0
 18 19  1  0
 18 20  1  0
 20 21  1  0
 21 22  2  0
 21 23  1  0
 23 24  1  0
 23 25  1  0
 25 26  2  0
 26 27  1  0
 26 28  1  0
 28 29  1  0
 28 30  2  0
 30 31  1  0
 30 32  1  0
 32 33  1  0
 32 34  2  0
 34 35  1  0
 20 36  2  0
 36 37  1  0
 36 38  1  0
 38 39  1  0
 38 40  2  0
 40 41  1  0
 12 42  1  0
  7 43  1  0
 43 44  1  0
 43 45  2  0
 45 46  1  0
 45  2  1  0
 42  9  1  0
 40 17  1  0
 34 25  1  0
M  CHG  2  10  -1  41  -1
M  END
>  <UniqueID>  (56) 
47

>  <SMILES>  (56) 
O=C(Nc1ccccc1)c1ccc([O-])c(CSc2n[n-]/c(=N/c3ccccc3)s2)c1

>  <Energy>  (56) 
95.07385363360449

>  <Genealogy>  (56) 
O=C(Nc1ccccc1)c1ccc([O-])c(CSc2n[n-]c(=Nc3ccccc3)s2)c1 (protonated)
O=C(Nc1ccccc1)c1ccc([O-])c(CSc2n[n-]/c(=N/c3ccccc3)s2)c1 (cis-trans isomerization)
O=C(Nc1ccccc1)c1ccc([O-])c(CSc2n[n-]/c(=N/c3ccccc3)s2)c1 (3D coordinates assigned)
O=C(Nc1ccccc1)c1ccc([O-])c(CSc2n[n-]/c(=N/c3ccccc3)s2)c1 (optimized conformer: 95.07385363360449 kcal/mol)

>  <smiles>  (56) 
O=C(Nc1ccccc1)c1ccc(O)c(CSc2n[nH]c(=Nc3ccccc3)s2)c1

>  <score_type>  (56) 
oracle

>  <origin>  (56) 
adg

>  <m_score__min__energy>  (56) 
-12.640000000000001

>  <m_primary>  (56) 
energy

$$$$
56:0
     RDKit          3D

 43 45  0  0  0  0  0  0  0  0999 V2000
   59.2740   25.5180   45.2650 O   0  0  0  0  0  0  0  0  0  0  0  0
   58.0390   25.4690   45.0190 C   0  0  0  0  0  0  0  0  0  0  0  0
   57.2510   26.6720   45.0820 N   0  0  0  0  0  0  0  0  0  0  0  0
   57.6600   27.8490   45.7990 C   0  0  0  0  0  0  0  0  0  0  0  0
   58.3040   27.7140   47.0370 C   0  0  0  0  0  0  0  0  0  0  0  0
   58.7290   28.8420   47.7430 C   0  0  0  0  0  0  0  0  0  0  0  0
   58.5170   30.1290   47.2190 C   0  0  0  0  0  0  0  0  0  0  0  0
   58.9710   31.3030   47.9150 N   0  0  0  0  0  0  0  0  0  0  0  0
   59.2100   32.5760   47.2910 C   0  0  0  0  0  0  0  0  0  0  0  0
   58.1470   33.3740   46.8270 C   0  0  0  0  0  0  0  0  0  0  0  0
   58.4040   34.5960   46.1980 C   0  0  0  0  0  0  0  0  0  0  0  0
   59.7210   35.0250   46.0140 C   0  0  0  0  0  0  0  0  0  0  0  0
   60.7830   34.2280   46.4510 C   0  0  0  0  0  0  0  0  0  0  0  0
   60.5290   33.0060   47.0800 C   0  0  0  0  0  0  0  0  0  0  0  0
   57.9140   30.2630   45.9610 C   0  0  0  0  0  0  0  0  0  0  0  0
   57.4870   29.1340   45.2560 C   0  0  0  0  0  0  0  0  0  0  0  0
   57.4470   24.1380   44.5980 C   0  0  1  0  0  0  0  0  0  0  0  0
   57.9270   22.9050   45.3590 C   0  0  0  0  0  0  0  0  0  0  0  0
   56.8130   21.8920   45.1560 C   0  0  0  0  0  0  0  0  0  0  0  0
   55.6660   22.6570   44.4920 C   0  0  0  0  0  0  0  0  0  0  0  0
   55.9730   24.0940   44.5610 N   0  0  0  0  0  0  0  0  0  0  0  0
   55.1980   24.7830   45.9770 S   0  0  0  0  0  0  0  0  0  0  0  0
   56.1730   24.8680   47.1180 O   0  0  0  0  0  0  0  0  0  0  0  0
   54.0100   23.9600   46.3920 O   0  0  0  0  0  0  0  0  0  0  0  0
   54.6770   26.3400   45.6180 O   0  0  0  0  0  0  0  0  0  0  0  0
   56.4010   26.7490   44.4830 H   0  0  0  0  0  0  0  0  0  0  0  0
   58.4760   26.7115   47.4559 H   0  0  0  0  0  0  0  0  0  0  0  0
   59.2321   28.7225   48.7139 H   0  0  0  0  0  0  0  0  0  0  0  0
   59.1410   31.2250   48.9440 H   0  0  0  0  0  0  0  0  0  0  0  0
   57.1092   33.0345   46.9600 H   0  0  0  0  0  0  0  0  0  0  0  0
   57.5687   35.2202   45.8477 H   0  0  0  0  0  0  0  0  0  0  0  0
   59.9221   35.9898   45.5253 H   0  0  0  0  0  0  0  0  0  0  0  0
   61.8198   34.5630   46.2997 H   0  0  0  0  0  0  0  0  0  0  0  0
   61.3684   32.3773   47.4118 H   0  0  0  0  0  0  0  0  0  0  0  0
   57.7758   31.2636   45.5254 H   0  0  0  0  0  0  0  0  0  0  0  0
   57.0128   29.2518   44.2705 H   0  0  0  0  0  0  0  0  0  0  0  0
   57.8479   24.0833   43.5751 H   0  0  0  0  0  0  0  0  0  0  0  0
   58.8747   22.5328   44.9427 H   0  0  0  0  0  0  0  0  0  0  0  0
   58.1226   23.1124   46.4214 H   0  0  0  0  0  0  0  0  0  0  0  0
   57.1542   21.0734   44.5052 H   0  0  0  0  0  0  0  0  0  0  0  0
   56.4991   21.4407   46.1088 H   0  0  0  0  0  0  0  0  0  0  0  0
   55.5702   22.3465   43.4411 H   0  0  0  0  0  0  0  0  0  0  0  0
   54.7181   22.4452   45.0084 H   0  0  0  0  0  0  0  0  0  0  0  0
  1  2  2  0
  2  3  1  0
  3  4  1  0
  4  5  2  0
  5  6  1  0
  6  7  2  0
  7  8  1  0
  8  9  1  0
  9 10  2  0
 10 11  1  0
 11 12  2  0
 12 13  1  0
 13 14  2  0
  7 15  1  0
 15 16  2  0
  2 17  1  0
 17 18  1  0
 18 19  1  0
 19 20  1  0
 20 21  1  0
 21 22  1  0
 22 23  2  0
 22 24  2  0
 22 25  1  0
 16  4  1  0
 21 17  1  0
 14  9  1  0
  3 26  1  0
  5 27  1  0
  6 28  1  0
  8 29  1  0
 10 30  1  0
 11 31  1  0
 12 32  1  0
 13 33  1  0
 14 34  1  0
 15 35  1  0
 16 36  1  0
 17 37  1  6
 18 38  1  0
 18 39  1  0
 19 40  1  0
 19 41  1  0
 20 42  1  0
 20 43  1  0
M  CHG  1  25  -1
M  END
>  <UniqueID>  (57) 
48

>  <SMILES>  (57) 
O=C(Nc1ccc(Nc2ccccc2)cc1)[C@H]1CCCN1S(=O)(=O)[O-]

>  <Energy>  (57) 
60.52591783335324

>  <Genealogy>  (57) 
O=C(Nc1ccc(Nc2ccccc2)cc1)C1CCCN1S(=O)(=O)[O-] (protonated)
O=C(Nc1ccc(Nc2ccccc2)cc1)[C@H]1CCCN1S(=O)(=O)[O-] (chirality)
O=C(Nc1ccc(Nc2ccccc2)cc1)[C@H]1CCCN1S(=O)(=O)[O-] (3D coordinates assigned)
O=C(Nc1ccc(Nc2ccccc2)cc1)[C@H]1CCCN1S(=O)(=O)[O-] (nonaromatic ring conformer: 60.52591783335324 kcal/mol)

>  <smiles>  (57) 
O=C(Nc1ccc(Nc2ccccc2)cc1)C1CCCN1S(=O)(=O)O

>  <score_type>  (57) 
oracle

>  <origin>  (57) 
adg

>  <m_score__min__energy>  (57) 
-12.19

>  <m_primary>  (57) 
energy

$$$$
57:0
     RDKit          3D

 56 59  0  0  0  0  0  0  0  0999 V2000
   57.0100   20.9510   42.9730 C   0  0  0  0  0  0  0  0  0  0  0  0
   55.9130   21.7860   43.3280 O   0  0  0  0  0  0  0  0  0  0  0  0
   56.0310   22.9870   44.0450 C   0  0  0  0  0  0  0  0  0  0  0  0
   57.2730   23.6340   44.0560 C   0  0  0  0  0  0  0  0  0  0  0  0
   57.4450   24.8290   44.7620 C   0  0  0  0  0  0  0  0  0  0  0  0
   56.3720   25.3950   45.4670 C   0  0  0  0  0  0  0  0  0  0  0  0
   56.5620   26.6540   46.2710 C   0  0  0  0  0  0  0  0  0  0  0  0
   55.9170   27.7790   45.6010 N   0  0  0  0  0  0  0  0  0  0  0  0
   56.5990   28.9900   45.2510 C   0  0  0  0  0  0  0  0  0  0  0  0
   56.0430   29.8210   44.4800 O   0  0  0  0  0  0  0  0  0  0  0  0
   57.9570   29.2600   45.7750 C   0  0  0  0  0  0  0  0  0  0  0  0
   59.0980   28.8650   45.0540 C   0  0  0  0  0  0  0  0  0  0  0  0
   60.3800   29.1390   45.5410 C   0  0  0  0  0  0  0  0  0  0  0  0
   60.5450   29.8240   46.7600 C   0  0  0  0  0  0  0  0  0  0  0  0
   61.8330   30.1370   47.3150 N   0  0  0  0  0  0  0  0  0  0  0  0
   62.2370   31.2780   48.0780 C   0  0  0  0  0  0  0  0  0  0  0  0
   63.2170   31.2120   48.8640 O   0  0  0  0  0  0  0  0  0  0  0  0
   61.5350   32.5670   47.9210 C   0  0  0  0  0  0  0  0  0  0  0  0
   60.9570   33.1440   46.4470 S   0  0  0  0  0  0  0  0  0  0  0  0
   60.2760   34.5570   47.0480 C   0  0  0  0  0  0  0  0  0  0  0  0
   59.4980   35.5510   46.2510 C   0  0  0  0  0  0  0  0  0  0  0  0
   60.4640   34.5920   48.4220 C   0  0  0  0  0  0  0  0  0  0  0  0
   61.1790   33.4900   48.9150 C   0  0  0  0  0  0  0  0  0  0  0  0
   61.5170   33.3120   50.6720 S   0  0  0  0  0  0  0  0  0  0  0  0
   59.8930   32.6390   51.0320 C   0  0  0  0  0  0  0  0  0  0  0  0
   59.5470   31.3640   50.5650 C   0  0  0  0  0  0  0  0  0  0  0  0
   58.2880   30.8300   50.8540 C   0  0  0  0  0  0  0  0  0  0  0  0
   57.3730   31.5640   51.6170 C   0  0  0  0  0  0  0  0  0  0  0  0
   55.7990   30.8890   51.9930 Cl  0  0  0  0  0  0  0  0  0  0  0  0
   57.7220   32.8330   52.0940 C   0  0  0  0  0  0  0  0  0  0  0  0
   58.9780   33.3700   51.8030 C   0  0  0  0  0  0  0  0  0  0  0  0
   59.4100   30.1930   47.4920 C   0  0  0  0  0  0  0  0  0  0  0  0
   58.1290   29.9160   47.0070 C   0  0  0  0  0  0  0  0  0  0  0  0
   55.1270   24.7490   45.4590 C   0  0  0  0  0  0  0  0  0  0  0  0
   54.9540   23.5550   44.7520 C   0  0  0  0  0  0  0  0  0  0  0  0
   57.4983   20.5793   43.8859 H   0  0  0  0  0  0  0  0  0  0  0  0
   56.6457   20.0996   42.3794 H   0  0  0  0  0  0  0  0  0  0  0  0
   57.7336   21.5289   42.3794 H   0  0  0  0  0  0  0  0  0  0  0  0
   58.1199   23.1989   43.5051 H   0  0  0  0  0  0  0  0  0  0  0  0
   58.4257   25.3273   44.7646 H   0  0  0  0  0  0  0  0  0  0  0  0
   56.1163   26.5200   47.2677 H   0  0  0  0  0  0  0  0  0  0  0  0
   57.6381   26.8610   46.3670 H   0  0  0  0  0  0  0  0  0  0  0  0
   58.9809   28.3351   44.0972 H   0  0  0  0  0  0  0  0  0  0  0  0
   61.2632   28.8180   44.9693 H   0  0  0  0  0  0  0  0  0  0  0  0
   58.9656   36.2312   46.9322 H   0  0  0  0  0  0  0  0  0  0  0  0
   60.1848   36.1307   45.6168 H   0  0  0  0  0  0  0  0  0  0  0  0
   58.7703   35.0236   45.6168 H   0  0  0  0  0  0  0  0  0  0  0  0
   60.0892   35.4041   49.0623 H   0  0  0  0  0  0  0  0  0  0  0  0
   60.2670   30.7827   49.9703 H   0  0  0  0  0  0  0  0  0  0  0  0
   58.0161   29.8315   50.4812 H   0  0  0  0  0  0  0  0  0  0  0  0
   57.0057   33.4082   52.6991 H   0  0  0  0  0  0  0  0  0  0  0  0
   59.2497   34.3674   52.1790 H   0  0  0  0  0  0  0  0  0  0  0  0
   59.5277   30.7058   48.4580 H   0  0  0  0  0  0  0  0  0  0  0  0
   57.2476   30.2136   47.5940 H   0  0  0  0  0  0  0  0  0  0  0  0
   54.2817   25.1842   46.0122 H   0  0  0  0  0  0  0  0  0  0  0  0
   53.9729   23.0577   44.7482 H   0  0  0  0  0  0  0  0  0  0  0  0
  1  2  1  0
  2  3  1  0
  3  4  2  0
  4  5  1  0
  5  6  2  0
  6  7  1  0
  7  8  1  0
  8  9  1  0
  9 10  2  0
  9 11  1  0
 11 12  2  0
 12 13  1  0
 13 14  2  0
 14 15  1  0
 15 16  1  0
 16 17  2  0
 16 18  1  0
 18 19  1  0
 19 20  1  0
 20 21  1  0
 20 22  2  0
 22 23  1  0
 23 24  1  0
 24 25  1  0
 25 26  2  0
 26 27  1  0
 27 28  2  0
 28 29  1  0
 28 30  1  0
 30 31  2  0
 14 32  1  0
 32 33  2  0
  6 34  1  0
 34 35  2  0
 35  3  1  0
 33 11  1  0
 23 18  2  0
 31 25  1  0
  1 36  1  0
  1 37  1  0
  1 38  1  0
  4 39  1  0
  5 40  1  0
  7 41  1  0
  7 42  1  0
 12 43  1  0
 13 44  1  0
 21 45  1  0
 21 46  1  0
 21 47  1  0
 22 48  1  0
 26 49  1  0
 27 50  1  0
 30 51  1  0
 31 52  1  0
 32 53  1  0
 33 54  1  0
 34 55  1  0
 35 56  1  0
M  CHG  2   8  -1  15  -1
M  END
>  <UniqueID>  (58) 
49

>  <SMILES>  (58) 
COc1ccc(C[N-]C(=O)c2ccc([N-]C(=O)c3sc(C)cc3Sc3ccc(Cl)cc3)cc2)cc1

>  <Energy>  (58) 
82.4511027812987

>  <Genealogy>  (58) 
COc1ccc(C[N-]C(=O)c2ccc([N-]C(=O)c3sc(C)cc3Sc3ccc(Cl)cc3)cc2)cc1 (protonated)
COc1ccc(C[N-]C(=O)c2ccc([N-]C(=O)c3sc(C)cc3Sc3ccc(Cl)cc3)cc2)cc1 (3D coordinates assigned)
COc1ccc(C[N-]C(=O)c2ccc([N-]C(=O)c3sc(C)cc3Sc3ccc(Cl)cc3)cc2)cc1 (optimized conformer: 82.4511027812987 kcal/mol)

>  <smiles>  (58) 
COc1ccc(CNC(=O)c2ccc(NC(=O)c3sc(C)cc3Sc3ccc(Cl)cc3)cc2)cc1

>  <score_type>  (58) 
oracle

>  <origin>  (58) 
adg

>  <m_score__min__energy>  (58) 
-12.039999999999999

>  <m_primary>  (58) 
energy

$$$$
58:0
     RDKit          3D

 40 43  0  0  0  0  0  0  0  0999 V2000
   57.4350   25.2170   42.9940 N   0  0  0  0  0  0  0  0  0  0  0  0
   56.8670   24.1640   43.4720 C   0  0  0  0  0  0  0  0  0  0  0  0
   56.4650   23.1270   42.7160 N   0  0  0  0  0  0  0  0  0  0  0  0
   55.9290   22.1940   43.4950 N   0  0  0  0  0  0  0  0  0  0  0  0
   55.9850   22.6330   44.7700 C   0  0  0  0  0  0  0  0  0  0  0  0
   55.5810   22.0560   45.9550 C   0  0  0  0  0  0  0  0  0  0  0  0
   55.7900   22.7740   47.1300 C   0  0  0  0  0  0  0  0  0  0  0  0
   56.3870   24.0320   47.1160 C   0  0  0  0  0  0  0  0  0  0  0  0
   56.7990   24.6160   45.9100 C   0  0  0  0  0  0  0  0  0  0  0  0
   57.3790   25.9250   45.9900 C   0  0  0  0  0  0  0  0  0  0  0  0
   58.7010   26.0310   46.4130 C   0  0  0  0  0  0  0  0  0  0  0  0
   59.3440   27.2450   46.5380 C   0  0  0  0  0  0  0  0  0  0  0  0
   58.6640   28.4080   46.2370 C   0  0  0  0  0  0  0  0  0  0  0  0
   59.3650   29.5970   46.3820 O   0  0  0  0  0  0  0  0  0  0  0  0
   57.3510   28.3480   45.8150 C   0  0  0  0  0  0  0  0  0  0  0  0
   56.6480   29.5170   45.4980 N   0  0  0  0  0  0  0  0  0  0  0  0
   57.0040   30.4480   44.4980 C   0  0  0  0  0  0  0  0  0  0  0  0
   56.6790   30.2740   43.1800 C   0  0  0  0  0  0  0  0  0  0  0  0
   57.0290   31.1970   42.2050 C   0  0  0  0  0  0  0  0  0  0  0  0
   57.7260   32.3450   42.5170 C   0  0  0  0  0  0  0  0  0  0  0  0
   58.0580   32.5280   43.8640 C   0  0  0  0  0  0  0  0  0  0  0  0
   57.7040   31.6010   44.8230 C   0  0  0  0  0  0  0  0  0  0  0  0
   58.0360   31.7960   46.1270 F   0  0  0  0  0  0  0  0  0  0  0  0
   56.7370   27.1080   45.7000 C   0  0  0  0  0  0  0  0  0  0  0  0
   56.5800   23.8890   44.7800 C   0  0  0  0  0  0  0  0  0  0  0  0
   56.8850   26.0940   42.9520 H   0  0  0  0  0  0  0  0  0  0  0  0
   56.5380   23.0260   41.6940 H   0  0  0  0  0  0  0  0  0  0  0  0
   55.5290   21.2770   43.2060 H   0  0  0  0  0  0  0  0  0  0  0  0
   55.1096   21.0623   45.9720 H   0  0  0  0  0  0  0  0  0  0  0  0
   55.4767   22.3378   48.0900 H   0  0  0  0  0  0  0  0  0  0  0  0
   56.5370   24.5735   48.0617 H   0  0  0  0  0  0  0  0  0  0  0  0
   59.2539   25.1118   46.6568 H   0  0  0  0  0  0  0  0  0  0  0  0
   60.3903   27.2860   46.8749 H   0  0  0  0  0  0  0  0  0  0  0  0
   58.9080   30.3210   46.9280 H   0  0  0  0  0  0  0  0  0  0  0  0
   55.7700   29.7090   46.0690 H   0  0  0  0  0  0  0  0  0  0  0  0
   56.1220   29.3728   42.8839 H   0  0  0  0  0  0  0  0  0  0  0  0
   56.7440   31.0086   41.1594 H   0  0  0  0  0  0  0  0  0  0  0  0
   58.0065   33.0789   41.7471 H   0  0  0  0  0  0  0  0  0  0  0  0
   58.6125   33.4292   44.1646 H   0  0  0  0  0  0  0  0  0  0  0  0
   55.6909   27.0690   45.3621 H   0  0  0  0  0  0  0  0  0  0  0  0
  1  2  2  3
  2  3  1  0
  3  4  1  0
  4  5  1  0
  5  6  2  0
  6  7  1  0
  7  8  2  0
  8  9  1  0
  9 10  1  0
 10 11  2  0
 11 12  1  0
 12 13  2  0
 13 14  1  0
 13 15  1  0
 15 16  1  0
 16 17  1  0
 17 18  2  0
 18 19  1  0
 19 20  2  0
 20 21  1  0
 21 22  2  0
 22 23  1  0
 15 24  2  0
  9 25  2  0
 25  2  1  0
 25  5  1  0
 24 10  1  0
 22 17  1  0
  1 26  1  0
  3 27  1  0
  4 28  1  0
  6 29  1  0
  7 30  1  0
  8 31  1  0
 11 32  1  0
 12 33  1  0
 14 34  1  0
 16 35  1  0
 18 36  1  0
 19 37  1  0
 20 38  1  0
 21 39  1  0
 24 40  1  0
M  END
>  <smiles>  (59) 
N=c1[nH][nH]c2cccc(-c3ccc(O)c(Nc4ccccc4F)c3)c12

>  <score_type>  (59) 
oracle

>  <origin>  (59) 
adg

>  <m_score__min__energy>  (59) 
-8.4000000000000004

>  <m_primary>  (59) 
energy

$$$$
59:0
     RDKit          3D

 41 43  0  0  0  0  0  0  0  0999 V2000
   57.1060   21.0850   43.0140 C   0  0  0  0  0  0  0  0  0  0  0  0
   55.9060   21.8240   43.2230 O   0  0  0  0  0  0  0  0  0  0  0  0
   55.8230   22.9900   43.9990 C   0  0  0  0  0  0  0  0  0  0  0  0
   54.5990   23.2880   44.6310 C   0  0  0  0  0  0  0  0  0  0  0  0
   54.4620   24.4370   45.4250 C   0  0  0  0  0  0  0  0  0  0  0  0
   55.5560   25.2880   45.5580 C   0  0  0  0  0  0  0  0  0  0  0  0
   56.7540   25.0250   44.9260 C   0  0  0  0  0  0  0  0  0  0  0  0
   56.9210   23.8640   44.1650 C   0  0  0  0  0  0  0  0  0  0  0  0
   57.7710   26.0860   45.2650 C   0  0  1  0  0  0  0  0  0  0  0  0
   59.0240   25.5020   45.9750 C   0  0  0  0  0  0  0  0  0  0  0  0
   59.9650   26.5550   46.5170 C   0  0  0  0  0  0  0  0  0  0  0  0
   59.9050   26.9530   47.9600 C   0  0  0  0  0  0  0  0  0  0  0  0
   60.7500   27.1150   45.7680 O   0  0  0  0  0  0  0  0  0  0  0  0
   58.1380   26.9640   44.0350 C   0  0  0  0  0  0  0  0  0  0  0  0
   57.8820   28.4410   44.2220 C   0  0  0  0  0  0  0  0  0  0  0  0
   58.8760   29.2700   44.7730 C   0  0  0  0  0  0  0  0  0  0  0  0
   58.6320   30.6330   44.9630 C   0  0  0  0  0  0  0  0  0  0  0  0
   57.4030   31.1830   44.5930 C   0  0  0  0  0  0  0  0  0  0  0  0
   56.4160   30.3710   44.0270 C   0  0  0  0  0  0  0  0  0  0  0  0
   56.6540   29.0070   43.8380 C   0  0  0  0  0  0  0  0  0  0  0  0
   56.9360   26.9170   46.2140 C   0  0  0  0  0  0  0  0  0  0  0  0
   57.3590   27.9430   46.8080 O   0  0  0  0  0  0  0  0  0  0  0  0
   55.5990   26.4470   46.3710 N   0  0  0  0  0  0  0  0  0  0  0  0
   57.5444   20.8150   43.9861 H   0  0  0  0  0  0  0  0  0  0  0  0
   56.8791   20.1699   42.4473 H   0  0  0  0  0  0  0  0  0  0  0  0
   57.8210   21.6995   42.4473 H   0  0  0  0  0  0  0  0  0  0  0  0
   53.7411   22.6121   44.5004 H   0  0  0  0  0  0  0  0  0  0  0  0
   53.5113   24.6604   45.9312 H   0  0  0  0  0  0  0  0  0  0  0  0
   57.8923   23.6344   43.7025 H   0  0  0  0  0  0  0  0  0  0  0  0
   58.6867   24.8740   46.8128 H   0  0  0  0  0  0  0  0  0  0  0  0
   59.5833   24.9310   45.2193 H   0  0  0  0  0  0  0  0  0  0  0  0
   60.0392   26.0626   48.5918 H   0  0  0  0  0  0  0  0  0  0  0  0
   60.7040   27.6782   48.1739 H   0  0  0  0  0  0  0  0  0  0  0  0
   58.9277   27.4104   48.1739 H   0  0  0  0  0  0  0  0  0  0  0  0
   59.2079   26.8250   43.8204 H   0  0  0  0  0  0  0  0  0  0  0  0
   57.4882   26.6354   43.2105 H   0  0  0  0  0  0  0  0  0  0  0  0
   59.8498   28.8435   45.0556 H   0  0  0  0  0  0  0  0  0  0  0  0
   59.4095   31.2736   45.4048 H   0  0  0  0  0  0  0  0  0  0  0  0
   57.2116   32.2552   44.7469 H   0  0  0  0  0  0  0  0  0  0  0  0
   55.4505   30.8063   43.7299 H   0  0  0  0  0  0  0  0  0  0  0  0
   55.8766   28.3732   43.3865 H   0  0  0  0  0  0  0  0  0  0  0  0
  1  2  1  0
  2  3  1  0
  3  4  2  0
  4  5  1  0
  5  6  2  0
  6  7  1  0
  7  8  2  0
  7  9  1  0
  9 10  1  1
 10 11  1  0
 11 12  1  0
 11 13  2  0
  9 14  1  0
 14 15  1  0
 15 16  2  0
 16 17  1  0
 17 18  2  0
 18 19  1  0
 19 20  2  0
  9 21  1  0
 21 22  2  0
 21 23  1  0
  8  3  1  0
 20 15  1  0
 23  6  1  0
  1 24  1  0
  1 25  1  0
  1 26  1  0
  4 27  1  0
  5 28  1  0
  8 29  1  0
 10 30  1  0
 10 31  1  0
 12 32  1  0
 12 33  1  0
 12 34  1  0
 14 35  1  0
 14 36  1  0
 16 37  1  0
 17 38  1  0
 18 39  1  0
 19 40  1  0
 20 41  1  0
M  CHG  1  23  -1
M  END
>  <UniqueID>  (60) 
50

>  <SMILES>  (60) 
COc1ccc2c(c1)[C@@](CC(C)=O)(Cc1ccccc1)C(=O)[N-]2

>  <Energy>  (60) 
56.749873751551526

>  <Genealogy>  (60) 
COc1ccc2c(c1)C(CC(C)=O)(Cc1ccccc1)C(=O)[N-]2 (protonated)
COc1ccc2c(c1)[C@@](CC(C)=O)(Cc1ccccc1)C(=O)[N-]2 (chirality)
COc1ccc2c(c1)[C@@](CC(C)=O)(Cc1ccccc1)C(=O)[N-]2 (3D coordinates assigned)
COc1ccc2c(c1)[C@@](CC(C)=O)(Cc1ccccc1)C(=O)[N-]2 (nonaromatic ring conformer: 56.749873751551526 kcal/mol)

>  <smiles>  (60) 
COc1ccc2c(c1)C(CC(C)=O)(Cc1ccccc1)C(=O)N2

>  <score_type>  (60) 
oracle

>  <origin>  (60) 
adg

>  <m_score__min__energy>  (60) 
-9.7599999999999998

>  <m_primary>  (60) 
energy

$$$$
60:0
     RDKit          3D

 45 47  0  0  0  0  0  0  0  0999 V2000
   56.4160   31.5990   52.1810 O   0  0  0  0  0  0  0  0  0  0  0  0
   56.3810   30.3400   52.1560 C   0  0  0  0  0  0  0  0  0  0  0  0
   55.2240   29.6180   52.7640 C   0  0  0  0  0  0  0  0  0  0  0  0
   53.9570   30.3680   52.4480 C   0  0  0  0  0  0  0  0  0  0  0  0
   53.0310   30.6590   53.4640 C   0  0  0  0  0  0  0  0  0  0  0  0
   51.8960   31.4280   53.1840 C   0  0  0  0  0  0  0  0  0  0  0  0
   51.6870   31.9270   51.8950 C   0  0  0  0  0  0  0  0  0  0  0  0
   50.5670   32.7020   51.6220 O   0  0  0  0  0  0  0  0  0  0  0  0
   52.6090   31.6490   50.8800 C   0  0  0  0  0  0  0  0  0  0  0  0
   53.7410   30.8750   51.1540 C   0  0  0  0  0  0  0  0  0  0  0  0
   57.3980   29.6090   51.4630 N   0  0  0  0  0  0  0  0  0  0  0  0
   58.4750   30.2600   50.7810 C   0  0  0  0  0  0  0  0  0  0  0  0
   59.5050   30.8580   51.5140 C   0  0  0  0  0  0  0  0  0  0  0  0
   60.5590   31.4930   50.8510 C   0  0  0  0  0  0  0  0  0  0  0  0
   60.5940   31.5250   49.4520 C   0  0  0  0  0  0  0  0  0  0  0  0
   59.5770   30.9120   48.6980 C   0  0  0  0  0  0  0  0  0  0  0  0
   59.6490   30.8980   47.2110 C   0  0  0  0  0  0  0  0  0  0  0  0
   60.2800   31.8140   46.6180 O   0  0  0  0  0  0  0  0  0  0  0  0
   59.0610   29.8200   46.3880 C   0  0  0  0  0  0  0  0  0  0  0  0
   59.4410   28.5400   46.4960 C   0  0  0  0  0  0  0  0  0  0  0  0
   58.5000   27.4100   46.6920 C   0  0  0  0  0  0  0  0  0  0  0  0
   58.8760   26.2080   47.3200 C   0  0  0  0  0  0  0  0  0  0  0  0
   57.9440   25.1810   47.4960 C   0  0  0  0  0  0  0  0  0  0  0  0
   56.6300   25.3330   47.0450 C   0  0  0  0  0  0  0  0  0  0  0  0
   55.7190   24.2950   47.2420 O   0  0  0  0  0  0  0  0  0  0  0  0
   56.2490   26.5230   46.4020 C   0  0  0  0  0  0  0  0  0  0  0  0
   54.9470   26.6920   45.9440 O   0  0  0  0  0  0  0  0  0  0  0  0
   57.1820   27.5490   46.2240 C   0  0  0  0  0  0  0  0  0  0  0  0
   58.5340   30.2580   49.3790 C   0  0  0  0  0  0  0  0  0  0  0  0
   55.1641   28.6013   52.3484 H   0  0  0  0  0  0  0  0  0  0  0  0
   55.3565   29.5552   53.8542 H   0  0  0  0  0  0  0  0  0  0  0  0
   53.1989   30.2809   54.4832 H   0  0  0  0  0  0  0  0  0  0  0  0
   51.1668   31.6403   53.9797 H   0  0  0  0  0  0  0  0  0  0  0  0
   52.4432   32.0398   49.8652 H   0  0  0  0  0  0  0  0  0  0  0  0
   54.4655   30.6618   50.3542 H   0  0  0  0  0  0  0  0  0  0  0  0
   59.4857   30.8286   52.6134 H   0  0  0  0  0  0  0  0  0  0  0  0
   61.3636   31.9692   51.4305 H   0  0  0  0  0  0  0  0  0  0  0  0
   61.4232   32.0334   48.9383 H   0  0  0  0  0  0  0  0  0  0  0  0
   58.2803   30.0792   45.6578 H   0  0  0  0  0  0  0  0  0  0  0  0
   60.5157   28.3131   46.4357 H   0  0  0  0  0  0  0  0  0  0  0  0
   59.9089   26.0759   47.6743 H   0  0  0  0  0  0  0  0  0  0  0  0
   58.2468   24.2474   47.9926 H   0  0  0  0  0  0  0  0  0  0  0  0
   54.7180   24.4420   47.1940 H   0  0  0  0  0  0  0  0  0  0  0  0
   56.8813   28.4750   45.7121 H   0  0  0  0  0  0  0  0  0  0  0  0
   57.7537   29.7377   48.8042 H   0  0  0  0  0  0  0  0  0  0  0  0
  1  2  2  0
  2  3  1  0
  3  4  1  0
  4  5  2  0
  5  6  1  0
  6  7  2  0
  7  8  1  0
  7  9  1  0
  9 10  2  0
  2 11  1  0
 11 12  1  0
 12 13  2  0
 13 14  1  0
 14 15  2  0
 15 16  1  0
 16 17  1  0
 17 18  2  0
 17 19  1  0
 19 20  2  3
 20 21  1  0
 21 22  2  0
 22 23  1  0
 23 24  2  0
 24 25  1  0
 24 26  1  0
 26 27  1  0
 26 28  2  0
 16 29  2  0
 10  4  1  0
 29 12  1  0
 28 21  1  0
  3 30  1  0
  3 31  1  0
  5 32  1  0
  6 33  1  0
  9 34  1  0
 10 35  1  0
 13 36  1  0
 14 37  1  0
 15 38  1  0
 19 39  1  0
 20 40  1  0
 22 41  1  0
 23 42  1  0
 25 43  1  0
 28 44  1  0
 29 45  1  0
M  CHG  3   8  -1  11  -1  27  -1
M  END
>  <UniqueID>  (61) 
51

>  <SMILES>  (61) 
O=C(Cc1ccc([O-])cc1)[N-]c1cccc(C(=O)C=Cc2ccc(O)c([O-])c2)c1

>  <Energy>  (61) 
55.28643921156497

>  <Genealogy>  (61) 
O=C(Cc1ccc([O-])cc1)[N-]c1cccc(C(=O)C=Cc2ccc(O)c([O-])c2)c1 (protonated)
O=C(Cc1ccc([O-])cc1)[N-]c1cccc(C(=O)C=Cc2ccc(O)c([O-])c2)c1 (3D coordinates assigned)
O=C(Cc1ccc([O-])cc1)[N-]c1cccc(C(=O)C=Cc2ccc(O)c([O-])c2)c1 (optimized conformer: 55.28643921156497 kcal/mol)

>  <smiles>  (61) 
O=C(Cc1ccc(O)cc1)Nc1cccc(C(=O)C=Cc2ccc(O)c(O)c2)c1

>  <score_type>  (61) 
oracle

>  <origin>  (61) 
adg

>  <m_score__min__energy>  (61) 
-17.73

>  <m_primary>  (61) 
energy

$$$$
61:0
     RDKit          3D

 44 46  0  0  0  0  0  0  0  0999 V2000
   56.2710   29.4070   43.2290 C   0  0  0  0  0  0  0  0  0  0  0  0
   57.1010   30.0410   44.2970 C   0  0  0  0  0  0  0  0  0  0  0  0
   56.8080   31.2330   44.8530 N   0  0  0  0  0  0  0  0  0  0  0  0
   57.7620   31.5130   45.7270 N   0  0  0  0  0  0  0  0  0  0  0  0
   57.7720   32.7250   46.5410 C   0  0  0  0  0  0  0  0  0  0  0  0
   58.6870   30.5300   45.7300 C   0  0  0  0  0  0  0  0  0  0  0  0
   59.8720   30.4640   46.6470 C   0  0  0  0  0  0  0  0  0  0  0  0
   58.2870   29.5560   44.8290 C   0  0  0  0  0  0  0  0  0  0  0  0
   58.9950   28.2770   44.4760 C   0  0  0  0  0  0  0  0  0  0  0  0
   59.0860   27.3990   45.6500 N   0  0  0  0  0  0  0  0  0  0  0  0
   60.3630   26.8140   46.0600 C   0  0  0  0  0  0  0  0  0  0  0  0
   57.9400   27.2070   46.4910 C   0  0  0  0  0  0  0  0  0  0  0  0
   57.8970   27.7690   47.6180 O   0  0  0  0  0  0  0  0  0  0  0  0
   56.8070   26.3740   46.0610 C   0  0  0  0  0  0  0  0  0  0  0  0
   55.5190   26.6560   46.3580 N   0  0  0  0  0  0  0  0  0  0  0  0
   54.7870   25.7070   45.8450 O   0  0  0  0  0  0  0  0  0  0  0  0
   55.5350   24.8200   45.2360 C   0  0  0  0  0  0  0  0  0  0  0  0
   56.8500   25.1870   45.3530 C   0  0  0  0  0  0  0  0  0  0  0  0
   58.0000   24.3860   44.8180 C   0  0  0  0  0  0  0  0  0  0  0  0
   57.5480   22.9440   44.5090 C   0  0  0  0  0  0  0  0  0  0  0  0
   56.2020   22.9200   43.7540 C   0  0  0  0  0  0  0  0  0  0  0  0
   55.0670   23.5550   44.5850 C   0  0  0  0  0  0  0  0  0  0  0  0
   55.4780   28.8013   43.6920 H   0  0  0  0  0  0  0  0  0  0  0  0
   55.8167   30.1902   42.6043 H   0  0  0  0  0  0  0  0  0  0  0  0
   56.9071   28.7627   42.6043 H   0  0  0  0  0  0  0  0  0  0  0  0
   57.7697   32.4512   47.6064 H   0  0  0  0  0  0  0  0  0  0  0  0
   58.6750   33.3111   46.3150 H   0  0  0  0  0  0  0  0  0  0  0  0
   56.8788   33.3259   46.3150 H   0  0  0  0  0  0  0  0  0  0  0  0
   59.5286   30.4831   47.6918 H   0  0  0  0  0  0  0  0  0  0  0  0
   60.4283   29.5335   46.4608 H   0  0  0  0  0  0  0  0  0  0  0  0
   60.5282   31.3270   46.4608 H   0  0  0  0  0  0  0  0  0  0  0  0
   58.4365   27.7615   43.6808 H   0  0  0  0  0  0  0  0  0  0  0  0
   60.0117   28.5165   44.1309 H   0  0  0  0  0  0  0  0  0  0  0  0
   60.4188   26.7884   47.1583 H   0  0  0  0  0  0  0  0  0  0  0  0
   60.4410   25.7903   45.6650 H   0  0  0  0  0  0  0  0  0  0  0  0
   61.1892   27.4234   45.6650 H   0  0  0  0  0  0  0  0  0  0  0  0
   58.3717   24.8557   43.8954 H   0  0  0  0  0  0  0  0  0  0  0  0
   58.7990   24.3571   45.5735 H   0  0  0  0  0  0  0  0  0  0  0  0
   58.3138   22.4549   43.8890 H   0  0  0  0  0  0  0  0  0  0  0  0
   57.4168   22.4126   45.4632 H   0  0  0  0  0  0  0  0  0  0  0  0
   56.3112   23.4804   42.8137 H   0  0  0  0  0  0  0  0  0  0  0  0
   55.9375   21.8700   43.5602 H   0  0  0  0  0  0  0  0  0  0  0  0
   54.2178   23.7815   43.9235 H   0  0  0  0  0  0  0  0  0  0  0  0
   54.7607   22.8455   45.3678 H   0  0  0  0  0  0  0  0  0  0  0  0
  1  2  1  0
  2  3  2  0
  3  4  1  0
  4  5  1  0
  4  6  1  0
  6  7  1  0
  6  8  2  0
  8  9  1  0
  9 10  1  0
 10 11  1  0
 10 12  1  0
 12 13  2  0
 12 14  1  0
 14 15  2  0
 15 16  1  0
 16 17  1  0
 17 18  2  0
 18 19  1  0
 19 20  1  0
 20 21  1  0
 21 22  1  0
  8  2  1  0
 18 14  1  0
 22 17  1  0
  1 23  1  0
  1 24  1  0
  1 25  1  0
  5 26  1  0
  5 27  1  0
  5 28  1  0
  7 29  1  0
  7 30  1  0
  7 31  1  0
  9 32  1  0
  9 33  1  0
 11 34  1  0
 11 35  1  0
 11 36  1  0
 19 37  1  0
 19 38  1  0
 20 39  1  0
 20 40  1  0
 21 41  1  0
 21 42  1  0
 22 43  1  0
 22 44  1  0
M  END
>  <UniqueID>  (62) 
52

>  <SMILES>  (62) 
Cc1nn(C)c(C)c1CN(C)C(=O)c1noc2c1CCCC2

>  <Energy>  (62) 
104.41132656757645

>  <Genealogy>  (62) 
Cc1nn(C)c(C)c1CN(C)C(=O)c1noc2c1CCCC2 (3D coordinates assigned)
Cc1nn(C)c(C)c1CN(C)C(=O)c1noc2c1CCCC2 (nonaromatic ring conformer: 104.41132656757645 kcal/mol)

>  <smiles>  (62) 
Cc1nn(C)c(C)c1CN(C)C(=O)c1noc2c1CCCC2

>  <score_type>  (62) 
oracle

>  <origin>  (62) 
adg

>  <m_score__min__energy>  (62) 
-8.3900000000000006

>  <m_primary>  (62) 
energy

$$$$
62:0
     RDKit          3D

 35 37  0  0  0  0  0  0  0  0999 V2000
   53.0020   25.4659   55.4290 H   0  0  0  0  0  0  0  0  0  0  0  0
   53.5020   26.3190   54.9470 C   0  0  0  0  0  0  0  0  0  0  0  0
   52.8710   27.5170   54.8640 N   0  0  0  0  0  0  0  0  0  0  0  0
   53.4310   28.6150   54.2840 C   0  0  0  0  0  0  0  0  0  0  0  0
   52.6850   29.6860   54.2130 N   0  0  0  0  0  0  0  0  0  0  0  0
   52.3040   30.4690   53.0750 C   0  0  0  0  0  0  0  0  0  0  0  0
   51.4620   31.5750   53.2500 C   0  0  0  0  0  0  0  0  0  0  0  0
   51.1269   31.8545   54.2598 H   0  0  0  0  0  0  0  0  0  0  0  0
   51.0460   32.3250   52.1450 C   0  0  0  0  0  0  0  0  0  0  0  0
   50.4051   33.2074   52.2891 H   0  0  0  0  0  0  0  0  0  0  0  0
   51.4450   31.9530   50.8560 C   0  0  0  0  0  0  0  0  0  0  0  0
   51.0350   32.7000   49.7590 O   0  0  0  0  0  0  0  0  0  0  0  0
   52.2500   30.8240   50.6730 C   0  0  0  0  0  0  0  0  0  0  0  0
   52.5567   30.5261   49.6595 H   0  0  0  0  0  0  0  0  0  0  0  0
   52.6650   30.0740   51.7770 C   0  0  0  0  0  0  0  0  0  0  0  0
   53.2762   29.1716   51.6285 H   0  0  0  0  0  0  0  0  0  0  0  0
   54.7690   28.5170   53.7870 C   0  0  0  0  0  0  0  0  0  0  0  0
   55.5890   29.6740   53.3520 C   0  0  0  0  0  0  0  0  0  0  0  0
   55.5040   30.7500   54.0000 O   0  0  0  0  0  0  0  0  0  0  0  0
   56.6230   29.5650   52.3580 N   0  0  0  0  0  0  0  0  0  0  0  0
   57.3480   30.4900   51.7870 C   0  0  0  0  0  0  0  0  0  0  0  0
   58.1890   30.1080   50.7320 C   0  0  0  0  0  0  0  0  0  0  0  0
   58.2241   29.0577   50.4069 H   0  0  0  0  0  0  0  0  0  0  0  0
   58.9810   31.0640   50.0960 C   0  0  0  0  0  0  0  0  0  0  0  0
   59.6358   30.7709   49.2622 H   0  0  0  0  0  0  0  0  0  0  0  0
   58.9410   32.3910   50.5190 C   0  0  0  0  0  0  0  0  0  0  0  0
   60.0210   33.7110   49.6620 Br  0  0  0  0  0  0  0  0  0  0  0  0
   58.1100   32.7410   51.5850 C   0  0  0  0  0  0  0  0  0  0  0  0
   58.0762   33.7841   51.9325 H   0  0  0  0  0  0  0  0  0  0  0  0
   57.3410   31.7980   52.1970 N   0  0  0  0  0  0  0  0  0  0  0  0
   56.7760   32.1180   53.0080 H   0  0  0  0  0  0  0  0  0  0  0  0
   55.4140   27.2700   53.8530 C   0  0  0  0  0  0  0  0  0  0  0  0
   56.4316   27.1622   53.4495 H   0  0  0  0  0  0  0  0  0  0  0  0
   54.7800   26.1700   54.4230 C   0  0  0  0  0  0  0  0  0  0  0  0
   55.2852   25.1935   54.4582 H   0  0  0  0  0  0  0  0  0  0  0  0
  1  2  1  0
  2  3  1  0
  3  4  1  0
  4  5  2  3
  5  6  1  0
  6  7  2  0
  7  8  1  0
  7  9  1  0
  9 10  1  0
  9 11  2  0
 11 12  1  0
 11 13  1  0
 13 14  1  0
 13 15  2  0
 15 16  1  0
  4 17  1  0
 17 18  1  0
 18 19  2  0
 18 20  1  0
 20 21  2  0
 21 22  1  0
 22 23  1  0
 22 24  2  0
 24 25  1  0
 24 26  1  0
 26 27  1  0
 26 28  2  0
 28 29  1  0
 28 30  1  0
 30 31  1  0
 17 32  2  0
 32 33  1  0
 32 34  1  0
 34 35  1  0
 34  2  2  0
 15  6  1  0
 30 21  1  0
M  CHG  2   3  -1  12  -1
M  END
>  <UniqueID>  (63) 
53

>  <SMILES>  (63) 
O=C(/N=c1/ccc(Br)c[nH]1)c1ccc[n-]c1=Nc1ccc([O-])cc1

>  <Energy>  (63) 
67.6422101616228

>  <Genealogy>  (63) 
O=C(N=c1ccc(Br)c[nH]1)c1ccc[n-]c1=Nc1ccc([O-])cc1 (protonated)
O=C(/N=c1/ccc(Br)c[nH]1)c1ccc[n-]c1=Nc1ccc([O-])cc1 (cis-trans isomerization)
O=C(/N=c1/ccc(Br)c[nH]1)c1ccc[n-]c1=Nc1ccc([O-])cc1 (3D coordinates assigned)
O=C(/N=c1/ccc(Br)c[nH]1)c1ccc[n-]c1=Nc1ccc([O-])cc1 (optimized conformer: 67.6422101616228 kcal/mol)

>  <smiles>  (63) 
O=C(N=c1ccc(Br)c[nH]1)c1ccc[nH]c1=Nc1ccc(O)cc1

>  <score_type>  (63) 
oracle

>  <origin>  (63) 
adg

>  <m_score__min__energy>  (63) 
-11.9

>  <m_primary>  (63) 
energy

$$$$
63:0
     RDKit          3D

 58 62  0  0  1  0  0  0  0  0999 V2000
   55.1760   29.1530   45.1350 O   0  0  0  0  0  0  0  0  0  0  0  0
   56.4350   29.2880   44.9350 C   0  0  0  0  0  0  0  0  0  0  0  0
   57.2720   28.2920   45.4900 N   0  0  0  0  0  0  0  0  0  0  0  0
   56.7530   27.0900   45.5990 C   0  0  0  0  0  0  0  0  0  0  0  0
   57.3910   25.9070   45.2830 C   0  0  0  0  0  0  0  0  0  0  0  0
   56.4690   24.8810   45.5360 C   0  0  0  0  0  0  0  0  0  0  0  0
   56.8230   23.4610   45.3050 C   0  0  0  0  0  0  0  0  0  0  0  0
   57.2390   22.8990   44.0290 C   0  0  0  0  0  0  0  0  0  0  0  0
   58.3210   23.3420   44.9230 C   0  0  0  0  0  0  0  0  0  0  0  0
   55.3420   25.4450   45.9810 N   0  0  0  0  0  0  0  0  0  0  0  0
   55.5090   26.7630   46.0190 N   0  0  0  0  0  0  0  0  0  0  0  0
   56.8800   30.4360   44.1690 C   0  0  0  0  0  0  0  0  0  0  0  0
   56.8940   30.4490   42.7820 C   0  0  0  0  0  0  0  0  0  0  0  0
   57.3540   31.5760   42.1160 C   0  0  0  0  0  0  0  0  0  0  0  0
   57.7950   32.6750   42.8510 C   0  0  0  0  0  0  0  0  0  0  0  0
   57.7940   32.6940   44.2290 C   0  0  0  0  0  0  0  0  0  0  0  0
   58.2830   33.7790   45.0700 C   0  0  0  0  0  0  0  0  0  0  0  0
   59.4960   33.5680   45.7920 N   0  0  0  0  0  0  0  0  0  0  0  0
   59.9210   34.3200   46.8980 C   0  0  0  0  0  0  0  0  0  0  0  0
   59.2800   35.2760   47.3510 O   0  0  0  0  0  0  0  0  0  0  0  0
   61.1850   33.9570   47.5460 C   0  0  0  0  0  0  0  0  0  0  0  0
   61.3860   34.0430   48.9050 C   0  0  0  0  0  0  0  0  0  0  0  0
   62.5620   33.6380   49.4670 C   0  0  0  0  0  0  0  0  0  0  0  0
   63.6280   33.1160   48.7290 C   0  0  0  0  0  0  0  0  0  0  0  0
   64.7280   32.7550   49.4020 O   0  0  0  0  0  0  0  0  0  0  0  0
   65.0820   31.8610   50.3530 C   0  0  0  0  0  0  0  0  0  0  0  0
   66.2500   32.3420   51.1990 C   0  0  0  0  0  0  0  0  0  0  0  0
   67.3490   33.0400   50.4340 C   0  0  0  0  0  0  0  0  0  0  0  0
   66.4240   33.8190   51.3110 C   0  0  0  0  0  0  0  0  0  0  0  0
   63.4170   33.0350   47.3640 C   0  0  0  0  0  0  0  0  0  0  0  0
   62.2240   33.4430   46.7670 C   0  0  0  0  0  0  0  0  0  0  0  0
   57.3230   31.5440   44.8550 C   0  0  0  0  0  0  0  0  0  0  0  0
   58.4185   25.7921   44.9074 H   0  0  0  0  0  0  0  0  0  0  0  0
   56.0730   23.0942   46.0212 H   0  0  0  0  0  0  0  0  0  0  0  0
   57.1001   21.8238   43.8431 H   0  0  0  0  0  0  0  0  0  0  0  0
   56.9825   23.1295   42.9845 H   0  0  0  0  0  0  0  0  0  0  0  0
   58.9665   22.6053   45.4236 H   0  0  0  0  0  0  0  0  0  0  0  0
   59.1772   24.0288   44.8508 H   0  0  0  0  0  0  0  0  0  0  0  0
   54.4960   24.8980   46.2410 H   0  0  0  0  0  0  0  0  0  0  0  0
   54.7790   27.4710   46.3360 H   0  0  0  0  0  0  0  0  0  0  0  0
   56.5436   29.5738   42.2152 H   0  0  0  0  0  0  0  0  0  0  0  0
   57.3705   31.6019   41.0164 H   0  0  0  0  0  0  0  0  0  0  0  0
   58.1579   33.5615   42.3103 H   0  0  0  0  0  0  0  0  0  0  0  0
   58.4358   34.6537   44.4207 H   0  0  0  0  0  0  0  0  0  0  0  0
   57.5143   33.8934   45.8484 H   0  0  0  0  0  0  0  0  0  0  0  0
   60.1210   32.7830   45.4610 H   0  0  0  0  0  0  0  0  0  0  0  0
   60.5877   34.4437   49.5470 H   0  0  0  0  0  0  0  0  0  0  0  0
   62.6768   33.7270   50.5574 H   0  0  0  0  0  0  0  0  0  0  0  0
   64.2183   31.6858   51.0113 H   0  0  0  0  0  0  0  0  0  0  0  0
   65.3963   30.9382   49.8435 H   0  0  0  0  0  0  0  0  0  0  0  0
   66.1944   31.5130   51.9199 H   0  0  0  0  0  0  0  0  0  0  0  0
   68.3998   32.9000   50.7276 H   0  0  0  0  0  0  0  0  0  0  0  0
   67.6530   33.0928   49.3782 H   0  0  0  0  0  0  0  0  0  0  0  0
   66.7971   34.2572   52.2485 H   0  0  0  0  0  0  0  0  0  0  0  0
   65.7668   34.6885   51.1626 H   0  0  0  0  0  0  0  0  0  0  0  0
   64.2189   32.6344   46.7265 H   0  0  0  0  0  0  0  0  0  0  0  0
   62.1010   33.3595   45.6771 H   0  0  0  0  0  0  0  0  0  0  0  0
   57.3037   31.5191   45.9545 H   0  0  0  0  0  0  0  0  0  0  0  0
  1  2  2  0
  2  3  1  0
  3  4  2  0
  4  5  1  0
  5  6  2  0
  6  7  1  0
  7  8  1  0
  8  9  1  0
  6 10  1  0
 10 11  1  0
  2 12  1  0
 12 13  2  0
 13 14  1  0
 14 15  2  0
 15 16  1  0
 16 17  1  0
 17 18  1  0
 18 19  1  0
 19 20  2  0
 19 21  1  0
 21 22  2  0
 22 23  1  0
 23 24  2  0
 24 25  1  0
 25 26  1  0
 26 27  1  0
 27 28  1  0
 28 29  1  0
 24 30  1  0
 30 31  2  0
 16 32  2  0
 11  4  1  0
 32 12  1  0
  9  7  1  0
 31 21  1  0
 29 27  1  0
  5 33  1  0
  7 34  1  0
  8 35  1  0
  8 36  1  0
  9 37  1  0
  9 38  1  0
 10 39  1  0
 11 40  1  0
 13 41  1  0
 14 42  1  0
 15 43  1  0
 17 44  1  0
 17 45  1  0
 18 46  1  0
 22 47  1  0
 23 48  1  0
 26 49  1  0
 26 50  1  0
 27 51  1  0
 28 52  1  0
 28 53  1  0
 29 54  1  0
 29 55  1  0
 30 56  1  0
 31 57  1  0
 32 58  1  0
M  END
>  <smiles>  (64) 
O=C(N=c1cc(C2CC2)[nH][nH]1)c1cccc(CNC(=O)c2ccc(OCC3CC3)cc2)c1

>  <score_type>  (64) 
oracle

>  <origin>  (64) 
adg

>  <m_score__min__energy>  (64) 
-10.17

>  <m_primary>  (64) 
energy

$$$$
64:0
     RDKit          3D

 43 45  0  0  0  0  0  0  0  0999 V2000
   59.6070   34.9340   45.6130 C   0  0  0  0  0  0  0  0  0  0  0  0
   59.6280   33.6620   46.3350 N   0  0  0  0  0  0  0  0  0  0  0  0
   60.8850   33.0770   46.7290 C   0  0  0  0  0  0  0  0  0  0  0  0
   62.0670   33.8420   46.7170 C   0  0  0  0  0  0  0  0  0  0  0  0
   63.2790   33.2790   47.1230 C   0  0  0  0  0  0  0  0  0  0  0  0
   63.3270   31.9500   47.5490 C   0  0  0  0  0  0  0  0  0  0  0  0
   62.1610   31.1790   47.5650 C   0  0  0  0  0  0  0  0  0  0  0  0
   60.9460   31.7390   47.1610 C   0  0  0  0  0  0  0  0  0  0  0  0
   58.1260   32.8380   46.6640 S   0  0  0  0  0  0  0  0  0  0  0  0
   57.0090   33.8410   46.7600 O   0  0  0  0  0  0  0  0  0  0  0  0
   58.2260   32.1260   47.9850 O   0  0  0  0  0  0  0  0  0  0  0  0
   57.7710   31.6880   45.3750 C   0  0  0  0  0  0  0  0  0  0  0  0
   57.4310   32.1360   44.0920 C   0  0  0  0  0  0  0  0  0  0  0  0
   57.1090   31.2180   43.0900 C   0  0  0  0  0  0  0  0  0  0  0  0
   57.1420   29.8470   43.3590 C   0  0  0  0  0  0  0  0  0  0  0  0
   57.5190   29.3830   44.6270 C   0  0  0  0  0  0  0  0  0  0  0  0
   57.5410   27.9690   44.8830 N   0  0  0  0  0  0  0  0  0  0  0  0
   58.7460   27.2150   45.0900 C   0  0  0  0  0  0  0  0  0  0  0  0
   59.8750   27.7390   44.8840 O   0  0  0  0  0  0  0  0  0  0  0  0
   58.6760   25.7960   45.5570 C   0  0  0  0  0  0  0  0  0  0  0  0
   57.8640   25.7370   47.1860 S   0  0  0  0  0  0  0  0  0  0  0  0
   56.2320   25.4990   46.4910 C   0  0  0  0  0  0  0  0  0  0  0  0
   55.6610   24.2910   46.3310 N   0  0  0  0  0  0  0  0  0  0  0  0
   54.4780   24.6200   45.7760 C   0  0  0  0  0  0  0  0  0  0  0  0
   54.3420   25.9490   45.6100 N   0  0  0  0  0  0  0  0  0  0  0  0
   55.4530   26.5050   46.0600 N   0  0  0  0  0  0  0  0  0  0  0  0
   57.8140   30.3130   45.6390 C   0  0  0  0  0  0  0  0  0  0  0  0
   59.5933   35.7647   46.3340 H   0  0  0  0  0  0  0  0  0  0  0  0
   60.5040   35.0118   44.9810 H   0  0  0  0  0  0  0  0  0  0  0  0
   58.7079   34.9821   44.9810 H   0  0  0  0  0  0  0  0  0  0  0  0
   62.0357   34.8904   46.3855 H   0  0  0  0  0  0  0  0  0  0  0  0
   64.1977   33.8838   47.1072 H   0  0  0  0  0  0  0  0  0  0  0  0
   64.2820   31.5099   47.8719 H   0  0  0  0  0  0  0  0  0  0  0  0
   62.1999   30.1307   47.8959 H   0  0  0  0  0  0  0  0  0  0  0  0
   60.0305   31.1295   47.1808 H   0  0  0  0  0  0  0  0  0  0  0  0
   57.4176   33.2139   43.8731 H   0  0  0  0  0  0  0  0  0  0  0  0
   56.8290   31.5745   42.0877 H   0  0  0  0  0  0  0  0  0  0  0  0
   56.8707   29.1283   42.5717 H   0  0  0  0  0  0  0  0  0  0  0  0
   56.6410   27.4440   44.8130 H   0  0  0  0  0  0  0  0  0  0  0  0
   58.0969   25.2002   44.8361 H   0  0  0  0  0  0  0  0  0  0  0  0
   59.6928   25.3842   45.6373 H   0  0  0  0  0  0  0  0  0  0  0  0
   53.7102   23.8857   45.4908 H   0  0  0  0  0  0  0  0  0  0  0  0
   58.0806   29.9584   46.6456 H   0  0  0  0  0  0  0  0  0  0  0  0
  1  2  1  0
  2  3  1  0
  3  4  2  0
  4  5  1  0
  5  6  2  0
  6  7  1  0
  7  8  2  0
  2  9  1  0
  9 10  2  0
  9 11  2  0
  9 12  1  0
 12 13  2  0
 13 14  1  0
 14 15  2  0
 15 16  1  0
 16 17  1  0
 17 18  1  0
 18 19  2  0
 18 20  1  0
 20 21  1  0
 21 22  1  0
 22 23  1  0
 23 24  2  0
 24 25  1  0
 25 26  1  0
 16 27  2  0
  8  3  1  0
 27 12  1  0
 26 22  2  0
  1 28  1  0
  1 29  1  0
  1 30  1  0
  4 31  1  0
  5 32  1  0
  6 33  1  0
  7 34  1  0
  8 35  1  0
 13 36  1  0
 14 37  1  0
 15 38  1  0
 17 39  1  0
 20 40  1  0
 20 41  1  0
 24 42  1  0
 27 43  1  0
M  CHG  1  25  -1
M  END
>  <UniqueID>  (65) 
54

>  <SMILES>  (65) 
CN(c1ccccc1)S(=O)(=O)c1cccc(NC(=O)CSc2nc[n-]n2)c1

>  <Energy>  (65) 
79.72409417016262

>  <Genealogy>  (65) 
CN(c1ccccc1)S(=O)(=O)c1cccc(NC(=O)CSc2nc[n-]n2)c1 (protonated)
CN(c1ccccc1)S(=O)(=O)c1cccc(NC(=O)CSc2nc[n-]n2)c1 (3D coordinates assigned)
CN(c1ccccc1)S(=O)(=O)c1cccc(NC(=O)CSc2nc[n-]n2)c1 (optimized conformer: 79.72409417016262 kcal/mol)

>  <smiles>  (65) 
CN(c1ccccc1)S(=O)(=O)c1cccc(NC(=O)CSc2nc[nH]n2)c1

>  <score_type>  (65) 
oracle

>  <origin>  (65) 
adg

>  <m_score__min__energy>  (65) 
-11.449999999999999

>  <m_primary>  (65) 
energy

$$$$
65:0
     RDKit          3D

 46 49  0  0  0  0  0  0  0  0999 V2000
   56.2480   30.0240   43.0850 C   0  0  0  0  0  0  0  0  0  0  0  0
   56.2420   30.1170   44.5060 O   0  0  0  0  0  0  0  0  0  0  0  0
   57.2560   29.6270   45.3460 C   0  0  0  0  0  0  0  0  0  0  0  0
   57.3670   28.2530   45.6350 C   0  0  0  0  0  0  0  0  0  0  0  0
   58.3650   27.7770   46.4880 C   0  0  0  0  0  0  0  0  0  0  0  0
   58.3800   26.3840   46.8320 N   0  0  0  0  0  0  0  0  0  0  0  0
   57.2320   25.5280   46.8590 C   0  0  0  0  0  0  0  0  0  0  0  0
   56.0850   26.0390   46.7760 O   0  0  0  0  0  0  0  0  0  0  0  0
   57.3690   24.0660   46.9210 C   0  0  0  0  0  0  0  0  0  0  0  0
   57.7350   23.2220   45.8940 C   0  0  0  0  0  0  0  0  0  0  0  0
   57.6270   21.9750   46.3850 N   0  0  0  0  0  0  0  0  0  0  0  0
   57.8210   20.7240   45.6570 C   0  0  0  0  0  0  0  0  0  0  0  0
   56.6640   20.4570   44.6900 C   0  0  0  0  0  0  0  0  0  0  0  0
   55.9170   21.6770   44.3890 N   0  0  0  0  0  0  0  0  0  0  0  0
   55.0200   22.2810   45.1960 C   0  0  0  0  0  0  0  0  0  0  0  0
   54.4990   23.3500   44.5030 C   0  0  0  0  0  0  0  0  0  0  0  0
   53.5240   24.2840   44.9740 N   0  0  0  0  0  0  0  0  0  0  0  0
   53.8730   25.2870   45.6290 O   0  0  0  0  0  0  0  0  0  0  0  0
   52.1890   24.0790   44.7140 O   0  0  0  0  0  0  0  0  0  0  0  0
   55.1040   23.3330   43.2630 C   0  0  0  0  0  0  0  0  0  0  0  0
   55.9680   22.2980   43.2190 N   0  0  0  0  0  0  0  0  0  0  0  0
   57.2200   22.0500   47.6420 N   0  0  0  0  0  0  0  0  0  0  0  0
   57.0490   23.3160   47.9960 N   0  0  0  0  0  0  0  0  0  0  0  0
   59.2710   28.6820   47.0600 C   0  0  0  0  0  0  0  0  0  0  0  0
   59.1740   30.0460   46.7860 C   0  0  0  0  0  0  0  0  0  0  0  0
   60.0900   30.8840   47.3360 F   0  0  0  0  0  0  0  0  0  0  0  0
   58.1650   30.5370   45.9330 C   0  0  0  0  0  0  0  0  0  0  0  0
   58.0650   31.9950   45.6680 C   0  0  0  0  0  0  0  0  0  0  0  0
   58.1850   32.6490   44.4580 C   0  0  0  0  0  0  0  0  0  0  0  0
   58.0480   33.9730   44.6560 N   0  0  0  0  0  0  0  0  0  0  0  0
   57.8450   34.1890   45.9470 N   0  0  0  0  0  0  0  0  0  0  0  0
   57.8530   33.0040   46.5860 C   0  0  0  0  0  0  0  0  0  0  0  0
   56.3162   28.9673   42.7870 H   0  0  0  0  0  0  0  0  0  0  0  0
   55.3199   30.4586   42.6852 H   0  0  0  0  0  0  0  0  0  0  0  0
   57.1125   30.5742   42.6852 H   0  0  0  0  0  0  0  0  0  0  0  0
   56.6575   27.5447   45.1823 H   0  0  0  0  0  0  0  0  0  0  0  0
   58.0507   23.5099   44.8804 H   0  0  0  0  0  0  0  0  0  0  0  0
   58.7589   20.7839   45.0855 H   0  0  0  0  0  0  0  0  0  0  0  0
   57.8609   19.9011   46.3859 H   0  0  0  0  0  0  0  0  0  0  0  0
   57.0699   20.0475   43.7532 H   0  0  0  0  0  0  0  0  0  0  0  0
   55.9764   19.7435   45.1675 H   0  0  0  0  0  0  0  0  0  0  0  0
   54.7542   21.9755   46.2188 H   0  0  0  0  0  0  0  0  0  0  0  0
   54.9135   24.0449   42.4463 H   0  0  0  0  0  0  0  0  0  0  0  0
   60.0629   28.3137   47.7288 H   0  0  0  0  0  0  0  0  0  0  0  0
   58.3641   32.1648   43.4867 H   0  0  0  0  0  0  0  0  0  0  0  0
   57.7129   32.8623   47.6678 H   0  0  0  0  0  0  0  0  0  0  0  0
  1  2  1  0
  2  3  1  0
  3  4  2  0
  4  5  1  0
  5  6  1  0
  6  7  1  0
  7  8  2  0
  7  9  1  0
  9 10  2  0
 10 11  1  0
 11 12  1  0
 12 13  1  0
 13 14  1  0
 14 15  1  0
 15 16  2  0
 16 17  1  0
 17 18  2  0
 17 19  1  0
 16 20  1  0
 20 21  2  0
 11 22  1  0
 22 23  2  0
  5 24  2  0
 24 25  1  0
 25 26  1  0
 25 27  2  0
 27 28  1  0
 28 29  1  0
 29 30  2  0
 30 31  1  0
 31 32  1  0
 27  3  1  0
 32 28  2  0
 23  9  1  0
 21 14  1  0
  1 33  1  0
  1 34  1  0
  1 35  1  0
  4 36  1  0
 10 37  1  0
 12 38  1  0
 12 39  1  0
 13 40  1  0
 13 41  1  0
 15 42  1  0
 20 43  1  0
 24 44  1  0
 29 45  1  0
 32 46  1  0
M  CHG  4   6  -1  17   1  19  -1  31  -1
M  END
>  <UniqueID>  (66) 
55

>  <SMILES>  (66) 
COc1cc([N-]C(=O)c2cn(CCn3cc([N+](=O)[O-])cn3)nn2)cc(F)c1-c1cn[n-]c1

>  <Energy>  (66) 
148.408824211977

>  <Genealogy>  (66) 
COc1cc([N-]C(=O)c2cn(CCn3cc([N+](=O)[O-])cn3)nn2)cc(F)c1-c1cn[n-]c1 (protonated)
COc1cc([N-]C(=O)c2cn(CCn3cc([N+](=O)[O-])cn3)nn2)cc(F)c1-c1cn[n-]c1 (3D coordinates assigned)
COc1cc([N-]C(=O)c2cn(CCn3cc([N+](=O)[O-])cn3)nn2)cc(F)c1-c1cn[n-]c1 (optimized conformer: 148.408824211977 kcal/mol)

>  <smiles>  (66) 
COc1cc(NC(=O)c2cn(CCn3cc([N+](=O)[O-])cn3)nn2)cc(F)c1-c1cn[nH]c1

>  <score_type>  (66) 
oracle

>  <origin>  (66) 
adg

>  <m_score__min__energy>  (66) 
-11.77

>  <m_primary>  (66) 
energy

$$$$
66:0
     RDKit          3D

 21 22  0  0  0  0  0  0  0  0999 V2000
   55.1440   26.7150   46.0040 N   0  0  0  0  0  0  0  0  0  0  0  0
   56.3430   25.4870   46.2080 S   0  0  0  0  0  0  0  0  0  0  0  0
   55.8140   24.3840   47.0810 O   0  0  0  0  0  0  0  0  0  0  0  0
   56.6860   24.9150   44.8620 O   0  0  0  0  0  0  0  0  0  0  0  0
   57.7780   26.1650   46.9070 N   0  0  0  0  0  0  0  0  0  0  0  0
   58.1520   27.5480   46.8710 C   0  0  0  0  0  0  0  0  0  0  0  0
   58.8870   28.1740   47.9050 C   0  0  0  0  0  0  0  0  0  0  0  0
   59.2300   29.5420   47.8160 C   0  0  0  0  0  0  0  0  0  0  0  0
   58.8460   30.3030   46.7000 C   0  0  0  0  0  0  0  0  0  0  0  0
   58.1250   29.6640   45.6950 C   0  0  0  0  0  0  0  0  0  0  0  0
   57.6200   30.1370   44.5030 C   0  0  0  0  0  0  0  0  0  0  0  0
   57.7500   31.9090   43.8050 Br  0  0  0  0  0  0  0  0  0  0  0  0
   56.9900   29.0530   43.9050 C   0  0  0  0  0  0  0  0  0  0  0  0
   57.0960   27.9550   44.6860 N   0  0  0  0  0  0  0  0  0  0  0  0
   57.7900   28.3360   45.7740 C   0  0  0  0  0  0  0  0  0  0  0  0
   55.1960   27.0440   45.0150 H   0  0  0  0  0  0  0  0  0  0  0  0
   59.1941   27.5910   48.7858 H   0  0  0  0  0  0  0  0  0  0  0  0
   59.8025   30.0147   48.6276 H   0  0  0  0  0  0  0  0  0  0  0  0
   59.1063   31.3689   46.6224 H   0  0  0  0  0  0  0  0  0  0  0  0
   56.4769   29.0839   42.9325 H   0  0  0  0  0  0  0  0  0  0  0  0
   56.7140   27.0050   44.4790 H   0  0  0  0  0  0  0  0  0  0  0  0
  1  2  1  0
  2  3  2  0
  2  4  2  0
  2  5  1  0
  5  6  1  0
  6  7  2  0
  7  8  1  0
  8  9  2  0
  9 10  1  0
 10 11  1  0
 11 12  1  0
 11 13  2  0
 13 14  1  0
 14 15  1  0
 15  6  1  0
 15 10  2  0
  1 16  1  0
  7 17  1  0
  8 18  1  0
  9 19  1  0
 13 20  1  0
 14 21  1  0
M  CHG  2   1  -1   5  -1
M  END
>  <UniqueID>  (67) 
56

>  <SMILES>  (67) 
[NH-]S(=O)(=O)[N-]c1cccc2c(Br)c[nH]c12

>  <Energy>  (67) 
55.798046848054994

>  <Genealogy>  (67) 
[NH-]S(=O)(=O)[N-]c1cccc2c(Br)c[nH]c12 (protonated)
[NH-]S(=O)(=O)[N-]c1cccc2c(Br)c[nH]c12 (3D coordinates assigned)
[NH-]S(=O)(=O)[N-]c1cccc2c(Br)c[nH]c12 (optimized conformer: 55.798046848054994 kcal/mol)

>  <smiles>  (67) 
NS(=O)(=O)Nc1cccc2c(Br)c[nH]c12

>  <score_type>  (67) 
oracle

>  <origin>  (67) 
adg

>  <m_score__min__energy>  (67) 
-11.710000000000001

>  <m_primary>  (67) 
energy

$$$$
67:0
     RDKit          3D

 42 43  0  0  0  0  0  0  0  0999 V2000
   57.6680   25.2270   44.9170 C   0  0  0  0  0  0  0  0  0  0  0  0
   56.6100   25.9150   46.1750 S   0  0  0  0  0  0  0  0  0  0  0  0
   57.3790   26.1640   47.4420 O   0  0  0  0  0  0  0  0  0  0  0  0
   55.5190   24.9230   46.4610 O   0  0  0  0  0  0  0  0  0  0  0  0
   55.8810   27.3860   45.6150 N   0  0  0  0  0  0  0  0  0  0  0  0
   56.5460   28.6030   45.2410 C   0  0  0  0  0  0  0  0  0  0  0  0
   55.7840   29.5950   44.6110 C   0  0  0  0  0  0  0  0  0  0  0  0
   56.3670   30.7990   44.2100 C   0  0  0  0  0  0  0  0  0  0  0  0
   57.7320   31.0380   44.4350 C   0  0  0  0  0  0  0  0  0  0  0  0
   58.3470   32.3160   44.0030 C   0  0  0  0  0  0  0  0  0  0  0  0
   58.4490   32.5750   42.7720 O   0  0  0  0  0  0  0  0  0  0  0  0
   58.8390   33.2580   44.9670 N   0  0  0  0  0  0  0  0  0  0  0  0
   59.2090   34.6220   44.5950 C   0  0  0  0  0  0  0  0  0  0  0  0
   59.5180   35.4120   45.8260 C   0  0  0  0  0  0  0  0  0  0  0  0
   60.0660   36.5420   45.7280 O   0  0  0  0  0  0  0  0  0  0  0  0
   59.2880   34.8230   47.1080 N   0  0  0  0  0  0  0  0  0  0  0  0
   60.3660   34.4150   48.0020 C   0  0  0  0  0  0  0  0  0  0  0  0
   60.5370   32.9150   47.9370 C   0  0  0  0  0  0  0  0  0  0  0  0
   59.4260   32.1020   48.2310 C   0  0  0  0  0  0  0  0  0  0  0  0
   59.5160   30.7120   48.1320 C   0  0  0  0  0  0  0  0  0  0  0  0
   60.7150   30.1160   47.7420 C   0  0  0  0  0  0  0  0  0  0  0  0
   61.8270   30.9070   47.4480 C   0  0  0  0  0  0  0  0  0  0  0  0
   61.7490   32.3040   47.5400 C   0  0  0  0  0  0  0  0  0  0  0  0
   63.1890   33.2360   47.1430 Cl  0  0  0  0  0  0  0  0  0  0  0  0
   58.4920   30.0600   45.0990 C   0  0  0  0  0  0  0  0  0  0  0  0
   57.9090   28.8530   45.5010 C   0  0  0  0  0  0  0  0  0  0  0  0
   58.6810   27.9710   46.1810 F   0  0  0  0  0  0  0  0  0  0  0  0
   58.4995   24.6863   45.3926 H   0  0  0  0  0  0  0  0  0  0  0  0
   57.0892   24.5321   44.2909 H   0  0  0  0  0  0  0  0  0  0  0  0
   58.0684   26.0379   44.2909 H   0  0  0  0  0  0  0  0  0  0  0  0
   54.7127   29.4236   44.4297 H   0  0  0  0  0  0  0  0  0  0  0  0
   55.7526   31.5652   43.7145 H   0  0  0  0  0  0  0  0  0  0  0  0
   58.9790   32.9440   45.9560 H   0  0  0  0  0  0  0  0  0  0  0  0
   60.0957   34.5962   43.9446 H   0  0  0  0  0  0  0  0  0  0  0  0
   58.3723   35.0938   44.0590 H   0  0  0  0  0  0  0  0  0  0  0  0
   61.3020   34.9040   47.6941 H   0  0  0  0  0  0  0  0  0  0  0  0
   60.1183   34.7105   49.0322 H   0  0  0  0  0  0  0  0  0  0  0  0
   58.4782   32.5660   48.5416 H   0  0  0  0  0  0  0  0  0  0  0  0
   58.6406   30.0868   48.3618 H   0  0  0  0  0  0  0  0  0  0  0  0
   60.7846   29.0208   47.6659 H   0  0  0  0  0  0  0  0  0  0  0  0
   62.7705   30.4313   47.1422 H   0  0  0  0  0  0  0  0  0  0  0  0
   59.5566   30.2452   45.3049 H   0  0  0  0  0  0  0  0  0  0  0  0
  1  2  1  0
  2  3  2  0
  2  4  2  0
  2  5  1  0
  5  6  1  0
  6  7  2  0
  7  8  1  0
  8  9  2  0
  9 10  1  0
 10 11  2  0
 10 12  1  0
 12 13  1  0
 13 14  1  0
 14 15  2  0
 14 16  1  0
 16 17  1  0
 17 18  1  0
 18 19  2  0
 19 20  1  0
 20 21  2  0
 21 22  1  0
 22 23  2  0
 23 24  1  0
  9 25  1  0
 25 26  2  0
 26 27  1  0
 26  6  1  0
 23 18  1  0
  1 28  1  0
  1 29  1  0
  1 30  1  0
  7 31  1  0
  8 32  1  0
 12 33  1  0
 13 34  1  0
 13 35  1  0
 17 36  1  0
 17 37  1  0
 19 38  1  0
 20 39  1  0
 21 40  1  0
 22 41  1  0
 25 42  1  0
M  CHG  2   5  -1  16  -1
M  END
>  <UniqueID>  (68) 
57

>  <SMILES>  (68) 
CS(=O)(=O)[N-]c1ccc(C(=O)NCC(=O)[N-]Cc2ccccc2Cl)cc1F

>  <Energy>  (68) 
42.99161613535602

>  <Genealogy>  (68) 
CS(=O)(=O)[N-]c1ccc(C(=O)NCC(=O)[N-]Cc2ccccc2Cl)cc1F (protonated)
CS(=O)(=O)[N-]c1ccc(C(=O)NCC(=O)[N-]Cc2ccccc2Cl)cc1F (3D coordinates assigned)
CS(=O)(=O)[N-]c1ccc(C(=O)NCC(=O)[N-]Cc2ccccc2Cl)cc1F (optimized conformer: 42.99161613535602 kcal/mol)

>  <smiles>  (68) 
CS(=O)(=O)Nc1ccc(C(=O)NCC(=O)NCc2ccccc2Cl)cc1F

>  <score_type>  (68) 
oracle

>  <origin>  (68) 
adg

>  <m_score__min__energy>  (68) 
-10.74

>  <m_primary>  (68) 
energy

$$$$
68:0
     RDKit          3D

 46 48  0  0  0  0  0  0  0  0999 V2000
   59.0590   28.1930   44.6970 C   0  0  0  0  0  0  0  0  0  0  0  0
   57.8170   27.9910   45.4540 N   0  0  0  0  0  0  0  0  0  0  0  0
   56.6750   28.9020   45.2560 C   0  0  0  0  0  0  0  0  0  0  0  0
   56.9660   30.0170   44.2670 C   0  0  0  0  0  0  0  0  0  0  0  0
   56.4030   29.9040   42.9780 C   0  0  0  0  0  0  0  0  0  0  0  0
   56.6580   30.8570   41.9960 C   0  0  0  0  0  0  0  0  0  0  0  0
   57.4770   31.9460   42.2750 C   0  0  0  0  0  0  0  0  0  0  0  0
   58.0390   32.0880   43.5430 C   0  0  0  0  0  0  0  0  0  0  0  0
   57.7890   31.1450   44.5600 C   0  0  0  0  0  0  0  0  0  0  0  0
   58.4250   31.3950   45.8800 C   0  0  0  0  0  0  0  0  0  0  0  0
   59.5470   30.8700   46.1150 O   0  0  0  0  0  0  0  0  0  0  0  0
   57.8720   32.3370   46.8130 N   0  0  0  0  0  0  0  0  0  0  0  0
   58.5930   32.8070   47.9680 C   0  0  0  0  0  0  0  0  0  0  0  0
   58.5180   32.0560   49.1530 C   0  0  0  0  0  0  0  0  0  0  0  0
   59.1990   32.4640   50.3010 C   0  0  0  0  0  0  0  0  0  0  0  0
   59.9750   33.6230   50.2780 C   0  0  0  0  0  0  0  0  0  0  0  0
   60.0780   34.3700   49.1020 C   0  0  0  0  0  0  0  0  0  0  0  0
   59.4010   33.9700   47.9420 C   0  0  0  0  0  0  0  0  0  0  0  0
   59.6980   35.0070   46.3580 Br  0  0  0  0  0  0  0  0  0  0  0  0
   57.6720   26.7610   46.2040 C   0  0  0  0  0  0  0  0  0  0  0  0
   58.1880   26.6660   47.3510 O   0  0  0  0  0  0  0  0  0  0  0  0
   56.9330   25.5960   45.6780 C   0  0  0  0  0  0  0  0  0  0  0  0
   57.6460   24.4870   45.1930 C   0  0  0  0  0  0  0  0  0  0  0  0
   56.9640   23.3700   44.7020 C   0  0  0  0  0  0  0  0  0  0  0  0
   55.5690   23.3570   44.6760 C   0  0  0  0  0  0  0  0  0  0  0  0
   54.8510   24.4680   45.1260 C   0  0  0  0  0  0  0  0  0  0  0  0
   55.5260   25.5920   45.6170 C   0  0  0  0  0  0  0  0  0  0  0  0
   54.7950   26.7050   46.0180 O   0  0  0  0  0  0  0  0  0  0  0  0
   59.8968   28.3293   45.3967 H   0  0  0  0  0  0  0  0  0  0  0  0
   59.2495   27.3140   44.0636 H   0  0  0  0  0  0  0  0  0  0  0  0
   58.9611   29.0870   44.0636 H   0  0  0  0  0  0  0  0  0  0  0  0
   55.8214   28.3171   44.8828 H   0  0  0  0  0  0  0  0  0  0  0  0
   56.4593   29.3728   46.2265 H   0  0  0  0  0  0  0  0  0  0  0  0
   55.7518   29.0486   42.7453 H   0  0  0  0  0  0  0  0  0  0  0  0
   56.2107   30.7486   40.9969 H   0  0  0  0  0  0  0  0  0  0  0  0
   57.6812   32.6949   41.4956 H   0  0  0  0  0  0  0  0  0  0  0  0
   58.6885   32.9506   43.7531 H   0  0  0  0  0  0  0  0  0  0  0  0
   57.1310   32.9750   46.4490 H   0  0  0  0  0  0  0  0  0  0  0  0
   57.9157   31.1359   49.1763 H   0  0  0  0  0  0  0  0  0  0  0  0
   59.1237   31.8712   51.2245 H   0  0  0  0  0  0  0  0  0  0  0  0
   60.5054   33.9485   51.1851 H   0  0  0  0  0  0  0  0  0  0  0  0
   60.6958   35.2800   49.0864 H   0  0  0  0  0  0  0  0  0  0  0  0
   58.7459   24.4977   45.1997 H   0  0  0  0  0  0  0  0  0  0  0  0
   57.5281   22.4997   44.3355 H   0  0  0  0  0  0  0  0  0  0  0  0
   55.0343   22.4718   44.3011 H   0  0  0  0  0  0  0  0  0  0  0  0
   53.7515   24.4595   45.0944 H   0  0  0  0  0  0  0  0  0  0  0  0
  1  2  1  0
  2  3  1  0
  3  4  1  0
  4  5  2  0
  5  6  1  0
  6  7  2  0
  7  8  1  0
  8  9  2  0
  9 10  1  0
 10 11  2  0
 10 12  1  0
 12 13  1  0
 13 14  2  0
 14 15  1  0
 15 16  2  0
 16 17  1  0
 17 18  2  0
 18 19  1  0
  2 20  1  0
 20 21  2  0
 20 22  1  0
 22 23  2  0
 23 24  1  0
 24 25  2  0
 25 26  1  0
 26 27  2  0
 27 28  1  0
  9  4  1  0
 18 13  1  0
 27 22  1  0
  1 29  1  0
  1 30  1  0
  1 31  1  0
  3 32  1  0
  3 33  1  0
  5 34  1  0
  6 35  1  0
  7 36  1  0
  8 37  1  0
 12 38  1  0
 14 39  1  0
 15 40  1  0
 16 41  1  0
 17 42  1  0
 23 43  1  0
 24 44  1  0
 25 45  1  0
 26 46  1  0
M  CHG  1  28  -1
M  END
>  <UniqueID>  (69) 
58

>  <SMILES>  (69) 
CN(Cc1ccccc1C(=O)Nc1ccccc1Br)C(=O)c1ccccc1[O-]

>  <Energy>  (69) 
67.65481522533418

>  <Genealogy>  (69) 
CN(Cc1ccccc1C(=O)Nc1ccccc1Br)C(=O)c1ccccc1[O-] (protonated)
CN(Cc1ccccc1C(=O)Nc1ccccc1Br)C(=O)c1ccccc1[O-] (3D coordinates assigned)
CN(Cc1ccccc1C(=O)Nc1ccccc1Br)C(=O)c1ccccc1[O-] (optimized conformer: 67.65481522533418 kcal/mol)

>  <smiles>  (69) 
CN(Cc1ccccc1C(=O)Nc1ccccc1Br)C(=O)c1ccccc1O

>  <score_type>  (69) 
oracle

>  <origin>  (69) 
adg

>  <m_score__min__energy>  (69) 
-12.619999999999999

>  <m_primary>  (69) 
energy

$$$$
69:0
     RDKit          3D

 36 37  0  0  0  0  0  0  0  0999 V2000
   54.7690   26.3290   45.9770 N   0  0  0  0  0  0  0  0  0  0  0  0
   56.4480   25.9400   45.8510 S   0  0  0  0  0  0  0  0  0  0  0  0
   56.6200   24.8410   44.8390 O   0  0  0  0  0  0  0  0  0  0  0  0
   56.9580   25.4610   47.1810 O   0  0  0  0  0  0  0  0  0  0  0  0
   57.3490   27.3700   45.3590 C   0  0  0  0  0  0  0  0  0  0  0  0
   58.7040   27.2780   45.0110 C   0  0  0  0  0  0  0  0  0  0  0  0
   59.4120   28.4250   44.6420 C   0  0  0  0  0  0  0  0  0  0  0  0
   58.7690   29.6640   44.6020 C   0  0  0  0  0  0  0  0  0  0  0  0
   57.4020   29.7600   44.9110 C   0  0  0  0  0  0  0  0  0  0  0  0
   56.7120   31.0170   44.8680 N   0  0  0  0  0  0  0  0  0  0  0  0
   57.3020   32.3170   45.0190 C   0  0  0  0  0  0  0  0  0  0  0  0
   57.3960   33.0610   44.0080 O   0  0  0  0  0  0  0  0  0  0  0  0
   57.8430   32.8090   46.3330 C   0  0  0  0  0  0  0  0  0  0  0  0
   58.0920   34.2420   46.2640 N   0  0  0  0  0  0  0  0  0  0  0  0
   59.4010   34.8080   46.1540 C   0  0  0  0  0  0  0  0  0  0  0  0
   59.6090   35.7490   45.3410 O   0  0  0  0  0  0  0  0  0  0  0  0
   60.5020   34.3010   47.0050 C   0  0  0  0  0  0  0  0  0  0  0  0
   60.3520   34.2340   48.4030 C   0  0  0  0  0  0  0  0  0  0  0  0
   61.3900   33.7520   49.2040 C   0  0  0  0  0  0  0  0  0  0  0  0
   62.5910   33.3400   48.6240 C   0  0  0  0  0  0  0  0  0  0  0  0
   62.7600   33.4050   47.2390 C   0  0  0  0  0  0  0  0  0  0  0  0
   63.9700   33.0060   46.6760 O   0  0  0  0  0  0  0  0  0  0  0  0
   61.7160   33.8760   46.4300 C   0  0  0  0  0  0  0  0  0  0  0  0
   56.7050   28.6150   45.3130 C   0  0  0  0  0  0  0  0  0  0  0  0
   54.6860   27.0860   46.6940 H   0  0  0  0  0  0  0  0  0  0  0  0
   59.2105   26.3017   45.0284 H   0  0  0  0  0  0  0  0  0  0  0  0
   60.4784   28.3517   44.3824 H   0  0  0  0  0  0  0  0  0  0  0  0
   59.3343   30.5669   44.3279 H   0  0  0  0  0  0  0  0  0  0  0  0
   57.1107   32.6044   47.1280 H   0  0  0  0  0  0  0  0  0  0  0  0
   58.7870   32.2887   46.5523 H   0  0  0  0  0  0  0  0  0  0  0  0
   59.4111   34.5634   48.8679 H   0  0  0  0  0  0  0  0  0  0  0  0
   61.2606   33.6969   50.2950 H   0  0  0  0  0  0  0  0  0  0  0  0
   63.4062   32.9633   49.2592 H   0  0  0  0  0  0  0  0  0  0  0  0
   64.6120   32.4000   47.1740 H   0  0  0  0  0  0  0  0  0  0  0  0
   61.8458   33.9139   45.3383 H   0  0  0  0  0  0  0  0  0  0  0  0
   55.6445   28.6920   45.5949 H   0  0  0  0  0  0  0  0  0  0  0  0
  1  2  1  0
  2  3  2  0
  2  4  2  0
  2  5  1  0
  5  6  2  0
  6  7  1  0
  7  8  2  0
  8  9  1  0
  9 10  1  0
 10 11  1  0
 11 12  2  0
 11 13  1  0
 13 14  1  0
 14 15  1  0
 15 16  2  0
 15 17  1  0
 17 18  2  0
 18 19  1  0
 19 20  2  0
 20 21  1  0
 21 22  1  0
 21 23  2  0
  9 24  2  0
 24  5  1  0
 23 17  1  0
  1 25  1  0
  6 26  1  0
  7 27  1  0
  8 28  1  0
 13 29  1  0
 13 30  1  0
 18 31  1  0
 19 32  1  0
 20 33  1  0
 22 34  1  0
 23 35  1  0
 24 36  1  0
M  CHG  3   1  -1  10  -1  14  -1
M  END
>  <UniqueID>  (70) 
59

>  <SMILES>  (70) 
[NH-]S(=O)(=O)c1cccc([N-]C(=O)C[N-]C(=O)c2cccc(O)c2)c1

>  <Energy>  (70) 
36.98501186644536

>  <Genealogy>  (70) 
[NH-]S(=O)(=O)c1cccc([N-]C(=O)C[N-]C(=O)c2cccc(O)c2)c1 (protonated)
[NH-]S(=O)(=O)c1cccc([N-]C(=O)C[N-]C(=O)c2cccc(O)c2)c1 (3D coordinates assigned)
[NH-]S(=O)(=O)c1cccc([N-]C(=O)C[N-]C(=O)c2cccc(O)c2)c1 (optimized conformer: 36.98501186644536 kcal/mol)

>  <smiles>  (70) 
NS(=O)(=O)c1cccc(NC(=O)CNC(=O)c2cccc(O)c2)c1

>  <score_type>  (70) 
oracle

>  <origin>  (70) 
adg

>  <m_score__min__energy>  (70) 
-13.43

>  <m_primary>  (70) 
energy

$$$$
70:0
     RDKit          3D

 20 21  0  0  1  0  0  0  0  0999 V2000
   56.6260   30.4590   43.0670 C   0  0  0  0  0  0  0  0  0  0  0  0
   56.4640   30.3320   44.5060 N   0  0  0  0  0  0  0  0  0  0  0  0
   56.9120   29.2800   45.1180 C   0  0  0  0  0  0  0  0  0  0  0  0
   58.1910   29.2850   45.6260 C   0  0  0  0  0  0  0  0  0  0  0  0
   58.6740   28.1470   46.2860 C   0  0  0  0  0  0  0  0  0  0  0  0
   57.8380   27.0570   46.4010 C   0  0  0  0  0  0  0  0  0  0  0  0
   58.3340   25.9790   47.0410 N   0  0  0  0  0  0  0  0  0  0  0  0
   57.5450   24.8940   47.1730 C   0  0  0  0  0  0  0  0  0  0  0  0
   56.2630   24.9060   46.6550 C   0  0  0  0  0  0  0  0  0  0  0  0
   55.7550   25.9870   46.0100 N   0  0  0  0  0  0  0  0  0  0  0  0
   56.5560   27.0850   45.8780 C   0  0  0  0  0  0  0  0  0  0  0  0
   56.1010   28.1990   45.2380 N   0  0  0  0  0  0  0  0  0  0  0  0
   57.4748   31.1244   42.8509 H   0  0  0  0  0  0  0  0  0  0  0  0
   56.8170   29.4675   42.6306 H   0  0  0  0  0  0  0  0  0  0  0  0
   55.7088   30.8812   42.6306 H   0  0  0  0  0  0  0  0  0  0  0  0
   58.8286   30.1745   45.5150 H   0  0  0  0  0  0  0  0  0  0  0  0
   59.6925   28.1242   46.7010 H   0  0  0  0  0  0  0  0  0  0  0  0
   57.9206   24.0000   47.6923 H   0  0  0  0  0  0  0  0  0  0  0  0
   55.6344   24.0105   46.7693 H   0  0  0  0  0  0  0  0  0  0  0  0
   55.1420   28.1630   44.8720 H   0  0  0  0  0  0  0  0  0  0  0  0
  1  2  1  0
  2  3  2  0
  3  4  1  0
  4  5  2  0
  5  6  1  0
  6  7  2  0
  7  8  1  0
  8  9  2  0
  9 10  1  0
 10 11  2  0
 11 12  1  0
 12  3  1  0
 11  6  1  0
  1 13  1  0
  1 14  1  0
  1 15  1  0
  4 16  1  0
  5 17  1  0
  8 18  1  0
  9 19  1  0
 12 20  1  0
M  END
>  <smiles>  (71) 
CN=c1ccc2nccnc2[nH]1

>  <score_type>  (71) 
oracle

>  <origin>  (71) 
adg

>  <m_score__min__energy>  (71) 
-5.3399999999999999

>  <m_primary>  (71) 
energy

$$$$
71:0
     RDKit          3D

 33 34  0  0  0  0  0  0  0  0999 V2000
   55.0600   26.3470   45.9930 N   0  0  0  0  0  0  0  0  0  0  0  0
   56.7690   26.5040   45.7900 S   0  0  0  0  0  0  0  0  0  0  0  0
   57.2480   25.5160   44.7650 O   0  0  0  0  0  0  0  0  0  0  0  0
   57.4390   26.2240   47.1060 O   0  0  0  0  0  0  0  0  0  0  0  0
   57.1560   28.1360   45.2550 C   0  0  0  0  0  0  0  0  0  0  0  0
   56.1280   29.0250   44.9140 C   0  0  0  0  0  0  0  0  0  0  0  0
   56.4320   30.3180   44.4790 C   0  0  0  0  0  0  0  0  0  0  0  0
   57.7690   30.7410   44.3800 C   0  0  0  0  0  0  0  0  0  0  0  0
   58.0840   32.0640   43.9040 N   0  0  0  0  0  0  0  0  0  0  0  0
   58.2400   32.9540   45.0230 C   0  0  0  0  0  0  0  0  0  0  0  0
   57.0500   34.0400   45.3650 S   0  0  0  0  0  0  0  0  0  0  0  0
   59.3840   32.8130   45.8860 N   0  0  0  0  0  0  0  0  0  0  0  0
   59.6430   33.6630   47.0490 C   0  0  0  0  0  0  0  0  0  0  0  0
   61.0720   33.5350   47.4740 C   0  0  0  0  0  0  0  0  0  0  0  0
   61.6570   34.1770   48.5460 C   0  0  0  0  0  0  0  0  0  0  0  0
   62.9710   33.7610   48.5560 C   0  0  0  0  0  0  0  0  0  0  0  0
   63.1040   32.8910   47.4920 C   0  0  0  0  0  0  0  0  0  0  0  0
   61.9540   32.7760   46.8670 O   0  0  0  0  0  0  0  0  0  0  0  0
   58.7960   29.8400   44.7120 C   0  0  0  0  0  0  0  0  0  0  0  0
   58.4910   28.5470   45.1470 C   0  0  0  0  0  0  0  0  0  0  0  0
   54.7620   27.0900   46.6640 H   0  0  0  0  0  0  0  0  0  0  0  0
   55.0785   28.7043   44.9889 H   0  0  0  0  0  0  0  0  0  0  0  0
   55.6193   31.0096   44.2122 H   0  0  0  0  0  0  0  0  0  0  0  0
   58.9680   32.0480   43.3460 H   0  0  0  0  0  0  0  0  0  0  0  0
   57.3250   32.4090   43.2700 H   0  0  0  0  0  0  0  0  0  0  0  0
   60.0790   32.0640   45.6710 H   0  0  0  0  0  0  0  0  0  0  0  0
   59.4342   34.7108   46.7871 H   0  0  0  0  0  0  0  0  0  0  0  0
   58.9922   33.3463   47.8774 H   0  0  0  0  0  0  0  0  0  0  0  0
   61.1753   34.8751   49.2465 H   0  0  0  0  0  0  0  0  0  0  0  0
   63.7546   34.0611   49.2672 H   0  0  0  0  0  0  0  0  0  0  0  0
   64.0324   32.3726   47.2102 H   0  0  0  0  0  0  0  0  0  0  0  0
   59.8467   30.1547   44.6289 H   0  0  0  0  0  0  0  0  0  0  0  0
   59.3018   27.8500   45.4053 H   0  0  0  0  0  0  0  0  0  0  0  0
  1  2  1  0
  2  3  2  0
  2  4  2  0
  2  5  1  0
  5  6  2  0
  6  7  1  0
  7  8  2  0
  8  9  1  0
  9 10  1  0
 10 11  2  0
 10 12  1  0
 12 13  1  0
 13 14  1  0
 14 15  2  0
 15 16  1  0
 16 17  2  0
 17 18  1  0
  8 19  1  0
 19 20  2  0
 20  5  1  0
 18 14  1  0
  1 21  1  0
  6 22  1  0
  7 23  1  0
  9 24  1  0
  9 25  1  0
 12 26  1  0
 13 27  1  0
 13 28  1  0
 15 29  1  0
 16 30  1  0
 17 31  1  0
 19 32  1  0
 20 33  1  0
M  CHG  2   1  -1   9   1
M  END
>  <UniqueID>  (72) 
60

>  <SMILES>  (72) 
[NH-]S(=O)(=O)c1ccc([NH2+]C(=S)NCc2ccco2)cc1

>  <Energy>  (72) 
57.555815235187

>  <Genealogy>  (72) 
[NH-]S(=O)(=O)c1ccc([NH2+]C(=S)NCc2ccco2)cc1 (protonated)
[NH-]S(=O)(=O)c1ccc([NH2+]C(=S)NCc2ccco2)cc1 (3D coordinates assigned)
[NH-]S(=O)(=O)c1ccc([NH2+]C(=S)NCc2ccco2)cc1 (optimized conformer: 57.555815235187 kcal/mol)

>  <smiles>  (72) 
NS(=O)(=O)c1ccc(NC(=S)NCc2ccco2)cc1

>  <score_type>  (72) 
oracle

>  <origin>  (72) 
adg

>  <m_score__min__energy>  (72) 
-8.2100000000000009

>  <m_primary>  (72) 
energy

$$$$
72:0
     RDKit          3D

 36 38  0  0  0  0  0  0  0  0999 V2000
   55.5290   28.8480   45.1830 N   0  0  0  0  0  0  0  0  0  0  0  0
   56.7330   29.9590   44.6310 S   0  0  0  0  0  0  0  0  0  0  0  0
   56.2590   31.3670   44.8600 O   0  0  0  0  0  0  0  0  0  0  0  0
   56.9600   29.7600   43.1590 O   0  0  0  0  0  0  0  0  0  0  0  0
   58.2330   29.6840   45.5110 C   0  0  0  0  0  0  0  0  0  0  0  0
   59.4080   29.3670   44.8170 C   0  0  0  0  0  0  0  0  0  0  0  0
   60.6040   29.1740   45.5130 C   0  0  0  0  0  0  0  0  0  0  0  0
   60.6320   29.2920   46.9050 C   0  0  0  0  0  0  0  0  0  0  0  0
   59.4550   29.5860   47.6120 C   0  0  0  0  0  0  0  0  0  0  0  0
   59.4650   29.7550   49.0340 N   0  0  0  0  0  0  0  0  0  0  0  0
   58.6470   30.6600   49.7840 C   0  0  0  0  0  0  0  0  0  0  0  0
   57.7740   30.1840   50.5580 O   0  0  0  0  0  0  0  0  0  0  0  0
   58.9270   32.1410   49.8100 C   0  0  0  0  0  0  0  0  0  0  0  0
   59.4500   32.6010   48.5240 N   0  0  0  0  0  0  0  0  0  0  0  0
   58.7030   33.2170   47.4710 C   0  0  0  0  0  0  0  0  0  0  0  0
   57.4460   33.2660   47.4250 O   0  0  0  0  0  0  0  0  0  0  0  0
   59.6090   33.7710   46.4760 C   0  0  0  0  0  0  0  0  0  0  0  0
   59.2990   34.3760   45.4170 O   0  0  0  0  0  0  0  0  0  0  0  0
   60.9490   33.4870   46.9660 C   0  0  0  0  0  0  0  0  0  0  0  0
   62.1930   33.8090   46.4290 C   0  0  0  0  0  0  0  0  0  0  0  0
   63.3400   33.4250   47.1430 C   0  0  0  0  0  0  0  0  0  0  0  0
   63.2220   32.7380   48.3700 C   0  0  0  0  0  0  0  0  0  0  0  0
   61.9550   32.4260   48.8940 C   0  0  0  0  0  0  0  0  0  0  0  0
   60.8240   32.8120   48.1680 C   0  0  0  0  0  0  0  0  0  0  0  0
   58.2650   29.8090   46.9080 C   0  0  0  0  0  0  0  0  0  0  0  0
   54.6110   29.3430   45.1310 H   0  0  0  0  0  0  0  0  0  0  0  0
   59.3889   29.2698   43.7215 H   0  0  0  0  0  0  0  0  0  0  0  0
   61.5252   28.9287   44.9642 H   0  0  0  0  0  0  0  0  0  0  0  0
   61.5785   29.1542   47.4483 H   0  0  0  0  0  0  0  0  0  0  0  0
   57.9935   32.6792   50.0314 H   0  0  0  0  0  0  0  0  0  0  0  0
   59.6815   32.3402   50.5852 H   0  0  0  0  0  0  0  0  0  0  0  0
   62.2749   34.3482   45.4737 H   0  0  0  0  0  0  0  0  0  0  0  0
   64.3371   33.6614   46.7430 H   0  0  0  0  0  0  0  0  0  0  0  0
   64.1279   32.4444   48.9206 H   0  0  0  0  0  0  0  0  0  0  0  0
   61.8561   31.8919   49.8506 H   0  0  0  0  0  0  0  0  0  0  0  0
   57.3502   30.0837   47.4535 H   0  0  0  0  0  0  0  0  0  0  0  0
  1  2  1  0
  2  3  2  0
  2  4  2  0
  2  5  1  0
  5  6  2  0
  6  7  1  0
  7  8  2  0
  8  9  1  0
  9 10  1  0
 10 11  1  0
 11 12  2  0
 11 13  1  0
 13 14  1  0
 14 15  1  0
 15 16  2  0
 15 17  1  0
 17 18  2  0
 17 19  1  0
 19 20  2  0
 20 21  1  0
 21 22  2  0
 22 23  1  0
 23 24  2  0
  9 25  2  0
 25  5  1  0
 24 14  1  0
 24 19  1  0
  1 26  1  0
  6 27  1  0
  7 28  1  0
  8 29  1  0
 13 30  1  0
 13 31  1  0
 20 32  1  0
 21 33  1  0
 22 34  1  0
 23 35  1  0
 25 36  1  0
M  CHG  2   1  -1  10  -1
M  END
>  <UniqueID>  (73) 
61

>  <SMILES>  (73) 
[NH-]S(=O)(=O)c1cccc([N-]C(=O)CN2C(=O)C(=O)c3ccccc32)c1

>  <Energy>  (73) 
75.11475634537405

>  <Genealogy>  (73) 
[NH-]S(=O)(=O)c1cccc([N-]C(=O)CN2C(=O)C(=O)c3ccccc32)c1 (protonated)
[NH-]S(=O)(=O)c1cccc([N-]C(=O)CN2C(=O)C(=O)c3ccccc32)c1 (3D coordinates assigned)
[NH-]S(=O)(=O)c1cccc([N-]C(=O)CN2C(=O)C(=O)c3ccccc32)c1 (nonaromatic ring conformer: 75.11475634537405 kcal/mol)

>  <smiles>  (73) 
NS(=O)(=O)c1cccc(NC(=O)CN2C(=O)C(=O)c3ccccc32)c1

>  <score_type>  (73) 
oracle

>  <origin>  (73) 
adg

>  <m_score__min__energy>  (73) 
-12.220000000000001

>  <m_primary>  (73) 
energy

$$$$
73:0
     RDKit          3D

 47 48  0  0  0  0  0  0  0  0999 V2000
   56.3720   30.0350   43.1860 C   0  0  0  0  0  0  0  0  0  0  0  0
   56.3490   30.5040   44.5300 O   0  0  0  0  0  0  0  0  0  0  0  0
   57.1670   30.0100   45.5570 C   0  0  0  0  0  0  0  0  0  0  0  0
   58.1190   30.8160   46.2140 C   0  0  0  0  0  0  0  0  0  0  0  0
   58.9140   30.2870   47.2480 C   0  0  0  0  0  0  0  0  0  0  0  0
   59.9340   31.1630   47.9430 C   0  0  0  0  0  0  0  0  0  0  0  0
   60.2420   30.7680   49.3390 N   0  0  0  0  0  0  0  0  0  0  0  0
   61.6610   30.4500   49.6090 C   0  0  0  0  0  0  0  0  0  0  0  0
   62.5090   31.6940   49.9450 C   0  0  0  0  0  0  0  0  0  0  0  0
   61.7780   32.6800   50.7380 N   0  0  0  0  0  0  0  0  0  0  0  0
   60.3650   32.6510   50.9410 C   0  0  0  0  0  0  0  0  0  0  0  0
   59.8340   33.5380   51.6570 O   0  0  0  0  0  0  0  0  0  0  0  0
   59.5770   31.4550   50.4760 C   0  0  1  0  0  0  0  0  0  0  0  0
   58.0350   31.6340   50.3300 C   0  0  0  0  0  0  0  0  0  0  0  0
   57.1510   30.8510   51.2680 C   0  0  0  0  0  0  0  0  0  0  0  0
   57.4530   29.6670   51.5780 O   0  0  0  0  0  0  0  0  0  0  0  0
   56.0330   31.4870   51.8960 N   0  0  0  0  0  0  0  0  0  0  0  0
   54.7870   30.8080   52.2330 C   0  0  0  0  0  0  0  0  0  0  0  0
   53.7830   30.9160   51.0840 C   0  0  0  0  0  0  0  0  0  0  0  0
   52.1340   31.2050   51.7030 S   0  0  0  0  0  0  0  0  0  0  0  0
   51.3760   32.4660   50.7960 N   0  0  0  0  0  0  0  0  0  0  0  0
   51.3280   29.9430   51.5700 O   0  0  0  0  0  0  0  0  0  0  0  0
   52.1970   31.6010   53.1520 O   0  0  0  0  0  0  0  0  0  0  0  0
   58.7580   28.9420   47.6080 C   0  0  0  0  0  0  0  0  0  0  0  0
   57.8190   28.1390   46.9590 C   0  0  0  0  0  0  0  0  0  0  0  0
   57.0270   28.6690   45.9390 C   0  0  0  0  0  0  0  0  0  0  0  0
   56.0940   27.8580   45.3020 O   0  0  0  0  0  0  0  0  0  0  0  0
   56.4259   28.9363   43.1819 H   0  0  0  0  0  0  0  0  0  0  0  0
   55.4569   30.3592   42.6688 H   0  0  0  0  0  0  0  0  0  0  0  0
   57.2510   30.4471   42.6688 H   0  0  0  0  0  0  0  0  0  0  0  0
   58.2416   31.8677   45.9158 H   0  0  0  0  0  0  0  0  0  0  0  0
   60.8680   31.1276   47.3630 H   0  0  0  0  0  0  0  0  0  0  0  0
   59.4945   32.1701   47.9950 H   0  0  0  0  0  0  0  0  0  0  0  0
   61.7077   29.7547   50.4601 H   0  0  0  0  0  0  0  0  0  0  0  0
   62.0774   30.0085   48.6916 H   0  0  0  0  0  0  0  0  0  0  0  0
   63.3946   31.3728   50.5130 H   0  0  0  0  0  0  0  0  0  0  0  0
   62.7858   32.1729   48.9942 H   0  0  0  0  0  0  0  0  0  0  0  0
   59.6050   30.7620   51.3298 H   0  0  0  0  0  0  0  0  0  0  0  0
   57.8115   32.7006   50.4800 H   0  0  0  0  0  0  0  0  0  0  0  0
   57.8007   31.2401   49.3300 H   0  0  0  0  0  0  0  0  0  0  0  0
   54.9966   29.7464   52.4305 H   0  0  0  0  0  0  0  0  0  0  0  0
   54.3552   31.2848   53.1253 H   0  0  0  0  0  0  0  0  0  0  0  0
   54.0733   31.7511   50.4295 H   0  0  0  0  0  0  0  0  0  0  0  0
   53.7870   29.9692   50.5241 H   0  0  0  0  0  0  0  0  0  0  0  0
   50.3450   32.3420   50.9040 H   0  0  0  0  0  0  0  0  0  0  0  0
   59.3805   28.5156   48.4084 H   0  0  0  0  0  0  0  0  0  0  0  0
   57.7026   27.0852   47.2521 H   0  0  0  0  0  0  0  0  0  0  0  0
  1  2  1  0
  2  3  1  0
  3  4  2  0
  4  5  1  0
  5  6  1  0
  6  7  1  0
  7  8  1  0
  8  9  1  0
  9 10  1  0
 10 11  1  0
 11 12  2  0
 11 13  1  0
 13 14  1  0
 14 15  1  0
 15 16  2  0
 15 17  1  0
 17 18  1  0
 18 19  1  0
 19 20  1  0
 20 21  1  0
 20 22  2  0
 20 23  2  0
  5 24  2  0
 24 25  1  0
 25 26  2  0
 26 27  1  0
 26  3  1  0
 13  7  1  0
  1 28  1  0
  1 29  1  0
  1 30  1  0
  4 31  1  0
  6 32  1  0
  6 33  1  0
  8 34  1  0
  8 35  1  0
  9 36  1  0
  9 37  1  0
 13 38  1  1
 14 39  1  0
 14 40  1  0
 18 41  1  0
 18 42  1  0
 19 43  1  0
 19 44  1  0
 21 45  1  0
 24 46  1  0
 25 47  1  0
M  CHG  4  10  -1  17  -1  21  -1  27  -1
M  END
>  <UniqueID>  (74) 
62

>  <SMILES>  (74) 
COc1cc(CN2CC[N-]C(=O)[C@H]2CC(=O)[N-]CCS([NH-])(=O)=O)ccc1[O-]

>  <Energy>  (74) 
56.665370864952315

>  <Genealogy>  (74) 
COc1cc(CN2CC[N-]C(=O)C2CC(=O)[N-]CCS([NH-])(=O)=O)ccc1[O-] (protonated)
COc1cc(CN2CC[N-]C(=O)[C@H]2CC(=O)[N-]CCS([NH-])(=O)=O)ccc1[O-] (chirality)
COc1cc(CN2CC[N-]C(=O)[C@H]2CC(=O)[N-]CCS([NH-])(=O)=O)ccc1[O-] (3D coordinates assigned)
COc1cc(CN2CC[N-]C(=O)[C@H]2CC(=O)[N-]CCS([NH-])(=O)=O)ccc1[O-] (nonaromatic ring conformer: 56.665370864952315 kcal/mol)

>  <smiles>  (74) 
COc1cc(CN2CCNC(=O)C2CC(=O)NCCS(N)(=O)=O)ccc1O

>  <score_type>  (74) 
oracle

>  <origin>  (74) 
adg

>  <m_score__min__energy>  (74) 
-14.640000000000001

>  <m_primary>  (74) 
energy

$$$$
74:0
     RDKit          3D

 37 39  0  0  0  0  0  0  0  0999 V2000
   56.0499   30.4470   41.8609 H   0  0  0  0  0  0  0  0  0  0  0  0
   56.5910   30.4800   42.8180 C   0  0  0  0  0  0  0  0  0  0  0  0
   57.5130   31.5010   43.0640 C   0  0  0  0  0  0  0  0  0  0  0  0
   57.6953   32.2723   42.3012 H   0  0  0  0  0  0  0  0  0  0  0  0
   58.2040   31.5430   44.2790 C   0  0  0  0  0  0  0  0  0  0  0  0
   58.9255   32.3507   44.4715 H   0  0  0  0  0  0  0  0  0  0  0  0
   57.9800   30.5570   45.2550 C   0  0  0  0  0  0  0  0  0  0  0  0
   58.6940   30.6330   46.5750 C   0  0  0  0  0  0  0  0  0  0  0  0
   58.1334   31.2903   47.2559 H   0  0  0  0  0  0  0  0  0  0  0  0
   59.7050   31.0370   46.4179 H   0  0  0  0  0  0  0  0  0  0  0  0
   58.7940   29.2990   47.1620 N   0  0  0  0  0  0  0  0  0  0  0  0
   58.1490   29.0510   47.9450 H   0  0  0  0  0  0  0  0  0  0  0  0
   59.7220   28.3190   46.6750 C   0  0  0  0  0  0  0  0  0  0  0  0
   60.7610   28.6850   46.0650 O   0  0  0  0  0  0  0  0  0  0  0  0
   59.5160   26.9190   46.9190 N   0  0  0  0  0  0  0  0  0  0  0  0
   58.5000   26.2180   46.5070 C   0  0  0  0  0  0  0  0  0  0  0  0
   58.6470   24.9000   46.1420 N   0  0  0  0  0  0  0  0  0  0  0  0
   57.5960   24.1320   45.7310 C   0  0  0  0  0  0  0  0  0  0  0  0
   57.7379   23.0774   45.4524 H   0  0  0  0  0  0  0  0  0  0  0  0
   56.3410   24.7260   45.6760 C   0  0  0  0  0  0  0  0  0  0  0  0
   55.0800   24.2680   45.3670 C   0  0  0  0  0  0  0  0  0  0  0  0
   54.6980   22.9130   44.9410 C   0  0  0  0  0  0  0  0  0  0  0  0
   53.5860   22.4520   45.3040 O   0  0  0  0  0  0  0  0  0  0  0  0
   55.5350   22.1200   44.0910 N   0  0  0  0  0  0  0  0  0  0  0  0
   56.2670   22.6390   42.9440 C   0  0  0  0  0  0  0  0  0  0  0  0
   57.1176   23.2421   43.2942 H   0  0  0  0  0  0  0  0  0  0  0  0
   56.6376   21.8008   42.3357 H   0  0  0  0  0  0  0  0  0  0  0  0
   55.5987   23.2661   42.3357 H   0  0  0  0  0  0  0  0  0  0  0  0
   54.1950   25.2650   45.5970 N   0  0  0  0  0  0  0  0  0  0  0  0
   54.8540   26.3420   46.0160 N   0  0  0  0  0  0  0  0  0  0  0  0
   56.1580   26.0190   46.0650 C   0  0  0  0  0  0  0  0  0  0  0  0
   57.2200   26.8110   46.4900 C   0  0  0  0  0  0  0  0  0  0  0  0
   57.0680   27.8555   46.7997 H   0  0  0  0  0  0  0  0  0  0  0  0
   57.0450   29.5390   45.0040 C   0  0  0  0  0  0  0  0  0  0  0  0
   56.8541   28.7695   45.7666 H   0  0  0  0  0  0  0  0  0  0  0  0
   56.3560   29.5010   43.7870 C   0  0  0  0  0  0  0  0  0  0  0  0
   55.6283   28.6994   43.5926 H   0  0  0  0  0  0  0  0  0  0  0  0
  1  2  1  0
  2  3  2  0
  3  4  1  0
  3  5  1  0
  5  6  1  0
  5  7  2  0
  7  8  1  0
  8  9  1  0
  8 10  1  0
  8 11  1  0
 11 12  1  0
 11 13  1  0
 13 14  2  0
 13 15  1  0
 15 16  2  0
 16 17  1  0
 17 18  1  0
 18 19  1  0
 18 20  2  0
 20 21  1  0
 21 22  1  0
 22 23  2  0
 22 24  1  0
 24 25  1  0
 25 26  1  0
 25 27  1  0
 25 28  1  0
 21 29  2  0
 29 30  1  0
 30 31  1  0
 31 32  2  0
 32 33  1  0
  7 34  1  0
 34 35  1  0
 34 36  2  0
 36 37  1  0
 36  2  1  0
 32 16  1  0
 31 20  1  0
M  CHG  3  17  -1  24  -1  30  -1
M  END
>  <UniqueID>  (75) 
63

>  <SMILES>  (75) 
C[N-]C(=O)c1n[n-]c2c/c(=N/C(=O)NCc3ccccc3)[n-]cc12

>  <Energy>  (75) 
84.47521466221552

>  <Genealogy>  (75) 
C[N-]C(=O)c1n[n-]c2cc(=NC(=O)NCc3ccccc3)[n-]cc12 (protonated)
C[N-]C(=O)c1n[n-]c2c/c(=N/C(=O)NCc3ccccc3)[n-]cc12 (cis-trans isomerization)
C[N-]C(=O)c1n[n-]c2c/c(=N/C(=O)NCc3ccccc3)[n-]cc12 (3D coordinates assigned)
C[N-]C(=O)c1n[n-]c2c/c(=N/C(=O)NCc3ccccc3)[n-]cc12 (optimized conformer: 84.47521466221552 kcal/mol)

>  <smiles>  (75) 
CNC(=O)c1n[nH]c2cc(=NC(=O)NCc3ccccc3)[nH]cc12

>  <score_type>  (75) 
oracle

>  <origin>  (75) 
adg

>  <m_score__min__energy>  (75) 
-13.33

>  <m_primary>  (75) 
energy

$$$$
75:0
     RDKit          3D

 35 37  0  0  0  0  0  0  0  0999 V2000
   60.3710   34.5580   47.6310 C   0  0  0  0  0  0  0  0  0  0  0  0
   59.9070   34.8580   46.4050 C   0  0  0  0  0  0  0  0  0  0  0  0
   58.8590   34.0220   45.8910 C   0  0  0  0  0  0  0  0  0  0  0  0
   57.7140   34.4020   45.3230 N   0  0  0  0  0  0  0  0  0  0  0  0
   57.0240   33.3250   44.9840 N   0  0  0  0  0  0  0  0  0  0  0  0
   57.7140   32.2500   45.3300 C   0  0  0  0  0  0  0  0  0  0  0  0
   57.4180   30.8110   45.1830 C   0  0  0  0  0  0  0  0  0  0  0  0
   56.6280   30.0010   44.8700 N   0  0  0  0  0  0  0  0  0  0  0  0
   56.7090   28.7380   44.8730 N   0  0  0  0  0  0  0  0  0  0  0  0
   57.7800   28.1640   45.2620 C   0  0  0  0  0  0  0  0  0  0  0  0
   58.1190   26.8140   45.3690 C   0  0  0  0  0  0  0  0  0  0  0  0
   58.4240   25.6000   45.4650 O   0  0  0  0  0  0  0  0  0  0  0  0
   57.8340   24.4320   44.9390 C   0  0  0  0  0  0  0  0  0  0  0  0
   56.4990   24.5500   44.6380 C   0  0  0  0  0  0  0  0  0  0  0  0
   55.8710   23.4330   44.1190 C   0  0  0  0  0  0  0  0  0  0  0  0
   56.5630   22.2590   43.9170 C   0  0  0  0  0  0  0  0  0  0  0  0
   55.9460   21.1120   43.3910 O   0  0  0  0  0  0  0  0  0  0  0  0
   55.8830   19.9080   44.1300 C   0  0  0  0  0  0  0  0  0  0  0  0
   57.9090   22.1820   44.2340 C   0  0  0  0  0  0  0  0  0  0  0  0
   58.5650   23.2780   44.7540 C   0  0  0  0  0  0  0  0  0  0  0  0
   58.8440   29.6550   45.6920 S   0  0  0  0  0  0  0  0  0  0  0  0
   58.8520   32.6670   45.8920 N   0  0  0  0  0  0  0  0  0  0  0  0
   61.1738   35.1624   48.0783 H   0  0  0  0  0  0  0  0  0  0  0  0
   59.9477   33.7082   48.1865 H   0  0  0  0  0  0  0  0  0  0  0  0
   60.3101   35.7014   45.8252 H   0  0  0  0  0  0  0  0  0  0  0  0
   56.0950   33.3210   44.5240 H   0  0  0  0  0  0  0  0  0  0  0  0
    0.0000    0.0000    0.0000 H   0  0  0  0  0  0  0  0  0  0  0  0
   58.7666   26.9065   44.4847 H   0  0  0  0  0  0  0  0  0  0  0  0
   55.9539   25.4912   44.8025 H   0  0  0  0  0  0  0  0  0  0  0  0
   54.8023   23.4824   43.8634 H   0  0  0  0  0  0  0  0  0  0  0  0
   55.8950   20.1371   45.2058 H   0  0  0  0  0  0  0  0  0  0  0  0
   54.9556   19.3721   43.8795 H   0  0  0  0  0  0  0  0  0  0  0  0
   56.7494   19.2783   43.8795 H   0  0  0  0  0  0  0  0  0  0  0  0
   58.4572   21.2425   44.0703 H   0  0  0  0  0  0  0  0  0  0  0  0
   59.6334   23.2329   45.0119 H   0  0  0  0  0  0  0  0  0  0  0  0
  1  2  2  0
  2  3  1  0
  3  4  2  0
  4  5  1  0
  5  6  1  0
  6  7  1  0
  7  8  2  0
  8  9  1  0
  9 10  2  0
 10 11  1  0
 11 12  1  0
 12 13  1  0
 13 14  2  0
 14 15  1  0
 15 16  2  0
 16 17  1  0
 17 18  1  0
 16 19  1  0
 19 20  2  0
 10 21  1  0
  6 22  2  0
 22  3  1  0
 21  7  1  0
 20 13  1  0
  1 23  1  0
  1 24  1  0
  2 25  1  0
  5 26  1  0
 11 27  1  0
 11 28  1  0
 14 29  1  0
 15 30  1  0
 18 31  1  0
 18 32  1  0
 18 33  1  0
 19 34  1  0
 20 35  1  0
M  END
>  <smiles>  (76) 
C=Cc1n[nH]c(-c2nnc(COc3ccc(OC)cc3)s2)n1

>  <score_type>  (76) 
oracle

>  <origin>  (76) 
adg

>  <m_score__min__energy>  (76) 
-7.1100000000000003

>  <m_primary>  (76) 
energy

$$$$
76:0
     RDKit          3D

 37 39  0  0  0  0  0  0  0  0999 V2000
   60.0352   26.6514   45.9661 H   0  0  0  0  0  0  0  0  0  0  0  0
   58.9360   26.6720   46.0030 C   0  0  0  0  0  0  0  0  0  0  0  0
   58.2620   27.7660   45.5630 N   0  0  0  0  0  0  0  0  0  0  0  0
   56.9030   27.8520   45.5860 C   0  0  0  0  0  0  0  0  0  0  0  0
   56.3600   28.9550   45.1460 N   0  0  0  0  0  0  0  0  0  0  0  0
   56.8460   29.8700   44.1510 C   0  0  0  0  0  0  0  0  0  0  0  0
   56.6320   29.6310   42.9310 O   0  0  0  0  0  0  0  0  0  0  0  0
   57.4900   31.1420   44.5650 C   0  0  0  0  0  0  0  0  0  0  0  0
   58.0080   31.2780   45.8690 C   0  0  0  0  0  0  0  0  0  0  0  0
   57.9337   30.4362   46.5732 H   0  0  0  0  0  0  0  0  0  0  0  0
   58.6180   32.4750   46.2810 C   0  0  0  0  0  0  0  0  0  0  0  0
   59.1690   32.6350   47.5960 N   0  0  0  0  0  0  0  0  0  0  0  0
   60.0440   33.6830   48.0320 C   0  0  0  0  0  0  0  0  0  0  0  0
   59.6000   34.6450   48.7150 O   0  0  0  0  0  0  0  0  0  0  0  0
   61.4570   33.6500   47.6270 C   0  0  0  0  0  0  0  0  0  0  0  0
   61.8620   33.9280   46.4080 O   0  0  0  0  0  0  0  0  0  0  0  0
   63.1700   33.8130   46.3530 C   0  0  0  0  0  0  0  0  0  0  0  0
   63.7835   33.9869   45.4567 H   0  0  0  0  0  0  0  0  0  0  0  0
   63.6580   33.4410   47.5900 C   0  0  0  0  0  0  0  0  0  0  0  0
   64.7091   33.2654   47.8627 H   0  0  0  0  0  0  0  0  0  0  0  0
   62.5570   33.3350   48.4130 C   0  0  0  0  0  0  0  0  0  0  0  0
   62.5740   32.9520   49.8590 C   0  0  0  0  0  0  0  0  0  0  0  0
   62.5337   33.8596   50.4792 H   0  0  0  0  0  0  0  0  0  0  0  0
   61.7031   32.3176   50.0805 H   0  0  0  0  0  0  0  0  0  0  0  0
   63.4977   32.3972   50.0805 H   0  0  0  0  0  0  0  0  0  0  0  0
   58.7520   33.5260   45.3690 C   0  0  0  0  0  0  0  0  0  0  0  0
   59.2578   34.4538   45.6744 H   0  0  0  0  0  0  0  0  0  0  0  0
   58.2480   33.4050   44.0740 C   0  0  0  0  0  0  0  0  0  0  0  0
   58.3485   34.2422   43.3676 H   0  0  0  0  0  0  0  0  0  0  0  0
   57.6160   32.2260   43.6690 C   0  0  0  0  0  0  0  0  0  0  0  0
   57.1410   32.1500   42.4000 F   0  0  0  0  0  0  0  0  0  0  0  0
   56.1590   26.7330   46.0440 C   0  0  0  0  0  0  0  0  0  0  0  0
   54.7710   26.6870   45.9940 O   0  0  0  0  0  0  0  0  0  0  0  0
   56.8430   25.6090   46.5170 C   0  0  0  0  0  0  0  0  0  0  0  0
   56.2791   24.7472   46.9034 H   0  0  0  0  0  0  0  0  0  0  0  0
   58.2350   25.5760   46.5010 C   0  0  0  0  0  0  0  0  0  0  0  0
   58.7749   24.6946   46.8773 H   0  0  0  0  0  0  0  0  0  0  0  0
  1  2  1  0
  2  3  1  0
  3  4  1  0
  4  5  2  0
  5  6  1  0
  6  7  2  0
  6  8  1  0
  8  9  2  0
  9 10  1  0
  9 11  1  0
 11 12  1  0
 12 13  1  0
 13 14  2  0
 13 15  1  0
 15 16  1  0
 16 17  1  0
 17 18  1  0
 17 19  2  0
 19 20  1  0
 19 21  1  0
 21 22  1  0
 22 23  1  0
 22 24  1  0
 22 25  1  0
 11 26  2  0
 26 27  1  0
 26 28  1  0
 28 29  1  0
 28 30  2  0
 30 31  1  0
  4 32  1  0
 32 33  1  0
 32 34  2  0
 34 35  1  0
 34 36  1  0
 36 37  1  0
 36  2  2  0
 30  8  1  0
 21 15  2  0
M  CHG  3   3  -1  12  -1  33  -1
M  END
>  <UniqueID>  (77) 
64

>  <SMILES>  (77) 
Cc1ccoc1C(=O)[N-]c1ccc(F)c(C(=O)/N=c2/[n-]cccc2[O-])c1

>  <Energy>  (77) 
83.02633083118087

>  <Genealogy>  (77) 
Cc1ccoc1C(=O)[N-]c1ccc(F)c(C(=O)N=c2[n-]cccc2[O-])c1 (protonated)
Cc1ccoc1C(=O)[N-]c1ccc(F)c(C(=O)/N=c2/[n-]cccc2[O-])c1 (cis-trans isomerization)
Cc1ccoc1C(=O)[N-]c1ccc(F)c(C(=O)/N=c2/[n-]cccc2[O-])c1 (3D coordinates assigned)
Cc1ccoc1C(=O)[N-]c1ccc(F)c(C(=O)/N=c2/[n-]cccc2[O-])c1 (optimized conformer: 83.02633083118087 kcal/mol)

>  <smiles>  (77) 
Cc1ccoc1C(=O)Nc1ccc(F)c(C(=O)N=c2[nH]cccc2O)c1

>  <score_type>  (77) 
oracle

>  <origin>  (77) 
adg

>  <m_score__min__energy>  (77) 
-14.289999999999999

>  <m_primary>  (77) 
energy

$$$$
77:0
     RDKit          3D

 45 46  0  0  0  0  0  0  0  0999 V2000
   59.7110   33.4880   50.6270 C   0  0  0  0  0  0  0  0  0  0  0  0
   60.2720   33.1520   49.2700 C   0  0  0  0  0  0  0  0  0  0  0  0
   61.3340   33.9220   48.7680 C   0  0  0  0  0  0  0  0  0  0  0  0
   61.8890   33.6380   47.5220 C   0  0  0  0  0  0  0  0  0  0  0  0
   61.3830   32.5960   46.7500 C   0  0  0  0  0  0  0  0  0  0  0  0
   60.3150   31.8200   47.2170 C   0  0  0  0  0  0  0  0  0  0  0  0
   59.8030   30.7820   46.3710 N   0  0  0  0  0  0  0  0  0  0  0  0
   60.2470   29.4230   46.4730 C   0  0  0  0  0  0  0  0  0  0  0  0
   60.9870   29.0630   47.4280 O   0  0  0  0  0  0  0  0  0  0  0  0
   59.8580   28.4290   45.4220 C   0  0  0  0  0  0  0  0  0  0  0  0
   58.4060   28.2070   45.4610 N   0  0  0  0  0  0  0  0  0  0  0  0
   57.7760   27.7670   46.7100 C   0  0  0  0  0  0  0  0  0  0  0  0
   57.6080   28.4860   44.2860 C   0  0  0  0  0  0  0  0  0  0  0  0
   57.8130   27.8440   43.2210 O   0  0  0  0  0  0  0  0  0  0  0  0
   56.5110   29.5160   44.2970 C   0  0  0  0  0  0  0  0  0  0  0  0
   56.9640   30.7360   44.9550 N   0  0  0  0  0  0  0  0  0  0  0  0
   57.4390   31.8880   44.2500 C   0  0  0  0  0  0  0  0  0  0  0  0
   57.3920   31.9260   42.9910 O   0  0  0  0  0  0  0  0  0  0  0  0
   57.9800   33.0300   44.9950 C   0  0  0  0  0  0  0  0  0  0  0  0
   58.9450   33.9210   44.5390 C   0  0  0  0  0  0  0  0  0  0  0  0
   59.2700   34.9100   45.4760 C   0  0  0  0  0  0  0  0  0  0  0  0
   58.5650   34.8020   46.6680 C   0  0  0  0  0  0  0  0  0  0  0  0
   57.5380   33.4750   46.5560 S   0  0  0  0  0  0  0  0  0  0  0  0
   59.7840   32.0540   48.5120 C   0  0  0  0  0  0  0  0  0  0  0  0
   58.7070   31.1520   49.0720 C   0  0  0  0  0  0  0  0  0  0  0  0
   60.3760   33.0897   51.4075 H   0  0  0  0  0  0  0  0  0  0  0  0
   59.6352   34.5803   50.7322 H   0  0  0  0  0  0  0  0  0  0  0  0
   58.7122   33.0393   50.7322 H   0  0  0  0  0  0  0  0  0  0  0  0
   61.7312   34.7569   49.3640 H   0  0  0  0  0  0  0  0  0  0  0  0
   62.7302   34.2394   47.1469 H   0  0  0  0  0  0  0  0  0  0  0  0
   61.8253   32.3807   45.7661 H   0  0  0  0  0  0  0  0  0  0  0  0
   58.9830   30.9970   45.7610 H   0  0  0  0  0  0  0  0  0  0  0  0
   60.1422   28.8144   44.4317 H   0  0  0  0  0  0  0  0  0  0  0  0
   60.3764   27.4776   45.6118 H   0  0  0  0  0  0  0  0  0  0  0  0
   58.3426   28.1628   47.5657 H   0  0  0  0  0  0  0  0  0  0  0  0
   56.7421   28.1404   46.7506 H   0  0  0  0  0  0  0  0  0  0  0  0
   57.7707   26.6678   46.7506 H   0  0  0  0  0  0  0  0  0  0  0  0
   56.2223   29.7488   43.2614 H   0  0  0  0  0  0  0  0  0  0  0  0
   55.6491   29.1126   44.8488 H   0  0  0  0  0  0  0  0  0  0  0  0
   59.4067   33.8558   43.5427 H   0  0  0  0  0  0  0  0  0  0  0  0
   60.0135   35.6981   45.2859 H   0  0  0  0  0  0  0  0  0  0  0  0
   58.6619   35.4701   47.5365 H   0  0  0  0  0  0  0  0  0  0  0  0
   58.7403   31.1799   50.1711 H   0  0  0  0  0  0  0  0  0  0  0  0
   57.7220   31.4986   48.7261 H   0  0  0  0  0  0  0  0  0  0  0  0
   58.8753   30.1215   48.7261 H   0  0  0  0  0  0  0  0  0  0  0  0
  1  2  1  0
  2  3  2  0
  3  4  1  0
  4  5  2  0
  5  6  1  0
  6  7  1  0
  7  8  1  0
  8  9  2  0
  8 10  1  0
 10 11  1  0
 11 12  1  0
 11 13  1  0
 13 14  2  0
 13 15  1  0
 15 16  1  0
 16 17  1  0
 17 18  2  0
 17 19  1  0
 19 20  2  0
 20 21  1  0
 21 22  2  0
 22 23  1  0
  6 24  2  0
 24 25  1  0
 24  2  1  0
 23 19  1  0
  1 26  1  0
  1 27  1  0
  1 28  1  0
  3 29  1  0
  4 30  1  0
  5 31  1  0
  7 32  1  0
 10 33  1  0
 10 34  1  0
 12 35  1  0
 12 36  1  0
 12 37  1  0
 15 38  1  0
 15 39  1  0
 20 40  1  0
 21 41  1  0
 22 42  1  0
 25 43  1  0
 25 44  1  0
 25 45  1  0
M  CHG  1  16  -1
M  END
>  <UniqueID>  (78) 
65

>  <SMILES>  (78) 
Cc1cccc(NC(=O)CN(C)C(=O)C[N-]C(=O)c2cccs2)c1C

>  <Energy>  (78) 
70.05641723806617

>  <Genealogy>  (78) 
Cc1cccc(NC(=O)CN(C)C(=O)C[N-]C(=O)c2cccs2)c1C (protonated)
Cc1cccc(NC(=O)CN(C)C(=O)C[N-]C(=O)c2cccs2)c1C (3D coordinates assigned)
Cc1cccc(NC(=O)CN(C)C(=O)C[N-]C(=O)c2cccs2)c1C (optimized conformer: 70.05641723806617 kcal/mol)

>  <smiles>  (78) 
Cc1cccc(NC(=O)CN(C)C(=O)CNC(=O)c2cccs2)c1C

>  <score_type>  (78) 
oracle

>  <origin>  (78) 
adg

>  <m_score__min__energy>  (78) 
-10.199999999999999

>  <m_primary>  (78) 
energy

$$$$
78:0
     RDKit          3D

 29 31  0  0  0  0  0  0  0  0999 V2000
   60.0110   29.5500   49.5640 O   0  0  0  0  0  0  0  0  0  0  0  0
   60.1240   29.8800   48.3520 C   0  0  0  0  0  0  0  0  0  0  0  0
   60.6720   28.8920   47.3660 C   0  0  0  0  0  0  0  0  0  0  0  0
   60.0000   29.0460   45.9880 C   0  0  1  0  0  0  0  0  0  0  0  0
   58.6480   28.3550   45.9480 C   0  0  0  0  0  0  0  0  0  0  0  0
   58.5100   27.0790   46.5250 C   0  0  0  0  0  0  0  0  0  0  0  0
   57.2700   26.4350   46.5350 C   0  0  0  0  0  0  0  0  0  0  0  0
   56.1500   27.0590   45.9810 C   0  0  0  0  0  0  0  0  0  0  0  0
   54.9200   26.4120   45.9940 O   0  0  0  0  0  0  0  0  0  0  0  0
   56.2690   28.3340   45.4190 C   0  0  0  0  0  0  0  0  0  0  0  0
   55.1570   28.9630   44.8730 O   0  0  0  0  0  0  0  0  0  0  0  0
   57.5090   28.9820   45.4070 C   0  0  0  0  0  0  0  0  0  0  0  0
   59.8990   30.4230   45.6000 O   0  0  0  0  0  0  0  0  0  0  0  0
   59.7110   31.4750   46.5080 C   0  0  0  0  0  0  0  0  0  0  0  0
   59.4360   32.7560   46.0230 C   0  0  0  0  0  0  0  0  0  0  0  0
   59.2080   33.8100   46.9110 C   0  0  0  0  0  0  0  0  0  0  0  0
   58.9280   35.0810   46.4230 O   0  0  0  0  0  0  0  0  0  0  0  0
   59.2620   33.5880   48.2890 C   0  0  0  0  0  0  0  0  0  0  0  0
   59.5510   32.3130   48.7880 C   0  0  0  0  0  0  0  0  0  0  0  0
   59.6130   32.1250   50.1650 O   0  0  0  0  0  0  0  0  0  0  0  0
   59.7850   31.2450   47.8960 C   0  0  0  0  0  0  0  0  0  0  0  0
   61.7542   29.0565   47.2575 H   0  0  0  0  0  0  0  0  0  0  0  0
   60.4685   27.8779   47.7405 H   0  0  0  0  0  0  0  0  0  0  0  0
   60.6465   28.5464   45.2515 H   0  0  0  0  0  0  0  0  0  0  0  0
   59.3852   26.5846   46.9717 H   0  0  0  0  0  0  0  0  0  0  0  0
   57.1757   25.4337   46.9805 H   0  0  0  0  0  0  0  0  0  0  0  0
   57.5948   29.9886   44.9718 H   0  0  0  0  0  0  0  0  0  0  0  0
   59.3989   32.9352   44.9383 H   0  0  0  0  0  0  0  0  0  0  0  0
   59.0765   34.4193   48.9851 H   0  0  0  0  0  0  0  0  0  0  0  0
  1  2  2  0
  2  3  1  0
  3  4  1  0
  4  5  1  0
  5  6  2  0
  6  7  1  0
  7  8  2  0
  8  9  1  0
  8 10  1  0
 10 11  1  0
 10 12  2  0
  4 13  1  0
 13 14  1  0
 14 15  2  0
 15 16  1  0
 16 17  1  0
 16 18  2  0
 18 19  1  0
 19 20  1  0
 19 21  2  0
 21  2  1  0
 12  5  1  0
 21 14  1  0
  3 22  1  0
  3 23  1  0
  4 24  1  6
  6 25  1  0
  7 26  1  0
 12 27  1  0
 15 28  1  0
 18 29  1  0
M  CHG  4   9  -1  11  -1  17  -1  20  -1
M  END
>  <UniqueID>  (79) 
66

>  <SMILES>  (79) 
O=C1C[C@@H](c2ccc([O-])c([O-])c2)Oc2cc([O-])cc([O-])c21

>  <Energy>  (79) 
36.55201906539592

>  <Genealogy>  (79) 
O=C1CC(c2ccc([O-])c([O-])c2)Oc2cc([O-])cc([O-])c21 (protonated)
O=C1C[C@@H](c2ccc([O-])c([O-])c2)Oc2cc([O-])cc([O-])c21 (chirality)
O=C1C[C@@H](c2ccc([O-])c([O-])c2)Oc2cc([O-])cc([O-])c21 (3D coordinates assigned)
O=C1C[C@@H](c2ccc([O-])c([O-])c2)Oc2cc([O-])cc([O-])c21 (nonaromatic ring conformer: 36.55201906539592 kcal/mol)

>  <smiles>  (79) 
O=C1CC(c2ccc(O)c(O)c2)Oc2cc(O)cc(O)c21

>  <score_type>  (79) 
oracle

>  <origin>  (79) 
adg

>  <m_score__min__energy>  (79) 
-16.460000000000001

>  <m_primary>  (79) 
energy

$$$$
79:0
     RDKit          3D

 46 49  0  0  0  0  0  0  0  0999 V2000
   58.9500   33.8680   51.9670 C   0  0  0  0  0  0  0  0  0  0  0  0
   59.5480   33.0600   50.9580 O   0  0  0  0  0  0  0  0  0  0  0  0
   59.4200   33.2910   49.5800 C   0  0  0  0  0  0  0  0  0  0  0  0
   60.1560   34.2880   48.9100 C   0  0  0  0  0  0  0  0  0  0  0  0
   59.9910   34.4800   47.5350 C   0  0  0  0  0  0  0  0  0  0  0  0
   59.0950   33.6810   46.8100 C   0  0  0  0  0  0  0  0  0  0  0  0
   58.8910   33.9060   45.3370 C   0  0  0  0  0  0  0  0  0  0  0  0
   57.1220   33.7860   44.8950 S   0  0  0  0  0  0  0  0  0  0  0  0
   57.1380   32.0080   44.6940 C   0  0  0  0  0  0  0  0  0  0  0  0
   56.0300   31.2370   44.7570 N   0  0  0  0  0  0  0  0  0  0  0  0
   56.2850   29.9410   44.5860 N   0  0  0  0  0  0  0  0  0  0  0  0
   57.5950   29.6770   44.3810 C   0  0  0  0  0  0  0  0  0  0  0  0
   58.1470   28.2960   44.2300 C   0  0  0  0  0  0  0  0  0  0  0  0
   58.1440   27.4150   45.8300 S   0  0  0  0  0  0  0  0  0  0  0  0
   59.3310   28.5110   46.6020 C   0  0  0  0  0  0  0  0  0  0  0  0
   60.2090   29.2750   45.8980 N   0  0  0  0  0  0  0  0  0  0  0  0
   60.8220   29.9300   46.8980 C   0  0  0  0  0  0  0  0  0  0  0  0
   61.8040   30.8520   46.7540 N   0  0  0  0  0  0  0  0  0  0  0  0
   62.3220   31.4440   47.8720 C   0  0  0  0  0  0  0  0  0  0  0  0
   63.4010   32.4710   47.7350 C   0  0  0  0  0  0  0  0  0  0  0  0
   61.8270   31.1050   49.1520 C   0  0  0  0  0  0  0  0  0  0  0  0
   60.8000   30.1490   49.2530 C   0  0  0  0  0  0  0  0  0  0  0  0
   60.2270   29.7450   50.5790 C   0  0  0  0  0  0  0  0  0  0  0  0
   60.3530   29.5920   48.0990 N   0  0  0  0  0  0  0  0  0  0  0  0
   59.4060   28.6900   47.9430 N   0  0  0  0  0  0  0  0  0  0  0  0
   58.5190   31.0880   44.4180 S   0  0  0  0  0  0  0  0  0  0  0  0
   58.3610   32.6900   47.4780 C   0  0  0  0  0  0  0  0  0  0  0  0
   58.5270   32.4970   48.8530 C   0  0  0  0  0  0  0  0  0  0  0  0
   59.2331   33.4854   52.9587 H   0  0  0  0  0  0  0  0  0  0  0  0
   59.2994   34.9056   51.8608 H   0  0  0  0  0  0  0  0  0  0  0  0
   57.8556   33.8370   51.8608 H   0  0  0  0  0  0  0  0  0  0  0  0
   60.8628   34.9175   49.4705 H   0  0  0  0  0  0  0  0  0  0  0  0
   60.5672   35.2621   47.0190 H   0  0  0  0  0  0  0  0  0  0  0  0
   59.2610   34.9073   45.0714 H   0  0  0  0  0  0  0  0  0  0  0  0
   59.4436   33.1318   44.7844 H   0  0  0  0  0  0  0  0  0  0  0  0
   57.5299   27.7381   43.5104 H   0  0  0  0  0  0  0  0  0  0  0  0
   59.1841   28.3692   43.8708 H   0  0  0  0  0  0  0  0  0  0  0  0
   63.7343   32.7882   48.7342 H   0  0  0  0  0  0  0  0  0  0  0  0
   64.2503   32.0394   47.1851 H   0  0  0  0  0  0  0  0  0  0  0  0
   63.0119   33.3406   47.1851 H   0  0  0  0  0  0  0  0  0  0  0  0
   62.2382   31.5810   50.0544 H   0  0  0  0  0  0  0  0  0  0  0  0
   60.8362   30.1746   51.3879 H   0  0  0  0  0  0  0  0  0  0  0  0
   59.1947   30.1161   50.6608 H   0  0  0  0  0  0  0  0  0  0  0  0
   60.2298   28.6480   50.6608 H   0  0  0  0  0  0  0  0  0  0  0  0
   57.6521   32.0622   46.9182 H   0  0  0  0  0  0  0  0  0  0  0  0
   57.9504   31.7141   49.3673 H   0  0  0  0  0  0  0  0  0  0  0  0
  1  2  1  0
  2  3  1  0
  3  4  2  0
  4  5  1  0
  5  6  2  0
  6  7  1  0
  7  8  1  0
  8  9  1  0
  9 10  2  0
 10 11  1  0
 11 12  2  0
 12 13  1  0
 13 14  1  0
 14 15  1  0
 15 16  1  0
 16 17  2  0
 17 18  1  0
 18 19  2  0
 19 20  1  0
 19 21  1  0
 21 22  2  0
 22 23  1  0
 22 24  1  0
 24 25  1  0
 12 26  1  0
  6 27  1  0
 27 28  2  0
 28  3  1  0
 26  9  1  0
 25 15  2  0
 24 17  1  0
  1 29  1  0
  1 30  1  0
  1 31  1  0
  4 32  1  0
  5 33  1  0
  7 34  1  0
  7 35  1  0
 13 36  1  0
 13 37  1  0
 20 38  1  0
 20 39  1  0
 20 40  1  0
 21 41  1  0
 23 42  1  0
 23 43  1  0
 23 44  1  0
 27 45  1  0
 28 46  1  0
M  END
>  <UniqueID>  (80) 
67

>  <SMILES>  (80) 
COc1ccc(CSc2nnc(CSc3nc4nc(C)cc(C)n4n3)s2)cc1

>  <Energy>  (80) 
110.34541041458395

>  <Genealogy>  (80) 
COc1ccc(CSc2nnc(CSc3nc4nc(C)cc(C)n4n3)s2)cc1 (3D coordinates assigned)
COc1ccc(CSc2nnc(CSc3nc4nc(C)cc(C)n4n3)s2)cc1 (optimized conformer: 110.34541041458395 kcal/mol)

>  <smiles>  (80) 
COc1ccc(CSc2nnc(CSc3nc4nc(C)cc(C)n4n3)s2)cc1

>  <score_type>  (80) 
oracle

>  <origin>  (80) 
adg

>  <m_score__min__energy>  (80) 
-9.7899999999999991

>  <m_primary>  (80) 
energy

$$$$
80:0
     RDKit          3D

 49 50  0  0  0  0  0  0  0  0999 V2000
   51.6390   24.5830   44.8490 C   0  0  0  0  0  0  0  0  0  0  0  0
   51.4170   23.0800   44.9790 C   0  0  0  0  0  0  0  0  0  0  0  0
   52.6250   22.4170   45.3540 O   0  0  0  0  0  0  0  0  0  0  0  0
   53.9110   22.9820   45.3270 C   0  0  0  0  0  0  0  0  0  0  0  0
   54.6700   23.2030   46.4920 C   0  0  0  0  0  0  0  0  0  0  0  0
   55.9520   23.7520   46.4030 C   0  0  0  0  0  0  0  0  0  0  0  0
   56.5040   24.0740   45.1540 C   0  0  0  0  0  0  0  0  0  0  0  0
   57.8650   24.6400   45.0540 C   0  0  0  0  0  0  0  0  0  0  0  0
   58.8520   23.9250   45.3690 O   0  0  0  0  0  0  0  0  0  0  0  0
   58.1040   25.9720   44.5780 N   0  0  0  0  0  0  0  0  0  0  0  0
   57.9340   27.2000   45.3620 C   0  0  1  0  0  0  0  0  0  0  0  0
   56.4560   27.4270   45.6210 C   0  0  0  0  0  0  0  0  0  0  0  0
   55.8180   26.6070   46.3350 O   0  0  0  0  0  0  0  0  0  0  0  0
   55.7900   28.6200   45.1880 N   0  0  0  0  0  0  0  0  0  0  0  0
   56.3830   29.6540   44.3930 C   0  0  0  0  0  0  0  0  0  0  0  0
   57.3330   30.5280   44.9330 C   0  0  0  0  0  0  0  0  0  0  0  0
   57.9170   31.5070   44.1280 C   0  0  0  0  0  0  0  0  0  0  0  0
   57.5510   31.5930   42.7830 C   0  0  0  0  0  0  0  0  0  0  0  0
   56.6470   30.7160   42.2670 N   0  0  0  0  0  0  0  0  0  0  0  0
   56.0700   29.7520   43.0340 C   0  0  0  0  0  0  0  0  0  0  0  0
   58.7730   27.1180   46.6840 C   0  0  0  0  0  0  0  0  0  0  0  0
   58.7730   28.4810   47.4110 C   0  0  0  0  0  0  0  0  0  0  0  0
   58.2210   26.0390   47.6410 C   0  0  0  0  0  0  0  0  0  0  0  0
   60.2380   26.7660   46.3360 C   0  0  0  0  0  0  0  0  0  0  0  0
   55.7300   23.8920   43.9980 C   0  0  0  0  0  0  0  0  0  0  0  0
   54.4480   23.3420   44.0860 C   0  0  0  0  0  0  0  0  0  0  0  0
   51.7053   25.0319   45.8511 H   0  0  0  0  0  0  0  0  0  0  0  0
   52.5744   24.7694   44.3011 H   0  0  0  0  0  0  0  0  0  0  0  0
   50.7974   25.0319   44.3011 H   0  0  0  0  0  0  0  0  0  0  0  0
   50.6510   22.8941   45.7463 H   0  0  0  0  0  0  0  0  0  0  0  0
   51.0885   22.6877   44.0052 H   0  0  0  0  0  0  0  0  0  0  0  0
   54.2524   22.9426   47.4758 H   0  0  0  0  0  0  0  0  0  0  0  0
   56.5329   23.9331   47.3194 H   0  0  0  0  0  0  0  0  0  0  0  0
   58.3123   28.0669   44.8004 H   0  0  0  0  0  0  0  0  0  0  0  0
   57.6194   30.4434   45.9917 H   0  0  0  0  0  0  0  0  0  0  0  0
   58.6576   32.2034   44.5483 H   0  0  0  0  0  0  0  0  0  0  0  0
   57.9931   32.3691   42.1410 H   0  0  0  0  0  0  0  0  0  0  0  0
   55.3551   29.0476   42.5837 H   0  0  0  0  0  0  0  0  0  0  0  0
   59.8101   28.8045   47.5836 H   0  0  0  0  0  0  0  0  0  0  0  0
   58.2545   29.2272   46.7911 H   0  0  0  0  0  0  0  0  0  0  0  0
   58.2545   28.3818   48.3760 H   0  0  0  0  0  0  0  0  0  0  0  0
   58.3826   26.3550   48.6822 H   0  0  0  0  0  0  0  0  0  0  0  0
   57.1440   25.9058   47.4613 H   0  0  0  0  0  0  0  0  0  0  0  0
   58.7432   25.0877   47.4613 H   0  0  0  0  0  0  0  0  0  0  0  0
   60.8123   26.6280   47.2640 H   0  0  0  0  0  0  0  0  0  0  0  0
   60.2621   25.8365   45.7482 H   0  0  0  0  0  0  0  0  0  0  0  0
   60.6817   27.5831   45.7482 H   0  0  0  0  0  0  0  0  0  0  0  0
   56.1341   24.1836   43.0174 H   0  0  0  0  0  0  0  0  0  0  0  0
   53.8559   23.1908   43.1714 H   0  0  0  0  0  0  0  0  0  0  0  0
  1  2  1  0
  2  3  1  0
  3  4  1  0
  4  5  2  0
  5  6  1  0
  6  7  2  0
  7  8  1  0
  8  9  2  0
  8 10  1  0
 10 11  1  0
 11 12  1  0
 12 13  2  0
 12 14  1  0
 14 15  1  0
 15 16  2  0
 16 17  1  0
 17 18  2  0
 18 19  1  0
 19 20  2  0
 11 21  1  0
 21 22  1  0
 21 23  1  0
 21 24  1  0
  7 25  1  0
 25 26  2  0
 26  4  1  0
 20 15  1  0
  1 27  1  0
  1 28  1  0
  1 29  1  0
  2 30  1  0
  2 31  1  0
  5 32  1  0
  6 33  1  0
 11 34  1  6
 16 35  1  0
 17 36  1  0
 18 37  1  0
 20 38  1  0
 22 39  1  0
 22 40  1  0
 22 41  1  0
 23 42  1  0
 23 43  1  0
 23 44  1  0
 24 45  1  0
 24 46  1  0
 24 47  1  0
 25 48  1  0
 26 49  1  0
M  CHG  2  10  -1  14  -1
M  END
>  <UniqueID>  (81) 
68

>  <SMILES>  (81) 
CCOc1ccc(C(=O)[N-][C@@H](C(=O)[N-]c2cccnc2)C(C)(C)C)cc1

>  <Energy>  (81) 
51.277359609544924

>  <Genealogy>  (81) 
CCOc1ccc(C(=O)[N-]C(C(=O)[N-]c2cccnc2)C(C)(C)C)cc1 (protonated)
CCOc1ccc(C(=O)[N-][C@@H](C(=O)[N-]c2cccnc2)C(C)(C)C)cc1 (chirality)
CCOc1ccc(C(=O)[N-][C@@H](C(=O)[N-]c2cccnc2)C(C)(C)C)cc1 (3D coordinates assigned)
CCOc1ccc(C(=O)[N-][C@@H](C(=O)[N-]c2cccnc2)C(C)(C)C)cc1 (optimized conformer: 51.277359609544924 kcal/mol)

>  <smiles>  (81) 
CCOc1ccc(C(=O)NC(C(=O)Nc2cccnc2)C(C)(C)C)cc1

>  <score_type>  (81) 
oracle

>  <origin>  (81) 
adg

>  <m_score__min__energy>  (81) 
-11.32

>  <m_primary>  (81) 
energy

$$$$
81:0
     RDKit          3D

 59 62  0  0  1  0  0  0  0  0999 V2000
   57.0270   24.3340   43.6570 C   0  0  0  0  0  0  0  0  0  0  0  0
   56.7070   24.3640   45.1450 C   0  0  0  0  0  0  0  0  0  0  0  0
   57.3780   23.1870   45.8080 C   0  0  0  0  0  0  0  0  0  0  0  0
   55.2180   24.2550   45.3630 C   0  0  0  0  0  0  0  0  0  0  0  0
   57.2450   25.5980   45.7670 C   0  0  0  0  0  0  0  0  0  0  0  0
   58.0440   25.5930   46.8930 C   0  0  0  0  0  0  0  0  0  0  0  0
   58.3750   26.8930   47.2140 C   0  0  0  0  0  0  0  0  0  0  0  0
   59.1000   27.3030   48.1920 N   0  0  0  0  0  0  0  0  0  0  0  0
   59.5120   28.6570   48.3240 C   0  0  0  0  0  0  0  0  0  0  0  0
   60.7880   29.0170   48.5550 N   0  0  0  0  0  0  0  0  0  0  0  0
   60.8390   30.3580   48.6250 C   0  0  0  0  0  0  0  0  0  0  0  0
   61.9520   31.1530   48.8480 C   0  0  0  0  0  0  0  0  0  0  0  0
   61.7340   32.5160   48.8740 C   0  0  0  0  0  0  0  0  0  0  0  0
   60.4480   32.9930   48.6800 C   0  0  0  0  0  0  0  0  0  0  0  0
   60.2770   34.2520   48.7090 N   0  0  0  0  0  0  0  0  0  0  0  0
   59.2980   34.9580   47.9470 C   0  0  0  0  0  0  0  0  0  0  0  0
   59.5660   34.8180   46.4580 C   0  0  0  0  0  0  0  0  0  0  0  0
   58.8720   33.6440   45.9080 C   0  0  0  0  0  0  0  0  0  0  0  0
   57.5420   33.6360   45.5240 C   0  0  0  0  0  0  0  0  0  0  0  0
   56.9560   32.4820   45.0110 C   0  0  0  0  0  0  0  0  0  0  0  0
   57.6690   31.3160   44.8660 C   0  0  0  0  0  0  0  0  0  0  0  0
   57.0010   29.8400   44.2320 S   0  0  0  0  0  0  0  0  0  0  0  0
   56.2610   30.0820   42.6370 C   0  0  0  0  0  0  0  0  0  0  0  0
   55.9360   29.2700   45.1350 O   0  0  0  0  0  0  0  0  0  0  0  0
   58.0710   28.8060   44.0810 O   0  0  0  0  0  0  0  0  0  0  0  0
   58.9960   31.3110   45.2440 C   0  0  0  0  0  0  0  0  0  0  0  0
   59.5640   32.4610   45.7520 C   0  0  0  0  0  0  0  0  0  0  0  0
   59.3930   32.1850   48.4660 N   0  0  0  0  0  0  0  0  0  0  0  0
   59.5760   30.8610   48.4360 C   0  0  0  0  0  0  0  0  0  0  0  0
   58.7760   29.7870   48.2520 N   0  0  0  0  0  0  0  0  0  0  0  0
   57.7740   27.6530   46.2830 N   0  0  0  0  0  0  0  0  0  0  0  0
   57.1050   26.8780   45.4260 N   0  0  0  0  0  0  0  0  0  0  0  0
   58.1134   24.2322   43.5176 H   0  0  0  0  0  0  0  0  0  0  0  0
   56.5156   23.4799   43.1891 H   0  0  0  0  0  0  0  0  0  0  0  0
   56.6833   25.2683   43.1891 H   0  0  0  0  0  0  0  0  0  0  0  0
   57.3153   23.2969   46.9007 H   0  0  0  0  0  0  0  0  0  0  0  0
   56.8737   22.2581   45.5034 H   0  0  0  0  0  0  0  0  0  0  0  0
   58.4343   23.1477   45.5034 H   0  0  0  0  0  0  0  0  0  0  0  0
   55.0056   24.2395   46.4422 H   0  0  0  0  0  0  0  0  0  0  0  0
   54.7159   25.1188   44.9029 H   0  0  0  0  0  0  0  0  0  0  0  0
   54.8470   23.3273   44.9029 H   0  0  0  0  0  0  0  0  0  0  0  0
   58.3647   24.6971   47.4449 H   0  0  0  0  0  0  0  0  0  0  0  0
   62.9532   30.7221   48.9960 H   0  0  0  0  0  0  0  0  0  0  0  0
   62.5682   33.2121   49.0460 H   0  0  0  0  0  0  0  0  0  0  0  0
   58.3020   34.5498   48.1737 H   0  0  0  0  0  0  0  0  0  0  0  0
   59.3461   36.0240   48.2142 H   0  0  0  0  0  0  0  0  0  0  0  0
   59.2100   35.7216   45.9415 H   0  0  0  0  0  0  0  0  0  0  0  0
   60.6479   34.6898   46.3062 H   0  0  0  0  0  0  0  0  0  0  0  0
   56.9413   34.5519   45.6254 H   0  0  0  0  0  0  0  0  0  0  0  0
   55.8969   32.5040   44.7146 H   0  0  0  0  0  0  0  0  0  0  0  0
   55.2223   30.4217   42.7624 H   0  0  0  0  0  0  0  0  0  0  0  0
   56.8302   30.8408   42.0800 H   0  0  0  0  0  0  0  0  0  0  0  0
   56.2719   29.1335   42.0800 H   0  0  0  0  0  0  0  0  0  0  0  0
   59.5973   30.3957   45.1409 H   0  0  0  0  0  0  0  0  0  0  0  0
   60.6231   32.4331   46.0478 H   0  0  0  0  0  0  0  0  0  0  0  0
   58.4440   32.5940   48.3250 H   0  0  0  0  0  0  0  0  0  0  0  0
   57.7460   29.8280   48.0810 H   0  0  0  0  0  0  0  0  0  0  0  0
   57.8230   28.7090   46.2340 H   0  0  0  0  0  0  0  0  0  0  0  0
   56.5560   27.2220   44.6130 H   0  0  0  0  0  0  0  0  0  0  0  0
  1  2  1  0
  2  3  1  0
  2  4  1  0
  2  5  1  0
  5  6  2  0
  6  7  1  0
  7  8  2  0
  8  9  1  0
  9 10  2  0
 10 11  1  0
 11 12  1  0
 12 13  2  0
 13 14  1  0
 14 15  2  0
 15 16  1  0
 16 17  1  0
 17 18  1  0
 18 19  2  0
 19 20  1  0
 20 21  2  0
 21 22  1  0
 22 23  1  0
 22 24  2  0
 22 25  2  0
 21 26  1  0
 26 27  2  0
 14 28  1  0
 28 29  1  0
 29 30  1  0
  7 31  1  0
 31 32  1  0
 32  5  1  0
 30  9  1  0
 29 11  2  0
 27 18  1  0
  1 33  1  0
  1 34  1  0
  1 35  1  0
  3 36  1  0
  3 37  1  0
  3 38  1  0
  4 39  1  0
  4 40  1  0
  4 41  1  0
  6 42  1  0
 12 43  1  0
 13 44  1  0
 16 45  1  0
 16 46  1  0
 17 47  1  0
 17 48  1  0
 19 49  1  0
 20 50  1  0
 23 51  1  0
 23 52  1  0
 23 53  1  0
 26 54  1  0
 27 55  1  0
 28 56  1  0
 30 57  1  0
 31 58  1  0
 32 59  1  0
M  END
>  <smiles>  (82) 
CC(C)(C)c1cc(=Nc2nc3ccc(=NCCc4ccc(S(C)(=O)=O)cc4)[nH]c3[nH]2)[nH][nH]1

>  <score_type>  (82) 
oracle

>  <origin>  (82) 
adg

>  <m_score__min__energy>  (82) 
-9.5

>  <m_primary>  (82) 
energy

$$$$
82:0
     RDKit          3D

 41 43  0  0  1  0  0  0  0  0999 V2000
   65.4440   32.7100   49.7850 C   0  0  0  0  0  0  0  0  0  0  0  0
   64.1770   33.2560   49.2350 C   0  0  0  0  0  0  0  0  0  0  0  0
   63.7300   33.1960   47.9120 C   0  0  0  0  0  0  0  0  0  0  0  0
   62.5090   33.8390   47.9240 C   0  0  0  0  0  0  0  0  0  0  0  0
   61.7890   33.9830   46.8750 N   0  0  0  0  0  0  0  0  0  0  0  0
   60.3720   34.0690   46.9090 C   0  0  0  0  0  0  0  0  0  0  0  0
   59.7970   34.9490   47.6160 O   0  0  0  0  0  0  0  0  0  0  0  0
   59.4900   33.1800   46.1580 C   0  0  0  0  0  0  0  0  0  0  0  0
   59.5090   31.8530   46.4280 C   0  0  0  0  0  0  0  0  0  0  0  0
   58.6730   31.0210   45.7170 C   0  0  0  0  0  0  0  0  0  0  0  0
   57.8060   31.4900   44.7290 C   0  0  0  0  0  0  0  0  0  0  0  0
   56.8600   30.2880   43.8970 S   0  0  0  0  0  0  0  0  0  0  0  0
   55.6450   29.9540   44.7440 O   0  0  0  0  0  0  0  0  0  0  0  0
   56.3160   30.8340   42.5830 O   0  0  0  0  0  0  0  0  0  0  0  0
   57.7100   28.8460   43.6330 N   0  0  0  0  0  0  0  0  0  0  0  0
   58.2870   27.9900   44.5890 C   0  0  0  0  0  0  0  0  0  0  0  0
   59.5920   27.9820   44.9940 C   0  0  0  0  0  0  0  0  0  0  0  0
   60.0220   27.0630   45.9570 C   0  0  0  0  0  0  0  0  0  0  0  0
   59.1410   26.1580   46.5070 C   0  0  0  0  0  0  0  0  0  0  0  0
   57.8210   26.1480   46.1120 C   0  0  0  0  0  0  0  0  0  0  0  0
   56.6570   25.0240   46.7730 Cl  0  0  0  0  0  0  0  0  0  0  0  0
   57.4140   27.0530   45.1710 C   0  0  0  0  0  0  0  0  0  0  0  0
   57.7880   32.8330   44.4570 C   0  0  0  0  0  0  0  0  0  0  0  0
   58.6320   33.6620   45.1770 C   0  0  0  0  0  0  0  0  0  0  0  0
   62.2250   34.2670   49.1660 N   0  0  0  0  0  0  0  0  0  0  0  0
   63.2400   33.9080   49.9450 N   0  0  0  0  0  0  0  0  0  0  0  0
   65.4041   32.7272   50.8841 H   0  0  0  0  0  0  0  0  0  0  0  0
   65.5777   31.6744   49.4391 H   0  0  0  0  0  0  0  0  0  0  0  0
   66.2886   33.3240   49.4391 H   0  0  0  0  0  0  0  0  0  0  0  0
   64.2390   32.7375   47.0514 H   0  0  0  0  0  0  0  0  0  0  0  0
   60.1792   31.4476   47.2003 H   0  0  0  0  0  0  0  0  0  0  0  0
   58.6893   29.9433   45.9367 H   0  0  0  0  0  0  0  0  0  0  0  0
   57.8290   28.5400   42.6200 H   0  0  0  0  0  0  0  0  0  0  0  0
   60.3055   28.6993   44.5621 H   0  0  0  0  0  0  0  0  0  0  0  0
   61.0740   27.0630   46.2783 H   0  0  0  0  0  0  0  0  0  0  0  0
   59.4924   25.4412   47.2638 H   0  0  0  0  0  0  0  0  0  0  0  0
   56.3601   27.0480   44.8561 H   0  0  0  0  0  0  0  0  0  0  0  0
   57.1194   33.2426   43.6855 H   0  0  0  0  0  0  0  0  0  0  0  0
   58.6228   34.7413   44.9646 H   0  0  0  0  0  0  0  0  0  0  0  0
   61.3740   34.7760   49.4710 H   0  0  0  0  0  0  0  0  0  0  0  0
   63.3330   34.0880   50.9820 H   0  0  0  0  0  0  0  0  0  0  0  0
  1  2  1  0
  2  3  2  0
  3  4  1  0
  4  5  2  0
  5  6  1  0
  6  7  2  0
  6  8  1  0
  8  9  2  0
  9 10  1  0
 10 11  2  0
 11 12  1  0
 12 13  2  0
 12 14  2  0
 12 15  1  0
 15 16  1  0
 16 17  2  0
 17 18  1  0
 18 19  2  0
 19 20  1  0
 20 21  1  0
 20 22  2  0
 11 23  1  0
 23 24  2  0
  4 25  1  0
 25 26  1  0
 26  2  1  0
 24  8  1  0
 22 16  1  0
  1 27  1  0
  1 28  1  0
  1 29  1  0
  3 30  1  0
  9 31  1  0
 10 32  1  0
 15 33  1  0
 17 34  1  0
 18 35  1  0
 19 36  1  0
 22 37  1  0
 23 38  1  0
 24 39  1  0
 25 40  1  0
 26 41  1  0
M  END
>  <smiles>  (83) 
Cc1cc(=NC(=O)c2ccc(S(=O)(=O)Nc3cccc(Cl)c3)cc2)[nH][nH]1

>  <score_type>  (83) 
oracle

>  <origin>  (83) 
adg

>  <m_score__min__energy>  (83) 
-9.9299999999999997

>  <m_primary>  (83) 
energy

$$$$
83:0
     RDKit          3D

 40 41  0  0  0  0  0  0  0  0999 V2000
   60.7230   29.1720   49.0050 C   0  0  0  0  0  0  0  0  0  0  0  0
   60.2710   29.1930   47.6090 N   0  0  0  0  0  0  0  0  0  0  0  0
   60.9550   30.0760   46.6550 C   0  0  0  0  0  0  0  0  0  0  0  0
   59.1660   28.3550   47.1770 C   0  0  0  0  0  0  0  0  0  0  0  0
   59.1030   26.9990   47.5420 C   0  0  0  0  0  0  0  0  0  0  0  0
   58.0410   26.1970   47.1270 C   0  0  0  0  0  0  0  0  0  0  0  0
   57.0060   26.7200   46.3380 C   0  0  0  0  0  0  0  0  0  0  0  0
   55.8680   25.8350   45.9900 C   0  0  0  0  0  0  0  0  0  0  0  0
   56.0580   24.6350   45.6600 O   0  0  0  0  0  0  0  0  0  0  0  0
   54.5720   26.3390   45.9730 O   0  0  0  0  0  0  0  0  0  0  0  0
   57.0630   28.0780   45.9410 C   0  0  0  0  0  0  0  0  0  0  0  0
   56.0900   28.6240   45.0340 N   0  0  0  0  0  0  0  0  0  0  0  0
   56.3840   30.0320   44.0620 S   0  0  0  0  0  0  0  0  0  0  0  0
   56.0760   29.7030   42.6270 O   0  0  0  0  0  0  0  0  0  0  0  0
   55.4830   31.1520   44.5010 O   0  0  0  0  0  0  0  0  0  0  0  0
   58.0900   30.5430   44.1960 C   0  0  0  0  0  0  0  0  0  0  0  0
   58.1820   31.8740   44.8870 C   0  0  0  0  0  0  0  0  0  0  0  0
   58.1930   31.9470   46.2900 C   0  0  0  0  0  0  0  0  0  0  0  0
   58.3250   33.1830   46.9290 C   0  0  0  0  0  0  0  0  0  0  0  0
   58.4540   34.3520   46.1750 C   0  0  0  0  0  0  0  0  0  0  0  0
   58.4550   34.2870   44.7780 C   0  0  0  0  0  0  0  0  0  0  0  0
   58.3230   33.0530   44.1340 C   0  0  0  0  0  0  0  0  0  0  0  0
   58.1370   28.8780   46.3710 C   0  0  0  0  0  0  0  0  0  0  0  0
   59.8504   29.2125   49.6736 H   0  0  0  0  0  0  0  0  0  0  0  0
   61.2870   28.2467   49.1939 H   0  0  0  0  0  0  0  0  0  0  0  0
   61.3704   30.0410   49.1939 H   0  0  0  0  0  0  0  0  0  0  0  0
   61.5382   30.8289   47.2055 H   0  0  0  0  0  0  0  0  0  0  0  0
   61.6295   29.4802   46.0226 H   0  0  0  0  0  0  0  0  0  0  0  0
   60.2095   30.5802   46.0226 H   0  0  0  0  0  0  0  0  0  0  0  0
   59.9012   26.5656   48.1625 H   0  0  0  0  0  0  0  0  0  0  0  0
   58.0143   25.1379   47.4228 H   0  0  0  0  0  0  0  0  0  0  0  0
   55.1530   28.1730   44.9480 H   0  0  0  0  0  0  0  0  0  0  0  0
   58.6490   29.7936   44.7756 H   0  0  0  0  0  0  0  0  0  0  0  0
   58.5172   30.6333   43.1864 H   0  0  0  0  0  0  0  0  0  0  0  0
   58.0974   31.0284   46.8875 H   0  0  0  0  0  0  0  0  0  0  0  0
   58.3273   33.2354   48.0277 H   0  0  0  0  0  0  0  0  0  0  0  0
   58.5548   35.3239   46.6803 H   0  0  0  0  0  0  0  0  0  0  0  0
   58.5598   35.2077   44.1852 H   0  0  0  0  0  0  0  0  0  0  0  0
   58.3295   33.0044   43.0351 H   0  0  0  0  0  0  0  0  0  0  0  0
   58.1737   29.9356   46.0709 H   0  0  0  0  0  0  0  0  0  0  0  0
  1  2  1  0
  2  3  1  0
  2  4  1  0
  4  5  2  0
  5  6  1  0
  6  7  2  0
  7  8  1  0
  8  9  2  0
  8 10  1  0
  7 11  1  0
 11 12  1  0
 12 13  1  0
 13 14  2  0
 13 15  2  0
 13 16  1  0
 16 17  1  0
 17 18  2  0
 18 19  1  0
 19 20  2  0
 20 21  1  0
 21 22  2  0
 11 23  2  0
 23  4  1  0
 22 17  1  0
  1 24  1  0
  1 25  1  0
  1 26  1  0
  3 27  1  0
  3 28  1  0
  3 29  1  0
  5 30  1  0
  6 31  1  0
 12 32  1  0
 16 33  1  0
 16 34  1  0
 18 35  1  0
 19 36  1  0
 20 37  1  0
 21 38  1  0
 22 39  1  0
 23 40  1  0
M  CHG  1  10  -1
M  END
>  <UniqueID>  (84) 
69

>  <SMILES>  (84) 
CN(C)c1ccc(C(=O)[O-])c(NS(=O)(=O)Cc2ccccc2)c1

>  <Energy>  (84) 
44.21758646252909

>  <Genealogy>  (84) 
CN(C)c1ccc(C(=O)[O-])c(NS(=O)(=O)Cc2ccccc2)c1 (protonated)
CN(C)c1ccc(C(=O)[O-])c(NS(=O)(=O)Cc2ccccc2)c1 (3D coordinates assigned)
CN(C)c1ccc(C(=O)[O-])c(NS(=O)(=O)Cc2ccccc2)c1 (optimized conformer: 44.21758646252909 kcal/mol)

>  <smiles>  (84) 
CN(C)c1ccc(C(=O)O)c(NS(=O)(=O)Cc2ccccc2)c1

>  <score_type>  (84) 
oracle

>  <origin>  (84) 
adg

>  <m_score__min__energy>  (84) 
-11.26

>  <m_primary>  (84) 
energy

$$$$
84:0
     RDKit          3D

 35 37  0  0  0  0  0  0  0  0999 V2000
   57.8310   29.2070   44.9390 C   0  0  0  0  0  0  0  0  0  0  0  0
   57.6630   30.3210   45.7600 O   0  0  0  0  0  0  0  0  0  0  0  0
   58.0700   31.6120   45.4890 C   0  0  0  0  0  0  0  0  0  0  0  0
   58.0740   32.1760   44.2540 C   0  0  0  0  0  0  0  0  0  0  0  0
   58.4880   33.4670   44.0200 C   0  0  0  0  0  0  0  0  0  0  0  0
   58.9110   34.1900   45.1290 C   0  0  0  0  0  0  0  0  0  0  0  0
   59.3560   35.4560   45.1550 N   0  0  0  0  0  0  0  0  0  0  0  0
   59.6420   35.7270   46.3940 N   0  0  0  0  0  0  0  0  0  0  0  0
   59.4050   34.6830   47.2120 C   0  0  0  0  0  0  0  0  0  0  0  0
   59.5930   34.5710   48.6820 C   0  0  0  0  0  0  0  0  0  0  0  0
   61.0120   34.1180   48.8860 C   0  0  0  0  0  0  0  0  0  0  0  0
   61.5500   33.9770   50.1500 C   0  0  0  0  0  0  0  0  0  0  0  0
   62.8430   33.5670   50.3820 C   0  0  0  0  0  0  0  0  0  0  0  0
   63.6620   33.2740   49.3040 C   0  0  0  0  0  0  0  0  0  0  0  0
   65.3060   32.7510   49.6150 Cl  0  0  0  0  0  0  0  0  0  0  0  0
   63.1490   33.4060   48.0310 C   0  0  0  0  0  0  0  0  0  0  0  0
   61.8330   33.8250   47.8070 C   0  0  0  0  0  0  0  0  0  0  0  0
   58.9220   33.6560   46.4020 C   0  0  0  0  0  0  0  0  0  0  0  0
   58.5030   32.3730   46.5800 C   0  0  0  0  0  0  0  0  0  0  0  0
   58.5160   31.7940   47.9650 C   0  0  0  0  0  0  0  0  0  0  0  0
   57.9663   28.3100   45.5612 H   0  0  0  0  0  0  0  0  0  0  0  0
   56.9415   29.0820   44.3040 H   0  0  0  0  0  0  0  0  0  0  0  0
   58.7178   29.3499   44.3040 H   0  0  0  0  0  0  0  0  0  0  0  0
   57.7303   31.5727   43.4008 H   0  0  0  0  0  0  0  0  0  0  0  0
   58.4844   33.9032   43.0102 H   0  0  0  0  0  0  0  0  0  0  0  0
   60.0190   36.6620   46.7280 H   0  0  0  0  0  0  0  0  0  0  0  0
   59.4305   35.5466   49.1634 H   0  0  0  0  0  0  0  0  0  0  0  0
   58.8770   33.8642   49.1266 H   0  0  0  0  0  0  0  0  0  0  0  0
   60.9117   34.2043   51.0166 H   0  0  0  0  0  0  0  0  0  0  0  0
   63.2214   33.4731   51.4106 H   0  0  0  0  0  0  0  0  0  0  0  0
   63.7916   33.1757   47.1684 H   0  0  0  0  0  0  0  0  0  0  0  0
   61.4512   33.9216   46.7799 H   0  0  0  0  0  0  0  0  0  0  0  0
   58.4977   32.6091   48.7034 H   0  0  0  0  0  0  0  0  0  0  0  0
   57.6320   31.1541   48.1032 H   0  0  0  0  0  0  0  0  0  0  0  0
   59.4278   31.1945   48.1032 H   0  0  0  0  0  0  0  0  0  0  0  0
  1  2  1  0
  2  3  1  0
  3  4  1  0
  4  5  2  0
  5  6  1  0
  6  7  2  0
  7  8  1  0
  8  9  1  0
  9 10  1  0
 10 11  1  0
 11 12  2  0
 12 13  1  0
 13 14  2  0
 14 15  1  0
 14 16  1  0
 16 17  2  0
  9 18  2  0
 18 19  1  0
 19 20  1  0
 19  3  2  0
 18  6  1  0
 17 11  1  0
  1 21  1  0
  1 22  1  0
  1 23  1  0
  4 24  1  0
  5 25  1  0
  8 26  1  0
 10 27  1  0
 10 28  1  0
 12 29  1  0
 13 30  1  0
 16 31  1  0
 17 32  1  0
 20 33  1  0
 20 34  1  0
 20 35  1  0
M  END
>  <smiles>  (85) 
COc1ccc2n[nH]c(Cc3ccc(Cl)cc3)c2c1C

>  <score_type>  (85) 
oracle

>  <origin>  (85) 
adg

>  <m_score__min__energy>  (85) 
-7.79

>  <m_primary>  (85) 
energy

$$$$
85:0
     RDKit          3D

 28 29  0  0  0  0  0  0  0  0999 V2000
   60.7498   34.1423   49.9487 H   0  0  0  0  0  0  0  0  0  0  0  0
   59.9460   33.5970   50.4650 C   0  0  0  0  0  0  0  0  0  0  0  0
   59.1890   32.6480   49.7730 C   0  0  0  0  0  0  0  0  0  0  0  0
   59.4003   32.4428   48.7132 H   0  0  0  0  0  0  0  0  0  0  0  0
   58.1630   31.9590   50.4270 C   0  0  0  0  0  0  0  0  0  0  0  0
   57.5772   31.2048   49.8810 H   0  0  0  0  0  0  0  0  0  0  0  0
   57.8750   32.2230   51.7760 C   0  0  0  0  0  0  0  0  0  0  0  0
   56.8300   31.4850   52.4320 N   0  0  0  0  0  0  0  0  0  0  0  0
   56.2750   31.9680   53.1740 H   0  0  0  0  0  0  0  0  0  0  0  0
   56.5920   30.0830   52.2290 C   0  0  0  0  0  0  0  0  0  0  0  0
   57.5340   29.3320   51.8610 O   0  0  0  0  0  0  0  0  0  0  0  0
   55.3260   29.4920   52.5510 N   0  0  0  0  0  0  0  0  0  0  0  0
   54.1570   30.0530   52.4380 C   0  0  0  0  0  0  0  0  0  0  0  0
   53.1220   29.7110   53.2330 N   0  0  0  0  0  0  0  0  0  0  0  0
   51.9830   30.3880   52.9140 C   0  0  0  0  0  0  0  0  0  0  0  0
   50.7170   30.1610   53.6780 C   0  0  0  0  0  0  0  0  0  0  0  0
   50.9280   30.1988   54.7569 H   0  0  0  0  0  0  0  0  0  0  0  0
   49.9875   30.9427   53.4194 H   0  0  0  0  0  0  0  0  0  0  0  0
   50.3046   29.1746   53.4194 H   0  0  0  0  0  0  0  0  0  0  0  0
   52.1120   31.2780   51.8370 C   0  0  0  0  0  0  0  0  0  0  0  0
   51.0770   32.1450   51.2490 C   0  0  0  0  0  0  0  0  0  0  0  0
   50.2510   32.7320   51.9980 O   0  0  0  0  0  0  0  0  0  0  0  0
   50.9930   32.3310   49.8750 O   0  0  0  0  0  0  0  0  0  0  0  0
   53.7030   31.1960   51.2850 S   0  0  0  0  0  0  0  0  0  0  0  0
   58.6560   33.1660   52.4700 C   0  0  0  0  0  0  0  0  0  0  0  0
   58.4590   33.3637   53.5340 H   0  0  0  0  0  0  0  0  0  0  0  0
   59.6820   33.8530   51.8120 C   0  0  0  0  0  0  0  0  0  0  0  0
   60.2820   34.5965   52.3571 H   0  0  0  0  0  0  0  0  0  0  0  0
  1  2  1  0
  2  3  2  0
  3  4  1  0
  3  5  1  0
  5  6  1  0
  5  7  2  0
  7  8  1  0
  8  9  1  0
  8 10  1  0
 10 11  2  0
 10 12  1  0
 12 13  2  0
 13 14  1  0
 14 15  1  0
 15 16  1  0
 16 17  1  0
 16 18  1  0
 16 19  1  0
 15 20  2  0
 20 21  1  0
 21 22  2  0
 21 23  1  0
 20 24  1  0
  7 25  1  0
 25 26  1  0
 25 27  2  0
 27 28  1  0
 27  2  1  0
 24 13  1  0
M  CHG  2  14  -1  23  -1
M  END
>  <UniqueID>  (86) 
70

>  <SMILES>  (86) 
Cc1[n-]/c(=N/C(=O)Nc2ccccc2)sc1C(=O)[O-]

>  <Energy>  (86) 
66.26138245873098

>  <Genealogy>  (86) 
Cc1[n-]c(=NC(=O)Nc2ccccc2)sc1C(=O)[O-] (protonated)
Cc1[n-]/c(=N/C(=O)Nc2ccccc2)sc1C(=O)[O-] (cis-trans isomerization)
Cc1[n-]/c(=N/C(=O)Nc2ccccc2)sc1C(=O)[O-] (3D coordinates assigned)
Cc1[n-]/c(=N/C(=O)Nc2ccccc2)sc1C(=O)[O-] (optimized conformer: 66.26138245873098 kcal/mol)

>  <smiles>  (86) 
Cc1[nH]c(=NC(=O)Nc2ccccc2)sc1C(=O)O

>  <score_type>  (86) 
oracle

>  <origin>  (86) 
adg

>  <m_score__min__energy>  (86) 
-11

>  <m_primary>  (86) 
energy

$$$$
86:0
     RDKit          3D

 41 42  0  0  0  0  0  0  0  0999 V2000
   58.3206   30.0354   46.6061 H   0  0  0  0  0  0  0  0  0  0  0  0
   58.4950   31.1160   46.7150 C   0  0  0  0  0  0  0  0  0  0  0  0
   59.3240   31.5880   47.7370 C   0  0  0  0  0  0  0  0  0  0  0  0
   59.7960   30.8771   48.4312 H   0  0  0  0  0  0  0  0  0  0  0  0
   59.5560   32.9590   47.8810 C   0  0  0  0  0  0  0  0  0  0  0  0
   60.5730   33.5430   49.1960 S   0  0  0  0  0  0  0  0  0  0  0  0
   60.9230   32.4110   50.1230 O   0  0  0  0  0  0  0  0  0  0  0  0
   59.8170   34.5790   49.9800 O   0  0  0  0  0  0  0  0  0  0  0  0
   62.0290   34.2550   48.5680 N   0  0  0  0  0  0  0  0  0  0  0  0
   62.8280   33.2770   47.8210 C   0  0  0  0  0  0  0  0  0  0  0  0
   62.2565   32.3471   47.6848 H   0  0  0  0  0  0  0  0  0  0  0  0
   64.1040   32.9770   48.6080 C   0  0  0  0  0  0  0  0  0  0  0  0
   63.8903   33.0272   49.6859 H   0  0  0  0  0  0  0  0  0  0  0  0
   64.4643   31.9697   48.3522 H   0  0  0  0  0  0  0  0  0  0  0  0
   64.8754   33.7183   48.3522 H   0  0  0  0  0  0  0  0  0  0  0  0
   63.1750   33.8440   46.4430 C   0  0  0  0  0  0  0  0  0  0  0  0
   63.7457   34.7766   46.5634 H   0  0  0  0  0  0  0  0  0  0  0  0
   63.7804   33.1127   45.8874 H   0  0  0  0  0  0  0  0  0  0  0  0
   62.2483   34.0504   45.8874 H   0  0  0  0  0  0  0  0  0  0  0  0
   58.9470   33.8610   46.9990 C   0  0  0  0  0  0  0  0  0  0  0  0
   59.1232   34.9409   47.1123 H   0  0  0  0  0  0  0  0  0  0  0  0
   58.1160   33.3950   45.9750 C   0  0  0  0  0  0  0  0  0  0  0  0
   57.3640   34.5510   44.8870 Cl  0  0  0  0  0  0  0  0  0  0  0  0
   57.8820   32.0190   45.8240 C   0  0  0  0  0  0  0  0  0  0  0  0
   57.0400   31.5870   44.7860 O   0  0  0  0  0  0  0  0  0  0  0  0
   57.1710   30.3410   44.1060 C   0  0  0  0  0  0  0  0  0  0  0  0
   58.2340   30.0613   44.0641 H   0  0  0  0  0  0  0  0  0  0  0  0
   56.7668   30.4463   43.0884 H   0  0  0  0  0  0  0  0  0  0  0  0
   56.4040   29.2660   44.8260 C   0  0  0  0  0  0  0  0  0  0  0  0
   55.1470   29.3340   44.8660 O   0  0  0  0  0  0  0  0  0  0  0  0
   57.0460   28.1540   45.4770 N   0  0  0  0  0  0  0  0  0  0  0  0
   56.5650   26.9660   45.6980 C   0  0  0  0  0  0  0  0  0  0  0  0
   55.2850   26.6890   46.0150 N   0  0  0  0  0  0  0  0  0  0  0  0
   55.2130   25.3970   46.1510 O   0  0  0  0  0  0  0  0  0  0  0  0
   56.3800   24.8320   45.9410 C   0  0  0  0  0  0  0  0  0  0  0  0
   56.6370   23.3650   46.0020 C   0  0  0  0  0  0  0  0  0  0  0  0
   56.6929   23.0459   47.0532 H   0  0  0  0  0  0  0  0  0  0  0  0
   55.8192   22.8282   45.4989 H   0  0  0  0  0  0  0  0  0  0  0  0
   57.5886   23.1382   45.4989 H   0  0  0  0  0  0  0  0  0  0  0  0
   57.3060   25.8080   45.6360 C   0  0  0  0  0  0  0  0  0  0  0  0
   58.3741   25.6897   45.4010 H   0  0  0  0  0  0  0  0  0  0  0  0
  1  2  1  0
  2  3  2  0
  3  4  1  0
  3  5  1  0
  5  6  1  0
  6  7  2  0
  6  8  2  0
  6  9  1  0
  9 10  1  0
 10 11  1  0
 10 12  1  0
 12 13  1  0
 12 14  1  0
 12 15  1  0
 10 16  1  0
 16 17  1  0
 16 18  1  0
 16 19  1  0
  5 20  2  0
 20 21  1  0
 20 22  1  0
 22 23  1  0
 22 24  2  0
 24 25  1  0
 25 26  1  0
 26 27  1  0
 26 28  1  0
 26 29  1  0
 29 30  2  0
 29 31  1  0
 31 32  2  0
 32 33  1  0
 33 34  1  0
 34 35  1  0
 35 36  1  0
 36 37  1  0
 36 38  1  0
 36 39  1  0
 35 40  2  0
 40 41  1  0
 24  2  1  0
 40 32  1  0
M  CHG  2   9  -1  33  -1
M  END
>  <UniqueID>  (87) 
71

>  <SMILES>  (87) 
Cc1c/c(=N/C(=O)COc2ccc(S(=O)(=O)[N-]C(C)C)cc2Cl)[n-]o1

>  <Energy>  (87) 
68.0903125111311

>  <Genealogy>  (87) 
Cc1cc(=NC(=O)COc2ccc(S(=O)(=O)[N-]C(C)C)cc2Cl)[n-]o1 (protonated)
Cc1c/c(=N/C(=O)COc2ccc(S(=O)(=O)[N-]C(C)C)cc2Cl)[n-]o1 (cis-trans isomerization)
Cc1c/c(=N/C(=O)COc2ccc(S(=O)(=O)[N-]C(C)C)cc2Cl)[n-]o1 (3D coordinates assigned)
Cc1c/c(=N/C(=O)COc2ccc(S(=O)(=O)[N-]C(C)C)cc2Cl)[n-]o1 (optimized conformer: 68.0903125111311 kcal/mol)

>  <smiles>  (87) 
Cc1cc(=NC(=O)COc2ccc(S(=O)(=O)NC(C)C)cc2Cl)[nH]o1

>  <score_type>  (87) 
oracle

>  <origin>  (87) 
adg

>  <m_score__min__energy>  (87) 
-11.5

>  <m_primary>  (87) 
energy

$$$$
87:0
     RDKit          3D

 52 54  0  0  0  0  0  0  0  0999 V2000
   54.4430   25.9820   45.9740 N   0  0  0  0  0  0  0  0  0  0  0  0
   55.7740   24.8890   46.1110 S   0  0  0  0  0  0  0  0  0  0  0  0
   55.6690   23.8300   45.0490 O   0  0  0  0  0  0  0  0  0  0  0  0
   55.7420   24.2250   47.4600 O   0  0  0  0  0  0  0  0  0  0  0  0
   57.2810   25.7770   45.9130 C   0  0  0  0  0  0  0  0  0  0  0  0
   58.4830   25.2210   46.3660 C   0  0  0  0  0  0  0  0  0  0  0  0
   59.6830   25.9170   46.2040 C   0  0  0  0  0  0  0  0  0  0  0  0
   59.6900   27.1740   45.5920 C   0  0  0  0  0  0  0  0  0  0  0  0
   58.4910   27.7470   45.1320 C   0  0  0  0  0  0  0  0  0  0  0  0
   58.4800   29.0740   44.4740 C   0  0  0  0  0  0  0  0  0  0  0  0
   59.5710   29.6880   44.3090 O   0  0  0  0  0  0  0  0  0  0  0  0
   57.2550   29.6600   44.0020 N   0  0  0  0  0  0  0  0  0  0  0  0
   57.2180   30.9560   43.3290 C   0  0  0  0  0  0  0  0  0  0  0  0
   57.7310   32.0340   44.2440 C   0  0  0  0  0  0  0  0  0  0  0  0
   57.5260   31.9530   45.6310 C   0  0  0  0  0  0  0  0  0  0  0  0
   58.0540   32.9290   46.4810 C   0  0  0  0  0  0  0  0  0  0  0  0
   58.8060   33.9910   45.9570 C   0  0  0  0  0  0  0  0  0  0  0  0
   59.4000   35.0060   46.8450 C   0  0  0  0  0  0  0  0  0  0  0  0
   59.6700   36.1440   46.3770 O   0  0  0  0  0  0  0  0  0  0  0  0
   59.7160   34.7340   48.2190 N   0  0  0  0  0  0  0  0  0  0  0  0
   61.0470   34.4880   48.7720 C   0  0  0  0  0  0  0  0  0  0  0  0
   61.0840   33.2230   49.6390 C   0  0  0  0  0  0  0  0  0  0  0  0
   60.5380   32.0270   48.9030 C   0  0  0  0  0  0  0  0  0  0  0  0
   61.1730   31.5580   47.7390 C   0  0  0  0  0  0  0  0  0  0  0  0
   60.6760   30.4340   47.0720 C   0  0  0  0  0  0  0  0  0  0  0  0
   59.5490   29.7690   47.5610 C   0  0  0  0  0  0  0  0  0  0  0  0
   58.9170   30.2260   48.7210 C   0  0  0  0  0  0  0  0  0  0  0  0
   59.4090   31.3490   49.3910 C   0  0  0  0  0  0  0  0  0  0  0  0
   58.9780   34.0940   44.5680 C   0  0  0  0  0  0  0  0  0  0  0  0
   58.4520   33.1180   43.7190 C   0  0  0  0  0  0  0  0  0  0  0  0
   57.2890   27.0320   45.2870 C   0  0  0  0  0  0  0  0  0  0  0  0
   54.7460   26.8890   46.3970 H   0  0  0  0  0  0  0  0  0  0  0  0
   58.4825   24.2336   46.8507 H   0  0  0  0  0  0  0  0  0  0  0  0
   60.6255   25.4748   46.5590 H   0  0  0  0  0  0  0  0  0  0  0  0
   60.6384   27.7177   45.4697 H   0  0  0  0  0  0  0  0  0  0  0  0
   56.3610   29.1250   44.0700 H   0  0  0  0  0  0  0  0  0  0  0  0
   57.8474   30.9150   42.4278 H   0  0  0  0  0  0  0  0  0  0  0  0
   56.1785   31.1861   43.0524 H   0  0  0  0  0  0  0  0  0  0  0  0
   56.9469   31.1172   46.0506 H   0  0  0  0  0  0  0  0  0  0  0  0
   57.8792   32.8641   47.5651 H   0  0  0  0  0  0  0  0  0  0  0  0
   61.7602   34.3712   47.9427 H   0  0  0  0  0  0  0  0  0  0  0  0
   61.3141   35.3443   49.4087 H   0  0  0  0  0  0  0  0  0  0  0  0
   62.1257   33.0190   49.9277 H   0  0  0  0  0  0  0  0  0  0  0  0
   60.4561   33.3962   50.5254 H   0  0  0  0  0  0  0  0  0  0  0  0
   62.0627   32.0766   47.3524 H   0  0  0  0  0  0  0  0  0  0  0  0
   61.1737   30.0726   46.1600 H   0  0  0  0  0  0  0  0  0  0  0  0
   59.1591   28.8861   47.0334 H   0  0  0  0  0  0  0  0  0  0  0  0
   58.0309   29.7007   49.1070 H   0  0  0  0  0  0  0  0  0  0  0  0
   58.9099   31.7037   50.3048 H   0  0  0  0  0  0  0  0  0  0  0  0
   59.5295   34.9472   44.1462 H   0  0  0  0  0  0  0  0  0  0  0  0
   58.6035   33.1991   42.6325 H   0  0  0  0  0  0  0  0  0  0  0  0
   56.3474   27.4612   44.9139 H   0  0  0  0  0  0  0  0  0  0  0  0
  1  2  1  0
  2  3  2  0
  2  4  2  0
  2  5  1  0
  5  6  2  0
  6  7  1  0
  7  8  2  0
  8  9  1  0
  9 10  1  0
 10 11  2  0
 10 12  1  0
 12 13  1  0
 13 14  1  0
 14 15  2  0
 15 16  1  0
 16 17  2  0
 17 18  1  0
 18 19  2  0
 18 20  1  0
 20 21  1  0
 21 22  1  0
 22 23  1  0
 23 24  2  0
 24 25  1  0
 25 26  2  0
 26 27  1  0
 27 28  2  0
 17 29  1  0
 29 30  2  0
  9 31  2  0
 31  5  1  0
 30 14  1  0
 28 23  1  0
  1 32  1  0
  6 33  1  0
  7 34  1  0
  8 35  1  0
 12 36  1  0
 13 37  1  0
 13 38  1  0
 15 39  1  0
 16 40  1  0
 21 41  1  0
 21 42  1  0
 22 43  1  0
 22 44  1  0
 24 45  1  0
 25 46  1  0
 26 47  1  0
 27 48  1  0
 28 49  1  0
 29 50  1  0
 30 51  1  0
 31 52  1  0
M  CHG  2   1  -1  20  -1
M  END
>  <UniqueID>  (88) 
72

>  <SMILES>  (88) 
[NH-]S(=O)(=O)c1cccc(C(=O)NCc2ccc(C(=O)[N-]CCc3ccccc3)cc2)c1

>  <Energy>  (88) 
55.136575669130586

>  <Genealogy>  (88) 
[NH-]S(=O)(=O)c1cccc(C(=O)NCc2ccc(C(=O)[N-]CCc3ccccc3)cc2)c1 (protonated)
[NH-]S(=O)(=O)c1cccc(C(=O)NCc2ccc(C(=O)[N-]CCc3ccccc3)cc2)c1 (3D coordinates assigned)
[NH-]S(=O)(=O)c1cccc(C(=O)NCc2ccc(C(=O)[N-]CCc3ccccc3)cc2)c1 (optimized conformer: 55.136575669130586 kcal/mol)

>  <smiles>  (88) 
NS(=O)(=O)c1cccc(C(=O)NCc2ccc(C(=O)NCCc3ccccc3)cc2)c1

>  <score_type>  (88) 
oracle

>  <origin>  (88) 
adg

>  <m_score__min__energy>  (88) 
-13.18

>  <m_primary>  (88) 
energy

$$$$
88:0
     RDKit          3D

 54 56  0  0  0  0  0  0  0  0999 V2000
   59.2380   33.5020   51.4420 C   0  0  0  0  0  0  0  0  0  0  0  0
   60.5140   33.0380   51.0140 O   0  0  0  0  0  0  0  0  0  0  0  0
   60.7570   32.4090   49.7840 C   0  0  0  0  0  0  0  0  0  0  0  0
   60.4970   31.0430   49.5680 C   0  0  0  0  0  0  0  0  0  0  0  0
   60.7650   30.4540   48.3210 C   0  0  0  0  0  0  0  0  0  0  0  0
   60.4790   29.0670   48.0740 N   0  0  0  0  0  0  0  0  0  0  0  0
   59.2050   28.5770   47.6260 C   0  0  0  0  0  0  0  0  0  0  0  0
   58.1720   29.2920   47.7270 O   0  0  0  0  0  0  0  0  0  0  0  0
   59.0960   27.2050   47.0270 C   0  0  0  0  0  0  0  0  0  0  0  0
   59.6260   27.1850   45.6440 N   0  0  0  0  0  0  0  0  0  0  0  0
   58.5860   26.9310   44.6230 C   0  0  0  0  0  0  0  0  0  0  0  0
   57.5980   28.1090   44.4790 C   0  0  0  0  0  0  0  0  0  0  0  0
   58.1530   29.3670   45.0150 N   0  0  0  0  0  0  0  0  0  0  0  0
   57.2330   30.7270   44.4240 S   0  0  0  0  0  0  0  0  0  0  0  0
   57.3450   30.7960   42.9260 O   0  0  0  0  0  0  0  0  0  0  0  0
   55.7810   30.5700   44.7840 O   0  0  0  0  0  0  0  0  0  0  0  0
   57.8790   32.2200   45.1090 C   0  0  0  0  0  0  0  0  0  0  0  0
   57.8140   32.4220   46.4960 C   0  0  0  0  0  0  0  0  0  0  0  0
   58.2950   33.6090   47.0590 C   0  0  0  0  0  0  0  0  0  0  0  0
   58.8370   34.6020   46.2410 C   0  0  0  0  0  0  0  0  0  0  0  0
   58.8970   34.4130   44.8570 C   0  0  0  0  0  0  0  0  0  0  0  0
   58.4170   33.2280   44.2880 C   0  0  0  0  0  0  0  0  0  0  0  0
   58.4700   33.0770   42.9410 F   0  0  0  0  0  0  0  0  0  0  0  0
   59.5660   29.5110   44.6470 C   0  0  0  0  0  0  0  0  0  0  0  0
   60.4070   28.4070   45.3250 C   0  0  0  0  0  0  0  0  0  0  0  0
   61.2590   31.2490   47.2770 C   0  0  0  0  0  0  0  0  0  0  0  0
   61.5230   32.6160   47.4820 C   0  0  0  0  0  0  0  0  0  0  0  0
   62.0310   33.4430   46.4690 O   0  0  0  0  0  0  0  0  0  0  0  0
   63.3900   33.8570   46.3730 C   0  0  0  0  0  0  0  0  0  0  0  0
   61.2740   33.1810   48.7370 C   0  0  0  0  0  0  0  0  0  0  0  0
   59.2024   33.5150   52.5413 H   0  0  0  0  0  0  0  0  0  0  0  0
   59.0698   34.5189   51.0577 H   0  0  0  0  0  0  0  0  0  0  0  0
   58.4559   32.8307   51.0577 H   0  0  0  0  0  0  0  0  0  0  0  0
   60.0806   30.4315   50.3820 H   0  0  0  0  0  0  0  0  0  0  0  0
   61.2300   28.3680   48.2750 H   0  0  0  0  0  0  0  0  0  0  0  0
   59.6706   26.4972   47.6425 H   0  0  0  0  0  0  0  0  0  0  0  0
   58.0343   26.9185   46.9992 H   0  0  0  0  0  0  0  0  0  0  0  0
   59.0774   26.7623   43.6534 H   0  0  0  0  0  0  0  0  0  0  0  0
   58.0109   26.0499   44.9439 H   0  0  0  0  0  0  0  0  0  0  0  0
   57.3661   28.2493   43.4129 H   0  0  0  0  0  0  0  0  0  0  0  0
   56.6933   27.8650   45.0552 H   0  0  0  0  0  0  0  0  0  0  0  0
   57.3831   31.6439   47.1433 H   0  0  0  0  0  0  0  0  0  0  0  0
   58.2461   33.7600   48.1475 H   0  0  0  0  0  0  0  0  0  0  0  0
   59.2171   35.5336   46.6856 H   0  0  0  0  0  0  0  0  0  0  0  0
   59.3225   35.1975   44.2139 H   0  0  0  0  0  0  0  0  0  0  0  0
   59.6678   29.4268   43.5550 H   0  0  0  0  0  0  0  0  0  0  0  0
   59.9265   30.4947   44.9821 H   0  0  0  0  0  0  0  0  0  0  0  0
   61.2287   28.1293   44.6485 H   0  0  0  0  0  0  0  0  0  0  0  0
   60.7742   28.8165   46.2776 H   0  0  0  0  0  0  0  0  0  0  0  0
   61.4417   30.8004   46.2894 H   0  0  0  0  0  0  0  0  0  0  0  0
   63.8068   33.9840   47.3830 H   0  0  0  0  0  0  0  0  0  0  0  0
   63.9682   33.0943   45.8309 H   0  0  0  0  0  0  0  0  0  0  0  0
   63.4448   34.8126   45.8309 H   0  0  0  0  0  0  0  0  0  0  0  0
   61.4875   34.2471   48.9036 H   0  0  0  0  0  0  0  0  0  0  0  0
  1  2  1  0
  2  3  1  0
  3  4  2  0
  4  5  1  0
  5  6  1  0
  6  7  1  0
  7  8  2  0
  7  9  1  0
  9 10  1  0
 10 11  1  0
 11 12  1  0
 12 13  1  0
 13 14  1  0
 14 15  2  0
 14 16  2  0
 14 17  1  0
 17 18  2  0
 18 19  1  0
 19 20  2  0
 20 21  1  0
 21 22  2  0
 22 23  1  0
 13 24  1  0
 24 25  1  0
  5 26  2  0
 26 27  1  0
 27 28  1  0
 28 29  1  0
 27 30  2  0
 30  3  1  0
 25 10  1  0
 22 17  1  0
  1 31  1  0
  1 32  1  0
  1 33  1  0
  4 34  1  0
  6 35  1  0
  9 36  1  0
  9 37  1  0
 11 38  1  0
 11 39  1  0
 12 40  1  0
 12 41  1  0
 18 42  1  0
 19 43  1  0
 20 44  1  0
 21 45  1  0
 24 46  1  0
 24 47  1  0
 25 48  1  0
 25 49  1  0
 26 50  1  0
 29 51  1  0
 29 52  1  0
 29 53  1  0
 30 54  1  0
M  END
>  <UniqueID>  (89) 
73

>  <SMILES>  (89) 
COc1cc(NC(=O)CN2CCN(S(=O)(=O)c3ccccc3F)CC2)cc(OC)c1

>  <Energy>  (89) 
66.31155502947766

>  <Genealogy>  (89) 
COc1cc(NC(=O)CN2CCN(S(=O)(=O)c3ccccc3F)CC2)cc(OC)c1 (3D coordinates assigned)
COc1cc(NC(=O)CN2CCN(S(=O)(=O)c3ccccc3F)CC2)cc(OC)c1 (nonaromatic ring conformer: 66.31155502947766 kcal/mol)

>  <smiles>  (89) 
COc1cc(NC(=O)CN2CCN(S(=O)(=O)c3ccccc3F)CC2)cc(OC)c1

>  <score_type>  (89) 
oracle

>  <origin>  (89) 
adg

>  <m_score__min__energy>  (89) 
-8.9800000000000004

>  <m_primary>  (89) 
energy

$$$$
89:0
     RDKit          3D

 40 41  0  0  0  0  0  0  0  0999 V2000
   57.4320   31.8620   42.2380 C   0  0  0  0  0  0  0  0  0  0  0  0
   57.0350   31.0690   43.2360 C   0  0  0  0  0  0  0  0  0  0  0  0
   55.9140   30.0800   43.0700 C   0  0  0  0  0  0  0  0  0  0  0  0
   55.4700   29.5930   44.3740 N   0  0  0  0  0  0  0  0  0  0  0  0
   56.2200   28.9500   45.2200 C   0  0  0  0  0  0  0  0  0  0  0  0
   55.8920   27.6820   45.5710 N   0  0  0  0  0  0  0  0  0  0  0  0
   56.6630   26.9900   46.4520 C   0  0  0  0  0  0  0  0  0  0  0  0
   56.3640   25.7720   46.7950 N   0  0  0  0  0  0  0  0  0  0  0  0
   56.0570   24.6900   45.8600 C   0  0  0  0  0  0  0  0  0  0  0  0
   54.5520   24.5950   45.6160 C   0  0  0  0  0  0  0  0  0  0  0  0
   53.9930   25.8790   45.6410 O   0  0  0  0  0  0  0  0  0  0  0  0
   57.7670   27.5760   46.9780 N   0  0  0  0  0  0  0  0  0  0  0  0
   58.1000   28.8510   46.6410 C   0  0  0  0  0  0  0  0  0  0  0  0
   59.1670   29.4220   47.1200 N   0  0  0  0  0  0  0  0  0  0  0  0
   59.4870   30.8230   47.0760 C   0  0  0  0  0  0  0  0  0  0  0  0
   58.4400   31.7480   46.9780 C   0  0  0  0  0  0  0  0  0  0  0  0
   58.7080   33.1190   46.9550 C   0  0  0  0  0  0  0  0  0  0  0  0
   60.0240   33.5790   47.0520 C   0  0  0  0  0  0  0  0  0  0  0  0
   61.0780   32.6660   47.1920 C   0  0  0  0  0  0  0  0  0  0  0  0
   62.7400   33.2310   47.3310 S   0  0  0  0  0  0  0  0  0  0  0  0
   63.7780   31.8900   47.6680 N   0  0  0  0  0  0  0  0  0  0  0  0
   63.1760   33.8830   46.0490 O   0  0  0  0  0  0  0  0  0  0  0  0
   62.8380   34.2380   48.4420 O   0  0  0  0  0  0  0  0  0  0  0  0
   60.8080   31.2920   47.2120 C   0  0  0  0  0  0  0  0  0  0  0  0
   57.3290   29.5280   45.7550 N   0  0  0  0  0  0  0  0  0  0  0  0
   58.2557   32.5738   42.3955 H   0  0  0  0  0  0  0  0  0  0  0  0
   56.9354   31.8035   41.2582 H   0  0  0  0  0  0  0  0  0  0  0  0
   57.5430   31.1411   44.2090 H   0  0  0  0  0  0  0  0  0  0  0  0
   55.0714   30.5690   42.5592 H   0  0  0  0  0  0  0  0  0  0  0  0
   56.2735   29.2285   42.4736 H   0  0  0  0  0  0  0  0  0  0  0  0
   56.5658   24.8840   44.9042 H   0  0  0  0  0  0  0  0  0  0  0  0
   56.4048   23.7405   46.2929 H   0  0  0  0  0  0  0  0  0  0  0  0
   54.3681   24.1341   44.6343 H   0  0  0  0  0  0  0  0  0  0  0  0
   54.0912   23.9791   46.4024 H   0  0  0  0  0  0  0  0  0  0  0  0
   54.3920   26.3370   46.4260 H   0  0  0  0  0  0  0  0  0  0  0  0
   57.4005   31.3930   46.9188 H   0  0  0  0  0  0  0  0  0  0  0  0
   57.8810   33.8381   46.8603 H   0  0  0  0  0  0  0  0  0  0  0  0
   60.2328   34.6585   47.0184 H   0  0  0  0  0  0  0  0  0  0  0  0
   64.5160   31.8840   46.9290 H   0  0  0  0  0  0  0  0  0  0  0  0
   61.6328   30.5746   47.3347 H   0  0  0  0  0  0  0  0  0  0  0  0
  1  2  2  0
  2  3  1  0
  3  4  1  0
  4  5  2  3
  5  6  1  0
  6  7  1  0
  7  8  2  3
  8  9  1  0
  9 10  1  0
 10 11  1  0
  7 12  1  0
 12 13  1  0
 13 14  2  3
 14 15  1  0
 15 16  2  0
 16 17  1  0
 17 18  2  0
 18 19  1  0
 19 20  1  0
 20 21  1  0
 20 22  2  0
 20 23  2  0
 19 24  2  0
 13 25  1  0
 25  5  1  0
 24 15  1  0
  1 26  1  0
  1 27  1  0
  2 28  1  0
  3 29  1  0
  3 30  1  0
  9 31  1  0
  9 32  1  0
 10 33  1  0
 10 34  1  0
 11 35  1  0
 16 36  1  0
 17 37  1  0
 18 38  1  0
 21 39  1  0
 24 40  1  0
M  CHG  4   6  -1  12  -1  21  -1  25  -1
M  END
>  <UniqueID>  (90) 
74

>  <SMILES>  (90) 
C=CCN=c1[n-]c(=NCCO)[n-]c(=Nc2cccc(S([NH-])(=O)=O)c2)[n-]1

>  <Energy>  (90) 
40.76613635547186

>  <Genealogy>  (90) 
C=CCN=c1[n-]c(=NCCO)[n-]c(=Nc2cccc(S([NH-])(=O)=O)c2)[n-]1 (protonated)
C=CCN=c1[n-]c(=NCCO)[n-]c(=Nc2cccc(S([NH-])(=O)=O)c2)[n-]1 (3D coordinates assigned)
C=CCN=c1[n-]c(=NCCO)[n-]c(=Nc2cccc(S([NH-])(=O)=O)c2)[n-]1 (optimized conformer: 40.76613635547186 kcal/mol)

>  <smiles>  (90) 
C=CCN=c1[nH]c(=NCCO)[nH]c(=Nc2cccc(S(N)(=O)=O)c2)[nH]1

>  <score_type>  (90) 
oracle

>  <origin>  (90) 
adg

>  <m_score__min__energy>  (90) 
-14.23

>  <m_primary>  (90) 
energy

$$$$
90:0
     RDKit          3D

 69 73  0  0  0  0  0  0  0  0999 V2000
   67.7610   33.5900   52.9210 C   0  0  0  0  0  0  0  0  0  0  0  0
   67.1450   34.4600   51.4950 S   0  0  0  0  0  0  0  0  0  0  0  0
   67.7240   35.8460   51.4740 O   0  0  0  0  0  0  0  0  0  0  0  0
   67.5630   33.7300   50.2490 O   0  0  0  0  0  0  0  0  0  0  0  0
   65.4430   34.5660   51.5460 O   0  0  0  0  0  0  0  0  0  0  0  0
   64.6440   33.6550   50.8580 C   0  0  0  0  0  0  0  0  0  0  0  0
   64.9180   32.2840   50.9470 C   0  0  0  0  0  0  0  0  0  0  0  0
   64.1200   31.3610   50.2650 C   0  0  0  0  0  0  0  0  0  0  0  0
   63.0510   31.8080   49.4820 C   0  0  0  0  0  0  0  0  0  0  0  0
   62.2570   30.9270   48.8240 N   0  0  0  0  0  0  0  0  0  0  0  0
   61.2080   31.3360   48.0590 C   0  0  0  0  0  0  0  0  0  0  0  0
   60.3500   30.2970   47.4470 C   0  0  0  0  0  0  0  0  0  0  0  0
   60.3910   30.0940   46.0600 C   0  0  0  0  0  0  0  0  0  0  0  0
   59.6220   29.0890   45.4690 C   0  0  0  0  0  0  0  0  0  0  0  0
   58.8170   28.2580   46.2620 C   0  0  0  0  0  0  0  0  0  0  0  0
   58.0290   27.2190   45.6730 N   0  0  0  0  0  0  0  0  0  0  0  0
   56.6000   27.1350   45.7570 C   0  0  0  0  0  0  0  0  0  0  0  0
   55.9040   28.0700   45.2820 O   0  0  0  0  0  0  0  0  0  0  0  0
   55.9250   26.0120   46.4880 C   0  0  0  0  0  0  0  0  0  0  0  0
   55.2090   25.1790   45.5280 N   0  0  0  0  0  0  0  0  0  0  0  0
   54.3470   24.0900   45.8760 C   0  0  0  0  0  0  0  0  0  0  0  0
   53.3870   23.8050   45.1120 O   0  0  0  0  0  0  0  0  0  0  0  0
   54.5410   23.2980   47.1340 C   0  0  0  0  0  0  0  0  0  0  0  0
   55.7890   23.6950   47.7770 N   0  0  0  0  0  0  0  0  0  0  0  0
   56.8500   22.7880   48.0950 C   0  0  0  0  0  0  0  0  0  0  0  0
   57.3980   22.8590   49.2260 O   0  0  0  0  0  0  0  0  0  0  0  0
   57.3410   21.8420   47.1400 N   0  0  0  0  0  0  0  0  0  0  0  0
   57.1700   21.9430   45.7200 C   0  0  0  0  0  0  0  0  0  0  0  0
   57.4530   23.1590   45.0860 C   0  0  0  0  0  0  0  0  0  0  0  0
   57.3130   23.2810   43.6990 C   0  0  0  0  0  0  0  0  0  0  0  0
   56.9000   22.1840   42.9380 C   0  0  0  0  0  0  0  0  0  0  0  0
   56.6400   20.9600   43.5600 C   0  0  0  0  0  0  0  0  0  0  0  0
   56.7760   20.8350   44.9460 C   0  0  0  0  0  0  0  0  0  0  0  0
   58.7530   28.4740   47.6440 C   0  0  0  0  0  0  0  0  0  0  0  0
   59.5300   29.4730   48.2380 C   0  0  0  0  0  0  0  0  0  0  0  0
   60.9610   32.7280   47.9230 C   0  0  0  0  0  0  0  0  0  0  0  0
   59.9120   33.2790   47.0360 C   0  0  0  0  0  0  0  0  0  0  0  0
   58.5650   32.9550   47.2620 C   0  0  0  0  0  0  0  0  0  0  0  0
   57.5640   33.4810   46.4410 C   0  0  0  0  0  0  0  0  0  0  0  0
   57.8980   34.3470   45.3960 C   0  0  0  0  0  0  0  0  0  0  0  0
   59.2330   34.6940   45.1760 C   0  0  0  0  0  0  0  0  0  0  0  0
   60.2360   34.1710   45.9970 C   0  0  0  0  0  0  0  0  0  0  0  0
   61.7510   33.6040   48.6040 N   0  0  0  0  0  0  0  0  0  0  0  0
   62.7810   33.1840   49.3810 C   0  0  0  0  0  0  0  0  0  0  0  0
   63.5780   34.1070   50.0680 C   0  0  0  0  0  0  0  0  0  0  0  0
   67.4079   34.0888   53.8356 H   0  0  0  0  0  0  0  0  0  0  0  0
   67.3949   32.5529   52.9042 H   0  0  0  0  0  0  0  0  0  0  0  0
   68.8609   33.5909   52.9042 H   0  0  0  0  0  0  0  0  0  0  0  0
   65.7641   31.9326   51.5557 H   0  0  0  0  0  0  0  0  0  0  0  0
   64.3326   30.2846   50.3441 H   0  0  0  0  0  0  0  0  0  0  0  0
   61.0331   30.7305   45.4334 H   0  0  0  0  0  0  0  0  0  0  0  0
   59.6477   28.9487   44.3783 H   0  0  0  0  0  0  0  0  0  0  0  0
   56.6801   25.4061   47.0102 H   0  0  0  0  0  0  0  0  0  0  0  0
   55.2170   26.4215   47.2235 H   0  0  0  0  0  0  0  0  0  0  0  0
   53.7008   23.4869   47.8183 H   0  0  0  0  0  0  0  0  0  0  0  0
   54.5827   22.2268   46.8875 H   0  0  0  0  0  0  0  0  0  0  0  0
   57.7868   24.0220   45.6808 H   0  0  0  0  0  0  0  0  0  0  0  0
   57.5282   24.2412   43.2073 H   0  0  0  0  0  0  0  0  0  0  0  0
   56.7796   22.2841   41.8492 H   0  0  0  0  0  0  0  0  0  0  0  0
   56.3279   20.0936   42.9584 H   0  0  0  0  0  0  0  0  0  0  0  0
   56.5748   19.8692   45.4325 H   0  0  0  0  0  0  0  0  0  0  0  0
   58.0886   27.8551   48.2649 H   0  0  0  0  0  0  0  0  0  0  0  0
   59.4997   29.6149   49.3284 H   0  0  0  0  0  0  0  0  0  0  0  0
   58.2958   32.2831   48.0903 H   0  0  0  0  0  0  0  0  0  0  0  0
   56.5118   33.2131   46.6174 H   0  0  0  0  0  0  0  0  0  0  0  0
   57.1095   34.7553   44.7468 H   0  0  0  0  0  0  0  0  0  0  0  0
   59.4951   35.3791   44.3563 H   0  0  0  0  0  0  0  0  0  0  0  0
   61.2846   34.4583   45.8300 H   0  0  0  0  0  0  0  0  0  0  0  0
   63.3684   35.1839   49.9882 H   0  0  0  0  0  0  0  0  0  0  0  0
  1  2  1  0
  2  3  2  0
  2  4  2  0
  2  5  1  0
  5  6  1  0
  6  7  2  0
  7  8  1  0
  8  9  2  0
  9 10  1  0
 10 11  2  0
 11 12  1  0
 12 13  2  0
 13 14  1  0
 14 15  2  0
 15 16  1  0
 16 17  1  0
 17 18  2  0
 17 19  1  0
 19 20  1  0
 20 21  1  0
 21 22  2  0
 21 23  1  0
 23 24  1  0
 24 25  1  0
 25 26  2  0
 25 27  1  0
 27 28  1  0
 28 29  2  0
 29 30  1  0
 30 31  2  0
 31 32  1  0
 32 33  2  0
 15 34  1  0
 34 35  2  0
 11 36  1  0
 36 37  1  0
 37 38  2  0
 38 39  1  0
 39 40  2  0
 40 41  1  0
 41 42  2  0
 36 43  2  0
 43 44  1  0
 44 45  2  0
 45  6  1  0
 44  9  1  0
 35 12  1  0
 42 37  1  0
 33 28  1  0
  1 46  1  0
  1 47  1  0
  1 48  1  0
  7 49  1  0
  8 50  1  0
 13 51  1  0
 14 52  1  0
 19 53  1  0
 19 54  1  0
 23 55  1  0
 23 56  1  0
 29 57  1  0
 30 58  1  0
 31 59  1  0
 32 60  1  0
 33 61  1  0
 34 62  1  0
 35 63  1  0
 38 64  1  0
 39 65  1  0
 40 66  1  0
 41 67  1  0
 42 68  1  0
 45 69  1  0
M  CHG  4  16  -1  20  -1  24  -1  27  -1
M  END
>  <UniqueID>  (91) 
75

>  <SMILES>  (91) 
CS(=O)(=O)Oc1ccc2nc(-c3ccc([N-]C(=O)C[N-]C(=O)C[N-]C(=O)[N-]c4ccccc4)cc3)c(-c3ccccc3)nc2c1

>  <Energy>  (91) 
94.24491045832065

>  <Genealogy>  (91) 
CS(=O)(=O)Oc1ccc2nc(-c3ccc([N-]C(=O)C[N-]C(=O)C[N-]C(=O)[N-]c4ccccc4)cc3)c(-c3ccccc3)nc2c1 (protonated)
CS(=O)(=O)Oc1ccc2nc(-c3ccc([N-]C(=O)C[N-]C(=O)C[N-]C(=O)[N-]c4ccccc4)cc3)c(-c3ccccc3)nc2c1 (3D coordinates assigned)
CS(=O)(=O)Oc1ccc2nc(-c3ccc([N-]C(=O)C[N-]C(=O)C[N-]C(=O)[N-]c4ccccc4)cc3)c(-c3ccccc3)nc2c1 (optimized conformer: 94.24491045832065 kcal/mol)

>  <smiles>  (91) 
CS(=O)(=O)Oc1ccc2nc(-c3ccc(NC(=O)CNC(=O)CNC(=O)Nc4ccccc4)cc3)c(-c3ccccc3)nc2c1

>  <score_type>  (91) 
oracle

>  <origin>  (91) 
adg

>  <m_score__min__energy>  (91) 
-16.73

>  <m_primary>  (91) 
energy

$$$$
91:0
     RDKit          3D

 35 36  0  0  0  0  0  0  0  0999 V2000
   58.3466   32.8018   48.0701 H   0  0  0  0  0  0  0  0  0  0  0  0
   58.1650   32.8640   46.9870 C   0  0  0  0  0  0  0  0  0  0  0  0
   57.7720   31.7590   46.2990 N   0  0  0  0  0  0  0  0  0  0  0  0
   57.5390   31.7860   44.9570 C   0  0  0  0  0  0  0  0  0  0  0  0
   57.1510   30.7250   44.3080 N   0  0  0  0  0  0  0  0  0  0  0  0
   56.4540   29.5640   44.7950 C   0  0  0  0  0  0  0  0  0  0  0  0
   55.1980   29.6070   44.8600 O   0  0  0  0  0  0  0  0  0  0  0  0
   57.1420   28.2780   45.1750 C   0  0  0  0  0  0  0  0  0  0  0  0
   57.6783   27.8836   44.2993 H   0  0  0  0  0  0  0  0  0  0  0  0
   57.8460   28.4839   45.9947 H   0  0  0  0  0  0  0  0  0  0  0  0
   56.1710   27.2840   45.6300 N   0  0  0  0  0  0  0  0  0  0  0  0
   55.1520   27.5000   45.5450 H   0  0  0  0  0  0  0  0  0  0  0  0
   56.5550   25.9950   46.1190 C   0  0  0  0  0  0  0  0  0  0  0  0
   57.7740   25.6750   46.1780 O   0  0  0  0  0  0  0  0  0  0  0  0
   55.5630   25.0980   46.5310 O   0  0  0  0  0  0  0  0  0  0  0  0
   54.7950   24.3110   45.6240 C   0  0  0  0  0  0  0  0  0  0  0  0
   54.0773   23.7009   46.1921 H   0  0  0  0  0  0  0  0  0  0  0  0
   54.2605   24.9817   44.9352 H   0  0  0  0  0  0  0  0  0  0  0  0
   55.6910   23.4050   44.8240 C   0  0  0  0  0  0  0  0  0  0  0  0
   55.5710   23.3310   43.4260 C   0  0  0  0  0  0  0  0  0  0  0  0
   54.8261   23.9512   42.9058 H   0  0  0  0  0  0  0  0  0  0  0  0
   56.3960   22.4710   42.6940 C   0  0  0  0  0  0  0  0  0  0  0  0
   56.3004   22.4183   41.5994 H   0  0  0  0  0  0  0  0  0  0  0  0
   57.3410   21.6790   43.3500 C   0  0  0  0  0  0  0  0  0  0  0  0
   57.9894   21.0041   42.7720 H   0  0  0  0  0  0  0  0  0  0  0  0
   57.4630   21.7440   44.7420 C   0  0  0  0  0  0  0  0  0  0  0  0
   58.2073   21.1201   45.2585 H   0  0  0  0  0  0  0  0  0  0  0  0
   56.6390   22.6020   45.4770 C   0  0  0  0  0  0  0  0  0  0  0  0
   56.7342   22.6478   46.5719 H   0  0  0  0  0  0  0  0  0  0  0  0
   57.6940   32.9900   44.2590 C   0  0  0  0  0  0  0  0  0  0  0  0
   57.4982   33.0318   43.1774 H   0  0  0  0  0  0  0  0  0  0  0  0
   58.0990   34.1380   44.9450 C   0  0  0  0  0  0  0  0  0  0  0  0
   58.2291   35.0869   44.4040 H   0  0  0  0  0  0  0  0  0  0  0  0
   58.3380   34.0770   46.3190 C   0  0  0  0  0  0  0  0  0  0  0  0
   58.6588   34.9743   46.8685 H   0  0  0  0  0  0  0  0  0  0  0  0
  1  2  1  0
  2  3  1  0
  3  4  1  0
  4  5  2  0
  5  6  1  0
  6  7  2  0
  6  8  1  0
  8  9  1  0
  8 10  1  0
  8 11  1  0
 11 12  1  0
 11 13  1  0
 13 14  2  0
 13 15  1  0
 15 16  1  0
 16 17  1  0
 16 18  1  0
 16 19  1  0
 19 20  2  0
 20 21  1  0
 20 22  1  0
 22 23  1  0
 22 24  2  0
 24 25  1  0
 24 26  1  0
 26 27  1  0
 26 28  2  0
 28 29  1  0
  4 30  1  0
 30 31  1  0
 30 32  2  0
 32 33  1  0
 32 34  1  0
 34 35  1  0
 34  2  2  0
 28 19  1  0
M  CHG  1   3  -1
M  END
>  <UniqueID>  (92) 
76

>  <SMILES>  (92) 
O=C(CNC(=O)OCc1ccccc1)/N=c1/cccc[n-]1

>  <Energy>  (92) 
36.02763121582532

>  <Genealogy>  (92) 
O=C(CNC(=O)OCc1ccccc1)N=c1cccc[n-]1 (protonated)
O=C(CNC(=O)OCc1ccccc1)/N=c1/cccc[n-]1 (cis-trans isomerization)
O=C(CNC(=O)OCc1ccccc1)/N=c1/cccc[n-]1 (3D coordinates assigned)
O=C(CNC(=O)OCc1ccccc1)/N=c1/cccc[n-]1 (optimized conformer: 36.02763121582532 kcal/mol)

>  <smiles>  (92) 
O=C(CNC(=O)OCc1ccccc1)N=c1cccc[nH]1

>  <score_type>  (92) 
oracle

>  <origin>  (92) 
adg

>  <m_score__min__energy>  (92) 
-9.5899999999999999

>  <m_primary>  (92) 
energy

$$$$
