0:0
     RDKit          3D

 33 34  0  0  0  0  0  0  0  0999 V2000
   57.9089   26.7218   48.1347 H   0  0  0  0  0  0  0  0  0  0  0  0
   57.7200   26.5150   47.0710 C   0  0  0  0  0  0  0  0  0  0  0  0
   58.6030   26.9210   46.2030 N   0  0  0  0  0  0  0  0  0  0  0  0
   58.7420   28.2370   45.6420 C   0  0  0  0  0  0  0  0  0  0  0  0
   60.1670   28.6930   44.9480 S   0  0  0  0  0  0  0  0  0  0  0  0
   57.7660   29.2280   45.9960 N   0  0  0  0  0  0  0  0  0  0  0  0
   57.0280   28.9710   46.6880 H   0  0  0  0  0  0  0  0  0  0  0  0
   57.8280   30.5940   45.5510 C   0  0  0  0  0  0  0  0  0  0  0  0
   58.3980   31.5750   46.3920 C   0  0  0  0  0  0  0  0  0  0  0  0
   58.9410   31.2040   47.7440 C   0  0  0  0  0  0  0  0  0  0  0  0
   58.3034   31.6396   48.5274 H   0  0  0  0  0  0  0  0  0  0  0  0
   58.9518   30.1089   47.8469 H   0  0  0  0  0  0  0  0  0  0  0  0
   59.9651   31.5920   47.8469 H   0  0  0  0  0  0  0  0  0  0  0  0
   58.4640   32.9070   45.9550 C   0  0  0  0  0  0  0  0  0  0  0  0
   58.9035   33.6752   46.6082 H   0  0  0  0  0  0  0  0  0  0  0  0
   57.9760   33.2630   44.6980 C   0  0  0  0  0  0  0  0  0  0  0  0
   58.0433   34.3074   44.3594 H   0  0  0  0  0  0  0  0  0  0  0  0
   57.4030   32.2990   43.8690 C   0  0  0  0  0  0  0  0  0  0  0  0
   57.0267   32.5866   42.8762 H   0  0  0  0  0  0  0  0  0  0  0  0
   57.3030   30.9650   44.2920 C   0  0  0  0  0  0  0  0  0  0  0  0
   56.6640   29.9510   43.3830 C   0  0  0  0  0  0  0  0  0  0  0  0
   56.1741   29.1736   43.9878 H   0  0  0  0  0  0  0  0  0  0  0  0
   55.9155   30.4478   42.7483 H   0  0  0  0  0  0  0  0  0  0  0  0
   57.4352   29.4901   42.7483 H   0  0  0  0  0  0  0  0  0  0  0  0
   56.4790   25.7930   46.7140 C   0  0  0  0  0  0  0  0  0  0  0  0
   55.4680   26.4430   45.9900 C   0  0  0  0  0  0  0  0  0  0  0  0
   55.6050   27.7770   45.6250 O   0  0  0  0  0  0  0  0  0  0  0  0
   54.3380   25.7720   45.6500 N   0  0  0  0  0  0  0  0  0  0  0  0
   54.1700   24.4670   45.9870 C   0  0  0  0  0  0  0  0  0  0  0  0
   53.1110   23.8680   45.6670 O   0  0  0  0  0  0  0  0  0  0  0  0
   55.1450   23.8070   46.6620 N   0  0  0  0  0  0  0  0  0  0  0  0
   56.2960   24.4330   47.0220 C   0  0  0  0  0  0  0  0  0  0  0  0
   57.1940   23.7790   47.6150 O   0  0  0  0  0  0  0  0  0  0  0  0
  1  2  1  0
  2  3  2  0
  3  4  1  0
  4  5  2  0
  4  6  1  0
  6  7  1  0
  6  8  1  0
  8  9  2  0
  9 10  1  0
 10 11  1  0
 10 12  1  0
 10 13  1  0
  9 14  1  0
 14 15  1  0
 14 16  2  0
 16 17  1  0
 16 18  1  0
 18 19  1  0
 18 20  2  0
 20 21  1  0
 21 22  1  0
 21 23  1  0
 21 24  1  0
  2 25  1  0
 25 26  2  0
 26 27  1  0
 26 28  1  0
 28 29  1  0
 29 30  2  0
 29 31  1  0
 31 32  1  0
 32 33  2  0
 20  8  1  0
 32 25  1  0
M  CHG  3  27  -1  28  -1  31  -1
M  END
>  <UniqueID>  (1) 
1

>  <SMILES>  (1) 
Cc1cccc(C)c1NC(=S)/N=C\c1c([O-])[n-]c(=O)[n-]c1=O

>  <Energy>  (1) 
54.318104573935344

>  <Genealogy>  (1) 
Cc1cccc(C)c1NC(=S)N=Cc1c([O-])[n-]c(=O)[n-]c1=O (protonated)
Cc1cccc(C)c1NC(=S)/N=C\c1c([O-])[n-]c(=O)[n-]c1=O (cis-trans isomerization)
Cc1cccc(C)c1NC(=S)/N=C\c1c([O-])[n-]c(=O)[n-]c1=O (3D coordinates assigned)
Cc1cccc(C)c1NC(=S)/N=C\c1c([O-])[n-]c(=O)[n-]c1=O (optimized conformer: 54.318104573935344 kcal/mol)

>  <smiles>  (1) 
Cc1cccc(C)c1NC(=S)N=Cc1c(O)[nH]c(=O)[nH]c1=O

>  <score_type>  (1) 
oracle

>  <origin>  (1) 
adg

>  <m_score__min__energy>  (1) 
-14.68

>  <m_primary>  (1) 
energy

$$$$
1:0
     RDKit          3D

 68 71  0  0  0  0  0  0  0  0999 V2000
   59.8530   34.6960   48.9310 O   0  0  0  0  0  0  0  0  0  0  0  0
   60.5740   34.5660   47.9040 C   0  0  0  0  0  0  0  0  0  0  0  0
   60.0310   34.9830   46.5700 C   0  0  0  0  0  0  0  0  0  0  0  0
   59.0190   33.9830   46.0790 C   0  0  0  0  0  0  0  0  0  0  0  0
   58.7190   32.8490   46.8530 C   0  0  0  0  0  0  0  0  0  0  0  0
   57.7700   31.9270   46.4100 C   0  0  0  0  0  0  0  0  0  0  0  0
   57.0980   32.1290   45.1930 C   0  0  0  0  0  0  0  0  0  0  0  0
   56.2010   31.1340   44.6750 N   0  0  0  0  0  0  0  0  0  0  0  0
   56.5190   29.7460   44.5660 C   0  0  0  0  0  0  0  0  0  0  0  0
   55.7730   28.8880   45.1130 O   0  0  0  0  0  0  0  0  0  0  0  0
   57.7860   29.3400   43.8490 C   0  0  0  0  0  0  0  0  0  0  0  0
   59.0190   29.6800   44.7220 C   0  0  0  0  0  0  0  0  0  0  0  0
   59.9850   28.5010   44.8750 C   0  0  0  0  0  0  0  0  0  0  0  0
   59.3030   27.2710   45.3190 N   0  0  0  0  0  0  0  0  0  0  0  0
   58.9120   27.3010   47.0300 S   0  0  0  0  0  0  0  0  0  0  0  0
   59.6070   26.1540   47.7090 O   0  0  0  0  0  0  0  0  0  0  0  0
   57.4310   27.1390   47.2300 O   0  0  0  0  0  0  0  0  0  0  0  0
   59.4380   28.7910   47.8080 C   0  0  0  0  0  0  0  0  0  0  0  0
   58.5730   29.4760   48.6750 C   0  0  0  0  0  0  0  0  0  0  0  0
   58.9990   30.6400   49.3160 C   0  0  0  0  0  0  0  0  0  0  0  0
   60.2880   31.1300   49.1000 C   0  0  0  0  0  0  0  0  0  0  0  0
   61.1650   30.4360   48.2630 C   0  0  0  0  0  0  0  0  0  0  0  0
   60.7430   29.2700   47.6170 C   0  0  0  0  0  0  0  0  0  0  0  0
   58.1250   26.8790   44.5020 C   0  0  0  0  0  0  0  0  0  0  0  0
   57.7740   27.8710   43.3770 C   0  0  0  0  0  0  0  0  0  0  0  0
   57.3880   33.2600   44.4230 C   0  0  0  0  0  0  0  0  0  0  0  0
   58.3360   34.1880   44.8680 C   0  0  0  0  0  0  0  0  0  0  0  0
   61.8960   34.0120   48.0090 N   0  0  0  0  0  0  0  0  0  0  0  0
   62.4420   33.5620   49.2870 C   0  0  0  0  0  0  0  0  0  0  0  0
   63.8690   33.1180   49.1410 C   0  0  0  0  0  0  0  0  0  0  0  0
   64.3780   33.1370   47.9780 O   0  0  0  0  0  0  0  0  0  0  0  0
   64.7000   32.7830   50.2810 N   0  0  0  0  0  0  0  0  0  0  0  0
   64.3390   33.1520   51.6570 C   0  0  0  0  0  0  0  0  0  0  0  0
   65.3740   34.1520   52.2150 C   0  0  0  0  0  0  0  0  0  0  0  0
   66.3550   34.4960   51.2510 O   0  0  0  0  0  0  0  0  0  0  0  0
   67.0400   33.3320   50.8190 C   0  0  0  0  0  0  0  0  0  0  0  0
   66.0940   32.3460   50.1090 C   0  0  0  0  0  0  0  0  0  0  0  0
   59.5502   35.9677   46.6662 H   0  0  0  0  0  0  0  0  0  0  0  0
   60.8595   35.0355   45.8484 H   0  0  0  0  0  0  0  0  0  0  0  0
   59.2341   32.6877   47.8114 H   0  0  0  0  0  0  0  0  0  0  0  0
   57.5469   31.0372   47.0170 H   0  0  0  0  0  0  0  0  0  0  0  0
   57.8492   29.9277   42.9213 H   0  0  0  0  0  0  0  0  0  0  0  0
   59.5587   30.5176   44.2560 H   0  0  0  0  0  0  0  0  0  0  0  0
   58.6513   29.9377   45.7262 H   0  0  0  0  0  0  0  0  0  0  0  0
   60.4644   28.3085   43.9039 H   0  0  0  0  0  0  0  0  0  0  0  0
   60.7252   28.7706   45.6428 H   0  0  0  0  0  0  0  0  0  0  0  0
   57.5563   29.0943   48.8498 H   0  0  0  0  0  0  0  0  0  0  0  0
   58.3165   31.1734   49.9940 H   0  0  0  0  0  0  0  0  0  0  0  0
   60.6126   32.0609   49.5879 H   0  0  0  0  0  0  0  0  0  0  0  0
   62.1893   30.8074   48.1119 H   0  0  0  0  0  0  0  0  0  0  0  0
   61.4357   28.7268   46.9574 H   0  0  0  0  0  0  0  0  0  0  0  0
   58.3331   25.9001   44.0454 H   0  0  0  0  0  0  0  0  0  0  0  0
   57.2621   26.8586   45.1839 H   0  0  0  0  0  0  0  0  0  0  0  0
   58.5082   27.7566   42.5659 H   0  0  0  0  0  0  0  0  0  0  0  0
   56.7529   27.6403   43.0391 H   0  0  0  0  0  0  0  0  0  0  0  0
   56.8699   33.4203   43.4660 H   0  0  0  0  0  0  0  0  0  0  0  0
   58.5480   35.0839   44.2660 H   0  0  0  0  0  0  0  0  0  0  0  0
   62.5360   34.1040   47.1840 H   0  0  0  0  0  0  0  0  0  0  0  0
   62.3961   34.3909   50.0087 H   0  0  0  0  0  0  0  0  0  0  0  0
   61.8454   32.7077   49.6395 H   0  0  0  0  0  0  0  0  0  0  0  0
   63.3420   33.6167   51.6615 H   0  0  0  0  0  0  0  0  0  0  0  0
   64.3282   32.2494   52.2857 H   0  0  0  0  0  0  0  0  0  0  0  0
   64.8500   35.0664   52.5300 H   0  0  0  0  0  0  0  0  0  0  0  0
   65.8851   33.6733   53.0633 H   0  0  0  0  0  0  0  0  0  0  0  0
   67.8378   33.6260   50.1211 H   0  0  0  0  0  0  0  0  0  0  0  0
   67.4568   32.8304   51.7048 H   0  0  0  0  0  0  0  0  0  0  0  0
   66.3373   32.3141   49.0367 H   0  0  0  0  0  0  0  0  0  0  0  0
   66.2177   31.3444   50.5465 H   0  0  0  0  0  0  0  0  0  0  0  0
  1  2  2  0
  2  3  1  0
  3  4  1  0
  4  5  2  0
  5  6  1  0
  6  7  2  0
  7  8  1  0
  8  9  1  0
  9 10  2  0
  9 11  1  0
 11 12  1  0
 12 13  1  0
 13 14  1  0
 14 15  1  0
 15 16  2  0
 15 17  2  0
 15 18  1  0
 18 19  2  0
 19 20  1  0
 20 21  2  0
 21 22  1  0
 22 23  2  0
 14 24  1  0
 24 25  1  0
  7 26  1  0
 26 27  2  0
  2 28  1  0
 28 29  1  0
 29 30  1  0
 30 31  2  0
 30 32  1  0
 32 33  1  0
 33 34  1  0
 34 35  1  0
 35 36  1  0
 36 37  1  0
 27  4  1  0
 37 32  1  0
 25 11  1  0
 23 18  1  0
  3 38  1  0
  3 39  1  0
  5 40  1  0
  6 41  1  0
 11 42  1  0
 12 43  1  0
 12 44  1  0
 13 45  1  0
 13 46  1  0
 19 47  1  0
 20 48  1  0
 21 49  1  0
 22 50  1  0
 23 51  1  0
 24 52  1  0
 24 53  1  0
 25 54  1  0
 25 55  1  0
 26 56  1  0
 27 57  1  0
 28 58  1  0
 29 59  1  0
 29 60  1  0
 33 61  1  0
 33 62  1  0
 34 63  1  0
 34 64  1  0
 36 65  1  0
 36 66  1  0
 37 67  1  0
 37 68  1  0
M  CHG  1   8  -1
M  END
>  <UniqueID>  (2) 
2

>  <SMILES>  (2) 
O=C(Cc1ccc([N-]C(=O)C2CCN(S(=O)(=O)c3ccccc3)CC2)cc1)NCC(=O)N1CCOCC1

>  <Energy>  (2) 
91.12908881402255

>  <Genealogy>  (2) 
O=C(Cc1ccc([N-]C(=O)C2CCN(S(=O)(=O)c3ccccc3)CC2)cc1)NCC(=O)N1CCOCC1 (protonated)
O=C(Cc1ccc([N-]C(=O)C2CCN(S(=O)(=O)c3ccccc3)CC2)cc1)NCC(=O)N1CCOCC1 (3D coordinates assigned)
O=C(Cc1ccc([N-]C(=O)C2CCN(S(=O)(=O)c3ccccc3)CC2)cc1)NCC(=O)N1CCOCC1 (nonaromatic ring conformer: 91.12908881402255 kcal/mol)

>  <smiles>  (2) 
O=C(Cc1ccc(NC(=O)C2CCN(S(=O)(=O)c3ccccc3)CC2)cc1)NCC(=O)N1CCOCC1

>  <score_type>  (2) 
oracle

>  <origin>  (2) 
adg

>  <m_score__min__energy>  (2) 
-11.699999999999999

>  <m_primary>  (2) 
energy

$$$$
2:0
     RDKit          3D

 50 52  0  0  0  0  0  0  0  0999 V2000
   59.1830   27.2840   47.8280 C   0  0  0  0  0  0  0  0  0  0  0  0
   58.6820   27.0530   46.6040 C   0  0  0  0  0  0  0  0  0  0  0  0
   57.8440   25.9900   46.2270 C   0  0  0  0  0  0  0  0  0  0  0  0
   57.2130   25.0480   46.9570 C   0  0  0  0  0  0  0  0  0  0  0  0
   56.0070   24.3030   46.5500 C   0  0  0  0  0  0  0  0  0  0  0  0
   54.9000   24.9690   45.9870 C   0  0  0  0  0  0  0  0  0  0  0  0
   54.9180   26.3430   45.7370 O   0  0  0  0  0  0  0  0  0  0  0  0
   53.7850   24.2620   45.6670 N   0  0  0  0  0  0  0  0  0  0  0  0
   53.7080   22.9250   45.8880 C   0  0  0  0  0  0  0  0  0  0  0  0
   52.6610   22.2970   45.5820 O   0  0  0  0  0  0  0  0  0  0  0  0
   54.7560   22.2660   46.4450 N   0  0  0  0  0  0  0  0  0  0  0  0
   55.8940   22.9220   46.7850 C   0  0  0  0  0  0  0  0  0  0  0  0
   56.8390   22.2810   47.3180 O   0  0  0  0  0  0  0  0  0  0  0  0
   57.7680   26.0300   44.8490 C   0  0  0  0  0  0  0  0  0  0  0  0
   58.5100   27.1140   44.4330 C   0  0  0  0  0  0  0  0  0  0  0  0
   58.7770   27.4400   42.9950 C   0  0  0  0  0  0  0  0  0  0  0  0
   59.0400   27.7660   45.4980 N   0  0  0  0  0  0  0  0  0  0  0  0
   59.9430   28.9300   45.4280 C   0  0  0  0  0  0  0  0  0  0  0  0
   59.4430   30.0920   46.2650 C   0  0  0  0  0  0  0  0  0  0  0  0
   60.0270   30.3290   47.5240 C   0  0  0  0  0  0  0  0  0  0  0  0
   59.5920   31.3860   48.3260 C   0  0  0  0  0  0  0  0  0  0  0  0
   58.5820   32.2350   47.8760 C   0  0  0  0  0  0  0  0  0  0  0  0
   58.0170   32.0390   46.6170 C   0  0  0  0  0  0  0  0  0  0  0  0
   58.4400   30.9780   45.8000 C   0  0  0  0  0  0  0  0  0  0  0  0
   57.8880   30.8570   44.4840 N   0  0  0  0  0  0  0  0  0  0  0  0
   58.2670   31.8460   43.4800 C   0  0  0  0  0  0  0  0  0  0  0  0
   56.4190   29.9580   44.2640 S   0  0  0  0  0  0  0  0  0  0  0  0
   56.3050   29.3770   42.5860 C   0  0  0  0  0  0  0  0  0  0  0  0
   55.2360   30.8360   44.5620 O   0  0  0  0  0  0  0  0  0  0  0  0
   56.4010   28.7820   45.2000 O   0  0  0  0  0  0  0  0  0  0  0  0
   59.8319   28.1552   48.0013 H   0  0  0  0  0  0  0  0  0  0  0  0
   58.9446   26.6021   48.6576 H   0  0  0  0  0  0  0  0  0  0  0  0
   57.6359   24.8142   47.9452 H   0  0  0  0  0  0  0  0  0  0  0  0
   55.5780   26.7740   45.1000 H   0  0  0  0  0  0  0  0  0  0  0  0
   57.2184   25.3283   44.2043 H   0  0  0  0  0  0  0  0  0  0  0  0
   59.4729   28.2897   42.9348 H   0  0  0  0  0  0  0  0  0  0  0  0
   59.2219   26.5657   42.4973 H   0  0  0  0  0  0  0  0  0  0  0  0
   57.8322   27.7039   42.4973 H   0  0  0  0  0  0  0  0  0  0  0  0
   60.9362   28.6308   45.7941 H   0  0  0  0  0  0  0  0  0  0  0  0
   59.9868   29.2618   44.3802 H   0  0  0  0  0  0  0  0  0  0  0  0
   60.8356   29.6737   47.8801 H   0  0  0  0  0  0  0  0  0  0  0  0
   60.0469   31.5490   49.3142 H   0  0  0  0  0  0  0  0  0  0  0  0
   58.2311   33.0593   48.5143 H   0  0  0  0  0  0  0  0  0  0  0  0
   57.2322   32.7220   46.2599 H   0  0  0  0  0  0  0  0  0  0  0  0
   58.6175   32.7607   43.9804 H   0  0  0  0  0  0  0  0  0  0  0  0
   59.0732   31.4400   42.8514 H   0  0  0  0  0  0  0  0  0  0  0  0
   57.3959   32.0828   42.8514 H   0  0  0  0  0  0  0  0  0  0  0  0
   56.0932   28.2976   42.5853 H   0  0  0  0  0  0  0  0  0  0  0  0
   55.4943   29.9101   42.0677 H   0  0  0  0  0  0  0  0  0  0  0  0
   57.2570   29.5642   42.0677 H   0  0  0  0  0  0  0  0  0  0  0  0
  1  2  2  0
  2  3  1  0
  3  4  2  3
  4  5  1  0
  5  6  2  0
  6  7  1  0
  6  8  1  0
  8  9  1  0
  9 10  2  0
  9 11  1  0
 11 12  1  0
 12 13  2  0
  3 14  1  0
 14 15  2  0
 15 16  1  0
 15 17  1  0
 17 18  1  0
 18 19  1  0
 19 20  2  0
 20 21  1  0
 21 22  2  0
 22 23  1  0
 23 24  2  0
 24 25  1  0
 25 26  1  0
 25 27  1  0
 27 28  1  0
 27 29  2  0
 27 30  2  0
 17  2  1  0
 24 19  1  0
 12  5  1  0
  1 31  1  0
  1 32  1  0
  4 33  1  0
  7 34  1  0
 14 35  1  0
 16 36  1  0
 16 37  1  0
 16 38  1  0
 18 39  1  0
 18 40  1  0
 20 41  1  0
 21 42  1  0
 22 43  1  0
 23 44  1  0
 26 45  1  0
 26 46  1  0
 26 47  1  0
 28 48  1  0
 28 49  1  0
 28 50  1  0
M  CHG  2   8  -1  11  -1
M  END
>  <UniqueID>  (3) 
3

>  <SMILES>  (3) 
C=c1c(=Cc2c(O)[n-]c(=O)[n-]c2=O)cc(C)n1Cc1ccccc1N(C)S(C)(=O)=O

>  <Energy>  (3) 
95.97456409507174

>  <Genealogy>  (3) 
C=c1c(=Cc2c(O)[n-]c(=O)[n-]c2=O)cc(C)n1Cc1ccccc1N(C)S(C)(=O)=O (protonated)
C=c1c(=Cc2c(O)[n-]c(=O)[n-]c2=O)cc(C)n1Cc1ccccc1N(C)S(C)(=O)=O (3D coordinates assigned)
C=c1c(=Cc2c(O)[n-]c(=O)[n-]c2=O)cc(C)n1Cc1ccccc1N(C)S(C)(=O)=O (optimized conformer: 95.97456409507174 kcal/mol)

>  <smiles>  (3) 
C=c1c(=Cc2c(O)[nH]c(=O)[nH]c2=O)cc(C)n1Cc1ccccc1N(C)S(C)(=O)=O

>  <score_type>  (3) 
oracle

>  <origin>  (3) 
adg

>  <m_score__min__energy>  (3) 
-13.65

>  <m_primary>  (3) 
energy

$$$$
3:0
     RDKit          3D

 49 51  0  0  0  0  0  0  0  0999 V2000
   55.4890   29.2430   45.1470 O   0  0  0  0  0  0  0  0  0  0  0  0
   56.7060   29.0540   44.8870 C   0  0  0  0  0  0  0  0  0  0  0  0
   57.2080   27.7110   44.8850 N   0  0  0  0  0  0  0  0  0  0  0  0
   57.4950   26.9060   46.0710 C   0  0  1  0  0  0  0  0  0  0  0  0
   56.1870   26.3230   46.6270 C   0  0  0  0  0  0  0  0  0  0  0  0
   55.1460   26.5210   45.7110 O   0  0  0  0  0  0  0  0  0  0  0  0
   58.4780   25.7830   45.6940 C   0  0  0  0  0  0  0  0  0  0  0  0
   57.7690   24.6520   44.9910 C   0  0  0  0  0  0  0  0  0  0  0  0
   57.7200   23.3760   45.5770 C   0  0  0  0  0  0  0  0  0  0  0  0
   57.0970   22.3180   44.9080 C   0  0  0  0  0  0  0  0  0  0  0  0
   56.5280   22.5220   43.6470 C   0  0  0  0  0  0  0  0  0  0  0  0
   55.9110   21.4690   42.9850 O   0  0  0  0  0  0  0  0  0  0  0  0
   56.5850   23.7870   43.0520 C   0  0  0  0  0  0  0  0  0  0  0  0
   57.2060   24.8480   43.7190 C   0  0  0  0  0  0  0  0  0  0  0  0
   57.5570   30.1720   44.5830 N   0  0  0  0  0  0  0  0  0  0  0  0
   57.0230   31.5130   44.3550 C   0  0  0  0  0  0  0  0  0  0  0  0
   57.8080   32.5230   45.1480 C   0  0  0  0  0  0  0  0  0  0  0  0
   58.2370   33.7140   44.5390 C   0  0  0  0  0  0  0  0  0  0  0  0
   58.9440   34.6670   45.2760 C   0  0  0  0  0  0  0  0  0  0  0  0
   59.2270   34.4420   46.6250 C   0  0  0  0  0  0  0  0  0  0  0  0
   58.8010   33.2610   47.2420 C   0  0  0  0  0  0  0  0  0  0  0  0
   59.1660   32.9710   48.9730 S   0  0  0  0  0  0  0  0  0  0  0  0
   60.9280   33.1240   48.7130 C   0  0  0  0  0  0  0  0  0  0  0  0
   61.5620   32.2920   47.8450 N   0  0  0  0  0  0  0  0  0  0  0  0
   62.9020   32.3840   47.6440 C   0  0  0  0  0  0  0  0  0  0  0  0
   63.4700   31.6030   46.8370 O   0  0  0  0  0  0  0  0  0  0  0  0
   63.6440   33.3450   48.3330 C   0  0  0  0  0  0  0  0  0  0  0  0
   62.9760   34.1910   49.2180 C   0  0  0  0  0  0  0  0  0  0  0  0
   61.6340   34.0670   49.3930 N   0  0  0  0  0  0  0  0  0  0  0  0
   58.0870   32.3050   46.5070 C   0  0  0  0  0  0  0  0  0  0  0  0
   57.9541   27.5325   46.8500 H   0  0  0  0  0  0  0  0  0  0  0  0
   56.3154   25.2451   46.8049 H   0  0  0  0  0  0  0  0  0  0  0  0
   55.9384   26.8303   47.5709 H   0  0  0  0  0  0  0  0  0  0  0  0
   55.1410   27.4920   45.5050 H   0  0  0  0  0  0  0  0  0  0  0  0
   59.2513   26.1917   45.0270 H   0  0  0  0  0  0  0  0  0  0  0  0
   58.9303   25.3910   46.6169 H   0  0  0  0  0  0  0  0  0  0  0  0
   58.1732   23.2088   46.5653 H   0  0  0  0  0  0  0  0  0  0  0  0
   57.0544   21.3228   45.3747 H   0  0  0  0  0  0  0  0  0  0  0  0
   56.1409   23.9473   42.0585 H   0  0  0  0  0  0  0  0  0  0  0  0
   57.2537   25.8398   43.2457 H   0  0  0  0  0  0  0  0  0  0  0  0
   58.5890   30.0430   44.4990 H   0  0  0  0  0  0  0  0  0  0  0  0
   57.0940   31.7559   43.2845 H   0  0  0  0  0  0  0  0  0  0  0  0
   55.9712   31.5415   44.6758 H   0  0  0  0  0  0  0  0  0  0  0  0
   58.0152   33.8969   43.4772 H   0  0  0  0  0  0  0  0  0  0  0  0
   59.2786   35.5968   44.7928 H   0  0  0  0  0  0  0  0  0  0  0  0
   59.7851   35.1937   47.2025 H   0  0  0  0  0  0  0  0  0  0  0  0
   64.7300   33.4329   48.1815 H   0  0  0  0  0  0  0  0  0  0  0  0
   63.5350   34.9581   49.7740 H   0  0  0  0  0  0  0  0  0  0  0  0
   57.7441   31.3812   46.9959 H   0  0  0  0  0  0  0  0  0  0  0  0
  1  2  2  0
  2  3  1  0
  3  4  1  0
  4  5  1  0
  5  6  1  0
  4  7  1  0
  7  8  1  0
  8  9  2  0
  9 10  1  0
 10 11  2  0
 11 12  1  0
 11 13  1  0
 13 14  2  0
  2 15  1  0
 15 16  1  0
 16 17  1  0
 17 18  2  0
 18 19  1  0
 19 20  2  0
 20 21  1  0
 21 22  1  0
 22 23  1  0
 23 24  2  0
 24 25  1  0
 25 26  2  0
 25 27  1  0
 27 28  2  0
 28 29  1  0
 21 30  2  0
 14  8  1  0
 30 17  1  0
 29 23  1  0
  4 31  1  1
  5 32  1  0
  5 33  1  0
  6 34  1  0
  7 35  1  0
  7 36  1  0
  9 37  1  0
 10 38  1  0
 13 39  1  0
 14 40  1  0
 15 41  1  0
 16 42  1  0
 16 43  1  0
 18 44  1  0
 19 45  1  0
 20 46  1  0
 27 47  1  0
 28 48  1  0
 30 49  1  0
M  CHG  3   3  -1  12  -1  29  -1
M  END
>  <UniqueID>  (4) 
4

>  <SMILES>  (4) 
O=C([N-][C@@H](CO)Cc1ccc([O-])cc1)NCc1cccc(Sc2nc(=O)cc[n-]2)c1

>  <Energy>  (4) 
40.26947040842463

>  <Genealogy>  (4) 
O=C([N-]C(CO)Cc1ccc([O-])cc1)NCc1cccc(Sc2nc(=O)cc[n-]2)c1 (protonated)
O=C([N-][C@@H](CO)Cc1ccc([O-])cc1)NCc1cccc(Sc2nc(=O)cc[n-]2)c1 (chirality)
O=C([N-][C@@H](CO)Cc1ccc([O-])cc1)NCc1cccc(Sc2nc(=O)cc[n-]2)c1 (3D coordinates assigned)
O=C([N-][C@@H](CO)Cc1ccc([O-])cc1)NCc1cccc(Sc2nc(=O)cc[n-]2)c1 (optimized conformer: 40.26947040842463 kcal/mol)

>  <smiles>  (4) 
O=C(NCc1cccc(Sc2nc(=O)cc[nH]2)c1)NC(CO)Cc1ccc(O)cc1

>  <score_type>  (4) 
oracle

>  <origin>  (4) 
adg

>  <m_score__min__energy>  (4) 
-16.140000000000001

>  <m_primary>  (4) 
energy

$$$$
4:0
     RDKit          3D

 50 52  0  0  1  0  0  0  0  0999 V2000
   56.4120   29.9620   42.3300 N   0  0  0  0  0  0  0  0  0  0  0  0
   57.0680   31.2620   42.3780 C   0  0  0  0  0  0  0  0  0  0  0  0
   56.9460   31.9390   41.3440 O   0  0  0  0  0  0  0  0  0  0  0  0
   57.7520   31.5650   43.5980 C   0  0  0  0  0  0  0  0  0  0  0  0
   57.6870   32.9070   44.0120 C   0  0  0  0  0  0  0  0  0  0  0  0
   58.2990   33.3120   45.1250 N   0  0  0  0  0  0  0  0  0  0  0  0
   59.6460   33.0240   47.1140 C   0  0  0  0  0  0  0  0  0  0  0  0
   59.0110   32.4860   45.9200 C   0  0  0  0  0  0  0  0  0  0  0  0
   59.0850   34.1120   47.7590 C   0  0  0  0  0  0  0  0  0  0  0  0
   59.6540   34.6640   48.9050 C   0  0  0  0  0  0  0  0  0  0  0  0
   60.8050   34.1230   49.4180 C   0  0  0  0  0  0  0  0  0  0  0  0
   58.4660   30.7420   44.4070 C   0  0  0  0  0  0  0  0  0  0  0  0
   58.4860   29.4980   44.2330 N   0  0  0  0  0  0  0  0  0  0  0  0
   62.6490   31.1120   49.2850 C   0  0  0  0  0  0  0  0  0  0  0  0
   61.4400   30.4430   49.9370 C   0  0  0  0  0  0  0  0  0  0  0  0
   60.6440   29.6530   48.9240 C   0  0  0  0  0  0  0  0  0  0  0  0
   59.1660   29.8770   49.1620 C   0  0  0  0  0  0  0  0  0  0  0  0
   58.6670   30.5630   48.0560 F   0  0  0  0  0  0  0  0  0  0  0  0
   58.5620   28.6250   49.1780 F   0  0  0  0  0  0  0  0  0  0  0  0
   58.9090   30.5960   50.2980 F   0  0  0  0  0  0  0  0  0  0  0  0
   59.0840   31.2020   45.5450 N   0  0  0  0  0  0  0  0  0  0  0  0
   60.7730   32.5260   47.6500 N   0  0  0  0  0  0  0  0  0  0  0  0
   61.3500   33.0360   48.7570 C   0  0  0  0  0  0  0  0  0  0  0  0
   62.4320   32.5420   49.2550 N   0  0  0  0  0  0  0  0  0  0  0  0
   58.1970   28.4660   45.1160 C   0  0  0  0  0  0  0  0  0  0  0  0
   59.1820   27.9020   45.9460 C   0  0  0  0  0  0  0  0  0  0  0  0
   58.8050   26.9270   46.8560 C   0  0  0  0  0  0  0  0  0  0  0  0
   57.4790   26.5160   46.9460 C   0  0  0  0  0  0  0  0  0  0  0  0
   56.4970   27.0620   46.1370 C   0  0  0  0  0  0  0  0  0  0  0  0
   55.1670   26.6700   46.2060 O   0  0  0  0  0  0  0  0  0  0  0  0
   56.8620   28.0360   45.2230 C   0  0  0  0  0  0  0  0  0  0  0  0
   56.7640   29.1620   42.8980 H   0  0  0  0  0  0  0  0  0  0  0  0
   55.5790   29.8000   41.7280 H   0  0  0  0  0  0  0  0  0  0  0  0
   57.1229   33.6335   43.4087 H   0  0  0  0  0  0  0  0  0  0  0  0
   58.1624   34.5544   47.3551 H   0  0  0  0  0  0  0  0  0  0  0  0
   59.1827   35.5286   49.3953 H   0  0  0  0  0  0  0  0  0  0  0  0
   61.2773   34.5374   50.3209 H   0  0  0  0  0  0  0  0  0  0  0  0
   62.7710   30.7352   48.2588 H   0  0  0  0  0  0  0  0  0  0  0  0
   63.5577   30.8843   49.8616 H   0  0  0  0  0  0  0  0  0  0  0  0
   61.7887   29.7637   50.7288 H   0  0  0  0  0  0  0  0  0  0  0  0
   60.7917   31.2259   50.3575 H   0  0  0  0  0  0  0  0  0  0  0  0
   60.9072   29.9865   47.9094 H   0  0  0  0  0  0  0  0  0  0  0  0
   60.8753   28.5827   49.0283 H   0  0  0  0  0  0  0  0  0  0  0  0
   59.6290   30.5460   46.1440 H   0  0  0  0  0  0  0  0  0  0  0  0
   61.2510   31.7090   47.2180 H   0  0  0  0  0  0  0  0  0  0  0  0
   60.2302   28.2279   45.8745 H   0  0  0  0  0  0  0  0  0  0  0  0
   59.5616   26.4738   47.5134 H   0  0  0  0  0  0  0  0  0  0  0  0
   57.2047   25.7402   47.6760 H   0  0  0  0  0  0  0  0  0  0  0  0
   54.7470   26.7100   47.1430 H   0  0  0  0  0  0  0  0  0  0  0  0
   56.0961   28.4804   44.5704 H   0  0  0  0  0  0  0  0  0  0  0  0
  1  2  1  0
  2  3  2  0
  2  4  1  0
  4  5  2  0
  5  6  1  0
  6  7  2  0
  7  8  1  0
  8  9  2  0
  9 10  1  0
 10 11  2  0
 11 12  1  0
 12 13  2  0
 13 14  1  0
 14 15  1  0
 15 16  1  0
 16 17  1  0
 17 18  1  0
 17 19  1  0
 17 20  1  0
 12 21  1  0
  7 22  1  0
 22 23  1  0
 23 24  2  0
 24 25  1  0
 25 26  2  0
 26 27  1  0
 27 28  2  0
 28 29  1  0
 29 30  1  0
 29 31  2  0
 23  4  1  0
 31 25  1  0
 21  8  1  0
  1 32  1  0
  1 33  1  0
  5 34  1  0
  9 35  1  0
 10 36  1  0
 11 37  1  0
 14 38  1  0
 14 39  1  0
 15 40  1  0
 15 41  1  0
 16 42  1  0
 16 43  1  0
 21 44  1  0
 22 45  1  0
 26 46  1  0
 27 47  1  0
 28 48  1  0
 30 49  1  0
 31 50  1  0
M  END
>  <smiles>  (5) 
NC(=O)c1cnc(-c2cccc(=NCCCC(F)(F)F)[nH]2)[nH]c1=Nc1cccc(O)c1

>  <score_type>  (5) 
oracle

>  <origin>  (5) 
adg

>  <m_score__min__energy>  (5) 
-8.4700000000000006

>  <m_primary>  (5) 
energy

$$$$
5:0
     RDKit          3D

 42 44  0  0  0  0  0  0  0  0999 V2000
   54.7610   26.3400   45.9560 O   0  0  0  0  0  0  0  0  0  0  0  0
   55.9300   26.1090   46.3670 C   0  0  0  0  0  0  0  0  0  0  0  0
   56.1910   24.9700   47.1930 N   0  0  0  0  0  0  0  0  0  0  0  0
   55.7030   23.6280   46.8960 C   0  0  0  0  0  0  0  0  0  0  0  0
   56.0310   23.2570   45.4760 C   0  0  0  0  0  0  0  0  0  0  0  0
   55.1910   23.6710   44.4300 C   0  0  0  0  0  0  0  0  0  0  0  0
   55.4890   23.3270   43.1080 C   0  0  0  0  0  0  0  0  0  0  0  0
   56.6190   22.5550   42.8240 C   0  0  0  0  0  0  0  0  0  0  0  0
   57.4510   22.1250   43.8610 C   0  0  0  0  0  0  0  0  0  0  0  0
   57.1590   22.4730   45.1840 C   0  0  0  0  0  0  0  0  0  0  0  0
   57.0320   27.0100   46.0010 C   0  0  0  0  0  0  0  0  0  0  0  0
   56.8430   27.8850   45.1130 O   0  0  0  0  0  0  0  0  0  0  0  0
   58.3070   26.9080   46.6540 N   0  0  0  0  0  0  0  0  0  0  0  0
   59.3540   27.9200   46.5040 C   0  0  0  0  0  0  0  0  0  0  0  0
   58.8450   29.2960   46.9400 C   0  0  0  0  0  0  0  0  0  0  0  0
   58.6340   30.2030   45.7640 C   0  0  0  0  0  0  0  0  0  0  0  0
   58.6240   29.8280   44.4240 C   0  0  0  0  0  0  0  0  0  0  0  0
   58.3270   30.8890   43.6390 N   0  0  0  0  0  0  0  0  0  0  0  0
   58.1380   31.9270   44.4710 C   0  0  0  0  0  0  0  0  0  0  0  0
   57.7970   33.2340   44.1280 C   0  0  0  0  0  0  0  0  0  0  0  0
   57.6310   34.1650   45.1680 C   0  0  0  0  0  0  0  0  0  0  0  0
   57.7930   33.7720   46.5140 C   0  0  0  0  0  0  0  0  0  0  0  0
   58.1390   32.4460   46.8320 C   0  0  0  0  0  0  0  0  0  0  0  0
   58.3110   31.5470   45.7780 C   0  0  0  0  0  0  0  0  0  0  0  0
   56.1797   22.9090   47.5785 H   0  0  0  0  0  0  0  0  0  0  0  0
   54.6113   23.6061   47.0290 H   0  0  0  0  0  0  0  0  0  0  0  0
   54.2945   24.2686   44.6515 H   0  0  0  0  0  0  0  0  0  0  0  0
   54.8339   23.6640   42.2911 H   0  0  0  0  0  0  0  0  0  0  0  0
   56.8535   22.2858   41.7836 H   0  0  0  0  0  0  0  0  0  0  0  0
   58.3365   21.5122   43.6367 H   0  0  0  0  0  0  0  0  0  0  0  0
   57.8150   22.1315   45.9983 H   0  0  0  0  0  0  0  0  0  0  0  0
   58.4530   26.1670   47.3760 H   0  0  0  0  0  0  0  0  0  0  0  0
   60.2173   27.6409   47.1260 H   0  0  0  0  0  0  0  0  0  0  0  0
   59.6464   27.9711   45.4448 H   0  0  0  0  0  0  0  0  0  0  0  0
   57.8898   29.1717   47.4713 H   0  0  0  0  0  0  0  0  0  0  0  0
   59.6018   29.7517   47.5955 H   0  0  0  0  0  0  0  0  0  0  0  0
   58.8287   28.8121   44.0551 H   0  0  0  0  0  0  0  0  0  0  0  0
   58.2480   30.8920   42.5980 H   0  0  0  0  0  0  0  0  0  0  0  0
   57.6620   33.5278   43.0766 H   0  0  0  0  0  0  0  0  0  0  0  0
   57.3729   35.2077   44.9311 H   0  0  0  0  0  0  0  0  0  0  0  0
   57.6478   34.5071   47.3193 H   0  0  0  0  0  0  0  0  0  0  0  0
   58.2697   32.1280   47.8769 H   0  0  0  0  0  0  0  0  0  0  0  0
  1  2  2  0
  2  3  1  0
  3  4  1  0
  4  5  1  0
  5  6  2  0
  6  7  1  0
  7  8  2  0
  8  9  1  0
  9 10  2  0
  2 11  1  0
 11 12  2  0
 11 13  1  0
 13 14  1  0
 14 15  1  0
 15 16  1  0
 16 17  2  0
 17 18  1  0
 18 19  1  0
 19 20  2  0
 20 21  1  0
 21 22  2  0
 22 23  1  0
 23 24  2  0
 10  5  1  0
 24 16  1  0
 24 19  1  0
  4 25  1  0
  4 26  1  0
  6 27  1  0
  7 28  1  0
  8 29  1  0
  9 30  1  0
 10 31  1  0
 13 32  1  0
 14 33  1  0
 14 34  1  0
 15 35  1  0
 15 36  1  0
 17 37  1  0
 18 38  1  0
 20 39  1  0
 21 40  1  0
 22 41  1  0
 23 42  1  0
M  CHG  1   3  -1
M  END
>  <UniqueID>  (6) 
5

>  <SMILES>  (6) 
O=C([N-]Cc1ccccc1)C(=O)NCCc1c[nH]c2ccccc12

>  <Energy>  (6) 
64.45204161513098

>  <Genealogy>  (6) 
O=C([N-]Cc1ccccc1)C(=O)NCCc1c[nH]c2ccccc12 (protonated)
O=C([N-]Cc1ccccc1)C(=O)NCCc1c[nH]c2ccccc12 (3D coordinates assigned)
O=C([N-]Cc1ccccc1)C(=O)NCCc1c[nH]c2ccccc12 (optimized conformer: 64.45204161513098 kcal/mol)

>  <smiles>  (6) 
O=C(NCCc1c[nH]c2ccccc12)C(=O)NCc1ccccc1

>  <score_type>  (6) 
oracle

>  <origin>  (6) 
adg

>  <m_score__min__energy>  (6) 
-9.7400000000000002

>  <m_primary>  (6) 
energy

$$$$
6:0
     RDKit          3D

 70 75  0  0  0  0  0  0  0  0999 V2000
   60.7628   28.1121   49.5713 H   0  0  0  0  0  0  0  0  0  0  0  0
   60.5650   28.9420   48.8770 C   0  0  0  0  0  0  0  0  0  0  0  0
   61.1310   30.2080   49.1210 C   0  0  0  0  0  0  0  0  0  0  0  0
   62.0240   30.3930   50.2910 C   0  0  0  0  0  0  0  0  0  0  0  0
   63.2710   30.4650   50.1220 O   0  0  0  0  0  0  0  0  0  0  0  0
   61.4830   30.4780   51.6170 N   0  0  0  0  0  0  0  0  0  0  0  0
   60.4560   30.6170   51.7490 H   0  0  0  0  0  0  0  0  0  0  0  0
   62.3500   30.5430   52.7890 C   0  0  0  0  0  0  0  0  0  0  0  0
   63.2758   30.2039   52.3013 H   0  0  0  0  0  0  0  0  0  0  0  0
   61.9950   31.6590   53.7560 C   0  0  0  0  0  0  0  0  0  0  0  0
   62.7878   32.1677   54.3240 H   0  0  0  0  0  0  0  0  0  0  0  0
   61.4409   32.6063   53.6814 H   0  0  0  0  0  0  0  0  0  0  0  0
   61.6270   30.2200   54.0850 C   0  0  0  0  0  0  0  0  0  0  0  0
   62.1537   29.6879   54.8909 H   0  0  0  0  0  0  0  0  0  0  0  0
   60.6964   29.6952   54.3470 H   0  0  0  0  0  0  0  0  0  0  0  0
   60.8710   31.2670   48.2150 C   0  0  0  0  0  0  0  0  0  0  0  0
   61.3700   32.5920   48.4650 N   0  0  0  0  0  0  0  0  0  0  0  0
   60.9800   33.3190   49.6720 C   0  0  0  0  0  0  0  0  0  0  0  0
   60.5309   34.2820   49.3874 H   0  0  0  0  0  0  0  0  0  0  0  0
   60.2510   32.7173   50.2346 H   0  0  0  0  0  0  0  0  0  0  0  0
   62.1820   33.5680   50.5360 C   0  0  0  0  0  0  0  0  0  0  0  0
   62.0070   33.8920   51.7420 O   0  0  0  0  0  0  0  0  0  0  0  0
   63.5170   33.5140   49.9840 N   0  0  0  0  0  0  0  0  0  0  0  0
   64.6590   33.8540   50.8350 C   0  0  0  0  0  0  0  0  0  0  0  0
   64.3673   33.7671   51.8921 H   0  0  0  0  0  0  0  0  0  0  0  0
   65.4901   33.1643   50.6261 H   0  0  0  0  0  0  0  0  0  0  0  0
   64.9775   34.8859   50.6261 H   0  0  0  0  0  0  0  0  0  0  0  0
   63.7690   32.9410   48.6500 C   0  0  0  0  0  0  0  0  0  0  0  0
   64.6145   33.4714   48.1876 H   0  0  0  0  0  0  0  0  0  0  0  0
   63.9956   31.8715   48.7721 H   0  0  0  0  0  0  0  0  0  0  0  0
   62.5460   33.0700   47.7420 C   0  0  0  0  0  0  0  0  0  0  0  0
   62.4039   34.1239   47.4608 H   0  0  0  0  0  0  0  0  0  0  0  0
   62.6927   32.4721   46.8304 H   0  0  0  0  0  0  0  0  0  0  0  0
   60.0630   31.0430   47.0890 C   0  0  0  0  0  0  0  0  0  0  0  0
   59.8676   31.8636   46.3830 H   0  0  0  0  0  0  0  0  0  0  0  0
   59.5070   29.7840   46.8620 C   0  0  0  0  0  0  0  0  0  0  0  0
   58.7270   29.5590   45.7750 N   0  0  0  0  0  0  0  0  0  0  0  0
   58.1670   28.3420   45.5300 C   0  0  0  0  0  0  0  0  0  0  0  0
   57.4490   28.1160   44.4620 N   0  0  0  0  0  0  0  0  0  0  0  0
   57.0190   28.9740   43.3420 C   0  0  0  0  0  0  0  0  0  0  0  0
   57.4534   28.3092   42.5809 H   0  0  0  0  0  0  0  0  0  0  0  0
   55.6970   29.7070   43.4970 C   0  0  0  0  0  0  0  0  0  0  0  0
   55.0357   29.8391   42.6279 H   0  0  0  0  0  0  0  0  0  0  0  0
   54.8177   29.5973   44.1487 H   0  0  0  0  0  0  0  0  0  0  0  0
   57.0160   30.4770   43.5790 C   0  0  0  0  0  0  0  0  0  0  0  0
   57.3046   31.1628   42.7689 H   0  0  0  0  0  0  0  0  0  0  0  0
   57.4806   31.1510   44.3137 H   0  0  0  0  0  0  0  0  0  0  0  0
   58.3990   27.2940   46.4460 C   0  0  0  0  0  0  0  0  0  0  0  0
   57.8340   25.9890   46.2450 N   0  0  0  0  0  0  0  0  0  0  0  0
   56.4460   25.7050   46.6300 C   0  0  0  0  0  0  0  0  0  0  0  0
   56.4452   25.0852   47.5388 H   0  0  0  0  0  0  0  0  0  0  0  0
   55.9322   26.6604   46.8122 H   0  0  0  0  0  0  0  0  0  0  0  0
   55.7000   24.9550   45.5090 C   0  0  0  0  0  0  0  0  0  0  0  0
   54.9889   24.2560   45.9734 H   0  0  0  0  0  0  0  0  0  0  0  0
   55.2007   25.7165   44.8920 H   0  0  0  0  0  0  0  0  0  0  0  0
   56.6370   24.1450   44.5600 C   0  0  0  0  0  0  0  0  0  0  0  0
   55.8830   22.9420   44.0210 C   0  0  0  0  0  0  0  0  0  0  0  0
   55.2640   22.1730   44.8060 O   0  0  0  0  0  0  0  0  0  0  0  0
   55.7940   22.7200   42.6530 O   0  0  0  0  0  0  0  0  0  0  0  0
   57.0670   25.0080   43.4470 N   0  0  0  0  0  0  0  0  0  0  0  0
   56.4270   24.8660   42.6290 H   0  0  0  0  0  0  0  0  0  0  0  0
   56.9990   26.0150   43.7200 H   0  0  0  0  0  0  0  0  0  0  0  0
   57.8950   23.6800   45.3400 C   0  0  0  0  0  0  0  0  0  0  0  0
   57.5794   23.0750   46.2028 H   0  0  0  0  0  0  0  0  0  0  0  0
   58.5268   23.0872   44.6622 H   0  0  0  0  0  0  0  0  0  0  0  0
   58.7120   24.8830   45.8420 C   0  0  0  0  0  0  0  0  0  0  0  0
   59.3162   24.5709   46.7066 H   0  0  0  0  0  0  0  0  0  0  0  0
   59.3586   25.2316   45.0232 H   0  0  0  0  0  0  0  0  0  0  0  0
   59.1990   27.5170   47.5250 N   0  0  0  0  0  0  0  0  0  0  0  0
   59.7540   28.7330   47.7590 C   0  0  0  0  0  0  0  0  0  0  0  0
  1  2  1  0
  2  3  2  0
  3  4  1  0
  4  5  2  0
  4  6  1  0
  6  7  1  0
  6  8  1  0
  8  9  1  0
  8 10  1  0
 10 11  1  0
 10 12  1  0
 10 13  1  0
 13 14  1  0
 13 15  1  0
  3 16  1  0
 16 17  1  0
 17 18  1  0
 18 19  1  0
 18 20  1  0
 18 21  1  0
 21 22  2  0
 21 23  1  0
 23 24  1  0
 24 25  1  0
 24 26  1  0
 24 27  1  0
 23 28  1  0
 28 29  1  0
 28 30  1  0
 28 31  1  0
 31 32  1  0
 31 33  1  0
 16 34  2  0
 34 35  1  0
 34 36  1  0
 36 37  1  0
 37 38  1  0
 38 39  2  0
 39 40  1  0
 40 41  1  0
 40 42  1  0
 42 43  1  0
 42 44  1  0
 42 45  1  0
 45 46  1  0
 45 47  1  0
 38 48  1  0
 48 49  1  0
 49 50  1  0
 50 51  1  0
 50 52  1  0
 50 53  1  0
 53 54  1  0
 53 55  1  0
 53 56  1  0
 56 57  1  0
 57 58  2  0
 57 59  1  0
 56 60  1  0
 60 61  1  0
 60 62  1  0
 56 63  1  0
 63 64  1  0
 63 65  1  0
 63 66  1  0
 66 67  1  0
 66 68  1  0
 48 69  2  0
 69 70  1  0
 70  2  1  0
 13  8  1  0
 31 17  1  0
 70 36  2  0
 45 40  1  0
 66 49  1  0
M  CHG  2  37  -1  59  -1
M  END
>  <UniqueID>  (7) 
6

>  <SMILES>  (7) 
CN1CCN(c2cc3[n-]/c(=N\C4CC4)c(N4CCC(N)(C(=O)[O-])CC4)nc3cc2C(=O)NC2CC2)CC1=O

>  <Energy>  (7) 
631.4591401738991

>  <Genealogy>  (7) 
CN1CCN(c2cc3[n-]c(=NC4CC4)c(N4CCC(N)(C(=O)[O-])CC4)nc3cc2C(=O)NC2CC2)CC1=O (protonated)
CN1CCN(c2cc3[n-]/c(=N\C4CC4)c(N4CCC(N)(C(=O)[O-])CC4)nc3cc2C(=O)NC2CC2)CC1=O (cis-trans isomerization)
CN1CCN(c2cc3[n-]/c(=N\C4CC4)c(N4CCC(N)(C(=O)[O-])CC4)nc3cc2C(=O)NC2CC2)CC1=O (3D coordinates assigned)
CN1CCN(c2cc3[n-]/c(=N\C4CC4)c(N4CCC(N)(C(=O)[O-])CC4)nc3cc2C(=O)NC2CC2)CC1=O (nonaromatic ring conformer: 631.4591401738991 kcal/mol)

>  <smiles>  (7) 
CN1CCN(c2cc3[nH]c(=NC4CC4)c(N4CCC(N)(C(=O)O)CC4)nc3cc2C(=O)NC2CC2)CC1=O

>  <score_type>  (7) 
oracle

>  <origin>  (7) 
adg

>  <m_score__min__energy>  (7) 
-11.32

>  <m_primary>  (7) 
energy

$$$$
7:0
     RDKit          3D

 34 36  0  0  0  0  0  0  0  0999 V2000
   54.1530   28.5190   52.3750 O   0  0  0  0  0  0  0  0  0  0  0  0
   54.2310   29.7590   52.1480 C   0  0  0  0  0  0  0  0  0  0  0  0
   55.3600   30.5160   52.6170 N   0  0  0  0  0  0  0  0  0  0  0  0
   56.5600   30.4970   52.1180 C   0  0  0  0  0  0  0  0  0  0  0  0
   57.3030   29.3780   51.9580 N   0  0  0  0  0  0  0  0  0  0  0  0
   58.5170   29.6560   51.4120 C   0  0  0  0  0  0  0  0  0  0  0  0
   58.7300   31.0080   51.1470 C   0  0  0  0  0  0  0  0  0  0  0  0
   59.8810   31.6040   50.5370 N   0  0  0  0  0  0  0  0  0  0  0  0
   60.5030   31.2040   49.3080 C   0  0  0  0  0  0  0  0  0  0  0  0
   61.7550   31.0760   49.2350 O   0  0  0  0  0  0  0  0  0  0  0  0
   59.6650   30.9790   48.1160 C   0  0  0  0  0  0  0  0  0  0  0  0
   59.2160   32.0520   47.3260 C   0  0  0  0  0  0  0  0  0  0  0  0
   58.4260   31.7940   46.2040 C   0  0  0  0  0  0  0  0  0  0  0  0
   58.0900   30.4810   45.8770 C   0  0  0  0  0  0  0  0  0  0  0  0
   58.5520   29.4370   46.6810 C   0  0  0  0  0  0  0  0  0  0  0  0
   59.3210   29.7070   47.7710 N   0  0  0  0  0  0  0  0  0  0  0  0
   57.3590   31.8770   51.5870 S   0  0  0  0  0  0  0  0  0  0  0  0
   53.1500   30.4360   51.3920 C   0  0  0  0  0  0  0  0  0  0  0  0
   52.5910   31.6380   51.8650 C   0  0  0  0  0  0  0  0  0  0  0  0
   51.5710   32.2760   51.1520 C   0  0  0  0  0  0  0  0  0  0  0  0
   51.0310   33.4630   51.6340 O   0  0  0  0  0  0  0  0  0  0  0  0
   51.0970   31.7240   49.9580 C   0  0  0  0  0  0  0  0  0  0  0  0
   50.0830   32.3610   49.2510 O   0  0  0  0  0  0  0  0  0  0  0  0
   51.6430   30.5290   49.4730 C   0  0  0  0  0  0  0  0  0  0  0  0
   51.1650   29.9840   48.2830 O   0  0  0  0  0  0  0  0  0  0  0  0
   52.6650   29.8880   50.1890 C   0  0  0  0  0  0  0  0  0  0  0  0
   59.2669   28.8803   51.1977 H   0  0  0  0  0  0  0  0  0  0  0  0
   59.4847   33.0856   47.5896 H   0  0  0  0  0  0  0  0  0  0  0  0
   58.0691   32.6257   45.5788 H   0  0  0  0  0  0  0  0  0  0  0  0
   57.4676   30.2697   44.9950 H   0  0  0  0  0  0  0  0  0  0  0  0
   58.2945   28.3966   46.4335 H   0  0  0  0  0  0  0  0  0  0  0  0
   52.9593   32.0791   52.8030 H   0  0  0  0  0  0  0  0  0  0  0  0
   50.3680   30.3830   47.7990 H   0  0  0  0  0  0  0  0  0  0  0  0
   53.0914   28.9487   49.8071 H   0  0  0  0  0  0  0  0  0  0  0  0
  1  2  2  0
  2  3  1  0
  3  4  2  3
  4  5  1  0
  5  6  1  0
  6  7  2  0
  7  8  1  0
  8  9  1  0
  9 10  2  0
  9 11  1  0
 11 12  2  0
 12 13  1  0
 13 14  2  0
 14 15  1  0
 15 16  2  0
  7 17  1  0
  2 18  1  0
 18 19  2  0
 19 20  1  0
 20 21  1  0
 20 22  2  0
 22 23  1  0
 22 24  1  0
 24 25  1  0
 24 26  2  0
 17  4  1  0
 26 18  1  0
 16 11  1  0
  6 27  1  0
 12 28  1  0
 13 29  1  0
 14 30  1  0
 15 31  1  0
 19 32  1  0
 25 33  1  0
 26 34  1  0
M  CHG  4   5  -1   8  -1  21  -1  23  -1
M  END
>  <UniqueID>  (8) 
7

>  <SMILES>  (8) 
O=C(N=c1[n-]cc([N-]C(=O)c2ccccn2)s1)c1cc([O-])c([O-])c(O)c1

>  <Energy>  (8) 
73.79185308081762

>  <Genealogy>  (8) 
O=C(N=c1[n-]cc([N-]C(=O)c2ccccn2)s1)c1cc([O-])c([O-])c(O)c1 (protonated)
O=C(N=c1[n-]cc([N-]C(=O)c2ccccn2)s1)c1cc([O-])c([O-])c(O)c1 (3D coordinates assigned)
O=C(N=c1[n-]cc([N-]C(=O)c2ccccn2)s1)c1cc([O-])c([O-])c(O)c1 (optimized conformer: 73.79185308081762 kcal/mol)

>  <smiles>  (8) 
O=C(N=c1[nH]cc(NC(=O)c2ccccn2)s1)c1cc(O)c(O)c(O)c1

>  <score_type>  (8) 
oracle

>  <origin>  (8) 
adg

>  <m_score__min__energy>  (8) 
-18.48

>  <m_primary>  (8) 
energy

$$$$
8:0
     RDKit          3D

 48 51  0  0  0  0  0  0  0  0999 V2000
   55.9263   29.5731   43.7283 H   0  0  0  0  0  0  0  0  0  0  0  0
   56.6060   30.0390   44.4570 C   0  0  0  0  0  0  0  0  0  0  0  0
   56.5530   31.3780   44.6750 N   0  0  0  0  0  0  0  0  0  0  0  0
   57.4010   31.9790   45.5500 C   0  0  0  0  0  0  0  0  0  0  0  0
   57.3050   33.2600   45.7440 N   0  0  0  0  0  0  0  0  0  0  0  0
   58.3800   34.1950   45.5940 C   0  0  0  0  0  0  0  0  0  0  0  0
   58.3870   34.9700   44.6010 O   0  0  0  0  0  0  0  0  0  0  0  0
   59.5220   34.1820   46.5190 C   0  0  0  0  0  0  0  0  0  0  0  0
   59.5610   34.8290   47.6620 O   0  0  0  0  0  0  0  0  0  0  0  0
   60.6690   34.5740   48.2890 N   0  0  0  0  0  0  0  0  0  0  0  0
   60.9210   34.9490   49.2310 H   0  0  0  0  0  0  0  0  0  0  0  0
   61.3980   33.7350   47.5290 C   0  0  0  0  0  0  0  0  0  0  0  0
   62.7110   33.1320   47.9540 C   0  0  0  0  0  0  0  0  0  0  0  0
   62.5335   32.0852   48.2416 H   0  0  0  0  0  0  0  0  0  0  0  0
   63.7060   33.1550   46.7910 C   0  0  0  0  0  0  0  0  0  0  0  0
   64.7321   33.1787   47.1867 H   0  0  0  0  0  0  0  0  0  0  0  0
   63.5712   32.2535   46.1753 H   0  0  0  0  0  0  0  0  0  0  0  0
   63.5297   34.0493   46.1753 H   0  0  0  0  0  0  0  0  0  0  0  0
   63.2820   33.8590   49.1760 C   0  0  0  0  0  0  0  0  0  0  0  0
   62.9078   33.3825   50.0941 H   0  0  0  0  0  0  0  0  0  0  0  0
   64.3804   33.8034   49.1556 H   0  0  0  0  0  0  0  0  0  0  0  0
   62.9678   34.9130   49.1556 H   0  0  0  0  0  0  0  0  0  0  0  0
   60.6890   33.4520   46.3750 C   0  0  0  0  0  0  0  0  0  0  0  0
   60.9836   32.8000   45.5395 H   0  0  0  0  0  0  0  0  0  0  0  0
   58.3000   31.2250   46.2450 N   0  0  0  0  0  0  0  0  0  0  0  0
   58.3660   29.8750   46.0870 C   0  0  0  0  0  0  0  0  0  0  0  0
   59.2880   29.1070   46.8830 N   0  0  0  0  0  0  0  0  0  0  0  0
   60.2420   28.1750   46.4000 C   0  0  0  0  0  0  0  0  0  0  0  0
   60.5370   28.0260   45.1860 O   0  0  0  0  0  0  0  0  0  0  0  0
   60.7710   27.3930   47.3990 O   0  0  0  0  0  0  0  0  0  0  0  0
   60.1790   27.7360   48.6430 C   0  0  0  0  0  0  0  0  0  0  0  0
   59.6621   26.8664   49.0750 H   0  0  0  0  0  0  0  0  0  0  0  0
   60.9320   28.0596   49.3766 H   0  0  0  0  0  0  0  0  0  0  0  0
   59.1620   28.8690   48.3240 C   0  0  1  0  0  0  0  0  0  0  0  0
   58.1308   28.5908   48.5872 H   0  0  0  0  0  0  0  0  0  0  0  0
   59.4620   30.1100   49.1400 C   0  0  0  0  0  0  0  0  0  0  0  0
   58.5280   31.1570   49.2700 C   0  0  0  0  0  0  0  0  0  0  0  0
   57.5258   31.0539   48.8285 H   0  0  0  0  0  0  0  0  0  0  0  0
   58.8680   32.3260   49.9570 C   0  0  0  0  0  0  0  0  0  0  0  0
   58.1260   33.1294   50.0751 H   0  0  0  0  0  0  0  0  0  0  0  0
   60.1500   32.4750   50.4940 C   0  0  0  0  0  0  0  0  0  0  0  0
   60.4164   33.3952   51.0347 H   0  0  0  0  0  0  0  0  0  0  0  0
   61.0920   31.4560   50.3440 C   0  0  0  0  0  0  0  0  0  0  0  0
   62.1048   31.5799   50.7549 H   0  0  0  0  0  0  0  0  0  0  0  0
   60.7510   30.2790   49.6730 C   0  0  0  0  0  0  0  0  0  0  0  0
   61.4972   29.4786   49.5611 H   0  0  0  0  0  0  0  0  0  0  0  0
   57.5210   29.2550   45.1560 C   0  0  0  0  0  0  0  0  0  0  0  0
   57.5793   28.1706   44.9809 H   0  0  0  0  0  0  0  0  0  0  0  0
  1  2  1  0
  2  3  1  0
  3  4  1  0
  4  5  2  0
  5  6  1  0
  6  7  2  0
  6  8  1  0
  8  9  1  0
  9 10  1  0
 10 11  1  0
 10 12  2  0
 12 13  1  0
 13 14  1  0
 13 15  1  0
 15 16  1  0
 15 17  1  0
 15 18  1  0
 13 19  1  0
 19 20  1  0
 19 21  1  0
 19 22  1  0
 12 23  1  0
 23 24  1  0
  4 25  1  0
 25 26  2  0
 26 27  1  0
 27 28  1  0
 28 29  2  0
 28 30  1  0
 30 31  1  0
 31 32  1  0
 31 33  1  0
 31 34  1  0
 34 35  1  6
 34 36  1  0
 36 37  2  0
 37 38  1  0
 37 39  1  0
 39 40  1  0
 39 41  2  0
 41 42  1  0
 41 43  1  0
 43 44  1  0
 43 45  2  0
 45 46  1  0
 26 47  1  0
 47 48  1  0
 47  2  2  0
 23  8  2  0
 34 27  1  0
 45 36  1  0
M  CHG  2   3  -1  10   1
M  END
>  <UniqueID>  (9) 
8

>  <SMILES>  (9) 
CC(C)c1cc(C(=O)/N=c2\nc(N3C(=O)OC[C@H]3c3ccccc3)cc[n-]2)o[nH+]1

>  <Energy>  (9) 
98.85423170960652

>  <Genealogy>  (9) 
CC(C)c1cc(C(=O)N=c2nc(N3C(=O)OCC3c3ccccc3)cc[n-]2)o[nH+]1 (protonated)
CC(C)c1cc(C(=O)N=c2nc(N3C(=O)OC[C@H]3c3ccccc3)cc[n-]2)o[nH+]1 (chirality)
CC(C)c1cc(C(=O)/N=c2\nc(N3C(=O)OC[C@H]3c3ccccc3)cc[n-]2)o[nH+]1 (cis-trans isomerization)
CC(C)c1cc(C(=O)/N=c2\nc(N3C(=O)OC[C@H]3c3ccccc3)cc[n-]2)o[nH+]1 (3D coordinates assigned)
CC(C)c1cc(C(=O)/N=c2\nc(N3C(=O)OC[C@H]3c3ccccc3)cc[n-]2)o[nH+]1 (nonaromatic ring conformer: 98.85423170960652 kcal/mol)

>  <smiles>  (9) 
CC(C)c1cc(C(=O)N=c2nc(N3C(=O)OCC3c3ccccc3)cc[nH]2)on1

>  <score_type>  (9) 
oracle

>  <origin>  (9) 
adg

>  <m_score__min__energy>  (9) 
-8.3900000000000006

>  <m_primary>  (9) 
energy

$$$$
9:0
     RDKit          3D

 60 62  0  0  1  0  0  0  0  0999 V2000
   59.3650   22.3170   44.8510 C   0  0  0  0  0  0  0  0  0  0  0  0
   58.0130   22.9330   44.6130 C   0  0  0  0  0  0  0  0  0  0  0  0
   57.1350   22.3670   43.7170 C   0  0  0  0  0  0  0  0  0  0  0  0
   55.9030   22.9530   43.5190 C   0  0  0  0  0  0  0  0  0  0  0  0
   55.5830   24.1020   44.2360 C   0  0  0  0  0  0  0  0  0  0  0  0
   56.4910   24.6570   45.1420 C   0  0  0  0  0  0  0  0  0  0  0  0
   56.0820   25.8310   45.8320 N   0  0  0  0  0  0  0  0  0  0  0  0
   56.9630   26.7120   46.1390 C   0  0  0  0  0  0  0  0  0  0  0  0
   57.7470   26.6400   47.2260 N   0  0  0  0  0  0  0  0  0  0  0  0
   58.6490   27.5780   47.5130 C   0  0  0  0  0  0  0  0  0  0  0  0
   58.8420   28.7200   46.6800 C   0  0  0  0  0  0  0  0  0  0  0  0
   59.8130   29.6340   47.1730 C   0  0  0  0  0  0  0  0  0  0  0  0
   60.1770   29.4060   48.4120 O   0  0  0  0  0  0  0  0  0  0  0  0
   60.4800   30.7280   46.5940 N   0  0  0  0  0  0  0  0  0  0  0  0
   61.4910   31.3880   47.3750 C   0  0  0  0  0  0  0  0  0  0  0  0
   61.9200   32.7560   47.0980 C   0  0  0  0  0  0  0  0  0  0  0  0
   61.0520   33.6640   48.0480 C   0  0  0  0  0  0  0  0  0  0  0  0
   63.3300   33.1120   47.4810 C   0  0  0  0  0  0  0  0  0  0  0  0
   58.0380   28.7570   45.5950 C   0  0  0  0  0  0  0  0  0  0  0  0
   58.1310   29.6750   44.7520 N   0  0  0  0  0  0  0  0  0  0  0  0
   57.0700   30.4510   44.2260 C   0  0  0  0  0  0  0  0  0  0  0  0
   57.1970   31.9030   44.6020 C   0  0  0  0  0  0  0  0  0  0  0  0
   58.1140   32.6940   43.7170 C   0  0  0  0  0  0  0  0  0  0  0  0
   58.7600   33.8390   44.4940 C   0  0  0  0  0  0  0  0  0  0  0  0
   57.8680   34.3010   45.4300 O   0  0  0  0  0  0  0  0  0  0  0  0
   57.6660   33.4300   46.4870 C   0  0  0  0  0  0  0  0  0  0  0  0
   57.7620   31.9700   46.0120 C   0  0  0  0  0  0  0  0  0  0  0  0
   57.1260   27.7760   45.3410 N   0  0  0  0  0  0  0  0  0  0  0  0
   57.7290   24.0720   45.3420 C   0  0  0  0  0  0  0  0  0  0  0  0
   59.5452   22.2349   45.9330 H   0  0  0  0  0  0  0  0  0  0  0  0
   59.3967   21.3156   44.3970 H   0  0  0  0  0  0  0  0  0  0  0  0
   60.1415   22.9502   44.3970 H   0  0  0  0  0  0  0  0  0  0  0  0
   57.4132   21.4571   43.1650 H   0  0  0  0  0  0  0  0  0  0  0  0
   55.1854   22.5199   42.8067 H   0  0  0  0  0  0  0  0  0  0  0  0
   54.6031   24.5794   44.0878 H   0  0  0  0  0  0  0  0  0  0  0  0
   57.6400   25.8190   47.8640 H   0  0  0  0  0  0  0  0  0  0  0  0
   59.2630   27.4685   48.4191 H   0  0  0  0  0  0  0  0  0  0  0  0
   60.2050   30.9880   45.6240 H   0  0  0  0  0  0  0  0  0  0  0  0
   61.1273   31.3849   48.4131 H   0  0  0  0  0  0  0  0  0  0  0  0
   62.3911   30.8101   47.1184 H   0  0  0  0  0  0  0  0  0  0  0  0
   61.8237   32.8844   46.0098 H   0  0  0  0  0  0  0  0  0  0  0  0
   61.2822   33.4232   49.0963 H   0  0  0  0  0  0  0  0  0  0  0  0
   61.2830   34.7221   47.8556 H   0  0  0  0  0  0  0  0  0  0  0  0
   59.9846   33.4809   47.8556 H   0  0  0  0  0  0  0  0  0  0  0  0
   63.4177   33.1341   48.5773 H   0  0  0  0  0  0  0  0  0  0  0  0
   64.0217   32.3603   47.0729 H   0  0  0  0  0  0  0  0  0  0  0  0
   63.5820   34.1019   47.0729 H   0  0  0  0  0  0  0  0  0  0  0  0
   57.0766   30.3657   43.1293 H   0  0  0  0  0  0  0  0  0  0  0  0
   56.1278   30.0707   44.6475 H   0  0  0  0  0  0  0  0  0  0  0  0
   56.1932   32.3422   44.5042 H   0  0  0  0  0  0  0  0  0  0  0  0
   58.9017   32.0314   43.3291 H   0  0  0  0  0  0  0  0  0  0  0  0
   57.5275   33.1163   42.8877 H   0  0  0  0  0  0  0  0  0  0  0  0
   59.6688   33.4771   44.9972 H   0  0  0  0  0  0  0  0  0  0  0  0
   59.0299   34.6518   43.8037 H   0  0  0  0  0  0  0  0  0  0  0  0
   58.4316   33.6110   47.2559 H   0  0  0  0  0  0  0  0  0  0  0  0
   56.6618   33.6026   46.9015 H   0  0  0  0  0  0  0  0  0  0  0  0
   58.8130   31.6453   46.0100 H   0  0  0  0  0  0  0  0  0  0  0  0
   57.1965   31.3086   46.6849 H   0  0  0  0  0  0  0  0  0  0  0  0
   56.5190   27.8350   44.4940 H   0  0  0  0  0  0  0  0  0  0  0  0
   58.4558   24.4955   46.0508 H   0  0  0  0  0  0  0  0  0  0  0  0
  1  2  1  0
  2  3  2  0
  3  4  1  0
  4  5  2  0
  5  6  1  0
  6  7  1  0
  7  8  2  0
  8  9  1  0
  9 10  1  0
 10 11  2  0
 11 12  1  0
 12 13  2  0
 12 14  1  0
 14 15  1  0
 15 16  1  0
 16 17  1  0
 16 18  1  0
 11 19  1  0
 19 20  2  0
 20 21  1  0
 21 22  1  0
 22 23  1  0
 23 24  1  0
 24 25  1  0
 25 26  1  0
 26 27  1  0
 19 28  1  0
  6 29  2  0
 29  2  1  0
 28  8  1  0
 27 22  1  0
  1 30  1  0
  1 31  1  0
  1 32  1  0
  3 33  1  0
  4 34  1  0
  5 35  1  0
  9 36  1  0
 10 37  1  0
 14 38  1  0
 15 39  1  0
 15 40  1  0
 16 41  1  0
 17 42  1  0
 17 43  1  0
 17 44  1  0
 18 45  1  0
 18 46  1  0
 18 47  1  0
 21 48  1  0
 21 49  1  0
 22 50  1  0
 23 51  1  0
 23 52  1  0
 24 53  1  0
 24 54  1  0
 26 55  1  0
 26 56  1  0
 27 57  1  0
 27 58  1  0
 28 59  1  0
 29 60  1  0
M  END
>  <smiles>  (10) 
Cc1cccc(N=c2[nH]cc(C(=O)NCC(C)C)c(=NCC3CCOCC3)[nH]2)c1

>  <score_type>  (10) 
oracle

>  <origin>  (10) 
adg

>  <m_score__min__energy>  (10) 
-8.6699999999999999

>  <m_primary>  (10) 
energy

$$$$
10:0
     RDKit          3D

 55 58  0  0  0  0  0  0  0  0999 V2000
   68.0710   32.0210   51.3220 H   0  0  0  0  0  0  0  0  0  0  0  0
   67.9580   32.7920   51.9390 O   0  0  0  0  0  0  0  0  0  0  0  0
   66.5890   33.0960   51.9550 C   0  0  0  0  0  0  0  0  0  0  0  0
   66.4641   34.1870   52.0191 H   0  0  0  0  0  0  0  0  0  0  0  0
   66.1318   32.6025   52.8253 H   0  0  0  0  0  0  0  0  0  0  0  0
   65.9070   32.5950   50.7080 C   0  0  0  0  0  0  0  0  0  0  0  0
   66.3310   31.5370   50.1650 O   0  0  0  0  0  0  0  0  0  0  0  0
   64.7670   33.2780   50.1380 N   0  0  0  0  0  0  0  0  0  0  0  0
   64.3680   32.9450   48.7600 C   0  0  0  0  0  0  0  0  0  0  0  0
   64.0262   31.8998   48.7318 H   0  0  0  0  0  0  0  0  0  0  0  0
   65.2407   33.0956   48.1075 H   0  0  0  0  0  0  0  0  0  0  0  0
   63.2380   33.8490   48.2560 C   0  0  0  0  0  0  0  0  0  0  0  0
   62.8083   33.4188   47.3393 H   0  0  0  0  0  0  0  0  0  0  0  0
   63.6427   34.8495   48.0435 H   0  0  0  0  0  0  0  0  0  0  0  0
   62.1910   33.9590   49.2790 N   0  0  0  0  0  0  0  0  0  0  0  0
   60.8010   33.9820   48.9040 C   0  0  0  0  0  0  0  0  0  0  0  0
   60.0580   34.8950   49.3560 O   0  0  0  0  0  0  0  0  0  0  0  0
   60.2180   32.9420   48.0250 C   0  0  0  0  0  0  0  0  0  0  0  0
   60.7750   31.6510   47.9690 C   0  0  0  0  0  0  0  0  0  0  0  0
   61.6627   31.4124   48.5732 H   0  0  0  0  0  0  0  0  0  0  0  0
   60.2080   30.6700   47.1510 C   0  0  0  0  0  0  0  0  0  0  0  0
   60.6628   29.6697   47.1013 H   0  0  0  0  0  0  0  0  0  0  0  0
   59.0640   30.9530   46.3940 C   0  0  0  0  0  0  0  0  0  0  0  0
   58.4630   29.9370   45.5700 N   0  0  0  0  0  0  0  0  0  0  0  0
   57.8760   30.1380   44.3680 C   0  0  0  0  0  0  0  0  0  0  0  0
   57.7600   31.4630   43.6750 C   0  0  0  0  0  0  0  0  0  0  0  0
   57.6898   32.2643   44.4253 H   0  0  0  0  0  0  0  0  0  0  0  0
   58.6473   31.6266   43.0457 H   0  0  0  0  0  0  0  0  0  0  0  0
   56.8578   31.4699   43.0457 H   0  0  0  0  0  0  0  0  0  0  0  0
   57.3870   28.9500   43.8670 C   0  0  0  0  0  0  0  0  0  0  0  0
   56.8309   28.8145   42.9276 H   0  0  0  0  0  0  0  0  0  0  0  0
   57.7300   27.9600   44.7730 C   0  0  0  0  0  0  0  0  0  0  0  0
   57.4870   26.6540   44.5530 C   0  0  0  0  0  0  0  0  0  0  0  0
   57.6725   26.2716   43.5384 H   0  0  0  0  0  0  0  0  0  0  0  0
   56.9940   25.6940   45.5550 C   0  0  0  0  0  0  0  0  0  0  0  0
   57.6160   24.5490   45.8910 N   0  0  0  0  0  0  0  0  0  0  0  0
   56.7340   23.9460   46.7160 C   0  0  0  0  0  0  0  0  0  0  0  0
   56.9660   22.8350   47.2610 O   0  0  0  0  0  0  0  0  0  0  0  0
   55.5780   24.6190   46.9020 N   0  0  0  0  0  0  0  0  0  0  0  0
   55.7550   25.7150   46.1470 C   0  0  0  0  0  0  0  0  0  0  0  0
   54.7980   26.7100   45.9950 O   0  0  0  0  0  0  0  0  0  0  0  0
   58.3540   28.6120   45.8490 C   0  0  0  0  0  0  0  0  0  0  0  0
   58.6450   28.0890   47.0500 C   0  0  0  0  0  0  0  0  0  0  0  0
   59.1385   28.7074   47.8142 H   0  0  0  0  0  0  0  0  0  0  0  0
   58.3900   27.0419   47.2703 H   0  0  0  0  0  0  0  0  0  0  0  0
   58.4950   32.2340   46.4580 C   0  0  0  0  0  0  0  0  0  0  0  0
   57.5959   32.4641   45.8675 H   0  0  0  0  0  0  0  0  0  0  0  0
   59.0660   33.2190   47.2690 C   0  0  0  0  0  0  0  0  0  0  0  0
   58.6101   34.2190   47.3159 H   0  0  0  0  0  0  0  0  0  0  0  0
   62.5550   34.2430   50.6740 C   0  0  0  0  0  0  0  0  0  0  0  0
   62.1807   33.4286   51.3116 H   0  0  0  0  0  0  0  0  0  0  0  0
   62.1038   35.2065   50.9537 H   0  0  0  0  0  0  0  0  0  0  0  0
   64.0730   34.3590   50.8590 C   0  0  0  0  0  0  0  0  0  0  0  0
   64.3129   34.2911   51.9304 H   0  0  0  0  0  0  0  0  0  0  0  0
   64.4067   35.3262   50.4550 H   0  0  0  0  0  0  0  0  0  0  0  0
  1  2  1  0
  2  3  1  0
  3  4  1  0
  3  5  1  0
  3  6  1  0
  6  7  2  0
  6  8  1  0
  8  9  1  0
  9 10  1  0
  9 11  1  0
  9 12  1  0
 12 13  1  0
 12 14  1  0
 12 15  1  0
 15 16  1  0
 16 17  2  0
 16 18  1  0
 18 19  2  0
 19 20  1  0
 19 21  1  0
 21 22  1  0
 21 23  2  0
 23 24  1  0
 24 25  1  0
 25 26  1  0
 26 27  1  0
 26 28  1  0
 26 29  1  0
 25 30  2  0
 30 31  1  0
 30 32  1  0
 32 33  2  0
 33 34  1  0
 33 35  1  0
 35 36  1  0
 36 37  1  0
 37 38  2  0
 37 39  1  0
 39 40  1  0
 40 41  1  0
 32 42  1  0
 42 43  2  0
 43 44  1  0
 43 45  1  0
 23 46  1  0
 46 47  1  0
 46 48  2  0
 48 49  1  0
 15 50  1  0
 50 51  1  0
 50 52  1  0
 50 53  1  0
 53 54  1  0
 53 55  1  0
 53  8  1  0
 48 18  1  0
 42 24  1  0
 40 35  2  0
M  CHG  3  36  -1  39  -1  41  -1
M  END
>  <UniqueID>  (11) 
9

>  <SMILES>  (11) 
C=c1/c(=C\c2[n-]c(=O)[n-]c2[O-])cc(C)n1-c1ccc(C(=O)N2CCN(C(=O)CO)CC2)cc1

>  <Energy>  (11) 
138.00390899977756

>  <Genealogy>  (11) 
C=c1c(=Cc2[n-]c(=O)[n-]c2[O-])cc(C)n1-c1ccc(C(=O)N2CCN(C(=O)CO)CC2)cc1 (protonated)
C=c1/c(=C\c2[n-]c(=O)[n-]c2[O-])cc(C)n1-c1ccc(C(=O)N2CCN(C(=O)CO)CC2)cc1 (cis-trans isomerization)
C=c1/c(=C\c2[n-]c(=O)[n-]c2[O-])cc(C)n1-c1ccc(C(=O)N2CCN(C(=O)CO)CC2)cc1 (3D coordinates assigned)
C=c1/c(=C\c2[n-]c(=O)[n-]c2[O-])cc(C)n1-c1ccc(C(=O)N2CCN(C(=O)CO)CC2)cc1 (nonaromatic ring conformer: 138.00390899977756 kcal/mol)

>  <smiles>  (11) 
C=c1c(=Cc2[nH]c(=O)[nH]c2O)cc(C)n1-c1ccc(C(=O)N2CCN(C(=O)CO)CC2)cc1

>  <score_type>  (11) 
oracle

>  <origin>  (11) 
adg

>  <m_score__min__energy>  (11) 
-15.77

>  <m_primary>  (11) 
energy

$$$$
11:0
     RDKit          3D

 52 55  0  0  0  0  0  0  0  0999 V2000
   59.0950   26.8260   47.4990 C   0  0  0  0  0  0  0  0  0  0  0  0
   58.5680   27.2220   46.3290 C   0  0  0  0  0  0  0  0  0  0  0  0
   57.7850   26.4630   45.4410 C   0  0  0  0  0  0  0  0  0  0  0  0
   57.4420   25.1600   45.4490 C   0  0  0  0  0  0  0  0  0  0  0  0
   56.0710   24.6290   45.3250 C   0  0  0  0  0  0  0  0  0  0  0  0
   54.9660   25.4480   45.5950 C   0  0  0  0  0  0  0  0  0  0  0  0
   55.1460   26.7550   46.0320 O   0  0  0  0  0  0  0  0  0  0  0  0
   53.7080   24.9630   45.4380 N   0  0  0  0  0  0  0  0  0  0  0  0
   53.4950   23.6930   45.0050 C   0  0  0  0  0  0  0  0  0  0  0  0
   52.3200   23.2650   44.8720 O   0  0  0  0  0  0  0  0  0  0  0  0
   54.5480   22.8880   44.7130 N   0  0  0  0  0  0  0  0  0  0  0  0
   55.8260   23.3270   44.8530 C   0  0  0  0  0  0  0  0  0  0  0  0
   56.7800   22.5600   44.5520 O   0  0  0  0  0  0  0  0  0  0  0  0
   57.3880   27.3310   44.4360 C   0  0  0  0  0  0  0  0  0  0  0  0
   57.9560   28.5560   44.7150 C   0  0  0  0  0  0  0  0  0  0  0  0
   57.8090   29.7800   43.8630 C   0  0  0  0  0  0  0  0  0  0  0  0
   58.6790   28.4890   45.8540 N   0  0  0  0  0  0  0  0  0  0  0  0
   59.3750   29.5920   46.4600 C   0  0  0  0  0  0  0  0  0  0  0  0
   60.7740   29.6190   46.4740 C   0  0  0  0  0  0  0  0  0  0  0  0
   61.4540   30.6960   47.0500 C   0  0  0  0  0  0  0  0  0  0  0  0
   60.7410   31.7720   47.6110 C   0  0  0  0  0  0  0  0  0  0  0  0
   61.4730   32.9050   48.2260 C   0  0  0  0  0  0  0  0  0  0  0  0
   61.2410   34.0800   47.8290 O   0  0  0  0  0  0  0  0  0  0  0  0
   62.4330   32.6870   49.2730 N   0  0  0  0  0  0  0  0  0  0  0  0
   63.3240   33.7580   49.7420 C   0  0  0  0  0  0  0  0  0  0  0  0
   64.7640   33.4670   49.3340 C   0  0  0  0  0  0  0  0  0  0  0  0
   65.3560   32.6260   50.4600 C   0  0  0  0  0  0  0  0  0  0  0  0
   64.4590   32.8280   51.6810 C   0  0  0  0  0  0  0  0  0  0  0  0
   63.3680   33.8080   51.2650 C   0  0  0  0  0  0  0  0  0  0  0  0
   59.3350   31.7360   47.6000 C   0  0  0  0  0  0  0  0  0  0  0  0
   58.6590   30.6570   47.0250 C   0  0  0  0  0  0  0  0  0  0  0  0
   59.6925   27.5283   48.0989 H   0  0  0  0  0  0  0  0  0  0  0  0
   58.9292   25.7994   47.8575 H   0  0  0  0  0  0  0  0  0  0  0  0
   58.2557   24.4277   45.5575 H   0  0  0  0  0  0  0  0  0  0  0  0
   56.7426   27.0887   43.5789 H   0  0  0  0  0  0  0  0  0  0  0  0
   57.7027   30.6649   44.5077 H   0  0  0  0  0  0  0  0  0  0  0  0
   58.6999   29.8939   43.2279 H   0  0  0  0  0  0  0  0  0  0  0  0
   56.9164   29.6797   43.2279 H   0  0  0  0  0  0  0  0  0  0  0  0
   61.3417   28.7883   46.0294 H   0  0  0  0  0  0  0  0  0  0  0  0
   62.5539   30.7026   47.0649 H   0  0  0  0  0  0  0  0  0  0  0  0
   62.4530   31.7590   49.7530 H   0  0  0  0  0  0  0  0  0  0  0  0
   62.9373   34.6917   49.3077 H   0  0  0  0  0  0  0  0  0  0  0  0
   64.7878   32.9088   48.3865 H   0  0  0  0  0  0  0  0  0  0  0  0
   65.3351   34.3943   49.1796 H   0  0  0  0  0  0  0  0  0  0  0  0
   65.3705   31.5644   50.1723 H   0  0  0  0  0  0  0  0  0  0  0  0
   66.3911   32.9289   50.6764 H   0  0  0  0  0  0  0  0  0  0  0  0
   64.0122   31.8702   51.9859 H   0  0  0  0  0  0  0  0  0  0  0  0
   65.0341   33.2150   52.5351 H   0  0  0  0  0  0  0  0  0  0  0  0
   62.3986   33.5036   51.6865 H   0  0  0  0  0  0  0  0  0  0  0  0
   63.5755   34.8243   51.6310 H   0  0  0  0  0  0  0  0  0  0  0  0
   58.7638   32.5629   48.0471 H   0  0  0  0  0  0  0  0  0  0  0  0
   57.5591   30.6429   47.0155 H   0  0  0  0  0  0  0  0  0  0  0  0
  1  2  2  0
  2  3  1  0
  3  4  2  3
  4  5  1  0
  5  6  2  0
  6  7  1  0
  6  8  1  0
  8  9  1  0
  9 10  2  0
  9 11  1  0
 11 12  1  0
 12 13  2  0
  3 14  1  0
 14 15  2  0
 15 16  1  0
 15 17  1  0
 17 18  1  0
 18 19  2  0
 19 20  1  0
 20 21  2  0
 21 22  1  0
 22 23  2  0
 22 24  1  0
 24 25  1  0
 25 26  1  0
 26 27  1  0
 27 28  1  0
 28 29  1  0
 21 30  1  0
 30 31  2  0
 17  2  1  0
 31 18  1  0
 12  5  1  0
 29 25  1  0
  1 32  1  0
  1 33  1  0
  4 34  1  0
 14 35  1  0
 16 36  1  0
 16 37  1  0
 16 38  1  0
 19 39  1  0
 20 40  1  0
 24 41  1  0
 25 42  1  0
 26 43  1  0
 26 44  1  0
 27 45  1  0
 27 46  1  0
 28 47  1  0
 28 48  1  0
 29 49  1  0
 29 50  1  0
 30 51  1  0
 31 52  1  0
M  CHG  3   7  -1   8  -1  11  -1
M  END
>  <UniqueID>  (12) 
10

>  <SMILES>  (12) 
C=c1c(=Cc2c([O-])[n-]c(=O)[n-]c2=O)cc(C)n1-c1ccc(C(=O)NC2CCCC2)cc1

>  <Energy>  (12) 
105.7915898430737

>  <Genealogy>  (12) 
C=c1c(=Cc2c([O-])[n-]c(=O)[n-]c2=O)cc(C)n1-c1ccc(C(=O)NC2CCCC2)cc1 (protonated)
C=c1c(=Cc2c([O-])[n-]c(=O)[n-]c2=O)cc(C)n1-c1ccc(C(=O)NC2CCCC2)cc1 (3D coordinates assigned)
C=c1c(=Cc2c([O-])[n-]c(=O)[n-]c2=O)cc(C)n1-c1ccc(C(=O)NC2CCCC2)cc1 (nonaromatic ring conformer: 105.7915898430737 kcal/mol)

>  <smiles>  (12) 
C=c1c(=Cc2c(O)[nH]c(=O)[nH]c2=O)cc(C)n1-c1ccc(C(=O)NC2CCCC2)cc1

>  <score_type>  (12) 
oracle

>  <origin>  (12) 
adg

>  <m_score__min__energy>  (12) 
-15.949999999999999

>  <m_primary>  (12) 
energy

$$$$
12:0
     RDKit          3D

 63 66  0  0  0  0  0  0  0  0999 V2000
   55.6220   29.0310   44.9190 O   0  0  0  0  0  0  0  0  0  0  0  0
   56.5510   29.8630   44.7140 C   0  0  0  0  0  0  0  0  0  0  0  0
   56.2840   31.1140   43.9270 C   0  0  0  0  0  0  0  0  0  0  0  0
   57.4310   32.0200   43.9570 N   0  0  0  0  0  0  0  0  0  0  0  0
   57.5850   33.1600   44.8130 C   0  0  0  0  0  0  0  0  0  0  0  0
   57.0240   34.2390   44.4850 O   0  0  0  0  0  0  0  0  0  0  0  0
   58.3430   33.1060   46.0790 C   0  0  0  0  0  0  0  0  0  0  0  0
   57.8040   32.4870   47.2150 C   0  0  0  0  0  0  0  0  0  0  0  0
   58.5390   32.4250   48.4020 C   0  0  0  0  0  0  0  0  0  0  0  0
   59.8310   32.9620   48.4600 C   0  0  0  0  0  0  0  0  0  0  0  0
   60.7680   32.8930   49.9490 S   0  0  0  0  0  0  0  0  0  0  0  0
   60.5920   34.1670   50.7320 O   0  0  0  0  0  0  0  0  0  0  0  0
   60.2760   31.7410   50.7830 O   0  0  0  0  0  0  0  0  0  0  0  0
   62.4530   32.6530   49.5560 N   0  0  0  0  0  0  0  0  0  0  0  0
   62.6280   31.5980   48.5460 C   0  0  0  0  0  0  0  0  0  0  0  0
   63.6200   32.1090   47.5030 C   0  0  0  0  0  0  0  0  0  0  0  0
   64.1280   33.4260   48.0480 C   0  0  0  0  0  0  0  0  0  0  0  0
   63.0440   33.8730   49.0030 C   0  0  0  0  0  0  0  0  0  0  0  0
   60.3800   33.5670   47.3230 C   0  0  0  0  0  0  0  0  0  0  0  0
   59.6440   33.6340   46.1360 C   0  0  0  0  0  0  0  0  0  0  0  0
   57.8450   29.6620   45.3000 N   0  0  0  0  0  0  0  0  0  0  0  0
   58.1870   28.4900   46.0560 C   0  0  0  0  0  0  0  0  0  0  0  0
   57.5690   27.2710   45.7450 C   0  0  0  0  0  0  0  0  0  0  0  0
   57.8860   26.1080   46.4620 C   0  0  0  0  0  0  0  0  0  0  0  0
   57.1410   24.5700   46.0300 S   0  0  0  0  0  0  0  0  0  0  0  0
   57.4200   23.5650   47.1130 O   0  0  0  0  0  0  0  0  0  0  0  0
   55.6510   24.7590   45.9520 O   0  0  0  0  0  0  0  0  0  0  0  0
   57.7180   23.9470   44.4950 N   0  0  0  0  0  0  0  0  0  0  0  0
   56.8210   24.2810   43.3720 C   0  0  0  0  0  0  0  0  0  0  0  0
   55.6220   23.3130   43.2460 C   0  0  0  0  0  0  0  0  0  0  0  0
   55.7190   22.1880   44.1010 O   0  0  0  0  0  0  0  0  0  0  0  0
   56.9900   21.5990   43.9640 C   0  0  0  0  0  0  0  0  0  0  0  0
   58.0750   22.5140   44.5580 C   0  0  0  0  0  0  0  0  0  0  0  0
   58.7990   26.1760   47.5200 C   0  0  0  0  0  0  0  0  0  0  0  0
   59.4000   27.3930   47.8530 C   0  0  0  0  0  0  0  0  0  0  0  0
   59.0920   28.5510   47.1320 C   0  0  0  0  0  0  0  0  0  0  0  0
   59.6660   29.7600   47.5120 O   0  0  0  0  0  0  0  0  0  0  0  0
   56.0712   30.8410   42.8829 H   0  0  0  0  0  0  0  0  0  0  0  0
   55.4243   31.6299   44.3795 H   0  0  0  0  0  0  0  0  0  0  0  0
   56.7966   32.0474   47.1721 H   0  0  0  0  0  0  0  0  0  0  0  0
   58.1012   31.9528   49.2938 H   0  0  0  0  0  0  0  0  0  0  0  0
   63.0208   30.6869   49.0210 H   0  0  0  0  0  0  0  0  0  0  0  0
   61.6648   31.3555   48.0733 H   0  0  0  0  0  0  0  0  0  0  0  0
   64.4496   31.3974   47.3790 H   0  0  0  0  0  0  0  0  0  0  0  0
   63.1520   32.2270   46.5146 H   0  0  0  0  0  0  0  0  0  0  0  0
   65.0821   33.2874   48.5776 H   0  0  0  0  0  0  0  0  0  0  0  0
   64.3229   34.1637   47.2556 H   0  0  0  0  0  0  0  0  0  0  0  0
   63.4752   34.4859   49.8082 H   0  0  0  0  0  0  0  0  0  0  0  0
   62.2881   34.4859   48.4903 H   0  0  0  0  0  0  0  0  0  0  0  0
   61.3941   33.9912   47.3636 H   0  0  0  0  0  0  0  0  0  0  0  0
   60.0851   34.1018   45.2435 H   0  0  0  0  0  0  0  0  0  0  0  0
   58.5040   30.4730   45.3260 H   0  0  0  0  0  0  0  0  0  0  0  0
   56.8294   27.2261   44.9320 H   0  0  0  0  0  0  0  0  0  0  0  0
   56.4344   25.2996   43.5236 H   0  0  0  0  0  0  0  0  0  0  0  0
   57.4090   24.1977   42.4461 H   0  0  0  0  0  0  0  0  0  0  0  0
   54.7020   23.8623   43.4945 H   0  0  0  0  0  0  0  0  0  0  0  0
   55.6134   22.9372   42.2122 H   0  0  0  0  0  0  0  0  0  0  0  0
   57.0008   20.6344   44.4926 H   0  0  0  0  0  0  0  0  0  0  0  0
   57.1986   21.4478   42.8946 H   0  0  0  0  0  0  0  0  0  0  0  0
   58.2295   22.2369   45.6113 H   0  0  0  0  0  0  0  0  0  0  0  0
   58.9874   22.3749   43.9595 H   0  0  0  0  0  0  0  0  0  0  0  0
   59.0445   25.2687   48.0915 H   0  0  0  0  0  0  0  0  0  0  0  0
   60.1178   27.4402   48.6852 H   0  0  0  0  0  0  0  0  0  0  0  0
  1  2  2  0
  2  3  1  0
  3  4  1  0
  4  5  1  0
  5  6  2  0
  5  7  1  0
  7  8  2  0
  8  9  1  0
  9 10  2  0
 10 11  1  0
 11 12  2  0
 11 13  2  0
 11 14  1  0
 14 15  1  0
 15 16  1  0
 16 17  1  0
 17 18  1  0
 10 19  1  0
 19 20  2  0
  2 21  1  0
 21 22  1  0
 22 23  2  0
 23 24  1  0
 24 25  1  0
 25 26  2  0
 25 27  2  0
 25 28  1  0
 28 29  1  0
 29 30  1  0
 30 31  1  0
 31 32  1  0
 32 33  1  0
 24 34  2  0
 34 35  1  0
 35 36  2  0
 36 37  1  0
 20  7  1  0
 36 22  1  0
 18 14  1  0
 33 28  1  0
  3 38  1  0
  3 39  1  0
  8 40  1  0
  9 41  1  0
 15 42  1  0
 15 43  1  0
 16 44  1  0
 16 45  1  0
 17 46  1  0
 17 47  1  0
 18 48  1  0
 18 49  1  0
 19 50  1  0
 20 51  1  0
 21 52  1  0
 23 53  1  0
 29 54  1  0
 29 55  1  0
 30 56  1  0
 30 57  1  0
 32 58  1  0
 32 59  1  0
 33 60  1  0
 33 61  1  0
 34 62  1  0
 35 63  1  0
M  CHG  2   4  -1  37  -1
M  END
>  <UniqueID>  (13) 
11

>  <SMILES>  (13) 
O=C(C[N-]C(=O)c1ccc(S(=O)(=O)N2CCCC2)cc1)Nc1cc(S(=O)(=O)N2CCOCC2)ccc1[O-]

>  <Energy>  (13) 
85.39579754136709

>  <Genealogy>  (13) 
O=C(C[N-]C(=O)c1ccc(S(=O)(=O)N2CCCC2)cc1)Nc1cc(S(=O)(=O)N2CCOCC2)ccc1[O-] (protonated)
O=C(C[N-]C(=O)c1ccc(S(=O)(=O)N2CCCC2)cc1)Nc1cc(S(=O)(=O)N2CCOCC2)ccc1[O-] (3D coordinates assigned)
O=C(C[N-]C(=O)c1ccc(S(=O)(=O)N2CCCC2)cc1)Nc1cc(S(=O)(=O)N2CCOCC2)ccc1[O-] (nonaromatic ring conformer: 85.39579754136709 kcal/mol)

>  <smiles>  (13) 
O=C(CNC(=O)c1ccc(S(=O)(=O)N2CCCC2)cc1)Nc1cc(S(=O)(=O)N2CCOCC2)ccc1O

>  <score_type>  (13) 
oracle

>  <origin>  (13) 
adg

>  <m_score__min__energy>  (13) 
-13.85

>  <m_primary>  (13) 
energy

$$$$
13:0
     RDKit          3D

 27 28  0  0  0  0  0  0  0  0999 V2000
   55.2870   26.3170   45.9910 N   0  0  0  0  0  0  0  0  0  0  0  0
   56.9280   26.8310   45.8290 S   0  0  0  0  0  0  0  0  0  0  0  0
   57.6330   26.6530   47.1440 O   0  0  0  0  0  0  0  0  0  0  0  0
   57.6170   26.0040   44.7810 O   0  0  0  0  0  0  0  0  0  0  0  0
   56.9740   28.5190   45.3650 C   0  0  0  0  0  0  0  0  0  0  0  0
   55.8770   29.2330   45.0280 N   0  0  0  0  0  0  0  0  0  0  0  0
   56.1540   30.4970   44.7130 N   0  0  0  0  0  0  0  0  0  0  0  0
   57.4730   30.7820   44.8030 C   0  0  0  0  0  0  0  0  0  0  0  0
   57.9810   31.9460   44.5490 N   0  0  0  0  0  0  0  0  0  0  0  0
   58.0830   33.2170   45.7240 S   0  0  0  0  0  0  0  0  0  0  0  0
   57.9560   34.5460   45.0340 O   0  0  0  0  0  0  0  0  0  0  0  0
   56.9430   33.0860   46.6950 O   0  0  0  0  0  0  0  0  0  0  0  0
   59.6340   33.1400   46.5740 C   0  0  0  0  0  0  0  0  0  0  0  0
   60.7270   33.8420   46.0390 C   0  0  0  0  0  0  0  0  0  0  0  0
   61.9860   33.7630   46.6350 C   0  0  0  0  0  0  0  0  0  0  0  0
   62.1730   32.9760   47.7700 C   0  0  0  0  0  0  0  0  0  0  0  0
   61.0980   32.2760   48.3190 C   0  0  0  0  0  0  0  0  0  0  0  0
   59.8170   32.3580   47.7430 C   0  0  0  0  0  0  0  0  0  0  0  0
   58.7290   31.6500   48.3580 N   0  0  0  0  0  0  0  0  0  0  0  0
   58.5620   30.4350   48.1210 O   0  0  0  0  0  0  0  0  0  0  0  0
   58.0090   32.2310   49.3760 O   0  0  0  0  0  0  0  0  0  0  0  0
   58.3760   29.4490   45.2870 S   0  0  0  0  0  0  0  0  0  0  0  0
   54.7800   27.0710   46.5080 H   0  0  0  0  0  0  0  0  0  0  0  0
   60.5886   34.4608   45.1402 H   0  0  0  0  0  0  0  0  0  0  0  0
   62.8318   34.3224   46.2087 H   0  0  0  0  0  0  0  0  0  0  0  0
   63.1683   32.9067   48.2331 H   0  0  0  0  0  0  0  0  0  0  0  0
   61.2538   31.6531   49.2121 H   0  0  0  0  0  0  0  0  0  0  0  0
  1  2  1  0
  2  3  2  0
  2  4  2  0
  2  5  1  0
  5  6  2  0
  6  7  1  0
  7  8  1  0
  8  9  2  3
  9 10  1  0
 10 11  2  0
 10 12  2  0
 10 13  1  0
 13 14  2  0
 14 15  1  0
 15 16  2  0
 16 17  1  0
 17 18  2  0
 18 19  1  0
 19 20  2  0
 19 21  1  0
  8 22  1  0
 22  5  1  0
 18 13  1  0
  1 23  1  0
 14 24  1  0
 15 25  1  0
 16 26  1  0
 17 27  1  0
M  CHG  4   1  -1   7  -1  19   1  21  -1
M  END
>  <UniqueID>  (14) 
12

>  <SMILES>  (14) 
[NH-]S(=O)(=O)c1n[n-]c(=NS(=O)(=O)c2ccccc2[N+](=O)[O-])s1

>  <Energy>  (14) 
70.76708924552294

>  <Genealogy>  (14) 
[NH-]S(=O)(=O)c1n[n-]c(=NS(=O)(=O)c2ccccc2[N+](=O)[O-])s1 (protonated)
[NH-]S(=O)(=O)c1n[n-]c(=NS(=O)(=O)c2ccccc2[N+](=O)[O-])s1 (3D coordinates assigned)
[NH-]S(=O)(=O)c1n[n-]c(=NS(=O)(=O)c2ccccc2[N+](=O)[O-])s1 (optimized conformer: 70.76708924552294 kcal/mol)

>  <smiles>  (14) 
NS(=O)(=O)c1n[nH]c(=NS(=O)(=O)c2ccccc2[N+](=O)[O-])s1

>  <score_type>  (14) 
oracle

>  <origin>  (14) 
adg

>  <m_score__min__energy>  (14) 
-12.25

>  <m_primary>  (14) 
energy

$$$$
14:0
     RDKit          3D

 42 44  0  0  0  0  0  0  0  0999 V2000
   61.0540   28.7830   53.0090 C   0  0  0  0  0  0  0  0  0  0  0  0
   60.7540   28.3690   51.5950 C   0  0  0  0  0  0  0  0  0  0  0  0
   61.1970   27.1200   51.1290 C   0  0  0  0  0  0  0  0  0  0  0  0
   60.9230   26.7130   49.8210 C   0  0  0  0  0  0  0  0  0  0  0  0
   60.1890   27.5410   48.9600 C   0  0  0  0  0  0  0  0  0  0  0  0
   59.9190   27.1530   47.6040 N   0  0  0  0  0  0  0  0  0  0  0  0
   58.8770   27.7210   46.7980 C   0  0  0  0  0  0  0  0  0  0  0  0
   57.6440   27.1760   46.7170 N   0  0  0  0  0  0  0  0  0  0  0  0
   56.8560   27.8430   45.8340 C   0  0  0  0  0  0  0  0  0  0  0  0
   55.5420   27.4560   45.6020 O   0  0  0  0  0  0  0  0  0  0  0  0
   57.4620   28.9210   45.1870 C   0  0  0  0  0  0  0  0  0  0  0  0
   56.8600   29.8060   44.1790 C   0  0  0  0  0  0  0  0  0  0  0  0
   56.5850   29.3520   43.0370 O   0  0  0  0  0  0  0  0  0  0  0  0
   56.5840   31.1750   44.4960 N   0  0  0  0  0  0  0  0  0  0  0  0
   57.3590   32.2960   43.9770 C   0  0  0  0  0  0  0  0  0  0  0  0
   58.0790   32.9980   45.0960 C   0  0  0  0  0  0  0  0  0  0  0  0
   58.5800   34.2930   44.9010 C   0  0  0  0  0  0  0  0  0  0  0  0
   59.2510   34.9520   45.9330 C   0  0  0  0  0  0  0  0  0  0  0  0
   59.4200   34.3270   47.1710 C   0  0  0  0  0  0  0  0  0  0  0  0
   58.9160   33.0320   47.3920 C   0  0  0  0  0  0  0  0  0  0  0  0
   59.0810   32.3870   48.6680 N   0  0  0  0  0  0  0  0  0  0  0  0
   60.1620   31.8390   48.9690 O   0  0  0  0  0  0  0  0  0  0  0  0
   58.0490   32.3620   49.5790 O   0  0  0  0  0  0  0  0  0  0  0  0
   58.2430   32.3750   46.3440 C   0  0  0  0  0  0  0  0  0  0  0  0
   59.0480   29.0310   45.7460 S   0  0  0  0  0  0  0  0  0  0  0  0
   59.7710   28.8000   49.4120 C   0  0  0  0  0  0  0  0  0  0  0  0
   60.0390   29.2180   50.7210 C   0  0  0  0  0  0  0  0  0  0  0  0
   59.5830   30.4750   51.1200 O   0  0  0  0  0  0  0  0  0  0  0  0
   60.5549   28.0942   53.7065 H   0  0  0  0  0  0  0  0  0  0  0  0
   62.1406   28.7518   53.1775 H   0  0  0  0  0  0  0  0  0  0  0  0
   60.6860   29.8058   53.1775 H   0  0  0  0  0  0  0  0  0  0  0  0
   61.7641   26.4573   51.7993 H   0  0  0  0  0  0  0  0  0  0  0  0
   61.2852   25.7374   49.4646 H   0  0  0  0  0  0  0  0  0  0  0  0
   60.5770   26.4880   47.1400 H   0  0  0  0  0  0  0  0  0  0  0  0
   58.0954   31.9221   43.2504 H   0  0  0  0  0  0  0  0  0  0  0  0
   56.6757   33.0075   43.4903 H   0  0  0  0  0  0  0  0  0  0  0  0
   58.4438   34.7922   43.9303 H   0  0  0  0  0  0  0  0  0  0  0  0
   59.6473   35.9652   45.7710 H   0  0  0  0  0  0  0  0  0  0  0  0
   59.9511   34.8513   47.9791 H   0  0  0  0  0  0  0  0  0  0  0  0
   57.8416   31.3635   46.5044 H   0  0  0  0  0  0  0  0  0  0  0  0
   59.2254   29.4683   48.7296 H   0  0  0  0  0  0  0  0  0  0  0  0
   59.5260   31.2670   50.4910 H   0  0  0  0  0  0  0  0  0  0  0  0
  1  2  1  0
  2  3  2  0
  3  4  1  0
  4  5  2  0
  5  6  1  0
  6  7  1  0
  7  8  2  0
  8  9  1  0
  9 10  1  0
  9 11  2  0
 11 12  1  0
 12 13  2  0
 12 14  1  0
 14 15  1  0
 15 16  1  0
 16 17  2  0
 17 18  1  0
 18 19  2  0
 19 20  1  0
 20 21  1  0
 21 22  2  0
 21 23  1  0
 20 24  2  0
 11 25  1  0
  5 26  1  0
 26 27  2  0
 27 28  1  0
 27  2  1  0
 25  7  1  0
 24 16  1  0
  1 29  1  0
  1 30  1  0
  1 31  1  0
  3 32  1  0
  4 33  1  0
  6 34  1  0
 15 35  1  0
 15 36  1  0
 17 37  1  0
 18 38  1  0
 19 39  1  0
 24 40  1  0
 26 41  1  0
 28 42  1  0
M  CHG  4  10  -1  14  -1  21   1  23  -1
M  END
>  <UniqueID>  (15) 
13

>  <SMILES>  (15) 
Cc1ccc(Nc2nc([O-])c(C(=O)[N-]Cc3cccc([N+](=O)[O-])c3)s2)cc1O

>  <Energy>  (15) 
78.19054239725608

>  <Genealogy>  (15) 
Cc1ccc(Nc2nc([O-])c(C(=O)[N-]Cc3cccc([N+](=O)[O-])c3)s2)cc1O (protonated)
Cc1ccc(Nc2nc([O-])c(C(=O)[N-]Cc3cccc([N+](=O)[O-])c3)s2)cc1O (3D coordinates assigned)
Cc1ccc(Nc2nc([O-])c(C(=O)[N-]Cc3cccc([N+](=O)[O-])c3)s2)cc1O (optimized conformer: 78.19054239725608 kcal/mol)

>  <smiles>  (15) 
Cc1ccc(Nc2nc(O)c(C(=O)NCc3cccc([N+](=O)[O-])c3)s2)cc1O

>  <score_type>  (15) 
oracle

>  <origin>  (15) 
adg

>  <m_score__min__energy>  (15) 
-13.4

>  <m_primary>  (15) 
energy

$$$$
15:0
     RDKit          3D

 19 19  0  0  1  0  0  0  0  0999 V2000
   56.9890   30.1050   43.4230 C   0  0  0  0  0  0  0  0  0  0  0  0
   56.2730   29.4340   44.5580 C   0  0  0  0  0  0  0  0  0  0  0  0
   55.0100   29.3700   44.4580 O   0  0  0  0  0  0  0  0  0  0  0  0
   57.0250   28.9400   45.6220 N   0  0  0  0  0  0  0  0  0  0  0  0
   57.8240   27.9710   45.6320 C   0  0  0  0  0  0  0  0  0  0  0  0
   57.5830   26.5880   45.9750 C   0  0  0  0  0  0  0  0  0  0  0  0
   56.3080   26.0180   46.1400 C   0  0  0  0  0  0  0  0  0  0  0  0
   55.1230   26.7050   45.9960 O   0  0  0  0  0  0  0  0  0  0  0  0
   56.4690   24.7010   46.4590 N   0  0  0  0  0  0  0  0  0  0  0  0
   57.7620   24.4130   46.5030 N   0  0  0  0  0  0  0  0  0  0  0  0
   58.4630   25.5480   46.2110 C   0  0  0  0  0  0  0  0  0  0  0  0
   59.7010   25.6260   46.1660 O   0  0  0  0  0  0  0  0  0  0  0  0
   57.7364   30.8054   43.8239 H   0  0  0  0  0  0  0  0  0  0  0  0
   57.4919   29.3454   42.8065 H   0  0  0  0  0  0  0  0  0  0  0  0
   56.2636   30.6561   42.8065 H   0  0  0  0  0  0  0  0  0  0  0  0
   58.8565   28.2095   45.3370 H   0  0  0  0  0  0  0  0  0  0  0  0
   55.1440   27.5900   45.5300 H   0  0  0  0  0  0  0  0  0  0  0  0
   55.6960   23.9930   46.6490 H   0  0  0  0  0  0  0  0  0  0  0  0
   58.1270   23.4640   46.7290 H   0  0  0  0  0  0  0  0  0  0  0  0
  1  2  1  0
  2  3  2  0
  2  4  1  0
  4  5  2  0
  5  6  1  0
  6  7  2  0
  7  8  1  0
  7  9  1  0
  9 10  1  0
 10 11  1  0
 11 12  2  0
 11  6  1  0
  1 13  1  0
  1 14  1  0
  1 15  1  0
  5 16  1  0
  8 17  1  0
  9 18  1  0
 10 19  1  0
M  END
>  <smiles>  (16) 
CC(=O)N=Cc1c(O)[nH][nH]c1=O

>  <score_type>  (16) 
oracle

>  <origin>  (16) 
adg

>  <m_score__min__energy>  (16) 
-5.5099999999999998

>  <m_primary>  (16) 
energy

$$$$
16:0
     RDKit          3D

 43 45  0  0  1  0  0  0  0  0999 V2000
   60.8180   34.5440   46.4040 N   0  0  0  0  0  0  0  0  0  0  0  0
   61.3980   33.9570   47.1910 C   0  0  0  0  0  0  0  0  0  0  0  0
   62.1360   33.2440   48.1810 C   0  0  0  0  0  0  0  0  0  0  0  0
   61.5510   33.0110   49.4010 C   0  0  0  0  0  0  0  0  0  0  0  0
   60.2470   33.4320   49.8500 C   0  0  2  0  0  0  0  0  0  0  0  0
   60.1050   33.2260   51.3720 C   0  0  0  0  0  0  0  0  0  0  0  0
   58.5780   33.2160   51.5650 C   0  0  0  0  0  0  0  0  0  0  0  0
   58.2010   32.3210   50.4230 C   0  0  0  0  0  0  0  0  0  0  0  0
   59.0630   32.7690   49.3650 N   0  0  0  0  0  0  0  0  0  0  0  0
   58.7070   32.6040   47.9920 C   0  0  0  0  0  0  0  0  0  0  0  0
   58.0450   33.4980   47.2170 C   0  0  0  0  0  0  0  0  0  0  0  0
   57.7620   33.2280   45.8840 C   0  0  0  0  0  0  0  0  0  0  0  0
   58.1360   32.0410   45.2740 C   0  0  0  0  0  0  0  0  0  0  0  0
   57.8140   31.8060   43.8720 C   0  0  0  0  0  0  0  0  0  0  0  0
   57.3140   30.6830   43.4060 C   0  0  0  0  0  0  0  0  0  0  0  0
   56.2030   29.9970   44.0490 C   0  0  0  0  0  0  0  0  0  0  0  0
   54.9800   29.7140   43.3620 N   0  0  0  0  0  0  0  0  0  0  0  0
   56.3430   29.6480   45.2570 O   0  0  0  0  0  0  0  0  0  0  0  0
   58.8080   31.1340   46.0630 C   0  0  0  0  0  0  0  0  0  0  0  0
   59.0920   31.4020   47.3960 C   0  0  0  0  0  0  0  0  0  0  0  0
   60.0330   30.0600   48.4000 Br  0  0  0  0  0  0  0  0  0  0  0  0
   62.3330   32.3020   50.2810 N   0  0  0  0  0  0  0  0  0  0  0  0
   63.5640   31.8780   49.9680 C   0  0  0  0  0  0  0  0  0  0  0  0
   64.1240   32.1200   48.7510 N   0  0  0  0  0  0  0  0  0  0  0  0
   63.4030   32.8180   47.8340 C   0  0  0  0  0  0  0  0  0  0  0  0
   63.9080   33.0630   46.6740 N   0  0  0  0  0  0  0  0  0  0  0  0
   60.2579   34.4593   49.4570 H   0  0  0  0  0  0  0  0  0  0  0  0
   60.5519   32.2717   51.6875 H   0  0  0  0  0  0  0  0  0  0  0  0
   60.6177   33.9949   51.9686 H   0  0  0  0  0  0  0  0  0  0  0  0
   58.2882   32.7889   52.5364 H   0  0  0  0  0  0  0  0  0  0  0  0
   58.0960   34.2048   51.5691 H   0  0  0  0  0  0  0  0  0  0  0  0
   58.3911   31.2656   50.6681 H   0  0  0  0  0  0  0  0  0  0  0  0
   57.1331   32.3736   50.1645 H   0  0  0  0  0  0  0  0  0  0  0  0
   57.7256   34.4563   47.6524 H   0  0  0  0  0  0  0  0  0  0  0  0
   57.2225   33.9822   45.2923 H   0  0  0  0  0  0  0  0  0  0  0  0
   58.0015   32.6211   43.1576 H   0  0  0  0  0  0  0  0  0  0  0  0
   57.7515   30.2456   42.4964 H   0  0  0  0  0  0  0  0  0  0  0  0
   54.0760   30.0430   43.7970 H   0  0  0  0  0  0  0  0  0  0  0  0
   55.0100   29.1930   42.4540 H   0  0  0  0  0  0  0  0  0  0  0  0
   59.1271   30.1755   45.6276 H   0  0  0  0  0  0  0  0  0  0  0  0
   61.9910   32.0650   51.2410 H   0  0  0  0  0  0  0  0  0  0  0  0
   64.1408   31.3166   50.7177 H   0  0  0  0  0  0  0  0  0  0  0  0
   64.8190   32.6680   46.4130 H   0  0  0  0  0  0  0  0  0  0  0  0
  1  2  3  0
  2  3  1  0
  3  4  2  0
  4  5  1  0
  5  6  1  0
  6  7  1  0
  7  8  1  0
  8  9  1  0
  9 10  1  0
 10 11  2  0
 11 12  1  0
 12 13  2  0
 13 14  1  0
 14 15  2  0
 15 16  1  0
 16 17  1  0
 16 18  2  0
 13 19  1  0
 19 20  2  0
 20 21  1  0
  4 22  1  0
 22 23  1  0
 23 24  2  0
 24 25  1  0
 25 26  2  3
 25  3  1  0
  9  5  1  0
 20 10  1  0
  5 27  1  1
  6 28  1  0
  6 29  1  0
  7 30  1  0
  7 31  1  0
  8 32  1  0
  8 33  1  0
 11 34  1  0
 12 35  1  0
 14 36  1  0
 15 37  1  0
 17 38  1  0
 17 39  1  0
 19 40  1  0
 22 41  1  0
 23 42  1  0
 26 43  1  0
M  END
>  <smiles>  (17) 
N#Cc1c(C2CCCN2c2ccc(C=CC(N)=O)cc2Br)[nH]cnc1=N

>  <score_type>  (17) 
oracle

>  <origin>  (17) 
adg

>  <m_score__min__energy>  (17) 
-8.8300000000000001

>  <m_primary>  (17) 
energy

$$$$
17:0
     RDKit          3D

 45 47  0  0  0  0  0  0  0  0999 V2000
   58.6010   31.8510   49.5200 C   0  0  0  0  0  0  0  0  0  0  0  0
   58.8820   33.1170   48.9330 O   0  0  0  0  0  0  0  0  0  0  0  0
   58.6850   33.4290   47.5770 C   0  0  0  0  0  0  0  0  0  0  0  0
   57.3940   33.5480   47.0230 C   0  0  0  0  0  0  0  0  0  0  0  0
   57.2310   33.8380   45.6660 C   0  0  0  0  0  0  0  0  0  0  0  0
   58.3480   34.0060   44.8470 C   0  0  0  0  0  0  0  0  0  0  0  0
   59.6320   33.8930   45.3840 C   0  0  0  0  0  0  0  0  0  0  0  0
   59.8110   33.6210   46.7500 C   0  0  0  0  0  0  0  0  0  0  0  0
   61.2040   33.4680   47.2990 C   0  0  0  0  0  0  0  0  0  0  0  0
   61.7080   32.1430   46.9660 N   0  0  0  0  0  0  0  0  0  0  0  0
   61.2660   30.9520   47.6260 C   0  0  0  0  0  0  0  0  0  0  0  0
   61.8250   30.5850   48.6960 O   0  0  0  0  0  0  0  0  0  0  0  0
   60.1590   30.1510   47.0520 C   0  0  0  0  0  0  0  0  0  0  0  0
   59.6970   28.9960   47.7060 C   0  0  0  0  0  0  0  0  0  0  0  0
   58.6470   28.2460   47.1690 C   0  0  0  0  0  0  0  0  0  0  0  0
   58.0310   28.6470   45.9710 C   0  0  0  0  0  0  0  0  0  0  0  0
   56.9580   27.9000   45.3800 N   0  0  0  0  0  0  0  0  0  0  0  0
   56.3440   26.7210   45.9170 C   0  0  0  0  0  0  0  0  0  0  0  0
   55.1260   26.7190   46.2420 O   0  0  0  0  0  0  0  0  0  0  0  0
   57.1300   25.4520   45.9850 C   0  0  0  0  0  0  0  0  0  0  0  0
   56.5440   24.4390   45.0530 C   0  0  0  0  0  0  0  0  0  0  0  0
   57.3910   23.6330   43.8390 S   0  0  0  0  0  0  0  0  0  0  0  0
   56.0590   22.6950   43.4220 C   0  0  0  0  0  0  0  0  0  0  0  0
   56.0590   21.8320   42.5060 O   0  0  0  0  0  0  0  0  0  0  0  0
   54.9770   22.9580   44.1840 N   0  0  0  0  0  0  0  0  0  0  0  0
   55.2490   23.9260   45.0990 C   0  0  0  0  0  0  0  0  0  0  0  0
   54.2970   24.3620   46.0150 O   0  0  0  0  0  0  0  0  0  0  0  0
   58.5080   29.7790   45.3030 C   0  0  0  0  0  0  0  0  0  0  0  0
   59.5560   30.5310   45.8410 C   0  0  0  0  0  0  0  0  0  0  0  0
   58.6213   31.9424   50.6160 H   0  0  0  0  0  0  0  0  0  0  0  0
   57.6055   31.5108   49.1988 H   0  0  0  0  0  0  0  0  0  0  0  0
   59.3591   31.1215   49.1988 H   0  0  0  0  0  0  0  0  0  0  0  0
   56.5098   33.4117   47.6630 H   0  0  0  0  0  0  0  0  0  0  0  0
   56.2203   33.9340   45.2426 H   0  0  0  0  0  0  0  0  0  0  0  0
   58.2171   34.2276   43.7775 H   0  0  0  0  0  0  0  0  0  0  0  0
   60.5094   34.0179   44.7324 H   0  0  0  0  0  0  0  0  0  0  0  0
   61.8596   34.2327   46.8568 H   0  0  0  0  0  0  0  0  0  0  0  0
   61.1858   33.5922   48.3918 H   0  0  0  0  0  0  0  0  0  0  0  0
   60.1661   28.6794   48.6492 H   0  0  0  0  0  0  0  0  0  0  0  0
   58.3014   27.3386   47.6858 H   0  0  0  0  0  0  0  0  0  0  0  0
   58.1724   25.6528   45.6967 H   0  0  0  0  0  0  0  0  0  0  0  0
   57.0970   25.0604   47.0124 H   0  0  0  0  0  0  0  0  0  0  0  0
   54.3190   25.3090   46.3730 H   0  0  0  0  0  0  0  0  0  0  0  0
   58.0550   30.0799   44.3468 H   0  0  0  0  0  0  0  0  0  0  0  0
   59.9117   31.4276   45.3122 H   0  0  0  0  0  0  0  0  0  0  0  0
  1  2  1  0
  2  3  1  0
  3  4  2  0
  4  5  1  0
  5  6  2  0
  6  7  1  0
  7  8  2  0
  8  9  1  0
  9 10  1  0
 10 11  1  0
 11 12  2  0
 11 13  1  0
 13 14  2  0
 14 15  1  0
 15 16  2  0
 16 17  1  0
 17 18  1  0
 18 19  2  0
 18 20  1  0
 20 21  1  0
 21 22  1  0
 22 23  1  0
 23 24  2  0
 23 25  1  0
 25 26  1  0
 26 27  1  0
 16 28  1  0
 28 29  2  0
  8  3  1  0
 29 13  1  0
 26 21  2  0
  1 30  1  0
  1 31  1  0
  1 32  1  0
  4 33  1  0
  5 34  1  0
  6 35  1  0
  7 36  1  0
  9 37  1  0
  9 38  1  0
 14 39  1  0
 15 40  1  0
 20 41  1  0
 20 42  1  0
 27 43  1  0
 28 44  1  0
 29 45  1  0
M  CHG  3  10  -1  17  -1  25  -1
M  END
>  <UniqueID>  (18) 
14

>  <SMILES>  (18) 
COc1ccccc1C[N-]C(=O)c1ccc([N-]C(=O)Cc2sc(=O)[n-]c2O)cc1

>  <Energy>  (18) 
76.3949740748195

>  <Genealogy>  (18) 
COc1ccccc1C[N-]C(=O)c1ccc([N-]C(=O)Cc2sc(=O)[n-]c2O)cc1 (protonated)
COc1ccccc1C[N-]C(=O)c1ccc([N-]C(=O)Cc2sc(=O)[n-]c2O)cc1 (3D coordinates assigned)
COc1ccccc1C[N-]C(=O)c1ccc([N-]C(=O)Cc2sc(=O)[n-]c2O)cc1 (optimized conformer: 76.3949740748195 kcal/mol)

>  <smiles>  (18) 
COc1ccccc1CNC(=O)c1ccc(NC(=O)Cc2sc(=O)[nH]c2O)cc1

>  <score_type>  (18) 
oracle

>  <origin>  (18) 
adg

>  <m_score__min__energy>  (18) 
-13.16

>  <m_primary>  (18) 
energy

$$$$
18:0
     RDKit          3D

 76 79  0  0  0  0  0  0  0  0999 V2000
   61.9120   29.1850   50.9100 C   0  0  0  0  0  0  0  0  0  0  0  0
   61.6790   30.5540   51.2180 O   0  0  0  0  0  0  0  0  0  0  0  0
   62.2850   31.6360   50.5590 C   0  0  0  0  0  0  0  0  0  0  0  0
   63.0220   31.4510   49.3690 C   0  0  0  0  0  0  0  0  0  0  0  0
   63.5750   32.5450   48.7020 C   0  0  0  0  0  0  0  0  0  0  0  0
   63.3900   33.8340   49.1990 C   0  0  0  0  0  0  0  0  0  0  0  0
   62.6700   34.0340   50.3770 C   0  0  0  0  0  0  0  0  0  0  0  0
   62.1390   32.9410   51.0860 C   0  0  0  0  0  0  0  0  0  0  0  0
   61.3870   33.1850   52.3800 C   0  0  0  0  0  0  0  0  0  0  0  0
   59.8620   33.2690   52.1900 C   0  0  0  0  0  0  0  0  0  0  0  0
   59.1880   31.9210   52.2570 C   0  0  0  0  0  0  0  0  0  0  0  0
   59.6600   31.0590   53.0450 O   0  0  0  0  0  0  0  0  0  0  0  0
   58.0330   31.5990   51.4490 N   0  0  0  0  0  0  0  0  0  0  0  0
   57.8790   32.1580   50.0980 C   0  0  0  0  0  0  0  0  0  0  0  0
   58.8110   31.4660   49.1220 C   0  0  0  0  0  0  0  0  0  0  0  0
   58.8570   30.0580   49.1460 C   0  0  0  0  0  0  0  0  0  0  0  0
   59.6790   29.3510   48.2670 C   0  0  0  0  0  0  0  0  0  0  0  0
   60.4780   30.0350   47.3580 C   0  0  0  0  0  0  0  0  0  0  0  0
   60.4680   31.4290   47.3300 C   0  0  0  0  0  0  0  0  0  0  0  0
   59.6520   32.1630   48.2100 C   0  0  0  0  0  0  0  0  0  0  0  0
   59.7140   33.9320   48.1160 S   0  0  0  0  0  0  0  0  0  0  0  0
   59.5930   34.5340   49.4870 O   0  0  0  0  0  0  0  0  0  0  0  0
   61.0260   34.3630   47.5180 O   0  0  0  0  0  0  0  0  0  0  0  0
   58.4320   34.4840   47.0940 N   0  0  0  0  0  0  0  0  0  0  0  0
   57.8500   33.6550   46.0880 C   0  0  0  0  0  0  0  0  0  0  0  0
   56.6800   33.2070   46.2370 O   0  0  0  0  0  0  0  0  0  0  0  0
   58.6000   33.3580   44.9050 N   0  0  0  0  0  0  0  0  0  0  0  0
   58.0420   32.6440   43.7590 C   0  0  0  0  0  0  0  0  0  0  0  0
   57.6520   31.2500   44.1620 C   0  0  0  0  0  0  0  0  0  0  0  0
   58.6320   30.3460   44.6060 C   0  0  0  0  0  0  0  0  0  0  0  0
   58.2740   29.0480   44.9800 C   0  0  0  0  0  0  0  0  0  0  0  0
   56.9380   28.6430   44.9110 C   0  0  0  0  0  0  0  0  0  0  0  0
   55.9560   29.5410   44.4820 C   0  0  0  0  0  0  0  0  0  0  0  0
   56.3090   30.8450   44.1190 C   0  0  0  0  0  0  0  0  0  0  0  0
   56.9480   30.8390   51.9990 C   0  0  0  0  0  0  0  0  0  0  0  0
   57.1960   29.7250   52.8090 C   0  0  0  0  0  0  0  0  0  0  0  0
   56.1320   29.0350   53.3940 C   0  0  0  0  0  0  0  0  0  0  0  0
   54.8150   29.4380   53.1510 C   0  0  0  0  0  0  0  0  0  0  0  0
   54.5490   30.5120   52.2860 C   0  0  0  0  0  0  0  0  0  0  0  0
   53.1450   30.9100   52.0400 C   0  0  0  0  0  0  0  0  0  0  0  0
   52.7920   31.7660   51.0720 C   0  0  0  0  0  0  0  0  0  0  0  0
   51.4340   32.3270   50.9730 C   0  0  0  0  0  0  0  0  0  0  0  0
   50.8580   32.8180   51.9800 O   0  0  0  0  0  0  0  0  0  0  0  0
   50.7860   32.3330   49.7460 O   0  0  0  0  0  0  0  0  0  0  0  0
   55.6280   31.2180   51.7250 C   0  0  0  0  0  0  0  0  0  0  0  0
   62.0097   28.6107   51.8431 H   0  0  0  0  0  0  0  0  0  0  0  0
   61.0678   28.7921   50.3244 H   0  0  0  0  0  0  0  0  0  0  0  0
   62.8386   29.0935   50.3244 H   0  0  0  0  0  0  0  0  0  0  0  0
   63.1613   30.4375   48.9648 H   0  0  0  0  0  0  0  0  0  0  0  0
   64.1580   32.3897   47.7822 H   0  0  0  0  0  0  0  0  0  0  0  0
   63.8127   34.6955   48.6612 H   0  0  0  0  0  0  0  0  0  0  0  0
   62.5161   35.0555   50.7549 H   0  0  0  0  0  0  0  0  0  0  0  0
   61.6078   32.3600   53.0733 H   0  0  0  0  0  0  0  0  0  0  0  0
   61.7208   34.1566   52.7732 H   0  0  0  0  0  0  0  0  0  0  0  0
   59.4444   33.9101   52.9803 H   0  0  0  0  0  0  0  0  0  0  0  0
   59.6760   33.6821   51.1876 H   0  0  0  0  0  0  0  0  0  0  0  0
   56.8397   32.0183   49.7657 H   0  0  0  0  0  0  0  0  0  0  0  0
   58.1296   33.2287   50.1276 H   0  0  0  0  0  0  0  0  0  0  0  0
   58.2359   29.5078   49.8682 H   0  0  0  0  0  0  0  0  0  0  0  0
   59.6946   28.2514   48.2936 H   0  0  0  0  0  0  0  0  0  0  0  0
   61.1187   29.4760   46.6602 H   0  0  0  0  0  0  0  0  0  0  0  0
   61.1067   31.9619   46.6102 H   0  0  0  0  0  0  0  0  0  0  0  0
   59.5690   33.7340   44.8250 H   0  0  0  0  0  0  0  0  0  0  0  0
   57.1534   33.1796   43.3936 H   0  0  0  0  0  0  0  0  0  0  0  0
   58.7993   32.5911   42.9630 H   0  0  0  0  0  0  0  0  0  0  0  0
   59.6845   30.6612   44.6593 H   0  0  0  0  0  0  0  0  0  0  0  0
   59.0442   28.3444   45.3290 H   0  0  0  0  0  0  0  0  0  0  0  0
   56.6591   27.6174   45.1943 H   0  0  0  0  0  0  0  0  0  0  0  0
   54.9046   29.2217   44.4299 H   0  0  0  0  0  0  0  0  0  0  0  0
   55.5319   31.5548   43.7990 H   0  0  0  0  0  0  0  0  0  0  0  0
   58.2297   29.3926   52.9850 H   0  0  0  0  0  0  0  0  0  0  0  0
   56.3303   28.1726   54.0474 H   0  0  0  0  0  0  0  0  0  0  0  0
   53.9827   28.9108   53.6402 H   0  0  0  0  0  0  0  0  0  0  0  0
   52.3575   30.4847   52.6795 H   0  0  0  0  0  0  0  0  0  0  0  0
   53.5433   32.0604   50.3244 H   0  0  0  0  0  0  0  0  0  0  0  0
   55.4334   32.0760   51.0647 H   0  0  0  0  0  0  0  0  0  0  0  0
  1  2  1  0
  2  3  1  0
  3  4  2  0
  4  5  1  0
  5  6  2  0
  6  7  1  0
  7  8  2  0
  8  9  1  0
  9 10  1  0
 10 11  1  0
 11 12  2  0
 11 13  1  0
 13 14  1  0
 14 15  1  0
 15 16  2  0
 16 17  1  0
 17 18  2  0
 18 19  1  0
 19 20  2  0
 20 21  1  0
 21 22  2  0
 21 23  2  0
 21 24  1  0
 24 25  1  0
 25 26  2  0
 25 27  1  0
 27 28  1  0
 28 29  1  0
 29 30  2  0
 30 31  1  0
 31 32  2  0
 32 33  1  0
 33 34  2  0
 13 35  1  0
 35 36  2  0
 36 37  1  0
 37 38  2  0
 38 39  1  0
 39 40  1  0
 40 41  2  3
 41 42  1  0
 42 43  2  0
 42 44  1  0
 39 45  2  0
  8  3  1  0
 20 15  1  0
 34 29  1  0
 45 35  1  0
  1 46  1  0
  1 47  1  0
  1 48  1  0
  4 49  1  0
  5 50  1  0
  6 51  1  0
  7 52  1  0
  9 53  1  0
  9 54  1  0
 10 55  1  0
 10 56  1  0
 14 57  1  0
 14 58  1  0
 16 59  1  0
 17 60  1  0
 18 61  1  0
 19 62  1  0
 27 63  1  0
 28 64  1  0
 28 65  1  0
 30 66  1  0
 31 67  1  0
 32 68  1  0
 33 69  1  0
 34 70  1  0
 36 71  1  0
 37 72  1  0
 38 73  1  0
 40 74  1  0
 41 75  1  0
 45 76  1  0
M  CHG  2  24  -1  44  -1
M  END
>  <UniqueID>  (19) 
15

>  <SMILES>  (19) 
COc1ccccc1CCC(=O)N(Cc1ccccc1S(=O)(=O)[N-]C(=O)NCc1ccccc1)c1cccc(C=CC(=O)[O-])c1

>  <Energy>  (19) 
82.04948384371151

>  <Genealogy>  (19) 
COc1ccccc1CCC(=O)N(Cc1ccccc1S(=O)(=O)[N-]C(=O)NCc1ccccc1)c1cccc(C=CC(=O)[O-])c1 (protonated)
COc1ccccc1CCC(=O)N(Cc1ccccc1S(=O)(=O)[N-]C(=O)NCc1ccccc1)c1cccc(C=CC(=O)[O-])c1 (3D coordinates assigned)
COc1ccccc1CCC(=O)N(Cc1ccccc1S(=O)(=O)[N-]C(=O)NCc1ccccc1)c1cccc(C=CC(=O)[O-])c1 (optimized conformer: 82.04948384371151 kcal/mol)

>  <smiles>  (19) 
COc1ccccc1CCC(=O)N(Cc1ccccc1S(=O)(=O)NC(=O)NCc1ccccc1)c1cccc(C=CC(=O)O)c1

>  <score_type>  (19) 
oracle

>  <origin>  (19) 
adg

>  <m_score__min__energy>  (19) 
-14.94

>  <m_primary>  (19) 
energy

$$$$
19:0
     RDKit          3D

 35 37  0  0  0  0  0  0  0  0999 V2000
   55.6320   26.5320   46.0600 N   0  0  0  0  0  0  0  0  0  0  0  0
   56.8000   27.6640   45.4800 S   0  0  0  0  0  0  0  0  0  0  0  0
   57.3710   27.1760   44.1780 O   0  0  0  0  0  0  0  0  0  0  0  0
   56.1340   28.9910   45.2460 O   0  0  0  0  0  0  0  0  0  0  0  0
   58.0900   27.8380   46.6650 C   0  0  0  0  0  0  0  0  0  0  0  0
   58.8790   26.7360   47.0230 C   0  0  0  0  0  0  0  0  0  0  0  0
   59.9130   26.8850   47.9500 C   0  0  0  0  0  0  0  0  0  0  0  0
   60.1690   28.1350   48.5200 C   0  0  0  0  0  0  0  0  0  0  0  0
   59.3920   29.2450   48.1630 C   0  0  0  0  0  0  0  0  0  0  0  0
   59.7440   30.8170   48.8710 S   0  0  0  0  0  0  0  0  0  0  0  0
   58.5050   31.4160   49.4760 O   0  0  0  0  0  0  0  0  0  0  0  0
   60.7600   30.6450   49.9650 O   0  0  0  0  0  0  0  0  0  0  0  0
   60.3540   31.8880   47.6360 N   0  0  0  0  0  0  0  0  0  0  0  0
   61.8040   31.9700   47.4130 C   0  0  0  0  0  0  0  0  0  0  0  0
   62.2150   33.3740   47.0770 C   0  0  0  0  0  0  0  0  0  0  0  0
   63.3870   33.7660   47.3170 O   0  0  0  0  0  0  0  0  0  0  0  0
   61.2980   34.2420   46.4120 N   0  0  0  0  0  0  0  0  0  0  0  0
   59.9410   33.8440   46.2030 C   0  0  0  0  0  0  0  0  0  0  0  0
   59.0940   34.6350   45.4170 C   0  0  0  0  0  0  0  0  0  0  0  0
   59.5560   35.7780   44.8510 F   0  0  0  0  0  0  0  0  0  0  0  0
   57.7690   34.2440   45.2080 C   0  0  0  0  0  0  0  0  0  0  0  0
   57.2880   33.0650   45.7810 C   0  0  0  0  0  0  0  0  0  0  0  0
   58.1270   32.2770   46.5750 C   0  0  0  0  0  0  0  0  0  0  0  0
   59.4610   32.6640   46.8030 C   0  0  0  0  0  0  0  0  0  0  0  0
   58.3510   29.0920   47.2360 C   0  0  0  0  0  0  0  0  0  0  0  0
   54.8090   27.0850   46.3900 H   0  0  0  0  0  0  0  0  0  0  0  0
   58.6833   25.7516   46.5728 H   0  0  0  0  0  0  0  0  0  0  0  0
   60.5269   26.0169   48.2319 H   0  0  0  0  0  0  0  0  0  0  0  0
   60.9830   28.2479   49.2512 H   0  0  0  0  0  0  0  0  0  0  0  0
   62.3276   31.6500   48.3260 H   0  0  0  0  0  0  0  0  0  0  0  0
   62.0678   31.3149   46.5696 H   0  0  0  0  0  0  0  0  0  0  0  0
   57.1037   34.8659   44.5911 H   0  0  0  0  0  0  0  0  0  0  0  0
   56.2468   32.7554   45.6074 H   0  0  0  0  0  0  0  0  0  0  0  0
   57.7423   31.3494   47.0240 H   0  0  0  0  0  0  0  0  0  0  0  0
   57.7361   29.9598   46.9553 H   0  0  0  0  0  0  0  0  0  0  0  0
  1  2  1  0
  2  3  2  0
  2  4  2  0
  2  5  1  0
  5  6  2  0
  6  7  1  0
  7  8  2  0
  8  9  1  0
  9 10  1  0
 10 11  2  0
 10 12  2  0
 10 13  1  0
 13 14  1  0
 14 15  1  0
 15 16  2  0
 15 17  1  0
 17 18  1  0
 18 19  2  0
 19 20  1  0
 19 21  1  0
 21 22  2  0
 22 23  1  0
 23 24  2  0
  9 25  2  0
 25  5  1  0
 24 13  1  0
 24 18  1  0
  1 26  1  0
  6 27  1  0
  7 28  1  0
  8 29  1  0
 14 30  1  0
 14 31  1  0
 21 32  1  0
 22 33  1  0
 23 34  1  0
 25 35  1  0
M  CHG  2   1  -1  17  -1
M  END
>  <UniqueID>  (20) 
16

>  <SMILES>  (20) 
[NH-]S(=O)(=O)c1cccc(S(=O)(=O)N2CC(=O)[N-]c3c(F)cccc32)c1

>  <Energy>  (20) 
42.1913731867758

>  <Genealogy>  (20) 
[NH-]S(=O)(=O)c1cccc(S(=O)(=O)N2CC(=O)[N-]c3c(F)cccc32)c1 (protonated)
[NH-]S(=O)(=O)c1cccc(S(=O)(=O)N2CC(=O)[N-]c3c(F)cccc32)c1 (3D coordinates assigned)
[NH-]S(=O)(=O)c1cccc(S(=O)(=O)N2CC(=O)[N-]c3c(F)cccc32)c1 (nonaromatic ring conformer: 42.1913731867758 kcal/mol)

>  <smiles>  (20) 
NS(=O)(=O)c1cccc(S(=O)(=O)N2CC(=O)Nc3c(F)cccc32)c1

>  <score_type>  (20) 
oracle

>  <origin>  (20) 
adg

>  <m_score__min__energy>  (20) 
-12.91

>  <m_primary>  (20) 
energy

$$$$
20:0
     RDKit          3D

 35 37  0  0  0  0  0  0  0  0999 V2000
   56.8180   30.2250   43.0520 O   0  0  0  0  0  0  0  0  0  0  0  0
   56.8320   30.0880   44.3050 C   0  0  0  0  0  0  0  0  0  0  0  0
   56.2420   28.9110   44.8740 N   0  0  0  0  0  0  0  0  0  0  0  0
   56.8450   27.9000   45.4360 C   0  0  0  0  0  0  0  0  0  0  0  0
   58.2040   27.9380   45.5150 N   0  0  0  0  0  0  0  0  0  0  0  0
   58.9350   26.9330   46.0660 C   0  0  0  0  0  0  0  0  0  0  0  0
   58.2950   25.8080   46.5830 C   0  0  0  0  0  0  0  0  0  0  0  0
   56.9040   25.7380   46.5420 C   0  0  0  0  0  0  0  0  0  0  0  0
   56.1620   26.7820   45.9830 C   0  0  0  0  0  0  0  0  0  0  0  0
   54.7750   26.6990   46.0130 O   0  0  0  0  0  0  0  0  0  0  0  0
   57.3760   31.1730   45.1620 C   0  0  0  0  0  0  0  0  0  0  0  0
   57.0170   32.5110   44.9250 C   0  0  0  0  0  0  0  0  0  0  0  0
   57.5270   33.5350   45.7290 C   0  0  0  0  0  0  0  0  0  0  0  0
   58.3980   33.2360   46.7770 C   0  0  0  0  0  0  0  0  0  0  0  0
   58.7730   31.9080   47.0270 C   0  0  0  0  0  0  0  0  0  0  0  0
   59.6860   31.5780   48.1780 C   0  0  0  0  0  0  0  0  0  0  0  0
   58.8830   31.2950   49.4230 C   0  0  0  0  0  0  0  0  0  0  0  0
   58.5260   32.3410   50.2860 C   0  0  0  0  0  0  0  0  0  0  0  0
   57.8310   32.0800   51.4230 N   0  0  0  0  0  0  0  0  0  0  0  0
   57.4770   30.8120   51.7500 C   0  0  0  0  0  0  0  0  0  0  0  0
   56.8320   30.5920   52.8080 O   0  0  0  0  0  0  0  0  0  0  0  0
   57.8190   29.7790   50.9380 N   0  0  0  0  0  0  0  0  0  0  0  0
   58.5130   29.9890   49.7890 C   0  0  0  0  0  0  0  0  0  0  0  0
   58.8180   29.0060   49.0630 O   0  0  0  0  0  0  0  0  0  0  0  0
   58.2510   30.8800   46.2260 C   0  0  0  0  0  0  0  0  0  0  0  0
   60.0318   27.0077   46.1038 H   0  0  0  0  0  0  0  0  0  0  0  0
   58.8811   24.9851   47.0182 H   0  0  0  0  0  0  0  0  0  0  0  0
   56.3877   24.8572   46.9514 H   0  0  0  0  0  0  0  0  0  0  0  0
   56.3299   32.7544   44.1012 H   0  0  0  0  0  0  0  0  0  0  0  0
   57.2407   34.5792   45.5347 H   0  0  0  0  0  0  0  0  0  0  0  0
   58.7921   34.0450   47.4096 H   0  0  0  0  0  0  0  0  0  0  0  0
   60.2840   30.6906   47.9231 H   0  0  0  0  0  0  0  0  0  0  0  0
   60.3459   32.4375   48.3672 H   0  0  0  0  0  0  0  0  0  0  0  0
   58.8096   33.3753   50.0414 H   0  0  0  0  0  0  0  0  0  0  0  0
   58.5281   29.8355   46.4314 H   0  0  0  0  0  0  0  0  0  0  0  0
  1  2  2  0
  2  3  1  0
  3  4  2  3
  4  5  1  0
  5  6  1  0
  6  7  2  0
  7  8  1  0
  8  9  2  0
  9 10  1  0
  2 11  1  0
 11 12  2  0
 12 13  1  0
 13 14  2  0
 14 15  1  0
 15 16  1  0
 16 17  1  0
 17 18  2  0
 18 19  1  0
 19 20  1  0
 20 21  2  0
 20 22  1  0
 22 23  1  0
 23 24  2  0
 15 25  2  0
  9  4  1  0
 25 11  1  0
 23 17  1  0
  6 26  1  0
  7 27  1  0
  8 28  1  0
 12 29  1  0
 13 30  1  0
 14 31  1  0
 16 32  1  0
 16 33  1  0
 18 34  1  0
 25 35  1  0
M  CHG  4   5  -1  10  -1  19  -1  22  -1
M  END
>  <UniqueID>  (21) 
17

>  <SMILES>  (21) 
O=C(N=c1[n-]cccc1[O-])c1cccc(Cc2c[n-]c(=O)[n-]c2=O)c1

>  <Energy>  (21) 
53.26657451952067

>  <Genealogy>  (21) 
O=C(N=c1[n-]cccc1[O-])c1cccc(Cc2c[n-]c(=O)[n-]c2=O)c1 (protonated)
O=C(N=c1[n-]cccc1[O-])c1cccc(Cc2c[n-]c(=O)[n-]c2=O)c1 (3D coordinates assigned)
O=C(N=c1[n-]cccc1[O-])c1cccc(Cc2c[n-]c(=O)[n-]c2=O)c1 (optimized conformer: 53.26657451952067 kcal/mol)

>  <smiles>  (21) 
O=C(N=c1[nH]cccc1O)c1cccc(Cc2c[nH]c(=O)[nH]c2=O)c1

>  <score_type>  (21) 
oracle

>  <origin>  (21) 
adg

>  <m_score__min__energy>  (21) 
-15.470000000000001

>  <m_primary>  (21) 
energy

$$$$
21:0
     RDKit          3D

 61 64  0  0  0  0  0  0  0  0999 V2000
   59.3330   25.9000   47.4680 H   0  0  0  0  0  0  0  0  0  0  0  0
   58.4980   25.3590   47.2820 O   0  0  0  0  0  0  0  0  0  0  0  0
   57.3620   25.9360   46.7130 C   0  0  0  0  0  0  0  0  0  0  0  0
   56.2180   25.2570   46.5150 N   0  0  0  0  0  0  0  0  0  0  0  0
   55.4140   26.1820   45.9530 C   0  0  0  0  0  0  0  0  0  0  0  0
   54.2300   25.9320   45.6100 O   0  0  0  0  0  0  0  0  0  0  0  0
   55.9800   27.3970   45.7920 N   0  0  0  0  0  0  0  0  0  0  0  0
   57.2270   27.2370   46.2720 C   0  0  0  0  0  0  0  0  0  0  0  0
   58.2490   28.3050   46.3710 C   0  0  0  0  0  0  0  0  0  0  0  0
   58.6392   28.7216   45.4307 H   0  0  0  0  0  0  0  0  0  0  0  0
   58.7390   28.8070   47.5240 C   0  0  0  0  0  0  0  0  0  0  0  0
   59.2460   28.0930   48.6060 C   0  0  0  0  0  0  0  0  0  0  0  0
   59.3426   27.0000   48.6832 H   0  0  0  0  0  0  0  0  0  0  0  0
   59.6040   29.0200   49.5630 C   0  0  0  0  0  0  0  0  0  0  0  0
   60.1640   28.6740   50.9100 C   0  0  0  0  0  0  0  0  0  0  0  0
   59.5083   29.0791   51.6948 H   0  0  0  0  0  0  0  0  0  0  0  0
   60.2252   27.5804   51.0118 H   0  0  0  0  0  0  0  0  0  0  0  0
   61.1694   29.1086   51.0118 H   0  0  0  0  0  0  0  0  0  0  0  0
   59.3090   30.2700   49.1420 N   0  0  0  0  0  0  0  0  0  0  0  0
   59.5100   31.4820   49.8930 C   0  0  0  0  0  0  0  0  0  0  0  0
   60.6450   32.2630   49.6250 C   0  0  0  0  0  0  0  0  0  0  0  0
   61.3300   31.9685   48.8163 H   0  0  0  0  0  0  0  0  0  0  0  0
   60.9130   33.4090   50.3740 C   0  0  0  0  0  0  0  0  0  0  0  0
   61.7998   34.0194   50.1481 H   0  0  0  0  0  0  0  0  0  0  0  0
   60.0560   33.7800   51.4090 C   0  0  0  0  0  0  0  0  0  0  0  0
   60.2731   34.6787   52.0049 H   0  0  0  0  0  0  0  0  0  0  0  0
   58.9220   33.0140   51.6920 C   0  0  0  0  0  0  0  0  0  0  0  0
   58.2560   33.3104   52.5158 H   0  0  0  0  0  0  0  0  0  0  0  0
   58.6240   31.8670   50.9330 C   0  0  0  0  0  0  0  0  0  0  0  0
   57.3890   31.1040   51.2380 C   0  0  0  0  0  0  0  0  0  0  0  0
   56.2640   31.5830   50.9240 O   0  0  0  0  0  0  0  0  0  0  0  0
   57.4630   29.8210   51.8690 N   0  0  0  0  0  0  0  0  0  0  0  0
   56.7360   29.4990   53.0900 C   0  0  0  0  0  0  0  0  0  0  0  0
   57.3787   28.8929   53.7454 H   0  0  0  0  0  0  0  0  0  0  0  0
   56.4559   30.4347   53.5959 H   0  0  0  0  0  0  0  0  0  0  0  0
   55.4650   28.7120   52.7620 C   0  0  0  0  0  0  0  0  0  0  0  0
   55.6171   28.1624   51.8214 H   0  0  0  0  0  0  0  0  0  0  0  0
   55.2638   28.0181   53.5914 H   0  0  0  0  0  0  0  0  0  0  0  0
   54.2750   29.6270   52.6090 C   0  0  0  0  0  0  0  0  0  0  0  0
   53.7870   30.3440   53.7080 C   0  0  0  0  0  0  0  0  0  0  0  0
   54.3079   30.2824   54.6749 H   0  0  0  0  0  0  0  0  0  0  0  0
   52.6450   31.1360   53.5860 C   0  0  0  0  0  0  0  0  0  0  0  0
   52.2700   31.6917   54.4581 H   0  0  0  0  0  0  0  0  0  0  0  0
   51.9690   31.2290   52.3540 C   0  0  0  0  0  0  0  0  0  0  0  0
   50.8070   32.0010   52.1980 O   0  0  0  0  0  0  0  0  0  0  0  0
   50.0210   32.5000   53.2740 C   0  0  0  0  0  0  0  0  0  0  0  0
   50.4806   32.2082   54.2299 H   0  0  0  0  0  0  0  0  0  0  0  0
   49.9688   33.5970   53.2120 H   0  0  0  0  0  0  0  0  0  0  0  0
   49.0060   32.0805   53.2120 H   0  0  0  0  0  0  0  0  0  0  0  0
   52.4590   30.5270   51.2410 C   0  0  0  0  0  0  0  0  0  0  0  0
   51.7700   30.6420   50.0240 O   0  0  0  0  0  0  0  0  0  0  0  0
   51.8330   29.6880   48.9670 C   0  0  0  0  0  0  0  0  0  0  0  0
   51.8999   28.6751   49.3908 H   0  0  0  0  0  0  0  0  0  0  0  0
   50.9277   29.7671   48.3472 H   0  0  0  0  0  0  0  0  0  0  0  0
   52.7201   29.8855   48.3472 H   0  0  0  0  0  0  0  0  0  0  0  0
   53.6120   29.7280   51.3750 C   0  0  0  0  0  0  0  0  0  0  0  0
   53.9968   29.1776   50.5039 H   0  0  0  0  0  0  0  0  0  0  0  0
   58.7960   30.1590   47.8920 C   0  0  0  0  0  0  0  0  0  0  0  0
   58.3930   31.2070   47.1570 C   0  0  0  0  0  0  0  0  0  0  0  0
   58.4890   32.2277   47.5556 H   0  0  0  0  0  0  0  0  0  0  0  0
   57.9667   31.0453   46.1559 H   0  0  0  0  0  0  0  0  0  0  0  0
  1  2  1  0
  2  3  1  0
  3  4  1  0
  4  5  1  0
  5  6  2  0
  5  7  1  0
  7  8  1  0
  8  9  1  0
  9 10  1  0
  9 11  2  0
 11 12  1  0
 12 13  1  0
 12 14  2  0
 14 15  1  0
 15 16  1  0
 15 17  1  0
 15 18  1  0
 14 19  1  0
 19 20  1  0
 20 21  2  0
 21 22  1  0
 21 23  1  0
 23 24  1  0
 23 25  2  0
 25 26  1  0
 25 27  1  0
 27 28  1  0
 27 29  2  0
 29 30  1  0
 30 31  2  0
 30 32  1  0
 32 33  1  0
 33 34  1  0
 33 35  1  0
 33 36  1  0
 36 37  1  0
 36 38  1  0
 36 39  1  0
 39 40  2  0
 40 41  1  0
 40 42  1  0
 42 43  1  0
 42 44  2  0
 44 45  1  0
 45 46  1  0
 46 47  1  0
 46 48  1  0
 46 49  1  0
 44 50  1  0
 50 51  1  0
 51 52  1  0
 52 53  1  0
 52 54  1  0
 52 55  1  0
 50 56  2  0
 56 57  1  0
 19 58  1  0
 58 59  2  0
 59 60  1  0
 59 61  1  0
  8  3  2  0
 58 11  1  0
 29 20  1  0
 56 39  1  0
M  CHG  3   4  -1   7  -1  32  -1
M  END
>  <UniqueID>  (22) 
18

>  <SMILES>  (22) 
C=c1/c(=C/c2[n-]c(=O)[n-]c2O)cc(C)n1-c1ccccc1C(=O)[N-]CCc1ccc(OC)c(OC)c1

>  <Energy>  (22) 
126.31298853605237

>  <Genealogy>  (22) 
C=c1c(=Cc2[n-]c(=O)[n-]c2O)cc(C)n1-c1ccccc1C(=O)[N-]CCc1ccc(OC)c(OC)c1 (protonated)
C=c1/c(=C/c2[n-]c(=O)[n-]c2O)cc(C)n1-c1ccccc1C(=O)[N-]CCc1ccc(OC)c(OC)c1 (cis-trans isomerization)
C=c1/c(=C/c2[n-]c(=O)[n-]c2O)cc(C)n1-c1ccccc1C(=O)[N-]CCc1ccc(OC)c(OC)c1 (3D coordinates assigned)
C=c1/c(=C/c2[n-]c(=O)[n-]c2O)cc(C)n1-c1ccccc1C(=O)[N-]CCc1ccc(OC)c(OC)c1 (optimized conformer: 126.31298853605237 kcal/mol)

>  <smiles>  (22) 
C=c1c(=Cc2[nH]c(=O)[nH]c2O)cc(C)n1-c1ccccc1C(=O)NCCc1ccc(OC)c(OC)c1

>  <score_type>  (22) 
oracle

>  <origin>  (22) 
adg

>  <m_score__min__energy>  (22) 
-14.630000000000001

>  <m_primary>  (22) 
energy

$$$$
22:0
     RDKit          3D

 39 41  0  0  0  0  0  0  0  0999 V2000
   55.2700   26.3680   45.9570 N   0  0  0  0  0  0  0  0  0  0  0  0
   56.6470   26.5050   46.3150 C   0  0  0  0  0  0  0  0  0  0  0  0
   57.1290   25.7450   47.1970 O   0  0  0  0  0  0  0  0  0  0  0  0
   57.4990   27.5580   45.7120 C   0  0  0  0  0  0  0  0  0  0  0  0
   58.8820   27.3370   45.6000 C   0  0  0  0  0  0  0  0  0  0  0  0
   59.7140   28.3170   45.0610 C   0  0  0  0  0  0  0  0  0  0  0  0
   59.1800   29.5290   44.6280 C   0  0  0  0  0  0  0  0  0  0  0  0
   57.7980   29.7650   44.7050 C   0  0  0  0  0  0  0  0  0  0  0  0
   57.2120   30.9930   44.2500 N   0  0  0  0  0  0  0  0  0  0  0  0
   57.5240   32.5620   44.9160 S   0  0  0  0  0  0  0  0  0  0  0  0
   57.8260   33.5200   43.8000 O   0  0  0  0  0  0  0  0  0  0  0  0
   56.3000   33.0460   45.6430 O   0  0  0  0  0  0  0  0  0  0  0  0
   58.9150   32.4870   45.9960 C   0  0  0  0  0  0  0  0  0  0  0  0
   59.0120   31.4920   46.9760 C   0  0  0  0  0  0  0  0  0  0  0  0
   60.1300   31.4360   47.8130 C   0  0  0  0  0  0  0  0  0  0  0  0
   61.1550   32.3890   47.6940 C   0  0  0  0  0  0  0  0  0  0  0  0
   62.3160   32.3140   48.5430 N   0  0  0  0  0  0  0  0  0  0  0  0
   62.3840   31.6060   49.8170 C   0  0  0  0  0  0  0  0  0  0  0  0
   63.8780   31.6180   50.2220 C   0  0  0  0  0  0  0  0  0  0  0  0
   64.5760   32.4030   49.2100 N   0  0  0  0  0  0  0  0  0  0  0  0
   63.6170   32.7790   48.2460 C   0  0  0  0  0  0  0  0  0  0  0  0
   63.8920   33.5090   47.2560 O   0  0  0  0  0  0  0  0  0  0  0  0
   61.0520   33.3870   46.7100 C   0  0  0  0  0  0  0  0  0  0  0  0
   59.9410   33.4310   45.8650 C   0  0  0  0  0  0  0  0  0  0  0  0
   56.9570   28.7690   45.2310 C   0  0  0  0  0  0  0  0  0  0  0  0
   55.5820   28.9840   45.2450 O   0  0  0  0  0  0  0  0  0  0  0  0
   54.6960   25.6020   46.3750 H   0  0  0  0  0  0  0  0  0  0  0  0
   54.7870   27.0840   45.3700 H   0  0  0  0  0  0  0  0  0  0  0  0
   59.3116   26.3832   45.9403 H   0  0  0  0  0  0  0  0  0  0  0  0
   60.7953   28.1330   44.9772 H   0  0  0  0  0  0  0  0  0  0  0  0
   59.8454   30.3059   44.2233 H   0  0  0  0  0  0  0  0  0  0  0  0
   58.2059   30.7520   47.0877 H   0  0  0  0  0  0  0  0  0  0  0  0
   60.2076   30.6410   48.5693 H   0  0  0  0  0  0  0  0  0  0  0  0
   61.7766   32.1216   50.5755 H   0  0  0  0  0  0  0  0  0  0  0  0
   61.9935   30.5810   49.7339 H   0  0  0  0  0  0  0  0  0  0  0  0
   63.9994   32.0810   51.2124 H   0  0  0  0  0  0  0  0  0  0  0  0
   64.2820   30.5966   50.2811 H   0  0  0  0  0  0  0  0  0  0  0  0
   61.8500   34.1368   46.6049 H   0  0  0  0  0  0  0  0  0  0  0  0
   59.8715   34.2111   45.0926 H   0  0  0  0  0  0  0  0  0  0  0  0
  1  2  1  0
  2  3  2  0
  2  4  1  0
  4  5  2  0
  5  6  1  0
  6  7  2  0
  7  8  1  0
  8  9  1  0
  9 10  1  0
 10 11  2  0
 10 12  2  0
 10 13  1  0
 13 14  2  0
 14 15  1  0
 15 16  2  0
 16 17  1  0
 17 18  1  0
 18 19  1  0
 19 20  1  0
 20 21  1  0
 21 22  2  0
 16 23  1  0
 23 24  2  0
  8 25  2  0
 25 26  1  0
 25  4  1  0
 24 13  1  0
 21 17  1  0
  1 27  1  0
  1 28  1  0
  5 29  1  0
  6 30  1  0
  7 31  1  0
 14 32  1  0
 15 33  1  0
 18 34  1  0
 18 35  1  0
 19 36  1  0
 19 37  1  0
 23 38  1  0
 24 39  1  0
M  CHG  3   9  -1  20  -1  26  -1
M  END
>  <UniqueID>  (23) 
19

>  <SMILES>  (23) 
NC(=O)c1cccc([N-]S(=O)(=O)c2ccc(N3CC[N-]C3=O)cc2)c1[O-]

>  <Energy>  (23) 
65.59705962649413

>  <Genealogy>  (23) 
NC(=O)c1cccc([N-]S(=O)(=O)c2ccc(N3CC[N-]C3=O)cc2)c1[O-] (protonated)
NC(=O)c1cccc([N-]S(=O)(=O)c2ccc(N3CC[N-]C3=O)cc2)c1[O-] (3D coordinates assigned)
NC(=O)c1cccc([N-]S(=O)(=O)c2ccc(N3CC[N-]C3=O)cc2)c1[O-] (nonaromatic ring conformer: 65.59705962649413 kcal/mol)

>  <smiles>  (23) 
NC(=O)c1cccc(NS(=O)(=O)c2ccc(N3CCNC3=O)cc2)c1O

>  <score_type>  (23) 
oracle

>  <origin>  (23) 
adg

>  <m_score__min__energy>  (23) 
-14.710000000000001

>  <m_primary>  (23) 
energy

$$$$
23:0
     RDKit          3D

 35 37  0  0  0  0  0  0  0  0999 V2000
   56.2165   30.7894   44.7305 H   0  0  0  0  0  0  0  0  0  0  0  0
   56.5320   29.7360   44.7580 C   0  0  0  0  0  0  0  0  0  0  0  0
   55.8357   28.9449   44.4427 H   0  0  0  0  0  0  0  0  0  0  0  0
   57.7660   29.4160   45.1760 C   0  0  0  0  0  0  0  0  0  0  0  0
   58.3080   28.1300   45.2660 C   0  0  0  0  0  0  0  0  0  0  0  0
   57.7290   26.9740   44.8900 C   0  0  0  0  0  0  0  0  0  0  0  0
   57.6534   26.7602   43.8136 H   0  0  0  0  0  0  0  0  0  0  0  0
   57.1900   25.9770   45.8340 C   0  0  0  0  0  0  0  0  0  0  0  0
   55.8950   25.8560   46.2980 C   0  0  0  0  0  0  0  0  0  0  0  0
   54.8320   26.6940   45.9820 O   0  0  0  0  0  0  0  0  0  0  0  0
   55.7720   24.7630   47.0750 N   0  0  0  0  0  0  0  0  0  0  0  0
   57.0130   24.2310   47.0420 C   0  0  0  0  0  0  0  0  0  0  0  0
   57.3200   23.1730   47.6530 O   0  0  0  0  0  0  0  0  0  0  0  0
   57.8900   24.9270   46.2930 N   0  0  0  0  0  0  0  0  0  0  0  0
   58.8930   24.6990   46.1080 H   0  0  0  0  0  0  0  0  0  0  0  0
   59.5930   28.2830   45.7730 C   0  0  0  0  0  0  0  0  0  0  0  0
   60.3194   27.4822   45.9755 H   0  0  0  0  0  0  0  0  0  0  0  0
   59.7800   29.6370   45.9730 C   0  0  0  0  0  0  0  0  0  0  0  0
   61.0320   30.2600   46.5100 C   0  0  0  0  0  0  0  0  0  0  0  0
   61.0056   30.2469   47.6096 H   0  0  0  0  0  0  0  0  0  0  0  0
   61.9050   29.6912   46.1574 H   0  0  0  0  0  0  0  0  0  0  0  0
   61.1048   31.2994   46.1574 H   0  0  0  0  0  0  0  0  0  0  0  0
   58.6740   30.3230   45.6140 N   0  0  0  0  0  0  0  0  0  0  0  0
   58.5130   31.7500   45.6900 C   0  0  0  0  0  0  0  0  0  0  0  0
   58.3190   32.4880   44.5130 C   0  0  0  0  0  0  0  0  0  0  0  0
   58.2943   31.9724   43.5417 H   0  0  0  0  0  0  0  0  0  0  0  0
   58.1570   33.8740   44.5680 C   0  0  0  0  0  0  0  0  0  0  0  0
   58.0095   34.4469   43.6406 H   0  0  0  0  0  0  0  0  0  0  0  0
   58.1820   34.5340   45.7990 C   0  0  0  0  0  0  0  0  0  0  0  0
   58.0561   35.6260   45.8400 H   0  0  0  0  0  0  0  0  0  0  0  0
   58.3670   33.8070   46.9790 C   0  0  0  0  0  0  0  0  0  0  0  0
   58.3839   34.3289   47.9471 H   0  0  0  0  0  0  0  0  0  0  0  0
   58.5310   32.4160   46.9330 C   0  0  0  0  0  0  0  0  0  0  0  0
   58.6950   31.6830   48.1640 C   0  0  0  0  0  0  0  0  0  0  0  0
   58.8300   31.0950   49.1520 N   0  0  0  0  0  0  0  0  0  0  0  0
  1  2  1  0
  2  3  1  0
  2  4  2  0
  4  5  1  0
  5  6  2  0
  6  7  1  0
  6  8  1  0
  8  9  2  0
  9 10  1  0
  9 11  1  0
 11 12  1  0
 12 13  2  0
 12 14  1  0
 14 15  1  0
  5 16  1  0
 16 17  1  0
 16 18  2  0
 18 19  1  0
 19 20  1  0
 19 21  1  0
 19 22  1  0
 18 23  1  0
 23 24  1  0
 24 25  2  0
 25 26  1  0
 25 27  1  0
 27 28  1  0
 27 29  2  0
 29 30  1  0
 29 31  1  0
 31 32  1  0
 31 33  2  0
 33 34  1  0
 34 35  3  0
 23  4  1  0
 33 24  1  0
 14  8  1  0
M  CHG  2  10  -1  11  -1
M  END
>  <UniqueID>  (24) 
20

>  <SMILES>  (24) 
C=c1/c(=C/c2[nH]c(=O)[n-]c2[O-])cc(C)n1-c1ccccc1C#N

>  <Energy>  (24) 
109.58900474765129

>  <Genealogy>  (24) 
C=c1c(=Cc2[nH]c(=O)[n-]c2[O-])cc(C)n1-c1ccccc1C#N (protonated)
C=c1/c(=C/c2[nH]c(=O)[n-]c2[O-])cc(C)n1-c1ccccc1C#N (cis-trans isomerization)
C=c1/c(=C/c2[nH]c(=O)[n-]c2[O-])cc(C)n1-c1ccccc1C#N (3D coordinates assigned)
C=c1/c(=C/c2[nH]c(=O)[n-]c2[O-])cc(C)n1-c1ccccc1C#N (optimized conformer: 109.58900474765129 kcal/mol)

>  <smiles>  (24) 
C=c1c(=Cc2[nH]c(=O)[nH]c2O)cc(C)n1-c1ccccc1C#N

>  <score_type>  (24) 
oracle

>  <origin>  (24) 
adg

>  <m_score__min__energy>  (24) 
-13.83

>  <m_primary>  (24) 
energy

$$$$
24:0
     RDKit          3D

 69 72  0  0  0  0  0  0  0  0999 V2000
   58.9520   34.9510   45.6320 O   0  0  0  0  0  0  0  0  0  0  0  0
   58.5410   33.7780   45.4100 C   0  0  0  0  0  0  0  0  0  0  0  0
   57.7960   33.4800   44.1380 C   0  0  0  0  0  0  0  0  0  0  0  0
   57.7210   31.9790   43.8470 C   0  0  0  0  0  0  0  0  0  0  0  0
   56.9390   31.3070   44.8870 N   0  0  0  0  0  0  0  0  0  0  0  0
   56.5160   29.7060   44.3640 S   0  0  0  0  0  0  0  0  0  0  0  0
   56.5450   29.6560   42.8620 O   0  0  0  0  0  0  0  0  0  0  0  0
   55.1220   29.3780   44.8220 O   0  0  0  0  0  0  0  0  0  0  0  0
   57.6550   28.5210   45.0020 C   0  0  0  0  0  0  0  0  0  0  0  0
   59.0080   28.8560   45.1360 C   0  0  0  0  0  0  0  0  0  0  0  0
   59.9150   27.9230   45.6440 C   0  0  0  0  0  0  0  0  0  0  0  0
   59.4740   26.6550   46.0290 C   0  0  0  0  0  0  0  0  0  0  0  0
   58.1150   26.3110   45.9240 C   0  0  0  0  0  0  0  0  0  0  0  0
   57.6450   24.9640   46.3250 C   0  0  0  0  0  0  0  0  0  0  0  0
   57.8300   24.5690   47.5090 O   0  0  0  0  0  0  0  0  0  0  0  0
   56.9620   24.1060   45.3960 N   0  0  0  0  0  0  0  0  0  0  0  0
   57.6040   23.7410   44.1300 C   0  0  0  0  0  0  0  0  0  0  0  0
   56.5330   23.3830   43.0970 C   0  0  0  0  0  0  0  0  0  0  0  0
   55.6540   22.3990   43.6080 O   0  0  0  0  0  0  0  0  0  0  0  0
   54.9320   22.9230   44.7080 C   0  0  0  0  0  0  0  0  0  0  0  0
   55.8720   23.2510   45.8720 C   0  0  0  0  0  0  0  0  0  0  0  0
   57.2110   27.2510   45.3980 C   0  0  0  0  0  0  0  0  0  0  0  0
   58.6950   32.7560   46.4060 N   0  0  0  0  0  0  0  0  0  0  0  0
   59.4930   32.9160   47.5920 C   0  0  0  0  0  0  0  0  0  0  0  0
   58.9020   33.1960   48.8350 C   0  0  0  0  0  0  0  0  0  0  0  0
   59.6970   33.3530   49.9740 C   0  0  0  0  0  0  0  0  0  0  0  0
   61.0860   33.2410   49.8800 C   0  0  0  0  0  0  0  0  0  0  0  0
   61.6900   32.9850   48.6420 C   0  0  0  0  0  0  0  0  0  0  0  0
   63.4460   32.8410   48.5250 S   0  0  0  0  0  0  0  0  0  0  0  0
   63.9980   34.0600   47.8380 O   0  0  0  0  0  0  0  0  0  0  0  0
   63.7890   31.6410   47.6870 O   0  0  0  0  0  0  0  0  0  0  0  0
   64.1870   32.6760   50.1000 N   0  0  0  0  0  0  0  0  0  0  0  0
   65.4880   33.3910   50.1720 C   0  0  0  0  0  0  0  0  0  0  0  0
   66.6960   32.4440   50.1210 C   0  0  0  0  0  0  0  0  0  0  0  0
   66.6470   31.4190   51.2660 C   0  0  0  0  0  0  0  0  0  0  0  0
   65.2100   31.0340   51.6610 C   0  0  0  0  0  0  0  0  0  0  0  0
   64.2390   31.2520   50.4980 C   0  0  0  0  0  0  0  0  0  0  0  0
   60.8900   32.8310   47.5010 C   0  0  0  0  0  0  0  0  0  0  0  0
   56.7731   33.8748   44.2263 H   0  0  0  0  0  0  0  0  0  0  0  0
   58.3403   33.9567   43.3095 H   0  0  0  0  0  0  0  0  0  0  0  0
   57.2407   31.8206   42.8702 H   0  0  0  0  0  0  0  0  0  0  0  0
   58.7388   31.5619   43.8335 H   0  0  0  0  0  0  0  0  0  0  0  0
   59.3574   29.8563   44.8405 H   0  0  0  0  0  0  0  0  0  0  0  0
   60.9783   28.1874   45.7410 H   0  0  0  0  0  0  0  0  0  0  0  0
   60.1950   25.9204   46.4171 H   0  0  0  0  0  0  0  0  0  0  0  0
   58.1981   24.5906   43.7623 H   0  0  0  0  0  0  0  0  0  0  0  0
   58.2620   22.8741   44.2901 H   0  0  0  0  0  0  0  0  0  0  0  0
   55.9573   24.2861   42.8460 H   0  0  0  0  0  0  0  0  0  0  0  0
   57.0273   22.9835   42.1992 H   0  0  0  0  0  0  0  0  0  0  0  0
   54.4134   23.8409   44.3941 H   0  0  0  0  0  0  0  0  0  0  0  0
   54.2063   22.1678   45.0442 H   0  0  0  0  0  0  0  0  0  0  0  0
   55.3111   23.7766   46.6589 H   0  0  0  0  0  0  0  0  0  0  0  0
   56.2897   22.3183   46.2788 H   0  0  0  0  0  0  0  0  0  0  0  0
   56.1477   26.9882   45.2964 H   0  0  0  0  0  0  0  0  0  0  0  0
   58.1020   31.8990   46.3250 H   0  0  0  0  0  0  0  0  0  0  0  0
   57.8090   33.2921   48.9125 H   0  0  0  0  0  0  0  0  0  0  0  0
   59.2278   33.5651   50.9460 H   0  0  0  0  0  0  0  0  0  0  0  0
   61.7075   33.3541   50.7805 H   0  0  0  0  0  0  0  0  0  0  0  0
   65.5526   34.0878   49.3233 H   0  0  0  0  0  0  0  0  0  0  0  0
   65.5220   33.9165   51.1378 H   0  0  0  0  0  0  0  0  0  0  0  0
   66.6923   31.9089   49.1599 H   0  0  0  0  0  0  0  0  0  0  0  0
   67.6128   33.0424   50.2279 H   0  0  0  0  0  0  0  0  0  0  0  0
   67.1793   30.5106   50.9475 H   0  0  0  0  0  0  0  0  0  0  0  0
   67.1194   31.8817   52.1451 H   0  0  0  0  0  0  0  0  0  0  0  0
   65.1897   29.9732   51.9513 H   0  0  0  0  0  0  0  0  0  0  0  0
   64.8968   31.6720   52.5006 H   0  0  0  0  0  0  0  0  0  0  0  0
   64.5698   30.6515   49.6378 H   0  0  0  0  0  0  0  0  0  0  0  0
   63.2338   30.9458   50.8233 H   0  0  0  0  0  0  0  0  0  0  0  0
   61.3622   32.6418   46.5257 H   0  0  0  0  0  0  0  0  0  0  0  0
  1  2  2  0
  2  3  1  0
  3  4  1  0
  4  5  1  0
  5  6  1  0
  6  7  2  0
  6  8  2  0
  6  9  1  0
  9 10  2  0
 10 11  1  0
 11 12  2  0
 12 13  1  0
 13 14  1  0
 14 15  2  0
 14 16  1  0
 16 17  1  0
 17 18  1  0
 18 19  1  0
 19 20  1  0
 20 21  1  0
 13 22  2  0
  2 23  1  0
 23 24  1  0
 24 25  2  0
 25 26  1  0
 26 27  2  0
 27 28  1  0
 28 29  1  0
 29 30  2  0
 29 31  2  0
 29 32  1  0
 32 33  1  0
 33 34  1  0
 34 35  1  0
 35 36  1  0
 36 37  1  0
 28 38  2  0
 22  9  1  0
 38 24  1  0
 21 16  1  0
 37 32  1  0
  3 39  1  0
  3 40  1  0
  4 41  1  0
  4 42  1  0
 10 43  1  0
 11 44  1  0
 12 45  1  0
 17 46  1  0
 17 47  1  0
 18 48  1  0
 18 49  1  0
 20 50  1  0
 20 51  1  0
 21 52  1  0
 21 53  1  0
 22 54  1  0
 23 55  1  0
 25 56  1  0
 26 57  1  0
 27 58  1  0
 33 59  1  0
 33 60  1  0
 34 61  1  0
 34 62  1  0
 35 63  1  0
 35 64  1  0
 36 65  1  0
 36 66  1  0
 37 67  1  0
 37 68  1  0
 38 69  1  0
M  CHG  1   5  -1
M  END
>  <UniqueID>  (25) 
21

>  <SMILES>  (25) 
O=C(CC[N-]S(=O)(=O)c1cccc(C(=O)N2CCOCC2)c1)Nc1cccc(S(=O)(=O)N2CCCCC2)c1

>  <Energy>  (25) 
79.86386505452352

>  <Genealogy>  (25) 
O=C(CC[N-]S(=O)(=O)c1cccc(C(=O)N2CCOCC2)c1)Nc1cccc(S(=O)(=O)N2CCCCC2)c1 (protonated)
O=C(CC[N-]S(=O)(=O)c1cccc(C(=O)N2CCOCC2)c1)Nc1cccc(S(=O)(=O)N2CCCCC2)c1 (3D coordinates assigned)
O=C(CC[N-]S(=O)(=O)c1cccc(C(=O)N2CCOCC2)c1)Nc1cccc(S(=O)(=O)N2CCCCC2)c1 (nonaromatic ring conformer: 79.86386505452352 kcal/mol)

>  <smiles>  (25) 
O=C(CCNS(=O)(=O)c1cccc(C(=O)N2CCOCC2)c1)Nc1cccc(S(=O)(=O)N2CCCCC2)c1

>  <score_type>  (25) 
oracle

>  <origin>  (25) 
adg

>  <m_score__min__energy>  (25) 
-12.960000000000001

>  <m_primary>  (25) 
energy

$$$$
25:0
     RDKit          3D

 47 49  0  0  0  0  0  0  0  0999 V2000
   58.1005   22.6654   45.1532 H   0  0  0  0  0  0  0  0  0  0  0  0
   57.4170   23.5110   45.3200 C   0  0  0  0  0  0  0  0  0  0  0  0
   57.9240   24.7450   45.7270 C   0  0  0  0  0  0  0  0  0  0  0  0
   59.0071   24.8644   45.8778 H   0  0  0  0  0  0  0  0  0  0  0  0
   57.0670   25.8390   45.9470 C   0  0  0  0  0  0  0  0  0  0  0  0
   57.6420   27.1380   46.3770 C   0  0  0  0  0  0  0  0  0  0  0  0
   57.2130   28.2050   45.8600 O   0  0  0  0  0  0  0  0  0  0  0  0
   58.6610   27.1780   47.3920 N   0  0  0  0  0  0  0  0  0  0  0  0
   59.4300   28.1780   47.7130 C   0  0  0  0  0  0  0  0  0  0  0  0
   59.7710   29.1300   46.8190 N   0  0  0  0  0  0  0  0  0  0  0  0
   60.5670   30.0700   47.3280 N   0  0  0  0  0  0  0  0  0  0  0  0
   60.8610   29.8680   48.6300 C   0  0  0  0  0  0  0  0  0  0  0  0
   61.9130   30.9530   49.5860 S   0  0  0  0  0  0  0  0  0  0  0  0
   62.5940   31.7780   48.1130 C   0  0  0  0  0  0  0  0  0  0  0  0
   62.8387   31.0243   47.3501 H   0  0  0  0  0  0  0  0  0  0  0  0
   63.5058   32.3285   48.3880 H   0  0  0  0  0  0  0  0  0  0  0  0
   61.5800   32.7310   47.5660 C   0  0  0  0  0  0  0  0  0  0  0  0
   61.9590   33.6890   46.8390 O   0  0  0  0  0  0  0  0  0  0  0  0
   60.1950   32.5850   47.9070 N   0  0  0  0  0  0  0  0  0  0  0  0
   59.9130   31.7950   48.5330 H   0  0  0  0  0  0  0  0  0  0  0  0
   59.1840   33.5150   47.4060 C   0  0  0  0  0  0  0  0  0  0  0  0
   59.6512   34.4946   47.2268 H   0  0  0  0  0  0  0  0  0  0  0  0
   58.3838   33.6062   48.1553 H   0  0  0  0  0  0  0  0  0  0  0  0
   58.5860   33.0060   46.1140 C   0  0  0  0  0  0  0  0  0  0  0  0
   58.0100   31.7240   46.0940 C   0  0  0  0  0  0  0  0  0  0  0  0
   57.9860   31.1223   47.0145 H   0  0  0  0  0  0  0  0  0  0  0  0
   57.4680   31.2080   44.9150 C   0  0  0  0  0  0  0  0  0  0  0  0
   57.0135   30.2063   44.9119 H   0  0  0  0  0  0  0  0  0  0  0  0
   57.5020   31.9610   43.7410 C   0  0  0  0  0  0  0  0  0  0  0  0
   57.0674   31.5548   42.8157 H   0  0  0  0  0  0  0  0  0  0  0  0
   58.0860   33.2280   43.7380 C   0  0  0  0  0  0  0  0  0  0  0  0
   58.1082   33.8161   42.8087 H   0  0  0  0  0  0  0  0  0  0  0  0
   58.6470   33.7600   44.9140 C   0  0  0  0  0  0  0  0  0  0  0  0
   59.2760   35.1280   44.8720 C   0  0  0  0  0  0  0  0  0  0  0  0
   59.4412   35.4873   45.8985 H   0  0  0  0  0  0  0  0  0  0  0  0
   60.2391   35.0727   44.3434 H   0  0  0  0  0  0  0  0  0  0  0  0
   58.6071   35.8231   44.3434 H   0  0  0  0  0  0  0  0  0  0  0  0
   60.1240   28.4770   49.2270 S   0  0  0  0  0  0  0  0  0  0  0  0
   55.6750   25.6630   45.7570 C   0  0  0  0  0  0  0  0  0  0  0  0
   54.7880   26.7080   46.0050 O   0  0  0  0  0  0  0  0  0  0  0  0
   55.1680   24.4190   45.3310 C   0  0  0  0  0  0  0  0  0  0  0  0
   53.6880   24.2240   45.1500 C   0  0  0  0  0  0  0  0  0  0  0  0
   53.2034   24.1601   46.1354 H   0  0  0  0  0  0  0  0  0  0  0  0
   53.2717   25.0751   44.5911 H   0  0  0  0  0  0  0  0  0  0  0  0
   53.5063   23.2942   44.5911 H   0  0  0  0  0  0  0  0  0  0  0  0
   56.0470   23.3460   45.1240 C   0  0  0  0  0  0  0  0  0  0  0  0
   55.6533   22.3695   44.8054 H   0  0  0  0  0  0  0  0  0  0  0  0
  1  2  1  0
  2  3  2  0
  3  4  1  0
  3  5  1  0
  5  6  1  0
  6  7  2  0
  6  8  1  0
  8  9  2  0
  9 10  1  0
 10 11  1  0
 11 12  2  0
 12 13  1  0
 13 14  1  0
 14 15  1  0
 14 16  1  0
 14 17  1  0
 17 18  2  0
 17 19  1  0
 19 20  1  0
 19 21  1  0
 21 22  1  0
 21 23  1  0
 21 24  1  0
 24 25  2  0
 25 26  1  0
 25 27  1  0
 27 28  1  0
 27 29  2  0
 29 30  1  0
 29 31  1  0
 31 32  1  0
 31 33  2  0
 33 34  1  0
 34 35  1  0
 34 36  1  0
 34 37  1  0
 12 38  1  0
  5 39  2  0
 39 40  1  0
 39 41  1  0
 41 42  1  0
 42 43  1  0
 42 44  1  0
 42 45  1  0
 41 46  2  0
 46 47  1  0
 46  2  1  0
 38  9  1  0
 33 24  1  0
M  CHG  2  10  -1  40  -1
M  END
>  <UniqueID>  (26) 
22

>  <SMILES>  (26) 
Cc1ccccc1CNC(=O)CSc1n[n-]/c(=N/C(=O)c2cccc(C)c2[O-])s1

>  <Energy>  (26) 
83.58760106616808

>  <Genealogy>  (26) 
Cc1ccccc1CNC(=O)CSc1n[n-]c(=NC(=O)c2cccc(C)c2[O-])s1 (protonated)
Cc1ccccc1CNC(=O)CSc1n[n-]/c(=N/C(=O)c2cccc(C)c2[O-])s1 (cis-trans isomerization)
Cc1ccccc1CNC(=O)CSc1n[n-]/c(=N/C(=O)c2cccc(C)c2[O-])s1 (3D coordinates assigned)
Cc1ccccc1CNC(=O)CSc1n[n-]/c(=N/C(=O)c2cccc(C)c2[O-])s1 (optimized conformer: 83.58760106616808 kcal/mol)

>  <smiles>  (26) 
Cc1ccccc1CNC(=O)CSc1n[nH]c(=NC(=O)c2cccc(C)c2O)s1

>  <score_type>  (26) 
oracle

>  <origin>  (26) 
adg

>  <m_score__min__energy>  (26) 
-15.470000000000001

>  <m_primary>  (26) 
energy

$$$$
26:0
     RDKit          3D

 62 64  0  0  0  0  0  0  0  0999 V2000
   56.1910   30.4970   44.7730 O   0  0  0  0  0  0  0  0  0  0  0  0
   57.0320   30.2190   43.8810 C   0  0  0  0  0  0  0  0  0  0  0  0
   58.4680   30.3700   44.1570 C   0  0  0  0  0  0  0  0  0  0  0  0
   59.1160   29.5770   45.0300 C   0  0  0  0  0  0  0  0  0  0  0  0
   59.3530   28.1130   44.7280 C   0  0  0  0  0  0  0  0  0  0  0  0
   58.4240   27.1850   45.4830 C   0  0  0  0  0  0  0  0  0  0  0  0
   58.9380   26.0730   46.1640 C   0  0  0  0  0  0  0  0  0  0  0  0
   58.0820   25.1690   46.7850 C   0  0  0  0  0  0  0  0  0  0  0  0
   56.6980   25.3680   46.7370 C   0  0  0  0  0  0  0  0  0  0  0  0
   55.8560   24.4480   47.3590 O   0  0  0  0  0  0  0  0  0  0  0  0
   56.1740   26.4870   46.0620 C   0  0  0  0  0  0  0  0  0  0  0  0
   54.8020   26.6960   45.9970 O   0  0  0  0  0  0  0  0  0  0  0  0
   57.0360   27.3900   45.4430 C   0  0  0  0  0  0  0  0  0  0  0  0
   59.5840   30.1380   46.2300 O   0  0  0  0  0  0  0  0  0  0  0  0
   60.8990   30.5490   46.4600 C   0  0  0  0  0  0  0  0  0  0  0  0
   61.1760   31.2620   47.5530 C   0  0  0  0  0  0  0  0  0  0  0  0
   62.5460   31.6270   47.9310 C   0  0  0  0  0  0  0  0  0  0  0  0
   63.2870   32.2550   47.1250 O   0  0  0  0  0  0  0  0  0  0  0  0
   63.0080   31.2920   49.2470 N   0  0  0  0  0  0  0  0  0  0  0  0
   62.6660   32.0240   50.4650 C   0  0  2  0  0  0  0  0  0  0  0  0
   61.6790   31.2170   51.3530 C   0  0  0  0  0  0  0  0  0  0  0  0
   60.8860   30.2020   50.5660 C   0  0  0  0  0  0  0  0  0  0  0  0
   59.5780   30.5020   50.1550 C   0  0  0  0  0  0  0  0  0  0  0  0
   58.8900   29.6160   49.3320 C   0  0  0  0  0  0  0  0  0  0  0  0
   59.4750   28.4090   48.9440 C   0  0  0  0  0  0  0  0  0  0  0  0
   60.7710   28.1000   49.3560 C   0  0  0  0  0  0  0  0  0  0  0  0
   61.4790   28.9960   50.1570 C   0  0  0  0  0  0  0  0  0  0  0  0
   62.1420   33.3970   50.0920 C   0  0  0  0  0  0  0  0  0  0  0  0
   62.8050   34.0960   49.2820 O   0  0  0  0  0  0  0  0  0  0  0  0
   60.9700   33.9790   50.6770 N   0  0  0  0  0  0  0  0  0  0  0  0
   59.5900   33.5920   50.4160 C   0  0  0  0  0  0  0  0  0  0  0  0
   59.3350   33.6450   48.9410 C   0  0  0  0  0  0  0  0  0  0  0  0
   58.3800   32.7930   48.3540 C   0  0  0  0  0  0  0  0  0  0  0  0
   58.1270   32.8610   46.9810 C   0  0  0  0  0  0  0  0  0  0  0  0
   58.7980   33.7990   46.1880 C   0  0  0  0  0  0  0  0  0  0  0  0
   58.4720   33.8910   44.4670 Cl  0  0  0  0  0  0  0  0  0  0  0  0
   59.7280   34.6690   46.7720 C   0  0  0  0  0  0  0  0  0  0  0  0
   60.0020   34.5890   48.1430 C   0  0  0  0  0  0  0  0  0  0  0  0
   56.6942   29.8636   42.8963 H   0  0  0  0  0  0  0  0  0  0  0  0
   59.0309   31.1565   43.6331 H   0  0  0  0  0  0  0  0  0  0  0  0
   59.2068   27.9513   43.6498 H   0  0  0  0  0  0  0  0  0  0  0  0
   60.3785   27.8772   45.0485 H   0  0  0  0  0  0  0  0  0  0  0  0
   60.0256   25.9140   46.2078 H   0  0  0  0  0  0  0  0  0  0  0  0
   58.4937   24.2970   47.3142 H   0  0  0  0  0  0  0  0  0  0  0  0
   54.8510   24.5060   47.2840 H   0  0  0  0  0  0  0  0  0  0  0  0
   56.6269   28.2674   44.9207 H   0  0  0  0  0  0  0  0  0  0  0  0
   61.6964   30.2880   45.7486 H   0  0  0  0  0  0  0  0  0  0  0  0
   60.3453   31.5889   48.1957 H   0  0  0  0  0  0  0  0  0  0  0  0
   63.5684   32.1625   51.0785 H   0  0  0  0  0  0  0  0  0  0  0  0
   62.2536   30.6901   52.1290 H   0  0  0  0  0  0  0  0  0  0  0  0
   60.9652   31.9305   51.7904 H   0  0  0  0  0  0  0  0  0  0  0  0
   59.0978   31.4357   50.4829 H   0  0  0  0  0  0  0  0  0  0  0  0
   57.8774   29.8683   48.9843 H   0  0  0  0  0  0  0  0  0  0  0  0
   58.9143   27.7027   48.3141 H   0  0  0  0  0  0  0  0  0  0  0  0
   61.2345   27.1506   49.0496 H   0  0  0  0  0  0  0  0  0  0  0  0
   62.5062   28.7572   50.4698 H   0  0  0  0  0  0  0  0  0  0  0  0
   59.4190   32.5691   50.7825 H   0  0  0  0  0  0  0  0  0  0  0  0
   58.9080   34.2821   50.9343 H   0  0  0  0  0  0  0  0  0  0  0  0
   57.8315   32.0718   48.9777 H   0  0  0  0  0  0  0  0  0  0  0  0
   57.3988   32.1757   46.5226 H   0  0  0  0  0  0  0  0  0  0  0  0
   60.2442   35.4168   46.1521 H   0  0  0  0  0  0  0  0  0  0  0  0
   60.7408   35.2666   48.5957 H   0  0  0  0  0  0  0  0  0  0  0  0
  1  2  2  0
  2  3  1  0
  3  4  2  3
  4  5  1  0
  5  6  1  0
  6  7  2  0
  7  8  1  0
  8  9  2  0
  9 10  1  0
  9 11  1  0
 11 12  1  0
 11 13  2  0
  4 14  1  0
 14 15  1  0
 15 16  2  3
 16 17  1  0
 17 18  2  0
 17 19  1  0
 19 20  1  0
 20 21  1  0
 21 22  1  0
 22 23  2  0
 23 24  1  0
 24 25  2  0
 25 26  1  0
 26 27  2  0
 20 28  1  0
 28 29  2  0
 28 30  1  0
 30 31  1  0
 31 32  1  0
 32 33  2  0
 33 34  1  0
 34 35  2  0
 35 36  1  0
 35 37  1  0
 37 38  2  0
 13  6  1  0
 27 22  1  0
 38 32  1  0
  2 39  1  0
  3 40  1  0
  5 41  1  0
  5 42  1  0
  7 43  1  0
  8 44  1  0
 10 45  1  0
 13 46  1  0
 15 47  1  0
 16 48  1  0
 20 49  1  1
 21 50  1  0
 21 51  1  0
 23 52  1  0
 24 53  1  0
 25 54  1  0
 26 55  1  0
 27 56  1  0
 31 57  1  0
 31 58  1  0
 33 59  1  0
 34 60  1  0
 37 61  1  0
 38 62  1  0
M  CHG  3  12  -1  19  -1  30  -1
M  END
>  <UniqueID>  (27) 
23

>  <SMILES>  (27) 
O=CC=C(Cc1ccc(O)c([O-])c1)OC=CC(=O)[N-][C@H](Cc1ccccc1)C(=O)[N-]Cc1ccc(Cl)cc1

>  <Energy>  (27) 
60.67695212091349

>  <Genealogy>  (27) 
O=CC=C(Cc1ccc(O)c([O-])c1)OC=CC(=O)[N-]C(Cc1ccccc1)C(=O)[N-]Cc1ccc(Cl)cc1 (protonated)
O=CC=C(Cc1ccc(O)c([O-])c1)OC=CC(=O)[N-][C@H](Cc1ccccc1)C(=O)[N-]Cc1ccc(Cl)cc1 (chirality)
O=CC=C(Cc1ccc(O)c([O-])c1)OC=CC(=O)[N-][C@H](Cc1ccccc1)C(=O)[N-]Cc1ccc(Cl)cc1 (3D coordinates assigned)
O=CC=C(Cc1ccc(O)c([O-])c1)OC=CC(=O)[N-][C@H](Cc1ccccc1)C(=O)[N-]Cc1ccc(Cl)cc1 (optimized conformer: 60.67695212091349 kcal/mol)

>  <smiles>  (27) 
O=CC=C(Cc1ccc(O)c(O)c1)OC=CC(=O)NC(Cc1ccccc1)C(=O)NCc1ccc(Cl)cc1

>  <score_type>  (27) 
oracle

>  <origin>  (27) 
adg

>  <m_score__min__energy>  (27) 
-16.109999999999999

>  <m_primary>  (27) 
energy

$$$$
27:0
     RDKit          3D

 55 58  0  0  0  0  0  0  0  0999 V2000
   54.7520   27.0590   46.3840 H   0  0  0  0  0  0  0  0  0  0  0  0
   54.4820   26.1530   45.9360 N   0  0  0  0  0  0  0  0  0  0  0  0
   55.8800   25.1350   45.9730 S   0  0  0  0  0  0  0  0  0  0  0  0
   55.6480   24.0330   46.9670 O   0  0  0  0  0  0  0  0  0  0  0  0
   56.1030   24.5430   44.6110 O   0  0  0  0  0  0  0  0  0  0  0  0
   57.2920   26.0710   46.4460 C   0  0  0  0  0  0  0  0  0  0  0  0
   58.1230   25.6250   47.4820 C   0  0  0  0  0  0  0  0  0  0  0  0
   57.8871   24.6884   48.0084 H   0  0  0  0  0  0  0  0  0  0  0  0
   59.2510   26.3650   47.8500 C   0  0  0  0  0  0  0  0  0  0  0  0
   59.8995   26.0076   48.6634 H   0  0  0  0  0  0  0  0  0  0  0  0
   59.5590   27.5640   47.1840 C   0  0  0  0  0  0  0  0  0  0  0  0
   60.7650   28.3720   47.5820 C   0  0  0  0  0  0  0  0  0  0  0  0
   61.5376   27.6980   47.9806 H   0  0  0  0  0  0  0  0  0  0  0  0
   61.1469   28.9030   46.6976 H   0  0  0  0  0  0  0  0  0  0  0  0
   60.3950   29.3810   48.6360 C   0  0  0  0  0  0  0  0  0  0  0  0
   60.6220   29.1070   49.9510 N   0  0  0  0  0  0  0  0  0  0  0  0
   60.2110   30.4890   50.7790 S   0  0  0  0  0  0  0  0  0  0  0  0
   59.7610   31.4590   49.4980 C   0  0  0  0  0  0  0  0  0  0  0  0
   59.3070   32.6780   49.5270 N   0  0  0  0  0  0  0  0  0  0  0  0
   59.9440   33.8640   49.0280 C   0  0  0  0  0  0  0  0  0  0  0  0
   59.3960   34.9920   49.1620 O   0  0  0  0  0  0  0  0  0  0  0  0
   61.2640   33.7580   48.3630 C   0  0  0  0  0  0  0  0  0  0  0  0
   61.3880   33.9690   46.9760 C   0  0  0  0  0  0  0  0  0  0  0  0
   60.4987   34.2229   46.3805 H   0  0  0  0  0  0  0  0  0  0  0  0
   62.6330   33.8580   46.3510 C   0  0  0  0  0  0  0  0  0  0  0  0
   62.7191   34.0205   45.2665 H   0  0  0  0  0  0  0  0  0  0  0  0
   63.7690   33.5410   47.1010 C   0  0  0  0  0  0  0  0  0  0  0  0
   64.7484   33.4564   46.6074 H   0  0  0  0  0  0  0  0  0  0  0  0
   63.6600   33.3320   48.4760 C   0  0  0  0  0  0  0  0  0  0  0  0
   64.5550   33.0847   49.0657 H   0  0  0  0  0  0  0  0  0  0  0  0
   62.4160   33.4360   49.1070 C   0  0  0  0  0  0  0  0  0  0  0  0
   62.3368   33.2653   50.1908 H   0  0  0  0  0  0  0  0  0  0  0  0
   59.9180   30.6920   48.3520 C   0  0  0  0  0  0  0  0  0  0  0  0
   59.6260   31.2160   47.0070 C   0  0  0  0  0  0  0  0  0  0  0  0
   60.3140   30.8130   46.0300 O   0  0  0  0  0  0  0  0  0  0  0  0
   58.6180   32.2180   46.8200 N   0  0  0  0  0  0  0  0  0  0  0  0
   58.1290   32.6000   47.6580 H   0  0  0  0  0  0  0  0  0  0  0  0
   58.4890   32.9550   45.5660 C   0  0  0  0  0  0  0  0  0  0  0  0
   57.8415   33.8306   45.7214 H   0  0  0  0  0  0  0  0  0  0  0  0
   59.4841   33.2858   45.2338 H   0  0  0  0  0  0  0  0  0  0  0  0
   57.8830   32.0650   44.5150 C   0  0  0  0  0  0  0  0  0  0  0  0
   57.1870   30.9080   44.8950 C   0  0  0  0  0  0  0  0  0  0  0  0
   57.1204   30.6324   45.9578 H   0  0  0  0  0  0  0  0  0  0  0  0
   56.5770   30.1030   43.9260 C   0  0  0  0  0  0  0  0  0  0  0  0
   56.0382   29.1929   44.2284 H   0  0  0  0  0  0  0  0  0  0  0  0
   56.6510   30.4530   42.5760 C   0  0  0  0  0  0  0  0  0  0  0  0
   56.1723   29.8177   41.8163 H   0  0  0  0  0  0  0  0  0  0  0  0
   57.3330   31.6100   42.1900 C   0  0  0  0  0  0  0  0  0  0  0  0
   57.3903   31.8856   41.1266 H   0  0  0  0  0  0  0  0  0  0  0  0
   57.9430   32.4180   43.1560 C   0  0  0  0  0  0  0  0  0  0  0  0
   58.4715   33.3330   42.8505 H   0  0  0  0  0  0  0  0  0  0  0  0
   58.7140   28.0160   46.1590 C   0  0  0  0  0  0  0  0  0  0  0  0
   58.9391   28.9603   45.6417 H   0  0  0  0  0  0  0  0  0  0  0  0
   57.5880   27.2740   45.7910 C   0  0  0  0  0  0  0  0  0  0  0  0
   56.9324   27.6354   44.9850 H   0  0  0  0  0  0  0  0  0  0  0  0
  1  2  1  0
  2  3  1  0
  3  4  2  0
  3  5  2  0
  3  6  1  0
  6  7  2  0
  7  8  1  0
  7  9  1  0
  9 10  1  0
  9 11  2  0
 11 12  1  0
 12 13  1  0
 12 14  1  0
 12 15  1  0
 15 16  1  0
 16 17  1  0
 17 18  1  0
 18 19  2  0
 19 20  1  0
 20 21  2  0
 20 22  1  0
 22 23  2  0
 23 24  1  0
 23 25  1  0
 25 26  1  0
 25 27  2  0
 27 28  1  0
 27 29  1  0
 29 30  1  0
 29 31  2  0
 31 32  1  0
 18 33  1  0
 33 34  1  0
 34 35  2  0
 34 36  1  0
 36 37  1  0
 36 38  1  0
 38 39  1  0
 38 40  1  0
 38 41  1  0
 41 42  2  0
 42 43  1  0
 42 44  1  0
 44 45  1  0
 44 46  2  0
 46 47  1  0
 46 48  1  0
 48 49  1  0
 48 50  2  0
 50 51  1  0
 11 52  1  0
 52 53  1  0
 52 54  2  0
 54 55  1  0
 54  6  1  0
 33 15  2  0
 50 41  1  0
 31 22  1  0
M  CHG  2   2  -1  16  -1
M  END
>  <UniqueID>  (28) 
24

>  <SMILES>  (28) 
[NH-]S(=O)(=O)c1ccc(Cc2[n-]s/c(=N\C(=O)c3ccccc3)c2C(=O)NCc2ccccc2)cc1

>  <Energy>  (28) 
96.24832361107705

>  <Genealogy>  (28) 
[NH-]S(=O)(=O)c1ccc(Cc2[n-]sc(=NC(=O)c3ccccc3)c2C(=O)NCc2ccccc2)cc1 (protonated)
[NH-]S(=O)(=O)c1ccc(Cc2[n-]s/c(=N\C(=O)c3ccccc3)c2C(=O)NCc2ccccc2)cc1 (cis-trans isomerization)
[NH-]S(=O)(=O)c1ccc(Cc2[n-]s/c(=N\C(=O)c3ccccc3)c2C(=O)NCc2ccccc2)cc1 (3D coordinates assigned)
[NH-]S(=O)(=O)c1ccc(Cc2[n-]s/c(=N\C(=O)c3ccccc3)c2C(=O)NCc2ccccc2)cc1 (optimized conformer: 96.24832361107705 kcal/mol)

>  <smiles>  (28) 
NS(=O)(=O)c1ccc(Cc2[nH]sc(=NC(=O)c3ccccc3)c2C(=O)NCc2ccccc2)cc1

>  <score_type>  (28) 
oracle

>  <origin>  (28) 
adg

>  <m_score__min__energy>  (28) 
-13.529999999999999

>  <m_primary>  (28) 
energy

$$$$
28:0
     RDKit          3D

 54 56  0  0  0  0  0  0  0  0999 V2000
   55.1500   29.2820   44.8430 O   0  0  0  0  0  0  0  0  0  0  0  0
   56.3260   29.6220   44.5430 C   0  0  0  0  0  0  0  0  0  0  0  0
   57.0020   28.9930   43.3630 C   0  0  0  0  0  0  0  0  0  0  0  0
   58.1070   28.0200   43.7960 C   0  0  0  0  0  0  0  0  0  0  0  0
   57.7240   27.2240   45.0520 C   0  0  0  0  0  0  0  0  0  0  0  0
   58.0410   27.9890   46.2560 N   0  0  0  0  0  0  0  0  0  0  0  0
   59.1460   27.6540   47.1120 C   0  0  0  0  0  0  0  0  0  0  0  0
   59.8150   26.6090   46.8850 O   0  0  0  0  0  0  0  0  0  0  0  0
   59.5060   28.5070   48.2700 C   0  0  0  0  0  0  0  0  0  0  0  0
   60.5860   28.1800   49.1090 C   0  0  0  0  0  0  0  0  0  0  0  0
   60.9130   28.9940   50.1960 C   0  0  0  0  0  0  0  0  0  0  0  0
   60.1700   30.1550   50.4670 C   0  0  0  0  0  0  0  0  0  0  0  0
   60.5110   31.0240   51.6180 C   0  0  0  0  0  0  0  0  0  0  0  0
   60.2950   30.6120   52.7890 O   0  0  0  0  0  0  0  0  0  0  0  0
   61.1310   32.3060   51.4460 N   0  0  0  0  0  0  0  0  0  0  0  0
   62.0500   32.6700   50.4050 C   0  0  0  0  0  0  0  0  0  0  0  0
   63.2170   31.9240   50.1590 C   0  0  0  0  0  0  0  0  0  0  0  0
   64.0860   32.2960   49.1290 C   0  0  0  0  0  0  0  0  0  0  0  0
   63.7900   33.4020   48.3280 C   0  0  0  0  0  0  0  0  0  0  0  0
   62.6200   34.1320   48.5520 C   0  0  0  0  0  0  0  0  0  0  0  0
   61.7480   33.7650   49.5820 C   0  0  0  0  0  0  0  0  0  0  0  0
   60.6160   34.4820   49.7880 F   0  0  0  0  0  0  0  0  0  0  0  0
   59.0720   30.4660   49.6500 C   0  0  0  0  0  0  0  0  0  0  0  0
   58.7440   29.6510   48.5620 C   0  0  0  0  0  0  0  0  0  0  0  0
   57.0370   30.5680   45.3450 N   0  0  0  0  0  0  0  0  0  0  0  0
   58.4720   30.8040   45.2350 C   0  0  0  0  0  0  0  0  0  0  0  0
   58.7860   32.2440   45.5630 C   0  0  0  0  0  0  0  0  0  0  0  0
   57.9480   33.2470   45.0420 C   0  0  0  0  0  0  0  0  0  0  0  0
   58.2180   34.5960   45.2840 C   0  0  0  0  0  0  0  0  0  0  0  0
   59.3260   34.9600   46.0500 C   0  0  0  0  0  0  0  0  0  0  0  0
   60.1640   33.9770   46.5780 C   0  0  0  0  0  0  0  0  0  0  0  0
   59.9070   32.6210   46.3400 C   0  0  0  0  0  0  0  0  0  0  0  0
   61.0080   31.4400   47.0410 Cl  0  0  0  0  0  0  0  0  0  0  0  0
   56.2531   28.4432   42.7740 H   0  0  0  0  0  0  0  0  0  0  0  0
   57.4633   29.7926   42.7647 H   0  0  0  0  0  0  0  0  0  0  0  0
   58.2983   27.3139   42.9745 H   0  0  0  0  0  0  0  0  0  0  0  0
   59.0028   28.6126   44.0336 H   0  0  0  0  0  0  0  0  0  0  0  0
   56.6450   27.0113   45.0313 H   0  0  0  0  0  0  0  0  0  0  0  0
   58.2943   26.2835   45.0662 H   0  0  0  0  0  0  0  0  0  0  0  0
   57.4190   28.7920   46.4960 H   0  0  0  0  0  0  0  0  0  0  0  0
   61.1785   27.2753   48.9076 H   0  0  0  0  0  0  0  0  0  0  0  0
   61.7590   28.7238   50.8450 H   0  0  0  0  0  0  0  0  0  0  0  0
   63.4466   31.0450   50.7792 H   0  0  0  0  0  0  0  0  0  0  0  0
   65.0040   31.7173   48.9489 H   0  0  0  0  0  0  0  0  0  0  0  0
   64.4775   33.6977   47.5218 H   0  0  0  0  0  0  0  0  0  0  0  0
   62.3839   34.9981   47.9163 H   0  0  0  0  0  0  0  0  0  0  0  0
   58.4650   31.3573   49.8671 H   0  0  0  0  0  0  0  0  0  0  0  0
   57.8818   29.9077   47.9291 H   0  0  0  0  0  0  0  0  0  0  0  0
   59.0041   30.1461   45.9378 H   0  0  0  0  0  0  0  0  0  0  0  0
   58.7949   30.5899   44.2055 H   0  0  0  0  0  0  0  0  0  0  0  0
   57.0722   32.9663   44.4386 H   0  0  0  0  0  0  0  0  0  0  0  0
   57.5568   35.3717   44.8705 H   0  0  0  0  0  0  0  0  0  0  0  0
   59.5391   36.0227   46.2378 H   0  0  0  0  0  0  0  0  0  0  0  0
   61.0330   34.2694   47.1857 H   0  0  0  0  0  0  0  0  0  0  0  0
  1  2  2  0
  2  3  1  0
  3  4  1  0
  4  5  1  0
  5  6  1  0
  6  7  1  0
  7  8  2  0
  7  9  1  0
  9 10  2  0
 10 11  1  0
 11 12  2  0
 12 13  1  0
 13 14  2  0
 13 15  1  0
 15 16  1  0
 16 17  2  0
 17 18  1  0
 18 19  2  0
 19 20  1  0
 20 21  2  0
 21 22  1  0
 12 23  1  0
 23 24  2  0
  2 25  1  0
 25 26  1  0
 26 27  1  0
 27 28  2  0
 28 29  1  0
 29 30  2  0
 30 31  1  0
 31 32  2  0
 32 33  1  0
 24  9  1  0
 32 27  1  0
 21 16  1  0
  3 34  1  0
  3 35  1  0
  4 36  1  0
  4 37  1  0
  5 38  1  0
  5 39  1  0
  6 40  1  0
 10 41  1  0
 11 42  1  0
 17 43  1  0
 18 44  1  0
 19 45  1  0
 20 46  1  0
 23 47  1  0
 24 48  1  0
 26 49  1  0
 26 50  1  0
 28 51  1  0
 29 52  1  0
 30 53  1  0
 31 54  1  0
M  CHG  2  15  -1  25  -1
M  END
>  <UniqueID>  (29) 
25

>  <SMILES>  (29) 
O=C(CCCNC(=O)c1ccc(C(=O)[N-]c2ccccc2F)cc1)[N-]Cc1ccccc1Cl

>  <Energy>  (29) 
57.76664691581833

>  <Genealogy>  (29) 
O=C(CCCNC(=O)c1ccc(C(=O)[N-]c2ccccc2F)cc1)[N-]Cc1ccccc1Cl (protonated)
O=C(CCCNC(=O)c1ccc(C(=O)[N-]c2ccccc2F)cc1)[N-]Cc1ccccc1Cl (3D coordinates assigned)
O=C(CCCNC(=O)c1ccc(C(=O)[N-]c2ccccc2F)cc1)[N-]Cc1ccccc1Cl (optimized conformer: 57.76664691581833 kcal/mol)

>  <smiles>  (29) 
O=C(CCCNC(=O)c1ccc(C(=O)Nc2ccccc2F)cc1)NCc1ccccc1Cl

>  <score_type>  (29) 
oracle

>  <origin>  (29) 
adg

>  <m_score__min__energy>  (29) 
-11.19

>  <m_primary>  (29) 
energy

$$$$
29:0
     RDKit          3D

 35 36  0  0  0  0  0  0  0  0999 V2000
   61.1760   30.1490   48.5810 O   0  0  0  0  0  0  0  0  0  0  0  0
   60.5880   30.1490   47.4990 C   0  0  0  0  0  0  0  0  0  0  0  0
   59.7650   29.0800   46.9160 C   0  0  0  0  0  0  0  0  0  0  0  0
   58.0740   29.5390   46.6710 S   0  0  0  0  0  0  0  0  0  0  0  0
   57.6460   30.1390   45.0680 C   0  0  0  0  0  0  0  0  0  0  0  0
   58.5260   31.0010   44.4750 N   0  0  0  0  0  0  0  0  0  0  0  0
   58.3420   31.5460   43.3040 N   0  0  0  0  0  0  0  0  0  0  0  0
   57.2240   31.2530   42.6210 C   0  0  0  0  0  0  0  0  0  0  0  0
   57.0130   31.7590   41.4900 O   0  0  0  0  0  0  0  0  0  0  0  0
   56.3130   30.4080   43.1480 N   0  0  0  0  0  0  0  0  0  0  0  0
   56.5050   29.8380   44.3730 C   0  0  0  0  0  0  0  0  0  0  0  0
   55.6470   29.0600   44.8460 O   0  0  0  0  0  0  0  0  0  0  0  0
   60.7230   31.3510   46.7010 N   0  0  0  0  0  0  0  0  0  0  0  0
   61.5080   32.4800   47.1700 C   0  0  0  0  0  0  0  0  0  0  0  0
   60.6560   33.6030   47.7260 C   0  0  0  0  0  0  0  0  0  0  0  0
   59.4230   33.7630   46.8800 C   0  0  0  0  0  0  0  0  0  0  0  0
   59.4850   34.4160   45.6570 C   0  0  0  0  0  0  0  0  0  0  0  0
   58.3890   34.5880   44.8420 C   0  0  0  0  0  0  0  0  0  0  0  0
   57.1630   34.1000   45.2360 C   0  0  0  0  0  0  0  0  0  0  0  0
   57.1090   33.4540   46.4510 C   0  0  0  0  0  0  0  0  0  0  0  0
   58.2070   33.2810   47.2640 C   0  0  0  0  0  0  0  0  0  0  0  0
   60.1944   28.8030   45.9419 H   0  0  0  0  0  0  0  0  0  0  0  0
   59.7711   28.2434   47.6301 H   0  0  0  0  0  0  0  0  0  0  0  0
   59.0610   32.1920   42.9280 H   0  0  0  0  0  0  0  0  0  0  0  0
   55.4640   30.2080   42.5870 H   0  0  0  0  0  0  0  0  0  0  0  0
   60.2390   31.4030   45.7530 H   0  0  0  0  0  0  0  0  0  0  0  0
   62.1870   32.1302   47.9616 H   0  0  0  0  0  0  0  0  0  0  0  0
   62.0574   32.8808   46.3054 H   0  0  0  0  0  0  0  0  0  0  0  0
   60.3633   33.3642   48.7591 H   0  0  0  0  0  0  0  0  0  0  0  0
   61.2321   34.5400   47.7153 H   0  0  0  0  0  0  0  0  0  0  0  0
   60.4545   34.8145   45.3235 H   0  0  0  0  0  0  0  0  0  0  0  0
   58.4920   35.1127   43.8807 H   0  0  0  0  0  0  0  0  0  0  0  0
   56.2675   34.2207   44.6087 H   0  0  0  0  0  0  0  0  0  0  0  0
   56.1406   33.0564   46.7889 H   0  0  0  0  0  0  0  0  0  0  0  0
   58.1028   32.7536   48.2237 H   0  0  0  0  0  0  0  0  0  0  0  0
  1  2  2  0
  2  3  1  0
  3  4  1  0
  4  5  1  0
  5  6  2  0
  6  7  1  0
  7  8  1  0
  8  9  2  0
  8 10  1  0
 10 11  1  0
 11 12  2  0
  2 13  1  0
 13 14  1  0
 14 15  1  0
 15 16  1  0
 16 17  2  0
 17 18  1  0
 18 19  2  0
 19 20  1  0
 20 21  2  0
 11  5  1  0
 21 16  1  0
  3 22  1  0
  3 23  1  0
  7 24  1  0
 10 25  1  0
 13 26  1  0
 14 27  1  0
 14 28  1  0
 15 29  1  0
 15 30  1  0
 17 31  1  0
 18 32  1  0
 19 33  1  0
 20 34  1  0
 21 35  1  0
M  END
>  <smiles>  (30) 
O=C(CSc1n[nH]c(=O)[nH]c1=O)NCCc1ccccc1

>  <score_type>  (30) 
oracle

>  <origin>  (30) 
adg

>  <m_score__min__energy>  (30) 
-8.1799999999999997

>  <m_primary>  (30) 
energy

$$$$
30:0
     RDKit          3D

 39 41  0  0  0  0  0  0  0  0999 V2000
   57.7810   27.6870   44.0870 C   0  0  0  0  0  0  0  0  0  0  0  0
   56.6330   28.0300   45.4010 S   0  0  0  0  0  0  0  0  0  0  0  0
   55.8220   26.7960   45.6820 O   0  0  0  0  0  0  0  0  0  0  0  0
   57.3980   28.4180   46.6360 O   0  0  0  0  0  0  0  0  0  0  0  0
   55.5940   29.3390   44.9170 N   0  0  0  0  0  0  0  0  0  0  0  0
   55.8410   29.7180   43.5250 C   0  0  0  0  0  0  0  0  0  0  0  0
   56.8670   30.8510   43.4590 C   0  0  0  0  0  0  0  0  0  0  0  0
   57.5410   31.0120   44.7480 N   0  0  0  0  0  0  0  0  0  0  0  0
   58.1030   32.2580   45.2020 C   0  0  0  0  0  0  0  0  0  0  0  0
   57.7420   33.4630   44.5680 C   0  0  0  0  0  0  0  0  0  0  0  0
   58.3430   34.6670   44.9360 C   0  0  0  0  0  0  0  0  0  0  0  0
   59.3150   34.6880   45.9330 C   0  0  0  0  0  0  0  0  0  0  0  0
   59.6790   33.5060   46.5790 C   0  0  0  0  0  0  0  0  0  0  0  0
   59.0720   32.2850   46.2380 C   0  0  0  0  0  0  0  0  0  0  0  0
   59.4300   31.0740   47.0170 C   0  0  0  0  0  0  0  0  0  0  0  0
   59.6060   29.8550   46.4370 N   0  0  0  0  0  0  0  0  0  0  0  0
   59.9570   29.0820   47.4740 C   0  0  0  0  0  0  0  0  0  0  0  0
   60.2600   27.7230   47.4610 C   0  0  0  0  0  0  0  0  0  0  0  0
   60.6110   27.1220   48.6860 C   0  0  0  0  0  0  0  0  0  0  0  0
   60.6520   27.8880   49.8730 C   0  0  0  0  0  0  0  0  0  0  0  0
   60.3410   29.2610   49.8450 C   0  0  0  0  0  0  0  0  0  0  0  0
   59.9960   29.8190   48.6160 C   0  0  0  0  0  0  0  0  0  0  0  0
   59.6720   31.0930   48.3560 N   0  0  0  0  0  0  0  0  0  0  0  0
   58.7520   27.3969   44.5148 H   0  0  0  0  0  0  0  0  0  0  0  0
   57.3935   26.8654   43.4667 H   0  0  0  0  0  0  0  0  0  0  0  0
   57.9077   28.5865   43.4667 H   0  0  0  0  0  0  0  0  0  0  0  0
   56.2258   28.8470   42.9743 H   0  0  0  0  0  0  0  0  0  0  0  0
   54.8982   30.0614   43.0742 H   0  0  0  0  0  0  0  0  0  0  0  0
   57.6147   30.6169   42.6869 H   0  0  0  0  0  0  0  0  0  0  0  0
   56.3454   31.7875   43.2124 H   0  0  0  0  0  0  0  0  0  0  0  0
   57.6000   30.1740   45.3690 H   0  0  0  0  0  0  0  0  0  0  0  0
   56.9792   33.4546   43.7755 H   0  0  0  0  0  0  0  0  0  0  0  0
   58.0483   35.6022   44.4373 H   0  0  0  0  0  0  0  0  0  0  0  0
   59.7962   35.6371   46.2115 H   0  0  0  0  0  0  0  0  0  0  0  0
   60.4495   33.5300   47.3637 H   0  0  0  0  0  0  0  0  0  0  0  0
   60.2266   27.1401   46.5287 H   0  0  0  0  0  0  0  0  0  0  0  0
   60.8547   26.0498   48.7188 H   0  0  0  0  0  0  0  0  0  0  0  0
   60.9284   27.4090   50.8239 H   0  0  0  0  0  0  0  0  0  0  0  0
   60.3694   29.8707   50.7601 H   0  0  0  0  0  0  0  0  0  0  0  0
  1  2  1  0
  2  3  2  0
  2  4  2  0
  2  5  1  0
  5  6  1  0
  6  7  1  0
  7  8  1  0
  8  9  1  0
  9 10  2  0
 10 11  1  0
 11 12  2  0
 12 13  1  0
 13 14  2  0
 14 15  1  0
 15 16  2  0
 16 17  1  0
 17 18  2  0
 18 19  1  0
 19 20  2  0
 20 21  1  0
 21 22  2  0
 22 23  1  0
 14  9  1  0
 23 15  1  0
 22 17  1  0
  1 24  1  0
  1 25  1  0
  1 26  1  0
  6 27  1  0
  6 28  1  0
  7 29  1  0
  7 30  1  0
  8 31  1  0
 10 32  1  0
 11 33  1  0
 12 34  1  0
 13 35  1  0
 18 36  1  0
 19 37  1  0
 20 38  1  0
 21 39  1  0
M  CHG  2   5  -1  23  -1
M  END
>  <UniqueID>  (31) 
26

>  <SMILES>  (31) 
CS(=O)(=O)[N-]CCNc1ccccc1-c1nc2ccccc2[n-]1

>  <Energy>  (31) 
74.08155349635662

>  <Genealogy>  (31) 
CS(=O)(=O)[N-]CCNc1ccccc1-c1nc2ccccc2[n-]1 (protonated)
CS(=O)(=O)[N-]CCNc1ccccc1-c1nc2ccccc2[n-]1 (3D coordinates assigned)
CS(=O)(=O)[N-]CCNc1ccccc1-c1nc2ccccc2[n-]1 (optimized conformer: 74.08155349635662 kcal/mol)

>  <smiles>  (31) 
CS(=O)(=O)NCCNc1ccccc1-c1nc2ccccc2[nH]1

>  <score_type>  (31) 
oracle

>  <origin>  (31) 
adg

>  <m_score__min__energy>  (31) 
-10.51

>  <m_primary>  (31) 
energy

$$$$
31:0
     RDKit          3D

 81 85  0  0  0  0  0  0  0  0999 V2000
   64.6050   33.0810   49.0630 C   0  0  0  0  0  0  0  0  0  0  0  0
   63.2700   33.3770   48.5430 N   0  0  0  0  0  0  0  0  0  0  0  0
   62.3420   34.2340   49.2850 C   0  0  0  0  0  0  0  0  0  0  0  0
   61.2420   33.4190   49.9080 C   0  0  0  0  0  0  0  0  0  0  0  0
   59.9040   33.7950   49.7310 C   0  0  0  0  0  0  0  0  0  0  0  0
   58.8780   33.0450   50.3110 C   0  0  0  0  0  0  0  0  0  0  0  0
   59.1750   31.8970   51.0710 C   0  0  0  0  0  0  0  0  0  0  0  0
   58.0850   31.0970   51.6880 C   0  0  0  0  0  0  0  0  0  0  0  0
   58.3610   29.8540   52.2860 C   0  0  0  0  0  0  0  0  0  0  0  0
   57.3350   29.1040   52.8690 C   0  0  0  0  0  0  0  0  0  0  0  0
   56.0240   29.5850   52.8640 C   0  0  0  0  0  0  0  0  0  0  0  0
   54.7370   28.6450   53.5980 Cl  0  0  0  0  0  0  0  0  0  0  0  0
   55.7370   30.8170   52.2710 C   0  0  0  0  0  0  0  0  0  0  0  0
   56.7590   31.5700   51.6860 C   0  0  0  0  0  0  0  0  0  0  0  0
   60.5200   31.5180   51.2340 C   0  0  0  0  0  0  0  0  0  0  0  0
   61.5430   32.2720   50.6550 C   0  0  0  0  0  0  0  0  0  0  0  0
   62.8210   32.7250   47.3480 C   0  0  0  0  0  0  0  0  0  0  0  0
   63.5760   31.9070   46.7580 O   0  0  0  0  0  0  0  0  0  0  0  0
   61.5060   33.0880   46.7340 C   0  0  0  0  0  0  0  0  0  0  0  0
   60.4840   32.1300   47.1510 N   0  0  0  0  0  0  0  0  0  0  0  0
   60.6930   31.0060   47.8550 C   0  0  0  0  0  0  0  0  0  0  0  0
   59.4900   30.3410   47.9550 C   0  0  0  0  0  0  0  0  0  0  0  0
   59.2830   29.0360   48.6710 C   0  0  0  0  0  0  0  0  0  0  0  0
   60.5740   28.2290   48.8390 C   0  0  0  0  0  0  0  0  0  0  0  0
   61.1890   28.5000   50.1400 N   0  0  0  0  0  0  0  0  0  0  0  0
   61.1780   27.5560   51.2180 C   0  0  0  0  0  0  0  0  0  0  0  0
   60.7870   26.3720   51.0280 O   0  0  0  0  0  0  0  0  0  0  0  0
   61.6680   27.9590   52.5750 C   0  0  0  0  0  0  0  0  0  0  0  0
   62.5860   29.1420   52.4790 C   0  0  0  0  0  0  0  0  0  0  0  0
   62.5800   30.1360   53.4690 C   0  0  0  0  0  0  0  0  0  0  0  0
   63.4210   31.2430   53.3320 C   0  0  0  0  0  0  0  0  0  0  0  0
   64.2560   31.3470   52.2190 C   0  0  0  0  0  0  0  0  0  0  0  0
   64.2520   30.3290   51.2630 C   0  0  0  0  0  0  0  0  0  0  0  0
   63.4240   29.2610   51.4110 N   0  0  0  0  0  0  0  0  0  0  0  0
   58.5240   31.0370   47.3140 N   0  0  0  0  0  0  0  0  0  0  0  0
   59.1720   32.1160   46.8300 C   0  0  0  0  0  0  0  0  0  0  0  0
   58.3590   33.3600   45.8250 S   0  0  0  0  0  0  0  0  0  0  0  0
   58.5190   32.4450   44.2510 C   0  0  0  0  0  0  0  0  0  0  0  0
   58.2180   30.9940   44.4900 C   0  0  0  0  0  0  0  0  0  0  0  0
   56.8940   30.5700   44.6790 C   0  0  0  0  0  0  0  0  0  0  0  0
   56.6130   29.2260   44.9410 C   0  0  0  0  0  0  0  0  0  0  0  0
   57.6540   28.2870   45.0400 C   0  0  0  0  0  0  0  0  0  0  0  0
   57.3460   26.8280   45.2710 C   0  0  0  0  0  0  0  0  0  0  0  0
   57.5610   26.0920   44.1190 F   0  0  0  0  0  0  0  0  0  0  0  0
   56.0240   26.6980   45.6480 F   0  0  0  0  0  0  0  0  0  0  0  0
   58.1530   26.3120   46.2700 F   0  0  0  0  0  0  0  0  0  0  0  0
   58.9780   28.7120   44.8320 C   0  0  0  0  0  0  0  0  0  0  0  0
   59.2590   30.0560   44.5720 C   0  0  0  0  0  0  0  0  0  0  0  0
   64.5797   33.0866   50.1627 H   0  0  0  0  0  0  0  0  0  0  0  0
   64.9251   32.0901   48.7086 H   0  0  0  0  0  0  0  0  0  0  0  0
   65.3140   33.8438   48.7086 H   0  0  0  0  0  0  0  0  0  0  0  0
   62.8934   34.7608   50.0777 H   0  0  0  0  0  0  0  0  0  0  0  0
   61.8931   34.9549   48.5859 H   0  0  0  0  0  0  0  0  0  0  0  0
   59.6602   34.6851   49.1324 H   0  0  0  0  0  0  0  0  0  0  0  0
   57.8311   33.3531   50.1732 H   0  0  0  0  0  0  0  0  0  0  0  0
   59.3915   29.4692   52.2950 H   0  0  0  0  0  0  0  0  0  0  0  0
   57.5611   28.1325   53.3328 H   0  0  0  0  0  0  0  0  0  0  0  0
   54.7041   31.1954   52.2645 H   0  0  0  0  0  0  0  0  0  0  0  0
   56.5256   32.5390   51.2208 H   0  0  0  0  0  0  0  0  0  0  0  0
   60.7676   30.6216   51.8215 H   0  0  0  0  0  0  0  0  0  0  0  0
   62.5908   31.9639   50.7860 H   0  0  0  0  0  0  0  0  0  0  0  0
   61.2160   34.0972   47.0617 H   0  0  0  0  0  0  0  0  0  0  0  0
   61.5985   33.0667   45.6381 H   0  0  0  0  0  0  0  0  0  0  0  0
   61.6534   30.6748   48.2769 H   0  0  0  0  0  0  0  0  0  0  0  0
   58.8697   29.2462   49.6685 H   0  0  0  0  0  0  0  0  0  0  0  0
   58.5972   28.4321   48.0586 H   0  0  0  0  0  0  0  0  0  0  0  0
   60.3412   27.1564   48.7662 H   0  0  0  0  0  0  0  0  0  0  0  0
   61.2791   28.5215   48.0470 H   0  0  0  0  0  0  0  0  0  0  0  0
   61.5550   29.4620   50.3210 H   0  0  0  0  0  0  0  0  0  0  0  0
   60.8064   28.2211   53.2066 H   0  0  0  0  0  0  0  0  0  0  0  0
   62.2222   27.1167   53.0148 H   0  0  0  0  0  0  0  0  0  0  0  0
   61.9199   30.0446   54.3441 H   0  0  0  0  0  0  0  0  0  0  0  0
   63.4249   32.0308   54.0997 H   0  0  0  0  0  0  0  0  0  0  0  0
   64.9109   32.2221   52.0958 H   0  0  0  0  0  0  0  0  0  0  0  0
   64.9188   30.3913   50.3903 H   0  0  0  0  0  0  0  0  0  0  0  0
   57.8093   32.8515   43.5155 H   0  0  0  0  0  0  0  0  0  0  0  0
   59.5435   32.5509   43.8648 H   0  0  0  0  0  0  0  0  0  0  0  0
   56.0725   31.2992   44.6207 H   0  0  0  0  0  0  0  0  0  0  0  0
   55.5701   28.9011   45.0706 H   0  0  0  0  0  0  0  0  0  0  0  0
   59.7989   27.9810   44.8743 H   0  0  0  0  0  0  0  0  0  0  0  0
   60.3006   30.3803   44.4310 H   0  0  0  0  0  0  0  0  0  0  0  0
  1  2  1  0
  2  3  1  0
  3  4  1  0
  4  5  2  0
  5  6  1  0
  6  7  2  0
  7  8  1  0
  8  9  2  0
  9 10  1  0
 10 11  2  0
 11 12  1  0
 11 13  1  0
 13 14  2  0
  7 15  1  0
 15 16  2  0
  2 17  1  0
 17 18  2  0
 17 19  1  0
 19 20  1  0
 20 21  1  0
 21 22  2  0
 22 23  1  0
 23 24  1  0
 24 25  1  0
 25 26  1  0
 26 27  2  0
 26 28  1  0
 28 29  1  0
 29 30  2  0
 30 31  1  0
 31 32  2  0
 32 33  1  0
 33 34  2  0
 22 35  1  0
 35 36  2  0
 36 37  1  0
 37 38  1  0
 38 39  1  0
 39 40  2  0
 40 41  1  0
 41 42  2  0
 42 43  1  0
 43 44  1  0
 43 45  1  0
 43 46  1  0
 42 47  1  0
 47 48  2  0
 16  4  1  0
 36 20  1  0
 48 39  1  0
 14  8  1  0
 34 29  1  0
  1 49  1  0
  1 50  1  0
  1 51  1  0
  3 52  1  0
  3 53  1  0
  5 54  1  0
  6 55  1  0
  9 56  1  0
 10 57  1  0
 13 58  1  0
 14 59  1  0
 15 60  1  0
 16 61  1  0
 19 62  1  0
 19 63  1  0
 21 64  1  0
 23 65  1  0
 23 66  1  0
 24 67  1  0
 24 68  1  0
 25 69  1  0
 28 70  1  0
 28 71  1  0
 30 72  1  0
 31 73  1  0
 32 74  1  0
 33 75  1  0
 38 76  1  0
 38 77  1  0
 40 78  1  0
 41 79  1  0
 47 80  1  0
 48 81  1  0
M  END
>  <UniqueID>  (32) 
27

>  <SMILES>  (32) 
CN(Cc1ccc(-c2ccc(Cl)cc2)cc1)C(=O)Cn1cc(CCNC(=O)Cc2ccccn2)nc1SCc1ccc(C(F)(F)F)cc1

>  <Energy>  (32) 
106.81596359009967

>  <Genealogy>  (32) 
CN(Cc1ccc(-c2ccc(Cl)cc2)cc1)C(=O)Cn1cc(CCNC(=O)Cc2ccccn2)nc1SCc1ccc(C(F)(F)F)cc1 (3D coordinates assigned)
CN(Cc1ccc(-c2ccc(Cl)cc2)cc1)C(=O)Cn1cc(CCNC(=O)Cc2ccccn2)nc1SCc1ccc(C(F)(F)F)cc1 (optimized conformer: 106.81596359009967 kcal/mol)

>  <smiles>  (32) 
CN(Cc1ccc(-c2ccc(Cl)cc2)cc1)C(=O)Cn1cc(CCNC(=O)Cc2ccccn2)nc1SCc1ccc(C(F)(F)F)cc1

>  <score_type>  (32) 
oracle

>  <origin>  (32) 
adg

>  <m_score__min__energy>  (32) 
-10.81

>  <m_primary>  (32) 
energy

$$$$
32:0
     RDKit          3D

 33 35  0  0  0  0  0  0  0  0999 V2000
   53.3540   26.3840   46.0220 H   0  0  0  0  0  0  0  0  0  0  0  0
   54.1790   25.8640   45.6480 N   0  0  0  0  0  0  0  0  0  0  0  0
   55.3850   26.1700   45.9980 C   0  0  0  0  0  0  0  0  0  0  0  0
   56.1210   25.3080   46.7490 N   0  0  0  0  0  0  0  0  0  0  0  0
   57.3910   25.6060   47.1300 C   0  0  0  0  0  0  0  0  0  0  0  0
   58.0380   24.7780   47.8260 O   0  0  0  0  0  0  0  0  0  0  0  0
   57.9640   26.8310   46.7430 C   0  0  0  0  0  0  0  0  0  0  0  0
   59.2720   27.1980   47.1000 C   0  0  0  0  0  0  0  0  0  0  0  0
   59.8876   26.5171   47.7062 H   0  0  0  0  0  0  0  0  0  0  0  0
   59.7920   28.4270   46.6860 C   0  0  0  0  0  0  0  0  0  0  0  0
   60.8206   28.7037   46.9605 H   0  0  0  0  0  0  0  0  0  0  0  0
   59.0130   29.3130   45.9220 C   0  0  0  0  0  0  0  0  0  0  0  0
   59.5650   30.5670   45.4730 N   0  0  0  0  0  0  0  0  0  0  0  0
   60.3210   30.8760   46.1290 H   0  0  0  0  0  0  0  0  0  0  0  0
   59.9910   30.4450   44.5240 H   0  0  0  0  0  0  0  0  0  0  0  0
   58.5100   31.5900   45.4160 C   0  0  0  0  0  0  0  0  0  0  0  0
   58.3834   31.9223   44.3751 H   0  0  0  0  0  0  0  0  0  0  0  0
   57.5716   31.1557   45.7913 H   0  0  0  0  0  0  0  0  0  0  0  0
   58.8780   32.7740   46.2740 C   0  0  0  0  0  0  0  0  0  0  0  0
   58.9330   32.6370   47.6710 C   0  0  0  0  0  0  0  0  0  0  0  0
   58.6818   31.6728   48.1371 H   0  0  0  0  0  0  0  0  0  0  0  0
   59.3060   33.7220   48.4720 C   0  0  0  0  0  0  0  0  0  0  0  0
   59.3510   33.5850   49.8200 F   0  0  0  0  0  0  0  0  0  0  0  0
   59.6370   34.9450   47.8830 C   0  0  0  0  0  0  0  0  0  0  0  0
   59.9264   35.7981   48.5143 H   0  0  0  0  0  0  0  0  0  0  0  0
   59.6010   35.0860   46.4940 C   0  0  0  0  0  0  0  0  0  0  0  0
   59.8657   36.0490   46.0329 H   0  0  0  0  0  0  0  0  0  0  0  0
   59.2290   34.0050   45.6880 C   0  0  0  0  0  0  0  0  0  0  0  0
   59.2140   34.1570   44.3390 F   0  0  0  0  0  0  0  0  0  0  0  0
   57.7080   28.9400   45.5550 C   0  0  0  0  0  0  0  0  0  0  0  0
   57.0971   29.6190   44.9421 H   0  0  0  0  0  0  0  0  0  0  0  0
   57.1820   27.7100   45.9650 C   0  0  0  0  0  0  0  0  0  0  0  0
   55.9180   27.3590   45.6130 N   0  0  0  0  0  0  0  0  0  0  0  0
  1  2  1  0
  2  3  2  0
  3  4  1  0
  4  5  1  0
  5  6  2  0
  5  7  1  0
  7  8  2  0
  8  9  1  0
  8 10  1  0
 10 11  1  0
 10 12  2  0
 12 13  1  0
 13 14  1  0
 13 15  1  0
 13 16  1  0
 16 17  1  0
 16 18  1  0
 16 19  1  0
 19 20  2  0
 20 21  1  0
 20 22  1  0
 22 23  1  0
 22 24  2  0
 24 25  1  0
 24 26  1  0
 26 27  1  0
 26 28  2  0
 28 29  1  0
 12 30  1  0
 30 31  1  0
 30 32  2  0
 32 33  1  0
 33  3  1  0
 32  7  1  0
 28 19  1  0
M  CHG  3   4  -1  13   1  33  -1
M  END
>  <UniqueID>  (33) 
28

>  <SMILES>  (33) 
[H]/N=c1\[n-]c(=O)c2ccc([NH2+]Cc3cc(F)ccc3F)cc2[n-]1

>  <Energy>  (33) 
40.675032130199554

>  <Genealogy>  (33) 
N=c1[n-]c(=O)c2ccc([NH2+]Cc3cc(F)ccc3F)cc2[n-]1 (protonated)
[H]/N=c1\[n-]c(=O)c2ccc([NH2+]Cc3cc(F)ccc3F)cc2[n-]1 (cis-trans isomerization)
[H]/N=c1\[n-]c(=O)c2ccc([NH2+]Cc3cc(F)ccc3F)cc2[n-]1 (3D coordinates assigned)
[H]/N=c1\[n-]c(=O)c2ccc([NH2+]Cc3cc(F)ccc3F)cc2[n-]1 (optimized conformer: 40.675032130199554 kcal/mol)

>  <smiles>  (33) 
N=c1[nH]c(=O)c2ccc(NCc3cc(F)ccc3F)cc2[nH]1

>  <score_type>  (33) 
oracle

>  <origin>  (33) 
adg

>  <m_score__min__energy>  (33) 
-10.17

>  <m_primary>  (33) 
energy

$$$$
33:0
     RDKit          3D

 38 41  0  0  0  0  0  0  0  0999 V2000
   53.8960   21.3750   45.7390 H   0  0  0  0  0  0  0  0  0  0  0  0
   53.5640   22.3580   45.6120 N   0  0  0  0  0  0  0  0  0  0  0  0
   54.3500   23.3790   45.7460 C   0  0  0  0  0  0  0  0  0  0  0  0
   55.6670   23.1830   46.0160 N   0  0  0  0  0  0  0  0  0  0  0  0
   56.5250   24.2260   46.1680 C   0  0  0  0  0  0  0  0  0  0  0  0
   57.5880   24.0416   46.3827 H   0  0  0  0  0  0  0  0  0  0  0  0
   56.0450   25.5430   46.0490 C   0  0  0  0  0  0  0  0  0  0  0  0
   56.9210   26.7290   46.1870 C   0  0  0  0  0  0  0  0  0  0  0  0
   56.8290   27.7180   45.2560 N   0  0  0  0  0  0  0  0  0  0  0  0
   57.5810   28.8500   45.3020 C   0  0  0  0  0  0  0  0  0  0  0  0
   57.4110   29.8640   44.2360 C   0  0  0  0  0  0  0  0  0  0  0  0
   58.0900   31.0670   44.1160 C   0  0  0  0  0  0  0  0  0  0  0  0
   58.8643   31.4570   44.7930 H   0  0  0  0  0  0  0  0  0  0  0  0
   57.6020   31.6780   42.9790 C   0  0  0  0  0  0  0  0  0  0  0  0
   57.9111   32.6522   42.5722 H   0  0  0  0  0  0  0  0  0  0  0  0
   56.6510   30.8290   42.4520 C   0  0  0  0  0  0  0  0  0  0  0  0
   56.0696   31.0226   41.5385 H   0  0  0  0  0  0  0  0  0  0  0  0
   56.5390   29.7310   43.2180 N   0  0  0  0  0  0  0  0  0  0  0  0
   55.8910   28.9290   43.0460 H   0  0  0  0  0  0  0  0  0  0  0  0
   58.4970   29.0220   46.3510 C   0  0  0  0  0  0  0  0  0  0  0  0
   59.1196   29.9277   46.3963 H   0  0  0  0  0  0  0  0  0  0  0  0
   58.6170   28.0350   47.3430 C   0  0  0  0  0  0  0  0  0  0  0  0
   59.5720   28.2090   48.4680 C   0  0  0  0  0  0  0  0  0  0  0  0
   60.2520   27.1030   49.0080 C   0  0  0  0  0  0  0  0  0  0  0  0
   60.0816   26.0961   48.5992 H   0  0  0  0  0  0  0  0  0  0  0  0
   61.1450   27.2890   50.0660 C   0  0  0  0  0  0  0  0  0  0  0  0
   61.6796   26.4261   50.4899 H   0  0  0  0  0  0  0  0  0  0  0  0
   61.3560   28.5330   50.5740 N   0  0  0  0  0  0  0  0  0  0  0  0
   62.0280   28.6550   51.3650 H   0  0  0  0  0  0  0  0  0  0  0  0
   60.7130   29.6210   50.0730 C   0  0  0  0  0  0  0  0  0  0  0  0
   60.9026   30.6156   50.5030 H   0  0  0  0  0  0  0  0  0  0  0  0
   59.8130   29.4810   49.0150 C   0  0  0  0  0  0  0  0  0  0  0  0
   59.2944   30.3630   48.6110 H   0  0  0  0  0  0  0  0  0  0  0  0
   57.8180   26.8840   47.2580 C   0  0  0  0  0  0  0  0  0  0  0  0
   57.8938   26.1035   48.0294 H   0  0  0  0  0  0  0  0  0  0  0  0
   54.7260   25.7300   45.7630 N   0  0  0  0  0  0  0  0  0  0  0  0
   53.8690   24.6870   45.6130 C   0  0  0  0  0  0  0  0  0  0  0  0
   52.8074   24.8683   45.3892 H   0  0  0  0  0  0  0  0  0  0  0  0
  1  2  1  0
  2  3  2  0
  3  4  1  0
  4  5  1  0
  5  6  1  0
  5  7  2  0
  7  8  1  0
  8  9  2  0
  9 10  1  0
 10 11  1  0
 11 12  2  0
 12 13  1  0
 12 14  1  0
 14 15  1  0
 14 16  2  0
 16 17  1  0
 16 18  1  0
 18 19  1  0
 10 20  2  0
 20 21  1  0
 20 22  1  0
 22 23  1  0
 23 24  2  0
 24 25  1  0
 24 26  1  0
 26 27  1  0
 26 28  2  0
 28 29  1  0
 28 30  1  0
 30 31  1  0
 30 32  2  0
 32 33  1  0
 22 34  2  0
 34 35  1  0
  7 36  1  0
 36 37  2  0
 37 38  1  0
 37  3  1  0
 34  8  1  0
 18 11  1  0
 32 23  1  0
M  CHG  2   4  -1  28   1
M  END
>  <UniqueID>  (34) 
29

>  <SMILES>  (34) 
[H]/N=c1\cnc(-c2cc(-c3cc[nH+]cc3)cc(-c3ccc[nH]3)n2)c[n-]1

>  <Energy>  (34) 
79.44543462064094

>  <Genealogy>  (34) 
N=c1cnc(-c2cc(-c3cc[nH+]cc3)cc(-c3ccc[nH]3)n2)c[n-]1 (protonated)
[H]/N=c1\cnc(-c2cc(-c3cc[nH+]cc3)cc(-c3ccc[nH]3)n2)c[n-]1 (cis-trans isomerization)
[H]/N=c1\cnc(-c2cc(-c3cc[nH+]cc3)cc(-c3ccc[nH]3)n2)c[n-]1 (3D coordinates assigned)
[H]/N=c1\cnc(-c2cc(-c3cc[nH+]cc3)cc(-c3ccc[nH]3)n2)c[n-]1 (optimized conformer: 79.44543462064094 kcal/mol)

>  <smiles>  (34) 
N=c1cnc(-c2cc(-c3ccncc3)cc(-c3ccc[nH]3)n2)c[nH]1

>  <score_type>  (34) 
oracle

>  <origin>  (34) 
adg

>  <m_score__min__energy>  (34) 
-7.75

>  <m_primary>  (34) 
energy

$$$$
34:0
     RDKit          3D

 34 36  0  0  0  0  0  0  0  0999 V2000
   54.7740   27.2370   45.9960 H   0  0  0  0  0  0  0  0  0  0  0  0
   54.7120   26.2340   45.8740 O   0  0  0  0  0  0  0  0  0  0  0  0
   55.7660   25.3920   46.2150 C   0  0  0  0  0  0  0  0  0  0  0  0
   55.6680   24.4250   47.1420 N   0  0  0  0  0  0  0  0  0  0  0  0
   56.9070   23.8890   47.1490 C   0  0  0  0  0  0  0  0  0  0  0  0
   57.2280   22.9360   47.9050 O   0  0  0  0  0  0  0  0  0  0  0  0
   57.7760   24.4590   46.2880 N   0  0  0  0  0  0  0  0  0  0  0  0
   57.0400   25.4100   45.6860 C   0  0  0  0  0  0  0  0  0  0  0  0
   57.5880   26.3700   44.6750 C   0  0  0  0  0  0  0  0  0  0  0  0
   56.8642   26.4859   43.8548 H   0  0  0  0  0  0  0  0  0  0  0  0
   58.5384   25.9762   44.2854 H   0  0  0  0  0  0  0  0  0  0  0  0
   57.8360   27.7050   45.3080 C   0  0  0  0  0  0  0  0  0  0  0  0
   59.3260   28.2460   45.8750 S   0  0  0  0  0  0  0  0  0  0  0  0
   58.6980   29.7220   46.4080 C   0  0  0  0  0  0  0  0  0  0  0  0
   59.3580   30.6810   46.9900 N   0  0  0  0  0  0  0  0  0  0  0  0
   59.2260   31.1390   48.3460 C   0  0  0  0  0  0  0  0  0  0  0  0
   59.3620   30.3540   49.3230 O   0  0  0  0  0  0  0  0  0  0  0  0
   58.8730   32.5700   48.5990 C   0  0  0  0  0  0  0  0  0  0  0  0
   57.9303   32.6181   49.1638 H   0  0  0  0  0  0  0  0  0  0  0  0
   59.6797   33.0437   49.1777 H   0  0  0  0  0  0  0  0  0  0  0  0
   58.7090   33.2990   47.2930 C   0  0  0  0  0  0  0  0  0  0  0  0
   57.5460   33.1150   46.5260 C   0  0  0  0  0  0  0  0  0  0  0  0
   56.7688   32.4169   46.8703 H   0  0  0  0  0  0  0  0  0  0  0  0
   57.3710   33.8140   45.3280 C   0  0  0  0  0  0  0  0  0  0  0  0
   56.4614   33.6593   44.7291 H   0  0  0  0  0  0  0  0  0  0  0  0
   58.3510   34.7090   44.8910 C   0  0  0  0  0  0  0  0  0  0  0  0
   58.2143   35.2556   43.9462 H   0  0  0  0  0  0  0  0  0  0  0  0
   59.5040   34.9100   45.6530 C   0  0  0  0  0  0  0  0  0  0  0  0
   60.2720   35.6182   45.3084 H   0  0  0  0  0  0  0  0  0  0  0  0
   59.6860   34.2140   46.8530 C   0  0  0  0  0  0  0  0  0  0  0  0
   60.8060   34.4340   47.5850 F   0  0  0  0  0  0  0  0  0  0  0  0
   57.3730   29.8160   46.1660 N   0  0  0  0  0  0  0  0  0  0  0  0
   56.8940   28.7000   45.5570 C   0  0  0  0  0  0  0  0  0  0  0  0
   55.5540   28.5790   45.2110 O   0  0  0  0  0  0  0  0  0  0  0  0
  1  2  1  0
  2  3  1  0
  3  4  1  0
  4  5  1  0
  5  6  2  0
  5  7  1  0
  7  8  1  0
  8  9  1  0
  9 10  1  0
  9 11  1  0
  9 12  1  0
 12 13  1  0
 13 14  1  0
 14 15  2  0
 15 16  1  0
 16 17  2  0
 16 18  1  0
 18 19  1  0
 18 20  1  0
 18 21  1  0
 21 22  2  0
 22 23  1  0
 22 24  1  0
 24 25  1  0
 24 26  2  0
 26 27  1  0
 26 28  1  0
 28 29  1  0
 28 30  2  0
 30 31  1  0
 14 32  1  0
 32 33  1  0
 33 34  1  0
  8  3  2  0
 33 12  2  0
 30 21  1  0
M  CHG  4   4  -1   7  -1  32  -1  34  -1
M  END
>  <UniqueID>  (35) 
30

>  <SMILES>  (35) 
O=C(Cc1ccccc1F)/N=c1/[n-]c([O-])c(Cc2[n-]c(=O)[n-]c2O)s1

>  <Energy>  (35) 
95.74856748568747

>  <Genealogy>  (35) 
O=C(Cc1ccccc1F)N=c1[n-]c([O-])c(Cc2[n-]c(=O)[n-]c2O)s1 (protonated)
O=C(Cc1ccccc1F)/N=c1/[n-]c([O-])c(Cc2[n-]c(=O)[n-]c2O)s1 (cis-trans isomerization)
O=C(Cc1ccccc1F)/N=c1/[n-]c([O-])c(Cc2[n-]c(=O)[n-]c2O)s1 (3D coordinates assigned)
O=C(Cc1ccccc1F)/N=c1/[n-]c([O-])c(Cc2[n-]c(=O)[n-]c2O)s1 (optimized conformer: 95.74856748568747 kcal/mol)

>  <smiles>  (35) 
O=C(Cc1ccccc1F)N=c1[nH]c(O)c(Cc2[nH]c(=O)[nH]c2O)s1

>  <score_type>  (35) 
oracle

>  <origin>  (35) 
adg

>  <m_score__min__energy>  (35) 
-16.989999999999998

>  <m_primary>  (35) 
energy

$$$$
35:0
     RDKit          3D

 65 68  0  0  1  0  0  0  0  0999 V2000
   54.5180   23.0990   46.7980 C   0  0  0  0  0  0  0  0  0  0  0  0
   54.6450   24.4430   46.3890 O   0  0  0  0  0  0  0  0  0  0  0  0
   55.7150   24.8830   45.6190 C   0  0  0  0  0  0  0  0  0  0  0  0
   56.1000   24.2140   44.4730 C   0  0  0  0  0  0  0  0  0  0  0  0
   57.1630   24.6370   43.6920 C   0  0  0  0  0  0  0  0  0  0  0  0
   57.8350   25.7700   44.1080 C   0  0  0  0  0  0  0  0  0  0  0  0
   57.4520   26.4530   45.2630 C   0  0  0  0  0  0  0  0  0  0  0  0
   58.2350   27.6340   45.6000 C   0  0  0  0  0  0  0  0  0  0  0  0
   59.1390   27.6350   46.6790 C   0  0  0  0  0  0  0  0  0  0  0  0
   59.2520   26.3380   47.3780 C   0  0  0  0  0  0  0  0  0  0  0  0
   59.8620   28.7320   46.9900 N   0  0  0  0  0  0  0  0  0  0  0  0
   60.7670   28.8330   48.0860 C   0  0  0  0  0  0  0  0  0  0  0  0
   60.4970   29.8190   49.1300 C   0  0  0  0  0  0  0  0  0  0  0  0
   61.4070   30.5750   49.8140 C   0  0  0  0  0  0  0  0  0  0  0  0
   62.7180   30.4650   49.5820 F   0  0  0  0  0  0  0  0  0  0  0  0
   61.0410   31.5150   50.7880 C   0  0  0  0  0  0  0  0  0  0  0  0
   59.7190   31.7280   51.1100 C   0  0  0  0  0  0  0  0  0  0  0  0
   58.7900   30.9740   50.4300 C   0  0  0  0  0  0  0  0  0  0  0  0
   59.1510   30.0520   49.4740 C   0  0  0  0  0  0  0  0  0  0  0  0
   58.1390   29.3980   48.8560 F   0  0  0  0  0  0  0  0  0  0  0  0
   59.6660   29.8210   46.2050 C   0  0  0  0  0  0  0  0  0  0  0  0
   60.2780   30.9100   46.3830 O   0  0  0  0  0  0  0  0  0  0  0  0
   58.7960   29.8310   45.1620 N   0  0  0  0  0  0  0  0  0  0  0  0
   58.6320   31.0450   44.3480 C   0  0  0  0  0  0  0  0  0  0  0  0
   58.0890   32.1530   45.1690 C   0  0  0  0  0  0  0  0  0  0  0  0
   56.8490   32.4010   45.1750 O   0  0  0  0  0  0  0  0  0  0  0  0
   58.9020   32.9890   45.9850 N   0  0  0  0  0  0  0  0  0  0  0  0
   58.2350   34.0460   46.7450 C   0  0  0  0  0  0  0  0  0  0  0  0
   59.2290   34.8070   47.5950 C   0  0  0  0  0  0  0  0  0  0  0  0
   60.0300   33.9300   48.4200 N   0  0  0  0  0  0  0  0  0  0  0  0
   61.2710   33.7210   48.2220 C   0  0  0  0  0  0  0  0  0  0  0  0
   62.2010   33.9550   49.2110 C   0  0  0  0  0  0  0  0  0  0  0  0
   63.5270   33.7090   48.9280 C   0  0  0  0  0  0  0  0  0  0  0  0
   63.8890   33.2500   47.7030 N   0  0  0  0  0  0  0  0  0  0  0  0
   62.9720   33.0250   46.7430 C   0  0  0  0  0  0  0  0  0  0  0  0
   61.6570   33.2600   47.0000 N   0  0  0  0  0  0  0  0  0  0  0  0
   58.0600   28.7560   44.8260 C   0  0  0  0  0  0  0  0  0  0  0  0
   57.2700   28.8210   43.8520 O   0  0  0  0  0  0  0  0  0  0  0  0
   56.3900   26.0140   46.0270 C   0  0  0  0  0  0  0  0  0  0  0  0
   54.5133   23.0490   47.8969 H   0  0  0  0  0  0  0  0  0  0  0  0
   53.5767   22.6844   46.4080 H   0  0  0  0  0  0  0  0  0  0  0  0
   55.3650   22.5155   46.4080 H   0  0  0  0  0  0  0  0  0  0  0  0
   55.5434   23.3148   44.1705 H   0  0  0  0  0  0  0  0  0  0  0  0
   57.4587   24.0951   42.7816 H   0  0  0  0  0  0  0  0  0  0  0  0
   58.6868   26.1402   43.5186 H   0  0  0  0  0  0  0  0  0  0  0  0
   59.2375   26.5049   48.4652 H   0  0  0  0  0  0  0  0  0  0  0  0
   58.4066   25.6938   47.0946 H   0  0  0  0  0  0  0  0  0  0  0  0
   60.1961   25.8498   47.0946 H   0  0  0  0  0  0  0  0  0  0  0  0
   60.7981   27.8468   48.5722 H   0  0  0  0  0  0  0  0  0  0  0  0
   61.7047   29.1796   47.6272 H   0  0  0  0  0  0  0  0  0  0  0  0
   61.8229   32.0919   51.3035 H   0  0  0  0  0  0  0  0  0  0  0  0
   59.4209   32.4633   51.8719 H   0  0  0  0  0  0  0  0  0  0  0  0
   57.7229   31.1129   50.6582 H   0  0  0  0  0  0  0  0  0  0  0  0
   59.6096   31.3421   43.9407 H   0  0  0  0  0  0  0  0  0  0  0  0
   57.9284   30.8315   43.5299 H   0  0  0  0  0  0  0  0  0  0  0  0
   59.9310   32.8310   46.0200 H   0  0  0  0  0  0  0  0  0  0  0  0
   57.7513   34.7430   46.0449 H   0  0  0  0  0  0  0  0  0  0  0  0
   57.4861   33.5855   47.4061 H   0  0  0  0  0  0  0  0  0  0  0  0
   59.8969   35.3776   46.9329 H   0  0  0  0  0  0  0  0  0  0  0  0
   58.6615   35.4719   48.2627 H   0  0  0  0  0  0  0  0  0  0  0  0
   61.8936   34.3279   50.1992 H   0  0  0  0  0  0  0  0  0  0  0  0
   64.2939   33.8850   49.6967 H   0  0  0  0  0  0  0  0  0  0  0  0
   64.8990   33.0790   47.5360 H   0  0  0  0  0  0  0  0  0  0  0  0
   63.2846   32.6531   45.7561 H   0  0  0  0  0  0  0  0  0  0  0  0
   56.0897   26.5524   46.9380 H   0  0  0  0  0  0  0  0  0  0  0  0
  1  2  1  0
  2  3  1  0
  3  4  2  0
  4  5  1  0
  5  6  2  0
  6  7  1  0
  7  8  1  0
  8  9  2  0
  9 10  1  0
  9 11  1  0
 11 12  1  0
 12 13  1  0
 13 14  2  0
 14 15  1  0
 14 16  1  0
 16 17  2  0
 17 18  1  0
 18 19  2  0
 19 20  1  0
 11 21  1  0
 21 22  2  0
 21 23  1  0
 23 24  1  0
 24 25  1  0
 25 26  2  0
 25 27  1  0
 27 28  1  0
 28 29  1  0
 29 30  1  0
 30 31  2  0
 31 32  1  0
 32 33  2  0
 33 34  1  0
 34 35  1  0
 35 36  2  0
 23 37  1  0
 37 38  2  0
  7 39  2  0
 39  3  1  0
 37  8  1  0
 19 13  1  0
 36 31  1  0
  1 40  1  0
  1 41  1  0
  1 42  1  0
  4 43  1  0
  5 44  1  0
  6 45  1  0
 10 46  1  0
 10 47  1  0
 10 48  1  0
 12 49  1  0
 12 50  1  0
 16 51  1  0
 17 52  1  0
 18 53  1  0
 24 54  1  0
 24 55  1  0
 27 56  1  0
 28 57  1  0
 28 58  1  0
 29 59  1  0
 29 60  1  0
 32 61  1  0
 33 62  1  0
 34 63  1  0
 35 64  1  0
 39 65  1  0
M  END
>  <smiles>  (36) 
COc1cccc(-c2c(C)n(Cc3c(F)cccc3F)c(=O)n(CC(=O)NCCN=c3cc[nH]cn3)c2=O)c1

>  <score_type>  (36) 
oracle

>  <origin>  (36) 
adg

>  <m_score__min__energy>  (36) 
-8.0999999999999996

>  <m_primary>  (36) 
energy

$$$$
36:0
     RDKit          3D

 45 46  0  0  0  0  0  0  0  0999 V2000
   59.4880   22.2290   44.6850 C   0  0  0  0  0  0  0  0  0  0  0  0
   58.2890   22.7900   44.8730 C   0  0  0  0  0  0  0  0  0  0  0  0
   57.0520   22.2730   44.1900 C   0  0  0  0  0  0  0  0  0  0  0  0
   55.9250   23.3190   44.1110 C   0  0  0  0  0  0  0  0  0  0  0  0
   56.3690   24.7360   44.5150 C   0  0  0  0  0  0  0  0  0  0  0  0
   55.5400   25.2890   45.6330 C   0  0  0  0  0  0  0  0  0  0  0  0
   54.8000   24.5180   46.3020 O   0  0  0  0  0  0  0  0  0  0  0  0
   55.5580   26.6950   45.9020 N   0  0  0  0  0  0  0  0  0  0  0  0
   56.6920   27.5390   45.6720 C   0  0  0  0  0  0  0  0  0  0  0  0
   57.9690   27.0120   45.8960 C   0  0  0  0  0  0  0  0  0  0  0  0
   59.1040   27.7820   45.6420 C   0  0  0  0  0  0  0  0  0  0  0  0
   58.9740   29.0890   45.1700 C   0  0  0  0  0  0  0  0  0  0  0  0
   57.7020   29.6440   44.9670 C   0  0  0  0  0  0  0  0  0  0  0  0
   57.5460   31.3150   44.4180 S   0  0  0  0  0  0  0  0  0  0  0  0
   57.7120   31.3880   42.9240 O   0  0  0  0  0  0  0  0  0  0  0  0
   56.1720   31.8110   44.7740 O   0  0  0  0  0  0  0  0  0  0  0  0
   58.7510   32.3040   45.2010 N   0  0  0  0  0  0  0  0  0  0  0  0
   58.6190   33.7050   44.7590 C   0  0  0  0  0  0  0  0  0  0  0  0
   59.4650   34.6430   45.6430 C   0  0  0  0  0  0  0  0  0  0  0  0
   60.3750   33.9060   46.4360 O   0  0  0  0  0  0  0  0  0  0  0  0
   59.6620   33.0970   47.3550 C   0  0  0  0  0  0  0  0  0  0  0  0
   58.6040   32.2140   46.6600 C   0  0  0  0  0  0  0  0  0  0  0  0
   56.5520   28.8790   45.2420 C   0  0  0  0  0  0  0  0  0  0  0  0
   55.2960   29.4760   45.1190 O   0  0  0  0  0  0  0  0  0  0  0  0
   60.3714   22.6333   45.2009 H   0  0  0  0  0  0  0  0  0  0  0  0
   59.5910   21.3631   44.0145 H   0  0  0  0  0  0  0  0  0  0  0  0
   58.2044   23.6552   45.5470 H   0  0  0  0  0  0  0  0  0  0  0  0
   57.3183   21.9672   43.1675 H   0  0  0  0  0  0  0  0  0  0  0  0
   56.6756   21.4292   44.7869 H   0  0  0  0  0  0  0  0  0  0  0  0
   55.5541   23.3528   43.0760 H   0  0  0  0  0  0  0  0  0  0  0  0
   55.1473   23.0093   44.8247 H   0  0  0  0  0  0  0  0  0  0  0  0
   57.4202   24.7000   44.8372 H   0  0  0  0  0  0  0  0  0  0  0  0
   56.2414   25.3927   43.6418 H   0  0  0  0  0  0  0  0  0  0  0  0
   58.0782   25.9849   46.2744 H   0  0  0  0  0  0  0  0  0  0  0  0
   60.1043   27.3580   45.8142 H   0  0  0  0  0  0  0  0  0  0  0  0
   59.8727   29.6862   44.9563 H   0  0  0  0  0  0  0  0  0  0  0  0
   58.9605   33.7874   43.7166 H   0  0  0  0  0  0  0  0  0  0  0  0
   57.5630   34.0016   44.8420 H   0  0  0  0  0  0  0  0  0  0  0  0
   60.0274   35.3347   44.9986 H   0  0  0  0  0  0  0  0  0  0  0  0
   58.7903   35.2005   46.3094 H   0  0  0  0  0  0  0  0  0  0  0  0
   60.3758   32.4460   47.8810 H   0  0  0  0  0  0  0  0  0  0  0  0
   59.1366   33.7646   48.0538 H   0  0  0  0  0  0  0  0  0  0  0  0
   58.7383   31.1688   46.9754 H   0  0  0  0  0  0  0  0  0  0  0  0
   57.6004   32.5643   46.9431 H   0  0  0  0  0  0  0  0  0  0  0  0
   55.1410   30.4660   45.2620 H   0  0  0  0  0  0  0  0  0  0  0  0
  1  2  2  0
  2  3  1  0
  3  4  1  0
  4  5  1  0
  5  6  1  0
  6  7  2  0
  6  8  1  0
  8  9  1  0
  9 10  2  0
 10 11  1  0
 11 12  2  0
 12 13  1  0
 13 14  1  0
 14 15  2  0
 14 16  2  0
 14 17  1  0
 17 18  1  0
 18 19  1  0
 19 20  1  0
 20 21  1  0
 21 22  1  0
 13 23  2  0
 23 24  1  0
 23  9  1  0
 22 17  1  0
  1 25  1  0
  1 26  1  0
  2 27  1  0
  3 28  1  0
  3 29  1  0
  4 30  1  0
  4 31  1  0
  5 32  1  0
  5 33  1  0
 10 34  1  0
 11 35  1  0
 12 36  1  0
 18 37  1  0
 18 38  1  0
 19 39  1  0
 19 40  1  0
 21 41  1  0
 21 42  1  0
 22 43  1  0
 22 44  1  0
 24 45  1  0
M  CHG  1   8  -1
M  END
>  <UniqueID>  (37) 
31

>  <SMILES>  (37) 
C=CCCCC(=O)[N-]c1cccc(S(=O)(=O)N2CCOCC2)c1O

>  <Energy>  (37) 
50.71930797498904

>  <Genealogy>  (37) 
C=CCCCC(=O)[N-]c1cccc(S(=O)(=O)N2CCOCC2)c1O (protonated)
C=CCCCC(=O)[N-]c1cccc(S(=O)(=O)N2CCOCC2)c1O (3D coordinates assigned)
C=CCCCC(=O)[N-]c1cccc(S(=O)(=O)N2CCOCC2)c1O (nonaromatic ring conformer: 50.71930797498904 kcal/mol)

>  <smiles>  (37) 
C=CCCCC(=O)Nc1cccc(S(=O)(=O)N2CCOCC2)c1O

>  <score_type>  (37) 
oracle

>  <origin>  (37) 
adg

>  <m_score__min__energy>  (37) 
-12.07

>  <m_primary>  (37) 
energy

$$$$
37:0
     RDKit          3D

 38 40  0  0  0  0  0  0  0  0999 V2000
   54.4530   30.8980   53.5390 O   0  0  0  0  0  0  0  0  0  0  0  0
   54.5780   30.1830   52.5090 C   0  0  0  0  0  0  0  0  0  0  0  0
   53.3560   29.5610   51.8910 C   0  0  0  0  0  0  0  0  0  0  0  0
   52.3910   30.6200   51.4560 C   0  0  0  0  0  0  0  0  0  0  0  0
   52.0500   30.8550   50.1780 N   0  0  0  0  0  0  0  0  0  0  0  0
   51.2120   31.9120   50.2700 C   0  0  0  0  0  0  0  0  0  0  0  0
   50.6660   32.4330   49.2640 O   0  0  0  0  0  0  0  0  0  0  0  0
   51.0070   32.3670   51.5250 N   0  0  0  0  0  0  0  0  0  0  0  0
   51.7660   31.5400   52.2650 C   0  0  0  0  0  0  0  0  0  0  0  0
   51.8950   31.6250   53.6460 O   0  0  0  0  0  0  0  0  0  0  0  0
   55.8940   29.9410   51.9930 N   0  0  0  0  0  0  0  0  0  0  0  0
   56.8620   30.9380   51.6380 C   0  0  0  0  0  0  0  0  0  0  0  0
   57.0220   32.1090   52.3980 C   0  0  0  0  0  0  0  0  0  0  0  0
   58.0100   33.0360   52.0610 C   0  0  0  0  0  0  0  0  0  0  0  0
   58.8500   32.7990   50.9700 C   0  0  0  0  0  0  0  0  0  0  0  0
   58.7040   31.6380   50.2010 C   0  0  0  0  0  0  0  0  0  0  0  0
   59.6060   31.4200   49.1080 N   0  0  0  0  0  0  0  0  0  0  0  0
   59.2500   31.1500   47.7440 C   0  0  0  0  0  0  0  0  0  0  0  0
   59.2090   29.9600   47.3320 O   0  0  0  0  0  0  0  0  0  0  0  0
   58.8770   32.2710   46.8400 C   0  0  0  0  0  0  0  0  0  0  0  0
   59.4980   33.5270   46.9940 C   0  0  0  0  0  0  0  0  0  0  0  0
   59.1640   34.5950   46.1590 C   0  0  0  0  0  0  0  0  0  0  0  0
   58.2090   34.4300   45.1560 C   0  0  0  0  0  0  0  0  0  0  0  0
   57.5860   33.1930   44.9860 C   0  0  0  0  0  0  0  0  0  0  0  0
   57.9120   32.1150   45.8170 C   0  0  0  0  0  0  0  0  0  0  0  0
   57.2720   30.8970   45.6080 O   0  0  0  0  0  0  0  0  0  0  0  0
   57.7240   30.6940   50.5620 C   0  0  0  0  0  0  0  0  0  0  0  0
   53.6563   28.9640   51.0172 H   0  0  0  0  0  0  0  0  0  0  0  0
   52.8667   28.9196   52.6388 H   0  0  0  0  0  0  0  0  0  0  0  0
   52.7620   31.3650   54.1000 H   0  0  0  0  0  0  0  0  0  0  0  0
   56.3666   32.2959   53.2614 H   0  0  0  0  0  0  0  0  0  0  0  0
   58.1273   33.9542   52.6552 H   0  0  0  0  0  0  0  0  0  0  0  0
   59.6314   33.5295   50.7134 H   0  0  0  0  0  0  0  0  0  0  0  0
   60.2540   33.6673   47.7806 H   0  0  0  0  0  0  0  0  0  0  0  0
   59.6557   35.5699   46.2927 H   0  0  0  0  0  0  0  0  0  0  0  0
   57.9474   35.2735   44.5001 H   0  0  0  0  0  0  0  0  0  0  0  0
   56.8338   33.0643   44.1938 H   0  0  0  0  0  0  0  0  0  0  0  0
   57.6347   29.7564   49.9937 H   0  0  0  0  0  0  0  0  0  0  0  0
  1  2  2  0
  2  3  1  0
  3  4  1  0
  4  5  1  0
  5  6  1  0
  6  7  2  0
  6  8  1  0
  8  9  1  0
  9 10  1  0
  2 11  1  0
 11 12  1  0
 12 13  2  0
 13 14  1  0
 14 15  2  0
 15 16  1  0
 16 17  1  0
 17 18  1  0
 18 19  2  0
 18 20  1  0
 20 21  2  0
 21 22  1  0
 22 23  2  0
 23 24  1  0
 24 25  2  0
 25 26  1  0
 16 27  2  0
  9  4  2  0
 27 12  1  0
 25 20  1  0
  3 28  1  0
  3 29  1  0
 10 30  1  0
 13 31  1  0
 14 32  1  0
 15 33  1  0
 21 34  1  0
 22 35  1  0
 23 36  1  0
 24 37  1  0
 27 38  1  0
M  CHG  5   5  -1   8  -1  11  -1  17  -1  26  -1
M  END
>  <UniqueID>  (38) 
32

>  <SMILES>  (38) 
O=C(Cc1[n-]c(=O)[n-]c1O)[N-]c1cccc([N-]C(=O)c2ccccc2[O-])c1

>  <Energy>  (38) 
78.75544609055905

>  <Genealogy>  (38) 
O=C(Cc1[n-]c(=O)[n-]c1O)[N-]c1cccc([N-]C(=O)c2ccccc2[O-])c1 (protonated)
O=C(Cc1[n-]c(=O)[n-]c1O)[N-]c1cccc([N-]C(=O)c2ccccc2[O-])c1 (3D coordinates assigned)
O=C(Cc1[n-]c(=O)[n-]c1O)[N-]c1cccc([N-]C(=O)c2ccccc2[O-])c1 (optimized conformer: 78.75544609055905 kcal/mol)

>  <smiles>  (38) 
O=C(Cc1[nH]c(=O)[nH]c1O)Nc1cccc(NC(=O)c2ccccc2O)c1

>  <score_type>  (38) 
oracle

>  <origin>  (38) 
adg

>  <m_score__min__energy>  (38) 
-16.219999999999999

>  <m_primary>  (38) 
energy

$$$$
38:0
     RDKit          3D

 38 40  0  0  0  0  0  0  0  0999 V2000
   57.8020   32.5470   45.8770 C   0  0  0  0  0  0  0  0  0  0  0  0
   57.8740   32.1060   44.6160 C   0  0  0  0  0  0  0  0  0  0  0  0
   58.0110   32.9470   43.5260 C   0  0  0  0  0  0  0  0  0  0  0  0
   57.7770   32.1720   42.4120 C   0  0  0  0  0  0  0  0  0  0  0  0
   57.7270   32.6740   41.0070 C   0  0  0  0  0  0  0  0  0  0  0  0
   57.4980   30.9030   42.7670 N   0  0  0  0  0  0  0  0  0  0  0  0
   57.6020   30.8220   44.1150 C   0  0  0  0  0  0  0  0  0  0  0  0
   57.4700   29.6480   44.7950 C   0  0  0  0  0  0  0  0  0  0  0  0
   58.5670   29.0850   45.3920 N   0  0  0  0  0  0  0  0  0  0  0  0
   58.5080   27.8940   46.0520 C   0  0  0  0  0  0  0  0  0  0  0  0
   59.5550   27.4480   46.5960 O   0  0  0  0  0  0  0  0  0  0  0  0
   57.2760   27.2050   46.1370 C   0  0  0  0  0  0  0  0  0  0  0  0
   57.1060   26.0050   46.7310 C   0  0  0  0  0  0  0  0  0  0  0  0
   56.8920   24.7160   46.0440 C   0  0  0  0  0  0  0  0  0  0  0  0
   55.5900   24.2320   45.8710 C   0  0  0  0  0  0  0  0  0  0  0  0
   55.3660   23.0400   45.1750 C   0  0  0  0  0  0  0  0  0  0  0  0
   56.4430   22.3220   44.6230 C   0  0  0  0  0  0  0  0  0  0  0  0
   56.2170   21.0940   43.9070 N   0  0  0  0  0  0  0  0  0  0  0  0
   56.3000   21.0590   42.6610 O   0  0  0  0  0  0  0  0  0  0  0  0
   55.9030   19.9380   44.5840 O   0  0  0  0  0  0  0  0  0  0  0  0
   57.7460   22.8290   44.7730 C   0  0  0  0  0  0  0  0  0  0  0  0
   57.9680   24.0210   45.4680 C   0  0  0  0  0  0  0  0  0  0  0  0
   56.1750   27.8110   45.6240 N   0  0  0  0  0  0  0  0  0  0  0  0
   56.2230   29.0050   44.9820 C   0  0  0  0  0  0  0  0  0  0  0  0
   55.1380   29.5540   44.6550 O   0  0  0  0  0  0  0  0  0  0  0  0
   57.6932   31.8308   46.7048 H   0  0  0  0  0  0  0  0  0  0  0  0
   57.8516   33.6258   46.0861 H   0  0  0  0  0  0  0  0  0  0  0  0
   58.2573   34.0189   43.5453 H   0  0  0  0  0  0  0  0  0  0  0  0
   57.6180   33.7686   41.0124 H   0  0  0  0  0  0  0  0  0  0  0  0
   58.6568   32.4007   40.4867 H   0  0  0  0  0  0  0  0  0  0  0  0
   56.8694   32.2227   40.4867 H   0  0  0  0  0  0  0  0  0  0  0  0
   57.3210   30.1240   42.0930 H   0  0  0  0  0  0  0  0  0  0  0  0
   59.5090   29.5290   45.3010 H   0  0  0  0  0  0  0  0  0  0  0  0
   57.1291   25.9857   47.8306 H   0  0  0  0  0  0  0  0  0  0  0  0
   54.7386   24.7923   46.2847 H   0  0  0  0  0  0  0  0  0  0  0  0
   54.3401   22.6607   45.0581 H   0  0  0  0  0  0  0  0  0  0  0  0
   58.5972   22.2831   44.3399 H   0  0  0  0  0  0  0  0  0  0  0  0
   58.9899   24.4166   45.5643 H   0  0  0  0  0  0  0  0  0  0  0  0
  1  2  2  0
  2  3  1  0
  3  4  2  0
  4  5  1  0
  4  6  1  0
  6  7  1  0
  7  8  2  3
  8  9  1  0
  9 10  1  0
 10 11  2  0
 10 12  1  0
 12 13  2  3
 13 14  1  0
 14 15  2  0
 15 16  1  0
 16 17  2  0
 17 18  1  0
 18 19  2  0
 18 20  1  0
 17 21  1  0
 21 22  2  0
 12 23  1  0
 23 24  1  0
 24 25  2  0
  7  2  1  0
 24  8  1  0
 22 14  1  0
  1 26  1  0
  1 27  1  0
  3 28  1  0
  5 29  1  0
  5 30  1  0
  5 31  1  0
  6 32  1  0
  9 33  1  0
 13 34  1  0
 15 35  1  0
 16 36  1  0
 21 37  1  0
 22 38  1  0
M  CHG  3  18   1  20  -1  23  -1
M  END
>  <UniqueID>  (39) 
33

>  <SMILES>  (39) 
C=c1cc(C)[nH]c1=c1[nH]c(=O)c(=Cc2ccc([N+](=O)[O-])cc2)[n-]c1=O

>  <Energy>  (39) 
103.00171917092095

>  <Genealogy>  (39) 
C=c1cc(C)[nH]c1=c1[nH]c(=O)c(=Cc2ccc([N+](=O)[O-])cc2)[n-]c1=O (protonated)
C=c1cc(C)[nH]c1=c1[nH]c(=O)c(=Cc2ccc([N+](=O)[O-])cc2)[n-]c1=O (3D coordinates assigned)
C=c1cc(C)[nH]c1=c1[nH]c(=O)c(=Cc2ccc([N+](=O)[O-])cc2)[n-]c1=O (optimized conformer: 103.00171917092095 kcal/mol)

>  <smiles>  (39) 
C=c1cc(C)[nH]c1=c1[nH]c(=O)c(=Cc2ccc([N+](=O)[O-])cc2)[nH]c1=O

>  <score_type>  (39) 
oracle

>  <origin>  (39) 
adg

>  <m_score__min__energy>  (39) 
-10.109999999999999

>  <m_primary>  (39) 
energy

$$$$
39:0
     RDKit          3D

 43 45  0  0  0  0  0  0  0  0999 V2000
   57.3850   32.5770   40.7610 C   0  0  0  0  0  0  0  0  0  0  0  0
   58.4320   32.4110   41.8340 C   0  0  0  0  0  0  0  0  0  0  0  0
   57.8540   31.9870   43.0570 O   0  0  0  0  0  0  0  0  0  0  0  0
   57.1580   30.7750   43.1450 C   0  0  0  0  0  0  0  0  0  0  0  0
   56.2570   30.5840   42.3070 O   0  0  0  0  0  0  0  0  0  0  0  0
   57.5070   29.8230   44.1810 C   0  0  0  0  0  0  0  0  0  0  0  0
   58.8430   29.6100   44.4430 C   0  0  0  0  0  0  0  0  0  0  0  0
   59.2170   28.7420   45.3890 N   0  0  0  0  0  0  0  0  0  0  0  0
   58.2530   28.0900   46.0690 C   0  0  0  0  0  0  0  0  0  0  0  0
   58.8080   26.9300   47.3350 S   0  0  0  0  0  0  0  0  0  0  0  0
   59.8320   27.8170   48.5120 C   0  0  0  0  0  0  0  0  0  0  0  0
   60.0910   29.2310   48.0620 C   0  0  0  0  0  0  0  0  0  0  0  0
   61.1110   29.5070   47.3650 O   0  0  0  0  0  0  0  0  0  0  0  0
   59.1420   30.1980   48.4640 N   0  0  0  0  0  0  0  0  0  0  0  0
   59.2390   31.5760   48.1230 C   0  0  0  0  0  0  0  0  0  0  0  0
   59.4460   32.5450   49.0920 C   0  0  0  0  0  0  0  0  0  0  0  0
   59.5340   33.8850   48.7150 C   0  0  0  0  0  0  0  0  0  0  0  0
   59.4110   34.2160   47.3820 C   0  0  0  0  0  0  0  0  0  0  0  0
   59.4520   35.4070   46.7300 N   0  0  0  0  0  0  0  0  0  0  0  0
   56.5300   29.1410   44.8930 C   0  0  0  0  0  0  0  0  0  0  0  0
   59.2520   36.0270   44.4970 O   0  0  0  0  0  0  0  0  0  0  0  0
   59.1230   33.8270   45.2360 N   0  0  0  0  0  0  0  0  0  0  0  0
   59.2060   33.2400   46.4490 C   0  0  0  0  0  0  0  0  0  0  0  0
   59.1150   31.9020   46.7860 C   0  0  0  0  0  0  0  0  0  0  0  0
   56.9410   28.2760   45.8360 N   0  0  0  0  0  0  0  0  0  0  0  0
   59.2740   35.1510   45.4210 C   0  0  0  0  0  0  0  0  0  0  0  0
   55.2780   29.3450   44.6420 N   0  0  0  0  0  0  0  0  0  0  0  0
   56.4018   32.7329   41.2290 H   0  0  0  0  0  0  0  0  0  0  0  0
   57.6355   33.4467   40.1357 H   0  0  0  0  0  0  0  0  0  0  0  0
   57.3542   31.6725   40.1357 H   0  0  0  0  0  0  0  0  0  0  0  0
   59.1659   31.6604   41.5054 H   0  0  0  0  0  0  0  0  0  0  0  0
   58.9175   33.3842   41.9986 H   0  0  0  0  0  0  0  0  0  0  0  0
   59.6064   30.1573   43.8705 H   0  0  0  0  0  0  0  0  0  0  0  0
   60.2420   28.5810   45.5870 H   0  0  0  0  0  0  0  0  0  0  0  0
   59.3201   27.8397   49.4854 H   0  0  0  0  0  0  0  0  0  0  0  0
   60.7982   27.2969   48.5899 H   0  0  0  0  0  0  0  0  0  0  0  0
   58.3060   29.9280   49.0450 H   0  0  0  0  0  0  0  0  0  0  0  0
   59.5402   32.2595   50.1501 H   0  0  0  0  0  0  0  0  0  0  0  0
   59.6993   34.6671   49.4707 H   0  0  0  0  0  0  0  0  0  0  0  0
   59.5970   36.3130   47.2160 H   0  0  0  0  0  0  0  0  0  0  0  0
   58.9680   33.3390   44.3260 H   0  0  0  0  0  0  0  0  0  0  0  0
   58.9506   31.1288   46.0210 H   0  0  0  0  0  0  0  0  0  0  0  0
   54.9020   29.9630   43.9130 H   0  0  0  0  0  0  0  0  0  0  0  0
  1  2  1  0
  2  3  1  0
  3  4  1  0
  4  5  2  0
  4  6  1  0
  6  7  2  0
  7  8  1  0
  8  9  1  0
  9 10  1  0
 10 11  1  0
 11 12  1  0
 12 13  2  0
 12 14  1  0
 14 15  1  0
 15 16  2  0
 16 17  1  0
 17 18  2  0
 18 19  1  0
 19 20  1  0
 20 21  2  0
 20 22  1  0
 22 23  1  0
 23 24  2  0
  9 25  2  0
 25 26  1  0
 26 27  2  3
 26  6  1  0
 24 15  1  0
 23 18  1  0
  1 28  1  0
  1 29  1  0
  1 30  1  0
  2 31  1  0
  2 32  1  0
  7 33  1  0
  8 34  1  0
 11 35  1  0
 11 36  1  0
 14 37  1  0
 16 38  1  0
 17 39  1  0
 19 40  1  0
 22 41  1  0
 24 42  1  0
 27 43  1  0
M  END
>  <smiles>  (40) 
CCOC(=O)c1c[nH]c(SCC(=O)Nc2ccc3[nH]c(=O)[nH]c3c2)nc1=N

>  <score_type>  (40) 
oracle

>  <origin>  (40) 
adg

>  <m_score__min__energy>  (40) 
-8.25

>  <m_primary>  (40) 
energy

$$$$
40:0
     RDKit          3D

 29 30  0  0  0  0  0  0  0  0999 V2000
   59.6201   29.1735   48.5836 H   0  0  0  0  0  0  0  0  0  0  0  0
   59.0500   28.8320   47.7070 C   0  0  0  0  0  0  0  0  0  0  0  0
   58.2090   29.6080   46.9910 N   0  0  0  0  0  0  0  0  0  0  0  0
   57.6200   28.9420   45.9590 C   0  0  0  0  0  0  0  0  0  0  0  0
   56.6830   29.6510   45.0620 C   0  0  0  0  0  0  0  0  0  0  0  0
   55.5390   29.1600   44.8630 O   0  0  0  0  0  0  0  0  0  0  0  0
   57.1010   30.8070   44.3240 N   0  0  0  0  0  0  0  0  0  0  0  0
   57.5850   31.9350   44.7730 C   0  0  0  0  0  0  0  0  0  0  0  0
   58.1370   32.9320   43.9310 C   0  0  0  0  0  0  0  0  0  0  0  0
   58.1290   32.8320   42.5780 F   0  0  0  0  0  0  0  0  0  0  0  0
   58.6330   34.1080   44.4980 C   0  0  0  0  0  0  0  0  0  0  0  0
   59.0751   34.8834   43.8551 H   0  0  0  0  0  0  0  0  0  0  0  0
   58.5690   34.3010   45.8760 C   0  0  0  0  0  0  0  0  0  0  0  0
   58.9695   35.2207   46.3275 H   0  0  0  0  0  0  0  0  0  0  0  0
   57.9930   33.3180   46.6760 C   0  0  0  0  0  0  0  0  0  0  0  0
   57.9272   33.4655   47.7641 H   0  0  0  0  0  0  0  0  0  0  0  0
   57.5110   32.1750   46.1160 N   0  0  0  0  0  0  0  0  0  0  0  0
   57.0840   31.4580   46.7450 H   0  0  0  0  0  0  0  0  0  0  0  0
   58.0050   27.5940   45.8500 C   0  0  0  0  0  0  0  0  0  0  0  0
   57.6430   26.5920   44.7890 C   0  0  0  0  0  0  0  0  0  0  0  0
   58.5340   26.3835   44.1785 H   0  0  0  0  0  0  0  0  0  0  0  0
   56.8342   27.0202   44.1787 H   0  0  0  0  0  0  0  0  0  0  0  0
   57.1360   25.2750   45.3920 C   0  0  0  0  0  0  0  0  0  0  0  0
   57.8092   24.9727   46.2077 H   0  0  0  0  0  0  0  0  0  0  0  0
   57.1189   24.5151   44.5968 H   0  0  0  0  0  0  0  0  0  0  0  0
   55.7470   25.4190   45.9350 C   0  0  0  0  0  0  0  0  0  0  0  0
   55.1300   24.4100   46.3710 O   0  0  0  0  0  0  0  0  0  0  0  0
   55.1510   26.6710   45.9980 O   0  0  0  0  0  0  0  0  0  0  0  0
   59.1090   27.2780   47.0810 S   0  0  0  0  0  0  0  0  0  0  0  0
  1  2  1  0
  2  3  2  0
  3  4  1  0
  4  5  1  0
  5  6  2  0
  5  7  1  0
  7  8  2  0
  8  9  1  0
  9 10  1  0
  9 11  2  0
 11 12  1  0
 11 13  1  0
 13 14  1  0
 13 15  2  0
 15 16  1  0
 15 17  1  0
 17 18  1  0
  4 19  2  0
 19 20  1  0
 20 21  1  0
 20 22  1  0
 20 23  1  0
 23 24  1  0
 23 25  1  0
 23 26  1  0
 26 27  2  0
 26 28  1  0
 19 29  1  0
 29  2  1  0
 17  8  1  0
M  CHG  1  28  -1
M  END
>  <UniqueID>  (41) 
34

>  <SMILES>  (41) 
O=C([O-])CCc1scnc1C(=O)/N=c1/[nH]cccc1F

>  <Energy>  (41) 
67.0203291679253

>  <Genealogy>  (41) 
O=C([O-])CCc1scnc1C(=O)N=c1[nH]cccc1F (protonated)
O=C([O-])CCc1scnc1C(=O)/N=c1/[nH]cccc1F (cis-trans isomerization)
O=C([O-])CCc1scnc1C(=O)/N=c1/[nH]cccc1F (3D coordinates assigned)
O=C([O-])CCc1scnc1C(=O)/N=c1/[nH]cccc1F (optimized conformer: 67.0203291679253 kcal/mol)

>  <smiles>  (41) 
O=C(O)CCc1scnc1C(=O)N=c1[nH]cccc1F

>  <score_type>  (41) 
oracle

>  <origin>  (41) 
adg

>  <m_score__min__energy>  (41) 
-9.8000000000000007

>  <m_primary>  (41) 
energy

$$$$
41:0
     RDKit          3D

 34 35  0  0  0  0  0  0  0  0999 V2000
   57.7480   33.0870   52.0400 C   0  0  0  0  0  0  0  0  0  0  0  0
   57.3270   31.9570   51.4730 C   0  0  0  0  0  0  0  0  0  0  0  0
   57.3820   30.6390   52.1530 C   0  0  0  0  0  0  0  0  0  0  0  0
   58.4810   29.7790   52.0230 C   0  0  0  0  0  0  0  0  0  0  0  0
   59.5810   30.1270   51.2490 O   0  0  0  0  0  0  0  0  0  0  0  0
   58.4980   28.6060   52.6940 N   0  0  0  0  0  0  0  0  0  0  0  0
   57.4830   28.2230   53.5060 C   0  0  0  0  0  0  0  0  0  0  0  0
   57.6480   26.7890   54.2930 S   0  0  0  0  0  0  0  0  0  0  0  0
   56.3850   29.0400   53.6720 N   0  0  0  0  0  0  0  0  0  0  0  0
   55.2940   28.7030   54.6160 C   0  0  0  0  0  0  0  0  0  0  0  0
   54.2020   27.9980   53.8770 C   0  0  0  0  0  0  0  0  0  0  0  0
   54.4790   27.0490   53.0950 O   0  0  0  0  0  0  0  0  0  0  0  0
   52.8600   28.4800   53.9830 N   0  0  0  0  0  0  0  0  0  0  0  0
   52.5520   29.8450   54.3850 C   0  0  0  0  0  0  0  0  0  0  0  0
   52.2140   30.6560   53.1640 C   0  0  0  0  0  0  0  0  0  0  0  0
   52.6370   30.2250   51.8960 C   0  0  0  0  0  0  0  0  0  0  0  0
   52.2430   30.9180   50.7480 C   0  0  0  0  0  0  0  0  0  0  0  0
   51.4100   32.0370   50.8550 C   0  0  0  0  0  0  0  0  0  0  0  0
   51.0170   32.7170   49.7080 O   0  0  0  0  0  0  0  0  0  0  0  0
   50.9740   32.4640   52.1130 C   0  0  0  0  0  0  0  0  0  0  0  0
   50.1410   33.5720   52.2230 O   0  0  0  0  0  0  0  0  0  0  0  0
   51.3710   31.7750   53.2640 C   0  0  0  0  0  0  0  0  0  0  0  0
   56.3420   30.2490   53.0150 C   0  0  0  0  0  0  0  0  0  0  0  0
   55.3580   31.0240   53.1800 O   0  0  0  0  0  0  0  0  0  0  0  0
   57.6832   34.0365   51.4884 H   0  0  0  0  0  0  0  0  0  0  0  0
   58.1603   33.0703   53.0597 H   0  0  0  0  0  0  0  0  0  0  0  0
   56.9193   32.0033   50.4524 H   0  0  0  0  0  0  0  0  0  0  0  0
   55.6835   28.0478   55.4091 H   0  0  0  0  0  0  0  0  0  0  0  0
   54.8985   29.6252   55.0667 H   0  0  0  0  0  0  0  0  0  0  0  0
   51.6939   29.8411   55.0732 H   0  0  0  0  0  0  0  0  0  0  0  0
   53.4226   30.2862   54.8923 H   0  0  0  0  0  0  0  0  0  0  0  0
   53.2813   29.3380   51.8060 H   0  0  0  0  0  0  0  0  0  0  0  0
   52.5884   30.5831   49.7588 H   0  0  0  0  0  0  0  0  0  0  0  0
   51.0215   32.1110   54.2514 H   0  0  0  0  0  0  0  0  0  0  0  0
  1  2  2  0
  2  3  1  0
  3  4  2  0
  4  5  1  0
  4  6  1  0
  6  7  1  0
  7  8  2  0
  7  9  1  0
  9 10  1  0
 10 11  1  0
 11 12  2  0
 11 13  1  0
 13 14  1  0
 14 15  1  0
 15 16  2  0
 16 17  1  0
 17 18  2  0
 18 19  1  0
 18 20  1  0
 20 21  1  0
 20 22  2  0
  9 23  1  0
 23 24  2  0
 23  3  1  0
 22 15  1  0
  1 25  1  0
  1 26  1  0
  2 27  1  0
 10 28  1  0
 10 29  1  0
 14 30  1  0
 14 31  1  0
 16 32  1  0
 17 33  1  0
 22 34  1  0
M  CHG  5   5  -1   6  -1  13  -1  19  -1  21  -1
M  END
>  <UniqueID>  (42) 
35

>  <SMILES>  (42) 
C=Cc1c([O-])[n-]c(=S)n(CC(=O)[N-]Cc2ccc([O-])c([O-])c2)c1=O

>  <Energy>  (42) 
40.70209370103227

>  <Genealogy>  (42) 
C=Cc1c([O-])[n-]c(=S)n(CC(=O)[N-]Cc2ccc([O-])c([O-])c2)c1=O (protonated)
C=Cc1c([O-])[n-]c(=S)n(CC(=O)[N-]Cc2ccc([O-])c([O-])c2)c1=O (3D coordinates assigned)
C=Cc1c([O-])[n-]c(=S)n(CC(=O)[N-]Cc2ccc([O-])c([O-])c2)c1=O (optimized conformer: 40.70209370103227 kcal/mol)

>  <smiles>  (42) 
C=Cc1c(O)[nH]c(=S)n(CC(=O)NCc2ccc(O)c(O)c2)c1=O

>  <score_type>  (42) 
oracle

>  <origin>  (42) 
adg

>  <m_score__min__energy>  (42) 
-17.739999999999998

>  <m_primary>  (42) 
energy

$$$$
42:0
     RDKit          3D

 55 58  0  0  0  0  0  0  0  0999 V2000
   60.6980   31.0230   46.3670 C   0  0  0  0  0  0  0  0  0  0  0  0
   60.3810   30.2280   47.4000 C   0  0  0  0  0  0  0  0  0  0  0  0
   59.4810   29.1490   47.4020 C   0  0  0  0  0  0  0  0  0  0  0  0
   58.8470   28.5200   46.3930 C   0  0  0  0  0  0  0  0  0  0  0  0
   57.7400   27.5610   46.5360 C   0  0  0  0  0  0  0  0  0  0  0  0
   56.5450   27.6730   45.9270 N   0  0  0  0  0  0  0  0  0  0  0  0
   55.9240   26.5170   46.2500 C   0  0  0  0  0  0  0  0  0  0  0  0
   54.7540   26.2480   45.8720 O   0  0  0  0  0  0  0  0  0  0  0  0
   56.6600   25.6660   46.9980 N   0  0  0  0  0  0  0  0  0  0  0  0
   57.8130   26.3380   47.1580 C   0  0  0  0  0  0  0  0  0  0  0  0
   58.9110   25.8460   47.8560 O   0  0  0  0  0  0  0  0  0  0  0  0
   59.3090   28.7920   48.7300 C   0  0  0  0  0  0  0  0  0  0  0  0
   60.1380   29.6010   49.4760 C   0  0  0  0  0  0  0  0  0  0  0  0
   60.2420   29.5590   50.9690 C   0  0  0  0  0  0  0  0  0  0  0  0
   60.7780   30.4810   48.6750 N   0  0  0  0  0  0  0  0  0  0  0  0
   61.6580   31.5330   49.1170 C   0  0  0  0  0  0  0  0  0  0  0  0
   62.9650   31.2010   49.5070 C   0  0  0  0  0  0  0  0  0  0  0  0
   63.8190   32.1770   50.0240 C   0  0  0  0  0  0  0  0  0  0  0  0
   63.3730   33.4930   50.1590 C   0  0  0  0  0  0  0  0  0  0  0  0
   62.0760   33.8420   49.7660 C   0  0  0  0  0  0  0  0  0  0  0  0
   61.2090   32.8740   49.2290 C   0  0  0  0  0  0  0  0  0  0  0  0
   59.8520   33.2800   48.8030 C   0  0  0  0  0  0  0  0  0  0  0  0
   58.9370   33.3730   49.6620 O   0  0  0  0  0  0  0  0  0  0  0  0
   59.5860   33.5910   47.4280 N   0  0  0  0  0  0  0  0  0  0  0  0
   58.3150   33.3630   46.7970 C   0  0  0  0  0  0  0  0  0  0  0  0
   57.3300   33.0200   47.4980 O   0  0  0  0  0  0  0  0  0  0  0  0
   58.1930   33.4940   45.3180 C   0  0  0  0  0  0  0  0  0  0  0  0
   58.4220   34.6320   44.8150 O   0  0  0  0  0  0  0  0  0  0  0  0
   57.8300   32.4000   44.4320 N   0  0  0  0  0  0  0  0  0  0  0  0
   57.3820   31.0990   44.9690 C   0  0  0  0  0  0  0  0  0  0  0  0
   56.9930   30.0840   43.8830 C   0  0  0  0  0  0  0  0  0  0  0  0
   56.4180   30.7190   42.7640 O   0  0  0  0  0  0  0  0  0  0  0  0
   57.4110   31.4920   42.1330 C   0  0  0  0  0  0  0  0  0  0  0  0
   57.7640   32.7080   42.9890 C   0  0  0  0  0  0  0  0  0  0  0  0
   61.4240   31.8381   46.5029 H   0  0  0  0  0  0  0  0  0  0  0  0
   60.2319   30.8597   45.3841 H   0  0  0  0  0  0  0  0  0  0  0  0
   59.1873   28.7433   45.3711 H   0  0  0  0  0  0  0  0  0  0  0  0
   59.8000   26.3300   47.8260 H   0  0  0  0  0  0  0  0  0  0  0  0
   58.6376   28.0106   49.1155 H   0  0  0  0  0  0  0  0  0  0  0  0
   59.3085   29.9360   51.4123 H   0  0  0  0  0  0  0  0  0  0  0  0
   60.4106   28.5223   51.2958 H   0  0  0  0  0  0  0  0  0  0  0  0
   61.0833   30.1879   51.2958 H   0  0  0  0  0  0  0  0  0  0  0  0
   63.3188   30.1645   49.4045 H   0  0  0  0  0  0  0  0  0  0  0  0
   64.8426   31.9092   50.3248 H   0  0  0  0  0  0  0  0  0  0  0  0
   64.0438   34.2587   50.5760 H   0  0  0  0  0  0  0  0  0  0  0  0
   61.7324   34.8809   49.8780 H   0  0  0  0  0  0  0  0  0  0  0  0
   60.3860   33.9310   46.8490 H   0  0  0  0  0  0  0  0  0  0  0  0
   58.1990   30.6706   45.5682 H   0  0  0  0  0  0  0  0  0  0  0  0
   56.4793   31.2916   45.5674 H   0  0  0  0  0  0  0  0  0  0  0  0
   57.8943   29.5412   43.5619 H   0  0  0  0  0  0  0  0  0  0  0  0
   56.2497   29.3930   44.3072 H   0  0  0  0  0  0  0  0  0  0  0  0
   58.3115   30.8770   41.9882 H   0  0  0  0  0  0  0  0  0  0  0  0
   57.0295   31.8385   41.1612 H   0  0  0  0  0  0  0  0  0  0  0  0
   58.7440   33.0903   42.6672 H   0  0  0  0  0  0  0  0  0  0  0  0
   56.9659   33.4517   42.8481 H   0  0  0  0  0  0  0  0  0  0  0  0
  1  2  2  0
  2  3  1  0
  3  4  2  3
  4  5  1  0
  5  6  1  0
  6  7  1  0
  7  8  2  0
  7  9  1  0
  9 10  1  0
 10 11  1  0
  3 12  1  0
 12 13  2  0
 13 14  1  0
 13 15  1  0
 15 16  1  0
 16 17  2  0
 17 18  1  0
 18 19  2  0
 19 20  1  0
 20 21  2  0
 21 22  1  0
 22 23  2  0
 22 24  1  0
 24 25  1  0
 25 26  2  0
 25 27  1  0
 27 28  2  0
 27 29  1  0
 29 30  1  0
 30 31  1  0
 31 32  1  0
 32 33  1  0
 33 34  1  0
 15  2  1  0
 21 16  1  0
 34 29  1  0
 10  5  2  0
  1 35  1  0
  1 36  1  0
  4 37  1  0
 11 38  1  0
 12 39  1  0
 14 40  1  0
 14 41  1  0
 14 42  1  0
 17 43  1  0
 18 44  1  0
 19 45  1  0
 20 46  1  0
 24 47  1  0
 30 48  1  0
 30 49  1  0
 31 50  1  0
 31 51  1  0
 33 52  1  0
 33 53  1  0
 34 54  1  0
 34 55  1  0
M  CHG  2   6  -1   9  -1
M  END
>  <UniqueID>  (43) 
36

>  <SMILES>  (43) 
C=c1c(=Cc2[n-]c(=O)[n-]c2O)cc(C)n1-c1ccccc1C(=O)NC(=O)C(=O)N1CCOCC1

>  <Energy>  (43) 
140.70304488985926

>  <Genealogy>  (43) 
C=c1c(=Cc2[n-]c(=O)[n-]c2O)cc(C)n1-c1ccccc1C(=O)NC(=O)C(=O)N1CCOCC1 (protonated)
C=c1c(=Cc2[n-]c(=O)[n-]c2O)cc(C)n1-c1ccccc1C(=O)NC(=O)C(=O)N1CCOCC1 (3D coordinates assigned)
C=c1c(=Cc2[n-]c(=O)[n-]c2O)cc(C)n1-c1ccccc1C(=O)NC(=O)C(=O)N1CCOCC1 (nonaromatic ring conformer: 140.70304488985926 kcal/mol)

>  <smiles>  (43) 
C=c1c(=Cc2[nH]c(=O)[nH]c2O)cc(C)n1-c1ccccc1C(=O)NC(=O)C(=O)N1CCOCC1

>  <score_type>  (43) 
oracle

>  <origin>  (43) 
adg

>  <m_score__min__energy>  (43) 
-13.609999999999999

>  <m_primary>  (43) 
energy

$$$$
43:0
     RDKit          3D

 35 37  0  0  0  0  0  0  0  0999 V2000
   60.6840   30.5200   46.6380 C   0  0  0  0  0  0  0  0  0  0  0  0
   59.4930   30.3100   46.0360 C   0  0  0  0  0  0  0  0  0  0  0  0
   59.1340   28.9970   45.6430 C   0  0  0  0  0  0  0  0  0  0  0  0
   59.9420   28.0420   45.8160 O   0  0  0  0  0  0  0  0  0  0  0  0
   57.8790   28.7840   45.0270 C   0  0  0  0  0  0  0  0  0  0  0  0
   57.4170   27.5800   44.6260 C   0  0  0  0  0  0  0  0  0  0  0  0
   57.3790   26.3510   45.4430 C   0  0  0  0  0  0  0  0  0  0  0  0
   58.5160   25.5320   45.5030 C   0  0  0  0  0  0  0  0  0  0  0  0
   58.4920   24.3450   46.2410 C   0  0  0  0  0  0  0  0  0  0  0  0
   57.3250   23.9590   46.9090 C   0  0  0  0  0  0  0  0  0  0  0  0
   57.3030   22.7800   47.6440 O   0  0  0  0  0  0  0  0  0  0  0  0
   56.1790   24.7570   46.8330 C   0  0  0  0  0  0  0  0  0  0  0  0
   56.1980   25.9460   46.0950 C   0  0  0  0  0  0  0  0  0  0  0  0
   55.0420   26.7150   46.0080 O   0  0  0  0  0  0  0  0  0  0  0  0
   57.0830   29.8580   44.7980 N   0  0  0  0  0  0  0  0  0  0  0  0
   57.4280   31.1140   45.1630 C   0  0  0  0  0  0  0  0  0  0  0  0
   56.6290   32.0600   44.9200 O   0  0  0  0  0  0  0  0  0  0  0  0
   58.6210   31.3510   45.7910 N   0  0  0  0  0  0  0  0  0  0  0  0
   58.9320   32.7070   46.1740 C   0  0  0  0  0  0  0  0  0  0  0  0
   59.2250   33.6630   45.1880 C   0  0  0  0  0  0  0  0  0  0  0  0
   59.5270   34.9780   45.5550 C   0  0  0  0  0  0  0  0  0  0  0  0
   59.5370   35.3450   46.9030 C   0  0  0  0  0  0  0  0  0  0  0  0
   59.2430   34.3970   47.8890 C   0  0  0  0  0  0  0  0  0  0  0  0
   58.9400   33.0800   47.5290 C   0  0  0  0  0  0  0  0  0  0  0  0
   58.6490   32.1450   48.5150 O   0  0  0  0  0  0  0  0  0  0  0  0
   60.9725   31.5355   46.9471 H   0  0  0  0  0  0  0  0  0  0  0  0
   61.3652   29.6755   46.8191 H   0  0  0  0  0  0  0  0  0  0  0  0
   57.0343   27.5086   43.5972 H   0  0  0  0  0  0  0  0  0  0  0  0
   59.4307   25.8250   44.9669 H   0  0  0  0  0  0  0  0  0  0  0  0
   59.3913   23.7140   46.2965 H   0  0  0  0  0  0  0  0  0  0  0  0
   55.2606   24.4494   47.3545 H   0  0  0  0  0  0  0  0  0  0  0  0
   59.2169   33.3771   44.1258 H   0  0  0  0  0  0  0  0  0  0  0  0
   59.7571   35.7249   44.7810 H   0  0  0  0  0  0  0  0  0  0  0  0
   59.7761   36.3798   47.1892 H   0  0  0  0  0  0  0  0  0  0  0  0
   59.2502   34.6881   48.9497 H   0  0  0  0  0  0  0  0  0  0  0  0
  1  2  2  0
  2  3  1  0
  3  4  2  0
  3  5  1  0
  5  6  2  3
  6  7  1  0
  7  8  2  0
  8  9  1  0
  9 10  2  0
 10 11  1  0
 10 12  1  0
 12 13  2  0
 13 14  1  0
  5 15  1  0
 15 16  1  0
 16 17  2  0
 16 18  1  0
 18 19  1  0
 19 20  2  0
 20 21  1  0
 21 22  2  0
 22 23  1  0
 23 24  2  0
 24 25  1  0
 18  2  1  0
 24 19  1  0
 13  7  1  0
  1 26  1  0
  1 27  1  0
  6 28  1  0
  8 29  1  0
  9 30  1  0
 12 31  1  0
 20 32  1  0
 21 33  1  0
 22 34  1  0
 23 35  1  0
M  CHG  4  11  -1  14  -1  15  -1  25  -1
M  END
>  <UniqueID>  (44) 
37

>  <SMILES>  (44) 
C=c1c(=O)c(=Cc2ccc([O-])cc2[O-])[n-]c(=O)n1-c1ccccc1[O-]

>  <Energy>  (44) 
67.76825307416819

>  <Genealogy>  (44) 
C=c1c(=O)c(=Cc2ccc([O-])cc2[O-])[n-]c(=O)n1-c1ccccc1[O-] (protonated)
C=c1c(=O)c(=Cc2ccc([O-])cc2[O-])[n-]c(=O)n1-c1ccccc1[O-] (3D coordinates assigned)
C=c1c(=O)c(=Cc2ccc([O-])cc2[O-])[n-]c(=O)n1-c1ccccc1[O-] (optimized conformer: 67.76825307416819 kcal/mol)

>  <smiles>  (44) 
C=c1c(=O)c(=Cc2ccc(O)cc2O)[nH]c(=O)n1-c1ccccc1O

>  <score_type>  (44) 
oracle

>  <origin>  (44) 
adg

>  <m_score__min__energy>  (44) 
-16.140000000000001

>  <m_primary>  (44) 
energy

$$$$
44:0
     RDKit          3D

 65 69  0  0  0  0  0  0  0  0999 V2000
   58.5634   31.7978   44.3622 H   0  0  0  0  0  0  0  0  0  0  0  0
   58.7440   31.1600   45.2400 C   0  0  0  0  0  0  0  0  0  0  0  0
   59.7360   31.4730   46.0290 N   0  0  0  0  0  0  0  0  0  0  0  0
   59.7970   32.5670   46.9600 C   0  0  0  0  0  0  0  0  0  0  0  0
   60.0630   32.2840   48.3080 C   0  0  0  0  0  0  0  0  0  0  0  0
   60.2775   31.2499   48.6156 H   0  0  0  0  0  0  0  0  0  0  0  0
   60.0580   33.3030   49.2630 C   0  0  0  0  0  0  0  0  0  0  0  0
   60.3127   33.0783   50.3093 H   0  0  0  0  0  0  0  0  0  0  0  0
   59.7300   34.6050   48.8890 C   0  0  0  0  0  0  0  0  0  0  0  0
   59.7383   35.4101   49.6385 H   0  0  0  0  0  0  0  0  0  0  0  0
   59.3910   34.8890   47.5650 C   0  0  0  0  0  0  0  0  0  0  0  0
   59.0902   35.9090   47.2839 H   0  0  0  0  0  0  0  0  0  0  0  0
   59.4320   33.8800   46.5910 C   0  0  0  0  0  0  0  0  0  0  0  0
   58.9190   34.2770   44.9120 S   0  0  0  0  0  0  0  0  0  0  0  0
   57.1340   34.1780   45.2670 C   0  0  0  0  0  0  0  0  0  0  0  0
   56.9766   34.1693   46.3556 H   0  0  0  0  0  0  0  0  0  0  0  0
   56.6243   35.0493   44.8298 H   0  0  0  0  0  0  0  0  0  0  0  0
   56.7238   33.2557   44.8298 H   0  0  0  0  0  0  0  0  0  0  0  0
   57.8430   29.9970   45.4520 C   0  0  0  0  0  0  0  0  0  0  0  0
   56.6050   29.9720   44.7840 C   0  0  0  0  0  0  0  0  0  0  0  0
   56.2450   30.9420   44.0630 O   0  0  0  0  0  0  0  0  0  0  0  0
   55.7940   28.8880   44.8830 N   0  0  0  0  0  0  0  0  0  0  0  0
   56.1250   27.7970   45.6180 C   0  0  0  0  0  0  0  0  0  0  0  0
   55.2580   26.7090   45.6430 O   0  0  0  0  0  0  0  0  0  0  0  0
   57.3260   27.7790   46.3450 C   0  0  0  0  0  0  0  0  0  0  0  0
   57.6950   26.6610   47.1120 C   0  0  0  0  0  0  0  0  0  0  0  0
   57.0477   25.7718   47.1307 H   0  0  0  0  0  0  0  0  0  0  0  0
   58.8790   26.6740   47.8500 C   0  0  0  0  0  0  0  0  0  0  0  0
   59.1800   25.7810   48.4174 H   0  0  0  0  0  0  0  0  0  0  0  0
   59.6860   27.8180   47.8720 C   0  0  0  0  0  0  0  0  0  0  0  0
   60.9070   27.8440   48.6260 N   0  0  0  0  0  0  0  0  0  0  0  0
   61.6990   27.2460   48.2990 H   0  0  0  0  0  0  0  0  0  0  0  0
   61.0550   28.5550   49.8670 C   0  0  0  0  0  0  0  0  0  0  0  0
   61.6590   29.8190   49.8670 C   0  0  0  0  0  0  0  0  0  0  0  0
   61.9941   30.2652   48.9191 H   0  0  0  0  0  0  0  0  0  0  0  0
   61.8380   30.5160   51.0650 C   0  0  0  0  0  0  0  0  0  0  0  0
   62.3145   31.5074   51.0574 H   0  0  0  0  0  0  0  0  0  0  0  0
   61.4130   29.9560   52.2720 C   0  0  0  0  0  0  0  0  0  0  0  0
   61.5545   30.5109   53.2112 H   0  0  0  0  0  0  0  0  0  0  0  0
   60.8080   28.6930   52.2950 C   0  0  0  0  0  0  0  0  0  0  0  0
   60.4030   28.1510   53.5610 N   0  0  0  0  0  0  0  0  0  0  0  0
   59.0710   27.8150   53.9720 C   0  0  0  0  0  0  0  0  0  0  0  0
   58.6700   26.6200   53.9630 O   0  0  0  0  0  0  0  0  0  0  0  0
   58.1330   28.9040   54.3840 C   0  0  0  0  0  0  0  0  0  0  0  0
   57.1163   28.4930   54.4699 H   0  0  0  0  0  0  0  0  0  0  0  0
   58.4608   29.3090   55.3528 H   0  0  0  0  0  0  0  0  0  0  0  0
   58.1350   30.0110   53.3680 C   0  0  0  0  0  0  0  0  0  0  0  0
   57.6090   29.7950   52.0850 C   0  0  0  0  0  0  0  0  0  0  0  0
   57.2002   28.8091   51.8188 H   0  0  0  0  0  0  0  0  0  0  0  0
   57.6030   30.8280   51.1450 C   0  0  0  0  0  0  0  0  0  0  0  0
   57.1778   30.6566   50.1451 H   0  0  0  0  0  0  0  0  0  0  0  0
   58.1350   32.0780   51.4700 C   0  0  0  0  0  0  0  0  0  0  0  0
   58.1112   32.8917   50.7302 H   0  0  0  0  0  0  0  0  0  0  0  0
   58.7010   32.3020   52.7380 C   0  0  0  0  0  0  0  0  0  0  0  0
   59.2230   33.6640   53.1180 C   0  0  0  0  0  0  0  0  0  0  0  0
   58.2240   34.6180   53.0380 F   0  0  0  0  0  0  0  0  0  0  0  0
   60.2500   34.0410   52.2710 F   0  0  0  0  0  0  0  0  0  0  0  0
   59.7010   33.6200   54.4130 F   0  0  0  0  0  0  0  0  0  0  0  0
   58.6850   31.2630   53.6870 C   0  0  0  0  0  0  0  0  0  0  0  0
   59.1074   31.4333   54.6883 H   0  0  0  0  0  0  0  0  0  0  0  0
   60.6560   27.9810   51.0900 C   0  0  0  0  0  0  0  0  0  0  0  0
   60.2229   26.9700   51.1036 H   0  0  0  0  0  0  0  0  0  0  0  0
   59.2960   28.9520   47.1520 C   0  0  0  0  0  0  0  0  0  0  0  0
   59.8771   29.8813   47.2450 H   0  0  0  0  0  0  0  0  0  0  0  0
   58.1690   28.9180   46.3100 C   0  0  0  0  0  0  0  0  0  0  0  0
  1  2  1  0
  2  3  2  0
  3  4  1  0
  4  5  2  0
  5  6  1  0
  5  7  1  0
  7  8  1  0
  7  9  2  0
  9 10  1  0
  9 11  1  0
 11 12  1  0
 11 13  2  0
 13 14  1  0
 14 15  1  0
 15 16  1  0
 15 17  1  0
 15 18  1  0
  2 19  1  0
 19 20  1  0
 20 21  2  0
 20 22  1  0
 22 23  1  0
 23 24  1  0
 23 25  2  0
 25 26  1  0
 26 27  1  0
 26 28  2  0
 28 29  1  0
 28 30  1  0
 30 31  1  0
 31 32  1  0
 31 33  1  0
 33 34  2  0
 34 35  1  0
 34 36  1  0
 36 37  1  0
 36 38  2  0
 38 39  1  0
 38 40  1  0
 40 41  1  0
 41 42  1  0
 42 43  2  0
 42 44  1  0
 44 45  1  0
 44 46  1  0
 44 47  1  0
 47 48  2  0
 48 49  1  0
 48 50  1  0
 50 51  1  0
 50 52  2  0
 52 53  1  0
 52 54  1  0
 54 55  1  0
 55 56  1  0
 55 57  1  0
 55 58  1  0
 54 59  2  0
 59 60  1  0
 40 61  2  0
 61 62  1  0
 30 63  2  0
 63 64  1  0
 63 65  1  0
 13  4  1  0
 65 19  2  0
 65 25  1  0
 61 33  1  0
 59 47  1  0
M  CHG  3  22  -1  24  -1  41  -1
M  END
>  <UniqueID>  (45) 
38

>  <SMILES>  (45) 
CSc1ccccc1/N=C\c1c(=O)[n-]c([O-])c2ccc(Nc3cccc([N-]C(=O)Cc4cccc(C(F)(F)F)c4)c3)cc12

>  <Energy>  (45) 
93.10576463175822

>  <Genealogy>  (45) 
CSc1ccccc1N=Cc1c(=O)[n-]c([O-])c2ccc(Nc3cccc([N-]C(=O)Cc4cccc(C(F)(F)F)c4)c3)cc12 (protonated)
CSc1ccccc1/N=C\c1c(=O)[n-]c([O-])c2ccc(Nc3cccc([N-]C(=O)Cc4cccc(C(F)(F)F)c4)c3)cc12 (cis-trans isomerization)
CSc1ccccc1/N=C\c1c(=O)[n-]c([O-])c2ccc(Nc3cccc([N-]C(=O)Cc4cccc(C(F)(F)F)c4)c3)cc12 (3D coordinates assigned)
CSc1ccccc1/N=C\c1c(=O)[n-]c([O-])c2ccc(Nc3cccc([N-]C(=O)Cc4cccc(C(F)(F)F)c4)c3)cc12 (optimized conformer: 93.10576463175822 kcal/mol)

>  <smiles>  (45) 
CSc1ccccc1N=Cc1c(=O)[nH]c(O)c2ccc(Nc3cccc(NC(=O)Cc4cccc(C(F)(F)F)c4)c3)cc12

>  <score_type>  (45) 
oracle

>  <origin>  (45) 
adg

>  <m_score__min__energy>  (45) 
-15.58

>  <m_primary>  (45) 
energy

$$$$
45:0
     RDKit          3D

 55 57  0  0  0  0  0  0  0  0999 V2000
   56.4080   22.4800   41.5840 H   0  0  0  0  0  0  0  0  0  0  0  0
   56.2200   21.8050   42.3590 N   0  0  0  0  0  0  0  0  0  0  0  0
   56.7420   21.9520   43.5360 C   0  0  0  0  0  0  0  0  0  0  0  0
   56.7020   23.2820   44.1950 C   0  0  0  0  0  0  0  0  0  0  0  0
   57.7740   24.1820   44.0440 C   0  0  0  0  0  0  0  0  0  0  0  0
   58.6407   23.8990   43.4286 H   0  0  0  0  0  0  0  0  0  0  0  0
   57.7470   25.4320   44.6690 C   0  0  0  0  0  0  0  0  0  0  0  0
   58.5989   26.1187   44.5560 H   0  0  0  0  0  0  0  0  0  0  0  0
   56.6400   25.8150   45.4390 C   0  0  0  0  0  0  0  0  0  0  0  0
   56.6290   27.1300   46.1650 C   0  0  0  0  0  0  0  0  0  0  0  0
   56.0124   27.0437   47.0718 H   0  0  0  0  0  0  0  0  0  0  0  0
   57.6566   27.4033   46.4467 H   0  0  0  0  0  0  0  0  0  0  0  0
   56.0730   28.1570   45.2950 N   0  0  0  0  0  0  0  0  0  0  0  0
   56.8460   29.2170   44.7230 C   0  0  0  0  0  0  0  0  0  0  0  0
   57.9310   28.9650   44.1350 O   0  0  0  0  0  0  0  0  0  0  0  0
   56.4310   30.5790   44.8700 N   0  0  0  0  0  0  0  0  0  0  0  0
   57.3330   31.6710   45.0790 C   0  0  0  0  0  0  0  0  0  0  0  0
   57.0730   32.9470   44.5510 C   0  0  0  0  0  0  0  0  0  0  0  0
   56.2076   33.1013   43.8897 H   0  0  0  0  0  0  0  0  0  0  0  0
   57.9110   34.0200   44.8640 C   0  0  0  0  0  0  0  0  0  0  0  0
   57.7085   35.0166   44.4447 H   0  0  0  0  0  0  0  0  0  0  0  0
   59.0080   33.8270   45.7110 C   0  0  0  0  0  0  0  0  0  0  0  0
   59.9800   35.2290   46.2640 S   0  0  0  0  0  0  0  0  0  0  0  0
   60.8050   34.2440   47.5180 C   0  0  0  0  0  0  0  0  0  0  0  0
   62.0560   33.6810   47.2470 C   0  0  0  0  0  0  0  0  0  0  0  0
   62.5080   33.8000   46.2512 H   0  0  0  0  0  0  0  0  0  0  0  0
   62.7320   32.9680   48.2390 C   0  0  0  0  0  0  0  0  0  0  0  0
   63.7137   32.5219   48.0219 H   0  0  0  0  0  0  0  0  0  0  0  0
   62.1640   32.8200   49.5070 C   0  0  0  0  0  0  0  0  0  0  0  0
   62.7070   32.2676   50.2881 H   0  0  0  0  0  0  0  0  0  0  0  0
   60.9020   33.3730   49.7910 C   0  0  0  0  0  0  0  0  0  0  0  0
   60.3250   33.2540   51.1500 C   0  0  0  0  0  0  0  0  0  0  0  0
   61.0900   33.2860   52.1530 O   0  0  0  0  0  0  0  0  0  0  0  0
   58.9100   33.1160   51.3510 N   0  0  0  0  0  0  0  0  0  0  0  0
   58.2030   32.0010   50.7150 C   0  0  0  0  0  0  0  0  0  0  0  0
   57.7851   31.3419   51.4902 H   0  0  0  0  0  0  0  0  0  0  0  0
   57.3881   32.3930   50.0887 H   0  0  0  0  0  0  0  0  0  0  0  0
   58.9051   31.4311   50.0887 H   0  0  0  0  0  0  0  0  0  0  0  0
   58.2640   33.8500   52.4380 C   0  0  0  0  0  0  0  0  0  0  0  0
   58.6114   33.4553   53.4042 H   0  0  0  0  0  0  0  0  0  0  0  0
   58.5215   34.9169   52.3638 H   0  0  0  0  0  0  0  0  0  0  0  0
   57.1731   33.7301   52.3638 H   0  0  0  0  0  0  0  0  0  0  0  0
   60.2260   34.0850   48.7830 C   0  0  0  0  0  0  0  0  0  0  0  0
   59.2368   34.5193   48.9900 H   0  0  0  0  0  0  0  0  0  0  0  0
   59.3040   32.5450   46.1880 C   0  0  0  0  0  0  0  0  0  0  0  0
   60.1897   32.3852   46.8204 H   0  0  0  0  0  0  0  0  0  0  0  0
   58.4760   31.4680   45.8620 C   0  0  0  0  0  0  0  0  0  0  0  0
   58.7226   30.4580   46.2213 H   0  0  0  0  0  0  0  0  0  0  0  0
   55.5670   24.9240   45.5890 C   0  0  0  0  0  0  0  0  0  0  0  0
   54.6983   25.2129   46.1989 H   0  0  0  0  0  0  0  0  0  0  0  0
   55.5940   23.6720   44.9690 C   0  0  0  0  0  0  0  0  0  0  0  0
   54.7422   22.9861   45.0871 H   0  0  0  0  0  0  0  0  0  0  0  0
   57.3650   20.8320   44.1770 N   0  0  0  0  0  0  0  0  0  0  0  0
   57.9400   20.9510   45.0390 H   0  0  0  0  0  0  0  0  0  0  0  0
   57.3250   19.8820   43.7440 H   0  0  0  0  0  0  0  0  0  0  0  0
  1  2  1  0
  2  3  2  0
  3  4  1  0
  4  5  2  0
  5  6  1  0
  5  7  1  0
  7  8  1  0
  7  9  2  0
  9 10  1  0
 10 11  1  0
 10 12  1  0
 10 13  1  0
 13 14  1  0
 14 15  2  0
 14 16  1  0
 16 17  1  0
 17 18  2  0
 18 19  1  0
 18 20  1  0
 20 21  1  0
 20 22  2  0
 22 23  1  0
 23 24  1  0
 24 25  2  0
 25 26  1  0
 25 27  1  0
 27 28  1  0
 27 29  2  0
 29 30  1  0
 29 31  1  0
 31 32  1  0
 32 33  2  0
 32 34  1  0
 34 35  1  0
 35 36  1  0
 35 37  1  0
 35 38  1  0
 34 39  1  0
 39 40  1  0
 39 41  1  0
 39 42  1  0
 31 43  2  0
 43 44  1  0
 22 45  1  0
 45 46  1  0
 45 47  2  0
 47 48  1  0
  9 49  1  0
 49 50  1  0
 49 51  2  0
 51 52  1  0
  3 53  1  0
 53 54  1  0
 53 55  1  0
 51  4  1  0
 47 17  1  0
 43 24  1  0
M  CHG  2  13  -1  16  -1
M  END
>  <UniqueID>  (46) 
39

>  <SMILES>  (46) 
[H]/N=C(\N)c1ccc(C[N-]C(=O)[N-]c2ccc(Sc3cccc(C(=O)N(C)C)c3)cc2)cc1

>  <Energy>  (46) 
58.83893883319722

>  <Genealogy>  (46) 
CN(C)C(=O)c1cccc(Sc2ccc([N-]C(=O)[N-]Cc3ccc(C(=N)N)cc3)cc2)c1 (protonated)
[H]/N=C(\N)c1ccc(C[N-]C(=O)[N-]c2ccc(Sc3cccc(C(=O)N(C)C)c3)cc2)cc1 (cis-trans isomerization)
[H]/N=C(\N)c1ccc(C[N-]C(=O)[N-]c2ccc(Sc3cccc(C(=O)N(C)C)c3)cc2)cc1 (3D coordinates assigned)
[H]/N=C(\N)c1ccc(C[N-]C(=O)[N-]c2ccc(Sc3cccc(C(=O)N(C)C)c3)cc2)cc1 (optimized conformer: 58.83893883319722 kcal/mol)

>  <smiles>  (46) 
CN(C)C(=O)c1cccc(Sc2ccc(NC(=O)NCc3ccc(C(=N)N)cc3)cc2)c1

>  <score_type>  (46) 
oracle

>  <origin>  (46) 
adg

>  <m_score__min__energy>  (46) 
-13.529999999999999

>  <m_primary>  (46) 
energy

$$$$
46:0
     RDKit          3D

 30 31  0  0  0  0  0  0  0  0999 V2000
   57.4790   34.2080   44.8850 C   0  0  0  0  0  0  0  0  0  0  0  0
   57.4690   33.7640   46.3450 C   0  0  0  0  0  0  0  0  0  0  0  0
   58.7370   32.9720   46.6900 C   0  0  0  0  0  0  0  0  0  0  0  0
   59.1350   31.9930   45.5740 C   0  0  0  0  0  0  0  0  0  0  0  0
   58.6560   30.6240   45.8580 N   0  0  0  0  0  0  0  0  0  0  0  0
   57.4450   30.2100   45.3490 C   0  0  0  0  0  0  0  0  0  0  0  0
   56.7250   30.9780   44.6530 O   0  0  0  0  0  0  0  0  0  0  0  0
   57.0240   28.9210   45.6200 C   0  0  0  0  0  0  0  0  0  0  0  0
   55.8870   28.3130   45.2470 N   0  0  0  0  0  0  0  0  0  0  0  0
   56.0310   27.0850   45.8120 C   0  0  0  0  0  0  0  0  0  0  0  0
   55.1390   26.1560   45.6990 N   0  0  0  0  0  0  0  0  0  0  0  0
   57.1830   26.9000   46.5070 N   0  0  0  0  0  0  0  0  0  0  0  0
   57.7880   28.0900   46.3600 C   0  0  0  0  0  0  0  0  0  0  0  0
   58.9960   28.4650   46.8590 N   0  0  0  0  0  0  0  0  0  0  0  0
   59.7870   27.5450   47.6880 C   0  0  0  0  0  0  0  0  0  0  0  0
   59.4240   29.7530   46.6180 C   0  0  0  0  0  0  0  0  0  0  0  0
   60.5280   30.1380   47.0940 O   0  0  0  0  0  0  0  0  0  0  0  0
   57.5037   35.3066   44.8360 H   0  0  0  0  0  0  0  0  0  0  0  0
   58.3682   33.7985   44.3833 H   0  0  0  0  0  0  0  0  0  0  0  0
   56.5723   33.8389   44.3833 H   0  0  0  0  0  0  0  0  0  0  0  0
   57.4139   34.6530   46.9905 H   0  0  0  0  0  0  0  0  0  0  0  0
   56.5963   33.1142   46.5067 H   0  0  0  0  0  0  0  0  0  0  0  0
   59.5634   33.6799   46.8509 H   0  0  0  0  0  0  0  0  0  0  0  0
   58.5301   32.3834   47.5960 H   0  0  0  0  0  0  0  0  0  0  0  0
   58.6966   32.3354   44.6250 H   0  0  0  0  0  0  0  0  0  0  0  0
   60.2330   31.9685   45.5118 H   0  0  0  0  0  0  0  0  0  0  0  0
   54.2150   26.3460   45.2490 H   0  0  0  0  0  0  0  0  0  0  0  0
   59.6029   27.7591   48.7511 H   0  0  0  0  0  0  0  0  0  0  0  0
   59.4941   26.5081   47.4667 H   0  0  0  0  0  0  0  0  0  0  0  0
   60.8561   27.6792   47.4667 H   0  0  0  0  0  0  0  0  0  0  0  0
  1  2  1  0
  2  3  1  0
  3  4  1  0
  4  5  1  0
  5  6  1  0
  6  7  2  0
  6  8  1  0
  8  9  1  0
  9 10  1  0
 10 11  2  3
 10 12  1  0
 12 13  1  0
 13 14  1  0
 14 15  1  0
 14 16  1  0
 16 17  2  0
 16  5  1  0
 13  8  2  0
  1 18  1  0
  1 19  1  0
  1 20  1  0
  2 21  1  0
  2 22  1  0
  3 23  1  0
  3 24  1  0
  4 25  1  0
  4 26  1  0
 11 27  1  0
 15 28  1  0
 15 29  1  0
 15 30  1  0
M  CHG  2   9  -1  12  -1
M  END
>  <UniqueID>  (47) 
40

>  <SMILES>  (47) 
CCCCn1c(=O)c2[n-]c(=N)[n-]c2n(C)c1=O

>  <Energy>  (47) 
65.69833291619487

>  <Genealogy>  (47) 
CCCCn1c(=O)c2[n-]c(=N)[n-]c2n(C)c1=O (protonated)
CCCCn1c(=O)c2[n-]c(=N)[n-]c2n(C)c1=O (3D coordinates assigned)
CCCCn1c(=O)c2[n-]c(=N)[n-]c2n(C)c1=O (optimized conformer: 65.69833291619487 kcal/mol)

>  <smiles>  (47) 
CCCCn1c(=O)c2[nH]c(=N)[nH]c2n(C)c1=O

>  <score_type>  (47) 
oracle

>  <origin>  (47) 
adg

>  <m_score__min__energy>  (47) 
-9.8300000000000001

>  <m_primary>  (47) 
energy

$$$$
47:0
     RDKit          3D

 53 56  0  0  0  0  0  0  0  0999 V2000
   56.4510   30.0920   46.0110 H   0  0  0  0  0  0  0  0  0  0  0  0
   56.3390   30.1050   45.0250 O   0  0  0  0  0  0  0  0  0  0  0  0
   57.4480   30.7620   44.4470 C   0  0  1  0  0  0  0  0  0  0  0  0
   57.7100   32.0690   45.1910 C   0  0  0  0  0  0  0  0  0  0  0  0
   56.9910   33.2500   45.1120 C   0  0  0  0  0  0  0  0  0  0  0  0
   56.1619   33.4420   44.4151 H   0  0  0  0  0  0  0  0  0  0  0  0
   57.4620   34.1280   46.0190 N   0  0  0  0  0  0  0  0  0  0  0  0
   58.4580   33.4590   46.6320 C   0  0  0  0  0  0  0  0  0  0  0  0
   59.1340   33.9780   47.6160 N   0  0  0  0  0  0  0  0  0  0  0  0
   60.4940   33.6770   47.9620 C   0  0  0  0  0  0  0  0  0  0  0  0
   61.5100   33.7160   46.9940 C   0  0  0  0  0  0  0  0  0  0  0  0
   61.2594   33.9449   45.9477 H   0  0  0  0  0  0  0  0  0  0  0  0
   62.8370   33.4660   47.3510 C   0  0  0  0  0  0  0  0  0  0  0  0
   63.6202   33.4840   46.5788 H   0  0  0  0  0  0  0  0  0  0  0  0
   63.1830   33.1920   48.6840 C   0  0  0  0  0  0  0  0  0  0  0  0
   64.6480   32.9280   48.9920 C   0  0  0  0  0  0  0  0  0  0  0  0
   64.9530   33.0339   47.9405 H   0  0  0  0  0  0  0  0  0  0  0  0
   65.1820   33.4340   50.3250 C   0  0  0  0  0  0  0  0  0  0  0  0
   66.2045   33.8340   50.3919 H   0  0  0  0  0  0  0  0  0  0  0  0
   64.8452   34.1711   51.0688 H   0  0  0  0  0  0  0  0  0  0  0  0
   64.9600   31.9420   50.1090 C   0  0  0  0  0  0  0  0  0  0  0  0
   65.8222   31.2648   50.0200 H   0  0  0  0  0  0  0  0  0  0  0  0
   64.3965   31.1555   50.6324 H   0  0  0  0  0  0  0  0  0  0  0  0
   62.1620   33.1880   49.6590 C   0  0  0  0  0  0  0  0  0  0  0  0
   62.4143   32.9855   50.7103 H   0  0  0  0  0  0  0  0  0  0  0  0
   60.8320   33.4390   49.3020 C   0  0  0  0  0  0  0  0  0  0  0  0
   59.4870   33.4270   50.6650 Br  0  0  0  0  0  0  0  0  0  0  0  0
   58.6230   32.2010   46.1700 N   0  0  0  0  0  0  0  0  0  0  0  0
   59.2620   31.4580   46.5290 H   0  0  0  0  0  0  0  0  0  0  0  0
   58.6740   29.7950   44.4810 C   0  0  0  0  0  0  0  0  0  0  0  0
   59.0927   29.7289   43.4660 H   0  0  0  0  0  0  0  0  0  0  0  0
   59.3915   30.2101   45.2041 H   0  0  0  0  0  0  0  0  0  0  0  0
   58.3320   28.3970   44.9490 C   0  0  0  0  0  0  0  0  0  0  0  0
   58.1040   27.3750   44.0090 C   0  0  0  0  0  0  0  0  0  0  0  0
   58.1875   27.5925   42.9340 H   0  0  0  0  0  0  0  0  0  0  0  0
   57.7720   26.0850   44.4330 C   0  0  0  0  0  0  0  0  0  0  0  0
   57.5917   25.2922   43.6920 H   0  0  0  0  0  0  0  0  0  0  0  0
   57.6690   25.8020   45.7970 C   0  0  0  0  0  0  0  0  0  0  0  0
   57.4053   24.7872   46.1297 H   0  0  0  0  0  0  0  0  0  0  0  0
   57.9010   26.8080   46.7390 C   0  0  0  0  0  0  0  0  0  0  0  0
   57.8214   26.5840   47.8130 H   0  0  0  0  0  0  0  0  0  0  0  0
   58.2340   28.0980   46.3180 C   0  0  0  0  0  0  0  0  0  0  0  0
   58.4207   28.8848   47.0637 H   0  0  0  0  0  0  0  0  0  0  0  0
   57.0430   31.0720   42.9790 C   0  0  0  0  0  0  0  0  0  0  0  0
   55.9861   31.3769   42.9805 H   0  0  0  0  0  0  0  0  0  0  0  0
   57.2496   30.1490   42.4174 H   0  0  0  0  0  0  0  0  0  0  0  0
   57.8520   32.1800   42.2620 C   0  0  0  0  0  0  0  0  0  0  0  0
   58.9139   31.8931   42.2536 H   0  0  0  0  0  0  0  0  0  0  0  0
   57.6935   33.1201   42.8107 H   0  0  0  0  0  0  0  0  0  0  0  0
   57.3900   32.3970   40.8200 C   0  0  0  0  0  0  0  0  0  0  0  0
   56.3944   32.8646   40.8204 H   0  0  0  0  0  0  0  0  0  0  0  0
   58.1035   33.0541   40.3013 H   0  0  0  0  0  0  0  0  0  0  0  0
   57.3399   31.4283   40.3013 H   0  0  0  0  0  0  0  0  0  0  0  0
  1  2  1  0
  3  2  1  1
  3  4  1  0
  4  5  2  0
  5  6  1  0
  5  7  1  0
  7  8  1  0
  8  9  2  0
  9 10  1  0
 10 11  2  0
 11 12  1  0
 11 13  1  0
 13 14  1  0
 13 15  2  0
 15 16  1  0
 16 17  1  0
 16 18  1  0
 18 19  1  0
 18 20  1  0
 18 21  1  0
 21 22  1  0
 21 23  1  0
 15 24  1  0
 24 25  1  0
 24 26  2  0
 26 27  1  0
  8 28  1  0
 28 29  1  0
  3 30  1  0
 30 31  1  0
 30 32  1  0
 30 33  1  0
 33 34  2  0
 34 35  1  0
 34 36  1  0
 36 37  1  0
 36 38  2  0
 38 39  1  0
 38 40  1  0
 40 41  1  0
 40 42  2  0
 42 43  1  0
  3 44  1  0
 44 45  1  0
 44 46  1  0
 44 47  1  0
 47 48  1  0
 47 49  1  0
 47 50  1  0
 50 51  1  0
 50 52  1  0
 50 53  1  0
 28  4  1  0
 42 33  1  0
 26 10  1  0
 21 16  1  0
M  CHG  1   7  -1
M  END
>  <UniqueID>  (48) 
41

>  <SMILES>  (48) 
CCC[C@@](O)(Cc1ccccc1)c1c[n-]/c(=N/c2ccc(C3CC3)cc2Br)[nH]1

>  <Energy>  (48) 
361.16188092579563

>  <Genealogy>  (48) 
CCCC(O)(Cc1ccccc1)c1c[n-]c(=Nc2ccc(C3CC3)cc2Br)[nH]1 (protonated)
CCC[C@@](O)(Cc1ccccc1)c1c[n-]c(=Nc2ccc(C3CC3)cc2Br)[nH]1 (chirality)
CCC[C@@](O)(Cc1ccccc1)c1c[n-]/c(=N/c2ccc(C3CC3)cc2Br)[nH]1 (cis-trans isomerization)
CCC[C@@](O)(Cc1ccccc1)c1c[n-]/c(=N/c2ccc(C3CC3)cc2Br)[nH]1 (3D coordinates assigned)
CCC[C@@](O)(Cc1ccccc1)c1c[n-]/c(=N/c2ccc(C3CC3)cc2Br)[nH]1 (nonaromatic ring conformer: 361.16188092579563 kcal/mol)

>  <smiles>  (48) 
CCCC(O)(Cc1ccccc1)c1c[nH]c(=Nc2ccc(C3CC3)cc2Br)[nH]1

>  <score_type>  (48) 
oracle

>  <origin>  (48) 
adg

>  <m_score__min__energy>  (48) 
-10.58

>  <m_primary>  (48) 
energy

$$$$
48:0
     RDKit          3D

 69 74  0  0  0  0  0  0  0  0999 V2000
   60.0480   35.3320   47.0930 O   0  0  0  0  0  0  0  0  0  0  0  0
   59.9550   34.1020   46.8120 C   0  0  0  0  0  0  0  0  0  0  0  0
   58.6320   33.3960   46.9050 C   0  0  0  0  0  0  0  0  0  0  0  0
   58.7890   31.8850   46.8900 C   0  0  0  0  0  0  0  0  0  0  0  0
   59.4760   31.1840   47.9240 C   0  0  0  0  0  0  0  0  0  0  0  0
   60.0800   31.8720   49.1390 C   0  0  0  0  0  0  0  0  0  0  0  0
   60.0340   30.9770   50.3650 C   0  0  0  0  0  0  0  0  0  0  0  0
   61.1700   30.1880   50.6240 C   0  0  0  0  0  0  0  0  0  0  0  0
   61.2100   29.3160   51.7090 C   0  0  0  0  0  0  0  0  0  0  0  0
   60.1160   29.2050   52.5610 C   0  0  0  0  0  0  0  0  0  0  0  0
   58.9660   29.9710   52.3400 C   0  0  0  0  0  0  0  0  0  0  0  0
   57.8700   29.8410   53.2080 C   0  0  0  0  0  0  0  0  0  0  0  0
   56.7150   30.5930   53.0000 C   0  0  0  0  0  0  0  0  0  0  0  0
   56.6440   31.4860   51.9340 C   0  0  0  0  0  0  0  0  0  0  0  0
   57.7260   31.6320   51.0610 C   0  0  0  0  0  0  0  0  0  0  0  0
   58.9070   30.8740   51.2380 C   0  0  0  0  0  0  0  0  0  0  0  0
   59.5660   29.7820   47.8480 C   0  0  0  0  0  0  0  0  0  0  0  0
   58.9690   29.0900   46.7950 C   0  0  0  0  0  0  0  0  0  0  0  0
   59.0720   27.8360   46.7360 O   0  0  0  0  0  0  0  0  0  0  0  0
   58.2750   29.7760   45.8420 N   0  0  0  0  0  0  0  0  0  0  0  0
   58.1640   31.1250   45.8740 C   0  0  0  0  0  0  0  0  0  0  0  0
   57.1810   31.8260   44.5520 S   0  0  0  0  0  0  0  0  0  0  0  0
   57.3280   30.2310   43.6760 C   0  0  0  0  0  0  0  0  0  0  0  0
   57.5910   29.1380   44.7190 C   0  0  2  0  0  0  0  0  0  0  0  0
   56.3070   28.5110   45.1940 C   0  0  0  0  0  0  0  0  0  0  0  0
   55.1990   29.0120   44.8570 O   0  0  0  0  0  0  0  0  0  0  0  0
   56.3580   27.3210   45.9910 N   0  0  0  0  0  0  0  0  0  0  0  0
   56.3870   25.9710   45.5010 C   0  0  0  0  0  0  0  0  0  0  0  0
   55.4280   25.0160   45.8910 C   0  0  0  0  0  0  0  0  0  0  0  0
   55.4810   23.7170   45.3770 C   0  0  0  0  0  0  0  0  0  0  0  0
   56.4960   23.3570   44.4880 C   0  0  0  0  0  0  0  0  0  0  0  0
   56.5400   22.1030   43.9800 F   0  0  0  0  0  0  0  0  0  0  0  0
   57.4710   24.2910   44.1240 C   0  0  0  0  0  0  0  0  0  0  0  0
   57.4260   25.5880   44.6420 C   0  0  0  0  0  0  0  0  0  0  0  0
   61.1100   33.3740   46.3710 N   0  0  0  0  0  0  0  0  0  0  0  0
   62.4660   33.8790   46.5660 C   0  0  0  0  0  0  0  0  0  0  0  0
   62.9520   33.5070   47.9420 C   0  0  0  0  0  0  0  0  0  0  0  0
   62.5590   34.2560   49.0650 C   0  0  0  0  0  0  0  0  0  0  0  0
   62.9660   33.8700   50.3470 C   0  0  0  0  0  0  0  0  0  0  0  0
   63.7630   32.7340   50.5170 C   0  0  0  0  0  0  0  0  0  0  0  0
   64.1490   31.9780   49.4050 C   0  0  0  0  0  0  0  0  0  0  0  0
   63.7390   32.3560   48.1220 C   0  0  0  0  0  0  0  0  0  0  0  0
   58.1369   33.6920   47.8416 H   0  0  0  0  0  0  0  0  0  0  0  0
   58.0321   33.6832   46.0288 H   0  0  0  0  0  0  0  0  0  0  0  0
   61.1277   32.1268   48.9215 H   0  0  0  0  0  0  0  0  0  0  0  0
   59.4927   32.7777   49.3504 H   0  0  0  0  0  0  0  0  0  0  0  0
   62.0420   30.2613   49.9575 H   0  0  0  0  0  0  0  0  0  0  0  0
   62.1108   28.7122   51.8932 H   0  0  0  0  0  0  0  0  0  0  0  0
   60.1552   28.5110   53.4135 H   0  0  0  0  0  0  0  0  0  0  0  0
   57.9231   29.1425   54.0561 H   0  0  0  0  0  0  0  0  0  0  0  0
   55.8574   30.4807   53.6797 H   0  0  0  0  0  0  0  0  0  0  0  0
   55.7314   32.0799   51.7779 H   0  0  0  0  0  0  0  0  0  0  0  0
   57.6581   32.3451   50.2262 H   0  0  0  0  0  0  0  0  0  0  0  0
   60.1117   29.2274   48.6255 H   0  0  0  0  0  0  0  0  0  0  0  0
   56.3943   30.0145   43.1362 H   0  0  0  0  0  0  0  0  0  0  0  0
   58.1520   30.2700   42.9483 H   0  0  0  0  0  0  0  0  0  0  0  0
   58.2000   28.3356   44.2770 H   0  0  0  0  0  0  0  0  0  0  0  0
   54.6354   25.2929   46.6017 H   0  0  0  0  0  0  0  0  0  0  0  0
   54.7223   22.9776   45.6732 H   0  0  0  0  0  0  0  0  0  0  0  0
   58.2742   24.0044   43.4292 H   0  0  0  0  0  0  0  0  0  0  0  0
   58.2098   26.3118   44.3743 H   0  0  0  0  0  0  0  0  0  0  0  0
   60.9890   32.4100   45.9870 H   0  0  0  0  0  0  0  0  0  0  0  0
   63.1329   33.4377   45.8107 H   0  0  0  0  0  0  0  0  0  0  0  0
   62.4657   34.9742   46.4630 H   0  0  0  0  0  0  0  0  0  0  0  0
   61.9293   35.1486   48.9354 H   0  0  0  0  0  0  0  0  0  0  0  0
   62.6584   34.4612   51.2222 H   0  0  0  0  0  0  0  0  0  0  0  0
   64.0865   32.4347   51.5249 H   0  0  0  0  0  0  0  0  0  0  0  0
   64.7762   31.0844   49.5397 H   0  0  0  0  0  0  0  0  0  0  0  0
   64.0332   31.7510   47.2517 H   0  0  0  0  0  0  0  0  0  0  0  0
  1  2  2  0
  2  3  1  0
  3  4  1  0
  4  5  1  0
  5  6  1  0
  6  7  1  0
  7  8  2  0
  8  9  1  0
  9 10  2  0
 10 11  1  0
 11 12  2  0
 12 13  1  0
 13 14  2  0
 14 15  1  0
 15 16  2  0
  5 17  2  0
 17 18  1  0
 18 19  2  0
 18 20  1  0
 20 21  1  0
 21 22  1  0
 22 23  1  0
 23 24  1  0
 24 25  1  0
 25 26  2  0
 25 27  1  0
 27 28  1  0
 28 29  2  0
 29 30  1  0
 30 31  2  0
 31 32  1  0
 31 33  1  0
 33 34  2  0
  2 35  1  0
 35 36  1  0
 36 37  1  0
 37 38  2  0
 38 39  1  0
 39 40  2  0
 40 41  1  0
 41 42  2  0
 21  4  2  0
 34 28  1  0
 42 37  1  0
 16  7  1  0
 24 20  1  0
 16 11  1  0
  3 43  1  0
  3 44  1  0
  6 45  1  0
  6 46  1  0
  8 47  1  0
  9 48  1  0
 10 49  1  0
 12 50  1  0
 13 51  1  0
 14 52  1  0
 15 53  1  0
 17 54  1  0
 23 55  1  0
 23 56  1  0
 24 57  1  6
 29 58  1  0
 30 59  1  0
 33 60  1  0
 34 61  1  0
 35 62  1  0
 36 63  1  0
 36 64  1  0
 38 65  1  0
 39 66  1  0
 40 67  1  0
 41 68  1  0
 42 69  1  0
M  CHG  1  27  -1
M  END
>  <UniqueID>  (49) 
42

>  <SMILES>  (49) 
O=C(Cc1c(Cc2cccc3ccccc23)cc(=O)n2c1SC[C@@H]2C(=O)[N-]c1ccc(F)cc1)NCc1ccccc1

>  <Energy>  (49) 
95.27864655746936

>  <Genealogy>  (49) 
O=C(Cc1c(Cc2cccc3ccccc23)cc(=O)n2c1SCC2C(=O)[N-]c1ccc(F)cc1)NCc1ccccc1 (protonated)
O=C(Cc1c(Cc2cccc3ccccc23)cc(=O)n2c1SC[C@@H]2C(=O)[N-]c1ccc(F)cc1)NCc1ccccc1 (chirality)
O=C(Cc1c(Cc2cccc3ccccc23)cc(=O)n2c1SC[C@@H]2C(=O)[N-]c1ccc(F)cc1)NCc1ccccc1 (3D coordinates assigned)
O=C(Cc1c(Cc2cccc3ccccc23)cc(=O)n2c1SC[C@@H]2C(=O)[N-]c1ccc(F)cc1)NCc1ccccc1 (nonaromatic ring conformer: 95.27864655746936 kcal/mol)

>  <smiles>  (49) 
O=C(Cc1c(Cc2cccc3ccccc23)cc(=O)n2c1SCC2C(=O)Nc1ccc(F)cc1)NCc1ccccc1

>  <score_type>  (49) 
oracle

>  <origin>  (49) 
adg

>  <m_score__min__energy>  (49) 
-12.119999999999999

>  <m_primary>  (49) 
energy

$$$$
49:0
     RDKit          3D

 39 41  0  0  0  0  0  0  0  0999 V2000
   59.4978   34.1157   49.1150 H   0  0  0  0  0  0  0  0  0  0  0  0
   59.2660   34.1690   48.0410 C   0  0  0  0  0  0  0  0  0  0  0  0
   57.9920   33.3870   47.2690 S   0  0  0  0  0  0  0  0  0  0  0  0
   58.3290   33.9720   45.7290 C   0  0  0  0  0  0  0  0  0  0  0  0
   57.5750   33.6150   44.4830 C   0  0  0  0  0  0  0  0  0  0  0  0
   57.6165   34.4653   43.7863 H   0  0  0  0  0  0  0  0  0  0  0  0
   56.5374   33.3849   44.7666 H   0  0  0  0  0  0  0  0  0  0  0  0
   58.1670   32.3730   43.7890 C   0  0  1  0  0  0  0  0  0  0  0  0
   59.2627   32.4531   43.8435 H   0  0  0  0  0  0  0  0  0  0  0  0
   57.7210   31.1540   44.4800 N   0  0  0  0  0  0  0  0  0  0  0  0
   56.5650   30.4850   44.2780 C   0  0  0  0  0  0  0  0  0  0  0  0
   55.7778   30.7528   43.5579 H   0  0  0  0  0  0  0  0  0  0  0  0
   56.5490   29.4080   45.1350 C   0  0  0  0  0  0  0  0  0  0  0  0
   55.5260   28.4770   45.2470 O   0  0  0  0  0  0  0  0  0  0  0  0
   57.6750   29.3840   45.8690 N   0  0  0  0  0  0  0  0  0  0  0  0
   57.9160   28.6990   46.6200 H   0  0  0  0  0  0  0  0  0  0  0  0
   58.3740   30.4600   45.4420 C   0  0  0  0  0  0  0  0  0  0  0  0
   59.5310   30.8240   45.9190 N   0  0  0  0  0  0  0  0  0  0  0  0
   60.0520   30.4760   47.2080 C   0  0  0  0  0  0  0  0  0  0  0  0
   59.4840   29.5600   47.8600 O   0  0  0  0  0  0  0  0  0  0  0  0
   61.1860   31.2120   47.8210 C   0  0  0  0  0  0  0  0  0  0  0  0
   61.8970   32.1670   47.0730 C   0  0  0  0  0  0  0  0  0  0  0  0
   61.6081   32.3710   46.0314 H   0  0  0  0  0  0  0  0  0  0  0  0
   62.9690   32.8590   47.6450 C   0  0  0  0  0  0  0  0  0  0  0  0
   63.5164   33.6086   47.0546 H   0  0  0  0  0  0  0  0  0  0  0  0
   63.3460   32.6000   48.9650 C   0  0  0  0  0  0  0  0  0  0  0  0
   64.1867   33.1486   49.4147 H   0  0  0  0  0  0  0  0  0  0  0  0
   62.6550   31.6440   49.7140 C   0  0  0  0  0  0  0  0  0  0  0  0
   62.9553   31.4379   50.7520 H   0  0  0  0  0  0  0  0  0  0  0  0
   61.5830   30.9490   49.1470 C   0  0  0  0  0  0  0  0  0  0  0  0
   61.0466   30.1929   49.7391 H   0  0  0  0  0  0  0  0  0  0  0  0
   57.7820   32.3030   42.3060 C   0  0  0  0  0  0  0  0  0  0  0  0
   56.7034   32.1069   42.2161 H   0  0  0  0  0  0  0  0  0  0  0  0
   58.0226   33.2596   41.8192 H   0  0  0  0  0  0  0  0  0  0  0  0
   58.3439   31.4923   41.8192 H   0  0  0  0  0  0  0  0  0  0  0  0
   59.4560   34.7820   45.7960 C   0  0  0  0  0  0  0  0  0  0  0  0
   59.8952   35.2842   44.9214 H   0  0  0  0  0  0  0  0  0  0  0  0
   59.9750   34.8930   47.0920 C   0  0  0  0  0  0  0  0  0  0  0  0
   60.8614   35.4972   47.3353 H   0  0  0  0  0  0  0  0  0  0  0  0
  1  2  1  0
  2  3  1  0
  3  4  1  0
  4  5  1  0
  5  6  1  0
  5  7  1  0
  5  8  1  0
  8  9  1  6
  8 10  1  0
 10 11  1  0
 11 12  1  0
 11 13  2  0
 13 14  1  0
 13 15  1  0
 15 16  1  0
 15 17  1  0
 17 18  2  0
 18 19  1  0
 19 20  2  0
 19 21  1  0
 21 22  2  0
 22 23  1  0
 22 24  1  0
 24 25  1  0
 24 26  2  0
 26 27  1  0
 26 28  1  0
 28 29  1  0
 28 30  2  0
 30 31  1  0
  8 32  1  0
 32 33  1  0
 32 34  1  0
 32 35  1  0
  4 36  2  0
 36 37  1  0
 36 38  1  0
 38 39  1  0
 38  2  2  0
 17 10  1  0
 30 21  1  0
M  CHG  1  14  -1
M  END
>  <UniqueID>  (50) 
43

>  <SMILES>  (50) 
C[C@@H](Cc1cccs1)n1cc([O-])[nH]/c1=N\C(=O)c1ccccc1

>  <Energy>  (50) 
103.35958040810458

>  <Genealogy>  (50) 
CC(Cc1cccs1)n1cc([O-])[nH]c1=NC(=O)c1ccccc1 (protonated)
C[C@@H](Cc1cccs1)n1cc([O-])[nH]c1=NC(=O)c1ccccc1 (chirality)
C[C@@H](Cc1cccs1)n1cc([O-])[nH]/c1=N\C(=O)c1ccccc1 (cis-trans isomerization)
C[C@@H](Cc1cccs1)n1cc([O-])[nH]/c1=N\C(=O)c1ccccc1 (3D coordinates assigned)
C[C@@H](Cc1cccs1)n1cc([O-])[nH]/c1=N\C(=O)c1ccccc1 (optimized conformer: 103.35958040810458 kcal/mol)

>  <smiles>  (50) 
CC(Cc1cccs1)n1cc(O)[nH]c1=NC(=O)c1ccccc1

>  <score_type>  (50) 
oracle

>  <origin>  (50) 
adg

>  <m_score__min__energy>  (50) 
-10.869999999999999

>  <m_primary>  (50) 
energy

$$$$
50:0
     RDKit          3D

 70 74  0  0  0  0  0  0  0  0999 V2000
   62.2630   19.7230   50.5120 C   0  0  0  0  0  0  0  0  0  0  0  0
   61.0180   20.4230   50.9460 C   0  0  0  0  0  0  0  0  0  0  0  0
   60.9480   21.4530   51.8660 C   0  0  0  0  0  0  0  0  0  0  0  0
   59.6170   21.8110   51.8790 C   0  0  0  0  0  0  0  0  0  0  0  0
   58.9570   21.0270   51.0030 N   0  0  0  0  0  0  0  0  0  0  0  0
   57.5330   21.0960   50.6940 C   0  0  0  0  0  0  0  0  0  0  0  0
   57.3050   21.8210   49.3950 C   0  0  0  0  0  0  0  0  0  0  0  0
   57.3700   23.0800   49.3720 O   0  0  0  0  0  0  0  0  0  0  0  0
   57.0510   21.1190   48.1720 N   0  0  0  0  0  0  0  0  0  0  0  0
   56.9000   21.7060   46.8720 C   0  0  0  0  0  0  0  0  0  0  0  0
   57.8000   21.3540   45.8580 C   0  0  0  0  0  0  0  0  0  0  0  0
   57.6940   21.9310   44.5890 C   0  0  0  0  0  0  0  0  0  0  0  0
   56.6940   22.8710   44.3260 C   0  0  0  0  0  0  0  0  0  0  0  0
   55.7980   23.2490   45.3370 C   0  0  0  0  0  0  0  0  0  0  0  0
   54.7350   24.2830   45.0770 C   0  0  0  0  0  0  0  0  0  0  0  0
   54.8920   25.4130   45.9900 N   0  0  0  0  0  0  0  0  0  0  0  0
   55.9460   26.1720   46.0590 C   0  0  0  0  0  0  0  0  0  0  0  0
   57.1270   25.6680   46.6030 C   0  0  0  0  0  0  0  0  0  0  0  0
   58.2420   26.5000   46.7040 C   0  0  0  0  0  0  0  0  0  0  0  0
   58.1530   27.8260   46.2540 C   0  0  0  0  0  0  0  0  0  0  0  0
   59.2970   28.7540   46.3610 C   0  0  0  0  0  0  0  0  0  0  0  0
   60.4670   28.3410   46.1330 O   0  0  0  0  0  0  0  0  0  0  0  0
   59.0760   30.1340   46.6890 N   0  0  0  0  0  0  0  0  0  0  0  0
   60.0640   30.9830   47.2970 C   0  0  0  0  0  0  0  0  0  0  0  0
   60.9750   30.4360   48.2120 C   0  0  0  0  0  0  0  0  0  0  0  0
   61.9730   31.2310   48.7810 C   0  0  0  0  0  0  0  0  0  0  0  0
   62.0800   32.5850   48.4370 C   0  0  0  0  0  0  0  0  0  0  0  0
   63.3380   33.5860   49.1610 S   0  0  0  0  0  0  0  0  0  0  0  0
   62.7870   34.9630   49.4160 O   0  0  0  0  0  0  0  0  0  0  0  0
   64.4730   33.7230   48.1840 O   0  0  0  0  0  0  0  0  0  0  0  0
   63.9490   32.9230   50.6630 N   0  0  0  0  0  0  0  0  0  0  0  0
   64.3990   33.9670   51.6100 C   0  0  0  0  0  0  0  0  0  0  0  0
   65.9280   34.1170   51.6540 C   0  0  0  0  0  0  0  0  0  0  0  0
   66.4880   33.7940   50.4040 O   0  0  0  0  0  0  0  0  0  0  0  0
   66.3670   32.4060   50.1680 C   0  0  0  0  0  0  0  0  0  0  0  0
   64.9450   31.8590   50.4460 C   0  0  0  0  0  0  0  0  0  0  0  0
   61.1860   33.1320   47.5070 C   0  0  0  0  0  0  0  0  0  0  0  0
   60.1870   32.3380   46.9370 C   0  0  0  0  0  0  0  0  0  0  0  0
   56.9770   28.2630   45.7260 N   0  0  0  0  0  0  0  0  0  0  0  0
   55.9120   27.4660   45.6310 N   0  0  0  0  0  0  0  0  0  0  0  0
   55.9180   22.6800   46.6150 C   0  0  0  0  0  0  0  0  0  0  0  0
   59.7990   20.1850   50.4240 N   0  0  0  0  0  0  0  0  0  0  0  0
   62.8316   19.4033   51.3977 H   0  0  0  0  0  0  0  0  0  0  0  0
   61.9972   18.8421   49.9093 H   0  0  0  0  0  0  0  0  0  0  0  0
   62.8776   20.4078   49.9093 H   0  0  0  0  0  0  0  0  0  0  0  0
   61.7691   21.8883   52.4545 H   0  0  0  0  0  0  0  0  0  0  0  0
   59.1694   22.6019   52.4988 H   0  0  0  0  0  0  0  0  0  0  0  0
   57.1312   20.0752   50.6131 H   0  0  0  0  0  0  0  0  0  0  0  0
   57.0225   21.6444   51.4994 H   0  0  0  0  0  0  0  0  0  0  0  0
   58.5939   20.6202   46.0611 H   0  0  0  0  0  0  0  0  0  0  0  0
   58.3997   21.6443   43.7954 H   0  0  0  0  0  0  0  0  0  0  0  0
   56.6092   23.3157   43.3235 H   0  0  0  0  0  0  0  0  0  0  0  0
   54.8217   24.6397   44.0400 H   0  0  0  0  0  0  0  0  0  0  0  0
   53.7465   23.8280   45.2378 H   0  0  0  0  0  0  0  0  0  0  0  0
   57.1787   24.6251   46.9489 H   0  0  0  0  0  0  0  0  0  0  0  0
   59.1815   26.1204   47.1321 H   0  0  0  0  0  0  0  0  0  0  0  0
   58.1520   30.5570   46.4440 H   0  0  0  0  0  0  0  0  0  0  0  0
   60.9033   29.3726   48.4839 H   0  0  0  0  0  0  0  0  0  0  0  0
   62.6779   30.7920   49.5023 H   0  0  0  0  0  0  0  0  0  0  0  0
   63.9607   34.9290   51.3059 H   0  0  0  0  0  0  0  0  0  0  0  0
   64.0683   33.6654   52.6148 H   0  0  0  0  0  0  0  0  0  0  0  0
   66.1832   35.1564   51.9080 H   0  0  0  0  0  0  0  0  0  0  0  0
   66.3323   33.4324   52.4142 H   0  0  0  0  0  0  0  0  0  0  0  0
   66.6178   32.2076   49.1155 H   0  0  0  0  0  0  0  0  0  0  0  0
   67.0532   31.8967   50.8607 H   0  0  0  0  0  0  0  0  0  0  0  0
   64.6282   31.2533   49.5842 H   0  0  0  0  0  0  0  0  0  0  0  0
   64.9969   31.2646   51.3701 H   0  0  0  0  0  0  0  0  0  0  0  0
   61.2709   34.1916   47.2241 H   0  0  0  0  0  0  0  0  0  0  0  0
   59.4933   32.7744   46.2033 H   0  0  0  0  0  0  0  0  0  0  0  0
   55.2397   22.9979   47.4205 H   0  0  0  0  0  0  0  0  0  0  0  0
  1  2  1  0
  2  3  1  0
  3  4  2  0
  4  5  1  0
  5  6  1  0
  6  7  1  0
  7  8  2  0
  7  9  1  0
  9 10  1  0
 10 11  2  0
 11 12  1  0
 12 13  2  0
 13 14  1  0
 14 15  1  0
 15 16  1  0
 16 17  2  3
 17 18  1  0
 18 19  2  0
 19 20  1  0
 20 21  1  0
 21 22  2  0
 21 23  1  0
 23 24  1  0
 24 25  2  0
 25 26  1  0
 26 27  2  0
 27 28  1  0
 28 29  2  0
 28 30  2  0
 28 31  1  0
 31 32  1  0
 32 33  1  0
 33 34  1  0
 34 35  1  0
 35 36  1  0
 27 37  1  0
 37 38  2  0
 20 39  2  0
 39 40  1  0
 14 41  2  0
  5 42  1  0
 42  2  2  0
 41 10  1  0
 40 17  1  0
 38 24  1  0
 36 31  1  0
  1 43  1  0
  1 44  1  0
  1 45  1  0
  3 46  1  0
  4 47  1  0
  6 48  1  0
  6 49  1  0
 11 50  1  0
 12 51  1  0
 13 52  1  0
 15 53  1  0
 15 54  1  0
 18 55  1  0
 19 56  1  0
 23 57  1  0
 25 58  1  0
 26 59  1  0
 32 60  1  0
 32 61  1  0
 33 62  1  0
 33 63  1  0
 35 64  1  0
 35 65  1  0
 36 66  1  0
 36 67  1  0
 37 68  1  0
 38 69  1  0
 41 70  1  0
M  CHG  2   9  -1  40  -1
M  END
>  <UniqueID>  (51) 
44

>  <SMILES>  (51) 
Cc1ccn(CC(=O)[N-]c2cccc(CN=c3ccc(C(=O)Nc4ccc(S(=O)(=O)N5CCOCC5)cc4)n[n-]3)c2)n1

>  <Energy>  (51) 
121.99927008893229

>  <Genealogy>  (51) 
Cc1ccn(CC(=O)[N-]c2cccc(CN=c3ccc(C(=O)Nc4ccc(S(=O)(=O)N5CCOCC5)cc4)n[n-]3)c2)n1 (protonated)
Cc1ccn(CC(=O)[N-]c2cccc(CN=c3ccc(C(=O)Nc4ccc(S(=O)(=O)N5CCOCC5)cc4)n[n-]3)c2)n1 (3D coordinates assigned)
Cc1ccn(CC(=O)[N-]c2cccc(CN=c3ccc(C(=O)Nc4ccc(S(=O)(=O)N5CCOCC5)cc4)n[n-]3)c2)n1 (nonaromatic ring conformer: 121.99927008893229 kcal/mol)

>  <smiles>  (51) 
Cc1ccn(CC(=O)Nc2cccc(CN=c3ccc(C(=O)Nc4ccc(S(=O)(=O)N5CCOCC5)cc4)n[nH]3)c2)n1

>  <score_type>  (51) 
oracle

>  <origin>  (51) 
adg

>  <m_score__min__energy>  (51) 
-12.800000000000001

>  <m_primary>  (51) 
energy

$$$$
51:0
     RDKit          3D

 51 54  0  0  0  0  0  0  0  0999 V2000
   51.5929   22.0775   45.7158 H   0  0  0  0  0  0  0  0  0  0  0  0
   52.5370   22.5820   45.9690 C   0  0  0  0  0  0  0  0  0  0  0  0
   53.2870   23.3010   45.1170 N   0  0  0  0  0  0  0  0  0  0  0  0
   54.3230   23.7180   45.8740 C   0  0  0  0  0  0  0  0  0  0  0  0
   55.4470   24.5470   45.3340 C   0  0  0  0  0  0  0  0  0  0  0  0
   55.0864   25.1287   44.4728 H   0  0  0  0  0  0  0  0  0  0  0  0
   56.2648   23.8793   45.0252 H   0  0  0  0  0  0  0  0  0  0  0  0
   55.9460   25.4630   46.3580 N   0  0  0  0  0  0  0  0  0  0  0  0
   56.5680   26.5790   46.1180 C   0  0  0  0  0  0  0  0  0  0  0  0
   57.8980   26.7090   46.3690 N   0  0  0  0  0  0  0  0  0  0  0  0
   58.5510   27.8710   46.1160 C   0  0  0  0  0  0  0  0  0  0  0  0
   59.6278   27.9498   46.3265 H   0  0  0  0  0  0  0  0  0  0  0  0
   57.8610   28.9740   45.5870 C   0  0  0  0  0  0  0  0  0  0  0  0
   58.6160   30.2680   45.3010 C   0  0  2  0  0  0  0  0  0  0  0  0
   59.6006   29.9752   44.9076 H   0  0  0  0  0  0  0  0  0  0  0  0
   58.9160   31.0920   46.5820 C   0  0  0  0  0  0  0  0  0  0  0  0
   58.6531   30.4783   47.4562 H   0  0  0  0  0  0  0  0  0  0  0  0
   59.9846   31.3505   46.5480 H   0  0  0  0  0  0  0  0  0  0  0  0
   58.1400   32.4250   46.6750 C   0  0  0  0  0  0  0  0  0  0  0  0
   57.0932   32.1952   46.9228 H   0  0  0  0  0  0  0  0  0  0  0  0
   58.6461   33.0253   47.4453 H   0  0  0  0  0  0  0  0  0  0  0  0
   58.1530   33.2450   45.4260 N   0  0  1  0  0  0  0  0  0  0  0  0
   57.1640   33.5660   45.2810 H   0  0  0  0  0  0  0  0  0  0  0  0
   58.9640   34.4420   45.5730 C   0  0  0  0  0  0  0  0  0  0  0  0
   59.2330   35.1110   44.5840 O   0  0  0  0  0  0  0  0  0  0  0  0
   59.4520   34.9240   46.9230 C   0  0  0  0  0  0  0  0  0  0  0  0
   59.6475   36.0052   46.8699 H   0  0  0  0  0  0  0  0  0  0  0  0
   58.6768   34.7092   47.6733 H   0  0  0  0  0  0  0  0  0  0  0  0
   60.7190   34.2130   47.3240 C   0  0  0  0  0  0  0  0  0  0  0  0
   60.8600   33.6790   48.6170 C   0  0  0  0  0  0  0  0  0  0  0  0
   60.0509   33.8021   49.3520 H   0  0  0  0  0  0  0  0  0  0  0  0
   62.0250   32.9920   48.9720 C   0  0  0  0  0  0  0  0  0  0  0  0
   62.1304   32.5773   49.9854 H   0  0  0  0  0  0  0  0  0  0  0  0
   63.0560   32.8310   48.0420 C   0  0  0  0  0  0  0  0  0  0  0  0
   63.9720   32.2915   48.3244 H   0  0  0  0  0  0  0  0  0  0  0  0
   62.9230   33.3560   46.7520 C   0  0  0  0  0  0  0  0  0  0  0  0
   63.7344   33.2290   46.0202 H   0  0  0  0  0  0  0  0  0  0  0  0
   61.7590   34.0420   46.3930 C   0  0  0  0  0  0  0  0  0  0  0  0
   61.6560   34.4502   45.3768 H   0  0  0  0  0  0  0  0  0  0  0  0
   58.5180   32.5100   44.1930 C   0  0  0  0  0  0  0  0  0  0  0  0
   58.1298   33.0559   43.3205 H   0  0  0  0  0  0  0  0  0  0  0  0
   59.6141   32.4326   44.1427 H   0  0  0  0  0  0  0  0  0  0  0  0
   57.9300   31.0990   44.2020 C   0  0  0  0  0  0  0  0  0  0  0  0
   56.8497   31.1526   44.4024 H   0  0  0  0  0  0  0  0  0  0  0  0
   58.0967   30.6245   43.2237 H   0  0  0  0  0  0  0  0  0  0  0  0
   56.4810   28.8160   45.3410 C   0  0  0  0  0  0  0  0  0  0  0  0
   55.7930   29.7580   44.8730 O   0  0  0  0  0  0  0  0  0  0  0  0
   55.8760   27.6290   45.6100 N   0  0  0  0  0  0  0  0  0  0  0  0
   54.2700   23.2930   47.1550 N   0  0  0  0  0  0  0  0  0  0  0  0
   53.1350   22.5760   47.2070 C   0  0  0  0  0  0  0  0  0  0  0  0
   52.7455   22.0646   48.0996 H   0  0  0  0  0  0  0  0  0  0  0  0
  1  2  1  0
  2  3  1  0
  3  4  2  0
  4  5  1  0
  5  6  1  0
  5  7  1  0
  5  8  1  0
  8  9  2  0
  9 10  1  0
 10 11  1  0
 11 12  1  0
 11 13  2  0
 13 14  1  0
 14 15  1  6
 14 16  1  0
 16 17  1  0
 16 18  1  0
 16 19  1  0
 19 20  1  0
 19 21  1  0
 19 22  1  0
 22 23  1  6
 22 24  1  0
 24 25  2  0
 24 26  1  0
 26 27  1  0
 26 28  1  0
 26 29  1  0
 29 30  2  0
 30 31  1  0
 30 32  1  0
 32 33  1  0
 32 34  2  0
 34 35  1  0
 34 36  1  0
 36 37  1  0
 36 38  2  0
 38 39  1  0
 22 40  1  0
 40 41  1  0
 40 42  1  0
 40 43  1  0
 43 44  1  0
 43 45  1  0
 13 46  1  0
 46 47  2  0
 46 48  1  0
  4 49  1  0
 49 50  1  0
 50 51  1  0
 50  2  2  0
 48  9  1  0
 43 14  1  0
 38 29  1  0
M  CHG  4  10  -1  22   1  48  -1  49  -1
M  END
>  <UniqueID>  (52) 
45

>  <SMILES>  (52) 
O=C(Cc1ccccc1)[NH+]1CCC(c2c[n-]/c(=N\Cc3ncc[n-]3)[n-]c2=O)CC1

>  <Energy>  (52) 
94.34215359854511

>  <Genealogy>  (52) 
O=C(Cc1ccccc1)[NH+]1CCC(c2c[n-]c(=NCc3ncc[n-]3)[n-]c2=O)CC1 (protonated)
O=C(Cc1ccccc1)[NH+]1CCC(c2c[n-]/c(=N\Cc3ncc[n-]3)[n-]c2=O)CC1 (cis-trans isomerization)
O=C(Cc1ccccc1)[NH+]1CCC(c2c[n-]/c(=N\Cc3ncc[n-]3)[n-]c2=O)CC1 (3D coordinates assigned)
O=C(Cc1ccccc1)[NH+]1CCC(c2c[n-]/c(=N\Cc3ncc[n-]3)[n-]c2=O)CC1 (nonaromatic ring conformer: 94.34215359854511 kcal/mol)

>  <smiles>  (52) 
O=C(Cc1ccccc1)N1CCC(c2c[nH]c(=NCc3ncc[nH]3)[nH]c2=O)CC1

>  <score_type>  (52) 
oracle

>  <origin>  (52) 
adg

>  <m_score__min__energy>  (52) 
-12.619999999999999

>  <m_primary>  (52) 
energy

$$$$
52:0
     RDKit          3D

 56 60  0  0  0  0  0  0  0  0999 V2000
   55.5310   26.9850   45.9840 N   0  0  0  0  0  0  0  0  0  0  0  0
   55.5390   25.5630   45.8770 C   0  0  0  0  0  0  0  0  0  0  0  0
   54.4510   24.9330   45.9360 O   0  0  0  0  0  0  0  0  0  0  0  0
   56.8130   24.8380   45.6820 C   0  0  0  0  0  0  0  0  0  0  0  0
   58.0750   25.3440   46.0340 C   0  0  0  0  0  0  0  0  0  0  0  0
   58.3340   26.6270   46.6340 N   0  0  0  0  0  0  0  0  0  0  0  0
   59.6360   27.0660   47.0580 C   0  0  0  0  0  0  0  0  0  0  0  0
   60.6700   26.4820   46.6350 O   0  0  0  0  0  0  0  0  0  0  0  0
   59.7730   28.2200   47.9730 C   0  0  0  0  0  0  0  0  0  0  0  0
   59.8610   29.5330   47.4770 C   0  0  0  0  0  0  0  0  0  0  0  0
   60.0010   30.6070   48.3720 C   0  0  0  0  0  0  0  0  0  0  0  0
   60.1110   31.9330   47.9260 O   0  0  0  0  0  0  0  0  0  0  0  0
   59.2450   32.5550   47.0140 C   0  0  0  0  0  0  0  0  0  0  0  0
   59.3460   33.9370   46.8260 C   0  0  0  0  0  0  0  0  0  0  0  0
   58.4990   34.5910   45.9290 C   0  0  0  0  0  0  0  0  0  0  0  0
   57.5240   33.8720   45.2320 C   0  0  0  0  0  0  0  0  0  0  0  0
   57.3790   32.4900   45.4450 C   0  0  0  0  0  0  0  0  0  0  0  0
   56.3960   31.7110   44.7480 N   0  0  0  0  0  0  0  0  0  0  0  0
   56.4450   30.2990   44.4940 C   0  0  0  0  0  0  0  0  0  0  0  0
   55.5620   29.5350   44.9660 O   0  0  0  0  0  0  0  0  0  0  0  0
   57.5780   29.6890   43.7130 C   0  0  0  0  0  0  0  0  0  0  0  0
   58.7310   29.1320   44.5350 C   0  0  0  0  0  0  0  0  0  0  0  0
   57.7460   28.1840   43.8650 C   0  0  0  0  0  0  0  0  0  0  0  0
   58.2550   31.8350   46.3210 C   0  0  0  0  0  0  0  0  0  0  0  0
   60.0800   30.3470   49.7420 C   0  0  0  0  0  0  0  0  0  0  0  0
   59.9890   29.0330   50.2010 C   0  0  0  0  0  0  0  0  0  0  0  0
   59.8380   28.0120   49.3180 N   0  0  0  0  0  0  0  0  0  0  0  0
   59.2560   24.2020   45.6380 S   0  0  0  0  0  0  0  0  0  0  0  0
   58.1970   23.0760   44.9890 C   0  0  0  0  0  0  0  0  0  0  0  0
   56.8930   23.5490   45.1050 C   0  0  0  0  0  0  0  0  0  0  0  0
   55.7190   22.7470   44.5960 C   0  0  0  0  0  0  0  0  0  0  0  0
   56.0750   21.2590   44.4240 C   0  0  0  0  0  0  0  0  0  0  0  0
   57.4210   21.0840   43.7030 C   0  0  0  0  0  0  0  0  0  0  0  0
   58.5670   21.7050   44.5160 C   0  0  0  0  0  0  0  0  0  0  0  0
   55.5470   27.5890   45.1330 H   0  0  0  0  0  0  0  0  0  0  0  0
   57.5390   27.2890   46.7630 H   0  0  0  0  0  0  0  0  0  0  0  0
   59.8204   29.7183   46.3935 H   0  0  0  0  0  0  0  0  0  0  0  0
   60.0968   34.5120   47.3878 H   0  0  0  0  0  0  0  0  0  0  0  0
   58.5994   35.6749   45.7705 H   0  0  0  0  0  0  0  0  0  0  0  0
   56.8687   34.3886   44.5152 H   0  0  0  0  0  0  0  0  0  0  0  0
   57.4935   30.3841   42.8647 H   0  0  0  0  0  0  0  0  0  0  0  0
   59.7620   29.2095   44.1595 H   0  0  0  0  0  0  0  0  0  0  0  0
   59.0946   29.2768   45.5630 H   0  0  0  0  0  0  0  0  0  0  0  0
   58.0652   27.5765   43.0053 H   0  0  0  0  0  0  0  0  0  0  0  0
   57.1030   27.3602   44.2082 H   0  0  0  0  0  0  0  0  0  0  0  0
   58.1677   30.7484   46.4680 H   0  0  0  0  0  0  0  0  0  0  0  0
   60.2133   31.1739   50.4551 H   0  0  0  0  0  0  0  0  0  0  0  0
   60.0396   28.8233   51.2796 H   0  0  0  0  0  0  0  0  0  0  0  0
   54.8901   22.8342   45.3139 H   0  0  0  0  0  0  0  0  0  0  0  0
   55.4330   23.1463   43.6117 H   0  0  0  0  0  0  0  0  0  0  0  0
   56.1369   20.7888   45.4165 H   0  0  0  0  0  0  0  0  0  0  0  0
   55.2918   20.7839   43.8150 H   0  0  0  0  0  0  0  0  0  0  0  0
   57.6183   20.0106   43.5654 H   0  0  0  0  0  0  0  0  0  0  0  0
   57.3658   21.5940   42.7299 H   0  0  0  0  0  0  0  0  0  0  0  0
   58.7788   21.0674   45.3870 H   0  0  0  0  0  0  0  0  0  0  0  0
   59.4565   21.7805   43.8732 H   0  0  0  0  0  0  0  0  0  0  0  0
  1  2  1  0
  2  3  2  0
  2  4  1  0
  4  5  2  0
  5  6  1  0
  6  7  1  0
  7  8  2  0
  7  9  1  0
  9 10  2  0
 10 11  1  0
 11 12  1  0
 12 13  1  0
 13 14  2  0
 14 15  1  0
 15 16  2  0
 16 17  1  0
 17 18  1  0
 18 19  1  0
 19 20  2  0
 19 21  1  0
 21 22  1  0
 22 23  1  0
 17 24  2  0
 11 25  2  0
 25 26  1  0
 26 27  2  0
  5 28  1  0
 28 29  1  0
 29 30  2  0
 30 31  1  0
 31 32  1  0
 32 33  1  0
 33 34  1  0
 30  4  1  0
 27  9  1  0
 34 29  1  0
 24 13  1  0
 23 21  1  0
  1 35  1  0
  6 36  1  0
 10 37  1  0
 14 38  1  0
 15 39  1  0
 16 40  1  0
 21 41  1  0
 22 42  1  0
 22 43  1  0
 23 44  1  0
 23 45  1  0
 24 46  1  0
 25 47  1  0
 26 48  1  0
 31 49  1  0
 31 50  1  0
 32 51  1  0
 32 52  1  0
 33 53  1  0
 33 54  1  0
 34 55  1  0
 34 56  1  0
M  CHG  2   1  -1  18  -1
M  END
>  <UniqueID>  (53) 
46

>  <SMILES>  (53) 
[NH-]C(=O)c1c(NC(=O)c2cc(Oc3cccc([N-]C(=O)C4CC4)c3)ccn2)sc2c1CCCC2

>  <Energy>  (53) 
367.13529506665174

>  <Genealogy>  (53) 
[NH-]C(=O)c1c(NC(=O)c2cc(Oc3cccc([N-]C(=O)C4CC4)c3)ccn2)sc2c1CCCC2 (protonated)
[NH-]C(=O)c1c(NC(=O)c2cc(Oc3cccc([N-]C(=O)C4CC4)c3)ccn2)sc2c1CCCC2 (3D coordinates assigned)
[NH-]C(=O)c1c(NC(=O)c2cc(Oc3cccc([N-]C(=O)C4CC4)c3)ccn2)sc2c1CCCC2 (nonaromatic ring conformer: 367.13529506665174 kcal/mol)

>  <smiles>  (53) 
NC(=O)c1c(NC(=O)c2cc(Oc3cccc(NC(=O)C4CC4)c3)ccn2)sc2c1CCCC2

>  <score_type>  (53) 
oracle

>  <origin>  (53) 
adg

>  <m_score__min__energy>  (53) 
-14.779999999999999

>  <m_primary>  (53) 
energy

$$$$
53:0
     RDKit          3D

 73 77  0  0  0  0  0  0  0  0999 V2000
   51.6310   24.4790   44.8330 C   0  0  0  0  0  0  0  0  0  0  0  0
   53.0500   24.1460   45.1920 C   0  0  0  0  0  0  0  0  0  0  0  0
   53.4120   22.9390   45.2350 O   0  0  0  0  0  0  0  0  0  0  0  0
   53.9580   25.1650   45.6380 N   0  0  0  0  0  0  0  0  0  0  0  0
   55.1800   24.9540   46.0250 C   0  0  0  0  0  0  0  0  0  0  0  0
   56.1490   25.8400   45.6720 N   0  0  0  0  0  0  0  0  0  0  0  0
   57.4430   25.6510   46.0400 C   0  0  0  0  0  0  0  0  0  0  0  0
   58.4960   26.5870   45.5230 C   0  0  0  0  0  0  0  0  0  0  0  0
   58.8910   27.5590   46.6140 C   0  0  0  0  0  0  0  0  0  0  0  0
   59.7800   27.1260   47.6090 C   0  0  0  0  0  0  0  0  0  0  0  0
   60.1140   27.9610   48.6770 C   0  0  0  0  0  0  0  0  0  0  0  0
   59.5540   29.2380   48.7820 C   0  0  0  0  0  0  0  0  0  0  0  0
   59.9160   30.0740   49.8900 N   0  0  0  0  0  0  0  0  0  0  0  0
   58.7530   30.8830   50.8950 S   0  0  0  0  0  0  0  0  0  0  0  0
   59.4420   31.4330   52.1120 O   0  0  0  0  0  0  0  0  0  0  0  0
   58.1570   32.0150   50.1060 O   0  0  0  0  0  0  0  0  0  0  0  0
   57.5040   29.7790   51.3970 N   0  0  0  0  0  0  0  0  0  0  0  0
   56.8640   30.2980   52.5980 C   0  0  0  0  0  0  0  0  0  0  0  0
   56.1080   31.5950   52.3660 C   0  0  0  0  0  0  0  0  0  0  0  0
   55.3470   30.2840   52.5050 C   0  0  0  0  0  0  0  0  0  0  0  0
   58.6190   29.6580   47.8240 C   0  0  0  0  0  0  0  0  0  0  0  0
   58.2950   28.8380   46.7320 C   0  0  0  0  0  0  0  0  0  0  0  0
   57.3470   29.3500   45.7290 C   0  0  0  0  0  0  0  0  0  0  0  0
   56.3070   28.6860   45.4720 O   0  0  0  0  0  0  0  0  0  0  0  0
   57.5830   30.6030   45.0690 N   0  0  0  0  0  0  0  0  0  0  0  0
   56.6590   31.2180   44.1310 C   0  0  0  0  0  0  0  0  0  0  0  0
   57.4360   32.3620   43.5000 C   0  0  0  0  0  0  0  0  0  0  0  0
   58.5680   32.6760   44.4800 C   0  0  1  0  0  0  0  0  0  0  0  0
   58.1360   33.7290   45.4110 N   0  0  0  0  0  0  0  0  0  0  0  0
   59.4570   34.2650   46.4070 S   0  0  0  0  0  0  0  0  0  0  0  0
   59.2370   35.7050   46.7740 O   0  0  0  0  0  0  0  0  0  0  0  0
   60.7530   34.1430   45.6580 O   0  0  0  0  0  0  0  0  0  0  0  0
   59.5340   33.2840   47.8980 C   0  0  0  0  0  0  0  0  0  0  0  0
   60.9600   32.9510   48.2400 C   0  0  0  0  0  0  0  0  0  0  0  0
   61.6110   31.8790   47.6010 C   0  0  0  0  0  0  0  0  0  0  0  0
   62.9450   31.5880   47.9050 C   0  0  0  0  0  0  0  0  0  0  0  0
   63.6430   32.3700   48.8320 C   0  0  0  0  0  0  0  0  0  0  0  0
   63.0040   33.4440   49.4600 C   0  0  0  0  0  0  0  0  0  0  0  0
   61.6680   33.7350   49.1650 C   0  0  0  0  0  0  0  0  0  0  0  0
   58.7930   31.3800   45.2530 C   0  0  0  0  0  0  0  0  0  0  0  0
   57.7890   24.5390   46.8170 C   0  0  0  0  0  0  0  0  0  0  0  0
   56.7810   23.6450   47.1830 C   0  0  0  0  0  0  0  0  0  0  0  0
   57.0510   22.6350   47.8830 O   0  0  0  0  0  0  0  0  0  0  0  0
   55.5030   23.8670   46.7790 N   0  0  0  0  0  0  0  0  0  0  0  0
   51.0429   24.6170   45.7523 H   0  0  0  0  0  0  0  0  0  0  0  0
   51.6103   25.4064   44.2418 H   0  0  0  0  0  0  0  0  0  0  0  0
   51.1999   23.6576   44.2418 H   0  0  0  0  0  0  0  0  0  0  0  0
   59.3782   26.0090   45.2106 H   0  0  0  0  0  0  0  0  0  0  0  0
   58.0982   27.1453   44.6627 H   0  0  0  0  0  0  0  0  0  0  0  0
   60.2182   26.1189   47.5472 H   0  0  0  0  0  0  0  0  0  0  0  0
   60.8232   27.6116   49.4418 H   0  0  0  0  0  0  0  0  0  0  0  0
   60.8900   30.4530   49.9290 H   0  0  0  0  0  0  0  0  0  0  0  0
   57.6090   29.9536   53.3304 H   0  0  0  0  0  0  0  0  0  0  0  0
   56.0533   32.3501   53.1640 H   0  0  0  0  0  0  0  0  0  0  0  0
   56.1485   32.3949   51.6120 H   0  0  0  0  0  0  0  0  0  0  0  0
   54.7424   30.0913   53.4035 H   0  0  0  0  0  0  0  0  0  0  0  0
   54.6097   29.7434   51.8934 H   0  0  0  0  0  0  0  0  0  0  0  0
   58.1349   30.6401   47.9298 H   0  0  0  0  0  0  0  0  0  0  0  0
   56.3482   30.4933   43.3641 H   0  0  0  0  0  0  0  0  0  0  0  0
   55.7413   31.5677   44.6266 H   0  0  0  0  0  0  0  0  0  0  0  0
   57.8447   32.0577   42.5251 H   0  0  0  0  0  0  0  0  0  0  0  0
   56.7970   33.2390   43.3196 H   0  0  0  0  0  0  0  0  0  0  0  0
   59.4774   33.0234   43.9678 H   0  0  0  0  0  0  0  0  0  0  0  0
   59.0864   33.8513   48.7274 H   0  0  0  0  0  0  0  0  0  0  0  0
   58.9806   32.3474   47.7350 H   0  0  0  0  0  0  0  0  0  0  0  0
   61.0702   31.2696   46.8620 H   0  0  0  0  0  0  0  0  0  0  0  0
   63.4471   30.7415   47.4137 H   0  0  0  0  0  0  0  0  0  0  0  0
   64.6929   32.1403   49.0665 H   0  0  0  0  0  0  0  0  0  0  0  0
   63.5528   34.0607   50.1869 H   0  0  0  0  0  0  0  0  0  0  0  0
   61.1698   34.5817   49.6598 H   0  0  0  0  0  0  0  0  0  0  0  0
   59.6621   30.8387   44.8509 H   0  0  0  0  0  0  0  0  0  0  0  0
   58.9975   31.5702   46.3170 H   0  0  0  0  0  0  0  0  0  0  0  0
   58.8300   24.3736   47.1316 H   0  0  0  0  0  0  0  0  0  0  0  0
  1  2  1  0
  2  3  2  0
  2  4  1  0
  4  5  2  3
  5  6  1  0
  6  7  1  0
  7  8  1  0
  8  9  1  0
  9 10  2  0
 10 11  1  0
 11 12  2  0
 12 13  1  0
 13 14  1  0
 14 15  2  0
 14 16  2  0
 14 17  1  0
 17 18  1  0
 18 19  1  0
 19 20  1  0
 12 21  1  0
 21 22  2  0
 22 23  1  0
 23 24  2  0
 23 25  1  0
 25 26  1  0
 26 27  1  0
 27 28  1  0
 28 29  1  0
 29 30  1  0
 30 31  2  0
 30 32  2  0
 30 33  1  0
 33 34  1  0
 34 35  2  0
 35 36  1  0
 36 37  2  0
 37 38  1  0
 38 39  2  0
 28 40  1  0
  7 41  2  0
 41 42  1  0
 42 43  2  0
 42 44  1  0
 44  5  1  0
 22  9  1  0
 40 25  1  0
 20 18  1  0
 39 34  1  0
  1 45  1  0
  1 46  1  0
  1 47  1  0
  8 48  1  0
  8 49  1  0
 10 50  1  0
 11 51  1  0
 13 52  1  0
 18 53  1  0
 19 54  1  0
 19 55  1  0
 20 56  1  0
 20 57  1  0
 21 58  1  0
 26 59  1  0
 26 60  1  0
 27 61  1  0
 27 62  1  0
 28 63  1  6
 33 64  1  0
 33 65  1  0
 35 66  1  0
 36 67  1  0
 37 68  1  0
 38 69  1  0
 39 70  1  0
 40 71  1  0
 40 72  1  0
 41 73  1  0
M  CHG  4   6  -1  17  -1  29  -1  44  -1
M  END
>  <UniqueID>  (54) 
47

>  <SMILES>  (54) 
CC(=O)N=c1[n-]c(Cc2ccc(NS(=O)(=O)[N-]C3CC3)cc2C(=O)N2CC[C@@H]([N-]S(=O)(=O)Cc3ccccc3)C2)cc(=O)[n-]1

>  <Energy>  (54) 
347.8396137003761

>  <Genealogy>  (54) 
CC(=O)N=c1[n-]c(Cc2ccc(NS(=O)(=O)[N-]C3CC3)cc2C(=O)N2CCC([N-]S(=O)(=O)Cc3ccccc3)C2)cc(=O)[n-]1 (protonated)
CC(=O)N=c1[n-]c(Cc2ccc(NS(=O)(=O)[N-]C3CC3)cc2C(=O)N2CC[C@@H]([N-]S(=O)(=O)Cc3ccccc3)C2)cc(=O)[n-]1 (chirality)
CC(=O)N=c1[n-]c(Cc2ccc(NS(=O)(=O)[N-]C3CC3)cc2C(=O)N2CC[C@@H]([N-]S(=O)(=O)Cc3ccccc3)C2)cc(=O)[n-]1 (3D coordinates assigned)
CC(=O)N=c1[n-]c(Cc2ccc(NS(=O)(=O)[N-]C3CC3)cc2C(=O)N2CC[C@@H]([N-]S(=O)(=O)Cc3ccccc3)C2)cc(=O)[n-]1 (nonaromatic ring conformer: 347.8396137003761 kcal/mol)

>  <smiles>  (54) 
CC(=O)N=c1[nH]c(Cc2ccc(NS(=O)(=O)NC3CC3)cc2C(=O)N2CCC(NS(=O)(=O)Cc3ccccc3)C2)cc(=O)[nH]1

>  <score_type>  (54) 
oracle

>  <origin>  (54) 
adg

>  <m_score__min__energy>  (54) 
-16.77

>  <m_primary>  (54) 
energy

$$$$
54:0
     RDKit          3D

 75 80  0  0  0  0  0  0  0  0999 V2000
   67.1573   33.1316   49.6319 H   0  0  0  0  0  0  0  0  0  0  0  0
   66.5730   32.3310   50.1090 C   0  0  0  0  0  0  0  0  0  0  0  0
   67.2020   31.2240   50.5850 N   0  0  0  0  0  0  0  0  0  0  0  0
   66.5320   30.1930   51.1700 C   0  0  0  0  0  0  0  0  0  0  0  0
   67.2660   29.0640   51.6970 N   0  0  0  0  0  0  0  0  0  0  0  0
   68.5590   29.2690   52.3830 C   0  0  0  0  0  0  0  0  0  0  0  0
   69.1588   29.9877   51.8054 H   0  0  0  0  0  0  0  0  0  0  0  0
   68.3537   29.6494   53.3945 H   0  0  0  0  0  0  0  0  0  0  0  0
   69.3460   27.9580   52.5160 C   0  0  0  0  0  0  0  0  0  0  0  0
   70.3925   28.1873   52.7655 H   0  0  0  0  0  0  0  0  0  0  0  0
   68.8922   27.3488   53.3116 H   0  0  0  0  0  0  0  0  0  0  0  0
   69.3010   27.1690   51.1970 C   0  0  0  0  0  0  0  0  0  0  0  0
   69.8218   27.7513   50.4226 H   0  0  0  0  0  0  0  0  0  0  0  0
   69.7863   26.1986   51.3782 H   0  0  0  0  0  0  0  0  0  0  0  0
   67.8590   26.8810   50.7110 C   0  0  0  0  0  0  0  0  0  0  0  0
   67.7923   27.1347   49.6427 H   0  0  0  0  0  0  0  0  0  0  0  0
   67.6576   25.8153   50.8944 H   0  0  0  0  0  0  0  0  0  0  0  0
   66.7950   27.6860   51.4720 C   0  0  0  0  0  0  0  0  0  0  0  0
   65.8669   27.7107   50.8821 H   0  0  0  0  0  0  0  0  0  0  0  0
   66.6085   27.2065   52.4443 H   0  0  0  0  0  0  0  0  0  0  0  0
   65.1280   30.2610   51.2560 C   0  0  0  0  0  0  0  0  0  0  0  0
   64.5607   29.4304   51.7012 H   0  0  0  0  0  0  0  0  0  0  0  0
   64.4590   31.3890   50.7730 C   0  0  0  0  0  0  0  0  0  0  0  0
   63.3613   31.4381   50.8244 H   0  0  0  0  0  0  0  0  0  0  0  0
   65.1780   32.4550   50.2250 C   0  0  0  0  0  0  0  0  0  0  0  0
   64.4690   33.6180   49.7620 N   0  0  0  0  0  0  0  0  0  0  0  0
   63.2910   33.6250   49.2120 C   0  0  0  0  0  0  0  0  0  0  0  0
   62.1700   33.3700   49.9530 N   0  0  0  0  0  0  0  0  0  0  0  0
   60.9650   33.3650   49.3360 C   0  0  0  0  0  0  0  0  0  0  0  0
   60.8390   33.5950   47.9970 C   0  0  0  0  0  0  0  0  0  0  0  0
   61.9760   33.8070   47.2260 C   0  0  0  0  0  0  0  0  0  0  0  0
   61.9044   33.9556   46.1384 H   0  0  0  0  0  0  0  0  0  0  0  0
   63.1840   33.8250   47.8610 N   0  0  0  0  0  0  0  0  0  0  0  0
   59.4970   33.4490   47.6910 C   0  0  0  0  0  0  0  0  0  0  0  0
   58.8300   33.5110   46.3740 C   0  0  0  0  0  0  0  0  0  0  0  0
   58.7770   34.6230   45.7810 O   0  0  0  0  0  0  0  0  0  0  0  0
   58.2500   32.3210   45.7110 C   0  0  0  0  0  0  0  0  0  0  0  0
   56.9640   32.3870   45.1470 C   0  0  0  0  0  0  0  0  0  0  0  0
   56.3694   33.3071   45.2466 H   0  0  0  0  0  0  0  0  0  0  0  0
   56.4520   31.3210   44.4800 N   0  0  0  0  0  0  0  0  0  0  0  0
   57.1510   30.1670   44.3290 C   0  0  0  0  0  0  0  0  0  0  0  0
   56.7112   29.3267   43.7718 H   0  0  0  0  0  0  0  0  0  0  0  0
   58.4310   30.0460   44.8820 C   0  0  0  0  0  0  0  0  0  0  0  0
   59.1780   28.8420   44.6970 N   0  0  0  0  0  0  0  0  0  0  0  0
   58.6470   27.5190   44.8800 C   0  0  0  0  0  0  0  0  0  0  0  0
   57.9850   26.9960   43.9470 O   0  0  0  0  0  0  0  0  0  0  0  0
   58.9100   26.7100   46.1250 C   0  0  0  0  0  0  0  0  0  0  0  0
   59.0783   25.6617   45.8372 H   0  0  0  0  0  0  0  0  0  0  0  0
   59.7935   27.1353   46.6235 H   0  0  0  0  0  0  0  0  0  0  0  0
   57.7370   26.7690   47.1140 C   0  0  0  0  0  0  0  0  0  0  0  0
   58.0661   26.3628   48.0818 H   0  0  0  0  0  0  0  0  0  0  0  0
   57.4244   27.8190   47.2126 H   0  0  0  0  0  0  0  0  0  0  0  0
   56.5550   25.9710   46.6260 C   0  0  0  0  0  0  0  0  0  0  0  0
   55.4980   26.6230   46.0720 N   0  0  0  0  0  0  0  0  0  0  0  0
   54.4330   25.9590   45.6230 N   0  0  0  0  0  0  0  0  0  0  0  0
   54.3690   24.6040   45.7040 C   0  0  0  0  0  0  0  0  0  0  0  0
   53.3570   23.9920   45.2780 O   0  0  0  0  0  0  0  0  0  0  0  0
   55.4050   23.9130   46.2420 N   0  0  0  0  0  0  0  0  0  0  0  0
   56.5040   24.5650   46.7030 C   0  0  0  0  0  0  0  0  0  0  0  0
   57.4610   23.9040   47.1890 O   0  0  0  0  0  0  0  0  0  0  0  0
   58.9860   31.1340   45.5640 C   0  0  0  0  0  0  0  0  0  0  0  0
   59.9994   31.0598   45.9853 H   0  0  0  0  0  0  0  0  0  0  0  0
   58.8770   33.1030   48.8910 C   0  0  0  0  0  0  0  0  0  0  0  0
   57.8046   32.8848   49.0020 H   0  0  0  0  0  0  0  0  0  0  0  0
   59.7800   33.0730   49.9020 N   0  0  0  0  0  0  0  0  0  0  0  0
   59.5510   32.6330   51.2850 C   0  0  0  0  0  0  0  0  0  0  0  0
   60.5001   32.2710   51.7070 H   0  0  0  0  0  0  0  0  0  0  0  0
   58.5460   31.4760   51.3080 C   0  0  0  0  0  0  0  0  0  0  0  0
   58.3158   31.2110   52.3505 H   0  0  0  0  0  0  0  0  0  0  0  0
   57.6224   31.7823   50.7950 H   0  0  0  0  0  0  0  0  0  0  0  0
   58.9785   30.6044   50.7950 H   0  0  0  0  0  0  0  0  0  0  0  0
   59.0780   33.8030   52.1530 C   0  0  0  0  0  0  0  0  0  0  0  0
   59.1850   33.5382   53.2153 H   0  0  0  0  0  0  0  0  0  0  0  0
   59.6873   34.6922   51.9335 H   0  0  0  0  0  0  0  0  0  0  0  0
   58.0220   34.0189   51.9335 H   0  0  0  0  0  0  0  0  0  0  0  0
  1  2  1  0
  2  3  2  0
  3  4  1  0
  4  5  1  0
  5  6  1  0
  6  7  1  0
  6  8  1  0
  6  9  1  0
  9 10  1  0
  9 11  1  0
  9 12  1  0
 12 13  1  0
 12 14  1  0
 12 15  1  0
 15 16  1  0
 15 17  1  0
 15 18  1  0
 18 19  1  0
 18 20  1  0
  4 21  2  0
 21 22  1  0
 21 23  1  0
 23 24  1  0
 23 25  2  0
 25 26  1  0
 26 27  2  0
 27 28  1  0
 28 29  2  0
 29 30  1  0
 30 31  2  0
 31 32  1  0
 31 33  1  0
 30 34  1  0
 34 35  1  0
 35 36  2  0
 35 37  1  0
 37 38  2  0
 38 39  1  0
 38 40  1  0
 40 41  2  0
 41 42  1  0
 41 43  1  0
 43 44  1  0
 44 45  1  0
 45 46  2  0
 45 47  1  0
 47 48  1  0
 47 49  1  0
 47 50  1  0
 50 51  1  0
 50 52  1  0
 50 53  1  0
 53 54  2  0
 54 55  1  0
 55 56  1  0
 56 57  2  0
 56 58  1  0
 58 59  1  0
 59 60  2  0
 43 61  2  0
 61 62  1  0
 34 63  2  0
 63 64  1  0
 63 65  1  0
 65 66  1  0
 66 67  1  0
 66 68  1  0
 68 69  1  0
 68 70  1  0
 68 71  1  0
 66 72  1  0
 72 73  1  0
 72 74  1  0
 72 75  1  0
 25  2  1  0
 33 27  1  0
 61 37  1  0
 18  5  1  0
 65 29  1  0
 59 53  1  0
M  CHG  4  33  -1  44  -1  55  -1  58  -1
M  END
>  <UniqueID>  (55) 
48

>  <SMILES>  (55) 
CC(C)n1cc(C(=O)c2cncc([N-]C(=O)CCc3n[n-]c(=O)[n-]c3=O)c2)c2c[n-]/c(=N/c3ccc(N4CCCCC4)nc3)nc21

>  <Energy>  (55) 
136.4080361145913

>  <Genealogy>  (55) 
CC(C)n1cc(C(=O)c2cncc([N-]C(=O)CCc3n[n-]c(=O)[n-]c3=O)c2)c2c[n-]c(=Nc3ccc(N4CCCCC4)nc3)nc21 (protonated)
CC(C)n1cc(C(=O)c2cncc([N-]C(=O)CCc3n[n-]c(=O)[n-]c3=O)c2)c2c[n-]/c(=N/c3ccc(N4CCCCC4)nc3)nc21 (cis-trans isomerization)
CC(C)n1cc(C(=O)c2cncc([N-]C(=O)CCc3n[n-]c(=O)[n-]c3=O)c2)c2c[n-]/c(=N/c3ccc(N4CCCCC4)nc3)nc21 (3D coordinates assigned)
CC(C)n1cc(C(=O)c2cncc([N-]C(=O)CCc3n[n-]c(=O)[n-]c3=O)c2)c2c[n-]/c(=N/c3ccc(N4CCCCC4)nc3)nc21 (nonaromatic ring conformer: 136.4080361145913 kcal/mol)

>  <smiles>  (55) 
CC(C)n1cc(C(=O)c2cncc(NC(=O)CCc3n[nH]c(=O)[nH]c3=O)c2)c2c[nH]c(=Nc3ccc(N4CCCCC4)nc3)nc21

>  <score_type>  (55) 
oracle

>  <origin>  (55) 
adg

>  <m_score__min__energy>  (55) 
-18.670000000000002

>  <m_primary>  (55) 
energy

$$$$
55:0
     RDKit          3D

 63 66  0  0  0  0  0  0  0  0999 V2000
   58.5040   28.2010   47.5220 C   0  0  0  0  0  0  0  0  0  0  0  0
   58.4970   27.7660   46.1260 N   0  0  0  0  0  0  0  0  0  0  0  0
   57.6230   26.8940   45.5900 C   0  0  0  0  0  0  0  0  0  0  0  0
   57.8070   26.8220   44.2230 C   0  0  0  0  0  0  0  0  0  0  0  0
   58.8330   27.6940   43.9140 C   0  0  0  0  0  0  0  0  0  0  0  0
   59.2440   28.2500   45.1080 C   0  0  0  0  0  0  0  0  0  0  0  0
   60.2980   29.2750   45.2330 C   0  0  0  0  0  0  0  0  0  0  0  0
   61.3060   29.2020   44.4800 O   0  0  0  0  0  0  0  0  0  0  0  0
   60.2020   30.3360   46.2020 N   0  0  0  0  0  0  0  0  0  0  0  0
   61.1400   30.3930   47.3320 C   0  0  0  0  0  0  0  0  0  0  0  0
   60.4050   30.1890   48.6300 C   0  0  0  0  0  0  0  0  0  0  0  0
   59.5110   31.1640   49.0940 C   0  0  0  0  0  0  0  0  0  0  0  0
   58.8150   30.9710   50.2900 C   0  0  0  0  0  0  0  0  0  0  0  0
   59.0000   29.7980   51.0440 C   0  0  0  0  0  0  0  0  0  0  0  0
   58.2820   29.6040   52.3230 C   0  0  0  0  0  0  0  0  0  0  0  0
   58.9260   29.4020   53.3890 O   0  0  0  0  0  0  0  0  0  0  0  0
   56.8530   29.6400   52.3550 N   0  0  0  0  0  0  0  0  0  0  0  0
   56.0700   29.9130   53.5580 C   0  0  0  0  0  0  0  0  0  0  0  0
   54.7250   29.1870   53.4940 C   0  0  0  0  0  0  0  0  0  0  0  0
   53.6450   30.1060   52.9850 C   0  0  0  0  0  0  0  0  0  0  0  0
   52.4630   30.2840   53.7260 C   0  0  0  0  0  0  0  0  0  0  0  0
   51.4740   31.1570   53.2660 C   0  0  0  0  0  0  0  0  0  0  0  0
   51.6610   31.8640   52.0730 C   0  0  0  0  0  0  0  0  0  0  0  0
   50.6750   32.7280   51.6170 O   0  0  0  0  0  0  0  0  0  0  0  0
   52.8410   31.7000   51.3400 C   0  0  0  0  0  0  0  0  0  0  0  0
   53.8320   30.8270   51.7950 C   0  0  0  0  0  0  0  0  0  0  0  0
   59.8900   28.8190   50.5680 C   0  0  0  0  0  0  0  0  0  0  0  0
   60.5830   29.0110   49.3700 C   0  0  0  0  0  0  0  0  0  0  0  0
   59.3060   31.4710   45.9510 C   0  0  0  0  0  0  0  0  0  0  0  0
   58.2210   31.0650   44.9960 C   0  0  0  0  0  0  0  0  0  0  0  0
   58.2750   31.4610   43.6520 C   0  0  0  0  0  0  0  0  0  0  0  0
   57.2890   31.0430   42.7530 C   0  0  0  0  0  0  0  0  0  0  0  0
   56.2500   30.2190   43.1870 C   0  0  0  0  0  0  0  0  0  0  0  0
   56.1950   29.8040   44.5220 C   0  0  0  0  0  0  0  0  0  0  0  0
   55.1610   28.9720   44.9400 O   0  0  0  0  0  0  0  0  0  0  0  0
   57.1810   30.2260   45.4240 C   0  0  0  0  0  0  0  0  0  0  0  0
   58.4898   27.3201   48.1806 H   0  0  0  0  0  0  0  0  0  0  0  0
   59.4118   28.7906   47.7178 H   0  0  0  0  0  0  0  0  0  0  0  0
   57.6157   28.8195   47.7178 H   0  0  0  0  0  0  0  0  0  0  0  0
   56.8729   26.3230   46.1569 H   0  0  0  0  0  0  0  0  0  0  0  0
   57.2454   26.1924   43.5172 H   0  0  0  0  0  0  0  0  0  0  0  0
   59.2413   27.9035   42.9143 H   0  0  0  0  0  0  0  0  0  0  0  0
   61.8973   29.6037   47.2155 H   0  0  0  0  0  0  0  0  0  0  0  0
   61.6249   31.3803   47.3459 H   0  0  0  0  0  0  0  0  0  0  0  0
   59.3567   32.0856   48.5136 H   0  0  0  0  0  0  0  0  0  0  0  0
   58.1164   31.7429   50.6450 H   0  0  0  0  0  0  0  0  0  0  0  0
   56.6278   29.5659   54.4402 H   0  0  0  0  0  0  0  0  0  0  0  0
   55.8885   30.9957   53.6280 H   0  0  0  0  0  0  0  0  0  0  0  0
   54.8127   28.3241   52.8175 H   0  0  0  0  0  0  0  0  0  0  0  0
   54.4557   28.8533   54.5070 H   0  0  0  0  0  0  0  0  0  0  0  0
   52.3171   29.7356   54.6683 H   0  0  0  0  0  0  0  0  0  0  0  0
   50.5466   31.2888   53.8427 H   0  0  0  0  0  0  0  0  0  0  0  0
   52.9887   32.2591   50.4043 H   0  0  0  0  0  0  0  0  0  0  0  0
   54.7613   30.7041   51.2194 H   0  0  0  0  0  0  0  0  0  0  0  0
   60.0420   27.8941   51.1437 H   0  0  0  0  0  0  0  0  0  0  0  0
   61.2715   28.2344   49.0055 H   0  0  0  0  0  0  0  0  0  0  0  0
   58.8539   31.7954   46.8999 H   0  0  0  0  0  0  0  0  0  0  0  0
   59.8837   32.2978   45.5120 H   0  0  0  0  0  0  0  0  0  0  0  0
   59.0969   32.1035   43.3032 H   0  0  0  0  0  0  0  0  0  0  0  0
   57.3325   31.3643   41.7019 H   0  0  0  0  0  0  0  0  0  0  0  0
   55.4732   29.8953   42.4787 H   0  0  0  0  0  0  0  0  0  0  0  0
   54.2550   28.9980   44.4970 H   0  0  0  0  0  0  0  0  0  0  0  0
   57.1394   29.8978   46.4731 H   0  0  0  0  0  0  0  0  0  0  0  0
  1  2  1  0
  2  3  1  0
  3  4  2  0
  4  5  1  0
  5  6  2  0
  6  7  1  0
  7  8  2  0
  7  9  1  0
  9 10  1  0
 10 11  1  0
 11 12  2  0
 12 13  1  0
 13 14  2  0
 14 15  1  0
 15 16  2  0
 15 17  1  0
 17 18  1  0
 18 19  1  0
 19 20  1  0
 20 21  2  0
 21 22  1  0
 22 23  2  0
 23 24  1  0
 23 25  1  0
 25 26  2  0
 14 27  1  0
 27 28  2  0
  9 29  1  0
 29 30  1  0
 30 31  2  0
 31 32  1  0
 32 33  2  0
 33 34  1  0
 34 35  1  0
 34 36  2  0
  6  2  1  0
 28 11  1  0
 36 30  1  0
 26 20  1  0
  1 37  1  0
  1 38  1  0
  1 39  1  0
  3 40  1  0
  4 41  1  0
  5 42  1  0
 10 43  1  0
 10 44  1  0
 12 45  1  0
 13 46  1  0
 18 47  1  0
 18 48  1  0
 19 49  1  0
 19 50  1  0
 21 51  1  0
 22 52  1  0
 25 53  1  0
 26 54  1  0
 27 55  1  0
 28 56  1  0
 29 57  1  0
 29 58  1  0
 31 59  1  0
 32 60  1  0
 33 61  1  0
 35 62  1  0
 36 63  1  0
M  CHG  2  17  -1  24  -1
M  END
>  <UniqueID>  (56) 
49

>  <SMILES>  (56) 
Cn1cccc1C(=O)N(Cc1ccc(C(=O)[N-]CCc2ccc([O-])cc2)cc1)Cc1cccc(O)c1

>  <Energy>  (56) 
89.43556676710547

>  <Genealogy>  (56) 
Cn1cccc1C(=O)N(Cc1ccc(C(=O)[N-]CCc2ccc([O-])cc2)cc1)Cc1cccc(O)c1 (protonated)
Cn1cccc1C(=O)N(Cc1ccc(C(=O)[N-]CCc2ccc([O-])cc2)cc1)Cc1cccc(O)c1 (3D coordinates assigned)
Cn1cccc1C(=O)N(Cc1ccc(C(=O)[N-]CCc2ccc([O-])cc2)cc1)Cc1cccc(O)c1 (optimized conformer: 89.43556676710547 kcal/mol)

>  <smiles>  (56) 
Cn1cccc1C(=O)N(Cc1ccc(C(=O)NCCc2ccc(O)cc2)cc1)Cc1cccc(O)c1

>  <score_type>  (56) 
oracle

>  <origin>  (56) 
adg

>  <m_score__min__energy>  (56) 
-16.440000000000001

>  <m_primary>  (56) 
energy

$$$$
56:0
     RDKit          3D

 38 39  0  0  0  0  0  0  0  0999 V2000
   56.4270   19.5750   45.2560 C   0  0  0  0  0  0  0  0  0  0  0  0
   55.8920   20.4110   44.2370 O   0  0  0  0  0  0  0  0  0  0  0  0
   56.6600   21.3710   43.5710 C   0  0  0  0  0  0  0  0  0  0  0  0
   56.2730   21.8570   42.4730 O   0  0  0  0  0  0  0  0  0  0  0  0
   57.9670   21.8070   44.1570 C   0  0  0  0  0  0  0  0  0  0  0  0
   57.7740   22.4050   45.4750 N   0  0  0  0  0  0  0  0  0  0  0  0
   56.6000   23.0750   45.9580 C   0  0  0  0  0  0  0  0  0  0  0  0
   55.6500   22.3750   46.3970 O   0  0  0  0  0  0  0  0  0  0  0  0
   56.4330   24.5390   45.9200 C   0  0  0  0  0  0  0  0  0  0  0  0
   57.4270   25.4960   45.8470 C   0  0  0  0  0  0  0  0  0  0  0  0
   56.7360   26.6920   45.8980 C   0  0  0  0  0  0  0  0  0  0  0  0
   57.2970   28.0620   45.8520 C   0  0  0  0  0  0  0  0  0  0  0  0
   58.5180   28.3320   46.4910 C   0  0  0  0  0  0  0  0  0  0  0  0
   59.0660   29.6170   46.4610 C   0  0  0  0  0  0  0  0  0  0  0  0
   58.3940   30.6630   45.8050 C   0  0  0  0  0  0  0  0  0  0  0  0
   58.9650   31.9830   45.7420 N   0  0  0  0  0  0  0  0  0  0  0  0
   58.2990   33.1780   46.1860 C   0  0  0  0  0  0  0  0  0  0  0  0
   59.0820   34.2830   46.6420 N   0  0  0  0  0  0  0  0  0  0  0  0
   57.0060   33.2890   46.1090 N   0  0  0  0  0  0  0  0  0  0  0  0
   57.1820   30.3920   45.1520 C   0  0  0  0  0  0  0  0  0  0  0  0
   56.5060   31.4040   44.4780 O   0  0  0  0  0  0  0  0  0  0  0  0
   56.6350   29.1040   45.1800 C   0  0  0  0  0  0  0  0  0  0  0  0
   55.4540   26.4280   46.0080 O   0  0  0  0  0  0  0  0  0  0  0  0
   55.2350   25.1460   46.0340 N   0  0  0  0  0  0  0  0  0  0  0  0
   56.1644   19.9853   46.2423 H   0  0  0  0  0  0  0  0  0  0  0  0
   56.0086   18.5625   45.1569 H   0  0  0  0  0  0  0  0  0  0  0  0
   57.5216   19.5308   45.1569 H   0  0  0  0  0  0  0  0  0  0  0  0
   58.6286   20.9333   44.2514 H   0  0  0  0  0  0  0  0  0  0  0  0
   58.4164   22.5595   43.4923 H   0  0  0  0  0  0  0  0  0  0  0  0
   58.5133   25.3422   45.7671 H   0  0  0  0  0  0  0  0  0  0  0  0
   59.0473   27.5254   47.0194 H   0  0  0  0  0  0  0  0  0  0  0  0
   60.0299   29.8114   46.9541 H   0  0  0  0  0  0  0  0  0  0  0  0
   59.9380   32.0830   45.3760 H   0  0  0  0  0  0  0  0  0  0  0  0
   60.1220   34.2080   46.6890 H   0  0  0  0  0  0  0  0  0  0  0  0
   58.6300   35.1750   46.9430 H   0  0  0  0  0  0  0  0  0  0  0  0
   56.4700   32.7870   45.3660 H   0  0  0  0  0  0  0  0  0  0  0  0
   56.4650   33.8530   46.8000 H   0  0  0  0  0  0  0  0  0  0  0  0
   55.6796   28.9057   44.6722 H   0  0  0  0  0  0  0  0  0  0  0  0
  1  2  1  0
  2  3  1  0
  3  4  2  0
  3  5  1  0
  5  6  1  0
  6  7  1  0
  7  8  2  0
  7  9  1  0
  9 10  1  0
 10 11  2  0
 11 12  1  0
 12 13  2  0
 13 14  1  0
 14 15  2  0
 15 16  1  0
 16 17  1  0
 17 18  1  0
 17 19  2  0
 15 20  1  0
 20 21  1  0
 20 22  2  0
 11 23  1  0
 23 24  1  0
 24  9  2  0
 22 12  1  0
  1 25  1  0
  1 26  1  0
  1 27  1  0
  5 28  1  0
  5 29  1  0
 10 30  1  0
 13 31  1  0
 14 32  1  0
 16 33  1  0
 18 34  1  0
 18 35  1  0
 19 36  1  0
 19 37  1  0
 22 38  1  0
M  CHG  3   6  -1  19   1  21  -1
M  END
>  <UniqueID>  (57) 
50

>  <SMILES>  (57) 
COC(=O)C[N-]C(=O)c1cc(-c2ccc(NC(N)=[NH2+])c([O-])c2)on1

>  <Energy>  (57) 
71.31414477536384

>  <Genealogy>  (57) 
COC(=O)C[N-]C(=O)c1cc(-c2ccc(NC(N)=[NH2+])c([O-])c2)on1 (protonated)
COC(=O)C[N-]C(=O)c1cc(-c2ccc(NC(N)=[NH2+])c([O-])c2)on1 (3D coordinates assigned)
COC(=O)C[N-]C(=O)c1cc(-c2ccc(NC(N)=[NH2+])c([O-])c2)on1 (optimized conformer: 71.31414477536384 kcal/mol)

>  <smiles>  (57) 
COC(=O)CNC(=O)c1cc(-c2ccc(NC(=N)N)c(O)c2)on1

>  <score_type>  (57) 
oracle

>  <origin>  (57) 
adg

>  <m_score__min__energy>  (57) 
-9.1600000000000001

>  <m_primary>  (57) 
energy

$$$$
57:0
     RDKit          3D

 43 45  0  0  0  0  0  0  0  0999 V2000
   58.7650   32.3360   49.7000 C   0  0  0  0  0  0  0  0  0  0  0  0
   59.4990   31.8140   48.4420 C   0  0  2  0  0  0  0  0  0  0  0  0
   59.3560   32.8530   47.3170 C   0  0  0  0  0  0  0  0  0  0  0  0
   58.5070   32.6030   46.2780 N   0  0  0  0  0  0  0  0  0  0  0  0
   58.3070   33.4610   45.2430 C   0  0  0  0  0  0  0  0  0  0  0  0
   57.4650   33.1100   44.3090 N   0  0  0  0  0  0  0  0  0  0  0  0
   57.4390   31.9130   43.5120 C   0  0  0  0  0  0  0  0  0  0  0  0
   57.8210   31.9440   42.3110 O   0  0  0  0  0  0  0  0  0  0  0  0
   57.0540   30.6110   44.1220 C   0  0  0  0  0  0  0  0  0  0  0  0
   55.6970   30.2540   44.2180 C   0  0  0  0  0  0  0  0  0  0  0  0
   55.3340   29.0700   44.7730 N   0  0  0  0  0  0  0  0  0  0  0  0
   56.2660   28.2070   45.2490 C   0  0  0  0  0  0  0  0  0  0  0  0
   55.9070   27.1140   45.7590 O   0  0  0  0  0  0  0  0  0  0  0  0
   57.5820   28.5220   45.1770 N   0  0  0  0  0  0  0  0  0  0  0  0
   58.0000   29.6940   44.6300 C   0  0  0  0  0  0  0  0  0  0  0  0
   59.2340   29.9410   44.5940 O   0  0  0  0  0  0  0  0  0  0  0  0
   58.9820   34.6960   45.2460 C   0  0  0  0  0  0  0  0  0  0  0  0
   59.8500   34.9960   46.2940 C   0  0  0  0  0  0  0  0  0  0  0  0
   60.0460   34.0850   47.3320 C   0  0  0  0  0  0  0  0  0  0  0  0
   60.8810   34.4310   48.3420 F   0  0  0  0  0  0  0  0  0  0  0  0
   58.8740   30.4550   48.0030 C   0  0  0  0  0  0  0  0  0  0  0  0
   59.2270   29.3080   48.9560 C   0  0  0  0  0  0  0  0  0  0  0  0
   60.7390   29.2950   49.2230 C   0  0  2  0  0  0  0  0  0  0  0  0
   61.0690   28.2220   50.2220 C   0  0  0  0  0  0  0  0  0  0  0  0
   61.6890   28.5520   51.4660 N   0  0  0  0  0  0  0  0  0  0  0  0
   60.7720   27.0240   49.9750 O   0  0  0  0  0  0  0  0  0  0  0  0
   61.1640   30.5450   49.7330 O   0  0  0  0  0  0  0  0  0  0  0  0
   61.0000   31.5590   48.7560 C   0  0  0  0  0  0  0  0  0  0  0  0
   59.2782   31.9710   50.6019 H   0  0  0  0  0  0  0  0  0  0  0  0
   58.7680   33.4360   49.6963 H   0  0  0  0  0  0  0  0  0  0  0  0
   57.7269   31.9721   49.6963 H   0  0  0  0  0  0  0  0  0  0  0  0
   54.9241   30.9396   43.8404 H   0  0  0  0  0  0  0  0  0  0  0  0
   58.8260   35.4167   44.4298 H   0  0  0  0  0  0  0  0  0  0  0  0
   60.3842   35.9576   46.3028 H   0  0  0  0  0  0  0  0  0  0  0  0
   57.7798   30.5639   47.9731 H   0  0  0  0  0  0  0  0  0  0  0  0
   59.2843   30.2040   47.0137 H   0  0  0  0  0  0  0  0  0  0  0  0
   58.6903   29.4454   49.9063 H   0  0  0  0  0  0  0  0  0  0  0  0
   58.9328   28.3528   48.4967 H   0  0  0  0  0  0  0  0  0  0  0  0
   61.2576   29.0969   48.2734 H   0  0  0  0  0  0  0  0  0  0  0  0
   61.9260   29.5410   51.7000 H   0  0  0  0  0  0  0  0  0  0  0  0
   61.9070   27.8030   52.1610 H   0  0  0  0  0  0  0  0  0  0  0  0
   61.4498   32.4907   49.1296 H   0  0  0  0  0  0  0  0  0  0  0  0
   61.4936   31.2279   47.8304 H   0  0  0  0  0  0  0  0  0  0  0  0
  2  1  1  1
  2  3  1  0
  3  4  1  0
  4  5  1  0
  5  6  2  3
  6  7  1  0
  7  8  2  0
  7  9  1  0
  9 10  2  0
 10 11  1  0
 11 12  1  0
 12 13  2  0
 12 14  1  0
 14 15  1  0
 15 16  2  0
  5 17  1  0
 17 18  2  0
 18 19  1  0
 19 20  1  0
  2 21  1  0
 21 22  1  0
 22 23  1  0
 23 24  1  0
 24 25  1  0
 24 26  2  0
 23 27  1  0
 27 28  1  0
 28  2  1  0
 19  3  2  0
 15  9  1  0
  1 29  1  0
  1 30  1  0
  1 31  1  0
 10 32  1  0
 17 33  1  0
 18 34  1  0
 21 35  1  0
 21 36  1  0
 22 37  1  0
 22 38  1  0
 23 39  1  6
 25 40  1  0
 25 41  1  0
 28 42  1  0
 28 43  1  0
M  CHG  3   4  -1  11  -1  14  -1
M  END
>  <UniqueID>  (58) 
51

>  <SMILES>  (58) 
C[C@]1(c2[n-]c(=NC(=O)c3c[n-]c(=O)[n-]c3=O)ccc2F)CC[C@H](C(N)=O)OC1

>  <Energy>  (58) 
59.372511466336526

>  <Genealogy>  (58) 
CC1(c2[n-]c(=NC(=O)c3c[n-]c(=O)[n-]c3=O)ccc2F)CCC(C(N)=O)OC1 (protonated)
C[C@]1(c2[n-]c(=NC(=O)c3c[n-]c(=O)[n-]c3=O)ccc2F)CC[C@H](C(N)=O)OC1 (chirality)
C[C@]1(c2[n-]c(=NC(=O)c3c[n-]c(=O)[n-]c3=O)ccc2F)CC[C@H](C(N)=O)OC1 (3D coordinates assigned)
C[C@]1(c2[n-]c(=NC(=O)c3c[n-]c(=O)[n-]c3=O)ccc2F)CC[C@H](C(N)=O)OC1 (nonaromatic ring conformer: 59.372511466336526 kcal/mol)

>  <smiles>  (58) 
CC1(c2[nH]c(=NC(=O)c3c[nH]c(=O)[nH]c3=O)ccc2F)CCC(C(N)=O)OC1

>  <score_type>  (58) 
oracle

>  <origin>  (58) 
adg

>  <m_score__min__energy>  (58) 
-13.58

>  <m_primary>  (58) 
energy

$$$$
58:0
     RDKit          3D

 45 48  0  0  0  0  0  0  0  0999 V2000
   54.0720   26.3300   46.3800 H   0  0  0  0  0  0  0  0  0  0  0  0
   55.0530   26.4320   46.1560 O   0  0  0  0  0  0  0  0  0  0  0  0
   55.9820   25.4030   46.3190 C   0  0  0  0  0  0  0  0  0  0  0  0
   55.5530   24.2160   46.8210 N   0  0  0  0  0  0  0  0  0  0  0  0
   56.4100   23.1860   47.0300 C   0  0  0  0  0  0  0  0  0  0  0  0
   55.9840   22.0980   47.4940 O   0  0  0  0  0  0  0  0  0  0  0  0
   57.7290   23.3300   46.7450 N   0  0  0  0  0  0  0  0  0  0  0  0
   58.2140   24.4920   46.2380 C   0  0  0  0  0  0  0  0  0  0  0  0
   59.4450   24.5900   45.9860 O   0  0  0  0  0  0  0  0  0  0  0  0
   57.3440   25.5650   45.9860 C   0  0  0  0  0  0  0  0  0  0  0  0
   57.8720   26.8340   45.4480 C   0  0  0  0  0  0  0  0  0  0  0  0
   57.6758   27.0504   44.3875 H   0  0  0  0  0  0  0  0  0  0  0  0
   58.5740   27.7510   46.1440 C   0  0  0  0  0  0  0  0  0  0  0  0
   58.3190   28.0320   47.4740 C   0  0  0  0  0  0  0  0  0  0  0  0
   57.5839   27.5296   48.1199 H   0  0  0  0  0  0  0  0  0  0  0  0
   59.1610   29.0610   47.8360 C   0  0  0  0  0  0  0  0  0  0  0  0
   59.2200   29.6560   49.2120 C   0  0  0  0  0  0  0  0  0  0  0  0
   59.1406   28.8549   49.9616 H   0  0  0  0  0  0  0  0  0  0  0  0
   60.1751   30.1861   49.3416 H   0  0  0  0  0  0  0  0  0  0  0  0
   58.3876   30.3633   49.3416 H   0  0  0  0  0  0  0  0  0  0  0  0
   59.9350   29.4330   46.7890 N   0  0  0  0  0  0  0  0  0  0  0  0
   60.9670   30.4860   46.8040 C   0  0  0  0  0  0  0  0  0  0  0  0
   61.6891   30.2673   47.6045 H   0  0  0  0  0  0  0  0  0  0  0  0
   61.4625   30.4976   45.8220 H   0  0  0  0  0  0  0  0  0  0  0  0
   60.3570   31.8640   47.0490 C   0  0  0  0  0  0  0  0  0  0  0  0
   60.9310   32.6770   48.0570 C   0  0  0  0  0  0  0  0  0  0  0  0
   62.0600   32.2600   48.7540 O   0  0  0  0  0  0  0  0  0  0  0  0
   60.3800   33.9150   48.3780 C   0  0  0  0  0  0  0  0  0  0  0  0
   60.8314   34.5220   49.1766 H   0  0  0  0  0  0  0  0  0  0  0  0
   59.2660   34.3900   47.6990 C   0  0  0  0  0  0  0  0  0  0  0  0
   58.8261   35.3583   47.9797 H   0  0  0  0  0  0  0  0  0  0  0  0
   58.7000   33.6440   46.6600 C   0  0  0  0  0  0  0  0  0  0  0  0
   57.5930   34.1610   45.9680 C   0  0  0  0  0  0  0  0  0  0  0  0
   57.1684   35.1320   46.2626 H   0  0  0  0  0  0  0  0  0  0  0  0
   57.0300   33.4510   44.9110 C   0  0  0  0  0  0  0  0  0  0  0  0
   56.1572   33.8574   44.3789 H   0  0  0  0  0  0  0  0  0  0  0  0
   57.5710   32.2270   44.5270 C   0  0  0  0  0  0  0  0  0  0  0  0
   57.1301   31.6754   43.6836 H   0  0  0  0  0  0  0  0  0  0  0  0
   58.6690   31.6950   45.2050 C   0  0  0  0  0  0  0  0  0  0  0  0
   59.0895   30.7308   44.8832 H   0  0  0  0  0  0  0  0  0  0  0  0
   59.2500   32.3790   46.3020 C   0  0  0  0  0  0  0  0  0  0  0  0
   59.6200   28.6040   45.7550 C   0  0  0  0  0  0  0  0  0  0  0  0
   60.3050   28.5720   44.6010 C   0  0  0  0  0  0  0  0  0  0  0  0
   61.1074   29.3017   44.4173 H   0  0  0  0  0  0  0  0  0  0  0  0
   60.0639   27.8161   43.8391 H   0  0  0  0  0  0  0  0  0  0  0  0
  1  2  1  0
  2  3  1  0
  3  4  1  0
  4  5  1  0
  5  6  2  0
  5  7  1  0
  7  8  1  0
  8  9  2  0
  8 10  1  0
 10 11  1  0
 11 12  1  0
 11 13  2  0
 13 14  1  0
 14 15  1  0
 14 16  2  0
 16 17  1  0
 17 18  1  0
 17 19  1  0
 17 20  1  0
 16 21  1  0
 21 22  1  0
 22 23  1  0
 22 24  1  0
 22 25  1  0
 25 26  2  0
 26 27  1  0
 26 28  1  0
 28 29  1  0
 28 30  2  0
 30 31  1  0
 30 32  1  0
 32 33  2  0
 33 34  1  0
 33 35  1  0
 35 36  1  0
 35 37  2  0
 37 38  1  0
 37 39  1  0
 39 40  1  0
 39 41  2  0
 21 42  1  0
 42 43  2  0
 43 44  1  0
 43 45  1  0
 10  3  2  0
 42 13  1  0
 41 25  1  0
 41 32  1  0
M  CHG  3   4  -1   7  -1  27  -1
M  END
>  <UniqueID>  (59) 
52

>  <SMILES>  (59) 
C=c1/c(=C\c2c(O)[n-]c(=O)[n-]c2=O)cc(C)n1Cc1c([O-])ccc2ccccc12

>  <Energy>  (59) 
102.51412442327616

>  <Genealogy>  (59) 
C=c1c(=Cc2c(O)[n-]c(=O)[n-]c2=O)cc(C)n1Cc1c([O-])ccc2ccccc12 (protonated)
C=c1/c(=C\c2c(O)[n-]c(=O)[n-]c2=O)cc(C)n1Cc1c([O-])ccc2ccccc12 (cis-trans isomerization)
C=c1/c(=C\c2c(O)[n-]c(=O)[n-]c2=O)cc(C)n1Cc1c([O-])ccc2ccccc12 (3D coordinates assigned)
C=c1/c(=C\c2c(O)[n-]c(=O)[n-]c2=O)cc(C)n1Cc1c([O-])ccc2ccccc12 (optimized conformer: 102.51412442327616 kcal/mol)

>  <smiles>  (59) 
C=c1c(=Cc2c(O)[nH]c(=O)[nH]c2=O)cc(C)n1Cc1c(O)ccc2ccccc12

>  <score_type>  (59) 
oracle

>  <origin>  (59) 
adg

>  <m_score__min__energy>  (59) 
-14.640000000000001

>  <m_primary>  (59) 
energy

$$$$
59:0
     RDKit          3D

 59 62  0  0  0  0  0  0  0  0999 V2000
   58.3827   32.0659   53.5529 H   0  0  0  0  0  0  0  0  0  0  0  0
   58.4330   31.5570   52.5790 C   0  0  0  0  0  0  0  0  0  0  0  0
   57.3220   30.8650   52.0850 C   0  0  0  0  0  0  0  0  0  0  0  0
   56.0460   30.8280   52.8630 C   0  0  0  0  0  0  0  0  0  0  0  0
   56.2725   30.8346   53.9394 H   0  0  0  0  0  0  0  0  0  0  0  0
   55.4372   31.7089   52.6110 H   0  0  0  0  0  0  0  0  0  0  0  0
   55.4893   29.9133   52.6110 H   0  0  0  0  0  0  0  0  0  0  0  0
   57.3960   30.2440   50.8750 N   0  0  0  0  0  0  0  0  0  0  0  0
   58.5280   30.2500   50.1190 C   0  0  0  0  0  0  0  0  0  0  0  0
   58.5070   29.6370   48.9680 N   0  0  0  0  0  0  0  0  0  0  0  0
   59.6040   28.9840   48.3080 C   0  0  0  0  0  0  0  0  0  0  0  0
   60.6490   28.0620   49.1740 S   0  0  0  0  0  0  0  0  0  0  0  0
   59.6840   28.9710   46.8750 N   0  0  0  0  0  0  0  0  0  0  0  0
   60.5740   28.6340   46.4400 H   0  0  0  0  0  0  0  0  0  0  0  0
   58.7170   29.5960   46.0180 C   0  0  0  0  0  0  0  0  0  0  0  0
   57.4740   28.9910   45.7590 C   0  0  0  0  0  0  0  0  0  0  0  0
   57.2254   28.0273   46.2276 H   0  0  0  0  0  0  0  0  0  0  0  0
   56.5530   29.6100   44.9080 C   0  0  0  0  0  0  0  0  0  0  0  0
   55.5796   29.1357   44.7144 H   0  0  0  0  0  0  0  0  0  0  0  0
   56.8670   30.8300   44.3030 C   0  0  0  0  0  0  0  0  0  0  0  0
   56.1366   31.3171   43.6402 H   0  0  0  0  0  0  0  0  0  0  0  0
   58.1110   31.4360   44.5380 C   0  0  0  0  0  0  0  0  0  0  0  0
   58.4610   32.7530   43.8960 C   0  0  0  0  0  0  0  0  0  0  0  0
   59.5044   32.7220   43.5490 H   0  0  0  0  0  0  0  0  0  0  0  0
   57.7867   32.9273   43.0446 H   0  0  0  0  0  0  0  0  0  0  0  0
   58.3030   33.8530   44.8680 N   0  0  0  0  0  0  0  0  0  0  0  0
   57.2230   33.5810   45.8520 C   0  0  0  0  0  0  0  0  0  0  0  0
   56.6308   34.4977   45.9899 H   0  0  0  0  0  0  0  0  0  0  0  0
   56.6063   32.7603   45.4569 H   0  0  0  0  0  0  0  0  0  0  0  0
   57.7750   33.1400   47.2150 C   0  0  0  0  0  0  0  0  0  0  0  0
   56.9332   32.9386   47.8939 H   0  0  0  0  0  0  0  0  0  0  0  0
   58.3817   32.2346   47.0664 H   0  0  0  0  0  0  0  0  0  0  0  0
   58.6370   34.1860   47.8130 N   0  0  0  0  0  0  0  0  0  0  0  0
   59.5110   33.6050   48.8540 C   0  0  0  0  0  0  0  0  0  0  0  0
   59.6383   34.3333   49.6685 H   0  0  0  0  0  0  0  0  0  0  0  0
   59.0455   32.6857   49.2388 H   0  0  0  0  0  0  0  0  0  0  0  0
   60.8610   33.2650   48.2760 C   0  0  0  0  0  0  0  0  0  0  0  0
   61.9230   34.1830   48.3480 C   0  0  0  0  0  0  0  0  0  0  0  0
   61.7664   35.1662   48.8157 H   0  0  0  0  0  0  0  0  0  0  0  0
   63.1790   33.8510   47.8270 C   0  0  0  0  0  0  0  0  0  0  0  0
   64.0078   34.5715   47.8895 H   0  0  0  0  0  0  0  0  0  0  0  0
   63.3810   32.6040   47.2270 C   0  0  0  0  0  0  0  0  0  0  0  0
   64.3675   32.3450   46.8150 H   0  0  0  0  0  0  0  0  0  0  0  0
   62.3290   31.6870   47.1510 C   0  0  0  0  0  0  0  0  0  0  0  0
   62.4884   30.7072   46.6771 H   0  0  0  0  0  0  0  0  0  0  0  0
   61.0740   32.0120   47.6760 C   0  0  0  0  0  0  0  0  0  0  0  0
   60.2509   31.2845   47.6191 H   0  0  0  0  0  0  0  0  0  0  0  0
   59.4060   34.9630   46.8050 C   0  0  0  0  0  0  0  0  0  0  0  0
   58.8625   35.8939   46.5858 H   0  0  0  0  0  0  0  0  0  0  0  0
   60.4012   35.1690   47.2260 H   0  0  0  0  0  0  0  0  0  0  0  0
   59.6010   34.1850   45.4960 C   0  0  0  0  0  0  0  0  0  0  0  0
   60.1895   34.7993   44.7986 H   0  0  0  0  0  0  0  0  0  0  0  0
   60.1252   33.2457   45.7258 H   0  0  0  0  0  0  0  0  0  0  0  0
   59.0360   30.8050   45.3860 C   0  0  0  0  0  0  0  0  0  0  0  0
   60.0208   31.2647   45.5556 H   0  0  0  0  0  0  0  0  0  0  0  0
   59.6610   30.9480   50.5880 C   0  0  0  0  0  0  0  0  0  0  0  0
   60.5804   30.9821   49.9851 H   0  0  0  0  0  0  0  0  0  0  0  0
   59.6050   31.5950   51.8240 C   0  0  0  0  0  0  0  0  0  0  0  0
   60.4855   32.1349   52.2024 H   0  0  0  0  0  0  0  0  0  0  0  0
  1  2  1  0
  2  3  2  0
  3  4  1  0
  4  5  1  0
  4  6  1  0
  4  7  1  0
  3  8  1  0
  8  9  1  0
  9 10  2  0
 10 11  1  0
 11 12  2  0
 11 13  1  0
 13 14  1  0
 13 15  1  0
 15 16  2  0
 16 17  1  0
 16 18  1  0
 18 19  1  0
 18 20  2  0
 20 21  1  0
 20 22  1  0
 22 23  1  0
 23 24  1  0
 23 25  1  0
 23 26  1  0
 26 27  1  0
 27 28  1  0
 27 29  1  0
 27 30  1  0
 30 31  1  0
 30 32  1  0
 30 33  1  0
 33 34  1  0
 34 35  1  0
 34 36  1  0
 34 37  1  0
 37 38  2  0
 38 39  1  0
 38 40  1  0
 40 41  1  0
 40 42  2  0
 42 43  1  0
 42 44  1  0
 44 45  1  0
 44 46  2  0
 46 47  1  0
 33 48  1  0
 48 49  1  0
 48 50  1  0
 48 51  1  0
 51 52  1  0
 51 53  1  0
 22 54  2  0
 54 55  1  0
  9 56  1  0
 56 57  1  0
 56 58  2  0
 58 59  1  0
 58  2  1  0
 54 15  1  0
 51 26  1  0
 46 37  1  0
M  CHG  1   8  -1
M  END
>  <UniqueID>  (60) 
53

>  <SMILES>  (60) 
Cc1ccc/c(=N\C(=S)Nc2cccc(CN3CCN(Cc4ccccc4)CC3)c2)[n-]1

>  <Energy>  (60) 
87.32607048222798

>  <Genealogy>  (60) 
Cc1cccc(=NC(=S)Nc2cccc(CN3CCN(Cc4ccccc4)CC3)c2)[n-]1 (protonated)
Cc1ccc/c(=N\C(=S)Nc2cccc(CN3CCN(Cc4ccccc4)CC3)c2)[n-]1 (cis-trans isomerization)
Cc1ccc/c(=N\C(=S)Nc2cccc(CN3CCN(Cc4ccccc4)CC3)c2)[n-]1 (3D coordinates assigned)
Cc1ccc/c(=N\C(=S)Nc2cccc(CN3CCN(Cc4ccccc4)CC3)c2)[n-]1 (nonaromatic ring conformer: 87.32607048222798 kcal/mol)

>  <smiles>  (60) 
Cc1cccc(=NC(=S)Nc2cccc(CN3CCN(Cc4ccccc4)CC3)c2)[nH]1

>  <score_type>  (60) 
oracle

>  <origin>  (60) 
adg

>  <m_score__min__energy>  (60) 
-11.800000000000001

>  <m_primary>  (60) 
energy

$$$$
60:0
     RDKit          3D

 35 36  0  0  0  0  0  0  0  0999 V2000
   55.9370   26.8650   45.4780 H   0  0  0  0  0  0  0  0  0  0  0  0
   55.1750   26.4470   45.9980 O   0  0  0  0  0  0  0  0  0  0  0  0
   54.7310   25.1590   45.7680 N   0  0  0  0  0  0  0  0  0  0  0  0
   55.4840   24.1730   45.3690 C   0  0  0  0  0  0  0  0  0  0  0  0
   54.8290   22.9570   44.8460 C   0  0  0  0  0  0  0  0  0  0  0  0
   53.6720   22.6490   45.2420 O   0  0  0  0  0  0  0  0  0  0  0  0
   55.5110   22.1160   43.9090 N   0  0  0  0  0  0  0  0  0  0  0  0
   56.1170   22.6250   42.6880 C   0  0  0  0  0  0  0  0  0  0  0  0
   56.9361   23.3130   42.9444 H   0  0  0  0  0  0  0  0  0  0  0  0
   56.5142   21.7857   42.0983 H   0  0  0  0  0  0  0  0  0  0  0  0
   55.3589   23.1611   42.0983 H   0  0  0  0  0  0  0  0  0  0  0  0
   56.9580   24.2330   45.4650 C   0  0  0  0  0  0  0  0  0  0  0  0
   57.6190   25.4150   45.6090 N   0  0  0  0  0  0  0  0  0  0  0  0
   58.9530   25.2230   45.7170 C   0  0  0  0  0  0  0  0  0  0  0  0
   59.8160   26.1820   45.8500 N   0  0  0  0  0  0  0  0  0  0  0  0
   59.9030   27.0330   47.0000 C   0  0  0  0  0  0  0  0  0  0  0  0
   60.5840   26.6570   47.9880 O   0  0  0  0  0  0  0  0  0  0  0  0
   59.1800   28.2690   47.0800 N   0  0  0  0  0  0  0  0  0  0  0  0
   57.7740   28.4600   46.7310 C   0  0  0  0  0  0  0  0  0  0  0  0
   57.3752   27.5218   46.3178 H   0  0  0  0  0  0  0  0  0  0  0  0
   57.2229   28.7458   47.6391 H   0  0  0  0  0  0  0  0  0  0  0  0
   57.6160   29.5560   45.7080 C   0  0  0  0  0  0  0  0  0  0  0  0
   58.5920   30.5640   45.6000 C   0  0  0  0  0  0  0  0  0  0  0  0
   59.4644   30.5555   46.2700 H   0  0  0  0  0  0  0  0  0  0  0  0
   58.4580   31.5750   44.6460 C   0  0  0  0  0  0  0  0  0  0  0  0
   59.2262   32.3581   44.5647 H   0  0  0  0  0  0  0  0  0  0  0  0
   57.3510   31.5940   43.7950 C   0  0  0  0  0  0  0  0  0  0  0  0
   57.2491   32.3905   43.0432 H   0  0  0  0  0  0  0  0  0  0  0  0
   56.3730   30.6020   43.8980 C   0  0  0  0  0  0  0  0  0  0  0  0
   55.5002   30.6210   43.2287 H   0  0  0  0  0  0  0  0  0  0  0  0
   56.5000   29.5840   44.8500 C   0  0  0  0  0  0  0  0  0  0  0  0
   55.5140   28.6070   44.9390 O   0  0  0  0  0  0  0  0  0  0  0  0
   59.3700   23.6010   45.6260 S   0  0  0  0  0  0  0  0  0  0  0  0
   57.7710   23.1000   45.4580 C   0  0  0  0  0  0  0  0  0  0  0  0
   57.4275   22.0596   45.3598 H   0  0  0  0  0  0  0  0  0  0  0  0
  1  2  1  0
  2  3  1  0
  3  4  2  3
  4  5  1  0
  5  6  2  0
  5  7  1  0
  7  8  1  0
  8  9  1  0
  8 10  1  0
  8 11  1  0
  4 12  1  0
 12 13  1  0
 13 14  1  0
 14 15  2  0
 15 16  1  0
 16 17  2  0
 16 18  1  0
 18 19  1  0
 19 20  1  0
 19 21  1  0
 19 22  1  0
 22 23  2  0
 23 24  1  0
 23 25  1  0
 25 26  1  0
 25 27  2  0
 27 28  1  0
 27 29  1  0
 29 30  1  0
 29 31  2  0
 31 32  1  0
 14 33  1  0
 33 34  1  0
 34 35  1  0
 34 12  2  0
 31 22  1  0
M  CHG  4   7  -1  13  -1  18  -1  32  -1
M  END
>  <UniqueID>  (61) 
54

>  <SMILES>  (61) 
C[N-]C(=O)C(=NO)c1cs/c(=N/C(=O)[N-]Cc2ccccc2[O-])[n-]1

>  <Energy>  (61) 
73.45807431452734

>  <Genealogy>  (61) 
C[N-]C(=O)C(=NO)c1csc(=NC(=O)[N-]Cc2ccccc2[O-])[n-]1 (protonated)
C[N-]C(=O)C(=NO)c1cs/c(=N/C(=O)[N-]Cc2ccccc2[O-])[n-]1 (cis-trans isomerization)
C[N-]C(=O)C(=NO)c1cs/c(=N/C(=O)[N-]Cc2ccccc2[O-])[n-]1 (3D coordinates assigned)
C[N-]C(=O)C(=NO)c1cs/c(=N/C(=O)[N-]Cc2ccccc2[O-])[n-]1 (optimized conformer: 73.45807431452734 kcal/mol)

>  <smiles>  (61) 
CNC(=O)C(=NO)c1csc(=NC(=O)NCc2ccccc2O)[nH]1

>  <score_type>  (61) 
oracle

>  <origin>  (61) 
adg

>  <m_score__min__energy>  (61) 
-14.18

>  <m_primary>  (61) 
energy

$$$$
61:0
     RDKit          3D

 46 48  0  0  0  0  0  0  0  0999 V2000
   57.9990   33.4640   47.0050 O   0  0  0  0  0  0  0  0  0  0  0  0
   58.9830   33.1580   46.2780 C   0  0  0  0  0  0  0  0  0  0  0  0
   60.2730   33.9020   46.4230 C   0  0  0  0  0  0  0  0  0  0  0  0
   61.3460   32.9810   46.7900 N   0  0  0  0  0  0  0  0  0  0  0  0
   62.7310   33.3460   46.7020 C   0  0  0  0  0  0  0  0  0  0  0  0
   63.0830   34.3370   46.0060 O   0  0  0  0  0  0  0  0  0  0  0  0
   63.7700   32.5470   47.4360 C   0  0  0  0  0  0  0  0  0  0  0  0
   63.9190   32.9870   48.8740 C   0  0  0  0  0  0  0  0  0  0  0  0
   65.0990   32.7250   49.5950 C   0  0  0  0  0  0  0  0  0  0  0  0
   65.2450   33.1870   50.9050 C   0  0  0  0  0  0  0  0  0  0  0  0
   64.2270   33.9330   51.5020 C   0  0  0  0  0  0  0  0  0  0  0  0
   63.0600   34.2190   50.7890 C   0  0  0  0  0  0  0  0  0  0  0  0
   62.9070   33.7530   49.4790 C   0  0  0  0  0  0  0  0  0  0  0  0
   58.8930   32.0860   45.3300 N   0  0  0  0  0  0  0  0  0  0  0  0
   58.2880   30.8010   45.5370 C   0  0  0  0  0  0  0  0  0  0  0  0
   57.0020   30.5070   45.0510 C   0  0  0  0  0  0  0  0  0  0  0  0
   56.4500   29.2360   45.2430 C   0  0  0  0  0  0  0  0  0  0  0  0
   55.1770   28.9530   44.7630 O   0  0  0  0  0  0  0  0  0  0  0  0
   57.1800   28.2510   45.9090 C   0  0  0  0  0  0  0  0  0  0  0  0
   58.4650   28.5280   46.3800 C   0  0  0  0  0  0  0  0  0  0  0  0
   59.0290   29.8030   46.1970 C   0  0  0  0  0  0  0  0  0  0  0  0
   60.3420   30.1220   46.6740 N   0  0  0  0  0  0  0  0  0  0  0  0
   60.8840   29.9930   48.3150 S   0  0  0  0  0  0  0  0  0  0  0  0
   60.9350   28.5450   48.7150 O   0  0  0  0  0  0  0  0  0  0  0  0
   62.2420   30.6180   48.4610 O   0  0  0  0  0  0  0  0  0  0  0  0
   59.7360   30.8240   49.3450 C   0  0  0  0  0  0  0  0  0  0  0  0
   59.6240   32.1990   49.4840 C   0  0  0  0  0  0  0  0  0  0  0  0
   58.5700   32.5770   50.3250 C   0  0  0  0  0  0  0  0  0  0  0  0
   57.8580   31.5030   50.8430 C   0  0  0  0  0  0  0  0  0  0  0  0
   58.5350   30.0800   50.2540 S   0  0  0  0  0  0  0  0  0  0  0  0
   60.5217   34.3882   45.4682 H   0  0  0  0  0  0  0  0  0  0  0  0
   60.1641   34.6603   47.2124 H   0  0  0  0  0  0  0  0  0  0  0  0
   61.0860   32.0670   47.2240 H   0  0  0  0  0  0  0  0  0  0  0  0
   63.4787   31.4864   47.4186 H   0  0  0  0  0  0  0  0  0  0  0  0
   64.7352   32.7058   46.9329 H   0  0  0  0  0  0  0  0  0  0  0  0
   65.9116   32.1526   49.1237 H   0  0  0  0  0  0  0  0  0  0  0  0
   66.1635   32.9627   51.4672 H   0  0  0  0  0  0  0  0  0  0  0  0
   64.3438   34.2956   52.5339 H   0  0  0  0  0  0  0  0  0  0  0  0
   62.2607   34.8113   51.2583 H   0  0  0  0  0  0  0  0  0  0  0  0
   61.9897   33.9872   48.9189 H   0  0  0  0  0  0  0  0  0  0  0  0
   56.4278   31.2791   44.5179 H   0  0  0  0  0  0  0  0  0  0  0  0
   56.7422   27.2538   46.0634 H   0  0  0  0  0  0  0  0  0  0  0  0
   59.0390   27.7448   46.8968 H   0  0  0  0  0  0  0  0  0  0  0  0
   60.2924   32.9170   48.9863 H   0  0  0  0  0  0  0  0  0  0  0  0
   58.3288   33.6256   50.5537 H   0  0  0  0  0  0  0  0  0  0  0  0
   56.9966   31.5713   51.5237 H   0  0  0  0  0  0  0  0  0  0  0  0
  1  2  2  0
  2  3  1  0
  3  4  1  0
  4  5  1  0
  5  6  2  0
  5  7  1  0
  7  8  1  0
  8  9  2  0
  9 10  1  0
 10 11  2  0
 11 12  1  0
 12 13  2  0
  2 14  1  0
 14 15  1  0
 15 16  2  0
 16 17  1  0
 17 18  1  0
 17 19  2  0
 19 20  1  0
 20 21  2  0
 21 22  1  0
 22 23  1  0
 23 24  2  0
 23 25  2  0
 23 26  1  0
 26 27  2  0
 27 28  1  0
 28 29  2  0
 29 30  1  0
 13  8  1  0
 21 15  1  0
 30 26  1  0
  3 31  1  0
  3 32  1  0
  4 33  1  0
  7 34  1  0
  7 35  1  0
  9 36  1  0
 10 37  1  0
 11 38  1  0
 12 39  1  0
 13 40  1  0
 16 41  1  0
 19 42  1  0
 20 43  1  0
 27 44  1  0
 28 45  1  0
 29 46  1  0
M  CHG  3  14  -1  18  -1  22  -1
M  END
>  <UniqueID>  (62) 
55

>  <SMILES>  (62) 
O=C(CNC(=O)Cc1ccccc1)[N-]c1cc([O-])ccc1[N-]S(=O)(=O)c1cccs1

>  <Energy>  (62) 
72.24566377027088

>  <Genealogy>  (62) 
O=C(CNC(=O)Cc1ccccc1)[N-]c1cc([O-])ccc1[N-]S(=O)(=O)c1cccs1 (protonated)
O=C(CNC(=O)Cc1ccccc1)[N-]c1cc([O-])ccc1[N-]S(=O)(=O)c1cccs1 (3D coordinates assigned)
O=C(CNC(=O)Cc1ccccc1)[N-]c1cc([O-])ccc1[N-]S(=O)(=O)c1cccs1 (optimized conformer: 72.24566377027088 kcal/mol)

>  <smiles>  (62) 
O=C(Cc1ccccc1)NCC(=O)Nc1cc(O)ccc1NS(=O)(=O)c1cccs1

>  <score_type>  (62) 
oracle

>  <origin>  (62) 
adg

>  <m_score__min__energy>  (62) 
-14.550000000000001

>  <m_primary>  (62) 
energy

$$$$
62:0
     RDKit          3D

 45 48  0  0  0  0  0  0  0  0999 V2000
   55.9400   20.4010   44.1520 N   0  0  0  0  0  0  0  0  0  0  0  0
   56.6590   21.7460   43.3420 S   0  0  0  0  0  0  0  0  0  0  0  0
   56.0800   21.8720   41.9610 O   0  0  0  0  0  0  0  0  0  0  0  0
   58.1430   21.5290   43.2260 O   0  0  0  0  0  0  0  0  0  0  0  0
   56.3420   23.2160   44.2570 C   0  0  0  0  0  0  0  0  0  0  0  0
   55.1220   23.3620   44.9630 C   0  0  0  0  0  0  0  0  0  0  0  0
   54.8620   24.5280   45.7070 C   0  0  0  0  0  0  0  0  0  0  0  0
   55.8410   25.5170   45.7240 C   0  0  0  0  0  0  0  0  0  0  0  0
   55.8070   26.6950   46.3660 N   0  0  0  0  0  0  0  0  0  0  0  0
   57.0060   27.2390   46.0340 C   0  0  0  0  0  0  0  0  0  0  0  0
   57.3800   28.3960   46.4900 N   0  0  0  0  0  0  0  0  0  0  0  0
   57.2660   29.6410   45.7810 C   0  0  0  0  0  0  0  0  0  0  0  0
   58.1820   30.6620   46.0650 C   0  0  0  0  0  0  0  0  0  0  0  0
   58.0980   31.8980   45.4080 C   0  0  0  0  0  0  0  0  0  0  0  0
   59.2480   33.1830   45.7670 S   0  0  0  0  0  0  0  0  0  0  0  0
   58.5960   34.1720   46.6930 O   0  0  0  0  0  0  0  0  0  0  0  0
   59.6330   33.8960   44.4990 O   0  0  0  0  0  0  0  0  0  0  0  0
   60.6700   32.5130   46.5310 N   0  0  0  0  0  0  0  0  0  0  0  0
   61.7990   33.4560   46.4080 C   0  0  0  0  0  0  0  0  0  0  0  0
   62.8700   33.1600   47.4700 C   0  0  0  0  0  0  0  0  0  0  0  0
   62.4040   33.2570   48.8110 O   0  0  0  0  0  0  0  0  0  0  0  0
   60.9970   33.1180   48.9400 C   0  0  0  0  0  0  0  0  0  0  0  0
   60.3900   32.1260   47.9320 C   0  0  0  0  0  0  0  0  0  0  0  0
   57.0710   32.1210   44.4830 C   0  0  0  0  0  0  0  0  0  0  0  0
   56.1330   31.1190   44.2200 C   0  0  0  0  0  0  0  0  0  0  0  0
   56.2160   29.8860   44.8740 C   0  0  0  0  0  0  0  0  0  0  0  0
   55.2370   28.9270   44.6400 O   0  0  0  0  0  0  0  0  0  0  0  0
   57.7870   26.4600   45.2350 N   0  0  0  0  0  0  0  0  0  0  0  0
   57.0170   25.3780   45.0510 C   0  0  0  0  0  0  0  0  0  0  0  0
   57.3110   24.2410   44.3060 C   0  0  0  0  0  0  0  0  0  0  0  0
   56.6260   19.6150   44.1080 H   0  0  0  0  0  0  0  0  0  0  0  0
   54.3724   22.5577   44.9293 H   0  0  0  0  0  0  0  0  0  0  0  0
   53.9173   24.6534   46.2563 H   0  0  0  0  0  0  0  0  0  0  0  0
   58.9738   30.4928   46.8096 H   0  0  0  0  0  0  0  0  0  0  0  0
   62.2452   33.3571   45.4074 H   0  0  0  0  0  0  0  0  0  0  0  0
   61.4241   34.4792   46.5583 H   0  0  0  0  0  0  0  0  0  0  0  0
   63.2437   32.1382   47.3077 H   0  0  0  0  0  0  0  0  0  0  0  0
   63.6526   33.9238   47.3512 H   0  0  0  0  0  0  0  0  0  0  0  0
   60.7726   32.7640   49.9570 H   0  0  0  0  0  0  0  0  0  0  0  0
   60.5516   34.1031   48.7372 H   0  0  0  0  0  0  0  0  0  0  0  0
   60.8156   31.1285   48.1161 H   0  0  0  0  0  0  0  0  0  0  0  0
   59.2989   32.1269   48.0716 H   0  0  0  0  0  0  0  0  0  0  0  0
   57.0022   33.0873   43.9619 H   0  0  0  0  0  0  0  0  0  0  0  0
   55.3258   31.3012   43.4953 H   0  0  0  0  0  0  0  0  0  0  0  0
   58.2679   24.1437   43.7722 H   0  0  0  0  0  0  0  0  0  0  0  0
  1  2  1  0
  2  3  2  0
  2  4  2  0
  2  5  1  0
  5  6  2  0
  6  7  1  0
  7  8  2  0
  8  9  1  0
  9 10  1  0
 10 11  2  3
 11 12  1  0
 12 13  2  0
 13 14  1  0
 14 15  1  0
 15 16  2  0
 15 17  2  0
 15 18  1  0
 18 19  1  0
 19 20  1  0
 20 21  1  0
 21 22  1  0
 22 23  1  0
 14 24  2  0
 24 25  1  0
 25 26  2  0
 26 27  1  0
 10 28  1  0
 28 29  1  0
 29 30  2  0
 30  5  1  0
 29  8  1  0
 26 12  1  0
 23 18  1  0
  1 31  1  0
  6 32  1  0
  7 33  1  0
 13 34  1  0
 19 35  1  0
 19 36  1  0
 20 37  1  0
 20 38  1  0
 22 39  1  0
 22 40  1  0
 23 41  1  0
 23 42  1  0
 24 43  1  0
 25 44  1  0
 30 45  1  0
M  CHG  4   1  -1   9  -1  27  -1  28  -1
M  END
>  <UniqueID>  (63) 
56

>  <SMILES>  (63) 
[NH-]S(=O)(=O)c1ccc2[n-]c(=Nc3cc(S(=O)(=O)N4CCOCC4)ccc3[O-])[n-]c2c1

>  <Energy>  (63) 
103.15962836443506

>  <Genealogy>  (63) 
[NH-]S(=O)(=O)c1ccc2[n-]c(=Nc3cc(S(=O)(=O)N4CCOCC4)ccc3[O-])[n-]c2c1 (protonated)
[NH-]S(=O)(=O)c1ccc2[n-]c(=Nc3cc(S(=O)(=O)N4CCOCC4)ccc3[O-])[n-]c2c1 (3D coordinates assigned)
[NH-]S(=O)(=O)c1ccc2[n-]c(=Nc3cc(S(=O)(=O)N4CCOCC4)ccc3[O-])[n-]c2c1 (nonaromatic ring conformer: 103.15962836443506 kcal/mol)

>  <smiles>  (63) 
NS(=O)(=O)c1ccc2[nH]c(=Nc3cc(S(=O)(=O)N4CCOCC4)ccc3O)[nH]c2c1

>  <score_type>  (63) 
oracle

>  <origin>  (63) 
adg

>  <m_score__min__energy>  (63) 
-15.9

>  <m_primary>  (63) 
energy

$$$$
63:0
     RDKit          3D

 39 41  0  0  0  0  0  0  0  0999 V2000
   57.9760   29.0400   44.1670 C   0  0  0  0  0  0  0  0  0  0  0  0
   58.3610   29.8050   45.3470 N   0  0  0  0  0  0  0  0  0  0  0  0
   57.9050   31.0140   45.6260 N   0  0  0  0  0  0  0  0  0  0  0  0
   58.4620   31.3680   46.8050 C   0  0  0  0  0  0  0  0  0  0  0  0
   58.1450   32.6670   47.5180 C   0  0  0  0  0  0  0  0  0  0  0  0
   59.4150   33.4790   47.8280 C   0  0  0  0  0  0  0  0  0  0  0  0
   59.9840   34.1950   46.6270 C   0  0  0  0  0  0  0  0  0  0  0  0
   61.1410   34.5820   46.6750 O   0  0  0  0  0  0  0  0  0  0  0  0
   59.1820   34.4790   45.3800 C   0  0  0  0  0  0  0  0  0  0  0  0
   57.7350   34.0700   45.4660 C   0  0  0  0  0  0  0  0  0  0  0  0
   57.0160   34.2410   44.4930 O   0  0  0  0  0  0  0  0  0  0  0  0
   57.1350   33.5080   46.7260 C   0  0  0  0  0  0  0  0  0  0  0  0
   59.2620   30.3840   47.2910 N   0  0  0  0  0  0  0  0  0  0  0  0
   60.0070   30.3530   48.5570 C   0  0  0  0  0  0  0  0  0  0  0  0
   61.2780   31.1520   48.4470 C   0  0  0  0  0  0  0  0  0  0  0  0
   61.9610   31.2440   47.2220 C   0  0  0  0  0  0  0  0  0  0  0  0
   63.1320   32.0010   47.1230 C   0  0  0  0  0  0  0  0  0  0  0  0
   63.6330   32.6670   48.2450 C   0  0  0  0  0  0  0  0  0  0  0  0
   62.9650   32.5720   49.4690 C   0  0  0  0  0  0  0  0  0  0  0  0
   61.7940   31.8160   49.5730 C   0  0  0  0  0  0  0  0  0  0  0  0
   59.1720   29.4170   46.3510 C   0  0  0  0  0  0  0  0  0  0  0  0
   59.9230   27.9570   46.4240 S   0  0  0  0  0  0  0  0  0  0  0  0
   57.5019   28.0979   44.4794 H   0  0  0  0  0  0  0  0  0  0  0  0
   57.2656   29.6262   43.5657 H   0  0  0  0  0  0  0  0  0  0  0  0
   58.8701   28.8187   43.5657 H   0  0  0  0  0  0  0  0  0  0  0  0
   57.6840   32.3993   48.4802 H   0  0  0  0  0  0  0  0  0  0  0  0
   59.1699   34.2281   48.5953 H   0  0  0  0  0  0  0  0  0  0  0  0
   60.1789   32.7646   48.1688 H   0  0  0  0  0  0  0  0  0  0  0  0
   59.2230   35.5605   45.1831 H   0  0  0  0  0  0  0  0  0  0  0  0
   59.6309   33.8799   44.5741 H   0  0  0  0  0  0  0  0  0  0  0  0
   56.7927   34.3404   47.3584 H   0  0  0  0  0  0  0  0  0  0  0  0
   56.2975   32.8542   46.4413 H   0  0  0  0  0  0  0  0  0  0  0  0
   59.3808   30.7789   49.3548 H   0  0  0  0  0  0  0  0  0  0  0  0
   60.2648   29.3093   48.7898 H   0  0  0  0  0  0  0  0  0  0  0  0
   61.5724   30.7181   46.3375 H   0  0  0  0  0  0  0  0  0  0  0  0
   63.6599   32.0726   46.1606 H   0  0  0  0  0  0  0  0  0  0  0  0
   64.5524   33.2655   48.1648 H   0  0  0  0  0  0  0  0  0  0  0  0
   63.3618   33.0934   50.3526 H   0  0  0  0  0  0  0  0  0  0  0  0
   61.2745   31.7405   50.5396 H   0  0  0  0  0  0  0  0  0  0  0  0
  1  2  1  0
  2  3  1  0
  3  4  2  0
  4  5  1  0
  5  6  1  0
  6  7  1  0
  7  8  2  0
  7  9  1  0
  9 10  1  0
 10 11  2  0
 10 12  1  0
  4 13  1  0
 13 14  1  0
 14 15  1  0
 15 16  2  0
 16 17  1  0
 17 18  2  0
 18 19  1  0
 19 20  2  0
 13 21  1  0
 21 22  2  0
 21  2  1  0
 12  5  1  0
 20 15  1  0
  1 23  1  0
  1 24  1  0
  1 25  1  0
  5 26  1  0
  6 27  1  0
  6 28  1  0
  9 29  1  0
  9 30  1  0
 12 31  1  0
 12 32  1  0
 14 33  1  0
 14 34  1  0
 16 35  1  0
 17 36  1  0
 18 37  1  0
 19 38  1  0
 20 39  1  0
M  END
>  <UniqueID>  (64) 
57

>  <SMILES>  (64) 
Cn1nc(C2CC(=O)CC(=O)C2)n(Cc2ccccc2)c1=S

>  <Energy>  (64) 
73.55177897213939

>  <Genealogy>  (64) 
Cn1nc(C2CC(=O)CC(=O)C2)n(Cc2ccccc2)c1=S (3D coordinates assigned)
Cn1nc(C2CC(=O)CC(=O)C2)n(Cc2ccccc2)c1=S (nonaromatic ring conformer: 73.55177897213939 kcal/mol)

>  <smiles>  (64) 
Cn1nc(C2CC(=O)CC(=O)C2)n(Cc2ccccc2)c1=S

>  <score_type>  (64) 
oracle

>  <origin>  (64) 
adg

>  <m_score__min__energy>  (64) 
-7.2599999999999998

>  <m_primary>  (64) 
energy

$$$$
64:0
     RDKit          3D

 41 43  0  0  1  0  0  0  0  0999 V2000
   56.2480   29.6350   52.7230 C   0  0  0  0  0  0  0  0  0  0  0  0
   57.0520   30.0830   51.6580 O   0  0  0  0  0  0  0  0  0  0  0  0
   57.7130   31.2950   51.6840 C   0  0  0  0  0  0  0  0  0  0  0  0
   57.1320   32.3790   52.3410 C   0  0  0  0  0  0  0  0  0  0  0  0
   57.7620   33.6090   52.3900 C   0  0  0  0  0  0  0  0  0  0  0  0
   58.9740   33.8030   51.7990 N   0  0  0  0  0  0  0  0  0  0  0  0
   59.5240   32.7320   51.1630 C   0  0  0  0  0  0  0  0  0  0  0  0
   60.6580   32.9120   50.6190 N   0  0  0  0  0  0  0  0  0  0  0  0
   61.0270   33.8380   49.6400 C   0  0  0  0  0  0  0  0  0  0  0  0
   62.0210   34.5890   49.6080 O   0  0  0  0  0  0  0  0  0  0  0  0
   60.1130   33.9520   48.4730 C   0  0  0  0  0  0  0  0  0  0  0  0
   59.9460   33.0470   47.4440 C   0  0  0  0  0  0  0  0  0  0  0  0
   58.9820   33.5260   46.5780 C   0  0  0  0  0  0  0  0  0  0  0  0
   58.4790   32.8630   45.3690 C   0  0  0  0  0  0  0  0  0  0  0  0
   58.5840   33.4570   44.1130 C   0  0  0  0  0  0  0  0  0  0  0  0
   58.1050   32.7360   43.0390 C   0  0  0  0  0  0  0  0  0  0  0  0
   57.5430   31.4960   43.1280 C   0  0  0  0  0  0  0  0  0  0  0  0
   57.4500   30.9210   44.3910 C   0  0  0  0  0  0  0  0  0  0  0  0
   56.7520   29.3180   44.6160 S   0  0  0  0  0  0  0  0  0  0  0  0
   57.3980   28.2950   43.3820 N   0  0  0  0  0  0  0  0  0  0  0  0
   55.2550   29.3440   44.5360 O   0  0  0  0  0  0  0  0  0  0  0  0
   57.2400   28.8060   45.9350 O   0  0  0  0  0  0  0  0  0  0  0  0
   57.9120   31.5910   45.5170 C   0  0  0  0  0  0  0  0  0  0  0  0
   58.5810   34.7120   47.0950 N   0  0  0  0  0  0  0  0  0  0  0  0
   59.2490   34.9640   48.2110 N   0  0  0  0  0  0  0  0  0  0  0  0
   58.9370   31.5100   51.0910 C   0  0  0  0  0  0  0  0  0  0  0  0
   56.7240   29.9002   53.6785 H   0  0  0  0  0  0  0  0  0  0  0  0
   55.2587   30.1119   52.6614 H   0  0  0  0  0  0  0  0  0  0  0  0
   56.1330   28.5428   52.6614 H   0  0  0  0  0  0  0  0  0  0  0  0
   56.1544   32.2534   52.8294 H   0  0  0  0  0  0  0  0  0  0  0  0
   57.2764   34.4448   52.9150 H   0  0  0  0  0  0  0  0  0  0  0  0
   59.4530   34.7290   51.8330 H   0  0  0  0  0  0  0  0  0  0  0  0
   60.4918   32.0986   47.3318 H   0  0  0  0  0  0  0  0  0  0  0  0
   59.0284   34.4549   43.9838 H   0  0  0  0  0  0  0  0  0  0  0  0
   58.1815   33.1927   42.0412 H   0  0  0  0  0  0  0  0  0  0  0  0
   57.1769   30.9703   42.2338 H   0  0  0  0  0  0  0  0  0  0  0  0
   56.7240   27.6110   43.0180 H   0  0  0  0  0  0  0  0  0  0  0  0
   57.8720   28.8000   42.6200 H   0  0  0  0  0  0  0  0  0  0  0  0
   57.8335   31.1284   46.5119 H   0  0  0  0  0  0  0  0  0  0  0  0
   59.1030   35.8420   48.7930 H   0  0  0  0  0  0  0  0  0  0  0  0
   59.4402   30.6899   50.5578 H   0  0  0  0  0  0  0  0  0  0  0  0
  1  2  1  0
  2  3  1  0
  3  4  1  0
  4  5  2  0
  5  6  1  0
  6  7  1  0
  7  8  2  0
  8  9  1  0
  9 10  2  0
  9 11  1  0
 11 12  2  0
 12 13  1  0
 13 14  1  0
 14 15  2  0
 15 16  1  0
 16 17  2  0
 17 18  1  0
 18 19  1  0
 19 20  1  0
 19 21  2  0
 19 22  2  0
 18 23  2  0
 13 24  2  0
 24 25  1  0
  7 26  1  0
 26  3  2  0
 25 11  1  0
 23 14  1  0
  1 27  1  0
  1 28  1  0
  1 29  1  0
  4 30  1  0
  5 31  1  0
  6 32  1  0
 12 33  1  0
 15 34  1  0
 16 35  1  0
 17 36  1  0
 20 37  1  0
 20 38  1  0
 23 39  1  0
 25 40  1  0
 26 41  1  0
M  END
>  <smiles>  (65) 
COc1cc[nH]c(=NC(=O)c2cc(-c3cccc(S(N)(=O)=O)c3)n[nH]2)c1

>  <score_type>  (65) 
oracle

>  <origin>  (65) 
adg

>  <m_score__min__energy>  (65) 
-8.9399999999999995

>  <m_primary>  (65) 
energy

$$$$
65:0
     RDKit          3D

 31 32  0  0  0  0  0  0  0  0999 V2000
   59.2600   36.6880   47.1490 H   0  0  0  0  0  0  0  0  0  0  0  0
   59.6410   36.0950   46.4210 O   0  0  0  0  0  0  0  0  0  0  0  0
   59.1130   34.8320   46.1530 C   0  0  0  0  0  0  0  0  0  0  0  0
   58.5980   34.5510   44.8830 C   0  0  0  0  0  0  0  0  0  0  0  0
   58.6155   35.3282   44.1047 H   0  0  0  0  0  0  0  0  0  0  0  0
   58.0630   33.2970   44.5930 C   0  0  0  0  0  0  0  0  0  0  0  0
   57.6701   33.0927   43.5861 H   0  0  0  0  0  0  0  0  0  0  0  0
   58.0200   32.2880   45.5760 C   0  0  0  0  0  0  0  0  0  0  0  0
   57.4840   30.9810   45.2910 N   0  0  0  0  0  0  0  0  0  0  0  0
   56.8460   30.6240   44.2180 C   0  0  0  0  0  0  0  0  0  0  0  0
   57.1097   31.0666   43.2461 H   0  0  0  0  0  0  0  0  0  0  0  0
   55.7740   29.6300   44.3060 C   0  0  0  0  0  0  0  0  0  0  0  0
   54.7850   29.7170   43.5280 O   0  0  0  0  0  0  0  0  0  0  0  0
   55.8590   28.5940   45.2430 O   0  0  0  0  0  0  0  0  0  0  0  0
   56.9880   27.7310   45.3620 C   0  0  0  0  0  0  0  0  0  0  0  0
   57.5787   27.7784   44.4352 H   0  0  0  0  0  0  0  0  0  0  0  0
   56.6332   26.7042   45.5347 H   0  0  0  0  0  0  0  0  0  0  0  0
   57.8640   28.1530   46.5370 C   0  0  0  0  0  0  0  0  0  0  0  0
   57.3548   27.9077   47.4807 H   0  0  0  0  0  0  0  0  0  0  0  0
   58.8243   27.6187   46.4889 H   0  0  0  0  0  0  0  0  0  0  0  0
   58.0447   29.2370   46.4889 H   0  0  0  0  0  0  0  0  0  0  0  0
   58.5530   32.5550   46.8590 C   0  0  0  0  0  0  0  0  0  0  0  0
   58.5490   31.5700   47.8670 C   0  0  0  0  0  0  0  0  0  0  0  0
   58.1305   30.5749   47.6557 H   0  0  0  0  0  0  0  0  0  0  0  0
   59.0720   31.8470   49.1320 C   0  0  0  0  0  0  0  0  0  0  0  0
   59.0642   31.0698   49.9104 H   0  0  0  0  0  0  0  0  0  0  0  0
   59.6040   33.1050   49.4120 C   0  0  0  0  0  0  0  0  0  0  0  0
   60.0132   33.3173   50.4107 H   0  0  0  0  0  0  0  0  0  0  0  0
   59.6190   34.0960   48.4290 C   0  0  0  0  0  0  0  0  0  0  0  0
   60.0410   35.0859   48.6570 H   0  0  0  0  0  0  0  0  0  0  0  0
   59.0970   33.8360   47.1470 C   0  0  0  0  0  0  0  0  0  0  0  0
  1  2  1  0
  2  3  1  0
  3  4  2  0
  4  5  1  0
  4  6  1  0
  6  7  1  0
  6  8  2  0
  8  9  1  0
  9 10  2  0
 10 11  1  0
 10 12  1  0
 12 13  2  0
 12 14  1  0
 14 15  1  0
 15 16  1  0
 15 17  1  0
 15 18  1  0
 18 19  1  0
 18 20  1  0
 18 21  1  0
  8 22  1  0
 22 23  2  0
 23 24  1  0
 23 25  1  0
 25 26  1  0
 25 27  2  0
 27 28  1  0
 27 29  1  0
 29 30  1  0
 29 31  2  0
 31  3  1  0
 31 22  1  0
M  END
>  <UniqueID>  (66) 
58

>  <SMILES>  (66) 
CCOC(=O)/C=N/c1ccc(O)c2ccccc12

>  <Energy>  (66) 
33.254626892511624

>  <Genealogy>  (66) 
CCOC(=O)/C=N/c1ccc(O)c2ccccc12 (cis-trans isomerization)
CCOC(=O)/C=N/c1ccc(O)c2ccccc12 (3D coordinates assigned)
CCOC(=O)/C=N/c1ccc(O)c2ccccc12 (optimized conformer: 33.254626892511624 kcal/mol)

>  <smiles>  (66) 
CCOC(=O)C=Nc1ccc(O)c2ccccc12

>  <score_type>  (66) 
oracle

>  <origin>  (66) 
adg

>  <m_score__min__energy>  (66) 
-6.5099999999999998

>  <m_primary>  (66) 
energy

$$$$
66:0
     RDKit          3D

 53 57  0  0  0  0  0  0  0  0999 V2000
   56.4351   33.6024   44.3070 H   0  0  0  0  0  0  0  0  0  0  0  0
   57.4070   33.1220   44.4930 C   0  0  0  0  0  0  0  0  0  0  0  0
   57.7730   32.1010   43.7020 C   0  0  0  0  0  0  0  0  0  0  0  0
   58.0214   32.3178   42.6526 H   0  0  0  0  0  0  0  0  0  0  0  0
   57.8600   30.6960   44.1690 C   0  0  0  0  0  0  0  0  0  0  0  0
   58.5690   30.4130   45.3450 C   0  0  0  0  0  0  0  0  0  0  0  0
   59.0538   31.2291   45.9008 H   0  0  0  0  0  0  0  0  0  0  0  0
   58.6640   29.0930   45.8180 C   0  0  0  0  0  0  0  0  0  0  0  0
   59.3620   28.7600   46.9880 O   0  0  0  0  0  0  0  0  0  0  0  0
   59.1710   29.3540   48.2440 C   0  0  0  0  0  0  0  0  0  0  0  0
   58.2520   28.9460   49.0060 O   0  0  0  0  0  0  0  0  0  0  0  0
   60.0610   30.4750   48.6390 C   0  0  0  0  0  0  0  0  0  0  0  0
   61.0310   30.8270   47.7560 N   0  0  0  0  0  0  0  0  0  0  0  0
   61.9210   31.8110   48.0190 C   0  0  0  0  0  0  0  0  0  0  0  0
   62.9060   32.1350   47.0790 C   0  0  0  0  0  0  0  0  0  0  0  0
   62.9537   31.5918   46.1237 H   0  0  0  0  0  0  0  0  0  0  0  0
   63.8290   33.1480   47.3530 C   0  0  0  0  0  0  0  0  0  0  0  0
   64.6017   33.4024   46.6126 H   0  0  0  0  0  0  0  0  0  0  0  0
   63.7710   33.8380   48.5670 C   0  0  0  0  0  0  0  0  0  0  0  0
   64.4995   34.6341   48.7801 H   0  0  0  0  0  0  0  0  0  0  0  0
   62.7900   33.5200   49.5120 C   0  0  0  0  0  0  0  0  0  0  0  0
   62.7476   34.0661   50.4659 H   0  0  0  0  0  0  0  0  0  0  0  0
   61.8560   32.5000   49.2420 C   0  0  0  0  0  0  0  0  0  0  0  0
   60.8470   32.1450   50.1510 C   0  0  0  0  0  0  0  0  0  0  0  0
   60.7540   32.7580   51.2530 O   0  0  0  0  0  0  0  0  0  0  0  0
   59.9570   31.1450   49.8420 N   0  0  0  0  0  0  0  0  0  0  0  0
   58.9030   30.8550   50.7780 C   0  0  0  0  0  0  0  0  0  0  0  0
   59.0010   29.7420   51.6290 C   0  0  0  0  0  0  0  0  0  0  0  0
   59.8881   29.0931   51.5850 H   0  0  0  0  0  0  0  0  0  0  0  0
   57.9720   29.4580   52.5320 C   0  0  0  0  0  0  0  0  0  0  0  0
   58.0534   28.5889   53.2013 H   0  0  0  0  0  0  0  0  0  0  0  0
   56.8390   30.2770   52.5860 C   0  0  0  0  0  0  0  0  0  0  0  0
   55.8440   30.0000   53.4620 F   0  0  0  0  0  0  0  0  0  0  0  0
   56.7350   31.3830   51.7350 C   0  0  0  0  0  0  0  0  0  0  0  0
   55.8443   32.0270   51.7782 H   0  0  0  0  0  0  0  0  0  0  0  0
   57.7610   31.6710   50.8300 C   0  0  0  0  0  0  0  0  0  0  0  0
   57.6738   32.5375   50.1580 H   0  0  0  0  0  0  0  0  0  0  0  0
   58.0020   28.0820   45.1200 C   0  0  0  0  0  0  0  0  0  0  0  0
   58.0470   27.0461   45.4872 H   0  0  0  0  0  0  0  0  0  0  0  0
   57.3020   28.3670   43.9900 N   0  0  0  0  0  0  0  0  0  0  0  0
   56.8100   27.5950   43.4870 H   0  0  0  0  0  0  0  0  0  0  0  0
   57.2170   29.6350   43.5050 C   0  0  0  0  0  0  0  0  0  0  0  0
   56.6421   29.8322   42.5881 H   0  0  0  0  0  0  0  0  0  0  0  0
   58.2440   33.6370   45.6050 C   0  0  0  0  0  0  0  0  0  0  0  0
   57.9930   33.1790   46.9070 C   0  0  0  0  0  0  0  0  0  0  0  0
   57.1833   32.4577   47.0916 H   0  0  0  0  0  0  0  0  0  0  0  0
   58.7750   33.6420   47.9690 C   0  0  0  0  0  0  0  0  0  0  0  0
   58.5729   33.2939   48.9927 H   0  0  0  0  0  0  0  0  0  0  0  0
   59.7850   34.5220   47.7380 N   0  0  0  0  0  0  0  0  0  0  0  0
   60.0640   34.9740   46.4880 C   0  0  0  0  0  0  0  0  0  0  0  0
   60.8888   35.6852   46.3332 H   0  0  0  0  0  0  0  0  0  0  0  0
   59.3060   34.5380   45.3980 C   0  0  0  0  0  0  0  0  0  0  0  0
   59.5376   34.8966   44.3842 H   0  0  0  0  0  0  0  0  0  0  0  0
  1  2  1  0
  2  3  2  0
  3  4  1  0
  3  5  1  0
  5  6  2  0
  6  7  1  0
  6  8  1  0
  8  9  1  0
  9 10  1  0
 10 11  2  0
 10 12  1  0
 12 13  2  0
 13 14  1  0
 14 15  2  0
 15 16  1  0
 15 17  1  0
 17 18  1  0
 17 19  2  0
 19 20  1  0
 19 21  1  0
 21 22  1  0
 21 23  2  0
 23 24  1  0
 24 25  2  0
 24 26  1  0
 26 27  1  0
 27 28  2  0
 28 29  1  0
 28 30  1  0
 30 31  1  0
 30 32  2  0
 32 33  1  0
 32 34  1  0
 34 35  1  0
 34 36  2  0
 36 37  1  0
  8 38  2  0
 38 39  1  0
 38 40  1  0
 40 41  1  0
 40 42  2  0
 42 43  1  0
  2 44  1  0
 44 45  2  0
 45 46  1  0
 45 47  1  0
 47 48  1  0
 47 49  2  0
 49 50  1  0
 50 51  1  0
 50 52  2  0
 52 53  1  0
 42  5  1  0
 52 44  1  0
 26 12  1  0
 36 27  1  0
 23 14  1  0
M  CHG  1  40   1
M  END
>  <UniqueID>  (67) 
59

>  <SMILES>  (67) 
O=C(Oc1c[nH+]cc(/C=C/c2ccncc2)c1)c1nc2ccccc2c(=O)n1-c1ccc(F)cc1

>  <Energy>  (67) 
87.75745755128393

>  <Genealogy>  (67) 
O=C(Oc1c[nH+]cc(C=Cc2ccncc2)c1)c1nc2ccccc2c(=O)n1-c1ccc(F)cc1 (protonated)
O=C(Oc1c[nH+]cc(/C=C/c2ccncc2)c1)c1nc2ccccc2c(=O)n1-c1ccc(F)cc1 (cis-trans isomerization)
O=C(Oc1c[nH+]cc(/C=C/c2ccncc2)c1)c1nc2ccccc2c(=O)n1-c1ccc(F)cc1 (3D coordinates assigned)
O=C(Oc1c[nH+]cc(/C=C/c2ccncc2)c1)c1nc2ccccc2c(=O)n1-c1ccc(F)cc1 (optimized conformer: 87.75745755128393 kcal/mol)

>  <smiles>  (67) 
O=C(Oc1cncc(C=Cc2ccncc2)c1)c1nc2ccccc2c(=O)n1-c1ccc(F)cc1

>  <score_type>  (67) 
oracle

>  <origin>  (67) 
adg

>  <m_score__min__energy>  (67) 
-7.8099999999999996

>  <m_primary>  (67) 
energy

$$$$
67:0
     RDKit          3D

 61 64  0  0  0  0  0  0  0  0999 V2000
   57.0990   31.1100   43.3150 C   0  0  0  0  0  0  0  0  0  0  0  0
   57.6400   30.6750   44.6230 N   0  0  0  0  0  0  0  0  0  0  0  0
   58.5380   29.5100   44.4110 C   0  0  0  0  0  0  0  0  0  0  0  0
   58.0160   28.3000   45.1440 C   0  0  0  0  0  0  0  0  0  0  0  0
   58.9140   27.4090   45.7570 C   0  0  0  0  0  0  0  0  0  0  0  0
   58.4340   26.2900   46.4440 C   0  0  0  0  0  0  0  0  0  0  0  0
   57.0570   26.0530   46.5260 C   0  0  0  0  0  0  0  0  0  0  0  0
   56.1550   26.9370   45.9200 C   0  0  0  0  0  0  0  0  0  0  0  0
   54.7870   26.7030   46.0060 O   0  0  0  0  0  0  0  0  0  0  0  0
   56.6320   28.0570   45.2300 C   0  0  0  0  0  0  0  0  0  0  0  0
   58.3510   31.7630   45.3620 C   0  0  0  0  0  0  0  0  0  0  0  0
   57.3890   32.7390   46.0960 C   0  0  0  0  0  0  0  0  0  0  0  0
   58.1550   33.7010   47.0100 C   0  0  0  0  0  0  0  0  0  0  0  0
   59.0050   32.9780   47.9660 N   0  0  0  0  0  0  0  0  0  0  0  0
   59.5600   33.7110   49.0810 C   0  0  0  0  0  0  0  0  0  0  0  0
   59.6760   34.9650   49.0040 O   0  0  0  0  0  0  0  0  0  0  0  0
   59.9820   33.0420   50.3620 C   0  0  0  0  0  0  0  0  0  0  0  0
   58.8550   32.2330   50.9280 C   0  0  0  0  0  0  0  0  0  0  0  0
   57.7580   32.7380   51.6210 C   0  0  0  0  0  0  0  0  0  0  0  0
   56.8720   31.8010   52.0510 N   0  0  0  0  0  0  0  0  0  0  0  0
   57.2630   30.5500   51.7210 C   0  0  0  0  0  0  0  0  0  0  0  0
   56.5410   29.5060   52.0030 N   0  0  0  0  0  0  0  0  0  0  0  0
   55.2050   29.5160   52.5240 C   0  0  0  0  0  0  0  0  0  0  0  0
   54.6640   28.4190   52.8330 O   0  0  0  0  0  0  0  0  0  0  0  0
   54.4490   30.7370   52.6040 N   0  0  0  0  0  0  0  0  0  0  0  0
   53.1700   30.8100   53.2480 C   0  0  0  0  0  0  0  0  0  0  0  0
   53.0490   30.3760   54.5750 C   0  0  0  0  0  0  0  0  0  0  0  0
   51.8180   30.4440   55.2340 C   0  0  0  0  0  0  0  0  0  0  0  0
   50.6930   30.9310   54.5630 C   0  0  0  0  0  0  0  0  0  0  0  0
   50.7960   31.3430   53.2310 C   0  0  0  0  0  0  0  0  0  0  0  0
   52.0260   31.2780   52.5650 C   0  0  0  0  0  0  0  0  0  0  0  0
   52.0860   31.7230   50.8630 Cl  0  0  0  0  0  0  0  0  0  0  0  0
   58.7170   30.5560   50.8590 S   0  0  0  0  0  0  0  0  0  0  0  0
   59.1660   31.5250   47.8310 C   0  0  0  0  0  0  0  0  0  0  0  0
   59.3810   31.1440   46.3610 C   0  0  0  0  0  0  0  0  0  0  0  0
   56.2511   31.7917   43.4773 H   0  0  0  0  0  0  0  0  0  0  0  0
   57.8848   31.6306   42.7480 H   0  0  0  0  0  0  0  0  0  0  0  0
   56.7592   30.2308   42.7480 H   0  0  0  0  0  0  0  0  0  0  0  0
   58.5924   29.2860   43.3354 H   0  0  0  0  0  0  0  0  0  0  0  0
   59.5376   29.7565   44.7983 H   0  0  0  0  0  0  0  0  0  0  0  0
   59.9968   27.5926   45.6960 H   0  0  0  0  0  0  0  0  0  0  0  0
   59.1400   25.5944   46.9211 H   0  0  0  0  0  0  0  0  0  0  0  0
   56.6826   25.1714   47.0670 H   0  0  0  0  0  0  0  0  0  0  0  0
   55.9232   28.7499   44.7532 H   0  0  0  0  0  0  0  0  0  0  0  0
   58.8809   32.3669   44.6106 H   0  0  0  0  0  0  0  0  0  0  0  0
   56.8332   33.3232   45.3478 H   0  0  0  0  0  0  0  0  0  0  0  0
   56.7029   32.1450   46.7176 H   0  0  0  0  0  0  0  0  0  0  0  0
   58.7888   34.3529   46.3909 H   0  0  0  0  0  0  0  0  0  0  0  0
   57.4220   34.2912   47.5795 H   0  0  0  0  0  0  0  0  0  0  0  0
   60.8369   32.3800   50.1600 H   0  0  0  0  0  0  0  0  0  0  0  0
   60.2652   33.8158   51.0907 H   0  0  0  0  0  0  0  0  0  0  0  0
   57.6189   33.8133   51.8064 H   0  0  0  0  0  0  0  0  0  0  0  0
   54.7210   31.5220   51.9690 H   0  0  0  0  0  0  0  0  0  0  0  0
   53.9291   29.9789   55.1019 H   0  0  0  0  0  0  0  0  0  0  0  0
   51.7349   30.1144   56.2802 H   0  0  0  0  0  0  0  0  0  0  0  0
   49.7256   30.9902   55.0833 H   0  0  0  0  0  0  0  0  0  0  0  0
   49.9070   31.7198   52.7040 H   0  0  0  0  0  0  0  0  0  0  0  0
   60.0364   31.2007   48.4203 H   0  0  0  0  0  0  0  0  0  0  0  0
   58.2548   31.0299   48.1978 H   0  0  0  0  0  0  0  0  0  0  0  0
   60.3865   31.4779   46.0653 H   0  0  0  0  0  0  0  0  0  0  0  0
   59.2489   30.0535   46.3031 H   0  0  0  0  0  0  0  0  0  0  0  0
  1  2  1  0
  2  3  1  0
  3  4  1  0
  4  5  2  0
  5  6  1  0
  6  7  2  0
  7  8  1  0
  8  9  1  0
  8 10  2  0
  2 11  1  0
 11 12  1  0
 12 13  1  0
 13 14  1  0
 14 15  1  0
 15 16  2  0
 15 17  1  0
 17 18  1  0
 18 19  2  0
 19 20  1  0
 20 21  1  0
 21 22  2  3
 22 23  1  0
 23 24  2  0
 23 25  1  0
 25 26  1  0
 26 27  2  0
 27 28  1  0
 28 29  2  0
 29 30  1  0
 30 31  2  0
 31 32  1  0
 21 33  1  0
 14 34  1  0
 34 35  1  0
 10  4  1  0
 35 11  1  0
 33 18  1  0
 31 26  1  0
  1 36  1  0
  1 37  1  0
  1 38  1  0
  3 39  1  0
  3 40  1  0
  5 41  1  0
  6 42  1  0
  7 43  1  0
 10 44  1  0
 11 45  1  0
 12 46  1  0
 12 47  1  0
 13 48  1  0
 13 49  1  0
 17 50  1  0
 17 51  1  0
 19 52  1  0
 25 53  1  0
 27 54  1  0
 28 55  1  0
 29 56  1  0
 30 57  1  0
 34 58  1  0
 34 59  1  0
 35 60  1  0
 35 61  1  0
M  CHG  2   9  -1  20  -1
M  END
>  <UniqueID>  (68) 
60

>  <SMILES>  (68) 
CN(Cc1cccc([O-])c1)C1CCN(C(=O)Cc2c[n-]c(=NC(=O)Nc3ccccc3Cl)s2)CC1

>  <Energy>  (68) 
113.56742503326348

>  <Genealogy>  (68) 
CN(Cc1cccc([O-])c1)C1CCN(C(=O)Cc2c[n-]c(=NC(=O)Nc3ccccc3Cl)s2)CC1 (protonated)
CN(Cc1cccc([O-])c1)C1CCN(C(=O)Cc2c[n-]c(=NC(=O)Nc3ccccc3Cl)s2)CC1 (3D coordinates assigned)
CN(Cc1cccc([O-])c1)C1CCN(C(=O)Cc2c[n-]c(=NC(=O)Nc3ccccc3Cl)s2)CC1 (nonaromatic ring conformer: 113.56742503326348 kcal/mol)

>  <smiles>  (68) 
CN(Cc1cccc(O)c1)C1CCN(C(=O)Cc2c[nH]c(=NC(=O)Nc3ccccc3Cl)s2)CC1

>  <score_type>  (68) 
oracle

>  <origin>  (68) 
adg

>  <m_score__min__energy>  (68) 
-14.67

>  <m_primary>  (68) 
energy

$$$$
68:0
     RDKit          3D

 46 48  0  0  0  0  0  0  0  0999 V2000
   57.9920   27.9070   43.8270 O   0  0  0  0  0  0  0  0  0  0  0  0
   57.2420   27.7910   44.8350 C   0  0  0  0  0  0  0  0  0  0  0  0
   56.4290   28.8950   45.2390 N   0  0  0  0  0  0  0  0  0  0  0  0
   56.4450   30.1830   44.5600 C   0  0  0  0  0  0  0  0  0  0  0  0
   57.8860   30.6860   44.4010 C   0  0  0  0  0  0  0  0  0  0  0  0
   58.0810   32.0590   44.9990 C   0  0  0  0  0  0  0  0  0  0  0  0
   57.0470   33.0090   44.9490 C   0  0  0  0  0  0  0  0  0  0  0  0
   57.2220   34.2710   45.5210 C   0  0  0  0  0  0  0  0  0  0  0  0
   58.4210   34.5910   46.1600 C   0  0  0  0  0  0  0  0  0  0  0  0
   59.4570   33.6540   46.2340 C   0  0  0  0  0  0  0  0  0  0  0  0
   60.6530   34.0040   46.9430 N   0  0  0  0  0  0  0  0  0  0  0  0
   61.4050   33.0180   48.1540 S   0  0  0  0  0  0  0  0  0  0  0  0
   62.3330   32.0390   47.4900 O   0  0  0  0  0  0  0  0  0  0  0  0
   62.2000   33.8920   49.0810 O   0  0  0  0  0  0  0  0  0  0  0  0
   60.1660   32.1790   49.0860 C   0  0  0  0  0  0  0  0  0  0  0  0
   59.9140   30.8210   48.8420 C   0  0  0  0  0  0  0  0  0  0  0  0
   58.9270   30.1490   49.5690 C   0  0  0  0  0  0  0  0  0  0  0  0
   58.1880   30.8280   50.5430 C   0  0  0  0  0  0  0  0  0  0  0  0
   57.2010   30.1620   51.2570 O   0  0  0  0  0  0  0  0  0  0  0  0
   58.4470   32.1790   50.7990 C   0  0  0  0  0  0  0  0  0  0  0  0
   59.4310   32.8550   50.0710 C   0  0  0  0  0  0  0  0  0  0  0  0
   59.2910   32.3950   45.6300 C   0  0  0  0  0  0  0  0  0  0  0  0
   57.2120   26.5140   45.5930 C   0  0  0  0  0  0  0  0  0  0  0  0
   58.4110   25.8040   45.8000 C   0  0  0  0  0  0  0  0  0  0  0  0
   58.4160   24.6120   46.5270 C   0  0  0  0  0  0  0  0  0  0  0  0
   57.2260   24.1080   47.0620 C   0  0  0  0  0  0  0  0  0  0  0  0
   57.2200   22.9190   47.7890 O   0  0  0  0  0  0  0  0  0  0  0  0
   56.0310   24.8040   46.8680 C   0  0  0  0  0  0  0  0  0  0  0  0
   56.0150   26.0010   46.1430 C   0  0  0  0  0  0  0  0  0  0  0  0
   54.8060   26.6740   46.0000 O   0  0  0  0  0  0  0  0  0  0  0  0
   55.9873   30.0743   43.5657 H   0  0  0  0  0  0  0  0  0  0  0  0
   55.8775   30.9097   45.1599 H   0  0  0  0  0  0  0  0  0  0  0  0
   58.5646   29.9812   44.9037 H   0  0  0  0  0  0  0  0  0  0  0  0
   58.1032   30.7528   43.3247 H   0  0  0  0  0  0  0  0  0  0  0  0
   56.0957   32.7577   44.4573 H   0  0  0  0  0  0  0  0  0  0  0  0
   56.4131   35.0145   45.4678 H   0  0  0  0  0  0  0  0  0  0  0  0
   58.5521   35.5868   46.6085 H   0  0  0  0  0  0  0  0  0  0  0  0
   60.4940   30.2838   48.0772 H   0  0  0  0  0  0  0  0  0  0  0  0
   58.7313   29.0842   49.3746 H   0  0  0  0  0  0  0  0  0  0  0  0
   57.8755   32.7103   51.5743 H   0  0  0  0  0  0  0  0  0  0  0  0
   59.6290   33.9184   50.2710 H   0  0  0  0  0  0  0  0  0  0  0  0
   60.1153   31.6669   45.6516 H   0  0  0  0  0  0  0  0  0  0  0  0
   59.3526   26.1926   45.3848 H   0  0  0  0  0  0  0  0  0  0  0  0
   59.3594   24.0672   46.6796 H   0  0  0  0  0  0  0  0  0  0  0  0
   57.7680   22.1190   47.4980 H   0  0  0  0  0  0  0  0  0  0  0  0
   55.0947   24.4082   47.2884 H   0  0  0  0  0  0  0  0  0  0  0  0
  1  2  2  0
  2  3  1  0
  3  4  1  0
  4  5  1  0
  5  6  1  0
  6  7  2  0
  7  8  1  0
  8  9  2  0
  9 10  1  0
 10 11  1  0
 11 12  1  0
 12 13  2  0
 12 14  2  0
 12 15  1  0
 15 16  2  0
 16 17  1  0
 17 18  2  0
 18 19  1  0
 18 20  1  0
 20 21  2  0
 10 22  2  0
  2 23  1  0
 23 24  2  0
 24 25  1  0
 25 26  2  0
 26 27  1  0
 26 28  1  0
 28 29  2  0
 29 30  1  0
 22  6  1  0
 29 23  1  0
 21 15  1  0
  4 31  1  0
  4 32  1  0
  5 33  1  0
  5 34  1  0
  7 35  1  0
  8 36  1  0
  9 37  1  0
 16 38  1  0
 17 39  1  0
 20 40  1  0
 21 41  1  0
 22 42  1  0
 24 43  1  0
 25 44  1  0
 27 45  1  0
 28 46  1  0
M  CHG  4   3  -1  11  -1  19  -1  30  -1
M  END
>  <UniqueID>  (69) 
61

>  <SMILES>  (69) 
O=C([N-]CCc1cccc([N-]S(=O)(=O)c2ccc([O-])cc2)c1)c1ccc(O)cc1[O-]

>  <Energy>  (69) 
45.28426804262392

>  <Genealogy>  (69) 
O=C([N-]CCc1cccc([N-]S(=O)(=O)c2ccc([O-])cc2)c1)c1ccc(O)cc1[O-] (protonated)
O=C([N-]CCc1cccc([N-]S(=O)(=O)c2ccc([O-])cc2)c1)c1ccc(O)cc1[O-] (3D coordinates assigned)
O=C([N-]CCc1cccc([N-]S(=O)(=O)c2ccc([O-])cc2)c1)c1ccc(O)cc1[O-] (optimized conformer: 45.28426804262392 kcal/mol)

>  <smiles>  (69) 
O=C(NCCc1cccc(NS(=O)(=O)c2ccc(O)cc2)c1)c1ccc(O)cc1O

>  <score_type>  (69) 
oracle

>  <origin>  (69) 
adg

>  <m_score__min__energy>  (69) 
-17.289999999999999

>  <m_primary>  (69) 
energy

$$$$
69:0
     RDKit          3D

 52 55  0  0  0  0  0  0  0  0999 V2000
   56.4657   32.0287   42.9383 H   0  0  0  0  0  0  0  0  0  0  0  0
   56.6970   31.2070   43.6320 C   0  0  0  0  0  0  0  0  0  0  0  0
   56.2570   29.5940   43.4330 S   0  0  0  0  0  0  0  0  0  0  0  0
   56.9770   29.1160   44.8690 C   0  0  0  0  0  0  0  0  0  0  0  0
   56.9600   27.8890   45.3020 N   0  0  0  0  0  0  0  0  0  0  0  0
   57.9060   26.8350   45.0500 C   0  0  0  0  0  0  0  0  0  0  0  0
   58.0200   26.4070   43.8710 O   0  0  0  0  0  0  0  0  0  0  0  0
   58.7480   26.1950   46.1260 C   0  0  0  0  0  0  0  0  0  0  0  0
   58.0927   25.8745   46.9493 H   0  0  0  0  0  0  0  0  0  0  0  0
   59.2740   25.3347   45.6864 H   0  0  0  0  0  0  0  0  0  0  0  0
   59.7590   27.1360   46.6550 N   0  0  0  0  0  0  0  0  0  0  0  0
   60.0470   28.2270   45.6920 C   0  0  0  0  0  0  0  0  0  0  0  0
   60.7487   27.8578   44.9296 H   0  0  0  0  0  0  0  0  0  0  0  0
   59.1015   28.5414   45.2259 H   0  0  0  0  0  0  0  0  0  0  0  0
   60.6680   29.4370   46.4010 C   0  0  0  0  0  0  0  0  0  0  0  0
   61.5753   29.1126   46.9317 H   0  0  0  0  0  0  0  0  0  0  0  0
   60.9068   30.1953   45.6408 H   0  0  0  0  0  0  0  0  0  0  0  0
   59.7260   30.0420   47.3810 N   0  0  0  0  0  0  0  0  0  0  0  0
   59.1390   30.7430   46.8680 H   0  0  0  0  0  0  0  0  0  0  0  0
   60.4550   30.7680   48.4510 C   0  0  0  0  0  0  0  0  0  0  0  0
   59.7323   31.3516   49.0401 H   0  0  0  0  0  0  0  0  0  0  0  0
   60.9696   30.0238   49.0766 H   0  0  0  0  0  0  0  0  0  0  0  0
   61.4980   31.7070   47.8890 C   0  0  0  0  0  0  0  0  0  0  0  0
   62.8150   31.6700   48.3760 C   0  0  0  0  0  0  0  0  0  0  0  0
   63.0918   30.9401   49.1510 H   0  0  0  0  0  0  0  0  0  0  0  0
   63.7760   32.5570   47.8800 C   0  0  0  0  0  0  0  0  0  0  0  0
   64.8064   32.5215   48.2634 H   0  0  0  0  0  0  0  0  0  0  0  0
   63.4280   33.4890   46.8970 C   0  0  0  0  0  0  0  0  0  0  0  0
   64.1840   34.1867   46.5076 H   0  0  0  0  0  0  0  0  0  0  0  0
   62.1190   33.5330   46.4100 C   0  0  0  0  0  0  0  0  0  0  0  0
   61.8458   34.2665   45.6371 H   0  0  0  0  0  0  0  0  0  0  0  0
   61.1560   32.6480   46.9020 C   0  0  0  0  0  0  0  0  0  0  0  0
   60.1268   32.6877   46.5157 H   0  0  0  0  0  0  0  0  0  0  0  0
   58.7870   29.0450   47.9680 C   0  0  0  0  0  0  0  0  0  0  0  0
   58.5408   29.3526   48.9950 H   0  0  0  0  0  0  0  0  0  0  0  0
   57.8895   29.0127   47.3328 H   0  0  0  0  0  0  0  0  0  0  0  0
   59.3890   27.6290   48.0060 C   0  0  0  0  0  0  0  0  0  0  0  0
   60.2908   27.6451   48.6356 H   0  0  0  0  0  0  0  0  0  0  0  0
   58.6255   26.9502   48.4138 H   0  0  0  0  0  0  0  0  0  0  0  0
   57.5610   30.1500   45.5070 N   0  0  0  0  0  0  0  0  0  0  0  0
   57.4070   31.3220   44.8310 C   0  0  0  0  0  0  0  0  0  0  0  0
   57.9640   32.5940   45.3570 C   0  0  0  0  0  0  0  0  0  0  0  0
   58.6220   33.4830   44.4850 C   0  0  0  0  0  0  0  0  0  0  0  0
   58.7137   33.2326   43.4178 H   0  0  0  0  0  0  0  0  0  0  0  0
   59.1600   34.6820   44.9650 C   0  0  0  0  0  0  0  0  0  0  0  0
   59.6716   35.3691   44.2750 H   0  0  0  0  0  0  0  0  0  0  0  0
   59.0490   35.0080   46.3170 C   0  0  0  0  0  0  0  0  0  0  0  0
   59.4700   35.9525   46.6922 H   0  0  0  0  0  0  0  0  0  0  0  0
   58.4030   34.1340   47.1930 C   0  0  0  0  0  0  0  0  0  0  0  0
   58.3175   34.3907   48.2592 H   0  0  0  0  0  0  0  0  0  0  0  0
   57.8640   32.9330   46.7200 C   0  0  0  0  0  0  0  0  0  0  0  0
   57.3586   32.2488   47.4175 H   0  0  0  0  0  0  0  0  0  0  0  0
  1  2  1  0
  2  3  1  0
  3  4  1  0
  4  5  2  0
  5  6  1  0
  6  7  2  0
  6  8  1  0
  8  9  1  0
  8 10  1  0
  8 11  1  0
 11 12  1  0
 12 13  1  0
 12 14  1  0
 12 15  1  0
 15 16  1  0
 15 17  1  0
 15 18  1  0
 18 19  1  0
 18 20  1  0
 20 21  1  0
 20 22  1  0
 20 23  1  0
 23 24  2  0
 24 25  1  0
 24 26  1  0
 26 27  1  0
 26 28  2  0
 28 29  1  0
 28 30  1  0
 30 31  1  0
 30 32  2  0
 32 33  1  0
 18 34  1  0
 34 35  1  0
 34 36  1  0
 34 37  1  0
 37 38  1  0
 37 39  1  0
  4 40  1  0
 40 41  1  0
 41 42  1  0
 42 43  2  0
 43 44  1  0
 43 45  1  0
 45 46  1  0
 45 47  2  0
 47 48  1  0
 47 49  1  0
 49 50  1  0
 49 51  2  0
 51 52  1  0
 41  2  2  0
 51 42  1  0
 37 11  1  0
 32 23  1  0
M  CHG  2  18   1  40  -1
M  END
>  <UniqueID>  (70) 
62

>  <SMILES>  (70) 
O=C(CN1CC[NH+](Cc2ccccc2)CC1)/N=c1\[n-]c(-c2ccccc2)cs1

>  <Energy>  (70) 
102.99631852170546

>  <Genealogy>  (70) 
O=C(CN1CC[NH+](Cc2ccccc2)CC1)N=c1[n-]c(-c2ccccc2)cs1 (protonated)
O=C(CN1CC[NH+](Cc2ccccc2)CC1)/N=c1\[n-]c(-c2ccccc2)cs1 (cis-trans isomerization)
O=C(CN1CC[NH+](Cc2ccccc2)CC1)/N=c1\[n-]c(-c2ccccc2)cs1 (3D coordinates assigned)
O=C(CN1CC[NH+](Cc2ccccc2)CC1)/N=c1\[n-]c(-c2ccccc2)cs1 (nonaromatic ring conformer: 102.99631852170546 kcal/mol)

>  <smiles>  (70) 
O=C(CN1CCN(Cc2ccccc2)CC1)N=c1[nH]c(-c2ccccc2)cs1

>  <score_type>  (70) 
oracle

>  <origin>  (70) 
adg

>  <m_score__min__energy>  (70) 
-10.07

>  <m_primary>  (70) 
energy

$$$$
70:0
     RDKit          3D

 64 69  0  0  1  0  0  0  0  0999 V2000
   53.0520   31.9720   51.1840 N   0  0  0  0  0  0  0  0  0  0  0  0
   52.4750   30.3800   51.5240 S   0  0  0  0  0  0  0  0  0  0  0  0
   51.1370   30.5110   52.2080 O   0  0  0  0  0  0  0  0  0  0  0  0
   52.2550   29.6720   50.2380 O   0  0  0  0  0  0  0  0  0  0  0  0
   53.6180   29.5770   52.5790 C   0  0  0  0  0  0  0  0  0  0  0  0
   53.3590   28.3090   53.0670 C   0  0  0  0  0  0  0  0  0  0  0  0
   54.2570   27.6480   53.9110 C   0  0  0  0  0  0  0  0  0  0  0  0
   55.4090   28.3300   54.2240 C   0  0  0  0  0  0  0  0  0  0  0  0
   55.6860   29.6000   53.7450 C   0  0  0  0  0  0  0  0  0  0  0  0
   57.1840   30.3800   54.2060 S   0  0  0  0  0  0  0  0  0  0  0  0
   57.9480   29.3840   55.0480 O   0  0  0  0  0  0  0  0  0  0  0  0
   56.8990   31.5740   55.0630 O   0  0  0  0  0  0  0  0  0  0  0  0
   58.1190   30.8210   52.8400 N   0  0  0  0  0  0  0  0  0  0  0  0
   57.5970   30.2980   51.6000 C   0  0  0  0  0  0  0  0  0  0  0  0
   58.1040   31.0120   50.3890 C   0  0  0  0  0  0  0  0  0  0  0  0
   59.1340   31.9930   50.6480 N   0  0  0  0  0  0  0  0  0  0  0  0
   59.9820   32.3480   49.5580 C   0  0  0  0  0  0  0  0  0  0  0  0
   59.5570   32.3640   48.2480 C   0  0  0  0  0  0  0  0  0  0  0  0
   60.3600   32.7080   47.1820 C   0  0  0  0  0  0  0  0  0  0  0  0
   59.9120   32.6970   45.9900 N   0  0  0  0  0  0  0  0  0  0  0  0
   59.2690   33.8690   45.3730 C   0  0  0  0  0  0  0  0  0  0  0  0
   59.6450   35.1710   46.0810 C   0  0  0  0  0  0  0  0  0  0  0  0
   58.2840   34.5510   46.2400 C   0  0  0  0  0  0  0  0  0  0  0  0
   61.6340   33.0510   47.4380 N   0  0  0  0  0  0  0  0  0  0  0  0
   62.6120   33.4190   46.6260 N   0  0  0  0  0  0  0  0  0  0  0  0
   63.7330   33.6690   47.3400 C   0  0  0  0  0  0  0  0  0  0  0  0
   63.3870   33.4300   48.6470 C   0  0  0  0  0  0  0  0  0  0  0  0
   64.2350   33.5710   49.6480 C   0  0  0  0  0  0  0  0  0  0  0  0
   64.9210   32.4360   50.2570 C   0  0  0  0  0  0  0  0  0  0  0  0
   66.1470   31.9520   50.0500 N   0  0  0  0  0  0  0  0  0  0  0  0
   66.3520   30.8730   50.8550 C   0  0  0  0  0  0  0  0  0  0  0  0
   67.4000   30.1600   50.9310 O   0  0  0  0  0  0  0  0  0  0  0  0
   65.2320   30.6610   51.5950 N   0  0  0  0  0  0  0  0  0  0  0  0
   64.3470   31.6310   51.2230 C   0  0  0  0  0  0  0  0  0  0  0  0
   63.0560   31.7420   51.7750 O   0  0  0  0  0  0  0  0  0  0  0  0
   62.0710   33.0410   48.7190 C   0  0  0  0  0  0  0  0  0  0  0  0
   61.2880   32.7050   49.7570 N   0  0  0  0  0  0  0  0  0  0  0  0
   59.3650   32.6280   51.9110 C   0  0  0  0  0  0  0  0  0  0  0  0
   58.2130   32.2670   52.8250 C   0  0  0  0  0  0  0  0  0  0  0  0
   54.7730   30.1600   52.9450 N   0  0  0  0  0  0  0  0  0  0  0  0
   54.0110   32.1380   51.5530 H   0  0  0  0  0  0  0  0  0  0  0  0
   52.9900   32.1630   50.1590 H   0  0  0  0  0  0  0  0  0  0  0  0
   52.4220   27.8073   52.7838 H   0  0  0  0  0  0  0  0  0  0  0  0
   54.0533   26.6402   54.3020 H   0  0  0  0  0  0  0  0  0  0  0  0
   56.1435   27.8456   54.8842 H   0  0  0  0  0  0  0  0  0  0  0  0
   57.8806   29.2380   51.5229 H   0  0  0  0  0  0  0  0  0  0  0  0
   56.5063   30.4386   51.6243 H   0  0  0  0  0  0  0  0  0  0  0  0
   58.5129   30.2619   49.6961 H   0  0  0  0  0  0  0  0  0  0  0  0
   57.2477   31.5651   49.9757 H   0  0  0  0  0  0  0  0  0  0  0  0
   58.5134   32.0853   48.0400 H   0  0  0  0  0  0  0  0  0  0  0  0
   59.2573   33.5039   44.3354 H   0  0  0  0  0  0  0  0  0  0  0  0
   60.3599   35.1611   46.9170 H   0  0  0  0  0  0  0  0  0  0  0  0
   60.0315   36.1529   45.7704 H   0  0  0  0  0  0  0  0  0  0  0  0
   57.9994   34.0996   47.2019 H   0  0  0  0  0  0  0  0  0  0  0  0
   57.2546   34.9113   46.0969 H   0  0  0  0  0  0  0  0  0  0  0  0
   64.7114   33.9939   46.9562 H   0  0  0  0  0  0  0  0  0  0  0  0
   64.4320   34.5807   50.0376 H   0  0  0  0  0  0  0  0  0  0  0  0
   66.8300   32.3590   49.3660 H   0  0  0  0  0  0  0  0  0  0  0  0
   65.0520   29.9170   52.3110 H   0  0  0  0  0  0  0  0  0  0  0  0
   62.2480   31.9010   51.1870 H   0  0  0  0  0  0  0  0  0  0  0  0
   60.3117   32.2708   52.3424 H   0  0  0  0  0  0  0  0  0  0  0  0
   59.4316   33.7190   51.7874 H   0  0  0  0  0  0  0  0  0  0  0  0
   58.4048   32.6434   53.8407 H   0  0  0  0  0  0  0  0  0  0  0  0
   57.2745   32.7170   52.4690 H   0  0  0  0  0  0  0  0  0  0  0  0
  1  2  1  0
  2  3  2  0
  2  4  2  0
  2  5  1  0
  5  6  2  0
  6  7  1  0
  7  8  2  0
  8  9  1  0
  9 10  1  0
 10 11  2  0
 10 12  2  0
 10 13  1  0
 13 14  1  0
 14 15  1  0
 15 16  1  0
 16 17  1  0
 17 18  2  0
 18 19  1  0
 19 20  2  0
 20 21  1  0
 21 22  1  0
 22 23  1  0
 19 24  1  0
 24 25  1  0
 25 26  2  0
 26 27  1  0
 27 28  2  0
 28 29  1  0
 29 30  1  0
 30 31  1  0
 31 32  2  0
 31 33  1  0
 33 34  1  0
 34 35  1  0
 27 36  1  0
 36 37  2  0
 16 38  1  0
 38 39  1  0
  9 40  2  0
 40  5  1  0
 39 13  1  0
 37 17  1  0
 23 21  1  0
 36 24  1  0
 34 29  2  0
  1 41  1  0
  1 42  1  0
  6 43  1  0
  7 44  1  0
  8 45  1  0
 14 46  1  0
 14 47  1  0
 15 48  1  0
 15 49  1  0
 18 50  1  0
 21 51  1  0
 22 52  1  0
 22 53  1  0
 23 54  1  0
 23 55  1  0
 26 56  1  0
 28 57  1  0
 30 58  1  0
 33 59  1  0
 35 60  1  0
 38 61  1  0
 38 62  1  0
 39 63  1  0
 39 64  1  0
M  END
>  <smiles>  (71) 
NS(=O)(=O)c1cccc(S(=O)(=O)N2CCN(c3cc(=NC4CC4)n4ncc(=Cc5[nH]c(=O)[nH]c5O)c4n3)CC2)n1

>  <score_type>  (71) 
oracle

>  <origin>  (71) 
adg

>  <m_score__min__energy>  (71) 
-10.85

>  <m_primary>  (71) 
energy

$$$$
71:0
     RDKit          3D

 56 59  0  0  0  0  0  0  0  0999 V2000
   57.8130   26.2640   46.6680 C   0  0  0  0  0  0  0  0  0  0  0  0
   57.8240   27.6970   47.1860 C   0  0  0  0  0  0  0  0  0  0  0  0
   58.8890   27.8700   48.2210 C   0  0  0  0  0  0  0  0  0  0  0  0
   59.9210   26.9870   48.4740 C   0  0  0  0  0  0  0  0  0  0  0  0
   60.6750   27.5690   49.4700 C   0  0  0  0  0  0  0  0  0  0  0  0
   60.0600   28.7740   49.7500 C   0  0  0  0  0  0  0  0  0  0  0  0
   60.5230   29.7770   50.7610 C   0  0  0  0  0  0  0  0  0  0  0  0
   61.1300   30.9430   50.0890 N   0  0  0  0  0  0  0  0  0  0  0  0
   62.5390   30.7530   49.6680 C   0  0  0  0  0  0  0  0  0  0  0  0
   63.3620   32.0550   49.4810 C   0  0  0  0  0  0  0  0  0  0  0  0
   62.9350   32.9410   48.3400 C   0  0  0  0  0  0  0  0  0  0  0  0
   63.7400   33.2600   47.3110 N   0  0  0  0  0  0  0  0  0  0  0  0
   63.0040   33.8350   46.3730 N   0  0  0  0  0  0  0  0  0  0  0  0
   61.7480   33.8980   46.8600 C   0  0  0  0  0  0  0  0  0  0  0  0
   60.5710   34.2290   45.9980 C   0  0  0  0  0  0  0  0  0  0  0  0
   59.5230   33.2400   46.2410 N   0  0  0  0  0  0  0  0  0  0  0  0
   58.2560   33.1470   45.5780 C   0  0  0  0  0  0  0  0  0  0  0  0
   57.7100   34.2120   45.1830 O   0  0  0  0  0  0  0  0  0  0  0  0
   57.5610   31.8230   45.3750 C   0  0  0  0  0  0  0  0  0  0  0  0
   58.5380   30.6790   45.2690 C   0  0  0  0  0  0  0  0  0  0  0  0
   59.6470   30.6090   46.1280 C   0  0  0  0  0  0  0  0  0  0  0  0
   60.5350   29.5320   46.0440 C   0  0  0  0  0  0  0  0  0  0  0  0
   60.3180   28.5160   45.1090 C   0  0  0  0  0  0  0  0  0  0  0  0
   59.2110   28.5730   44.2600 C   0  0  0  0  0  0  0  0  0  0  0  0
   58.3170   29.6460   44.3430 C   0  0  0  0  0  0  0  0  0  0  0  0
   61.6770   33.3610   48.1020 N   0  0  0  0  0  0  0  0  0  0  0  0
   60.5060   33.1210   48.9380 C   0  0  0  0  0  0  0  0  0  0  0  0
   60.2520   31.6160   49.0970 C   0  0  0  0  0  0  0  0  0  0  0  0
   58.9960   28.9260   48.9950 O   0  0  0  0  0  0  0  0  0  0  0  0
   57.8076   25.5666   47.5187 H   0  0  0  0  0  0  0  0  0  0  0  0
   56.9136   26.1023   46.0557 H   0  0  0  0  0  0  0  0  0  0  0  0
   58.7098   26.0886   46.0557 H   0  0  0  0  0  0  0  0  0  0  0  0
   58.0178   28.3834   46.3486 H   0  0  0  0  0  0  0  0  0  0  0  0
   56.8468   27.9195   47.6395 H   0  0  0  0  0  0  0  0  0  0  0  0
   60.1031   26.0200   47.9824 H   0  0  0  0  0  0  0  0  0  0  0  0
   61.5791   27.1591   49.9438 H   0  0  0  0  0  0  0  0  0  0  0  0
   59.6631   30.1111   51.3601 H   0  0  0  0  0  0  0  0  0  0  0  0
   61.2766   29.3073   51.4102 H   0  0  0  0  0  0  0  0  0  0  0  0
   63.0414   30.1414   50.4319 H   0  0  0  0  0  0  0  0  0  0  0  0
   62.4964   30.2778   48.6768 H   0  0  0  0  0  0  0  0  0  0  0  0
   63.2849   32.6396   50.4096 H   0  0  0  0  0  0  0  0  0  0  0  0
   64.3852   31.7304   49.2411 H   0  0  0  0  0  0  0  0  0  0  0  0
   64.7520   33.0270   47.2100 H   0  0  0  0  0  0  0  0  0  0  0  0
   60.1985   35.2331   46.2489 H   0  0  0  0  0  0  0  0  0  0  0  0
   60.8648   34.2129   44.9381 H   0  0  0  0  0  0  0  0  0  0  0  0
   56.8914   31.6395   46.2282 H   0  0  0  0  0  0  0  0  0  0  0  0
   56.9993   31.8769   44.4308 H   0  0  0  0  0  0  0  0  0  0  0  0
   59.8176   31.4038   46.8691 H   0  0  0  0  0  0  0  0  0  0  0  0
   61.4055   29.4843   46.7147 H   0  0  0  0  0  0  0  0  0  0  0  0
   61.0195   27.6713   45.0420 H   0  0  0  0  0  0  0  0  0  0  0  0
   59.0414   27.7728   43.5245 H   0  0  0  0  0  0  0  0  0  0  0  0
   57.4388   29.6808   43.6815 H   0  0  0  0  0  0  0  0  0  0  0  0
   60.6734   33.5657   49.9301 H   0  0  0  0  0  0  0  0  0  0  0  0
   59.6287   33.5788   48.4575 H   0  0  0  0  0  0  0  0  0  0  0  0
   59.2075   31.4755   49.4120 H   0  0  0  0  0  0  0  0  0  0  0  0
   60.4735   31.1573   48.1221 H   0  0  0  0  0  0  0  0  0  0  0  0
  1  2  1  0
  2  3  1  0
  3  4  2  0
  4  5  1  0
  5  6  2  0
  6  7  1  0
  7  8  1  0
  8  9  1  0
  9 10  1  0
 10 11  1  0
 11 12  2  0
 12 13  1  0
 13 14  2  0
 14 15  1  0
 15 16  1  0
 16 17  1  0
 17 18  2  0
 17 19  1  0
 19 20  1  0
 20 21  2  0
 21 22  1  0
 22 23  2  0
 23 24  1  0
 24 25  2  0
 14 26  1  0
 26 27  1  0
 27 28  1  0
  6 29  1  0
 29  3  1  0
 28  8  1  0
 26 11  1  0
 25 20  1  0
  1 30  1  0
  1 31  1  0
  1 32  1  0
  2 33  1  0
  2 34  1  0
  4 35  1  0
  5 36  1  0
  7 37  1  0
  7 38  1  0
  9 39  1  0
  9 40  1  0
 10 41  1  0
 10 42  1  0
 12 43  1  0
 15 44  1  0
 15 45  1  0
 19 46  1  0
 19 47  1  0
 21 48  1  0
 22 49  1  0
 23 50  1  0
 24 51  1  0
 25 52  1  0
 27 53  1  0
 27 54  1  0
 28 55  1  0
 28 56  1  0
M  CHG  2  12   1  16  -1
M  END
>  <UniqueID>  (72) 
63

>  <SMILES>  (72) 
CCc1ccc(CN2CCc3[nH+]nc(C[N-]C(=O)Cc4ccccc4)n3CC2)o1

>  <Energy>  (72) 
125.58852336690914

>  <Genealogy>  (72) 
CCc1ccc(CN2CCc3[nH+]nc(C[N-]C(=O)Cc4ccccc4)n3CC2)o1 (protonated)
CCc1ccc(CN2CCc3[nH+]nc(C[N-]C(=O)Cc4ccccc4)n3CC2)o1 (3D coordinates assigned)
CCc1ccc(CN2CCc3[nH+]nc(C[N-]C(=O)Cc4ccccc4)n3CC2)o1 (nonaromatic ring conformer: 125.58852336690914 kcal/mol)

>  <smiles>  (72) 
CCc1ccc(CN2CCc3nnc(CNC(=O)Cc4ccccc4)n3CC2)o1

>  <score_type>  (72) 
oracle

>  <origin>  (72) 
adg

>  <m_score__min__energy>  (72) 
-6.9900000000000002

>  <m_primary>  (72) 
energy

$$$$
72:0
     RDKit          3D

 45 48  0  0  1  0  0  0  0  0999 V2000
   59.2730   33.0870   49.9720 C   0  0  0  0  0  0  0  0  0  0  0  0
   59.9150   34.0230   49.1380 O   0  0  0  0  0  0  0  0  0  0  0  0
   61.1920   33.7600   48.6730 C   0  0  0  0  0  0  0  0  0  0  0  0
   62.3050   33.7260   49.4890 C   0  0  0  0  0  0  0  0  0  0  0  0
   63.5470   33.4570   48.9570 C   0  0  0  0  0  0  0  0  0  0  0  0
   63.7460   33.2130   47.6190 C   0  0  0  0  0  0  0  0  0  0  0  0
   62.6120   33.2500   46.8040 C   0  0  0  0  0  0  0  0  0  0  0  0
   61.3600   33.5160   47.3080 C   0  0  0  0  0  0  0  0  0  0  0  0
   60.1890   33.5500   46.4400 C   0  0  0  0  0  0  0  0  0  0  0  0
   59.8200   34.7900   45.9440 C   0  0  0  0  0  0  0  0  0  0  0  0
   58.7340   34.9630   45.1120 C   0  0  0  0  0  0  0  0  0  0  0  0
   58.0110   33.8330   44.7860 C   0  0  0  0  0  0  0  0  0  0  0  0
   58.3750   32.5950   45.2790 C   0  0  0  0  0  0  0  0  0  0  0  0
   57.6150   31.5020   44.9170 C   0  0  0  0  0  0  0  0  0  0  0  0
   57.9620   30.2560   45.3990 C   0  0  0  0  0  0  0  0  0  0  0  0
   56.9620   28.9050   44.9090 S   0  0  0  0  0  0  0  0  0  0  0  0
   57.4070   28.4330   43.5540 O   0  0  0  0  0  0  0  0  0  0  0  0
   55.5100   29.3620   44.8770 O   0  0  0  0  0  0  0  0  0  0  0  0
   57.1170   27.5950   46.0510 N   0  0  0  0  0  0  0  0  0  0  0  0
   56.7510   26.4220   45.6560 C   0  0  0  0  0  0  0  0  0  0  0  0
   57.5600   25.5790   44.9230 C   0  0  0  0  0  0  0  0  0  0  0  0
   57.0830   24.3400   44.5460 C   0  0  0  0  0  0  0  0  0  0  0  0
   55.8330   23.9680   44.8970 N   0  0  0  0  0  0  0  0  0  0  0  0
   55.0620   24.8110   45.6160 C   0  0  0  0  0  0  0  0  0  0  0  0
   55.4920   26.0330   46.0060 N   0  0  0  0  0  0  0  0  0  0  0  0
   59.0550   30.1150   46.2300 C   0  0  0  0  0  0  0  0  0  0  0  0
   59.8390   31.1990   46.6100 C   0  0  0  0  0  0  0  0  0  0  0  0
   59.4630   32.4260   46.1100 C   0  0  0  0  0  0  0  0  0  0  0  0
   59.4532   33.3498   51.0248 H   0  0  0  0  0  0  0  0  0  0  0  0
   58.1915   33.0981   49.7712 H   0  0  0  0  0  0  0  0  0  0  0  0
   59.6729   32.0821   49.7712 H   0  0  0  0  0  0  0  0  0  0  0  0
   62.1998   33.9143   50.5676 H   0  0  0  0  0  0  0  0  0  0  0  0
   64.4159   33.4366   49.6313 H   0  0  0  0  0  0  0  0  0  0  0  0
   64.7453   32.9999   47.2116 H   0  0  0  0  0  0  0  0  0  0  0  0
   62.7237   33.0606   45.7262 H   0  0  0  0  0  0  0  0  0  0  0  0
   60.4165   35.6706   46.2248 H   0  0  0  0  0  0  0  0  0  0  0  0
   58.4567   35.9551   44.7261 H   0  0  0  0  0  0  0  0  0  0  0  0
   57.1351   33.9194   44.1262 H   0  0  0  0  0  0  0  0  0  0  0  0
   56.7454   31.6217   44.2541 H   0  0  0  0  0  0  0  0  0  0  0  0
   58.5764   25.8914   44.6414 H   0  0  0  0  0  0  0  0  0  0  0  0
   57.7185   23.6581   43.9619 H   0  0  0  0  0  0  0  0  0  0  0  0
   55.4600   23.0330   44.6190 H   0  0  0  0  0  0  0  0  0  0  0  0
   54.0467   24.4927   45.8951 H   0  0  0  0  0  0  0  0  0  0  0  0
   59.3142   29.1134   46.6036 H   0  0  0  0  0  0  0  0  0  0  0  0
   60.7097   31.0830   47.2721 H   0  0  0  0  0  0  0  0  0  0  0  0
  1  2  1  0
  2  3  1  0
  3  4  2  0
  4  5  1  0
  5  6  2  0
  6  7  1  0
  7  8  2  0
  8  9  1  0
  9 10  2  0
 10 11  1  0
 11 12  2  0
 12 13  1  0
 13 14  2  0
 14 15  1  0
 15 16  1  0
 16 17  2  0
 16 18  2  0
 16 19  1  0
 19 20  2  0
 20 21  1  0
 21 22  2  0
 22 23  1  0
 23 24  1  0
 24 25  2  0
 15 26  2  0
 26 27  1  0
 27 28  2  0
  8  3  1  0
 28  9  1  0
 28 13  1  0
 25 20  1  0
  1 29  1  0
  1 30  1  0
  1 31  1  0
  4 32  1  0
  5 33  1  0
  6 34  1  0
  7 35  1  0
 10 36  1  0
 11 37  1  0
 12 38  1  0
 14 39  1  0
 21 40  1  0
 22 41  1  0
 23 42  1  0
 24 43  1  0
 26 44  1  0
 27 45  1  0
M  END
>  <smiles>  (73) 
COc1ccccc1-c1cccc2cc(S(=O)(=O)N=c3cc[nH]cn3)ccc12

>  <score_type>  (73) 
oracle

>  <origin>  (73) 
adg

>  <m_score__min__energy>  (73) 
-9.7599999999999998

>  <m_primary>  (73) 
energy

$$$$
73:0
     RDKit          3D

 61 64  0  0  0  0  0  0  0  0999 V2000
   60.1490   26.3200   48.6720 O   0  0  0  0  0  0  0  0  0  0  0  0
   59.7240   26.4920   47.4980 C   0  0  0  0  0  0  0  0  0  0  0  0
   59.6430   25.3200   46.6010 C   0  0  0  0  0  0  0  0  0  0  0  0
   58.5340   24.5850   46.3760 C   0  0  0  0  0  0  0  0  0  0  0  0
   57.9520   24.3720   45.0000 C   0  0  0  0  0  0  0  0  0  0  0  0
   56.5420   23.7730   45.0840 C   0  0  0  0  0  0  0  0  0  0  0  0
   55.7130   24.4870   46.0770 N   0  0  0  0  0  0  0  0  0  0  0  0
   55.3590   25.8580   45.6280 C   0  0  0  0  0  0  0  0  0  0  0  0
   56.3510   26.8890   46.1850 C   0  0  0  0  0  0  0  0  0  0  0  0
   56.7640   27.8390   45.1530 N   0  0  0  0  0  0  0  0  0  0  0  0
   56.1260   28.9560   44.7690 C   0  0  0  0  0  0  0  0  0  0  0  0
   54.8750   29.3490   45.2320 O   0  0  0  0  0  0  0  0  0  0  0  0
   56.9320   29.6600   43.9020 C   0  0  0  0  0  0  0  0  0  0  0  0
   56.6920   31.0530   43.4140 C   0  0  0  0  0  0  0  0  0  0  0  0
   57.4650   32.0220   44.2690 C   0  0  0  0  0  0  0  0  0  0  0  0
   58.1820   33.0770   43.6800 C   0  0  0  0  0  0  0  0  0  0  0  0
   58.8280   34.0250   44.4820 C   0  0  0  0  0  0  0  0  0  0  0  0
   58.7580   33.9280   45.8740 C   0  0  0  0  0  0  0  0  0  0  0  0
   59.3780   34.8510   46.6500 F   0  0  0  0  0  0  0  0  0  0  0  0
   58.0430   32.8830   46.4690 C   0  0  0  0  0  0  0  0  0  0  0  0
   57.3960   31.9340   45.6710 C   0  0  0  0  0  0  0  0  0  0  0  0
   58.1010   29.0020   43.7480 N   0  0  0  0  0  0  0  0  0  0  0  0
   57.9540   27.9020   44.5170 C   0  0  0  0  0  0  0  0  0  0  0  0
   58.8600   27.0370   44.6520 O   0  0  0  0  0  0  0  0  0  0  0  0
   56.2800   24.4430   47.4590 C   0  0  0  0  0  0  0  0  0  0  0  0
   57.7610   24.0190   47.5380 C   0  0  0  0  0  0  0  0  0  0  0  0
   59.3760   27.8120   47.0580 N   0  0  0  0  0  0  0  0  0  0  0  0
   58.8020   28.8010   47.9680 C   0  0  0  0  0  0  0  0  0  0  0  0
   59.6150   30.0670   47.9230 C   0  0  0  0  0  0  0  0  0  0  0  0
   60.7160   30.1670   47.0570 C   0  0  0  0  0  0  0  0  0  0  0  0
   61.5510   31.2850   47.1060 C   0  0  0  0  0  0  0  0  0  0  0  0
   61.3030   32.3120   48.0220 C   0  0  0  0  0  0  0  0  0  0  0  0
   62.3970   33.6890   48.0730 Cl  0  0  0  0  0  0  0  0  0  0  0  0
   60.2000   32.2230   48.8900 C   0  0  0  0  0  0  0  0  0  0  0  0
   59.8700   33.4800   50.0740 Cl  0  0  0  0  0  0  0  0  0  0  0  0
   59.3600   31.1040   48.8350 C   0  0  0  0  0  0  0  0  0  0  0  0
   60.5616   25.0228   46.0739 H   0  0  0  0  0  0  0  0  0  0  0  0
   57.9012   25.3388   44.4777 H   0  0  0  0  0  0  0  0  0  0  0  0
   58.5979   23.6703   44.4520 H   0  0  0  0  0  0  0  0  0  0  0  0
   56.0620   23.8470   44.0970 H   0  0  0  0  0  0  0  0  0  0  0  0
   56.6296   22.7220   45.3966 H   0  0  0  0  0  0  0  0  0  0  0  0
   55.3810   25.8941   44.5288 H   0  0  0  0  0  0  0  0  0  0  0  0
   54.3527   26.1012   45.9999 H   0  0  0  0  0  0  0  0  0  0  0  0
   55.8716   27.4395   47.0079 H   0  0  0  0  0  0  0  0  0  0  0  0
   57.2435   26.3547   46.5428 H   0  0  0  0  0  0  0  0  0  0  0  0
   57.0253   31.1385   42.3692 H   0  0  0  0  0  0  0  0  0  0  0  0
   55.6183   31.2842   43.4752 H   0  0  0  0  0  0  0  0  0  0  0  0
   58.2359   33.1583   42.5843 H   0  0  0  0  0  0  0  0  0  0  0  0
   59.3912   34.8470   44.0160 H   0  0  0  0  0  0  0  0  0  0  0  0
   57.9897   32.8077   47.5651 H   0  0  0  0  0  0  0  0  0  0  0  0
   56.8311   31.1158   46.1416 H   0  0  0  0  0  0  0  0  0  0  0  0
   56.1877   25.4470   47.8988 H   0  0  0  0  0  0  0  0  0  0  0  0
   55.7092   23.6763   48.0033 H   0  0  0  0  0  0  0  0  0  0  0  0
   58.1948   24.3920   48.4775 H   0  0  0  0  0  0  0  0  0  0  0  0
   57.8192   22.9211   47.5032 H   0  0  0  0  0  0  0  0  0  0  0  0
   59.5340   28.0780   46.0620 H   0  0  0  0  0  0  0  0  0  0  0  0
   57.7678   29.0201   47.6641 H   0  0  0  0  0  0  0  0  0  0  0  0
   58.8101   28.4002   48.9923 H   0  0  0  0  0  0  0  0  0  0  0  0
   60.9214   29.3611   46.3370 H   0  0  0  0  0  0  0  0  0  0  0  0
   62.4082   31.3582   46.4206 H   0  0  0  0  0  0  0  0  0  0  0  0
   58.4946   31.0368   49.5107 H   0  0  0  0  0  0  0  0  0  0  0  0
  1  2  2  0
  2  3  1  0
  3  4  2  3
  4  5  1  0
  5  6  1  0
  6  7  1  0
  7  8  1  0
  8  9  1  0
  9 10  1  0
 10 11  1  0
 11 12  1  0
 11 13  2  0
 13 14  1  0
 14 15  1  0
 15 16  2  0
 16 17  1  0
 17 18  2  0
 18 19  1  0
 18 20  1  0
 20 21  2  0
 13 22  1  0
 22 23  1  0
 23 24  2  0
  7 25  1  0
 25 26  1  0
  2 27  1  0
 27 28  1  0
 28 29  1  0
 29 30  2  0
 30 31  1  0
 31 32  2  0
 32 33  1  0
 32 34  1  0
 34 35  1  0
 34 36  2  0
 26  4  1  0
 36 29  1  0
 23 10  1  0
 21 15  1  0
  3 37  1  0
  5 38  1  0
  5 39  1  0
  6 40  1  0
  6 41  1  0
  8 42  1  0
  8 43  1  0
  9 44  1  0
  9 45  1  0
 14 46  1  0
 14 47  1  0
 16 48  1  0
 17 49  1  0
 20 50  1  0
 21 51  1  0
 25 52  1  0
 25 53  1  0
 26 54  1  0
 26 55  1  0
 27 56  1  0
 28 57  1  0
 28 58  1  0
 30 59  1  0
 31 60  1  0
 36 61  1  0
M  CHG  2  12  -1  22  -1
M  END
>  <UniqueID>  (74) 
64

>  <SMILES>  (74) 
O=C(C=C1CCN(CCn2c([O-])c(Cc3ccc(F)cc3)[n-]c2=O)CC1)NCc1ccc(Cl)c(Cl)c1

>  <Energy>  (74) 
99.62515662319802

>  <Genealogy>  (74) 
O=C(C=C1CCN(CCn2c([O-])c(Cc3ccc(F)cc3)[n-]c2=O)CC1)NCc1ccc(Cl)c(Cl)c1 (protonated)
O=C(C=C1CCN(CCn2c([O-])c(Cc3ccc(F)cc3)[n-]c2=O)CC1)NCc1ccc(Cl)c(Cl)c1 (3D coordinates assigned)
O=C(C=C1CCN(CCn2c([O-])c(Cc3ccc(F)cc3)[n-]c2=O)CC1)NCc1ccc(Cl)c(Cl)c1 (nonaromatic ring conformer: 99.62515662319802 kcal/mol)

>  <smiles>  (74) 
O=C(C=C1CCN(CCn2c(O)c(Cc3ccc(F)cc3)[nH]c2=O)CC1)NCc1ccc(Cl)c(Cl)c1

>  <score_type>  (74) 
oracle

>  <origin>  (74) 
adg

>  <m_score__min__energy>  (74) 
-14.34

>  <m_primary>  (74) 
energy

$$$$
74:0
     RDKit          3D

 60 63  0  0  0  0  0  0  0  0999 V2000
   61.1360   30.3090   49.0910 O   0  0  0  0  0  0  0  0  0  0  0  0
   60.5300   31.4160   49.0570 C   0  0  0  0  0  0  0  0  0  0  0  0
   59.0210   31.4240   48.9950 C   0  0  0  0  0  0  0  0  0  0  0  0
   58.5390   31.1020   47.6500 N   0  0  0  0  0  0  0  0  0  0  0  0
   58.4100   29.8610   47.1330 C   0  0  0  0  0  0  0  0  0  0  0  0
   57.9820   29.9290   45.8110 C   0  0  0  0  0  0  0  0  0  0  0  0
   57.7920   28.7430   44.9100 C   0  0  0  0  0  0  0  0  0  0  0  0
   56.6820   27.9130   45.3950 N   0  0  0  0  0  0  0  0  0  0  0  0
   57.1630   26.7590   46.1740 C   0  0  0  0  0  0  0  0  0  0  0  0
   56.0380   25.7520   46.4140 C   0  0  0  0  0  0  0  0  0  0  0  0
   54.8610   26.1790   45.7870 O   0  0  0  0  0  0  0  0  0  0  0  0
   57.8740   31.2840   45.5120 C   0  0  0  0  0  0  0  0  0  0  0  0
   57.5280   31.9760   44.3390 C   0  0  0  0  0  0  0  0  0  0  0  0
   57.0850   31.1680   42.8430 Cl  0  0  0  0  0  0  0  0  0  0  0  0
   57.5430   33.3830   44.3740 C   0  0  0  0  0  0  0  0  0  0  0  0
   57.9020   34.0690   45.5500 C   0  0  0  0  0  0  0  0  0  0  0  0
   58.2510   33.3590   46.7090 C   0  0  0  0  0  0  0  0  0  0  0  0
   58.2210   31.9630   46.6600 C   0  0  0  0  0  0  0  0  0  0  0  0
   61.2840   32.6510   49.0990 N   0  0  0  0  0  0  0  0  0  0  0  0
   61.4800   33.4190   47.8500 C   0  0  0  0  0  0  0  0  0  0  0  0
   62.7580   33.0560   47.0700 C   0  0  0  0  0  0  0  0  0  0  0  0
   64.0840   33.4940   47.7400 C   0  0  0  0  0  0  0  0  0  0  0  0
   64.1770   33.0510   49.1550 N   0  0  0  0  0  0  0  0  0  0  0  0
   65.5430   33.0190   49.7480 C   0  0  0  0  0  0  0  0  0  0  0  0
   65.6250   33.6320   51.1450 C   0  0  0  0  0  0  0  0  0  0  0  0
   66.0800   32.2860   51.7010 C   0  0  0  0  0  0  0  0  0  0  0  0
   66.0160   31.6730   50.3040 C   0  0  0  0  0  0  0  0  0  0  0  0
   63.2610   33.8150   50.0290 C   0  0  0  0  0  0  0  0  0  0  0  0
   61.9770   33.0320   50.3430 C   0  0  0  0  0  0  0  0  0  0  0  0
   58.6299   30.6787   49.7032 H   0  0  0  0  0  0  0  0  0  0  0  0
   58.6695   32.4331   49.2560 H   0  0  0  0  0  0  0  0  0  0  0  0
   58.6144   28.9286   47.6797 H   0  0  0  0  0  0  0  0  0  0  0  0
   57.5670   29.0923   43.8915 H   0  0  0  0  0  0  0  0  0  0  0  0
   58.7142   28.1434   44.9051 H   0  0  0  0  0  0  0  0  0  0  0  0
   56.1810   27.5360   44.5540 H   0  0  0  0  0  0  0  0  0  0  0  0
   57.9756   26.2653   45.6209 H   0  0  0  0  0  0  0  0  0  0  0  0
   57.5236   27.1201   47.1485 H   0  0  0  0  0  0  0  0  0  0  0  0
   56.3328   24.7744   46.0050 H   0  0  0  0  0  0  0  0  0  0  0  0
   55.8571   25.6691   47.4958 H   0  0  0  0  0  0  0  0  0  0  0  0
   54.7770   27.1470   45.9910 H   0  0  0  0  0  0  0  0  0  0  0  0
   57.2714   33.9527   43.4731 H   0  0  0  0  0  0  0  0  0  0  0  0
   57.9089   35.1689   45.5603 H   0  0  0  0  0  0  0  0  0  0  0  0
   58.5400   33.8865   47.6300 H   0  0  0  0  0  0  0  0  0  0  0  0
   60.6148   33.2370   47.1955 H   0  0  0  0  0  0  0  0  0  0  0  0
   61.5826   34.4739   48.1445 H   0  0  0  0  0  0  0  0  0  0  0  0
   62.7832   31.9632   46.9470 H   0  0  0  0  0  0  0  0  0  0  0  0
   62.7010   33.6032   46.1174 H   0  0  0  0  0  0  0  0  0  0  0  0
   64.9240   33.0598   47.1780 H   0  0  0  0  0  0  0  0  0  0  0  0
   64.1176   34.5934   47.7299 H   0  0  0  0  0  0  0  0  0  0  0  0
   66.0802   33.4611   48.8960 H   0  0  0  0  0  0  0  0  0  0  0  0
   66.3713   34.4343   51.2414 H   0  0  0  0  0  0  0  0  0  0  0  0
   64.7584   34.1522   51.5791 H   0  0  0  0  0  0  0  0  0  0  0  0
   67.0897   32.3006   52.1372 H   0  0  0  0  0  0  0  0  0  0  0  0
   65.5344   31.8196   52.5346 H   0  0  0  0  0  0  0  0  0  0  0  0
   66.9887   31.3403   49.9127 H   0  0  0  0  0  0  0  0  0  0  0  0
   65.4372   30.7559   50.1202 H   0  0  0  0  0  0  0  0  0  0  0  0
   63.7781   34.0421   50.9730 H   0  0  0  0  0  0  0  0  0  0  0  0
   62.9759   34.7360   49.4994 H   0  0  0  0  0  0  0  0  0  0  0  0
   62.2364   32.1228   50.9052 H   0  0  0  0  0  0  0  0  0  0  0  0
   61.3091   33.6709   50.9395 H   0  0  0  0  0  0  0  0  0  0  0  0
  1  2  2  0
  2  3  1  0
  3  4  1  0
  4  5  1  0
  5  6  2  0
  6  7  1  0
  7  8  1  0
  8  9  1  0
  9 10  1  0
 10 11  1  0
  6 12  1  0
 12 13  2  0
 13 14  1  0
 13 15  1  0
 15 16  2  0
 16 17  1  0
 17 18  2  0
  2 19  1  0
 19 20  1  0
 20 21  1  0
 21 22  1  0
 22 23  1  0
 23 24  1  0
 24 25  1  0
 25 26  1  0
 26 27  1  0
 23 28  1  0
 28 29  1  0
 18  4  1  0
 29 19  1  0
 18 12  1  0
 27 24  1  0
  3 30  1  0
  3 31  1  0
  5 32  1  0
  7 33  1  0
  7 34  1  0
  8 35  1  0
  9 36  1  0
  9 37  1  0
 10 38  1  0
 10 39  1  0
 11 40  1  0
 15 41  1  0
 16 42  1  0
 17 43  1  0
 20 44  1  0
 20 45  1  0
 21 46  1  0
 21 47  1  0
 22 48  1  0
 22 49  1  0
 24 50  1  0
 25 51  1  0
 25 52  1  0
 26 53  1  0
 26 54  1  0
 27 55  1  0
 27 56  1  0
 28 57  1  0
 28 58  1  0
 29 59  1  0
 29 60  1  0
M  END
>  <UniqueID>  (75) 
65

>  <SMILES>  (75) 
O=C(Cn1cc(CNCCO)c2c(Cl)cccc21)N1CCCN(C2CCC2)CC1

>  <Energy>  (75) 
168.19168868403963

>  <Genealogy>  (75) 
O=C(Cn1cc(CNCCO)c2c(Cl)cccc21)N1CCCN(C2CCC2)CC1 (3D coordinates assigned)
O=C(Cn1cc(CNCCO)c2c(Cl)cccc21)N1CCCN(C2CCC2)CC1 (nonaromatic ring conformer: 168.19168868403963 kcal/mol)

>  <smiles>  (75) 
O=C(Cn1cc(CNCCO)c2c(Cl)cccc21)N1CCCN(C2CCC2)CC1

>  <score_type>  (75) 
oracle

>  <origin>  (75) 
adg

>  <m_score__min__energy>  (75) 
-6.9400000000000004

>  <m_primary>  (75) 
energy

$$$$
75:0
     RDKit          3D

 38 40  0  0  0  0  0  0  0  0999 V2000
   55.4330   29.1410   44.8080 N   0  0  0  0  0  0  0  0  0  0  0  0
   56.3980   30.1900   44.7670 C   0  0  0  0  0  0  0  0  0  0  0  0
   56.1230   31.2470   44.1420 O   0  0  0  0  0  0  0  0  0  0  0  0
   57.7100   30.0180   45.4350 C   0  0  0  0  0  0  0  0  0  0  0  0
   58.5280   31.0560   45.9770 C   0  0  0  0  0  0  0  0  0  0  0  0
   58.2350   32.5480   46.0210 C   0  0  0  0  0  0  0  0  0  0  0  0
   59.0770   33.2990   47.0480 C   0  0  0  0  0  0  0  0  0  0  0  0
   59.2320   34.7030   46.4890 C   0  0  0  0  0  0  0  0  0  0  0  0
   59.1480   34.5700   44.9740 C   0  0  0  0  0  0  0  0  0  0  0  0
   58.3800   33.2820   44.6830 C   0  0  0  0  0  0  0  0  0  0  0  0
   59.7270   30.5740   46.5050 C   0  0  0  0  0  0  0  0  0  0  0  0
   59.7840   28.9090   46.3320 S   0  0  0  0  0  0  0  0  0  0  0  0
   58.2780   28.7540   45.6100 C   0  0  0  0  0  0  0  0  0  0  0  0
   57.7600   27.5450   45.0420 N   0  0  0  0  0  0  0  0  0  0  0  0
   57.7210   26.2550   45.6630 C   0  0  0  0  0  0  0  0  0  0  0  0
   58.1240   26.1500   46.8520 O   0  0  0  0  0  0  0  0  0  0  0  0
   57.3950   25.0060   44.8860 C   0  0  0  0  0  0  0  0  0  0  0  0
   55.9600   24.6100   45.0620 C   0  0  0  0  0  0  0  0  0  0  0  0
   55.3290   23.0840   44.7230 S   0  0  0  0  0  0  0  0  0  0  0  0
   53.7930   23.5090   45.2550 C   0  0  0  0  0  0  0  0  0  0  0  0
   52.8010   22.7350   45.2490 O   0  0  0  0  0  0  0  0  0  0  0  0
   53.7300   24.7820   45.7000 N   0  0  0  0  0  0  0  0  0  0  0  0
   54.9400   25.3950   45.5970 C   0  0  0  0  0  0  0  0  0  0  0  0
   55.1310   26.7110   46.0020 O   0  0  0  0  0  0  0  0  0  0  0  0
   55.6930   28.1620   44.5510 H   0  0  0  0  0  0  0  0  0  0  0  0
   57.1737   32.5604   46.3101 H   0  0  0  0  0  0  0  0  0  0  0  0
   58.5645   33.3260   48.0210 H   0  0  0  0  0  0  0  0  0  0  0  0
   60.0501   32.8139   47.2144 H   0  0  0  0  0  0  0  0  0  0  0  0
   58.4251   35.3521   46.8599 H   0  0  0  0  0  0  0  0  0  0  0  0
   60.1860   35.1544   46.7990 H   0  0  0  0  0  0  0  0  0  0  0  0
   58.6150   35.4326   44.5476 H   0  0  0  0  0  0  0  0  0  0  0  0
   60.1519   34.5395   44.5254 H   0  0  0  0  0  0  0  0  0  0  0  0
   57.3882   33.5165   44.2691 H   0  0  0  0  0  0  0  0  0  0  0  0
   58.9099   32.6617   43.9452 H   0  0  0  0  0  0  0  0  0  0  0  0
   60.5128   31.1921   46.9637 H   0  0  0  0  0  0  0  0  0  0  0  0
   57.5874   25.1884   43.8184 H   0  0  0  0  0  0  0  0  0  0  0  0
   58.0278   24.1891   45.2632 H   0  0  0  0  0  0  0  0  0  0  0  0
   55.1320   27.4650   45.3250 H   0  0  0  0  0  0  0  0  0  0  0  0
  1  2  1  0
  2  3  2  0
  2  4  1  0
  4  5  1  0
  5  6  1  0
  6  7  1  0
  7  8  1  0
  8  9  1  0
  9 10  1  0
  5 11  2  0
 11 12  1  0
 12 13  1  0
 13 14  1  0
 14 15  1  0
 15 16  2  0
 15 17  1  0
 17 18  1  0
 18 19  1  0
 19 20  1  0
 20 21  2  0
 20 22  1  0
 22 23  1  0
 23 24  1  0
 13  4  2  0
 23 18  2  0
 10  6  1  0
  1 25  1  0
  6 26  1  0
  7 27  1  0
  7 28  1  0
  8 29  1  0
  8 30  1  0
  9 31  1  0
  9 32  1  0
 10 33  1  0
 10 34  1  0
 11 35  1  0
 17 36  1  0
 17 37  1  0
 24 38  1  0
M  CHG  3   1  -1  14  -1  22  -1
M  END
>  <UniqueID>  (76) 
66

>  <SMILES>  (76) 
[NH-]C(=O)c1c(C2CCCC2)csc1[N-]C(=O)Cc1sc(=O)[n-]c1O

>  <Energy>  (76) 
106.59828556065719

>  <Genealogy>  (76) 
[NH-]C(=O)c1c(C2CCCC2)csc1[N-]C(=O)Cc1sc(=O)[n-]c1O (protonated)
[NH-]C(=O)c1c(C2CCCC2)csc1[N-]C(=O)Cc1sc(=O)[n-]c1O (3D coordinates assigned)
[NH-]C(=O)c1c(C2CCCC2)csc1[N-]C(=O)Cc1sc(=O)[n-]c1O (nonaromatic ring conformer: 106.59828556065719 kcal/mol)

>  <smiles>  (76) 
NC(=O)c1c(C2CCCC2)csc1NC(=O)Cc1sc(=O)[nH]c1O

>  <score_type>  (76) 
oracle

>  <origin>  (76) 
adg

>  <m_score__min__energy>  (76) 
-16.100000000000001

>  <m_primary>  (76) 
energy

$$$$
76:0
     RDKit          3D

 56 59  0  0  0  0  0  0  0  0999 V2000
   58.7040   30.4980   47.2250 C   0  0  0  0  0  0  0  0  0  0  0  0
   58.1790   31.2650   46.2560 C   0  0  0  0  0  0  0  0  0  0  0  0
   57.9030   30.8610   44.9460 C   0  0  0  0  0  0  0  0  0  0  0  0
   58.1060   29.6460   44.4020 C   0  0  0  0  0  0  0  0  0  0  0  0
   57.5670   28.3990   44.9860 C   0  0  0  0  0  0  0  0  0  0  0  0
   56.1890   28.2620   45.2530 C   0  0  0  0  0  0  0  0  0  0  0  0
   55.2870   29.3020   45.0230 O   0  0  0  0  0  0  0  0  0  0  0  0
   55.7170   27.0920   45.7570 N   0  0  0  0  0  0  0  0  0  0  0  0
   56.5450   26.0460   46.0070 C   0  0  0  0  0  0  0  0  0  0  0  0
   55.9430   24.6530   46.6090 S   0  0  0  0  0  0  0  0  0  0  0  0
   57.8700   26.1490   45.7390 N   0  0  0  0  0  0  0  0  0  0  0  0
   58.3990   27.2920   45.2330 C   0  0  0  0  0  0  0  0  0  0  0  0
   59.6320   27.3400   44.9720 O   0  0  0  0  0  0  0  0  0  0  0  0
   57.4330   31.9830   44.2810 C   0  0  0  0  0  0  0  0  0  0  0  0
   57.4320   33.0150   45.1970 C   0  0  0  0  0  0  0  0  0  0  0  0
   57.0740   34.4330   44.8660 C   0  0  0  0  0  0  0  0  0  0  0  0
   57.8690   32.5810   46.4060 N   0  0  0  0  0  0  0  0  0  0  0  0
   58.0180   33.4000   47.6210 C   0  0  0  0  0  0  0  0  0  0  0  0
   59.4470   33.3990   48.1200 C   0  0  0  0  0  0  0  0  0  0  0  0
   60.4790   33.8290   47.2660 C   0  0  0  0  0  0  0  0  0  0  0  0
   61.8050   33.8280   47.6980 C   0  0  0  0  0  0  0  0  0  0  0  0
   62.1170   33.4130   48.9920 C   0  0  0  0  0  0  0  0  0  0  0  0
   61.1040   33.0020   49.8600 C   0  0  0  0  0  0  0  0  0  0  0  0
   59.7610   32.9890   49.4370 C   0  0  0  0  0  0  0  0  0  0  0  0
   58.7170   32.6060   50.2930 O   0  0  0  0  0  0  0  0  0  0  0  0
   58.4850   31.2940   50.8070 C   0  0  0  0  0  0  0  0  0  0  0  0
   57.3860   31.3180   51.8750 C   0  0  0  0  0  0  0  0  0  0  0  0
   56.0740   31.0490   51.2960 N   0  0  0  0  0  0  0  0  0  0  0  0
   54.8870   30.6810   52.0160 C   0  0  0  0  0  0  0  0  0  0  0  0
   54.8420   30.9090   53.2530 O   0  0  0  0  0  0  0  0  0  0  0  0
   53.7220   29.9830   51.3590 C   0  0  0  0  0  0  0  0  0  0  0  0
   52.6200   30.9480   51.0520 C   0  0  0  0  0  0  0  0  0  0  0  0
   51.7190   30.7790   50.0690 N   0  0  0  0  0  0  0  0  0  0  0  0
   50.9820   31.8770   50.1000 N   0  0  0  0  0  0  0  0  0  0  0  0
   51.4210   32.6860   51.0510 N   0  0  0  0  0  0  0  0  0  0  0  0
   52.4550   32.1350   51.6650 N   0  0  0  0  0  0  0  0  0  0  0  0
   58.8806   30.9199   48.2254 H   0  0  0  0  0  0  0  0  0  0  0  0
   58.9575   29.4477   47.0184 H   0  0  0  0  0  0  0  0  0  0  0  0
   58.7011   29.5779   43.4794 H   0  0  0  0  0  0  0  0  0  0  0  0
   55.1830   30.0880   45.6530 H   0  0  0  0  0  0  0  0  0  0  0  0
   57.1214   32.0396   43.2276 H   0  0  0  0  0  0  0  0  0  0  0  0
   56.9304   35.0017   45.7966 H   0  0  0  0  0  0  0  0  0  0  0  0
   57.8853   34.8886   44.2793 H   0  0  0  0  0  0  0  0  0  0  0  0
   56.1437   34.4489   44.2793 H   0  0  0  0  0  0  0  0  0  0  0  0
   57.7197   34.4341   47.3936 H   0  0  0  0  0  0  0  0  0  0  0  0
   57.3783   32.9711   48.4064 H   0  0  0  0  0  0  0  0  0  0  0  0
   60.2378   34.1691   46.2481 H   0  0  0  0  0  0  0  0  0  0  0  0
   62.6051   34.1548   47.0175 H   0  0  0  0  0  0  0  0  0  0  0  0
   63.1639   33.4095   49.3297 H   0  0  0  0  0  0  0  0  0  0  0  0
   61.3569   32.6857   50.8827 H   0  0  0  0  0  0  0  0  0  0  0  0
   58.1747   30.6333   49.9841 H   0  0  0  0  0  0  0  0  0  0  0  0
   59.4145   30.9233   51.2638 H   0  0  0  0  0  0  0  0  0  0  0  0
   57.6066   30.5516   52.6326 H   0  0  0  0  0  0  0  0  0  0  0  0
   57.3654   32.3204   52.3276 H   0  0  0  0  0  0  0  0  0  0  0  0
   54.0635   29.5177   50.4226 H   0  0  0  0  0  0  0  0  0  0  0  0
   53.3360   29.2201   52.0511 H   0  0  0  0  0  0  0  0  0  0  0  0
  1  2  2  0
  2  3  1  0
  3  4  2  3
  4  5  1  0
  5  6  2  0
  6  7  1  0
  6  8  1  0
  8  9  1  0
  9 10  2  0
  9 11  1  0
 11 12  1  0
 12 13  2  0
  3 14  1  0
 14 15  2  0
 15 16  1  0
 15 17  1  0
 17 18  1  0
 18 19  1  0
 19 20  2  0
 20 21  1  0
 21 22  2  0
 22 23  1  0
 23 24  2  0
 24 25  1  0
 25 26  1  0
 26 27  1  0
 27 28  1  0
 28 29  1  0
 29 30  2  0
 29 31  1  0
 31 32  1  0
 32 33  1  0
 33 34  2  0
 34 35  1  0
 35 36  1  0
 17  2  1  0
 24 19  1  0
 36 32  2  0
 12  5  1  0
  1 37  1  0
  1 38  1  0
  4 39  1  0
  7 40  1  0
 14 41  1  0
 16 42  1  0
 16 43  1  0
 16 44  1  0
 18 45  1  0
 18 46  1  0
 20 47  1  0
 21 48  1  0
 22 49  1  0
 23 50  1  0
 26 51  1  0
 26 52  1  0
 27 53  1  0
 27 54  1  0
 31 55  1  0
 31 56  1  0
M  CHG  4   8  -1  11  -1  28  -1  35  -1
M  END
>  <UniqueID>  (77) 
67

>  <SMILES>  (77) 
C=c1c(=Cc2c(O)[n-]c(=S)[n-]c2=O)cc(C)n1Cc1ccccc1OCC[N-]C(=O)Cc1nn[n-]n1

>  <Energy>  (77) 
132.41265591200911

>  <Genealogy>  (77) 
C=c1c(=Cc2c(O)[n-]c(=S)[n-]c2=O)cc(C)n1Cc1ccccc1OCC[N-]C(=O)Cc1nn[n-]n1 (protonated)
C=c1c(=Cc2c(O)[n-]c(=S)[n-]c2=O)cc(C)n1Cc1ccccc1OCC[N-]C(=O)Cc1nn[n-]n1 (3D coordinates assigned)
C=c1c(=Cc2c(O)[n-]c(=S)[n-]c2=O)cc(C)n1Cc1ccccc1OCC[N-]C(=O)Cc1nn[n-]n1 (optimized conformer: 132.41265591200911 kcal/mol)

>  <smiles>  (77) 
C=c1c(=Cc2c(O)[nH]c(=S)[nH]c2=O)cc(C)n1Cc1ccccc1OCCNC(=O)Cc1nn[nH]n1

>  <score_type>  (77) 
oracle

>  <origin>  (77) 
adg

>  <m_score__min__energy>  (77) 
-17.760000000000002

>  <m_primary>  (77) 
energy

$$$$
77:0
     RDKit          3D

 35 36  0  0  0  0  0  0  0  0999 V2000
   61.6789   29.4791   44.9185 H   0  0  0  0  0  0  0  0  0  0  0  0
   60.7590   29.3610   45.5100 C   0  0  0  0  0  0  0  0  0  0  0  0
   60.7100   29.8290   46.8260 C   0  0  0  0  0  0  0  0  0  0  0  0
   61.5892   30.3216   47.2670 H   0  0  0  0  0  0  0  0  0  0  0  0
   59.5460   29.6720   47.5820 C   0  0  0  0  0  0  0  0  0  0  0  0
   59.4850   30.2640   49.2320 Cl  0  0  0  0  0  0  0  0  0  0  0  0
   58.4260   29.0460   47.0220 C   0  0  0  0  0  0  0  0  0  0  0  0
   57.5112   28.9222   47.6202 H   0  0  0  0  0  0  0  0  0  0  0  0
   58.4660   28.5750   45.6980 C   0  0  0  0  0  0  0  0  0  0  0  0
   57.2560   27.9220   45.0830 C   0  0  0  0  0  0  0  0  0  0  0  0
   56.9145   27.1091   45.7407 H   0  0  0  0  0  0  0  0  0  0  0  0
   57.5377   27.5306   44.0943 H   0  0  0  0  0  0  0  0  0  0  0  0
   55.8940   29.1210   44.8620 S   0  0  0  0  0  0  0  0  0  0  0  0
   56.4710   29.8290   43.2790 C   0  0  0  0  0  0  0  0  0  0  0  0
   55.6251   29.9129   42.5809 H   0  0  0  0  0  0  0  0  0  0  0  0
   57.2380   29.1776   42.8347 H   0  0  0  0  0  0  0  0  0  0  0  0
   57.0450   31.1880   43.5410 C   0  0  0  0  0  0  0  0  0  0  0  0
   57.4160   31.9050   42.5750 O   0  0  0  0  0  0  0  0  0  0  0  0
   57.0140   31.7480   44.8590 N   0  0  0  0  0  0  0  0  0  0  0  0
   57.7660   32.7140   45.3060 C   0  0  0  0  0  0  0  0  0  0  0  0
   58.1040   32.7240   46.6660 C   0  0  0  0  0  0  0  0  0  0  0  0
   57.7398   31.9263   47.3301 H   0  0  0  0  0  0  0  0  0  0  0  0
   58.9060   33.7510   47.1780 C   0  0  0  0  0  0  0  0  0  0  0  0
   59.3240   33.7350   48.6180 C   0  0  0  0  0  0  0  0  0  0  0  0
   58.4310   33.7692   49.2594 H   0  0  0  0  0  0  0  0  0  0  0  0
   59.8895   32.8146   48.8255 H   0  0  0  0  0  0  0  0  0  0  0  0
   59.9582   34.6095   48.8255 H   0  0  0  0  0  0  0  0  0  0  0  0
   59.3710   34.7500   46.3160 C   0  0  0  0  0  0  0  0  0  0  0  0
   60.0250   35.5490   46.6953 H   0  0  0  0  0  0  0  0  0  0  0  0
   58.9990   34.7250   44.9720 C   0  0  0  0  0  0  0  0  0  0  0  0
   59.3487   35.5169   44.2933 H   0  0  0  0  0  0  0  0  0  0  0  0
   58.2060   33.7270   44.4950 N   0  0  0  0  0  0  0  0  0  0  0  0
   57.9210   33.7800   43.4920 H   0  0  0  0  0  0  0  0  0  0  0  0
   59.6400   28.7430   44.9450 C   0  0  0  0  0  0  0  0  0  0  0  0
   59.6788   28.3863   43.9052 H   0  0  0  0  0  0  0  0  0  0  0  0
  1  2  1  0
  2  3  2  0
  3  4  1  0
  3  5  1  0
  5  6  1  0
  5  7  2  0
  7  8  1  0
  7  9  1  0
  9 10  1  0
 10 11  1  0
 10 12  1  0
 10 13  1  0
 13 14  1  0
 14 15  1  0
 14 16  1  0
 14 17  1  0
 17 18  2  0
 17 19  1  0
 19 20  2  0
 20 21  1  0
 21 22  1  0
 21 23  2  0
 23 24  1  0
 24 25  1  0
 24 26  1  0
 24 27  1  0
 23 28  1  0
 28 29  1  0
 28 30  2  0
 30 31  1  0
 30 32  1  0
 32 33  1  0
  9 34  2  0
 34 35  1  0
 34  2  1  0
 32 20  1  0
M  END
>  <UniqueID>  (78) 
68

>  <SMILES>  (78) 
Cc1cc[nH]/c(=N\C(=O)CSCc2cccc(Cl)c2)c1

>  <Energy>  (78) 
35.47069483766482

>  <Genealogy>  (78) 
Cc1cc[nH]/c(=N\C(=O)CSCc2cccc(Cl)c2)c1 (cis-trans isomerization)
Cc1cc[nH]/c(=N\C(=O)CSCc2cccc(Cl)c2)c1 (3D coordinates assigned)
Cc1cc[nH]/c(=N\C(=O)CSCc2cccc(Cl)c2)c1 (optimized conformer: 35.47069483766482 kcal/mol)

>  <smiles>  (78) 
Cc1cc[nH]c(=NC(=O)CSCc2cccc(Cl)c2)c1

>  <score_type>  (78) 
oracle

>  <origin>  (78) 
adg

>  <m_score__min__energy>  (78) 
-8.0299999999999994

>  <m_primary>  (78) 
energy

$$$$
78:0
     RDKit          3D

 85 89  0  0  0  0  0  0  0  0999 V2000
   58.6576   33.7127   42.9890 H   0  0  0  0  0  0  0  0  0  0  0  0
   58.0800   33.1060   43.7020 C   0  0  0  0  0  0  0  0  0  0  0  0
   57.5860   33.7880   44.8990 C   0  0  0  0  0  0  0  0  0  0  0  0
   56.6690   34.6460   44.7860 O   0  0  0  0  0  0  0  0  0  0  0  0
   58.1010   33.4230   46.2600 C   0  0  0  0  0  0  0  0  0  0  0  0
   57.8027   32.3907   46.4952 H   0  0  0  0  0  0  0  0  0  0  0  0
   57.6764   34.1179   46.9995 H   0  0  0  0  0  0  0  0  0  0  0  0
   59.5240   33.5210   46.2980 O   0  0  0  0  0  0  0  0  0  0  0  0
   60.3320   32.7280   47.1220 C   0  0  0  0  0  0  0  0  0  0  0  0
   61.5490   32.5520   46.8350 O   0  0  0  0  0  0  0  0  0  0  0  0
   59.7580   32.0980   48.3340 C   0  0  0  0  0  0  0  0  0  0  0  0
   58.9700   32.8460   49.2200 C   0  0  0  0  0  0  0  0  0  0  0  0
   58.7800   33.9101   49.0163 H   0  0  0  0  0  0  0  0  0  0  0  0
   58.4250   32.2510   50.3580 C   0  0  0  0  0  0  0  0  0  0  0  0
   57.8073   32.8517   51.0418 H   0  0  0  0  0  0  0  0  0  0  0  0
   58.6550   30.8940   50.6420 C   0  0  0  0  0  0  0  0  0  0  0  0
   58.0530   30.2930   51.8560 C   0  0  0  0  0  0  0  0  0  0  0  0
   58.4280   30.5880   53.1170 N   0  0  0  0  0  0  0  0  0  0  0  0
   57.6680   29.8580   53.9170 N   0  0  0  0  0  0  0  0  0  0  0  0
   56.8610   29.1400   53.1160 C   0  0  0  0  0  0  0  0  0  0  0  0
   55.8070   28.1990   53.6190 C   0  0  0  0  0  0  0  0  0  0  0  0
   55.9100   27.2412   53.0880 H   0  0  0  0  0  0  0  0  0  0  0  0
   55.9571   28.0859   54.7028 H   0  0  0  0  0  0  0  0  0  0  0  0
   54.3780   28.7270   53.4050 C   0  0  0  0  0  0  0  0  0  0  0  0
   53.6770   27.8883   53.5282 H   0  0  0  0  0  0  0  0  0  0  0  0
   54.2182   29.5240   54.1461 H   0  0  0  0  0  0  0  0  0  0  0  0
   54.1450   29.3530   52.0200 C   0  0  0  0  0  0  0  0  0  0  0  0
   55.0837   29.8121   51.6765 H   0  0  0  0  0  0  0  0  0  0  0  0
   53.8172   28.5535   51.3393 H   0  0  0  0  0  0  0  0  0  0  0  0
   53.0700   30.4080   52.0450 C   0  0  0  0  0  0  0  0  0  0  0  0
   52.3320   30.6370   53.2200 C   0  0  0  0  0  0  0  0  0  0  0  0
   52.5499   30.0537   54.1268 H   0  0  0  0  0  0  0  0  0  0  0  0
   51.3220   31.6040   53.2390 C   0  0  0  0  0  0  0  0  0  0  0  0
   50.7502   31.7831   54.1615 H   0  0  0  0  0  0  0  0  0  0  0  0
   51.0380   32.3440   52.0860 C   0  0  0  0  0  0  0  0  0  0  0  0
   50.2445   33.1056   52.1034 H   0  0  0  0  0  0  0  0  0  0  0  0
   51.7630   32.1160   50.9100 C   0  0  0  0  0  0  0  0  0  0  0  0
   51.5372   32.6970   50.0037 H   0  0  0  0  0  0  0  0  0  0  0  0
   52.7740   31.1500   50.8870 C   0  0  0  0  0  0  0  0  0  0  0  0
   53.3394   30.9698   49.9608 H   0  0  0  0  0  0  0  0  0  0  0  0
   57.0860   29.4070   51.8520 O   0  0  0  0  0  0  0  0  0  0  0  0
   59.4610   30.1320   49.7670 C   0  0  0  0  0  0  0  0  0  0  0  0
   59.7090   28.7810   50.0640 O   0  0  0  0  0  0  0  0  0  0  0  0
   60.8760   28.2900   50.7140 C   0  0  0  0  0  0  0  0  0  0  0  0
   60.7401   28.3472   51.8041 H   0  0  0  0  0  0  0  0  0  0  0  0
   61.0467   27.2438   50.4202 H   0  0  0  0  0  0  0  0  0  0  0  0
   61.7433   28.8995   50.4202 H   0  0  0  0  0  0  0  0  0  0  0  0
   60.0010   30.7440   48.6160 C   0  0  0  0  0  0  0  0  0  0  0  0
   60.6222   30.1510   47.9287 H   0  0  0  0  0  0  0  0  0  0  0  0
   57.8980   31.8110   43.3870 C   0  0  0  0  0  0  0  0  0  0  0  0
   57.8300   31.5967   42.3102 H   0  0  0  0  0  0  0  0  0  0  0  0
   57.7740   30.6160   44.2840 C   0  0  0  0  0  0  0  0  0  0  0  0
   58.8500   30.3610   45.1620 C   0  0  0  0  0  0  0  0  0  0  0  0
   59.7255   31.0269   45.1532 H   0  0  0  0  0  0  0  0  0  0  0  0
   58.8200   29.2770   46.0410 C   0  0  0  0  0  0  0  0  0  0  0  0
   59.6643   29.1038   46.7244 H   0  0  0  0  0  0  0  0  0  0  0  0
   57.7180   28.4060   46.0580 C   0  0  0  0  0  0  0  0  0  0  0  0
   57.6520   27.2870   46.9020 O   0  0  0  0  0  0  0  0  0  0  0  0
   58.7860   26.5620   47.3730 C   0  0  0  0  0  0  0  0  0  0  0  0
   59.6275   27.2559   47.5154 H   0  0  0  0  0  0  0  0  0  0  0  0
   58.5321   26.0790   48.3281 H   0  0  0  0  0  0  0  0  0  0  0  0
   59.1840   25.4850   46.3580 C   0  0  0  0  0  0  0  0  0  0  0  0
   60.1732   25.7391   45.9494 H   0  0  0  0  0  0  0  0  0  0  0  0
   59.1896   24.5224   46.8904 H   0  0  0  0  0  0  0  0  0  0  0  0
   58.1950   25.3530   45.1920 C   0  0  0  0  0  0  0  0  0  0  0  0
   57.4470   26.1562   45.2651 H   0  0  0  0  0  0  0  0  0  0  0  0
   58.7591   25.4279   44.2507 H   0  0  0  0  0  0  0  0  0  0  0  0
   57.4990   24.0420   45.2150 N   0  0  0  0  0  0  0  0  0  0  0  0
   56.2150   24.0650   44.4810 C   0  0  0  0  0  0  0  0  0  0  0  0
   56.3640   24.5861   43.5238 H   0  0  0  0  0  0  0  0  0  0  0  0
   55.8972   23.0234   44.3261 H   0  0  0  0  0  0  0  0  0  0  0  0
   55.0970   24.7890   45.2740 C   0  0  0  0  0  0  0  0  0  0  0  0
   54.7766   25.6735   44.7039 H   0  0  0  0  0  0  0  0  0  0  0  0
   54.2711   24.0759   45.4132 H   0  0  0  0  0  0  0  0  0  0  0  0
   55.5240   25.2060   46.5550 O   0  0  0  0  0  0  0  0  0  0  0  0
   56.0410   24.1010   47.2650 C   0  0  0  0  0  0  0  0  0  0  0  0
   56.2999   24.4222   48.2847 H   0  0  0  0  0  0  0  0  0  0  0  0
   55.2719   23.3147   47.2821 H   0  0  0  0  0  0  0  0  0  0  0  0
   57.3040   23.5240   46.5860 C   0  0  0  0  0  0  0  0  0  0  0  0
   58.1827   23.7906   47.1917 H   0  0  0  0  0  0  0  0  0  0  0  0
   57.1758   22.4338   46.5153 H   0  0  0  0  0  0  0  0  0  0  0  0
   56.6470   28.6530   45.1990 C   0  0  0  0  0  0  0  0  0  0  0  0
   55.7786   27.9779   45.2069 H   0  0  0  0  0  0  0  0  0  0  0  0
   56.6620   29.7470   44.3280 C   0  0  0  0  0  0  0  0  0  0  0  0
   55.7994   29.9322   43.6710 H   0  0  0  0  0  0  0  0  0  0  0  0
  1  2  1  0
  2  3  1  0
  3  4  2  0
  3  5  1  0
  5  6  1  0
  5  7  1  0
  5  8  1  0
  8  9  1  0
  9 10  2  0
  9 11  1  0
 11 12  2  0
 12 13  1  0
 12 14  1  0
 14 15  1  0
 14 16  2  0
 16 17  1  0
 17 18  2  0
 18 19  1  0
 19 20  2  0
 20 21  1  0
 21 22  1  0
 21 23  1  0
 21 24  1  0
 24 25  1  0
 24 26  1  0
 24 27  1  0
 27 28  1  0
 27 29  1  0
 27 30  1  0
 30 31  2  0
 31 32  1  0
 31 33  1  0
 33 34  1  0
 33 35  2  0
 35 36  1  0
 35 37  1  0
 37 38  1  0
 37 39  2  0
 39 40  1  0
 20 41  1  0
 16 42  1  0
 42 43  1  0
 43 44  1  0
 44 45  1  0
 44 46  1  0
 44 47  1  0
 42 48  2  0
 48 49  1  0
  2 50  2  0
 50 51  1  0
 50 52  1  0
 52 53  2  0
 53 54  1  0
 53 55  1  0
 55 56  1  0
 55 57  2  0
 57 58  1  0
 58 59  1  0
 59 60  1  0
 59 61  1  0
 59 62  1  0
 62 63  1  0
 62 64  1  0
 62 65  1  0
 65 66  1  0
 65 67  1  0
 65 68  1  0
 68 69  1  0
 69 70  1  0
 69 71  1  0
 69 72  1  0
 72 73  1  0
 72 74  1  0
 72 75  1  0
 75 76  1  0
 76 77  1  0
 76 78  1  0
 76 79  1  0
 79 80  1  0
 79 81  1  0
 57 82  1  0
 82 83  1  0
 82 84  2  0
 84 85  1  0
 48 11  1  0
 84 52  1  0
 41 17  1  0
 79 68  1  0
 39 30  1  0
M  END
>  <UniqueID>  (79) 
69

>  <SMILES>  (79) 
COc1cc(C(=O)OCC(=O)/C=C\c2ccc(OCCCN3CCOCC3)cc2)ccc1-c1nnc(CCCc2ccccc2)o1

>  <Energy>  (79) 
143.22981949707

>  <Genealogy>  (79) 
COc1cc(C(=O)OCC(=O)/C=C\c2ccc(OCCCN3CCOCC3)cc2)ccc1-c1nnc(CCCc2ccccc2)o1 (cis-trans isomerization)
COc1cc(C(=O)OCC(=O)/C=C\c2ccc(OCCCN3CCOCC3)cc2)ccc1-c1nnc(CCCc2ccccc2)o1 (3D coordinates assigned)
COc1cc(C(=O)OCC(=O)/C=C\c2ccc(OCCCN3CCOCC3)cc2)ccc1-c1nnc(CCCc2ccccc2)o1 (nonaromatic ring conformer: 143.22981949707 kcal/mol)

>  <smiles>  (79) 
COc1cc(C(=O)OCC(=O)C=Cc2ccc(OCCCN3CCOCC3)cc2)ccc1-c1nnc(CCCc2ccccc2)o1

>  <score_type>  (79) 
oracle

>  <origin>  (79) 
adg

>  <m_score__min__energy>  (79) 
-10.460000000000001

>  <m_primary>  (79) 
energy

$$$$
79:0
     RDKit          3D

 41 45  0  0  0  0  0  0  0  0999 V2000
   55.1360   28.0060   44.8980 H   0  0  0  0  0  0  0  0  0  0  0  0
   55.1900   28.9650   44.5780 O   0  0  0  0  0  0  0  0  0  0  0  0
   56.2810   29.7630   44.9070 C   0  0  0  0  0  0  0  0  0  0  0  0
   56.3830   31.0590   44.5250 N   0  0  0  0  0  0  0  0  0  0  0  0
   57.5290   31.4790   45.0930 C   0  0  0  0  0  0  0  0  0  0  0  0
   58.0760   32.7550   45.0070 C   0  0  0  0  0  0  0  0  0  0  0  0
   57.5787   33.5444   44.4243 H   0  0  0  0  0  0  0  0  0  0  0  0
   59.2820   33.0090   45.6850 C   0  0  0  0  0  0  0  0  0  0  0  0
   59.7348   34.0100   45.6309 H   0  0  0  0  0  0  0  0  0  0  0  0
   59.9230   31.9890   46.4390 C   0  0  0  0  0  0  0  0  0  0  0  0
   61.1950   32.2460   47.1570 C   0  0  0  0  0  0  0  0  0  0  0  0
   61.4100   33.3270   47.9290 N   0  0  0  0  0  0  0  0  0  0  0  0
   62.6730   33.1640   48.3790 C   0  0  0  0  0  0  0  0  0  0  0  0
   63.3780   34.1310   49.2890 C   0  0  0  0  0  0  0  0  0  0  0  0
   63.6060   34.8622   48.4995 H   0  0  0  0  0  0  0  0  0  0  0  0
   62.8350   34.2060   50.7090 C   0  0  0  0  0  0  0  0  0  0  0  0
   62.8191   35.1684   51.2415 H   0  0  0  0  0  0  0  0  0  0  0  0
   61.8914   33.9203   51.1968 H   0  0  0  0  0  0  0  0  0  0  0  0
   64.1590   33.5090   50.4380 C   0  0  0  0  0  0  0  0  0  0  0  0
   65.1007   33.9672   50.7745 H   0  0  0  0  0  0  0  0  0  0  0  0
   64.5695   32.5104   50.6486 H   0  0  0  0  0  0  0  0  0  0  0  0
   63.2650   32.0390   47.9300 N   0  0  0  0  0  0  0  0  0  0  0  0
   62.3300   31.4590   47.1590 C   0  0  0  0  0  0  0  0  0  0  0  0
   62.4493   30.5096   46.6164 H   0  0  0  0  0  0  0  0  0  0  0  0
   59.3340   30.7030   46.5020 C   0  0  0  0  0  0  0  0  0  0  0  0
   59.8079   29.8936   47.0767 H   0  0  0  0  0  0  0  0  0  0  0  0
   58.1390   30.4880   45.8180 C   0  0  0  0  0  0  0  0  0  0  0  0
   57.3590   29.3600   45.6940 C   0  0  0  0  0  0  0  0  0  0  0  0
   57.5870   28.0600   46.3620 C   0  0  0  0  0  0  0  0  0  0  0  0
   58.2866   28.0318   47.2104 H   0  0  0  0  0  0  0  0  0  0  0  0
   56.9910   26.9080   45.9960 C   0  0  0  0  0  0  0  0  0  0  0  0
   55.6330   26.8120   46.0040 N   0  0  0  0  0  0  0  0  0  0  0  0
   54.9950   25.6780   45.6230 C   0  0  0  0  0  0  0  0  0  0  0  0
   53.7380   25.6260   45.6500 O   0  0  0  0  0  0  0  0  0  0  0  0
   55.7080   24.6020   45.2130 N   0  0  0  0  0  0  0  0  0  0  0  0
   57.0670   24.6260   45.1700 C   0  0  0  0  0  0  0  0  0  0  0  0
   57.7160   23.5340   44.7550 C   0  0  0  0  0  0  0  0  0  0  0  0
   58.8152   23.5305   44.7120 H   0  0  0  0  0  0  0  0  0  0  0  0
   57.1511   22.6386   44.4564 H   0  0  0  0  0  0  0  0  0  0  0  0
   57.7490   25.7970   45.5630 C   0  0  0  0  0  0  0  0  0  0  0  0
   59.0120   25.8460   45.5310 O   0  0  0  0  0  0  0  0  0  0  0  0
  1  2  1  0
  2  3  1  0
  3  4  1  0
  4  5  1  0
  5  6  2  0
  6  7  1  0
  6  8  1  0
  8  9  1  0
  8 10  2  0
 10 11  1  0
 11 12  1  0
 12 13  2  0
 13 14  1  0
 14 15  1  0
 14 16  1  0
 16 17  1  0
 16 18  1  0
 16 19  1  0
 19 20  1  0
 19 21  1  0
 13 22  1  0
 22 23  1  0
 23 24  1  0
 10 25  1  0
 25 26  1  0
 25 27  2  0
 27 28  1  0
 28 29  1  0
 29 30  1  0
 29 31  2  0
 31 32  1  0
 32 33  1  0
 33 34  2  0
 33 35  1  0
 35 36  1  0
 36 37  2  0
 37 38  1  0
 37 39  1  0
 36 40  1  0
 40 41  2  0
 28  3  2  0
 40 31  1  0
 27  5  1  0
 23 11  2  0
 19 14  1  0
M  CHG  4   4  -1  22  -1  32  -1  35  -1
M  END
>  <UniqueID>  (80) 
70

>  <SMILES>  (80) 
C=c1[n-]c(=O)[n-]/c(=C\c2c(O)[n-]c3ccc(-c4c[n-]c(C5CC5)n4)cc23)c1=O

>  <Energy>  (80) 
381.2319166877116

>  <Genealogy>  (80) 
C=c1[n-]c(=O)[n-]c(=Cc2c(O)[n-]c3ccc(-c4c[n-]c(C5CC5)n4)cc23)c1=O (protonated)
C=c1[n-]c(=O)[n-]/c(=C\c2c(O)[n-]c3ccc(-c4c[n-]c(C5CC5)n4)cc23)c1=O (cis-trans isomerization)
C=c1[n-]c(=O)[n-]/c(=C\c2c(O)[n-]c3ccc(-c4c[n-]c(C5CC5)n4)cc23)c1=O (3D coordinates assigned)
C=c1[n-]c(=O)[n-]/c(=C\c2c(O)[n-]c3ccc(-c4c[n-]c(C5CC5)n4)cc23)c1=O (nonaromatic ring conformer: 381.2319166877116 kcal/mol)

>  <smiles>  (80) 
C=c1[nH]c(=O)[nH]c(=Cc2c(O)[nH]c3ccc(-c4c[nH]c(C5CC5)n4)cc23)c1=O

>  <score_type>  (80) 
oracle

>  <origin>  (80) 
adg

>  <m_score__min__energy>  (80) 
-16.16

>  <m_primary>  (80) 
energy

$$$$
80:0
     RDKit          3D

 66 69  0  0  0  0  0  0  0  0999 V2000
   62.0660   30.8860   51.1970 O   0  0  0  0  0  0  0  0  0  0  0  0
   61.4570   31.2390   50.1500 C   0  0  0  0  0  0  0  0  0  0  0  0
   60.7030   32.5380   50.1180 C   0  0  0  0  0  0  0  0  0  0  0  0
   61.1120   33.4150   48.9220 C   0  0  0  0  0  0  0  0  0  0  0  0
   59.9790   33.5720   47.9360 C   0  0  0  0  0  0  0  0  0  0  0  0
   58.7580   32.9160   48.1610 C   0  0  0  0  0  0  0  0  0  0  0  0
   57.6950   33.0700   47.2660 C   0  0  0  0  0  0  0  0  0  0  0  0
   57.8370   33.8860   46.1390 C   0  0  0  0  0  0  0  0  0  0  0  0
   56.7620   34.0240   45.2620 O   0  0  0  0  0  0  0  0  0  0  0  0
   59.0560   34.5500   45.9090 C   0  0  0  0  0  0  0  0  0  0  0  0
   59.2160   35.3700   44.7950 O   0  0  0  0  0  0  0  0  0  0  0  0
   60.1200   34.3920   46.8050 C   0  0  0  0  0  0  0  0  0  0  0  0
   61.4550   30.3990   48.9900 N   0  0  0  0  0  0  0  0  0  0  0  0
   60.3160   29.5900   48.5580 C   0  0  2  0  0  0  0  0  0  0  0  0
   59.7860   30.0900   47.2020 C   0  0  0  0  0  0  0  0  0  0  0  0
   58.9680   29.0440   46.4940 C   0  0  0  0  0  0  0  0  0  0  0  0
   59.5470   27.8120   46.1340 C   0  0  0  0  0  0  0  0  0  0  0  0
   58.7900   26.8470   45.4640 C   0  0  0  0  0  0  0  0  0  0  0  0
   57.4440   27.0870   45.1760 C   0  0  0  0  0  0  0  0  0  0  0  0
   56.8580   28.3050   45.5340 C   0  0  0  0  0  0  0  0  0  0  0  0
   55.5240   28.5480   45.2310 O   0  0  0  0  0  0  0  0  0  0  0  0
   57.6160   29.2800   46.1910 C   0  0  0  0  0  0  0  0  0  0  0  0
   59.2320   29.6810   49.5930 C   0  0  0  0  0  0  0  0  0  0  0  0
   58.0970   30.1370   49.2810 O   0  0  0  0  0  0  0  0  0  0  0  0
   59.4560   29.1960   50.9220 N   0  0  0  0  0  0  0  0  0  0  0  0
   60.3900   28.1000   51.1660 C   0  0  0  0  0  0  0  0  0  0  0  0
   60.3490   27.6930   52.9450 S   0  0  0  0  0  0  0  0  0  0  0  0
   58.7950   28.6160   53.1470 C   0  0  0  0  0  0  0  0  0  0  0  0
   58.8100   29.7440   52.1140 C   0  0  2  0  0  0  0  0  0  0  0  0
   57.4460   30.3290   51.8310 C   0  0  0  0  0  0  0  0  0  0  0  0
   57.3170   31.5020   51.3690 O   0  0  0  0  0  0  0  0  0  0  0  0
   56.2890   29.5080   52.0460 N   0  0  0  0  0  0  0  0  0  0  0  0
   55.3710   29.6760   53.1640 C   0  0  0  0  0  0  0  0  0  0  0  0
   54.1260   30.3830   52.7020 C   0  0  0  0  0  0  0  0  0  0  0  0
   53.0780   30.6270   53.6050 C   0  0  0  0  0  0  0  0  0  0  0  0
   51.9180   31.2790   53.1780 C   0  0  0  0  0  0  0  0  0  0  0  0
   51.7940   31.6840   51.8460 C   0  0  0  0  0  0  0  0  0  0  0  0
   50.6450   32.3370   51.4210 O   0  0  0  0  0  0  0  0  0  0  0  0
   52.8300   31.4360   50.9400 C   0  0  0  0  0  0  0  0  0  0  0  0
   53.9890   30.7840   51.3640 C   0  0  0  0  0  0  0  0  0  0  0  0
   59.6267   32.3218   50.0477 H   0  0  0  0  0  0  0  0  0  0  0  0
   60.9398   33.0900   51.0396 H   0  0  0  0  0  0  0  0  0  0  0  0
   61.4043   34.4090   49.2914 H   0  0  0  0  0  0  0  0  0  0  0  0
   61.9516   32.9254   48.4069 H   0  0  0  0  0  0  0  0  0  0  0  0
   58.6370   32.2764   49.0477 H   0  0  0  0  0  0  0  0  0  0  0  0
   56.7442   32.5479   47.4487 H   0  0  0  0  0  0  0  0  0  0  0  0
   56.8280   34.5700   44.4110 H   0  0  0  0  0  0  0  0  0  0  0  0
   61.0714   34.9129   46.6220 H   0  0  0  0  0  0  0  0  0  0  0  0
   60.6362   28.5440   48.4423 H   0  0  0  0  0  0  0  0  0  0  0  0
   59.1577   30.9768   47.3718 H   0  0  0  0  0  0  0  0  0  0  0  0
   60.6518   30.3302   46.5674 H   0  0  0  0  0  0  0  0  0  0  0  0
   60.5994   27.6083   46.3811 H   0  0  0  0  0  0  0  0  0  0  0  0
   59.2548   25.8966   45.1628 H   0  0  0  0  0  0  0  0  0  0  0  0
   56.8450   26.3173   44.6673 H   0  0  0  0  0  0  0  0  0  0  0  0
   57.1514   30.2366   46.4720 H   0  0  0  0  0  0  0  0  0  0  0  0
   60.0924   27.2202   50.5767 H   0  0  0  0  0  0  0  0  0  0  0  0
   61.4068   28.3970   50.8697 H   0  0  0  0  0  0  0  0  0  0  0  0
   57.9355   27.9527   52.9702 H   0  0  0  0  0  0  0  0  0  0  0  0
   58.7057   29.0178   54.1671 H   0  0  0  0  0  0  0  0  0  0  0  0
   59.3703   30.6068   52.5033 H   0  0  0  0  0  0  0  0  0  0  0  0
   55.1016   28.6883   53.5664 H   0  0  0  0  0  0  0  0  0  0  0  0
   55.8590   30.2757   53.9465 H   0  0  0  0  0  0  0  0  0  0  0  0
   53.1708   30.3036   54.6523 H   0  0  0  0  0  0  0  0  0  0  0  0
   51.1025   31.4735   53.8902 H   0  0  0  0  0  0  0  0  0  0  0  0
   52.7314   31.7551   49.8919 H   0  0  0  0  0  0  0  0  0  0  0  0
   54.7984   30.5836   50.6465 H   0  0  0  0  0  0  0  0  0  0  0  0
  1  2  2  0
  2  3  1  0
  3  4  1  0
  4  5  1  0
  5  6  2  0
  6  7  1  0
  7  8  2  0
  8  9  1  0
  8 10  1  0
 10 11  1  0
 10 12  2  0
  2 13  1  0
 13 14  1  0
 14 15  1  0
 15 16  1  0
 16 17  2  0
 17 18  1  0
 18 19  2  0
 19 20  1  0
 20 21  1  0
 20 22  2  0
 14 23  1  0
 23 24  2  0
 23 25  1  0
 25 26  1  0
 26 27  1  0
 27 28  1  0
 28 29  1  0
 29 30  1  0
 30 31  2  0
 30 32  1  0
 32 33  1  0
 33 34  1  0
 34 35  2  0
 35 36  1  0
 36 37  2  0
 37 38  1  0
 37 39  1  0
 39 40  2  0
 12  5  1  0
 22 16  1  0
 29 25  1  0
 40 34  1  0
  3 41  1  0
  3 42  1  0
  4 43  1  0
  4 44  1  0
  6 45  1  0
  7 46  1  0
  9 47  1  0
 12 48  1  0
 14 49  1  6
 15 50  1  0
 15 51  1  0
 17 52  1  0
 18 53  1  0
 19 54  1  0
 22 55  1  0
 26 56  1  0
 26 57  1  0
 28 58  1  0
 28 59  1  0
 29 60  1  1
 33 61  1  0
 33 62  1  0
 35 63  1  0
 36 64  1  0
 39 65  1  0
 40 66  1  0
M  CHG  5  11  -1  13  -1  21  -1  32  -1  38  -1
M  END
>  <UniqueID>  (81) 
71

>  <SMILES>  (81) 
O=C(CCc1ccc(O)c([O-])c1)[N-][C@H](Cc1cccc([O-])c1)C(=O)N1CSC[C@@H]1C(=O)[N-]Cc1ccc([O-])cc1

>  <Energy>  (81) 
62.86746623456336

>  <Genealogy>  (81) 
O=C(CCc1ccc(O)c([O-])c1)[N-]C(Cc1cccc([O-])c1)C(=O)N1CSCC1C(=O)[N-]Cc1ccc([O-])cc1 (protonated)
O=C(CCc1ccc(O)c([O-])c1)[N-][C@H](Cc1cccc([O-])c1)C(=O)N1CSC[C@@H]1C(=O)[N-]Cc1ccc([O-])cc1 (chirality)
O=C(CCc1ccc(O)c([O-])c1)[N-][C@H](Cc1cccc([O-])c1)C(=O)N1CSC[C@@H]1C(=O)[N-]Cc1ccc([O-])cc1 (3D coordinates assigned)
O=C(CCc1ccc(O)c([O-])c1)[N-][C@H](Cc1cccc([O-])c1)C(=O)N1CSC[C@@H]1C(=O)[N-]Cc1ccc([O-])cc1 (nonaromatic ring conformer: 62.86746623456336 kcal/mol)

>  <smiles>  (81) 
O=C(CCc1ccc(O)c(O)c1)NC(Cc1cccc(O)c1)C(=O)N1CSCC1C(=O)NCc1ccc(O)cc1

>  <score_type>  (81) 
oracle

>  <origin>  (81) 
adg

>  <m_score__min__energy>  (81) 
-23.140000000000001

>  <m_primary>  (81) 
energy

$$$$
81:0
     RDKit          3D

 42 44  0  0  0  0  0  0  0  0999 V2000
   59.9230   29.2570   47.5020 C   0  0  0  0  0  0  0  0  0  0  0  0
   59.1990   30.0000   46.6480 C   0  0  0  0  0  0  0  0  0  0  0  0
   58.5740   29.5330   45.4860 C   0  0  0  0  0  0  0  0  0  0  0  0
   58.5570   28.2710   45.0130 C   0  0  0  0  0  0  0  0  0  0  0  0
   57.6150   27.2330   45.4930 C   0  0  0  0  0  0  0  0  0  0  0  0
   56.2330   27.4750   45.5830 C   0  0  0  0  0  0  0  0  0  0  0  0
   55.7060   28.7120   45.2240 O   0  0  0  0  0  0  0  0  0  0  0  0
   55.4010   26.4880   46.0090 N   0  0  0  0  0  0  0  0  0  0  0  0
   55.8760   25.2590   46.3330 C   0  0  0  0  0  0  0  0  0  0  0  0
   55.0850   24.3640   46.7270 O   0  0  0  0  0  0  0  0  0  0  0  0
   57.2020   24.9930   46.2250 N   0  0  0  0  0  0  0  0  0  0  0  0
   58.0780   25.9440   45.8070 C   0  0  0  0  0  0  0  0  0  0  0  0
   59.3020   25.6610   45.7170 O   0  0  0  0  0  0  0  0  0  0  0  0
   57.9220   30.6210   44.9270 C   0  0  0  0  0  0  0  0  0  0  0  0
   58.1750   31.6990   45.7490 C   0  0  0  0  0  0  0  0  0  0  0  0
   57.6370   33.0790   45.5240 C   0  0  0  0  0  0  0  0  0  0  0  0
   58.9550   31.3320   46.7940 N   0  0  0  0  0  0  0  0  0  0  0  0
   59.4020   32.2320   47.8700 C   0  0  0  0  0  0  0  0  0  0  0  0
   60.8750   32.5700   47.7220 C   0  0  0  0  0  0  0  0  0  0  0  0
   61.8230   31.7420   48.3500 C   0  0  0  0  0  0  0  0  0  0  0  0
   63.1890   32.0070   48.2420 C   0  0  0  0  0  0  0  0  0  0  0  0
   63.6320   33.0960   47.4950 C   0  0  0  0  0  0  0  0  0  0  0  0
   62.7120   33.9160   46.8430 C   0  0  0  0  0  0  0  0  0  0  0  0
   61.3320   33.6620   46.9340 C   0  0  0  0  0  0  0  0  0  0  0  0
   60.3800   34.5630   46.1900 C   0  0  0  0  0  0  0  0  0  0  0  0
   60.3742   29.7231   48.3903 H   0  0  0  0  0  0  0  0  0  0  0  0
   60.0645   28.1827   47.3128 H   0  0  0  0  0  0  0  0  0  0  0  0
   59.2798   27.9976   44.2302 H   0  0  0  0  0  0  0  0  0  0  0  0
   54.7530   28.9620   45.4630 H   0  0  0  0  0  0  0  0  0  0  0  0
   57.3198   30.6240   44.0065 H   0  0  0  0  0  0  0  0  0  0  0  0
   57.4488   33.5619   46.4943 H   0  0  0  0  0  0  0  0  0  0  0  0
   58.3704   33.6704   44.9563 H   0  0  0  0  0  0  0  0  0  0  0  0
   56.6968   33.0180   44.9563 H   0  0  0  0  0  0  0  0  0  0  0  0
   58.8142   33.1609   47.8291 H   0  0  0  0  0  0  0  0  0  0  0  0
   59.2548   31.7241   48.8346 H   0  0  0  0  0  0  0  0  0  0  0  0
   61.4832   30.8740   48.9340 H   0  0  0  0  0  0  0  0  0  0  0  0
   63.9167   31.3551   48.7474 H   0  0  0  0  0  0  0  0  0  0  0  0
   64.7085   33.3092   47.4194 H   0  0  0  0  0  0  0  0  0  0  0  0
   63.0697   34.7712   46.2508 H   0  0  0  0  0  0  0  0  0  0  0  0
   59.7766   35.1341   46.9109 H   0  0  0  0  0  0  0  0  0  0  0  0
   60.9517   35.2586   45.5580 H   0  0  0  0  0  0  0  0  0  0  0  0
   59.7169   33.9539   45.5580 H   0  0  0  0  0  0  0  0  0  0  0  0
  1  2  2  0
  2  3  1  0
  3  4  2  3
  4  5  1  0
  5  6  2  0
  6  7  1  0
  6  8  1  0
  8  9  1  0
  9 10  2  0
  9 11  1  0
 11 12  1  0
 12 13  2  0
  3 14  1  0
 14 15  2  0
 15 16  1  0
 15 17  1  0
 17 18  1  0
 18 19  1  0
 19 20  2  0
 20 21  1  0
 21 22  2  0
 22 23  1  0
 23 24  2  0
 24 25  1  0
 17  2  1  0
 24 19  1  0
 12  5  1  0
  1 26  1  0
  1 27  1  0
  4 28  1  0
  7 29  1  0
 14 30  1  0
 16 31  1  0
 16 32  1  0
 16 33  1  0
 18 34  1  0
 18 35  1  0
 20 36  1  0
 21 37  1  0
 22 38  1  0
 23 39  1  0
 25 40  1  0
 25 41  1  0
 25 42  1  0
M  CHG  2   8  -1  11  -1
M  END
>  <UniqueID>  (82) 
72

>  <SMILES>  (82) 
C=c1c(=Cc2c(O)[n-]c(=O)[n-]c2=O)cc(C)n1Cc1ccccc1C

>  <Energy>  (82) 
83.91286445727043

>  <Genealogy>  (82) 
C=c1c(=Cc2c(O)[n-]c(=O)[n-]c2=O)cc(C)n1Cc1ccccc1C (protonated)
C=c1c(=Cc2c(O)[n-]c(=O)[n-]c2=O)cc(C)n1Cc1ccccc1C (3D coordinates assigned)
C=c1c(=Cc2c(O)[n-]c(=O)[n-]c2=O)cc(C)n1Cc1ccccc1C (optimized conformer: 83.91286445727043 kcal/mol)

>  <smiles>  (82) 
C=c1c(=Cc2c(O)[nH]c(=O)[nH]c2=O)cc(C)n1Cc1ccccc1C

>  <score_type>  (82) 
oracle

>  <origin>  (82) 
adg

>  <m_score__min__energy>  (82) 
-13.289999999999999

>  <m_primary>  (82) 
energy

$$$$
82:0
     RDKit          3D

 52 55  0  0  0  0  0  0  0  0999 V2000
   58.5300   29.0640   47.1950 C   0  0  0  0  0  0  0  0  0  0  0  0
   58.2140   29.6140   46.0130 C   0  0  0  0  0  0  0  0  0  0  0  0
   57.5580   29.0040   44.9300 C   0  0  0  0  0  0  0  0  0  0  0  0
   57.1780   27.7260   44.7260 C   0  0  0  0  0  0  0  0  0  0  0  0
   57.2220   26.6450   45.7290 C   0  0  0  0  0  0  0  0  0  0  0  0
   56.0510   26.1870   46.3550 C   0  0  0  0  0  0  0  0  0  0  0  0
   54.8100   26.7140   46.0150 O   0  0  0  0  0  0  0  0  0  0  0  0
   56.1270   25.2210   47.3070 N   0  0  0  0  0  0  0  0  0  0  0  0
   57.3220   24.6970   47.6800 C   0  0  0  0  0  0  0  0  0  0  0  0
   57.3680   23.8000   48.5610 O   0  0  0  0  0  0  0  0  0  0  0  0
   58.4700   25.1440   47.1080 N   0  0  0  0  0  0  0  0  0  0  0  0
   58.4480   26.1080   46.1510 C   0  0  0  0  0  0  0  0  0  0  0  0
   59.5320   26.5050   45.6470 O   0  0  0  0  0  0  0  0  0  0  0  0
   57.3470   30.0020   43.9910 C   0  0  0  0  0  0  0  0  0  0  0  0
   57.9010   31.1560   44.5020 C   0  0  0  0  0  0  0  0  0  0  0  0
   57.9190   32.4810   43.8010 C   0  0  0  0  0  0  0  0  0  0  0  0
   58.4400   30.9200   45.7180 N   0  0  0  0  0  0  0  0  0  0  0  0
   59.0580   31.9090   46.5590 C   0  0  0  0  0  0  0  0  0  0  0  0
   60.4090   31.7840   46.9100 C   0  0  0  0  0  0  0  0  0  0  0  0
   61.0250   32.7410   47.7380 C   0  0  0  0  0  0  0  0  0  0  0  0
   62.4600   32.6310   48.1070 C   0  0  0  0  0  0  0  0  0  0  0  0
   63.3030   32.4140   47.1910 O   0  0  0  0  0  0  0  0  0  0  0  0
   62.8970   32.7020   49.4890 N   0  0  0  0  0  0  0  0  0  0  0  0
   62.9720   34.1120   49.9500 C   0  0  0  0  0  0  0  0  0  0  0  0
   63.8700   34.2350   51.1880 C   0  0  0  0  0  0  0  0  0  0  0  0
   65.2600   33.8310   50.9010 N   0  0  0  0  0  0  0  0  0  0  0  0
   65.3890   32.8770   49.7840 C   0  0  0  0  0  0  0  0  0  0  0  0
   64.1680   31.9490   49.6750 C   0  0  0  0  0  0  0  0  0  0  0  0
   60.2660   33.8340   48.1940 C   0  0  0  0  0  0  0  0  0  0  0  0
   58.9190   33.9560   47.8480 C   0  0  0  0  0  0  0  0  0  0  0  0
   58.3120   32.9970   47.0340 C   0  0  0  0  0  0  0  0  0  0  0  0
   57.0070   33.1360   46.6920 F   0  0  0  0  0  0  0  0  0  0  0  0
   59.0480   29.6622   47.9591 H   0  0  0  0  0  0  0  0  0  0  0  0
   58.2711   28.0148   47.4002 H   0  0  0  0  0  0  0  0  0  0  0  0
   56.8027   27.4673   43.7249 H   0  0  0  0  0  0  0  0  0  0  0  0
   56.8353   29.8936   43.0233 H   0  0  0  0  0  0  0  0  0  0  0  0
   57.9300   33.2900   44.5463 H   0  0  0  0  0  0  0  0  0  0  0  0
   58.8182   32.5504   43.1712 H   0  0  0  0  0  0  0  0  0  0  0  0
   57.0220   32.5748   43.1712 H   0  0  0  0  0  0  0  0  0  0  0  0
   60.9930   30.9305   46.5351 H   0  0  0  0  0  0  0  0  0  0  0  0
   62.1700   32.2480   50.0890 H   0  0  0  0  0  0  0  0  0  0  0  0
   63.3850   34.7338   49.1420 H   0  0  0  0  0  0  0  0  0  0  0  0
   61.9593   34.4500   50.2148 H   0  0  0  0  0  0  0  0  0  0  0  0
   63.8665   35.2813   51.5275 H   0  0  0  0  0  0  0  0  0  0  0  0
   63.4735   33.5650   51.9651 H   0  0  0  0  0  0  0  0  0  0  0  0
   65.6540   33.3870   51.7650 H   0  0  0  0  0  0  0  0  0  0  0  0
   65.4912   33.4411   48.8452 H   0  0  0  0  0  0  0  0  0  0  0  0
   66.2748   32.2523   49.9714 H   0  0  0  0  0  0  0  0  0  0  0  0
   64.3100   31.2780   48.8150 H   0  0  0  0  0  0  0  0  0  0  0  0
   64.0895   31.3863   50.6169 H   0  0  0  0  0  0  0  0  0  0  0  0
   60.7377   34.5989   48.8284 H   0  0  0  0  0  0  0  0  0  0  0  0
   58.3335   34.8106   48.2179 H   0  0  0  0  0  0  0  0  0  0  0  0
  1  2  2  0
  2  3  1  0
  3  4  2  3
  4  5  1  0
  5  6  2  0
  6  7  1  0
  6  8  1  0
  8  9  1  0
  9 10  2  0
  9 11  1  0
 11 12  1  0
 12 13  2  0
  3 14  1  0
 14 15  2  0
 15 16  1  0
 15 17  1  0
 17 18  1  0
 18 19  2  0
 19 20  1  0
 20 21  1  0
 21 22  2  0
 21 23  1  0
 23 24  1  0
 24 25  1  0
 25 26  1  0
 26 27  1  0
 27 28  1  0
 20 29  2  0
 29 30  1  0
 30 31  2  0
 31 32  1  0
 17  2  1  0
 31 18  1  0
 12  5  1  0
 28 23  1  0
  1 33  1  0
  1 34  1  0
  4 35  1  0
 14 36  1  0
 16 37  1  0
 16 38  1  0
 16 39  1  0
 19 40  1  0
 23 41  1  0
 24 42  1  0
 24 43  1  0
 25 44  1  0
 25 45  1  0
 26 46  1  0
 27 47  1  0
 27 48  1  0
 28 49  1  0
 28 50  1  0
 29 51  1  0
 30 52  1  0
M  CHG  4   7  -1   8  -1  11  -1  23   1
M  END
>  <UniqueID>  (83) 
73

>  <SMILES>  (83) 
C=c1c(=Cc2c([O-])[n-]c(=O)[n-]c2=O)cc(C)n1-c1cc(C(=O)[NH+]2CCNCC2)ccc1F

>  <Energy>  (83) 
120.09688380400145

>  <Genealogy>  (83) 
C=c1c(=Cc2c([O-])[n-]c(=O)[n-]c2=O)cc(C)n1-c1cc(C(=O)[NH+]2CCNCC2)ccc1F (protonated)
C=c1c(=Cc2c([O-])[n-]c(=O)[n-]c2=O)cc(C)n1-c1cc(C(=O)[NH+]2CCNCC2)ccc1F (3D coordinates assigned)
C=c1c(=Cc2c([O-])[n-]c(=O)[n-]c2=O)cc(C)n1-c1cc(C(=O)[NH+]2CCNCC2)ccc1F (nonaromatic ring conformer: 120.09688380400145 kcal/mol)

>  <smiles>  (83) 
C=c1c(=Cc2c(O)[nH]c(=O)[nH]c2=O)cc(C)n1-c1cc(C(=O)N2CCNCC2)ccc1F

>  <score_type>  (83) 
oracle

>  <origin>  (83) 
adg

>  <m_score__min__energy>  (83) 
-15.720000000000001

>  <m_primary>  (83) 
energy

$$$$
83:0
     RDKit          3D

 36 38  0  0  0  0  0  0  0  0999 V2000
   55.5480   24.6510   46.9090 O   0  0  0  0  0  0  0  0  0  0  0  0
   56.0230   25.6750   46.3520 C   0  0  0  0  0  0  0  0  0  0  0  0
   55.1800   26.7240   46.0060 O   0  0  0  0  0  0  0  0  0  0  0  0
   57.4750   25.7390   46.0090 C   0  0  0  0  0  0  0  0  0  0  0  0
   58.0390   27.0000   46.4760 N   0  0  0  0  0  0  0  0  0  0  0  0
   58.7200   27.8960   45.7430 C   0  0  0  0  0  0  0  0  0  0  0  0
   58.9960   28.9460   46.5900 C   0  0  0  0  0  0  0  0  0  0  0  0
   59.8030   30.1640   46.2700 C   0  0  0  0  0  0  0  0  0  0  0  0
   58.9340   31.2120   45.7170 N   0  0  0  0  0  0  0  0  0  0  0  0
   57.8930   30.8500   44.7860 C   0  0  0  0  0  0  0  0  0  0  0  0
   57.9840   31.2000   43.4280 C   0  0  0  0  0  0  0  0  0  0  0  0
   56.9650   30.8230   42.5500 C   0  0  0  0  0  0  0  0  0  0  0  0
   55.8720   30.0990   43.0250 C   0  0  0  0  0  0  0  0  0  0  0  0
   55.8160   29.7550   44.3760 C   0  0  0  0  0  0  0  0  0  0  0  0
   56.8170   30.1310   45.2160 N   0  0  0  0  0  0  0  0  0  0  0  0
   59.0590   32.5600   46.2190 C   0  0  0  0  0  0  0  0  0  0  0  0
   59.1530   32.8130   47.5980 C   0  0  0  0  0  0  0  0  0  0  0  0
   59.3020   34.1270   48.0470 C   0  0  0  0  0  0  0  0  0  0  0  0
   59.3660   35.1740   47.1270 C   0  0  0  0  0  0  0  0  0  0  0  0
   59.2840   34.8880   45.7630 C   0  0  0  0  0  0  0  0  0  0  0  0
   59.1380   33.6030   45.3440 N   0  0  0  0  0  0  0  0  0  0  0  0
   58.4870   28.6610   47.8060 N   0  0  0  0  0  0  0  0  0  0  0  0
   57.9010   27.4760   47.7030 N   0  0  0  0  0  0  0  0  0  0  0  0
   58.0013   24.9026   46.4922 H   0  0  0  0  0  0  0  0  0  0  0  0
   57.5931   25.6711   44.9175 H   0  0  0  0  0  0  0  0  0  0  0  0
   59.0000   27.8089   44.6828 H   0  0  0  0  0  0  0  0  0  0  0  0
   60.2821   30.5350   47.1880 H   0  0  0  0  0  0  0  0  0  0  0  0
   60.5713   29.9031   45.5273 H   0  0  0  0  0  0  0  0  0  0  0  0
   58.8515   31.7668   43.0590 H   0  0  0  0  0  0  0  0  0  0  0  0
   57.0247   31.0967   41.4863 H   0  0  0  0  0  0  0  0  0  0  0  0
   55.0625   29.8022   42.3418 H   0  0  0  0  0  0  0  0  0  0  0  0
   54.9617   29.1794   44.7618 H   0  0  0  0  0  0  0  0  0  0  0  0
   59.1096   31.9827   48.3182 H   0  0  0  0  0  0  0  0  0  0  0  0
   59.3688   34.3363   49.1248 H   0  0  0  0  0  0  0  0  0  0  0  0
   59.4797   36.2122   47.4722 H   0  0  0  0  0  0  0  0  0  0  0  0
   59.3376   35.7033   45.0265 H   0  0  0  0  0  0  0  0  0  0  0  0
  1  2  2  0
  2  3  1  0
  2  4  1  0
  4  5  1  0
  5  6  1  0
  6  7  2  0
  7  8  1  0
  8  9  1  0
  9 10  1  0
 10 11  2  0
 11 12  1  0
 12 13  2  0
 13 14  1  0
 14 15  2  0
  9 16  1  0
 16 17  2  0
 17 18  1  0
 18 19  2  0
 19 20  1  0
 20 21  2  0
  7 22  1  0
 22 23  2  0
 23  5  1  0
 15 10  1  0
 21 16  1  0
  4 24  1  0
  4 25  1  0
  6 26  1  0
  8 27  1  0
  8 28  1  0
 11 29  1  0
 12 30  1  0
 13 31  1  0
 14 32  1  0
 17 33  1  0
 18 34  1  0
 19 35  1  0
 20 36  1  0
M  CHG  1   3  -1
M  END
>  <UniqueID>  (84) 
74

>  <SMILES>  (84) 
O=C([O-])Cn1cc(CN(c2ccccn2)c2ccccn2)nn1

>  <Energy>  (84) 
77.4481018737212

>  <Genealogy>  (84) 
O=C([O-])Cn1cc(CN(c2ccccn2)c2ccccn2)nn1 (protonated)
O=C([O-])Cn1cc(CN(c2ccccn2)c2ccccn2)nn1 (3D coordinates assigned)
O=C([O-])Cn1cc(CN(c2ccccn2)c2ccccn2)nn1 (optimized conformer: 77.4481018737212 kcal/mol)

>  <smiles>  (84) 
O=C(O)Cn1cc(CN(c2ccccn2)c2ccccn2)nn1

>  <score_type>  (84) 
oracle

>  <origin>  (84) 
adg

>  <m_score__min__energy>  (84) 
-10.57

>  <m_primary>  (84) 
energy

$$$$
84:0
     RDKit          3D

 34 35  0  0  0  0  0  0  0  0999 V2000
   56.0760   29.7130   43.4200 C   0  0  0  0  0  0  0  0  0  0  0  0
   57.0750   30.3110   44.3590 C   0  0  0  0  0  0  0  0  0  0  0  0
   58.2230   29.6000   44.7180 C   0  0  0  0  0  0  0  0  0  0  0  0
   59.1350   30.1990   45.5940 C   0  0  0  0  0  0  0  0  0  0  0  0
   60.3810   29.4800   46.0000 C   0  0  0  0  0  0  0  0  0  0  0  0
   58.8910   31.4500   46.0640 N   0  0  0  0  0  0  0  0  0  0  0  0
   57.7740   32.1320   45.6980 C   0  0  0  0  0  0  0  0  0  0  0  0
   57.4880   33.7820   46.3290 S   0  0  0  0  0  0  0  0  0  0  0  0
   58.8870   33.7450   47.5030 C   0  0  0  0  0  0  0  0  0  0  0  0
   60.1600   34.1810   46.8360 C   0  0  0  0  0  0  0  0  0  0  0  0
   60.1270   35.1620   46.0440 O   0  0  0  0  0  0  0  0  0  0  0  0
   61.4020   33.4870   47.0550 N   0  0  0  0  0  0  0  0  0  0  0  0
   61.5750   32.3830   47.9860 C   0  0  0  0  0  0  0  0  0  0  0  0
   62.9990   31.8880   47.7750 C   0  0  0  0  0  0  0  0  0  0  0  0
   63.7230   33.0020   47.0210 C   0  0  0  0  0  0  0  0  0  0  0  0
   62.6330   33.8450   46.3740 C   0  0  0  0  0  0  0  0  0  0  0  0
   56.8750   31.5620   44.8540 N   0  0  0  0  0  0  0  0  0  0  0  0
   55.2725   29.2320   43.9971 H   0  0  0  0  0  0  0  0  0  0  0  0
   55.6491   30.5042   42.7862 H   0  0  0  0  0  0  0  0  0  0  0  0
   56.5717   28.9630   42.7862 H   0  0  0  0  0  0  0  0  0  0  0  0
   58.4059   28.5908   44.3204 H   0  0  0  0  0  0  0  0  0  0  0  0
   60.4427   29.4444   47.0977 H   0  0  0  0  0  0  0  0  0  0  0  0
   60.3597   28.4553   45.6005 H   0  0  0  0  0  0  0  0  0  0  0  0
   61.2575   30.0112   45.6005 H   0  0  0  0  0  0  0  0  0  0  0  0
   58.6704   34.4221   48.3424 H   0  0  0  0  0  0  0  0  0  0  0  0
   59.0153   32.7137   47.8635 H   0  0  0  0  0  0  0  0  0  0  0  0
   61.4383   32.7289   49.0212 H   0  0  0  0  0  0  0  0  0  0  0  0
   60.8373   31.5856   47.8129 H   0  0  0  0  0  0  0  0  0  0  0  0
   63.4867   31.7019   48.7433 H   0  0  0  0  0  0  0  0  0  0  0  0
   63.0184   30.9422   47.2138 H   0  0  0  0  0  0  0  0  0  0  0  0
   64.3161   33.6127   47.7176 H   0  0  0  0  0  0  0  0  0  0  0  0
   64.4182   32.5964   46.2712 H   0  0  0  0  0  0  0  0  0  0  0  0
   62.8470   34.9158   46.5066 H   0  0  0  0  0  0  0  0  0  0  0  0
   62.5662   33.6604   45.2917 H   0  0  0  0  0  0  0  0  0  0  0  0
  1  2  1  0
  2  3  2  0
  3  4  1  0
  4  5  1  0
  4  6  2  0
  6  7  1  0
  7  8  1  0
  8  9  1  0
  9 10  1  0
 10 11  2  0
 10 12  1  0
 12 13  1  0
 13 14  1  0
 14 15  1  0
 15 16  1  0
  7 17  2  0
 17  2  1  0
 16 12  1  0
  1 18  1  0
  1 19  1  0
  1 20  1  0
  3 21  1  0
  5 22  1  0
  5 23  1  0
  5 24  1  0
  9 25  1  0
  9 26  1  0
 13 27  1  0
 13 28  1  0
 14 29  1  0
 14 30  1  0
 15 31  1  0
 15 32  1  0
 16 33  1  0
 16 34  1  0
M  END
>  <UniqueID>  (85) 
75

>  <SMILES>  (85) 
Cc1cc(C)nc(SCC(=O)N2CCCC2)n1

>  <Energy>  (85) 
24.813449822212444

>  <Genealogy>  (85) 
Cc1cc(C)nc(SCC(=O)N2CCCC2)n1 (3D coordinates assigned)
Cc1cc(C)nc(SCC(=O)N2CCCC2)n1 (nonaromatic ring conformer: 24.813449822212444 kcal/mol)

>  <smiles>  (85) 
Cc1cc(C)nc(SCC(=O)N2CCCC2)n1

>  <score_type>  (85) 
oracle

>  <origin>  (85) 
adg

>  <m_score__min__energy>  (85) 
-7.0700000000000003

>  <m_primary>  (85) 
energy

$$$$
85:0
     RDKit          3D

 33 35  0  0  0  0  0  0  0  0999 V2000
   55.6620   28.9780   44.8020 O   0  0  0  0  0  0  0  0  0  0  0  0
   56.7470   28.8600   45.4340 C   0  0  0  0  0  0  0  0  0  0  0  0
   57.1950   27.5090   45.8420 C   0  0  0  0  0  0  0  0  0  0  0  0
   58.5680   27.2330   45.9670 C   0  0  0  0  0  0  0  0  0  0  0  0
   59.0040   25.9550   46.3370 C   0  0  0  0  0  0  0  0  0  0  0  0
   60.3630   25.6940   46.4590 O   0  0  0  0  0  0  0  0  0  0  0  0
   58.0730   24.9420   46.5760 C   0  0  0  0  0  0  0  0  0  0  0  0
   56.7070   25.2010   46.4440 C   0  0  0  0  0  0  0  0  0  0  0  0
   56.2640   26.4760   46.0760 C   0  0  0  0  0  0  0  0  0  0  0  0
   54.8970   26.7120   45.9610 O   0  0  0  0  0  0  0  0  0  0  0  0
   57.5290   30.0370   45.7250 N   0  0  0  0  0  0  0  0  0  0  0  0
   58.5130   30.0240   46.8190 C   0  0  0  0  0  0  0  0  0  0  0  0
   58.5050   31.3570   47.5620 C   0  0  0  0  0  0  0  0  0  0  0  0
   58.7340   32.4790   46.5940 C   0  0  0  0  0  0  0  0  0  0  0  0
   59.4500   33.6200   46.9880 C   0  0  0  0  0  0  0  0  0  0  0  0
   59.6380   34.6760   46.0910 C   0  0  0  0  0  0  0  0  0  0  0  0
   59.1020   34.6040   44.8030 C   0  0  0  0  0  0  0  0  0  0  0  0
   58.3720   33.4790   44.4090 C   0  0  0  0  0  0  0  0  0  0  0  0
   58.1870   32.4070   45.2980 C   0  0  0  0  0  0  0  0  0  0  0  0
   57.3450   31.2250   44.8730 C   0  0  0  0  0  0  0  0  0  0  0  0
   59.3046   28.0265   45.7728 H   0  0  0  0  0  0  0  0  0  0  0  0
   58.4160   23.9387   46.8686 H   0  0  0  0  0  0  0  0  0  0  0  0
   55.9768   24.3996   46.6300 H   0  0  0  0  0  0  0  0  0  0  0  0
   58.2617   29.2163   47.5222 H   0  0  0  0  0  0  0  0  0  0  0  0
   59.5144   29.8598   46.3944 H   0  0  0  0  0  0  0  0  0  0  0  0
   57.5318   31.4939   48.0562 H   0  0  0  0  0  0  0  0  0  0  0  0
   59.3065   31.3578   48.3154 H   0  0  0  0  0  0  0  0  0  0  0  0
   59.8643   33.6837   48.0050 H   0  0  0  0  0  0  0  0  0  0  0  0
   60.2085   35.5643   46.3999 H   0  0  0  0  0  0  0  0  0  0  0  0
   59.2547   35.4341   44.0976 H   0  0  0  0  0  0  0  0  0  0  0  0
   57.9404   33.4328   43.3983 H   0  0  0  0  0  0  0  0  0  0  0  0
   56.2860   31.5201   44.9107 H   0  0  0  0  0  0  0  0  0  0  0  0
   57.6644   30.9481   43.8575 H   0  0  0  0  0  0  0  0  0  0  0  0
  1  2  2  0
  2  3  1  0
  3  4  2  0
  4  5  1  0
  5  6  1  0
  5  7  2  0
  7  8  1  0
  8  9  2  0
  9 10  1  0
  2 11  1  0
 11 12  1  0
 12 13  1  0
 13 14  1  0
 14 15  2  0
 15 16  1  0
 16 17  2  0
 17 18  1  0
 18 19  2  0
 19 20  1  0
  9  3  1  0
 20 11  1  0
 19 14  1  0
  4 21  1  0
  7 22  1  0
  8 23  1  0
 12 24  1  0
 12 25  1  0
 13 26  1  0
 13 27  1  0
 15 28  1  0
 16 29  1  0
 17 30  1  0
 18 31  1  0
 20 32  1  0
 20 33  1  0
M  CHG  2   6  -1  10  -1
M  END
>  <UniqueID>  (86) 
76

>  <SMILES>  (86) 
O=C(c1cc([O-])ccc1[O-])N1CCc2ccccc2C1

>  <Energy>  (86) 
43.262169659289356

>  <Genealogy>  (86) 
O=C(c1cc([O-])ccc1[O-])N1CCc2ccccc2C1 (protonated)
O=C(c1cc([O-])ccc1[O-])N1CCc2ccccc2C1 (3D coordinates assigned)
O=C(c1cc([O-])ccc1[O-])N1CCc2ccccc2C1 (nonaromatic ring conformer: 43.262169659289356 kcal/mol)

>  <smiles>  (86) 
O=C(c1cc(O)ccc1O)N1CCc2ccccc2C1

>  <score_type>  (86) 
oracle

>  <origin>  (86) 
adg

>  <m_score__min__energy>  (86) 
-12.77

>  <m_primary>  (86) 
energy

$$$$
86:0
     RDKit          3D

 40 42  0  0  0  0  0  0  0  0999 V2000
   54.6650   23.3780   45.2230 C   0  0  0  0  0  0  0  0  0  0  0  0
   55.6120   23.7270   46.3690 C   0  0  0  0  0  0  0  0  0  0  0  0
   56.5590   24.7840   45.9570 N   0  0  0  0  0  0  0  0  0  0  0  0
   57.9020   24.5020   45.7400 C   0  0  0  0  0  0  0  0  0  0  0  0
   58.4800   23.1310   45.9530 C   0  0  0  0  0  0  0  0  0  0  0  0
   58.7560   25.4900   45.3460 N   0  0  0  0  0  0  0  0  0  0  0  0
   58.2870   26.7390   45.1490 C   0  0  0  0  0  0  0  0  0  0  0  0
   59.1660   28.0830   44.6720 S   0  0  0  0  0  0  0  0  0  0  0  0
   57.8340   29.1330   44.6740 C   0  0  0  0  0  0  0  0  0  0  0  0
   57.9200   30.5670   44.3420 C   0  0  0  0  0  0  0  0  0  0  0  0
   58.8750   30.9670   43.6220 O   0  0  0  0  0  0  0  0  0  0  0  0
   56.9280   31.5020   44.7950 N   0  0  0  0  0  0  0  0  0  0  0  0
   57.0480   32.9390   44.5650 C   0  0  0  0  0  0  0  0  0  0  0  0
   57.9940   33.5500   45.5620 C   0  0  0  0  0  0  0  0  0  0  0  0
   58.0250   33.0740   46.8830 C   0  0  0  0  0  0  0  0  0  0  0  0
   58.8880   33.6520   47.8190 C   0  0  0  0  0  0  0  0  0  0  0  0
   59.7220   34.7090   47.4450 C   0  0  0  0  0  0  0  0  0  0  0  0
   59.6940   35.1910   46.1340 C   0  0  0  0  0  0  0  0  0  0  0  0
   58.8320   34.6170   45.1940 C   0  0  0  0  0  0  0  0  0  0  0  0
   56.6970   28.4150   45.0740 C   0  0  0  0  0  0  0  0  0  0  0  0
   55.4390   28.9840   45.2390 O   0  0  0  0  0  0  0  0  0  0  0  0
   56.9670   27.0620   45.3310 C   0  0  0  0  0  0  0  0  0  0  0  0
   56.0840   26.0610   45.7410 C   0  0  0  0  0  0  0  0  0  0  0  0
   54.8630   26.3340   45.9090 O   0  0  0  0  0  0  0  0  0  0  0  0
   53.7073   23.0251   45.6333 H   0  0  0  0  0  0  0  0  0  0  0  0
   54.4922   24.2715   44.6051 H   0  0  0  0  0  0  0  0  0  0  0  0
   55.1133   22.5860   44.6051 H   0  0  0  0  0  0  0  0  0  0  0  0
   55.0243   24.0828   47.2281 H   0  0  0  0  0  0  0  0  0  0  0  0
   56.1821   22.8276   46.6446 H   0  0  0  0  0  0  0  0  0  0  0  0
   58.5639   22.9320   47.0316 H   0  0  0  0  0  0  0  0  0  0  0  0
   57.8219   22.3799   45.4916 H   0  0  0  0  0  0  0  0  0  0  0  0
   59.4772   23.0777   45.4916 H   0  0  0  0  0  0  0  0  0  0  0  0
   56.0470   31.1540   45.2320 H   0  0  0  0  0  0  0  0  0  0  0  0
   57.4301   33.1131   43.5483 H   0  0  0  0  0  0  0  0  0  0  0  0
   56.0577   33.4037   44.6801 H   0  0  0  0  0  0  0  0  0  0  0  0
   57.3683   32.2438   47.1822 H   0  0  0  0  0  0  0  0  0  0  0  0
   58.9105   33.2740   48.8518 H   0  0  0  0  0  0  0  0  0  0  0  0
   60.4007   35.1616   48.1829 H   0  0  0  0  0  0  0  0  0  0  0  0
   60.3509   36.0232   45.8407 H   0  0  0  0  0  0  0  0  0  0  0  0
   58.8097   35.0016   44.1637 H   0  0  0  0  0  0  0  0  0  0  0  0
  1  2  1  0
  2  3  1  0
  3  4  1  0
  4  5  1  0
  4  6  2  0
  6  7  1  0
  7  8  1  0
  8  9  1  0
  9 10  1  0
 10 11  2  0
 10 12  1  0
 12 13  1  0
 13 14  1  0
 14 15  2  0
 15 16  1  0
 16 17  2  0
 17 18  1  0
 18 19  2  0
  9 20  2  0
 20 21  1  0
 20 22  1  0
 22 23  1  0
 23 24  2  0
 23  3  1  0
 22  7  2  0
 19 14  1  0
  1 25  1  0
  1 26  1  0
  1 27  1  0
  2 28  1  0
  2 29  1  0
  5 30  1  0
  5 31  1  0
  5 32  1  0
 12 33  1  0
 13 34  1  0
 13 35  1  0
 15 36  1  0
 16 37  1  0
 17 38  1  0
 18 39  1  0
 19 40  1  0
M  CHG  1  21  -1
M  END
>  <UniqueID>  (87) 
77

>  <SMILES>  (87) 
CCn1c(C)nc2sc(C(=O)NCc3ccccc3)c([O-])c2c1=O

>  <Energy>  (87) 
77.16462967673536

>  <Genealogy>  (87) 
CCn1c(C)nc2sc(C(=O)NCc3ccccc3)c([O-])c2c1=O (protonated)
CCn1c(C)nc2sc(C(=O)NCc3ccccc3)c([O-])c2c1=O (3D coordinates assigned)
CCn1c(C)nc2sc(C(=O)NCc3ccccc3)c([O-])c2c1=O (optimized conformer: 77.16462967673536 kcal/mol)

>  <smiles>  (87) 
CCn1c(C)nc2sc(C(=O)NCc3ccccc3)c(O)c2c1=O

>  <score_type>  (87) 
oracle

>  <origin>  (87) 
adg

>  <m_score__min__energy>  (87) 
-11.15

>  <m_primary>  (87) 
energy

$$$$
87:0
     RDKit          3D

 45 47  0  0  0  0  0  0  0  0999 V2000
   60.0130   29.2580   45.0380 C   0  0  0  0  0  0  0  0  0  0  0  0
   58.6990   28.9430   45.0680 C   0  0  0  0  0  0  0  0  0  0  0  0
   58.3120   27.6710   45.5630 C   0  0  0  0  0  0  0  0  0  0  0  0
   59.1850   26.8710   46.0000 O   0  0  0  0  0  0  0  0  0  0  0  0
   56.9410   27.3390   45.6100 C   0  0  0  0  0  0  0  0  0  0  0  0
   56.4510   26.1520   46.0260 C   0  0  0  0  0  0  0  0  0  0  0  0
   56.5140   24.8720   45.2950 C   0  0  0  0  0  0  0  0  0  0  0  0
   57.7130   24.2440   44.9160 C   0  0  0  0  0  0  0  0  0  0  0  0
   57.5230   23.1020   44.1500 C   0  0  0  0  0  0  0  0  0  0  0  0
   55.8710   22.8990   43.9200 S   0  0  0  0  0  0  0  0  0  0  0  0
   55.3790   24.2500   44.7880 C   0  0  0  0  0  0  0  0  0  0  0  0
   56.0410   28.2860   45.2550 N   0  0  0  0  0  0  0  0  0  0  0  0
   56.4010   29.5060   44.7930 C   0  0  0  0  0  0  0  0  0  0  0  0
   55.4900   30.3260   44.4950 O   0  0  0  0  0  0  0  0  0  0  0  0
   57.7260   29.8390   44.6520 N   0  0  0  0  0  0  0  0  0  0  0  0
   58.0680   31.1680   44.0900 C   0  0  0  0  0  0  0  0  0  0  0  0
   57.7470   32.2600   45.0700 C   0  0  0  0  0  0  0  0  0  0  0  0
   57.1010   33.2710   44.6820 O   0  0  0  0  0  0  0  0  0  0  0  0
   58.2080   32.1720   46.4260 N   0  0  0  0  0  0  0  0  0  0  0  0
   58.0050   33.2440   47.3990 C   0  0  0  0  0  0  0  0  0  0  0  0
   58.8890   34.4560   47.0830 C   0  0  0  0  0  0  0  0  0  0  0  0
   60.3320   34.1890   47.4290 C   0  0  0  0  0  0  0  0  0  0  0  0
   60.7570   34.2260   48.7670 C   0  0  0  0  0  0  0  0  0  0  0  0
   62.0880   33.9440   49.0910 C   0  0  0  0  0  0  0  0  0  0  0  0
   62.9990   33.6160   48.0830 C   0  0  0  0  0  0  0  0  0  0  0  0
   62.5810   33.5670   46.7500 C   0  0  0  0  0  0  0  0  0  0  0  0
   61.2510   33.8480   46.4230 C   0  0  0  0  0  0  0  0  0  0  0  0
   60.3349   30.2388   44.6581 H   0  0  0  0  0  0  0  0  0  0  0  0
   60.7605   28.5335   45.3935 H   0  0  0  0  0  0  0  0  0  0  0  0
   55.9553   26.1376   47.0079 H   0  0  0  0  0  0  0  0  0  0  0  0
   58.7067   24.6213   45.1992 H   0  0  0  0  0  0  0  0  0  0  0  0
   58.3152   22.4450   43.7616 H   0  0  0  0  0  0  0  0  0  0  0  0
   54.3407   24.5840   44.9303 H   0  0  0  0  0  0  0  0  0  0  0  0
   59.1430   31.1958   43.8583 H   0  0  0  0  0  0  0  0  0  0  0  0
   57.4754   31.3280   43.1772 H   0  0  0  0  0  0  0  0  0  0  0  0
   58.6880   31.3000   46.7450 H   0  0  0  0  0  0  0  0  0  0  0  0
   56.9499   33.5540   47.3760 H   0  0  0  0  0  0  0  0  0  0  0  0
   58.2771   32.8654   48.3953 H   0  0  0  0  0  0  0  0  0  0  0  0
   58.8145   34.6832   46.0093 H   0  0  0  0  0  0  0  0  0  0  0  0
   58.5396   35.3064   47.6869 H   0  0  0  0  0  0  0  0  0  0  0  0
   60.0406   34.4776   49.5629 H   0  0  0  0  0  0  0  0  0  0  0  0
   62.4181   33.9804   50.1397 H   0  0  0  0  0  0  0  0  0  0  0  0
   64.0460   33.3962   48.3389 H   0  0  0  0  0  0  0  0  0  0  0  0
   63.2988   33.3073   45.9580 H   0  0  0  0  0  0  0  0  0  0  0  0
   60.9231   33.8019   45.3740 H   0  0  0  0  0  0  0  0  0  0  0  0
  1  2  2  0
  2  3  1  0
  3  4  2  0
  3  5  1  0
  5  6  2  3
  6  7  1  0
  7  8  1  0
  8  9  2  0
  9 10  1  0
 10 11  1  0
  5 12  1  0
 12 13  1  0
 13 14  2  0
 13 15  1  0
 15 16  1  0
 16 17  1  0
 17 18  2  0
 17 19  1  0
 19 20  1  0
 20 21  1  0
 21 22  1  0
 22 23  2  0
 23 24  1  0
 24 25  2  0
 25 26  1  0
 26 27  2  0
 15  2  1  0
 27 22  1  0
 11  7  2  0
  1 28  1  0
  1 29  1  0
  6 30  1  0
  8 31  1  0
  9 32  1  0
 11 33  1  0
 16 34  1  0
 16 35  1  0
 19 36  1  0
 20 37  1  0
 20 38  1  0
 21 39  1  0
 21 40  1  0
 23 41  1  0
 24 42  1  0
 25 43  1  0
 26 44  1  0
 27 45  1  0
M  CHG  1  12  -1
M  END
>  <UniqueID>  (88) 
78

>  <SMILES>  (88) 
C=c1c(=O)c(=Cc2ccsc2)[n-]c(=O)n1CC(=O)NCCc1ccccc1

>  <Energy>  (88) 
89.63228131305848

>  <Genealogy>  (88) 
C=c1c(=O)c(=Cc2ccsc2)[n-]c(=O)n1CC(=O)NCCc1ccccc1 (protonated)
C=c1c(=O)c(=Cc2ccsc2)[n-]c(=O)n1CC(=O)NCCc1ccccc1 (3D coordinates assigned)
C=c1c(=O)c(=Cc2ccsc2)[n-]c(=O)n1CC(=O)NCCc1ccccc1 (optimized conformer: 89.63228131305848 kcal/mol)

>  <smiles>  (88) 
C=c1c(=O)c(=Cc2ccsc2)[nH]c(=O)n1CC(=O)NCCc1ccccc1

>  <score_type>  (88) 
oracle

>  <origin>  (88) 
adg

>  <m_score__min__energy>  (88) 
-10.140000000000001

>  <m_primary>  (88) 
energy

$$$$
88:0
     RDKit          3D

 74 78  0  0  0  0  0  0  0  0999 V2000
   52.8370   30.2770   49.1550 H   0  0  0  0  0  0  0  0  0  0  0  0
   51.9880   30.1670   49.6950 O   0  0  0  0  0  0  0  0  0  0  0  0
   51.7070   30.9870   50.7840 C   0  0  0  0  0  0  0  0  0  0  0  0
   50.7860   31.9650   50.7560 N   0  0  0  0  0  0  0  0  0  0  0  0
   50.8470   32.4670   52.0070 C   0  0  0  0  0  0  0  0  0  0  0  0
   50.1190   33.4200   52.3910 O   0  0  0  0  0  0  0  0  0  0  0  0
   51.7400   31.8630   52.8170 N   0  0  0  0  0  0  0  0  0  0  0  0
   52.3040   30.9330   52.0230 C   0  0  0  0  0  0  0  0  0  0  0  0
   53.2480   29.9020   52.4920 C   0  0  0  0  0  0  0  0  0  0  0  0
   52.8257   28.9381   52.8122 H   0  0  0  0  0  0  0  0  0  0  0  0
   54.5850   30.0450   52.5600 C   0  0  0  0  0  0  0  0  0  0  0  0
   55.2300   31.2280   52.2390 C   0  0  0  0  0  0  0  0  0  0  0  0
   54.7537   32.1845   51.9777 H   0  0  0  0  0  0  0  0  0  0  0  0
   56.5860   30.9760   52.3100 C   0  0  0  0  0  0  0  0  0  0  0  0
   57.6540   31.9750   51.9890 C   0  0  0  0  0  0  0  0  0  0  0  0
   58.0779   32.3715   52.9234 H   0  0  0  0  0  0  0  0  0  0  0  0
   58.4479   31.4878   51.4039 H   0  0  0  0  0  0  0  0  0  0  0  0
   57.2208   32.7996   51.4039 H   0  0  0  0  0  0  0  0  0  0  0  0
   56.8070   29.7020   52.7100 N   0  0  0  0  0  0  0  0  0  0  0  0
   58.0960   29.0920   52.9020 C   0  0  0  0  0  0  0  0  0  0  0  0
   59.0860   29.2240   51.9210 C   0  0  0  0  0  0  0  0  0  0  0  0
   58.8753   29.7958   51.0052 H   0  0  0  0  0  0  0  0  0  0  0  0
   60.3400   28.6340   52.0980 C   0  0  0  0  0  0  0  0  0  0  0  0
   61.1089   28.7399   51.3185 H   0  0  0  0  0  0  0  0  0  0  0  0
   60.6250   27.9060   53.2660 C   0  0  0  0  0  0  0  0  0  0  0  0
   61.9510   27.2680   53.4440 C   0  0  0  0  0  0  0  0  0  0  0  0
   62.0150   26.0770   53.8570 O   0  0  0  0  0  0  0  0  0  0  0  0
   63.1660   27.9830   53.1640 N   0  0  0  0  0  0  0  0  0  0  0  0
   64.3470   27.7320   54.0030 C   0  0  0  0  0  0  0  0  0  0  0  0
   64.0213   27.4782   55.0226 H   0  0  0  0  0  0  0  0  0  0  0  0
   64.9216   26.8978   53.5742 H   0  0  0  0  0  0  0  0  0  0  0  0
   65.2340   28.9770   54.0510 C   0  0  0  0  0  0  0  0  0  0  0  0
   64.7356   29.7600   54.6413 H   0  0  0  0  0  0  0  0  0  0  0  0
   66.1972   28.7238   54.5179 H   0  0  0  0  0  0  0  0  0  0  0  0
   65.4640   29.4640   52.6890 N   0  0  0  0  0  0  0  0  0  0  0  0
   66.7380   29.2590   52.0470 C   0  0  0  0  0  0  0  0  0  0  0  0
   67.4660   28.2920   52.4020 O   0  0  0  0  0  0  0  0  0  0  0  0
   67.1870   30.1530   50.9180 C   0  0  0  0  0  0  0  0  0  0  0  0
   68.2175   29.8811   50.6456 H   0  0  0  0  0  0  0  0  0  0  0  0
   66.4855   30.0031   50.0840 H   0  0  0  0  0  0  0  0  0  0  0  0
   67.1550   31.6500   51.2790 C   0  0  0  0  0  0  0  0  0  0  0  0
   67.4693   31.7607   52.3273 H   0  0  0  0  0  0  0  0  0  0  0  0
   67.8322   32.1625   50.5799 H   0  0  0  0  0  0  0  0  0  0  0  0
   65.7600   32.3030   51.1160 C   0  0  0  0  0  0  0  0  0  0  0  0
   65.0785   31.8814   51.8695 H   0  0  0  0  0  0  0  0  0  0  0  0
   65.8570   33.8260   51.3720 C   0  0  0  0  0  0  0  0  0  0  0  0
   66.4873   33.9990   52.2567 H   0  0  0  0  0  0  0  0  0  0  0  0
   66.2930   34.2961   50.4782 H   0  0  0  0  0  0  0  0  0  0  0  0
   64.4780   34.4510   51.6150 C   0  0  0  0  0  0  0  0  0  0  0  0
   64.1067   34.1333   52.6005 H   0  0  0  0  0  0  0  0  0  0  0  0
   64.5757   35.5460   51.5772 H   0  0  0  0  0  0  0  0  0  0  0  0
   63.3190   33.9370   50.3600 S   0  0  0  0  0  0  0  0  0  0  0  0
   62.2790   33.0350   50.9610 O   0  0  0  0  0  0  0  0  0  0  0  0
   62.6540   35.1400   49.7510 O   0  0  0  0  0  0  0  0  0  0  0  0
   64.2350   33.0570   49.1140 C   0  0  0  0  0  0  0  0  0  0  0  0
   63.5265   32.5874   48.4158 H   0  0  0  0  0  0  0  0  0  0  0  0
   64.8836   33.7766   48.5930 H   0  0  0  0  0  0  0  0  0  0  0  0
   65.1280   31.9640   49.7290 C   0  0  0  0  0  0  0  0  0  0  0  0
   64.5171   31.0572   49.8492 H   0  0  0  0  0  0  0  0  0  0  0  0
   65.9742   31.8451   49.0364 H   0  0  0  0  0  0  0  0  0  0  0  0
   64.2680   29.7900   51.9050 C   0  0  0  0  0  0  0  0  0  0  0  0
   63.7203   30.6103   52.3919 H   0  0  0  0  0  0  0  0  0  0  0  0
   64.5617   30.1028   50.8921 H   0  0  0  0  0  0  0  0  0  0  0  0
   63.3720   28.5520   51.8240 C   0  0  0  0  0  0  0  0  0  0  0  0
   62.3989   28.8356   51.3966 H   0  0  0  0  0  0  0  0  0  0  0  0
   63.8585   27.7992   51.1864 H   0  0  0  0  0  0  0  0  0  0  0  0
   59.6230   27.7670   54.2450 C   0  0  0  0  0  0  0  0  0  0  0  0
   59.8275   27.1888   55.1582 H   0  0  0  0  0  0  0  0  0  0  0  0
   58.3700   28.3590   54.0640 C   0  0  0  0  0  0  0  0  0  0  0  0
   57.5955   28.2489   54.8373 H   0  0  0  0  0  0  0  0  0  0  0  0
   55.5910   29.1270   52.8990 C   0  0  0  0  0  0  0  0  0  0  0  0
   55.4270   27.9310   53.4850 C   0  0  0  0  0  0  0  0  0  0  0  0
   56.3015   27.2995   53.7003 H   0  0  0  0  0  0  0  0  0  0  0  0
   54.4180   27.5821   53.7500 H   0  0  0  0  0  0  0  0  0  0  0  0
  1  2  1  0
  2  3  1  0
  3  4  1  0
  4  5  1  0
  5  6  2  0
  5  7  1  0
  7  8  1  0
  8  9  1  0
  9 10  1  0
  9 11  2  0
 11 12  1  0
 12 13  1  0
 12 14  2  0
 14 15  1  0
 15 16  1  0
 15 17  1  0
 15 18  1  0
 14 19  1  0
 19 20  1  0
 20 21  2  0
 21 22  1  0
 21 23  1  0
 23 24  1  0
 23 25  2  0
 25 26  1  0
 26 27  2  0
 26 28  1  0
 28 29  1  0
 29 30  1  0
 29 31  1  0
 29 32  1  0
 32 33  1  0
 32 34  1  0
 32 35  1  0
 35 36  1  0
 36 37  2  0
 36 38  1  0
 38 39  1  0
 38 40  1  0
 38 41  1  0
 41 42  1  0
 41 43  1  0
 41 44  1  0
 44 45  1  0
 44 46  1  0
 46 47  1  0
 46 48  1  0
 46 49  1  0
 49 50  1  0
 49 51  1  0
 49 52  1  0
 52 53  2  0
 52 54  2  0
 52 55  1  0
 55 56  1  0
 55 57  1  0
 55 58  1  0
 58 59  1  0
 58 60  1  0
 35 61  1  0
 61 62  1  0
 61 63  1  0
 61 64  1  0
 64 65  1  0
 64 66  1  0
 25 67  1  0
 67 68  1  0
 67 69  2  0
 69 70  1  0
 19 71  1  0
 71 72  2  0
 72 73  1  0
 72 74  1  0
  8  3  2  0
 71 11  1  0
 69 20  1  0
 64 28  1  0
 58 44  1  0
M  CHG  2   4  -1   7  -1
M  END
>  <UniqueID>  (89) 
79

>  <SMILES>  (89) 
C=c1/c(=C\c2[n-]c(=O)[n-]c2O)cc(C)n1-c1ccc(C(=O)N2CCN(C(=O)CCC3CCS(=O)(=O)CC3)CC2)cc1

>  <Energy>  (89) 
153.13755077838778

>  <Genealogy>  (89) 
C=c1c(=Cc2[n-]c(=O)[n-]c2O)cc(C)n1-c1ccc(C(=O)N2CCN(C(=O)CCC3CCS(=O)(=O)CC3)CC2)cc1 (protonated)
C=c1/c(=C\c2[n-]c(=O)[n-]c2O)cc(C)n1-c1ccc(C(=O)N2CCN(C(=O)CCC3CCS(=O)(=O)CC3)CC2)cc1 (cis-trans isomerization)
C=c1/c(=C\c2[n-]c(=O)[n-]c2O)cc(C)n1-c1ccc(C(=O)N2CCN(C(=O)CCC3CCS(=O)(=O)CC3)CC2)cc1 (3D coordinates assigned)
C=c1/c(=C\c2[n-]c(=O)[n-]c2O)cc(C)n1-c1ccc(C(=O)N2CCN(C(=O)CCC3CCS(=O)(=O)CC3)CC2)cc1 (nonaromatic ring conformer: 153.13755077838778 kcal/mol)

>  <smiles>  (89) 
C=c1c(=Cc2[nH]c(=O)[nH]c2O)cc(C)n1-c1ccc(C(=O)N2CCN(C(=O)CCC3CCS(=O)(=O)CC3)CC2)cc1

>  <score_type>  (89) 
oracle

>  <origin>  (89) 
adg

>  <m_score__min__energy>  (89) 
-15.48

>  <m_primary>  (89) 
energy

$$$$
