0:0
     RDKit          3D

 64 67  0  0  0  0  0  0  0  0999 V2000
   58.2430   33.4450   43.9190 O   0  0  0  0  0  0  0  0  0  0  0  0
   57.9090   32.2370   44.0620 C   0  0  0  0  0  0  0  0  0  0  0  0
   57.2650   31.5180   42.9150 C   0  0  0  0  0  0  0  0  0  0  0  0
   57.0530   30.1160   43.2530 N   0  0  0  0  0  0  0  0  0  0  0  0
   55.9320   29.6550   44.0110 C   0  0  0  0  0  0  0  0  0  0  0  0
   54.7710   29.7930   43.5390 O   0  0  0  0  0  0  0  0  0  0  0  0
   56.1300   29.0660   45.2660 O   0  0  0  0  0  0  0  0  0  0  0  0
   56.9900   27.9500   45.4840 C   0  0  0  0  0  0  0  0  0  0  0  0
   58.2990   28.4050   46.0680 C   0  0  0  0  0  0  0  0  0  0  0  0
   58.4450   28.5640   47.4580 C   0  0  0  0  0  0  0  0  0  0  0  0
   59.6710   28.9660   47.9960 C   0  0  0  0  0  0  0  0  0  0  0  0
   60.7640   29.1980   47.1520 C   0  0  0  0  0  0  0  0  0  0  0  0
   60.6310   29.0310   45.7670 C   0  0  0  0  0  0  0  0  0  0  0  0
   59.4020   28.6380   45.2270 C   0  0  0  0  0  0  0  0  0  0  0  0
   58.0710   31.5770   45.3270 N   0  0  0  0  0  0  0  0  0  0  0  0
   58.8000   32.1240   46.4400 C   0  0  0  0  0  0  0  0  0  0  0  0
   58.1410   32.5760   47.5970 C   0  0  0  0  0  0  0  0  0  0  0  0
   58.8670   33.1120   48.6620 C   0  0  0  0  0  0  0  0  0  0  0  0
   60.2660   33.2380   48.5790 C   0  0  0  0  0  0  0  0  0  0  0  0
   61.0220   33.7960   49.6290 C   0  0  0  0  0  0  0  0  0  0  0  0
   60.4460   34.1430   50.6970 O   0  0  0  0  0  0  0  0  0  0  0  0
   62.3780   33.9660   49.4920 N   0  0  0  0  0  0  0  0  0  0  0  0
   63.1630   34.6350   50.5480 C   0  0  0  0  0  0  0  0  0  0  0  0
   64.2880   33.7350   51.1000 C   0  0  0  0  0  0  0  0  0  0  0  0
   63.7870   32.6300   52.0460 C   0  0  0  0  0  0  0  0  0  0  0  0
   62.6330   31.9080   51.4680 N   0  0  0  0  0  0  0  0  0  0  0  0
   61.5190   31.8310   52.4320 C   0  0  0  0  0  0  0  0  0  0  0  0
   60.3960   30.9170   51.9000 C   0  0  0  0  0  0  0  0  0  0  0  0
   60.5850   30.6270   50.5290 O   0  0  0  0  0  0  0  0  0  0  0  0
   61.7760   29.8750   50.3560 C   0  0  0  0  0  0  0  0  0  0  0  0
   62.9960   30.5510   51.0180 C   0  0  0  0  0  0  0  0  0  0  0  0
   63.0200   33.5400   48.3610 C   0  0  0  0  0  0  0  0  0  0  0  0
   62.3110   32.9670   47.3090 C   0  0  0  0  0  0  0  0  0  0  0  0
   60.9270   32.8180   47.4060 C   0  0  0  0  0  0  0  0  0  0  0  0
   60.1920   32.2650   46.3450 C   0  0  0  0  0  0  0  0  0  0  0  0
   56.2961   31.9877   42.6900 H   0  0  0  0  0  0  0  0  0  0  0  0
   57.9256   31.5791   42.0376 H   0  0  0  0  0  0  0  0  0  0  0  0
   56.5059   27.2497   46.1806 H   0  0  0  0  0  0  0  0  0  0  0  0
   57.1815   27.4529   44.5216 H   0  0  0  0  0  0  0  0  0  0  0  0
   57.5912   28.3713   48.1242 H   0  0  0  0  0  0  0  0  0  0  0  0
   59.7772   29.1001   49.0826 H   0  0  0  0  0  0  0  0  0  0  0  0
   61.7288   29.5119   47.5770 H   0  0  0  0  0  0  0  0  0  0  0  0
   61.4918   29.2087   45.1055 H   0  0  0  0  0  0  0  0  0  0  0  0
   59.2976   28.5106   44.1394 H   0  0  0  0  0  0  0  0  0  0  0  0
   57.5440   30.6880   45.4820 H   0  0  0  0  0  0  0  0  0  0  0  0
   57.0452   32.5067   47.6634 H   0  0  0  0  0  0  0  0  0  0  0  0
   58.3420   33.4380   49.5720 H   0  0  0  0  0  0  0  0  0  0  0  0
   63.6130   35.5475   50.1299 H   0  0  0  0  0  0  0  0  0  0  0  0
   62.4803   34.8680   51.3784 H   0  0  0  0  0  0  0  0  0  0  0  0
   64.8006   33.2593   50.2509 H   0  0  0  0  0  0  0  0  0  0  0  0
   64.9584   34.3808   51.6861 H   0  0  0  0  0  0  0  0  0  0  0  0
   64.6034   31.9149   52.2253 H   0  0  0  0  0  0  0  0  0  0  0  0
   63.4658   33.0993   52.9876 H   0  0  0  0  0  0  0  0  0  0  0  0
   61.8931   31.4259   53.3838 H   0  0  0  0  0  0  0  0  0  0  0  0
   61.1105   32.8416   52.5800 H   0  0  0  0  0  0  0  0  0  0  0  0
   60.3975   29.9763   52.4701 H   0  0  0  0  0  0  0  0  0  0  0  0
   59.4345   31.4381   52.0185 H   0  0  0  0  0  0  0  0  0  0  0  0
   61.6352   28.8808   50.8052 H   0  0  0  0  0  0  0  0  0  0  0  0
   61.9752   29.8030   49.2766 H   0  0  0  0  0  0  0  0  0  0  0  0
   63.3194   29.9538   51.8833 H   0  0  0  0  0  0  0  0  0  0  0  0
   63.8149   30.6181   50.2867 H   0  0  0  0  0  0  0  0  0  0  0  0
   64.1114   33.6519   48.2821 H   0  0  0  0  0  0  0  0  0  0  0  0
   62.8400   32.6328   46.4043 H   0  0  0  0  0  0  0  0  0  0  0  0
   60.7123   31.9398   45.4320 H   0  0  0  0  0  0  0  0  0  0  0  0
  1  2  2  0
  2  3  1  0
  3  4  1  0
  4  5  1  0
  5  6  2  0
  5  7  1  0
  7  8  1  0
  8  9  1  0
  9 10  2  0
 10 11  1  0
 11 12  2  0
 12 13  1  0
 13 14  2  0
  2 15  1  0
 15 16  1  0
 16 17  2  0
 17 18  1  0
 18 19  2  0
 19 20  1  0
 20 21  2  0
 20 22  1  0
 22 23  1  0
 23 24  1  0
 24 25  1  0
 25 26  1  0
 26 27  1  0
 27 28  1  0
 28 29  1  0
 29 30  1  0
 30 31  1  0
 22 32  1  0
 32 33  2  0
 33 34  1  0
 34 35  2  0
 14  9  1  0
 35 16  1  0
 34 19  1  0
 31 26  1  0
  3 36  1  0
  3 37  1  0
  8 38  1  0
  8 39  1  0
 10 40  1  0
 11 41  1  0
 12 42  1  0
 13 43  1  0
 14 44  1  0
 15 45  1  0
 17 46  1  0
 18 47  1  0
 23 48  1  0
 23 49  1  0
 24 50  1  0
 24 51  1  0
 25 52  1  0
 25 53  1  0
 27 54  1  0
 27 55  1  0
 28 56  1  0
 28 57  1  0
 30 58  1  0
 30 59  1  0
 31 60  1  0
 31 61  1  0
 32 62  1  0
 33 63  1  0
 35 64  1  0
M  CHG  1   4  -1
M  END
>  <UniqueID>  (1) 
1

>  <SMILES>  (1) 
O=C(C[N-]C(=O)OCc1ccccc1)Nc1ccc2c(=O)n(CCCN3CCOCC3)ccc2c1

>  <Energy>  (1) 
74.21106245618795

>  <Genealogy>  (1) 
O=C(C[N-]C(=O)OCc1ccccc1)Nc1ccc2c(=O)n(CCCN3CCOCC3)ccc2c1 (protonated)
O=C(C[N-]C(=O)OCc1ccccc1)Nc1ccc2c(=O)n(CCCN3CCOCC3)ccc2c1 (3D coordinates assigned)
O=C(C[N-]C(=O)OCc1ccccc1)Nc1ccc2c(=O)n(CCCN3CCOCC3)ccc2c1 (nonaromatic ring conformer: 74.21106245618795 kcal/mol)

>  <smiles>  (1) 
O=C(CNC(=O)OCc1ccccc1)Nc1ccc2c(=O)n(CCCN3CCOCC3)ccc2c1

>  <score_type>  (1) 
oracle

>  <origin>  (1) 
adg

>  <m_score__min__energy>  (1) 
-11.380000000000001

>  <m_primary>  (1) 
energy

$$$$
1:0
     RDKit          3D

 66 69  0  0  0  0  0  0  0  0999 V2000
   55.9000   29.7180   52.4110 C   0  0  0  0  0  0  0  0  0  0  0  0
   57.2260   29.3920   52.0070 O   0  0  0  0  0  0  0  0  0  0  0  0
   58.1550   28.6960   52.7990 C   0  0  0  0  0  0  0  0  0  0  0  0
   57.7810   28.0880   54.0140 C   0  0  0  0  0  0  0  0  0  0  0  0
   58.7310   27.4300   54.7990 C   0  0  0  0  0  0  0  0  0  0  0  0
   60.0600   27.3690   54.3840 C   0  0  0  0  0  0  0  0  0  0  0  0
   60.4460   27.9630   53.1810 C   0  0  0  0  0  0  0  0  0  0  0  0
   59.5000   28.6220   52.3750 C   0  0  0  0  0  0  0  0  0  0  0  0
   59.9360   29.2320   51.0960 C   0  0  0  0  0  0  0  0  0  0  0  0
   61.1070   30.0070   51.0420 C   0  0  0  0  0  0  0  0  0  0  0  0
   61.5240   30.5760   49.8370 C   0  0  0  0  0  0  0  0  0  0  0  0
   60.7780   30.3790   48.6680 C   0  0  0  0  0  0  0  0  0  0  0  0
   61.3110   31.0610   47.1330 S   0  0  0  0  0  0  0  0  0  0  0  0
   62.7950   30.8710   46.9980 O   0  0  0  0  0  0  0  0  0  0  0  0
   60.6310   30.3670   45.9850 O   0  0  0  0  0  0  0  0  0  0  0  0
   60.9410   32.7580   47.0940 N   0  0  0  0  0  0  0  0  0  0  0  0
   59.5550   33.0240   47.4960 C   0  0  2  0  0  0  0  0  0  0  0  0
   58.8010   33.7240   46.3510 C   0  0  0  0  0  0  0  0  0  0  0  0
   58.3080   32.7710   45.2880 C   0  0  0  0  0  0  0  0  0  0  0  0
   58.4500   33.0880   43.9290 C   0  0  0  0  0  0  0  0  0  0  0  0
   57.9830   32.2120   42.9490 C   0  0  0  0  0  0  0  0  0  0  0  0
   57.3740   31.0090   43.3140 C   0  0  0  0  0  0  0  0  0  0  0  0
   57.2240   30.6700   44.6710 C   0  0  0  0  0  0  0  0  0  0  0  0
   56.5600   29.4030   45.0580 C   0  0  0  0  0  0  0  0  0  0  0  0
   55.1570   29.2310   44.8640 N   0  0  0  0  0  0  0  0  0  0  0  0
   57.2290   28.4600   45.5600 O   0  0  0  0  0  0  0  0  0  0  0  0
   57.6960   31.5600   45.6530 C   0  0  0  0  0  0  0  0  0  0  0  0
   59.4860   33.8270   48.7820 C   0  0  0  0  0  0  0  0  0  0  0  0
   59.7350   35.0620   48.7180 O   0  0  0  0  0  0  0  0  0  0  0  0
   59.2640   33.2280   50.0780 N   0  0  0  0  0  0  0  0  0  0  0  0
   58.1570   32.2810   50.2940 C   0  0  0  0  0  0  0  0  0  0  0  0
   57.6450   32.3390   51.7380 C   0  0  0  0  0  0  0  0  0  0  0  0
   58.7710   32.1170   52.7610 C   0  0  0  0  0  0  0  0  0  0  0  0
   60.1260   32.7130   52.3290 C   0  0  0  0  0  0  0  0  0  0  0  0
   59.9790   33.7800   51.2390 C   0  0  0  0  0  0  0  0  0  0  0  0
   59.6170   29.5980   48.7120 C   0  0  0  0  0  0  0  0  0  0  0  0
   59.1980   29.0270   49.9170 C   0  0  0  0  0  0  0  0  0  0  0  0
   55.8443   29.7317   53.5095 H   0  0  0  0  0  0  0  0  0  0  0  0
   55.6301   30.7092   52.0178 H   0  0  0  0  0  0  0  0  0  0  0  0
   55.2013   28.9649   52.0178 H   0  0  0  0  0  0  0  0  0  0  0  0
   56.7334   28.1318   54.3467 H   0  0  0  0  0  0  0  0  0  0  0  0
   58.4295   26.9592   55.7463 H   0  0  0  0  0  0  0  0  0  0  0  0
   60.8061   26.8520   55.0053 H   0  0  0  0  0  0  0  0  0  0  0  0
   61.4974   27.9154   52.8611 H   0  0  0  0  0  0  0  0  0  0  0  0
   61.6991   30.1665   51.9552 H   0  0  0  0  0  0  0  0  0  0  0  0
   62.4419   31.1813   49.8057 H   0  0  0  0  0  0  0  0  0  0  0  0
   59.0640   32.0611   47.7005 H   0  0  0  0  0  0  0  0  0  0  0  0
   57.9343   34.2519   46.7754 H   0  0  0  0  0  0  0  0  0  0  0  0
   59.5101   34.4119   45.8674 H   0  0  0  0  0  0  0  0  0  0  0  0
   58.9320   34.0320   43.6346 H   0  0  0  0  0  0  0  0  0  0  0  0
   58.0947   32.4694   41.8854 H   0  0  0  0  0  0  0  0  0  0  0  0
   57.0095   30.3226   42.5356 H   0  0  0  0  0  0  0  0  0  0  0  0
   54.4860   29.3450   45.6560 H   0  0  0  0  0  0  0  0  0  0  0  0
   57.5848   31.3053   46.7173 H   0  0  0  0  0  0  0  0  0  0  0  0
   57.3321   32.5330   49.6114 H   0  0  0  0  0  0  0  0  0  0  0  0
   58.5283   31.2641   50.0989 H   0  0  0  0  0  0  0  0  0  0  0  0
   57.1947   33.3269   51.9151 H   0  0  0  0  0  0  0  0  0  0  0  0
   56.9064   31.5343   51.8677 H   0  0  0  0  0  0  0  0  0  0  0  0
   58.4736   32.5834   53.7118 H   0  0  0  0  0  0  0  0  0  0  0  0
   58.9122   31.0300   52.8534 H   0  0  0  0  0  0  0  0  0  0  0  0
   60.6060   33.1699   53.2070 H   0  0  0  0  0  0  0  0  0  0  0  0
   60.7334   31.8947   51.9149 H   0  0  0  0  0  0  0  0  0  0  0  0
   59.4139   34.6339   51.6409 H   0  0  0  0  0  0  0  0  0  0  0  0
   60.9799   34.1070   50.9208 H   0  0  0  0  0  0  0  0  0  0  0  0
   59.0324   29.4331   47.7949 H   0  0  0  0  0  0  0  0  0  0  0  0
   58.2853   28.4135   49.9431 H   0  0  0  0  0  0  0  0  0  0  0  0
  1  2  1  0
  2  3  1  0
  3  4  2  0
  4  5  1  0
  5  6  2  0
  6  7  1  0
  7  8  2  0
  8  9  1  0
  9 10  2  0
 10 11  1  0
 11 12  2  0
 12 13  1  0
 13 14  2  0
 13 15  2  0
 13 16  1  0
 16 17  1  0
 17 18  1  0
 18 19  1  0
 19 20  2  0
 20 21  1  0
 21 22  2  0
 22 23  1  0
 23 24  1  0
 24 25  1  0
 24 26  2  0
 23 27  2  0
 17 28  1  0
 28 29  2  0
 28 30  1  0
 30 31  1  0
 31 32  1  0
 32 33  1  0
 33 34  1  0
 34 35  1  0
 12 36  1  0
 36 37  2  0
  8  3  1  0
 37  9  1  0
 27 19  1  0
 35 30  1  0
  1 38  1  0
  1 39  1  0
  1 40  1  0
  4 41  1  0
  5 42  1  0
  6 43  1  0
  7 44  1  0
 10 45  1  0
 11 46  1  0
 17 47  1  1
 18 48  1  0
 18 49  1  0
 20 50  1  0
 21 51  1  0
 22 52  1  0
 25 53  1  0
 27 54  1  0
 31 55  1  0
 31 56  1  0
 32 57  1  0
 32 58  1  0
 33 59  1  0
 33 60  1  0
 34 61  1  0
 34 62  1  0
 35 63  1  0
 35 64  1  0
 36 65  1  0
 37 66  1  0
M  CHG  2  16  -1  25  -1
M  END
>  <UniqueID>  (2) 
2

>  <SMILES>  (2) 
COc1ccccc1-c1ccc(S(=O)(=O)[N-][C@H](Cc2cccc(C([NH-])=O)c2)C(=O)N2CCCCC2)cc1

>  <Energy>  (2) 
74.93851253317938

>  <Genealogy>  (2) 
COc1ccccc1-c1ccc(S(=O)(=O)[N-]C(Cc2cccc(C([NH-])=O)c2)C(=O)N2CCCCC2)cc1 (protonated)
COc1ccccc1-c1ccc(S(=O)(=O)[N-][C@H](Cc2cccc(C([NH-])=O)c2)C(=O)N2CCCCC2)cc1 (chirality)
COc1ccccc1-c1ccc(S(=O)(=O)[N-][C@H](Cc2cccc(C([NH-])=O)c2)C(=O)N2CCCCC2)cc1 (3D coordinates assigned)
COc1ccccc1-c1ccc(S(=O)(=O)[N-][C@H](Cc2cccc(C([NH-])=O)c2)C(=O)N2CCCCC2)cc1 (nonaromatic ring conformer: 74.93851253317938 kcal/mol)

>  <smiles>  (2) 
COc1ccccc1-c1ccc(S(=O)(=O)NC(Cc2cccc(C(N)=O)c2)C(=O)N2CCCCC2)cc1

>  <score_type>  (2) 
oracle

>  <origin>  (2) 
adg

>  <m_score__min__energy>  (2) 
-14.119999999999999

>  <m_primary>  (2) 
energy

$$$$
2:0
     RDKit          3D

 29 31  0  0  0  0  0  0  0  0999 V2000
   55.0930   26.6910   45.9920 O   0  0  0  0  0  0  0  0  0  0  0  0
   56.3560   27.1370   45.6230 C   0  0  0  0  0  0  0  0  0  0  0  0
   57.3270   26.2210   45.2120 C   0  0  0  0  0  0  0  0  0  0  0  0
   58.5960   26.6690   44.8370 C   0  0  0  0  0  0  0  0  0  0  0  0
   58.8970   28.0330   44.8720 C   0  0  0  0  0  0  0  0  0  0  0  0
   57.9290   28.9680   45.2850 C   0  0  0  0  0  0  0  0  0  0  0  0
   58.2460   30.4180   45.3240 C   0  0  0  0  0  0  0  0  0  0  0  0
   58.1080   31.2080   44.1680 C   0  0  0  0  0  0  0  0  0  0  0  0
   58.4040   32.5730   44.1990 C   0  0  0  0  0  0  0  0  0  0  0  0
   58.8460   33.1730   45.3850 C   0  0  0  0  0  0  0  0  0  0  0  0
   59.1460   34.5440   45.4240 C   0  0  0  0  0  0  0  0  0  0  0  0
   59.5880   35.1320   46.6140 C   0  0  0  0  0  0  0  0  0  0  0  0
   59.7330   34.3620   47.7710 C   0  0  0  0  0  0  0  0  0  0  0  0
   60.1750   34.9670   48.9460 O   0  0  0  0  0  0  0  0  0  0  0  0
   59.4350   32.9920   47.7420 C   0  0  0  0  0  0  0  0  0  0  0  0
   58.9900   32.3910   46.5540 C   0  0  0  0  0  0  0  0  0  0  0  0
   58.6900   31.0200   46.5150 C   0  0  0  0  0  0  0  0  0  0  0  0
   56.6530   28.5040   45.6610 C   0  0  0  0  0  0  0  0  0  0  0  0
   57.0925   25.1467   45.1836 H   0  0  0  0  0  0  0  0  0  0  0  0
   59.3598   25.9465   44.5135 H   0  0  0  0  0  0  0  0  0  0  0  0
   59.8980   28.3789   44.5746 H   0  0  0  0  0  0  0  0  0  0  0  0
   57.7637   30.7464   43.2307 H   0  0  0  0  0  0  0  0  0  0  0  0
   58.2895   33.1791   43.2882 H   0  0  0  0  0  0  0  0  0  0  0  0
   59.0333   35.1568   44.5175 H   0  0  0  0  0  0  0  0  0  0  0  0
   59.8227   36.2064   46.6390 H   0  0  0  0  0  0  0  0  0  0  0  0
   59.6200   35.6700   49.4210 H   0  0  0  0  0  0  0  0  0  0  0  0
   59.5503   32.3864   48.6530 H   0  0  0  0  0  0  0  0  0  0  0  0
   58.8032   30.4112   47.4241 H   0  0  0  0  0  0  0  0  0  0  0  0
   55.8850   29.2211   45.9866 H   0  0  0  0  0  0  0  0  0  0  0  0
  1  2  1  0
  2  3  2  0
  3  4  1  0
  4  5  2  0
  5  6  1  0
  6  7  1  0
  7  8  2  0
  8  9  1  0
  9 10  2  0
 10 11  1  0
 11 12  2  0
 12 13  1  0
 13 14  1  0
 13 15  2  0
 15 16  1  0
 16 17  2  0
  6 18  2  0
 18  2  1  0
 17  7  1  0
 16 10  1  0
  3 19  1  0
  4 20  1  0
  5 21  1  0
  8 22  1  0
  9 23  1  0
 11 24  1  0
 12 25  1  0
 14 26  1  0
 15 27  1  0
 17 28  1  0
 18 29  1  0
M  CHG  1   1  -1
M  END
>  <UniqueID>  (3) 
3

>  <SMILES>  (3) 
[O-]c1cccc(-c2ccc3ccc(O)cc3c2)c1

>  <Energy>  (3) 
39.969551309655685

>  <Genealogy>  (3) 
[O-]c1cccc(-c2ccc3ccc(O)cc3c2)c1 (protonated)
[O-]c1cccc(-c2ccc3ccc(O)cc3c2)c1 (3D coordinates assigned)
[O-]c1cccc(-c2ccc3ccc(O)cc3c2)c1 (optimized conformer: 39.969551309655685 kcal/mol)

>  <smiles>  (3) 
Oc1cccc(-c2ccc3ccc(O)cc3c2)c1

>  <score_type>  (3) 
oracle

>  <origin>  (3) 
adg

>  <m_score__min__energy>  (3) 
-10.449999999999999

>  <m_primary>  (3) 
energy

$$$$
3:0
     RDKit          3D

 66 69  0  0  0  0  0  0  0  0999 V2000
   57.4070   31.8840   42.7150 C   0  0  0  0  0  0  0  0  0  0  0  0
   57.4510   30.6920   43.6280 C   0  0  0  0  0  0  0  0  0  0  0  0
   56.2640   30.0450   44.0020 C   0  0  0  0  0  0  0  0  0  0  0  0
   56.2980   28.9560   44.8800 C   0  0  0  0  0  0  0  0  0  0  0  0
   57.5210   28.5050   45.4030 C   0  0  0  0  0  0  0  0  0  0  0  0
   57.5750   27.3310   46.3450 C   0  0  0  0  0  0  0  0  0  0  0  0
   58.1010   27.7510   47.6400 N   0  0  0  0  0  0  0  0  0  0  0  0
   59.4200   28.2530   47.8970 C   0  0  0  0  0  0  0  0  0  0  0  0
   60.4050   27.6050   47.4580 O   0  0  0  0  0  0  0  0  0  0  0  0
   59.6610   29.5280   48.6020 C   0  0  0  0  0  0  0  0  0  0  0  0
   60.2670   30.6470   48.0610 C   0  0  0  0  0  0  0  0  0  0  0  0
   60.1660   31.6130   49.0450 C   0  0  0  0  0  0  0  0  0  0  0  0
   60.5740   33.0570   48.8600 C   0  0  1  0  0  0  0  0  0  0  0  0
   59.3350   33.9720   48.7550 C   0  0  0  0  0  0  0  0  0  0  0  0
   58.7890   34.0190   47.3470 C   0  0  0  0  0  0  0  0  0  0  0  0
   57.5600   33.4060   47.0440 C   0  0  0  0  0  0  0  0  0  0  0  0
   57.0350   33.4830   45.7480 C   0  0  0  0  0  0  0  0  0  0  0  0
   57.7270   34.1790   44.7500 C   0  0  0  0  0  0  0  0  0  0  0  0
   58.9420   34.8050   45.0470 C   0  0  0  0  0  0  0  0  0  0  0  0
   59.4720   34.7270   46.3410 C   0  0  0  0  0  0  0  0  0  0  0  0
   61.4310   33.4750   49.9690 N   0  0  0  0  0  0  0  0  0  0  0  0
   62.6430   34.2150   49.8120 C   0  0  0  0  0  0  0  0  0  0  0  0
   63.0390   34.9910   50.7240 O   0  0  0  0  0  0  0  0  0  0  0  0
   63.3890   34.0440   48.6420 O   0  0  0  0  0  0  0  0  0  0  0  0
   63.9520   32.7910   48.2650 C   0  0  0  0  0  0  0  0  0  0  0  0
   64.3060   32.0190   49.5030 C   0  0  0  0  0  0  0  0  0  0  0  0
   63.3700   31.1390   50.0750 C   0  0  0  0  0  0  0  0  0  0  0  0
   63.6820   30.4380   51.2440 C   0  0  0  0  0  0  0  0  0  0  0  0
   64.9230   30.6210   51.8610 C   0  0  0  0  0  0  0  0  0  0  0  0
   65.8530   31.5100   51.3120 C   0  0  0  0  0  0  0  0  0  0  0  0
   65.5480   32.2130   50.1420 C   0  0  0  0  0  0  0  0  0  0  0  0
   66.4570   33.0880   49.6400 F   0  0  0  0  0  0  0  0  0  0  0  0
   59.4920   31.0830   50.0960 N   0  0  0  0  0  0  0  0  0  0  0  0
   59.1460   31.7260   51.3680 C   0  0  0  0  0  0  0  0  0  0  0  0
   57.6740   31.6250   51.6260 C   0  0  0  0  0  0  0  0  0  0  0  0
   57.0190   32.6490   51.9500 O   0  0  0  0  0  0  0  0  0  0  0  0
   57.0130   30.4180   51.4270 O   0  0  0  0  0  0  0  0  0  0  0  0
   59.2040   29.8170   49.8340 N   0  0  0  0  0  0  0  0  0  0  0  0
   58.7070   29.1560   45.0310 C   0  0  0  0  0  0  0  0  0  0  0  0
   58.6710   30.2450   44.1540 C   0  0  0  0  0  0  0  0  0  0  0  0
   57.3730   32.8049   43.3157 H   0  0  0  0  0  0  0  0  0  0  0  0
   58.3054   31.8931   42.0804 H   0  0  0  0  0  0  0  0  0  0  0  0
   56.5104   31.8269   42.0804 H   0  0  0  0  0  0  0  0  0  0  0  0
   55.3009   30.3957   43.6028 H   0  0  0  0  0  0  0  0  0  0  0  0
   55.3625   28.4507   45.1619 H   0  0  0  0  0  0  0  0  0  0  0  0
   56.5616   26.9246   46.4784 H   0  0  0  0  0  0  0  0  0  0  0  0
   58.2348   26.5595   45.9214 H   0  0  0  0  0  0  0  0  0  0  0  0
   60.7277   30.7466   47.0671 H   0  0  0  0  0  0  0  0  0  0  0  0
   61.1372   33.1457   47.9193 H   0  0  0  0  0  0  0  0  0  0  0  0
   58.5527   33.5904   49.4276 H   0  0  0  0  0  0  0  0  0  0  0  0
   59.6378   34.9909   49.0381 H   0  0  0  0  0  0  0  0  0  0  0  0
   57.0095   32.8644   47.8274 H   0  0  0  0  0  0  0  0  0  0  0  0
   56.0771   32.9956   45.5139 H   0  0  0  0  0  0  0  0  0  0  0  0
   57.3150   34.2337   43.7315 H   0  0  0  0  0  0  0  0  0  0  0  0
   59.4813   35.3586   44.2642 H   0  0  0  0  0  0  0  0  0  0  0  0
   60.4269   35.2217   46.5720 H   0  0  0  0  0  0  0  0  0  0  0  0
   63.2205   32.2218   47.6726 H   0  0  0  0  0  0  0  0  0  0  0  0
   64.8561   32.9577   47.6611 H   0  0  0  0  0  0  0  0  0  0  0  0
   62.3873   31.0014   49.6003 H   0  0  0  0  0  0  0  0  0  0  0  0
   62.9499   29.7416   51.6787 H   0  0  0  0  0  0  0  0  0  0  0  0
   65.1682   30.0658   52.7784 H   0  0  0  0  0  0  0  0  0  0  0  0
   66.8269   31.6566   51.8018 H   0  0  0  0  0  0  0  0  0  0  0  0
   59.6911   31.2294   52.1842 H   0  0  0  0  0  0  0  0  0  0  0  0
   59.4250   32.7888   51.3158 H   0  0  0  0  0  0  0  0  0  0  0  0
   59.6706   28.8079   45.4314 H   0  0  0  0  0  0  0  0  0  0  0  0
   59.6057   30.7537   43.8754 H   0  0  0  0  0  0  0  0  0  0  0  0
  1  2  1  0
  2  3  2  0
  3  4  1  0
  4  5  2  0
  5  6  1  0
  6  7  1  0
  7  8  1  0
  8  9  2  0
  8 10  1  0
 10 11  1  0
 11 12  2  0
 12 13  1  0
 13 14  1  0
 14 15  1  0
 15 16  2  0
 16 17  1  0
 17 18  2  0
 18 19  1  0
 19 20  2  0
 13 21  1  0
 21 22  1  0
 22 23  2  0
 22 24  1  0
 24 25  1  0
 25 26  1  0
 26 27  2  0
 27 28  1  0
 28 29  2  0
 29 30  1  0
 30 31  2  0
 31 32  1  0
 12 33  1  0
 33 34  1  0
 34 35  1  0
 35 36  2  0
 35 37  1  0
 33 38  1  0
  5 39  1  0
 39 40  2  0
 40  2  1  0
 38 10  2  0
 20 15  1  0
 31 26  1  0
  1 41  1  0
  1 42  1  0
  1 43  1  0
  3 44  1  0
  4 45  1  0
  6 46  1  0
  6 47  1  0
 11 48  1  0
 13 49  1  6
 14 50  1  0
 14 51  1  0
 16 52  1  0
 17 53  1  0
 18 54  1  0
 19 55  1  0
 20 56  1  0
 25 57  1  0
 25 58  1  0
 27 59  1  0
 28 60  1  0
 29 61  1  0
 30 62  1  0
 34 63  1  0
 34 64  1  0
 39 65  1  0
 40 66  1  0
M  CHG  3   7  -1  21  -1  37  -1
M  END
>  <UniqueID>  (4) 
4

>  <SMILES>  (4) 
Cc1ccc(C[N-]C(=O)c2cc([C@@H](Cc3ccccc3)[N-]C(=O)OCc3ccccc3F)n(CC(=O)[O-])n2)cc1

>  <Energy>  (4) 
92.8655592987809

>  <Genealogy>  (4) 
Cc1ccc(C[N-]C(=O)c2cc(C(Cc3ccccc3)[N-]C(=O)OCc3ccccc3F)n(CC(=O)[O-])n2)cc1 (protonated)
Cc1ccc(C[N-]C(=O)c2cc([C@@H](Cc3ccccc3)[N-]C(=O)OCc3ccccc3F)n(CC(=O)[O-])n2)cc1 (chirality)
Cc1ccc(C[N-]C(=O)c2cc([C@@H](Cc3ccccc3)[N-]C(=O)OCc3ccccc3F)n(CC(=O)[O-])n2)cc1 (3D coordinates assigned)
Cc1ccc(C[N-]C(=O)c2cc([C@@H](Cc3ccccc3)[N-]C(=O)OCc3ccccc3F)n(CC(=O)[O-])n2)cc1 (optimized conformer: 92.8655592987809 kcal/mol)

>  <smiles>  (4) 
Cc1ccc(CNC(=O)c2cc(C(Cc3ccccc3)NC(=O)OCc3ccccc3F)n(CC(=O)O)n2)cc1

>  <score_type>  (4) 
oracle

>  <origin>  (4) 
adg

>  <m_score__min__energy>  (4) 
-14.59

>  <m_primary>  (4) 
energy

$$$$
4:0
     RDKit          3D

 71 75  0  0  0  0  0  0  0  0999 V2000
   60.3510   27.7810   46.8360 C   0  0  0  0  0  0  0  0  0  0  0  0
   60.1260   29.0520   46.0780 C   0  0  0  0  0  0  0  0  0  0  0  0
   61.1270   29.6800   45.6340 O   0  0  0  0  0  0  0  0  0  0  0  0
   58.7960   29.5360   45.8060 N   0  0  0  0  0  0  0  0  0  0  0  0
   57.6930   28.5910   45.5680 C   0  0  0  0  0  0  0  0  0  0  0  0
   56.9100   29.0120   44.3220 C   0  0  0  0  0  0  0  0  0  0  0  0
   56.5290   30.3850   44.4040 O   0  0  0  0  0  0  0  0  0  0  0  0
   57.3590   31.3490   44.9870 C   0  0  0  0  0  0  0  0  0  0  0  0
   57.0330   32.7040   44.8830 C   0  0  0  0  0  0  0  0  0  0  0  0
   57.8410   33.6710   45.4850 C   0  0  0  0  0  0  0  0  0  0  0  0
   58.9780   33.2850   46.2110 C   0  0  0  0  0  0  0  0  0  0  0  0
   60.0020   34.4910   46.9850 S   0  0  0  0  0  0  0  0  0  0  0  0
   61.4190   33.9950   47.0590 O   0  0  0  0  0  0  0  0  0  0  0  0
   59.9630   35.7580   46.1770 O   0  0  0  0  0  0  0  0  0  0  0  0
   59.3890   34.7920   48.6400 C   0  0  0  0  0  0  0  0  0  0  0  0
   59.8740   33.7420   49.6430 C   0  0  0  0  0  0  0  0  0  0  0  0
   58.7790   32.7890   50.0300 C   0  0  0  0  0  0  0  0  0  0  0  0
   58.1810   32.1380   49.1310 O   0  0  0  0  0  0  0  0  0  0  0  0
   58.3960   32.6520   51.4070 N   0  0  0  0  0  0  0  0  0  0  0  0
   57.5950   31.5700   51.9220 C   0  0  0  0  0  0  0  0  0  0  0  0
   56.2770   31.7900   52.3700 C   0  0  0  0  0  0  0  0  0  0  0  0
   55.4950   30.7280   52.8290 C   0  0  0  0  0  0  0  0  0  0  0  0
   56.0100   29.4310   52.8370 C   0  0  0  0  0  0  0  0  0  0  0  0
   57.3040   29.1930   52.3760 C   0  0  0  0  0  0  0  0  0  0  0  0
   58.0980   30.2510   51.9090 C   0  0  0  0  0  0  0  0  0  0  0  0
   59.4190   29.9760   51.4280 N   0  0  0  0  0  0  0  0  0  0  0  0
   59.5910   29.2580   50.1630 C   0  0  0  0  0  0  0  0  0  0  0  0
   60.3210   30.1640   49.1680 C   0  0  0  0  0  0  0  0  0  0  0  0
   61.5050   30.7910   49.7840 N   0  0  0  0  0  0  0  0  0  0  0  0
   62.3950   31.5840   48.9720 C   0  0  0  0  0  0  0  0  0  0  0  0
   62.5930   31.2640   47.6160 C   0  0  0  0  0  0  0  0  0  0  0  0
   63.4620   32.0280   46.8320 C   0  0  0  0  0  0  0  0  0  0  0  0
   64.1460   33.1110   47.3930 C   0  0  0  0  0  0  0  0  0  0  0  0
   63.9540   33.4360   48.7380 C   0  0  0  0  0  0  0  0  0  0  0  0
   63.0800   32.6800   49.5260 C   0  0  0  0  0  0  0  0  0  0  0  0
   61.8270   30.5360   51.1960 C   0  0  0  0  0  0  0  0  0  0  0  0
   60.5610   30.6520   52.0560 C   0  0  0  0  0  0  0  0  0  0  0  0
   59.2990   31.9250   46.3280 C   0  0  0  0  0  0  0  0  0  0  0  0
   58.5070   30.9480   45.6960 C   0  0  0  0  0  0  0  0  0  0  0  0
   60.3146   27.9868   47.9160 H   0  0  0  0  0  0  0  0  0  0  0  0
   59.5675   27.0545   46.5745 H   0  0  0  0  0  0  0  0  0  0  0  0
   61.3363   27.3677   46.5745 H   0  0  0  0  0  0  0  0  0  0  0  0
   58.1030   27.5814   45.4179 H   0  0  0  0  0  0  0  0  0  0  0  0
   57.0197   28.5918   46.4378 H   0  0  0  0  0  0  0  0  0  0  0  0
   57.5406   28.8650   43.4328 H   0  0  0  0  0  0  0  0  0  0  0  0
   56.0008   28.3969   44.2518 H   0  0  0  0  0  0  0  0  0  0  0  0
   56.1361   33.0102   44.3246 H   0  0  0  0  0  0  0  0  0  0  0  0
   57.5857   34.7367   45.3899 H   0  0  0  0  0  0  0  0  0  0  0  0
   59.7356   35.7823   48.9702 H   0  0  0  0  0  0  0  0  0  0  0  0
   58.2908   34.7398   48.6051 H   0  0  0  0  0  0  0  0  0  0  0  0
   60.6983   33.1716   49.1900 H   0  0  0  0  0  0  0  0  0  0  0  0
   60.2065   34.2661   50.5512 H   0  0  0  0  0  0  0  0  0  0  0  0
   58.6740   33.4210   52.0590 H   0  0  0  0  0  0  0  0  0  0  0  0
   55.8603   32.8080   52.3580 H   0  0  0  0  0  0  0  0  0  0  0  0
   54.4710   30.9142   53.1850 H   0  0  0  0  0  0  0  0  0  0  0  0
   55.3954   28.5970   53.2068 H   0  0  0  0  0  0  0  0  0  0  0  0
   57.7051   28.1687   52.3785 H   0  0  0  0  0  0  0  0  0  0  0  0
   60.1828   28.3467   50.3342 H   0  0  0  0  0  0  0  0  0  0  0  0
   58.6068   28.9799   49.7579 H   0  0  0  0  0  0  0  0  0  0  0  0
   60.6422   29.5627   48.3047 H   0  0  0  0  0  0  0  0  0  0  0  0
   59.6309   30.9603   48.8522 H   0  0  0  0  0  0  0  0  0  0  0  0
   62.0619   30.4094   47.1714 H   0  0  0  0  0  0  0  0  0  0  0  0
   63.6082   31.7768   45.7711 H   0  0  0  0  0  0  0  0  0  0  0  0
   64.8347   33.7065   46.7757 H   0  0  0  0  0  0  0  0  0  0  0  0
   64.4915   34.2887   49.1785 H   0  0  0  0  0  0  0  0  0  0  0  0
   62.9279   32.9438   50.5830 H   0  0  0  0  0  0  0  0  0  0  0  0
   62.2435   29.5229   51.2968 H   0  0  0  0  0  0  0  0  0  0  0  0
   62.5627   31.2793   51.5370 H   0  0  0  0  0  0  0  0  0  0  0  0
   60.7524   30.1931   53.0372 H   0  0  0  0  0  0  0  0  0  0  0  0
   60.3138   31.7185   52.1635 H   0  0  0  0  0  0  0  0  0  0  0  0
   60.1758   31.6195   46.9178 H   0  0  0  0  0  0  0  0  0  0  0  0
  1  2  1  0
  2  3  2  0
  2  4  1  0
  4  5  1  0
  5  6  1  0
  6  7  1  0
  7  8  1  0
  8  9  2  0
  9 10  1  0
 10 11  2  0
 11 12  1  0
 12 13  2  0
 12 14  2  0
 12 15  1  0
 15 16  1  0
 16 17  1  0
 17 18  2  0
 17 19  1  0
 19 20  1  0
 20 21  2  0
 21 22  1  0
 22 23  2  0
 23 24  1  0
 24 25  2  0
 25 26  1  0
 26 27  1  0
 27 28  1  0
 28 29  1  0
 29 30  1  0
 30 31  2  0
 31 32  1  0
 32 33  2  0
 33 34  1  0
 34 35  2  0
 29 36  1  0
 36 37  1  0
 11 38  1  0
 38 39  2  0
 39  4  1  0
 39  8  1  0
 25 20  1  0
 37 26  1  0
 35 30  1  0
  1 40  1  0
  1 41  1  0
  1 42  1  0
  5 43  1  0
  5 44  1  0
  6 45  1  0
  6 46  1  0
  9 47  1  0
 10 48  1  0
 15 49  1  0
 15 50  1  0
 16 51  1  0
 16 52  1  0
 19 53  1  0
 21 54  1  0
 22 55  1  0
 23 56  1  0
 24 57  1  0
 27 58  1  0
 27 59  1  0
 28 60  1  0
 28 61  1  0
 31 62  1  0
 32 63  1  0
 33 64  1  0
 34 65  1  0
 35 66  1  0
 36 67  1  0
 36 68  1  0
 37 69  1  0
 37 70  1  0
 38 71  1  0
M  END
>  <UniqueID>  (5) 
5

>  <SMILES>  (5) 
CC(=O)N1CCOc2ccc(S(=O)(=O)CCC(=O)Nc3ccccc3N3CCN(c4ccccc4)CC3)cc21

>  <Energy>  (5) 
87.69373350757229

>  <Genealogy>  (5) 
CC(=O)N1CCOc2ccc(S(=O)(=O)CCC(=O)Nc3ccccc3N3CCN(c4ccccc4)CC3)cc21 (3D coordinates assigned)
CC(=O)N1CCOc2ccc(S(=O)(=O)CCC(=O)Nc3ccccc3N3CCN(c4ccccc4)CC3)cc21 (nonaromatic ring conformer: 87.69373350757229 kcal/mol)

>  <smiles>  (5) 
CC(=O)N1CCOc2ccc(S(=O)(=O)CCC(=O)Nc3ccccc3N3CCN(c4ccccc4)CC3)cc21

>  <score_type>  (5) 
oracle

>  <origin>  (5) 
adg

>  <m_score__min__energy>  (5) 
-10.609999999999999

>  <m_primary>  (5) 
energy

$$$$
5:0
     RDKit          3D

 38 40  0  0  0  0  0  0  0  0999 V2000
   55.1970   26.5480   46.0110 N   0  0  0  0  0  0  0  0  0  0  0  0
   56.8670   26.2490   46.3450 S   0  0  0  0  0  0  0  0  0  0  0  0
   56.9890   24.9840   47.1460 O   0  0  0  0  0  0  0  0  0  0  0  0
   57.6120   26.0970   45.0490 O   0  0  0  0  0  0  0  0  0  0  0  0
   57.5400   27.5660   47.2510 N   0  0  0  0  0  0  0  0  0  0  0  0
   58.0420   28.7490   46.6240 C   0  0  0  0  0  0  0  0  0  0  0  0
   59.1410   29.3970   47.2020 C   0  0  0  0  0  0  0  0  0  0  0  0
   59.6360   30.5910   46.6540 C   0  0  0  0  0  0  0  0  0  0  0  0
   60.7890   31.2830   47.2720 C   0  0  0  0  0  0  0  0  0  0  0  0
   62.0940   30.8230   47.2310 C   0  0  0  0  0  0  0  0  0  0  0  0
   62.8480   31.7130   47.9680 C   0  0  0  0  0  0  0  0  0  0  0  0
   61.9820   32.6840   48.4240 C   0  0  0  0  0  0  0  0  0  0  0  0
   60.7270   32.4200   48.0050 N   0  0  0  0  0  0  0  0  0  0  0  0
   59.6000   33.2970   48.1750 C   0  0  0  0  0  0  0  0  0  0  0  0
   59.2710   33.6670   49.3350 O   0  0  0  0  0  0  0  0  0  0  0  0
   58.7890   33.7400   47.0170 C   0  0  0  0  0  0  0  0  0  0  0  0
   57.4310   33.3790   46.9440 C   0  0  0  0  0  0  0  0  0  0  0  0
   56.6490   33.7830   45.8590 C   0  0  0  0  0  0  0  0  0  0  0  0
   57.2090   34.5570   44.8400 C   0  0  0  0  0  0  0  0  0  0  0  0
   58.5510   34.9370   44.9100 C   0  0  0  0  0  0  0  0  0  0  0  0
   59.3410   34.5420   45.9950 C   0  0  0  0  0  0  0  0  0  0  0  0
   60.6620   34.9740   46.0600 O   0  0  0  0  0  0  0  0  0  0  0  0
   59.0450   31.1090   45.4900 C   0  0  0  0  0  0  0  0  0  0  0  0
   57.9670   30.4510   44.8950 C   0  0  0  0  0  0  0  0  0  0  0  0
   57.4660   29.2670   45.4450 C   0  0  0  0  0  0  0  0  0  0  0  0
   56.4220   28.6160   44.7880 O   0  0  0  0  0  0  0  0  0  0  0  0
   55.1550   27.0760   45.1100 H   0  0  0  0  0  0  0  0  0  0  0  0
   59.6206   28.9665   48.0934 H   0  0  0  0  0  0  0  0  0  0  0  0
   62.4585   29.9240   46.7124 H   0  0  0  0  0  0  0  0  0  0  0  0
   63.9305   31.6584   48.1554 H   0  0  0  0  0  0  0  0  0  0  0  0
   62.2720   33.5481   49.0398 H   0  0  0  0  0  0  0  0  0  0  0  0
   56.9822   32.7749   47.7463 H   0  0  0  0  0  0  0  0  0  0  0  0
   55.5898   33.4908   45.8071 H   0  0  0  0  0  0  0  0  0  0  0  0
   56.5933   34.8671   43.9828 H   0  0  0  0  0  0  0  0  0  0  0  0
   58.9890   35.5498   44.1083 H   0  0  0  0  0  0  0  0  0  0  0  0
   59.4332   32.0372   45.0452 H   0  0  0  0  0  0  0  0  0  0  0  0
   57.5080   30.8673   43.9862 H   0  0  0  0  0  0  0  0  0  0  0  0
   56.3720   27.6080   44.7090 H   0  0  0  0  0  0  0  0  0  0  0  0
  1  2  1  0
  2  3  2  0
  2  4  2  0
  2  5  1  0
  5  6  1  0
  6  7  2  0
  7  8  1  0
  8  9  1  0
  9 10  2  0
 10 11  1  0
 11 12  2  0
 12 13  1  0
 13 14  1  0
 14 15  2  0
 14 16  1  0
 16 17  2  0
 17 18  1  0
 18 19  2  0
 19 20  1  0
 20 21  2  0
 21 22  1  0
  8 23  2  0
 23 24  1  0
 24 25  2  0
 25 26  1  0
 25  6  1  0
 13  9  1  0
 21 16  1  0
  1 27  1  0
  7 28  1  0
 10 29  1  0
 11 30  1  0
 12 31  1  0
 17 32  1  0
 18 33  1  0
 19 34  1  0
 20 35  1  0
 23 36  1  0
 24 37  1  0
 26 38  1  0
M  CHG  3   1  -1   5  -1  22  -1
M  END
>  <UniqueID>  (6) 
6

>  <SMILES>  (6) 
[NH-]S(=O)(=O)[N-]c1cc(-c2cccn2C(=O)c2ccccc2[O-])ccc1O

>  <Energy>  (6) 
85.85850727732556

>  <Genealogy>  (6) 
[NH-]S(=O)(=O)[N-]c1cc(-c2cccn2C(=O)c2ccccc2[O-])ccc1O (protonated)
[NH-]S(=O)(=O)[N-]c1cc(-c2cccn2C(=O)c2ccccc2[O-])ccc1O (3D coordinates assigned)
[NH-]S(=O)(=O)[N-]c1cc(-c2cccn2C(=O)c2ccccc2[O-])ccc1O (optimized conformer: 85.85850727732556 kcal/mol)

>  <smiles>  (6) 
NS(=O)(=O)Nc1cc(-c2cccn2C(=O)c2ccccc2O)ccc1O

>  <score_type>  (6) 
oracle

>  <origin>  (6) 
adg

>  <m_score__min__energy>  (6) 
-13.34

>  <m_primary>  (6) 
energy

$$$$
6:0
     RDKit          3D

 45 48  0  0  0  0  0  0  0  0999 V2000
   53.9040   31.2950   51.6260 O   0  0  0  0  0  0  0  0  0  0  0  0
   54.3020   30.3850   52.4030 C   0  0  0  0  0  0  0  0  0  0  0  0
   53.2910   29.5540   53.1340 C   0  0  0  0  0  0  0  0  0  0  0  0
   51.6420   29.6890   52.3590 S   0  0  0  0  0  0  0  0  0  0  0  0
   51.1320   31.1340   53.3000 C   0  0  0  0  0  0  0  0  0  0  0  0
   51.1550   31.0950   54.7010 C   0  0  0  0  0  0  0  0  0  0  0  0
   50.7850   32.2230   55.4400 C   0  0  0  0  0  0  0  0  0  0  0  0
   50.3830   33.3900   54.7840 C   0  0  0  0  0  0  0  0  0  0  0  0
   50.3400   33.4270   53.3870 C   0  0  0  0  0  0  0  0  0  0  0  0
   50.7060   32.3000   52.6430 C   0  0  0  0  0  0  0  0  0  0  0  0
   50.6410   32.3440   51.2550 O   0  0  0  0  0  0  0  0  0  0  0  0
   55.7050   30.1290   52.5800 N   0  0  0  0  0  0  0  0  0  0  0  0
   56.7590   31.0070   52.1490 C   0  0  0  0  0  0  0  0  0  0  0  0
   57.0260   32.2240   52.8030 C   0  0  0  0  0  0  0  0  0  0  0  0
   58.0750   33.0410   52.3760 C   0  0  0  0  0  0  0  0  0  0  0  0
   58.8790   32.6490   51.3030 C   0  0  0  0  0  0  0  0  0  0  0  0
   58.6510   31.4220   50.6620 C   0  0  0  0  0  0  0  0  0  0  0  0
   59.4990   31.0100   49.4910 C   0  0  0  0  0  0  0  0  0  0  0  0
   59.3000   31.9610   48.3570 C   0  0  0  0  0  0  0  0  0  0  0  0
   59.9420   33.1570   48.2820 N   0  0  0  0  0  0  0  0  0  0  0  0
   59.5210   33.6370   47.1020 C   0  0  0  0  0  0  0  0  0  0  0  0
   59.8620   34.8470   46.5030 C   0  0  0  0  0  0  0  0  0  0  0  0
   59.2980   35.1360   45.2460 C   0  0  0  0  0  0  0  0  0  0  0  0
   59.6000   36.3010   44.6240 F   0  0  0  0  0  0  0  0  0  0  0  0
   58.4180   34.2160   44.6300 C   0  0  0  0  0  0  0  0  0  0  0  0
   58.0990   33.0010   45.2660 C   0  0  0  0  0  0  0  0  0  0  0  0
   58.6740   32.7520   46.5090 C   0  0  0  0  0  0  0  0  0  0  0  0
   58.5200   31.6680   47.2830 N   0  0  0  0  0  0  0  0  0  0  0  0
   57.5870   30.6100   51.0860 C   0  0  0  0  0  0  0  0  0  0  0  0
   53.6109   28.5017   53.1164 H   0  0  0  0  0  0  0  0  0  0  0  0
   53.2211   29.9203   54.1689 H   0  0  0  0  0  0  0  0  0  0  0  0
   51.4645   30.1758   55.2198 H   0  0  0  0  0  0  0  0  0  0  0  0
   50.8103   32.1919   56.5393 H   0  0  0  0  0  0  0  0  0  0  0  0
   50.1005   34.2791   55.3668 H   0  0  0  0  0  0  0  0  0  0  0  0
   50.0178   34.3439   52.8718 H   0  0  0  0  0  0  0  0  0  0  0  0
   55.9790   29.2170   53.0130 H   0  0  0  0  0  0  0  0  0  0  0  0
   56.4045   32.5338   53.6561 H   0  0  0  0  0  0  0  0  0  0  0  0
   58.2688   33.9961   52.8861 H   0  0  0  0  0  0  0  0  0  0  0  0
   59.6932   33.3042   50.9597 H   0  0  0  0  0  0  0  0  0  0  0  0
   60.5580   31.0144   49.7886 H   0  0  0  0  0  0  0  0  0  0  0  0
   59.2059   29.9994   49.1706 H   0  0  0  0  0  0  0  0  0  0  0  0
   60.5481   35.5523   46.9948 H   0  0  0  0  0  0  0  0  0  0  0  0
   57.9803   34.4510   43.6486 H   0  0  0  0  0  0  0  0  0  0  0  0
   57.4194   32.2742   44.7971 H   0  0  0  0  0  0  0  0  0  0  0  0
   57.3996   29.6516   50.5798 H   0  0  0  0  0  0  0  0  0  0  0  0
  1  2  2  0
  2  3  1  0
  3  4  1  0
  4  5  1  0
  5  6  2  0
  6  7  1  0
  7  8  2  0
  8  9  1  0
  9 10  2  0
 10 11  1  0
  2 12  1  0
 12 13  1  0
 13 14  2  0
 14 15  1  0
 15 16  2  0
 16 17  1  0
 17 18  1  0
 18 19  1  0
 19 20  2  0
 20 21  1  0
 21 22  2  0
 22 23  1  0
 23 24  1  0
 23 25  2  0
 25 26  1  0
 26 27  2  0
 27 28  1  0
 17 29  2  0
 10  5  1  0
 29 13  1  0
 28 19  1  0
 27 21  1  0
  3 30  1  0
  3 31  1  0
  6 32  1  0
  7 33  1  0
  8 34  1  0
  9 35  1  0
 12 36  1  0
 14 37  1  0
 15 38  1  0
 16 39  1  0
 18 40  1  0
 18 41  1  0
 22 42  1  0
 25 43  1  0
 26 44  1  0
 29 45  1  0
M  CHG  2  11  -1  28  -1
M  END
>  <UniqueID>  (7) 
7

>  <SMILES>  (7) 
O=C(CSc1ccccc1[O-])Nc1cccc(Cc2nc3cc(F)ccc3[n-]2)c1

>  <Energy>  (7) 
79.79840283361821

>  <Genealogy>  (7) 
O=C(CSc1ccccc1[O-])Nc1cccc(Cc2nc3cc(F)ccc3[n-]2)c1 (protonated)
O=C(CSc1ccccc1[O-])Nc1cccc(Cc2nc3cc(F)ccc3[n-]2)c1 (3D coordinates assigned)
O=C(CSc1ccccc1[O-])Nc1cccc(Cc2nc3cc(F)ccc3[n-]2)c1 (optimized conformer: 79.79840283361821 kcal/mol)

>  <smiles>  (7) 
O=C(CSc1ccccc1O)Nc1cccc(Cc2nc3cc(F)ccc3[nH]2)c1

>  <score_type>  (7) 
oracle

>  <origin>  (7) 
adg

>  <m_score__min__energy>  (7) 
-14.050000000000001

>  <m_primary>  (7) 
energy

$$$$
7:0
     RDKit          3D

 61 66  0  0  0  0  0  0  0  0999 V2000
   59.8380   28.3290   43.3560 H   0  0  0  0  0  0  0  0  0  0  0  0
   59.6100   28.7940   44.2030 O   0  0  0  0  0  0  0  0  0  0  0  0
   58.2490   28.5540   44.4750 C   0  0  2  0  0  0  0  0  0  0  0  0
   58.0650   27.4010   45.4480 C   0  0  0  0  0  0  0  0  0  0  0  0
   59.1750   26.8250   46.1300 C   0  0  0  0  0  0  0  0  0  0  0  0
   60.1782   27.2552   45.9942 H   0  0  0  0  0  0  0  0  0  0  0  0
   59.0050   25.7130   46.9750 C   0  0  0  0  0  0  0  0  0  0  0  0
   59.8578   25.2721   47.5120 H   0  0  0  0  0  0  0  0  0  0  0  0
   57.7250   25.1900   47.1090 C   0  0  0  0  0  0  0  0  0  0  0  0
   57.3480   24.1120   47.8170 N   0  0  0  0  0  0  0  0  0  0  0  0
   56.0160   24.0410   47.5530 C   0  0  0  0  0  0  0  0  0  0  0  0
   55.2370   23.1040   48.0100 N   0  0  0  0  0  0  0  0  0  0  0  0
   54.0600   22.5810   47.3790 C   0  0  0  0  0  0  0  0  0  0  0  0
   53.0230   22.4350   48.0770 O   0  0  0  0  0  0  0  0  0  0  0  0
   54.0400   22.2840   45.9730 N   0  0  0  0  0  0  0  0  0  0  0  0
   55.1630   22.3050   45.0790 C   0  0  0  0  0  0  0  0  0  0  0  0
   56.1280   21.2970   45.1940 C   0  0  0  0  0  0  0  0  0  0  0  0
   56.0090   20.5113   45.9546 H   0  0  0  0  0  0  0  0  0  0  0  0
   57.2430   21.2820   44.3480 C   0  0  0  0  0  0  0  0  0  0  0  0
   58.0035   20.4944   44.4543 H   0  0  0  0  0  0  0  0  0  0  0  0
   57.3900   22.2680   43.3680 C   0  0  0  0  0  0  0  0  0  0  0  0
   58.2700   22.2610   42.7081 H   0  0  0  0  0  0  0  0  0  0  0  0
   56.4180   23.2630   43.2270 C   0  0  0  0  0  0  0  0  0  0  0  0
   56.5321   24.0367   42.4534 H   0  0  0  0  0  0  0  0  0  0  0  0
   55.3010   23.2760   44.0680 C   0  0  0  0  0  0  0  0  0  0  0  0
   54.5273   24.0473   43.9396 H   0  0  0  0  0  0  0  0  0  0  0  0
   55.5510   25.0110   46.7240 N   0  0  0  0  0  0  0  0  0  0  0  0
   56.6580   25.7240   46.4600 C   0  0  0  0  0  0  0  0  0  0  0  0
   56.7810   26.8260   45.6200 C   0  0  0  0  0  0  0  0  0  0  0  0
   55.9036   27.2408   45.1022 H   0  0  0  0  0  0  0  0  0  0  0  0
   57.4970   28.2870   43.1950 C   0  0  0  0  0  0  0  0  0  0  0  0
   57.7150   27.3140   42.4240 O   0  0  0  0  0  0  0  0  0  0  0  0
   56.5070   29.2710   42.9360 N   0  0  0  0  0  0  0  0  0  0  0  0
   55.8770   29.3420   42.1090 H   0  0  0  0  0  0  0  0  0  0  0  0
   56.6120   30.1660   44.0250 C   0  0  0  0  0  0  0  0  0  0  0  0
   55.9140   31.2110   44.1310 O   0  0  0  0  0  0  0  0  0  0  0  0
   57.6070   29.7800   44.9740 N   0  0  0  0  0  0  0  0  0  0  0  0
   58.1770   30.6570   45.9580 C   0  0  0  0  0  0  0  0  0  0  0  0
   58.0980   32.0480   45.7930 C   0  0  0  0  0  0  0  0  0  0  0  0
   57.6004   32.4671   44.9060 H   0  0  0  0  0  0  0  0  0  0  0  0
   58.6490   32.9030   46.7510 C   0  0  0  0  0  0  0  0  0  0  0  0
   58.5939   33.9927   46.6116 H   0  0  0  0  0  0  0  0  0  0  0  0
   59.2700   32.3750   47.8860 C   0  0  0  0  0  0  0  0  0  0  0  0
   59.7010   33.0511   48.6391 H   0  0  0  0  0  0  0  0  0  0  0  0
   59.3460   30.9850   48.0690 C   0  0  0  0  0  0  0  0  0  0  0  0
   59.9410   30.4290   49.3290 C   0  0  0  0  0  0  0  0  0  0  0  0
   60.7014   29.6758   49.0751 H   0  0  0  0  0  0  0  0  0  0  0  0
   60.4100   31.2406   49.9046 H   0  0  0  0  0  0  0  0  0  0  0  0
   58.8860   29.8080   50.1280 N   0  0  0  0  0  0  0  0  0  0  0  0
   58.0790   30.4190   50.9500 C   0  0  0  0  0  0  0  0  0  0  0  0
   57.1710   29.6750   51.6350 N   0  0  0  0  0  0  0  0  0  0  0  0
   56.2840   30.2350   52.5040 C   0  0  0  0  0  0  0  0  0  0  0  0
   55.5596   29.5998   53.0349 H   0  0  0  0  0  0  0  0  0  0  0  0
   56.2930   31.6150   52.7220 C   0  0  0  0  0  0  0  0  0  0  0  0
   55.5859   32.0701   53.4312 H   0  0  0  0  0  0  0  0  0  0  0  0
   57.2080   32.4100   52.0310 C   0  0  0  0  0  0  0  0  0  0  0  0
   57.2204   33.4990   52.1860 H   0  0  0  0  0  0  0  0  0  0  0  0
   58.1090   31.8180   51.1410 C   0  0  0  0  0  0  0  0  0  0  0  0
   58.8354   32.4368   50.5939 H   0  0  0  0  0  0  0  0  0  0  0  0
   58.8050   30.1280   47.0940 C   0  0  0  0  0  0  0  0  0  0  0  0
   58.8750   29.0379   47.2234 H   0  0  0  0  0  0  0  0  0  0  0  0
  1  2  1  0
  3  2  1  6
  3  4  1  0
  4  5  2  0
  5  6  1  0
  5  7  1  0
  7  8  1  0
  7  9  2  0
  9 10  1  0
 10 11  1  0
 11 12  2  0
 12 13  1  0
 13 14  2  0
 13 15  1  0
 15 16  1  0
 16 17  2  0
 17 18  1  0
 17 19  1  0
 19 20  1  0
 19 21  2  0
 21 22  1  0
 21 23  1  0
 23 24  1  0
 23 25  2  0
 25 26  1  0
 11 27  1  0
 27 28  1  0
 28 29  2  0
 29 30  1  0
  3 31  1  0
 31 32  2  0
 31 33  1  0
 33 34  1  0
 33 35  1  0
 35 36  2  0
 35 37  1  0
 37 38  1  0
 38 39  2  0
 39 40  1  0
 39 41  1  0
 41 42  1  0
 41 43  2  0
 43 44  1  0
 43 45  1  0
 45 46  1  0
 46 47  1  0
 46 48  1  0
 46 49  1  0
 49 50  2  3
 50 51  1  0
 51 52  1  0
 52 53  1  0
 52 54  2  0
 54 55  1  0
 54 56  1  0
 56 57  1  0
 56 58  2  0
 58 59  1  0
 45 60  2  0
 60 61  1  0
 37  3  1  0
 60 38  1  0
 29  4  1  0
 58 50  1  0
 28  9  1  0
 25 16  1  0
M  CHG  4  10  -1  15  -1  27  -1  51  -1
M  END
>  <UniqueID>  (8) 
8

>  <SMILES>  (8) 
O=C(/N=c1\[n-]c2ccc([C@@]3(O)C(=O)NC(=O)N3c3cccc(CN=c4cccc[n-]4)c3)cc2[n-]1)[N-]c1ccccc1

>  <Energy>  (8) 
138.76395672197913

>  <Genealogy>  (8) 
O=C(N=c1[n-]c2ccc(C3(O)C(=O)NC(=O)N3c3cccc(CN=c4cccc[n-]4)c3)cc2[n-]1)[N-]c1ccccc1 (protonated)
O=C(N=c1[n-]c2ccc([C@@]3(O)C(=O)NC(=O)N3c3cccc(CN=c4cccc[n-]4)c3)cc2[n-]1)[N-]c1ccccc1 (chirality)
O=C(/N=c1\[n-]c2ccc([C@@]3(O)C(=O)NC(=O)N3c3cccc(CN=c4cccc[n-]4)c3)cc2[n-]1)[N-]c1ccccc1 (cis-trans isomerization)
O=C(/N=c1\[n-]c2ccc([C@@]3(O)C(=O)NC(=O)N3c3cccc(CN=c4cccc[n-]4)c3)cc2[n-]1)[N-]c1ccccc1 (3D coordinates assigned)
O=C(/N=c1\[n-]c2ccc([C@@]3(O)C(=O)NC(=O)N3c3cccc(CN=c4cccc[n-]4)c3)cc2[n-]1)[N-]c1ccccc1 (nonaromatic ring conformer: 138.76395672197913 kcal/mol)

>  <smiles>  (8) 
O=C(N=c1[nH]c2ccc(C3(O)C(=O)NC(=O)N3c3cccc(CN=c4cccc[nH]4)c3)cc2[nH]1)Nc1ccccc1

>  <score_type>  (8) 
oracle

>  <origin>  (8) 
adg

>  <m_score__min__energy>  (8) 
-14.619999999999999

>  <m_primary>  (8) 
energy

$$$$
8:0
     RDKit          3D

 64 67  0  0  0  0  0  0  0  0999 V2000
   61.7680   31.2940   47.2630 C   0  0  0  0  0  0  0  0  0  0  0  0
   61.1980   32.5400   46.9320 O   0  0  0  0  0  0  0  0  0  0  0  0
   59.8640   32.4490   47.2020 N   0  0  0  0  0  0  0  0  0  0  0  0
   59.3820   32.8260   48.5080 C   0  0  0  0  0  0  0  0  0  0  0  0
   59.7150   33.9350   49.0110 O   0  0  0  0  0  0  0  0  0  0  0  0
   58.5380   31.9340   49.2540 N   0  0  0  0  0  0  0  0  0  0  0  0
   57.9180   32.3240   50.5200 C   0  0  0  0  0  0  0  0  0  0  0  0
   57.7390   31.1260   51.4300 C   0  0  0  0  0  0  0  0  0  0  0  0
   56.4380   30.6810   51.7300 C   0  0  0  0  0  0  0  0  0  0  0  0
   56.2390   29.6290   52.6220 C   0  0  0  0  0  0  0  0  0  0  0  0
   57.3410   29.0100   53.2060 C   0  0  0  0  0  0  0  0  0  0  0  0
   58.5970   29.4130   52.8810 N   0  0  0  0  0  0  0  0  0  0  0  0
   58.8340   30.4300   52.0040 C   0  0  0  0  0  0  0  0  0  0  0  0
   60.2390   30.7500   51.6820 C   0  0  0  0  0  0  0  0  0  0  0  0
   60.8930   31.7920   52.3530 C   0  0  0  0  0  0  0  0  0  0  0  0
   62.2300   32.0860   52.0690 C   0  0  0  0  0  0  0  0  0  0  0  0
   62.9390   31.3330   51.1150 C   0  0  0  0  0  0  0  0  0  0  0  0
   64.3210   31.6330   50.8260 N   0  0  0  0  0  0  0  0  0  0  0  0
   64.6520   32.8960   50.1380 C   0  0  0  0  0  0  0  0  0  0  0  0
   65.7260   33.7220   50.8640 C   0  0  0  0  0  0  0  0  0  0  0  0
   67.1690   33.3160   50.5030 C   0  0  0  0  0  0  0  0  0  0  0  0
   67.5370   31.9470   50.9020 N   0  0  0  0  0  0  0  0  0  0  0  0
   66.5990   31.3270   51.8510 C   0  0  0  0  0  0  0  0  0  0  0  0
   65.3720   30.6620   51.1800 C   0  0  0  0  0  0  0  0  0  0  0  0
   62.2870   30.2720   50.4640 C   0  0  0  0  0  0  0  0  0  0  0  0
   60.9510   29.9790   50.7490 C   0  0  0  0  0  0  0  0  0  0  0  0
   58.9560   32.1360   46.1260 C   0  0  0  0  0  0  0  0  0  0  0  0
   58.8370   33.0080   45.0360 C   0  0  0  0  0  0  0  0  0  0  0  0
   57.9720   32.7010   43.9810 C   0  0  0  0  0  0  0  0  0  0  0  0
   57.2350   31.5170   43.9960 C   0  0  0  0  0  0  0  0  0  0  0  0
   57.3540   30.6160   45.0700 C   0  0  0  0  0  0  0  0  0  0  0  0
   56.5850   29.3500   45.0780 C   0  0  0  0  0  0  0  0  0  0  0  0
   55.1690   29.3590   44.9000 N   0  0  0  0  0  0  0  0  0  0  0  0
   57.1750   28.2470   45.2410 O   0  0  0  0  0  0  0  0  0  0  0  0
   58.2240   30.9350   46.1310 C   0  0  0  0  0  0  0  0  0  0  0  0
   61.8150   31.1913   48.3572 H   0  0  0  0  0  0  0  0  0  0  0  0
   61.1502   30.4855   46.8451 H   0  0  0  0  0  0  0  0  0  0  0  0
   62.7837   31.2328   46.8451 H   0  0  0  0  0  0  0  0  0  0  0  0
   58.3390   30.9780   48.8860 H   0  0  0  0  0  0  0  0  0  0  0  0
   58.5593   33.0638   51.0215 H   0  0  0  0  0  0  0  0  0  0  0  0
   56.9277   32.7529   50.3072 H   0  0  0  0  0  0  0  0  0  0  0  0
   55.5720   31.1671   51.2570 H   0  0  0  0  0  0  0  0  0  0  0  0
   55.2204   29.2906   52.8626 H   0  0  0  0  0  0  0  0  0  0  0  0
   57.1947   28.1950   53.9302 H   0  0  0  0  0  0  0  0  0  0  0  0
   60.3515   32.3818   53.1073 H   0  0  0  0  0  0  0  0  0  0  0  0
   62.7312   32.9118   52.5951 H   0  0  0  0  0  0  0  0  0  0  0  0
   65.0183   32.6578   49.1285 H   0  0  0  0  0  0  0  0  0  0  0  0
   63.7352   33.5035   50.1144 H   0  0  0  0  0  0  0  0  0  0  0  0
   65.5869   34.7809   50.6005 H   0  0  0  0  0  0  0  0  0  0  0  0
   65.6000   33.5376   51.9411 H   0  0  0  0  0  0  0  0  0  0  0  0
   67.2865   33.3992   49.4125 H   0  0  0  0  0  0  0  0  0  0  0  0
   67.8329   33.9931   51.0605 H   0  0  0  0  0  0  0  0  0  0  0  0
   67.6920   31.3390   50.0640 H   0  0  0  0  0  0  0  0  0  0  0  0
   67.1411   30.5577   52.4205 H   0  0  0  0  0  0  0  0  0  0  0  0
   66.2133   32.1344   52.4908 H   0  0  0  0  0  0  0  0  0  0  0  0
   65.7049   30.1538   50.2630 H   0  0  0  0  0  0  0  0  0  0  0  0
   64.9406   29.9546   51.9035 H   0  0  0  0  0  0  0  0  0  0  0  0
   62.8326   29.6676   49.7244 H   0  0  0  0  0  0  0  0  0  0  0  0
   60.4543   29.1399   50.2399 H   0  0  0  0  0  0  0  0  0  0  0  0
   59.4257   33.9369   45.0100 H   0  0  0  0  0  0  0  0  0  0  0  0
   57.8723   33.3969   43.1349 H   0  0  0  0  0  0  0  0  0  0  0  0
   56.5558   31.2860   43.1621 H   0  0  0  0  0  0  0  0  0  0  0  0
   54.5240   29.3670   45.7200 H   0  0  0  0  0  0  0  0  0  0  0  0
   58.3322   30.2363   46.9737 H   0  0  0  0  0  0  0  0  0  0  0  0
  1  2  1  0
  2  3  1  0
  3  4  1  0
  4  5  2  0
  4  6  1  0
  6  7  1  0
  7  8  1  0
  8  9  2  0
  9 10  1  0
 10 11  2  0
 11 12  1  0
 12 13  2  0
 13 14  1  0
 14 15  2  0
 15 16  1  0
 16 17  2  0
 17 18  1  0
 18 19  1  0
 19 20  1  0
 20 21  1  0
 21 22  1  0
 22 23  1  0
 23 24  1  0
 17 25  1  0
 25 26  2  0
  3 27  1  0
 27 28  2  0
 28 29  1  0
 29 30  2  0
 30 31  1  0
 31 32  1  0
 32 33  1  0
 32 34  2  0
 31 35  2  0
 13  8  1  0
 26 14  1  0
 35 27  1  0
 24 18  1  0
  1 36  1  0
  1 37  1  0
  1 38  1  0
  6 39  1  0
  7 40  1  0
  7 41  1  0
  9 42  1  0
 10 43  1  0
 11 44  1  0
 15 45  1  0
 16 46  1  0
 19 47  1  0
 19 48  1  0
 20 49  1  0
 20 50  1  0
 21 51  1  0
 21 52  1  0
 22 53  1  0
 23 54  1  0
 23 55  1  0
 24 56  1  0
 24 57  1  0
 25 58  1  0
 26 59  1  0
 28 60  1  0
 29 61  1  0
 30 62  1  0
 33 63  1  0
 35 64  1  0
M  CHG  1  33  -1
M  END
>  <UniqueID>  (9) 
9

>  <SMILES>  (9) 
CON(C(=O)NCc1cccnc1-c1ccc(N2CCCNCC2)cc1)c1cccc(C([NH-])=O)c1

>  <Energy>  (9) 
88.68309238435735

>  <Genealogy>  (9) 
CON(C(=O)NCc1cccnc1-c1ccc(N2CCCNCC2)cc1)c1cccc(C([NH-])=O)c1 (protonated)
CON(C(=O)NCc1cccnc1-c1ccc(N2CCCNCC2)cc1)c1cccc(C([NH-])=O)c1 (3D coordinates assigned)
CON(C(=O)NCc1cccnc1-c1ccc(N2CCCNCC2)cc1)c1cccc(C([NH-])=O)c1 (nonaromatic ring conformer: 88.68309238435735 kcal/mol)

>  <smiles>  (9) 
CON(C(=O)NCc1cccnc1-c1ccc(N2CCCNCC2)cc1)c1cccc(C(N)=O)c1

>  <score_type>  (9) 
oracle

>  <origin>  (9) 
adg

>  <m_score__min__energy>  (9) 
-11.4

>  <m_primary>  (9) 
energy

$$$$
9:0
     RDKit          3D

 45 48  0  0  0  0  0  0  0  0999 V2000
   58.3580   30.7160   53.2540 O   0  0  0  0  0  0  0  0  0  0  0  0
   57.5800   30.1670   52.4270 C   0  0  0  0  0  0  0  0  0  0  0  0
   58.1160   29.4700   51.2920 N   0  0  0  0  0  0  0  0  0  0  0  0
   59.0460   29.9870   50.3300 C   0  0  0  0  0  0  0  0  0  0  0  0
   60.3690   30.2100   50.7310 C   0  0  0  0  0  0  0  0  0  0  0  0
   61.3110   30.6990   49.8220 C   0  0  0  0  0  0  0  0  0  0  0  0
   60.9410   30.9590   48.5010 C   0  0  0  0  0  0  0  0  0  0  0  0
   59.6200   30.7300   48.0780 C   0  0  0  0  0  0  0  0  0  0  0  0
   59.2190   30.9460   46.7520 O   0  0  0  0  0  0  0  0  0  0  0  0
   58.8410   32.1830   46.2090 C   0  0  0  0  0  0  0  0  0  0  0  0
   57.6940   32.3250   45.4040 C   0  0  0  0  0  0  0  0  0  0  0  0
   57.3610   33.5730   44.8670 C   0  0  0  0  0  0  0  0  0  0  0  0
   58.1750   34.6820   45.1170 C   0  0  0  0  0  0  0  0  0  0  0  0
   59.3240   34.5430   45.9000 C   0  0  0  0  0  0  0  0  0  0  0  0
   59.6580   33.2960   46.4400 C   0  0  0  0  0  0  0  0  0  0  0  0
   58.6850   30.2220   48.9900 C   0  0  0  0  0  0  0  0  0  0  0  0
   56.1540   30.1870   52.6500 N   0  0  0  0  0  0  0  0  0  0  0  0
   55.6020   29.7240   53.9320 C   0  0  0  0  0  0  0  0  0  0  0  0
   54.2660   29.0230   53.7160 C   0  0  0  0  0  0  0  0  0  0  0  0
   53.3250   29.9200   52.9670 C   0  0  0  0  0  0  0  0  0  0  0  0
   51.9430   29.8480   53.2010 C   0  0  0  0  0  0  0  0  0  0  0  0
   51.0630   30.6580   52.4800 C   0  0  0  0  0  0  0  0  0  0  0  0
   51.5540   31.5350   51.5110 C   0  0  0  0  0  0  0  0  0  0  0  0
   50.6760   32.3390   50.7930 O   0  0  0  0  0  0  0  0  0  0  0  0
   52.9290   31.6050   51.2620 C   0  0  0  0  0  0  0  0  0  0  0  0
   53.8230   30.8000   51.9850 C   0  0  0  0  0  0  0  0  0  0  0  0
   55.2970   30.8580   51.6560 C   0  0  0  0  0  0  0  0  0  0  0  0
   60.6687   29.9989   51.7681 H   0  0  0  0  0  0  0  0  0  0  0  0
   62.3460   30.8794   50.1478 H   0  0  0  0  0  0  0  0  0  0  0  0
   61.6856   31.3443   47.7889 H   0  0  0  0  0  0  0  0  0  0  0  0
   57.0580   31.4517   45.1969 H   0  0  0  0  0  0  0  0  0  0  0  0
   56.4584   33.6820   44.2478 H   0  0  0  0  0  0  0  0  0  0  0  0
   57.9109   35.6639   44.6973 H   0  0  0  0  0  0  0  0  0  0  0  0
   59.9667   35.4148   46.0921 H   0  0  0  0  0  0  0  0  0  0  0  0
   60.5676   33.1898   47.0494 H   0  0  0  0  0  0  0  0  0  0  0  0
   57.6598   30.0050   48.6556 H   0  0  0  0  0  0  0  0  0  0  0  0
   56.3085   29.0211   54.3976 H   0  0  0  0  0  0  0  0  0  0  0  0
   55.4455   30.5939   54.5868 H   0  0  0  0  0  0  0  0  0  0  0  0
   54.4284   28.1021   53.1368 H   0  0  0  0  0  0  0  0  0  0  0  0
   53.8266   28.7789   54.6944 H   0  0  0  0  0  0  0  0  0  0  0  0
   51.5512   29.1503   53.9558 H   0  0  0  0  0  0  0  0  0  0  0  0
   49.9819   30.6050   52.6758 H   0  0  0  0  0  0  0  0  0  0  0  0
   53.3115   32.2948   50.4953 H   0  0  0  0  0  0  0  0  0  0  0  0
   55.4540   30.3753   50.6801 H   0  0  0  0  0  0  0  0  0  0  0  0
   55.5830   31.9201   51.6505 H   0  0  0  0  0  0  0  0  0  0  0  0
  1  2  2  0
  2  3  1  0
  3  4  1  0
  4  5  2  0
  5  6  1  0
  6  7  2  0
  7  8  1  0
  8  9  1  0
  9 10  1  0
 10 11  2  0
 11 12  1  0
 12 13  2  0
 13 14  1  0
 14 15  2  0
  8 16  2  0
  2 17  1  0
 17 18  1  0
 18 19  1  0
 19 20  1  0
 20 21  2  0
 21 22  1  0
 22 23  2  0
 23 24  1  0
 23 25  1  0
 25 26  2  0
 26 27  1  0
 16  4  1  0
 27 17  1  0
 15 10  1  0
 26 20  1  0
  5 28  1  0
  6 29  1  0
  7 30  1  0
 11 31  1  0
 12 32  1  0
 13 33  1  0
 14 34  1  0
 15 35  1  0
 16 36  1  0
 18 37  1  0
 18 38  1  0
 19 39  1  0
 19 40  1  0
 21 41  1  0
 22 42  1  0
 25 43  1  0
 27 44  1  0
 27 45  1  0
M  CHG  2   3  -1  24  -1
M  END
>  <UniqueID>  (10) 
10

>  <SMILES>  (10) 
O=C([N-]c1cccc(Oc2ccccc2)c1)N1CCc2ccc([O-])cc2C1

>  <Energy>  (10) 
61.00337761521747

>  <Genealogy>  (10) 
O=C([N-]c1cccc(Oc2ccccc2)c1)N1CCc2ccc([O-])cc2C1 (protonated)
O=C([N-]c1cccc(Oc2ccccc2)c1)N1CCc2ccc([O-])cc2C1 (3D coordinates assigned)
O=C([N-]c1cccc(Oc2ccccc2)c1)N1CCc2ccc([O-])cc2C1 (nonaromatic ring conformer: 61.00337761521747 kcal/mol)

>  <smiles>  (10) 
O=C(Nc1cccc(Oc2ccccc2)c1)N1CCc2ccc(O)cc2C1

>  <score_type>  (10) 
oracle

>  <origin>  (10) 
adg

>  <m_score__min__energy>  (10) 
-13.470000000000001

>  <m_primary>  (10) 
energy

$$$$
10:0
     RDKit          3D

 30 31  0  0  0  0  0  0  0  0999 V2000
   60.8220   31.8810   47.3530 O   0  0  0  0  0  0  0  0  0  0  0  0
   59.6720   31.3670   47.3890 C   0  0  0  0  0  0  0  0  0  0  0  0
   58.7740   31.4530   46.2260 C   0  0  0  0  0  0  0  0  0  0  0  0
   58.7420   32.5470   45.3650 C   0  0  0  0  0  0  0  0  0  0  0  0
   57.5990   32.2440   44.1730 S   0  0  0  0  0  0  0  0  0  0  0  0
   57.1270   30.7260   44.7200 C   0  0  0  0  0  0  0  0  0  0  0  0
   56.0230   29.9490   44.1310 C   0  0  0  0  0  0  0  0  0  0  0  0
   55.1660   29.3850   44.8620 O   0  0  0  0  0  0  0  0  0  0  0  0
   55.8950   29.8700   42.7500 O   0  0  0  0  0  0  0  0  0  0  0  0
   57.8850   30.4260   45.8590 C   0  0  0  0  0  0  0  0  0  0  0  0
   57.7910   29.2030   46.5980 N   0  0  0  0  0  0  0  0  0  0  0  0
   58.3270   27.9530   46.1510 C   0  0  0  0  0  0  0  0  0  0  0  0
   59.2230   27.3670   46.8170 O   0  0  0  0  0  0  0  0  0  0  0  0
   57.7540   27.3000   44.9350 C   0  0  0  0  0  0  0  0  0  0  0  0
   57.3000   25.9020   45.2690 C   0  0  0  0  0  0  0  0  0  0  0  0
   58.1930   24.8280   45.1180 C   0  0  0  0  0  0  0  0  0  0  0  0
   57.8020   23.5310   45.4570 C   0  0  0  0  0  0  0  0  0  0  0  0
   56.5220   23.2940   45.9630 C   0  0  0  0  0  0  0  0  0  0  0  0
   55.6250   24.3540   46.1350 C   0  0  0  0  0  0  0  0  0  0  0  0
   54.3570   24.0900   46.6510 O   0  0  0  0  0  0  0  0  0  0  0  0
   56.0130   25.6620   45.7920 C   0  0  0  0  0  0  0  0  0  0  0  0
   55.1230   26.7170   45.9740 O   0  0  0  0  0  0  0  0  0  0  0  0
   59.3358   30.8486   48.2991 H   0  0  0  0  0  0  0  0  0  0  0  0
   59.3592   33.4535   45.4510 H   0  0  0  0  0  0  0  0  0  0  0  0
   56.8952   27.8865   44.5765 H   0  0  0  0  0  0  0  0  0  0  0  0
   58.5251   27.2529   44.1519 H   0  0  0  0  0  0  0  0  0  0  0  0
   59.2063   25.0098   44.7304 H   0  0  0  0  0  0  0  0  0  0  0  0
   58.5037   22.6942   45.3252 H   0  0  0  0  0  0  0  0  0  0  0  0
   56.2180   22.2704   46.2272 H   0  0  0  0  0  0  0  0  0  0  0  0
   53.6530   24.8110   46.7440 H   0  0  0  0  0  0  0  0  0  0  0  0
  1  2  2  0
  2  3  1  0
  3  4  2  0
  4  5  1  0
  5  6  1  0
  6  7  1  0
  7  8  2  0
  7  9  1  0
  6 10  2  0
 10 11  1  0
 11 12  1  0
 12 13  2  0
 12 14  1  0
 14 15  1  0
 15 16  2  0
 16 17  1  0
 17 18  2  0
 18 19  1  0
 19 20  1  0
 19 21  2  0
 21 22  1  0
 10  3  1  0
 21 15  1  0
  2 23  1  0
  4 24  1  0
 14 25  1  0
 14 26  1  0
 16 27  1  0
 17 28  1  0
 18 29  1  0
 20 30  1  0
M  CHG  3   9  -1  11  -1  22  -1
M  END
>  <UniqueID>  (11) 
11

>  <SMILES>  (11) 
O=Cc1csc(C(=O)[O-])c1[N-]C(=O)Cc1cccc(O)c1[O-]

>  <Energy>  (11) 
61.35442682903754

>  <Genealogy>  (11) 
O=Cc1csc(C(=O)[O-])c1[N-]C(=O)Cc1cccc(O)c1[O-] (protonated)
O=Cc1csc(C(=O)[O-])c1[N-]C(=O)Cc1cccc(O)c1[O-] (3D coordinates assigned)
O=Cc1csc(C(=O)[O-])c1[N-]C(=O)Cc1cccc(O)c1[O-] (optimized conformer: 61.35442682903754 kcal/mol)

>  <smiles>  (11) 
O=Cc1csc(C(=O)O)c1NC(=O)Cc1cccc(O)c1O

>  <score_type>  (11) 
oracle

>  <origin>  (11) 
adg

>  <m_score__min__energy>  (11) 
-13.69

>  <m_primary>  (11) 
energy

$$$$
11:0
     RDKit          3D

 55 57  0  0  0  0  0  0  0  0999 V2000
   58.1070   26.5340   43.7980 C   0  0  0  0  0  0  0  0  0  0  0  0
   57.8710   26.2860   45.2280 N   0  0  0  0  0  0  0  0  0  0  0  0
   59.1400   26.0900   45.9450 C   0  0  0  0  0  0  0  0  0  0  0  0
   57.0160   27.3210   45.8530 C   0  0  0  0  0  0  0  0  0  0  0  0
   57.2960   28.7280   45.3630 C   0  0  0  0  0  0  0  0  0  0  0  0
   58.5040   29.3660   45.6870 C   0  0  0  0  0  0  0  0  0  0  0  0
   58.7670   30.6580   45.2250 C   0  0  0  0  0  0  0  0  0  0  0  0
   57.8240   31.3340   44.4360 C   0  0  0  0  0  0  0  0  0  0  0  0
   58.1140   32.7150   43.9080 C   0  0  0  0  0  0  0  0  0  0  0  0
   57.6330   33.7650   44.8360 N   0  0  0  0  0  0  0  0  0  0  0  0
   58.5030   34.9610   44.8750 C   0  0  0  0  0  0  0  0  0  0  0  0
   59.8660   34.6480   45.5020 C   0  0  0  0  0  0  0  0  0  0  0  0
   59.7180   33.8170   46.7020 N   0  0  0  0  0  0  0  0  0  0  0  0
   60.9110   33.3970   47.3980 C   0  0  0  0  0  0  0  0  0  0  0  0
   61.9790   33.2280   46.7470 O   0  0  0  0  0  0  0  0  0  0  0  0
   60.9000   33.1140   48.8800 C   0  0  0  0  0  0  0  0  0  0  0  0
   60.2160   31.8080   49.1910 C   0  0  0  0  0  0  0  0  0  0  0  0
   59.1750   31.7560   50.1330 C   0  0  0  0  0  0  0  0  0  0  0  0
   58.5230   30.5470   50.3960 C   0  0  0  0  0  0  0  0  0  0  0  0
   58.8990   29.3860   49.7150 C   0  0  0  0  0  0  0  0  0  0  0  0
   59.9250   29.4320   48.7670 C   0  0  0  0  0  0  0  0  0  0  0  0
   60.5790   30.6390   48.5010 C   0  0  0  0  0  0  0  0  0  0  0  0
   58.3800   33.6080   47.2720 C   0  0  0  0  0  0  0  0  0  0  0  0
   57.3500   33.2200   46.1880 C   0  0  0  0  0  0  0  0  0  0  0  0
   56.6120   30.7010   44.1190 C   0  0  0  0  0  0  0  0  0  0  0  0
   56.3490   29.4090   44.5820 C   0  0  0  0  0  0  0  0  0  0  0  0
   58.8611   27.3265   43.6829 H   0  0  0  0  0  0  0  0  0  0  0  0
   58.4688   25.6114   43.3207 H   0  0  0  0  0  0  0  0  0  0  0  0
   57.1676   26.8497   43.3207 H   0  0  0  0  0  0  0  0  0  0  0  0
   58.9567   26.1183   47.0292 H   0  0  0  0  0  0  0  0  0  0  0  0
   59.5691   25.1149   45.6710 H   0  0  0  0  0  0  0  0  0  0  0  0
   59.8433   26.8902   45.6710 H   0  0  0  0  0  0  0  0  0  0  0  0
   55.9652   27.0807   45.6337 H   0  0  0  0  0  0  0  0  0  0  0  0
   57.2364   27.3087   46.9306 H   0  0  0  0  0  0  0  0  0  0  0  0
   59.2477   28.8455   46.3083 H   0  0  0  0  0  0  0  0  0  0  0  0
   59.7181   31.1477   45.4811 H   0  0  0  0  0  0  0  0  0  0  0  0
   59.2004   32.8258   43.7755 H   0  0  0  0  0  0  0  0  0  0  0  0
   57.5875   32.8349   42.9496 H   0  0  0  0  0  0  0  0  0  0  0  0
   58.6575   35.3235   43.8480 H   0  0  0  0  0  0  0  0  0  0  0  0
   58.0084   35.7258   45.4918 H   0  0  0  0  0  0  0  0  0  0  0  0
   60.4844   34.1112   44.7675 H   0  0  0  0  0  0  0  0  0  0  0  0
   60.3433   35.5961   45.7907 H   0  0  0  0  0  0  0  0  0  0  0  0
   61.9376   33.0685   49.2423 H   0  0  0  0  0  0  0  0  0  0  0  0
   60.3440   33.9208   49.3799 H   0  0  0  0  0  0  0  0  0  0  0  0
   58.8717   32.6694   50.6656 H   0  0  0  0  0  0  0  0  0  0  0  0
   57.7133   30.5099   51.1397 H   0  0  0  0  0  0  0  0  0  0  0  0
   58.3871   28.4353   49.9252 H   0  0  0  0  0  0  0  0  0  0  0  0
   60.2182   28.5180   48.2297 H   0  0  0  0  0  0  0  0  0  0  0  0
   61.3808   30.6735   47.7487 H   0  0  0  0  0  0  0  0  0  0  0  0
   58.4327   32.8016   48.0183 H   0  0  0  0  0  0  0  0  0  0  0  0
   58.0530   34.5517   47.7329 H   0  0  0  0  0  0  0  0  0  0  0  0
   57.3257   32.1226   46.1163 H   0  0  0  0  0  0  0  0  0  0  0  0
   56.3904   33.6560   46.5028 H   0  0  0  0  0  0  0  0  0  0  0  0
   55.8657   31.2244   43.5032 H   0  0  0  0  0  0  0  0  0  0  0  0
   55.3942   28.9228   44.3330 H   0  0  0  0  0  0  0  0  0  0  0  0
  1  2  1  0
  2  3  1  0
  2  4  1  0
  4  5  1  0
  5  6  2  0
  6  7  1  0
  7  8  2  0
  8  9  1  0
  9 10  1  0
 10 11  1  0
 11 12  1  0
 12 13  1  0
 13 14  1  0
 14 15  2  0
 14 16  1  0
 16 17  1  0
 17 18  2  0
 18 19  1  0
 19 20  2  0
 20 21  1  0
 21 22  2  0
 13 23  1  0
 23 24  1  0
  8 25  1  0
 25 26  2  0
 26  5  1  0
 24 10  1  0
 22 17  1  0
  1 27  1  0
  1 28  1  0
  1 29  1  0
  3 30  1  0
  3 31  1  0
  3 32  1  0
  4 33  1  0
  4 34  1  0
  6 35  1  0
  7 36  1  0
  9 37  1  0
  9 38  1  0
 11 39  1  0
 11 40  1  0
 12 41  1  0
 12 42  1  0
 16 43  1  0
 16 44  1  0
 18 45  1  0
 19 46  1  0
 20 47  1  0
 21 48  1  0
 22 49  1  0
 23 50  1  0
 23 51  1  0
 24 52  1  0
 24 53  1  0
 25 54  1  0
 26 55  1  0
M  END
>  <UniqueID>  (12) 
12

>  <SMILES>  (12) 
CN(C)Cc1ccc(CN2CCN(C(=O)Cc3ccccc3)CC2)cc1

>  <Energy>  (12) 
67.07634217360825

>  <Genealogy>  (12) 
CN(C)Cc1ccc(CN2CCN(C(=O)Cc3ccccc3)CC2)cc1 (3D coordinates assigned)
CN(C)Cc1ccc(CN2CCN(C(=O)Cc3ccccc3)CC2)cc1 (nonaromatic ring conformer: 67.07634217360825 kcal/mol)

>  <smiles>  (12) 
CN(C)Cc1ccc(CN2CCN(C(=O)Cc3ccccc3)CC2)cc1

>  <score_type>  (12) 
oracle

>  <origin>  (12) 
adg

>  <m_score__min__energy>  (12) 
-7.3499999999999996

>  <m_primary>  (12) 
energy

$$$$
12:0
     RDKit          3D

 39 41  0  0  0  0  0  0  0  0999 V2000
   57.3640   20.9230   42.6140 O   0  0  0  0  0  0  0  0  0  0  0  0
   57.0260   21.8740   43.3700 C   0  0  0  0  0  0  0  0  0  0  0  0
   57.0780   21.7120   44.7590 C   0  0  0  0  0  0  0  0  0  0  0  0
   56.6910   22.7680   45.5850 C   0  0  0  0  0  0  0  0  0  0  0  0
   56.2630   23.9760   45.0200 C   0  0  0  0  0  0  0  0  0  0  0  0
   55.7120   25.3060   46.0320 S   0  0  0  0  0  0  0  0  0  0  0  0
   54.2530   25.5660   45.7900 O   0  0  0  0  0  0  0  0  0  0  0  0
   55.9040   24.9660   47.4840 O   0  0  0  0  0  0  0  0  0  0  0  0
   56.6110   26.7250   45.6230 N   0  0  0  0  0  0  0  0  0  0  0  0
   58.0180   26.8060   45.8570 C   0  0  0  0  0  0  0  0  0  0  0  0
   58.7440   25.6530   46.1880 C   0  0  0  0  0  0  0  0  0  0  0  0
   60.1270   25.7230   46.3740 C   0  0  0  0  0  0  0  0  0  0  0  0
   60.7920   26.9430   46.2280 C   0  0  0  0  0  0  0  0  0  0  0  0
   60.0760   28.0950   45.8940 C   0  0  0  0  0  0  0  0  0  0  0  0
   58.6850   28.0380   45.7120 C   0  0  0  0  0  0  0  0  0  0  0  0
   57.9590   29.2130   45.3150 N   0  0  0  0  0  0  0  0  0  0  0  0
   57.9720   30.4050   46.1670 C   0  0  0  0  0  0  0  0  0  0  0  0
   57.7550   31.6530   45.3050 C   0  0  0  0  0  0  0  0  0  0  0  0
   56.6060   31.5120   44.4900 O   0  0  0  0  0  0  0  0  0  0  0  0
   56.8000   30.4610   43.5620 C   0  0  0  0  0  0  0  0  0  0  0  0
   56.9230   29.1160   44.2850 C   0  0  0  0  0  0  0  0  0  0  0  0
   56.2290   24.0980   43.6240 C   0  0  0  0  0  0  0  0  0  0  0  0
   56.6070   23.0560   42.8340 N   0  0  0  0  0  0  0  0  0  0  0  0
   57.4204   20.7620   45.1952 H   0  0  0  0  0  0  0  0  0  0  0  0
   56.7220   22.6519   46.6784 H   0  0  0  0  0  0  0  0  0  0  0  0
   58.2233   24.6907   46.3015 H   0  0  0  0  0  0  0  0  0  0  0  0
   60.6928   24.8167   46.6356 H   0  0  0  0  0  0  0  0  0  0  0  0
   61.8807   26.9965   46.3762 H   0  0  0  0  0  0  0  0  0  0  0  0
   60.6048   29.0519   45.7729 H   0  0  0  0  0  0  0  0  0  0  0  0
   57.1674   30.3307   46.9133 H   0  0  0  0  0  0  0  0  0  0  0  0
   58.9426   30.4782   46.6794 H   0  0  0  0  0  0  0  0  0  0  0  0
   57.6255   32.5259   45.9617 H   0  0  0  0  0  0  0  0  0  0  0  0
   58.6321   31.7872   44.6548 H   0  0  0  0  0  0  0  0  0  0  0  0
   55.9426   30.4240   42.8739 H   0  0  0  0  0  0  0  0  0  0  0  0
   57.7292   30.6489   43.0041 H   0  0  0  0  0  0  0  0  0  0  0  0
   55.9611   28.8618   44.7542 H   0  0  0  0  0  0  0  0  0  0  0  0
   57.1945   28.3326   43.5621 H   0  0  0  0  0  0  0  0  0  0  0  0
   55.8953   25.0402   43.1648 H   0  0  0  0  0  0  0  0  0  0  0  0
   56.5670   23.1690   41.7960 H   0  0  0  0  0  0  0  0  0  0  0  0
  1  2  2  0
  2  3  1  0
  3  4  2  0
  4  5  1  0
  5  6  1  0
  6  7  2  0
  6  8  2  0
  6  9  1  0
  9 10  1  0
 10 11  2  0
 11 12  1  0
 12 13  2  0
 13 14  1  0
 14 15  2  0
 15 16  1  0
 16 17  1  0
 17 18  1  0
 18 19  1  0
 19 20  1  0
 20 21  1  0
  5 22  2  0
 22 23  1  0
 23  2  1  0
 15 10  1  0
 21 16  1  0
  3 24  1  0
  4 25  1  0
 11 26  1  0
 12 27  1  0
 13 28  1  0
 14 29  1  0
 17 30  1  0
 17 31  1  0
 18 32  1  0
 18 33  1  0
 20 34  1  0
 20 35  1  0
 21 36  1  0
 21 37  1  0
 22 38  1  0
 23 39  1  0
M  CHG  1   9  -1
M  END
>  <UniqueID>  (13) 
13

>  <SMILES>  (13) 
O=c1ccc(S(=O)(=O)[N-]c2ccccc2N2CCOCC2)c[nH]1

>  <Energy>  (13) 
52.413153489334604

>  <Genealogy>  (13) 
O=c1ccc(S(=O)(=O)[N-]c2ccccc2N2CCOCC2)c[nH]1 (protonated)
O=c1ccc(S(=O)(=O)[N-]c2ccccc2N2CCOCC2)c[nH]1 (3D coordinates assigned)
O=c1ccc(S(=O)(=O)[N-]c2ccccc2N2CCOCC2)c[nH]1 (nonaromatic ring conformer: 52.413153489334604 kcal/mol)

>  <smiles>  (13) 
O=c1ccc(S(=O)(=O)Nc2ccccc2N2CCOCC2)c[nH]1

>  <score_type>  (13) 
oracle

>  <origin>  (13) 
adg

>  <m_score__min__energy>  (13) 
-9.2899999999999991

>  <m_primary>  (13) 
energy

$$$$
13:0
     RDKit          3D

 52 55  0  0  0  0  0  0  0  0999 V2000
   59.9670   27.1560   47.5960 O   0  0  0  0  0  0  0  0  0  0  0  0
   59.0000   27.9660   47.6100 C   0  0  0  0  0  0  0  0  0  0  0  0
   57.6920   27.5470   47.2040 N   0  0  0  0  0  0  0  0  0  0  0  0
   57.3830   26.2190   46.7550 C   0  0  0  0  0  0  0  0  0  0  0  0
   58.3710   25.2260   46.8360 C   0  0  0  0  0  0  0  0  0  0  0  0
   58.1080   23.9250   46.3920 C   0  0  0  0  0  0  0  0  0  0  0  0
   56.8620   23.6080   45.8490 C   0  0  0  0  0  0  0  0  0  0  0  0
   55.8790   24.5960   45.7350 C   0  0  0  0  0  0  0  0  0  0  0  0
   56.1400   25.9040   46.1730 C   0  0  0  0  0  0  0  0  0  0  0  0
   55.1680   26.8810   45.9960 O   0  0  0  0  0  0  0  0  0  0  0  0
   59.2020   29.3040   47.9580 O   0  0  0  0  0  0  0  0  0  0  0  0
   60.2720   30.0910   47.4410 C   0  0  0  0  0  0  0  0  0  0  0  0
   60.7540   31.0770   48.4790 C   0  0  0  0  0  0  0  0  0  0  0  0
   62.1070   31.0650   48.8650 C   0  0  0  0  0  0  0  0  0  0  0  0
   62.5980   32.0020   49.7770 C   0  0  0  0  0  0  0  0  0  0  0  0
   61.7490   32.9690   50.3100 C   0  0  0  0  0  0  0  0  0  0  0  0
   60.4120   33.0120   49.9210 C   0  0  0  0  0  0  0  0  0  0  0  0
   59.9050   32.0830   49.0020 C   0  0  0  0  0  0  0  0  0  0  0  0
   58.1880   32.2310   48.4700 S   0  0  0  0  0  0  0  0  0  0  0  0
   58.5400   33.1770   46.9810 C   0  0  0  0  0  0  0  0  0  0  0  0
   59.4210   34.2650   47.1110 C   0  0  0  0  0  0  0  0  0  0  0  0
   59.7950   35.0240   46.0030 C   0  0  0  0  0  0  0  0  0  0  0  0
   59.2840   34.7150   44.7450 C   0  0  0  0  0  0  0  0  0  0  0  0
   58.3740   33.6720   44.6010 C   0  0  0  0  0  0  0  0  0  0  0  0
   57.9750   32.8960   45.7000 C   0  0  0  0  0  0  0  0  0  0  0  0
   56.9100   31.9590   45.4330 N   0  0  0  0  0  0  0  0  0  0  0  0
   56.6710   30.7590   44.1990 S   0  0  0  0  0  0  0  0  0  0  0  0
   56.6440   31.4090   42.8470 O   0  0  0  0  0  0  0  0  0  0  0  0
   55.3470   30.0960   44.4320 O   0  0  0  0  0  0  0  0  0  0  0  0
   57.9220   29.5340   44.2830 C   0  0  0  0  0  0  0  0  0  0  0  0
   57.7430   28.1760   44.0670 C   0  0  0  0  0  0  0  0  0  0  0  0
   58.9260   27.4420   44.2210 C   0  0  0  0  0  0  0  0  0  0  0  0
   60.0290   28.2220   44.5520 C   0  0  0  0  0  0  0  0  0  0  0  0
   59.5380   29.8310   44.6460 S   0  0  0  0  0  0  0  0  0  0  0  0
   56.9630   28.2880   47.0810 H   0  0  0  0  0  0  0  0  0  0  0  0
   59.3594   25.4718   47.2515 H   0  0  0  0  0  0  0  0  0  0  0  0
   58.8852   23.1506   46.4712 H   0  0  0  0  0  0  0  0  0  0  0  0
   56.6535   22.5822   45.5111 H   0  0  0  0  0  0  0  0  0  0  0  0
   54.8991   24.3478   45.3012 H   0  0  0  0  0  0  0  0  0  0  0  0
   61.1035   29.4292   47.1569 H   0  0  0  0  0  0  0  0  0  0  0  0
   59.9122   30.6470   46.5627 H   0  0  0  0  0  0  0  0  0  0  0  0
   62.7859   30.3090   48.4437 H   0  0  0  0  0  0  0  0  0  0  0  0
   63.6566   31.9762   50.0747 H   0  0  0  0  0  0  0  0  0  0  0  0
   62.1340   33.6984   51.0378 H   0  0  0  0  0  0  0  0  0  0  0  0
   59.7477   33.7826   50.3392 H   0  0  0  0  0  0  0  0  0  0  0  0
   59.8216   34.5215   48.1028 H   0  0  0  0  0  0  0  0  0  0  0  0
   60.4929   35.8659   46.1223 H   0  0  0  0  0  0  0  0  0  0  0  0
   59.5996   35.2952   43.8653 H   0  0  0  0  0  0  0  0  0  0  0  0
   57.9594   33.4516   43.6063 H   0  0  0  0  0  0  0  0  0  0  0  0
   56.7757   27.7237   43.8030 H   0  0  0  0  0  0  0  0  0  0  0  0
   58.9779   26.3508   44.0922 H   0  0  0  0  0  0  0  0  0  0  0  0
   61.0502   27.8508   44.7236 H   0  0  0  0  0  0  0  0  0  0  0  0
  1  2  2  0
  2  3  1  0
  3  4  1  0
  4  5  2  0
  5  6  1  0
  6  7  2  0
  7  8  1  0
  8  9  2  0
  9 10  1  0
  2 11  1  0
 11 12  1  0
 12 13  1  0
 13 14  2  0
 14 15  1  0
 15 16  2  0
 16 17  1  0
 17 18  2  0
 18 19  1  0
 19 20  1  0
 20 21  2  0
 21 22  1  0
 22 23  2  0
 23 24  1  0
 24 25  2  0
 25 26  1  0
 26 27  1  0
 27 28  2  0
 27 29  2  0
 27 30  1  0
 30 31  2  0
 31 32  1  0
 32 33  2  0
 33 34  1  0
  9  4  1  0
 18 13  1  0
 25 20  1  0
 34 30  1  0
  3 35  1  0
  5 36  1  0
  6 37  1  0
  7 38  1  0
  8 39  1  0
 12 40  1  0
 12 41  1  0
 14 42  1  0
 15 43  1  0
 16 44  1  0
 17 45  1  0
 21 46  1  0
 22 47  1  0
 23 48  1  0
 24 49  1  0
 31 50  1  0
 32 51  1  0
 33 52  1  0
M  CHG  2  10  -1  26  -1
M  END
>  <UniqueID>  (14) 
14

>  <SMILES>  (14) 
O=C(Nc1ccccc1[O-])OCc1ccccc1Sc1ccccc1[N-]S(=O)(=O)c1cccs1

>  <Energy>  (14) 
100.40782376535358

>  <Genealogy>  (14) 
O=C(Nc1ccccc1[O-])OCc1ccccc1Sc1ccccc1[N-]S(=O)(=O)c1cccs1 (protonated)
O=C(Nc1ccccc1[O-])OCc1ccccc1Sc1ccccc1[N-]S(=O)(=O)c1cccs1 (3D coordinates assigned)
O=C(Nc1ccccc1[O-])OCc1ccccc1Sc1ccccc1[N-]S(=O)(=O)c1cccs1 (optimized conformer: 100.40782376535358 kcal/mol)

>  <smiles>  (14) 
O=C(Nc1ccccc1O)OCc1ccccc1Sc1ccccc1NS(=O)(=O)c1cccs1

>  <score_type>  (14) 
oracle

>  <origin>  (14) 
adg

>  <m_score__min__energy>  (14) 
-14.869999999999999

>  <m_primary>  (14) 
energy

$$$$
14:0
     RDKit          3D

 49 52  0  0  0  0  0  0  0  0999 V2000
   59.1267   29.0939   45.0860 H   0  0  0  0  0  0  0  0  0  0  0  0
   58.2920   28.4050   45.2830 C   0  0  0  0  0  0  0  0  0  0  0  0
   58.4120   27.1130   45.6370 N   0  0  0  0  0  0  0  0  0  0  0  0
   57.1340   26.6930   45.7620 C   0  0  0  0  0  0  0  0  0  0  0  0
   56.7980   25.4900   46.1250 N   0  0  0  0  0  0  0  0  0  0  0  0
   57.0610   24.2710   45.4100 C   0  0  0  0  0  0  0  0  0  0  0  0
   56.0760   23.6330   44.6330 C   0  0  0  0  0  0  0  0  0  0  0  0
   55.0768   24.0828   44.5368 H   0  0  0  0  0  0  0  0  0  0  0  0
   56.3640   22.4290   43.9830 C   0  0  0  0  0  0  0  0  0  0  0  0
   55.5960   21.9421   43.3640 H   0  0  0  0  0  0  0  0  0  0  0  0
   57.6250   21.8430   44.1180 C   0  0  0  0  0  0  0  0  0  0  0  0
   57.8501   20.9001   43.5981 H   0  0  0  0  0  0  0  0  0  0  0  0
   58.6040   22.4530   44.9140 C   0  0  0  0  0  0  0  0  0  0  0  0
   59.8900   21.8460   45.0640 N   0  0  0  0  0  0  0  0  0  0  0  0
   60.7630   22.3870   44.8710 H   0  0  0  0  0  0  0  0  0  0  0  0
   59.9790   20.8500   45.3660 H   0  0  0  0  0  0  0  0  0  0  0  0
   58.3130   23.6620   45.5650 C   0  0  0  0  0  0  0  0  0  0  0  0
   59.0745   24.1353   46.2023 H   0  0  0  0  0  0  0  0  0  0  0  0
   56.2140   27.6490   45.5250 N   0  0  0  0  0  0  0  0  0  0  0  0
   56.9540   28.7260   45.2070 C   0  0  0  0  0  0  0  0  0  0  0  0
   56.3990   30.0490   44.8660 C   0  0  0  0  0  0  0  0  0  0  0  0
   55.1800   30.1480   44.5700 O   0  0  0  0  0  0  0  0  0  0  0  0
   57.2240   31.2200   44.7990 N   0  0  0  0  0  0  0  0  0  0  0  0
   57.8850   31.8580   45.9040 C   0  0  0  0  0  0  0  0  0  0  0  0
   58.4480   31.0970   46.9410 C   0  0  0  0  0  0  0  0  0  0  0  0
   58.3852   29.9996   46.9000 H   0  0  0  0  0  0  0  0  0  0  0  0
   59.0900   31.7100   48.0300 C   0  0  0  0  0  0  0  0  0  0  0  0
   59.6620   30.8400   49.0870 C   0  0  0  0  0  0  0  0  0  0  0  0
   60.9160   30.7510   49.2020 O   0  0  0  0  0  0  0  0  0  0  0  0
   58.7970   30.0700   49.9380 N   0  0  0  0  0  0  0  0  0  0  0  0
   58.0250   30.5380   50.8730 C   0  0  0  0  0  0  0  0  0  0  0  0
   57.2350   29.7780   51.6640 N   0  0  0  0  0  0  0  0  0  0  0  0
   56.5450   30.5390   52.5550 C   0  0  0  0  0  0  0  0  0  0  0  0
   55.8480   30.1049   53.2870 H   0  0  0  0  0  0  0  0  0  0  0  0
   56.7850   31.9060   52.4730 C   0  0  0  0  0  0  0  0  0  0  0  0
   56.3246   32.6809   53.1035 H   0  0  0  0  0  0  0  0  0  0  0  0
   57.9020   32.1700   51.2420 S   0  0  0  0  0  0  0  0  0  0  0  0
   59.1720   33.1260   48.0720 C   0  0  0  0  0  0  0  0  0  0  0  0
   59.8990   33.8560   49.1730 C   0  0  0  0  0  0  0  0  0  0  0  0
   59.5414   33.4969   50.1493 H   0  0  0  0  0  0  0  0  0  0  0  0
   60.9794   33.6680   49.0864 H   0  0  0  0  0  0  0  0  0  0  0  0
   59.7066   34.9356   49.0864 H   0  0  0  0  0  0  0  0  0  0  0  0
   58.5570   33.8820   47.0610 C   0  0  0  0  0  0  0  0  0  0  0  0
   58.5850   34.9803   47.1144 H   0  0  0  0  0  0  0  0  0  0  0  0
   57.9080   33.2610   45.9850 C   0  0  0  0  0  0  0  0  0  0  0  0
   57.2800   34.0970   44.9030 C   0  0  0  0  0  0  0  0  0  0  0  0
   56.6790   34.8970   45.3600 H   0  0  0  0  0  0  0  0  0  0  0  0
   58.0690   34.5420   44.2790 H   0  0  0  0  0  0  0  0  0  0  0  0
   56.6328   33.4631   44.2790 H   0  0  0  0  0  0  0  0  0  0  0  0
  1  2  1  0
  2  3  1  0
  3  4  1  0
  4  5  2  3
  5  6  1  0
  6  7  2  0
  7  8  1  0
  7  9  1  0
  9 10  1  0
  9 11  2  0
 11 12  1  0
 11 13  1  0
 13 14  1  0
 14 15  1  0
 14 16  1  0
 13 17  2  0
 17 18  1  0
  4 19  1  0
 19 20  1  0
 20 21  1  0
 21 22  2  0
 21 23  1  0
 23 24  1  0
 24 25  2  0
 25 26  1  0
 25 27  1  0
 27 28  1  0
 28 29  2  0
 28 30  1  0
 30 31  2  0
 31 32  1  0
 32 33  1  0
 33 34  1  0
 33 35  2  0
 35 36  1  0
 35 37  1  0
 27 38  2  0
 38 39  1  0
 39 40  1  0
 39 41  1  0
 39 42  1  0
 38 43  1  0
 43 44  1  0
 43 45  2  0
 45 46  1  0
 46 47  1  0
 46 48  1  0
 46 49  1  0
 20  2  2  0
 45 24  1  0
 17  6  1  0
 37 31  1  0
M  CHG  4   3  -1  19  -1  23  -1  32  -1
M  END
>  <UniqueID>  (15) 
15

>  <SMILES>  (15) 
Cc1cc(C)c(C(=O)/N=c2\[n-]ccs2)cc1[N-]C(=O)c1c[n-]c(=Nc2cccc(N)c2)[n-]1

>  <Energy>  (15) 
127.24751715355274

>  <Genealogy>  (15) 
Cc1cc(C)c(C(=O)N=c2[n-]ccs2)cc1[N-]C(=O)c1c[n-]c(=Nc2cccc(N)c2)[n-]1 (protonated)
Cc1cc(C)c(C(=O)/N=c2\[n-]ccs2)cc1[N-]C(=O)c1c[n-]c(=Nc2cccc(N)c2)[n-]1 (cis-trans isomerization)
Cc1cc(C)c(C(=O)/N=c2\[n-]ccs2)cc1[N-]C(=O)c1c[n-]c(=Nc2cccc(N)c2)[n-]1 (3D coordinates assigned)
Cc1cc(C)c(C(=O)/N=c2\[n-]ccs2)cc1[N-]C(=O)c1c[n-]c(=Nc2cccc(N)c2)[n-]1 (optimized conformer: 127.24751715355274 kcal/mol)

>  <smiles>  (15) 
Cc1cc(C)c(C(=O)N=c2[nH]ccs2)cc1NC(=O)c1c[nH]c(=Nc2cccc(N)c2)[nH]1

>  <score_type>  (15) 
oracle

>  <origin>  (15) 
adg

>  <m_score__min__energy>  (15) 
-15.35

>  <m_primary>  (15) 
energy

$$$$
15:0
     RDKit          3D

 55 58  0  0  0  0  0  0  0  0999 V2000
   56.8240   31.0730   52.0610 C   0  0  0  0  0  0  0  0  0  0  0  0
   57.8780   31.1620   51.0040 C   0  0  0  0  0  0  0  0  0  0  0  0
   58.5140   30.0030   50.5370 C   0  0  0  0  0  0  0  0  0  0  0  0
   59.4990   30.1130   49.5550 C   0  0  0  0  0  0  0  0  0  0  0  0
   59.8390   31.3670   49.0460 C   0  0  0  0  0  0  0  0  0  0  0  0
   59.1770   32.5070   49.5260 C   0  0  0  0  0  0  0  0  0  0  0  0
   59.5400   33.8750   49.0340 C   0  0  0  0  0  0  0  0  0  0  0  0
   59.3640   33.9460   47.5860 N   0  0  0  0  0  0  0  0  0  0  0  0
   60.3750   34.3820   46.6320 C   0  0  0  0  0  0  0  0  0  0  0  0
   59.7360   34.1940   45.2330 C   0  0  0  0  0  0  0  0  0  0  0  0
   58.3630   33.7520   45.4720 N   0  0  0  0  0  0  0  0  0  0  0  0
   57.4740   33.2010   44.4510 C   0  0  0  0  0  0  0  0  0  0  0  0
   57.3740   31.7090   44.5970 C   0  0  0  0  0  0  0  0  0  0  0  0
   56.3460   30.9910   43.9330 C   0  0  0  0  0  0  0  0  0  0  0  0
   56.2200   29.6000   44.0990 C   0  0  0  0  0  0  0  0  0  0  0  0
   57.1280   28.9600   44.9400 C   0  0  0  0  0  0  0  0  0  0  0  0
   57.1800   27.6510   45.2380 N   0  0  0  0  0  0  0  0  0  0  0  0
   58.2210   27.5140   46.0920 C   0  0  0  0  0  0  0  0  0  0  0  0
   58.6570   26.1980   46.6730 C   0  0  0  0  0  0  0  0  0  0  0  0
   58.2800   25.0610   45.8250 N   0  0  0  0  0  0  0  0  0  0  0  0
   56.5630   24.7650   45.8460 S   0  0  0  0  0  0  0  0  0  0  0  0
   56.1850   23.1770   46.5610 C   0  0  0  0  0  0  0  0  0  0  0  0
   55.9020   25.8290   46.6760 O   0  0  0  0  0  0  0  0  0  0  0  0
   56.0100   24.8290   44.4490 O   0  0  0  0  0  0  0  0  0  0  0  0
   58.8310   28.7410   46.3430 C   0  0  0  0  0  0  0  0  0  0  0  0
   58.1150   29.6500   45.5930 C   0  0  0  0  0  0  0  0  0  0  0  0
   58.2690   31.0260   45.4510 C   0  0  0  0  0  0  0  0  0  0  0  0
   58.2080   33.5770   46.8660 C   0  0  0  0  0  0  0  0  0  0  0  0
   57.1570   33.1370   47.4050 O   0  0  0  0  0  0  0  0  0  0  0  0
   58.2250   32.3740   50.4920 N   0  0  0  0  0  0  0  0  0  0  0  0
   57.2960   31.1129   53.0538 H   0  0  0  0  0  0  0  0  0  0  0  0
   56.1247   31.9153   51.9534 H   0  0  0  0  0  0  0  0  0  0  0  0
   56.2759   30.1254   51.9534 H   0  0  0  0  0  0  0  0  0  0  0  0
   58.2393   29.0173   50.9406 H   0  0  0  0  0  0  0  0  0  0  0  0
   60.0074   29.2116   49.1822 H   0  0  0  0  0  0  0  0  0  0  0  0
   60.6187   31.4608   48.2757 H   0  0  0  0  0  0  0  0  0  0  0  0
   58.8911   34.6203   49.5172 H   0  0  0  0  0  0  0  0  0  0  0  0
   60.5918   34.0812   49.2813 H   0  0  0  0  0  0  0  0  0  0  0  0
   60.6300   35.4390   46.7988 H   0  0  0  0  0  0  0  0  0  0  0  0
   61.3068   33.8064   46.7347 H   0  0  0  0  0  0  0  0  0  0  0  0
   59.7404   35.1449   44.6801 H   0  0  0  0  0  0  0  0  0  0  0  0
   60.2949   33.4631   44.6302 H   0  0  0  0  0  0  0  0  0  0  0  0
   56.4736   33.6445   44.5632 H   0  0  0  0  0  0  0  0  0  0  0  0
   57.8813   33.4368   43.4568 H   0  0  0  0  0  0  0  0  0  0  0  0
   55.6404   31.5277   43.2818 H   0  0  0  0  0  0  0  0  0  0  0  0
   55.4302   29.0357   43.5816 H   0  0  0  0  0  0  0  0  0  0  0  0
   56.5500   26.8970   44.8820 H   0  0  0  0  0  0  0  0  0  0  0  0
   59.7511   26.2068   46.7865 H   0  0  0  0  0  0  0  0  0  0  0  0
   58.1527   26.0754   47.6429 H   0  0  0  0  0  0  0  0  0  0  0  0
   58.7610   24.1970   46.1640 H   0  0  0  0  0  0  0  0  0  0  0  0
   56.2036   23.2551   47.6581 H   0  0  0  0  0  0  0  0  0  0  0  0
   55.1853   22.8559   46.2331 H   0  0  0  0  0  0  0  0  0  0  0  0
   56.9328   22.4399   46.2331 H   0  0  0  0  0  0  0  0  0  0  0  0
   59.6937   28.9407   46.9956 H   0  0  0  0  0  0  0  0  0  0  0  0
   59.0635   31.5655   45.9874 H   0  0  0  0  0  0  0  0  0  0  0  0
  1  2  1  0
  2  3  2  0
  3  4  1  0
  4  5  2  0
  5  6  1  0
  6  7  1  0
  7  8  1  0
  8  9  1  0
  9 10  1  0
 10 11  1  0
 11 12  1  0
 12 13  1  0
 13 14  2  0
 14 15  1  0
 15 16  2  0
 16 17  1  0
 17 18  1  0
 18 19  1  0
 19 20  1  0
 20 21  1  0
 21 22  1  0
 21 23  2  0
 21 24  2  0
 18 25  2  0
 25 26  1  0
 26 27  2  0
 11 28  1  0
 28 29  2  0
  6 30  2  0
 30  2  1  0
 28  8  1  0
 27 13  1  0
 26 16  1  0
  1 31  1  0
  1 32  1  0
  1 33  1  0
  3 34  1  0
  4 35  1  0
  5 36  1  0
  7 37  1  0
  7 38  1  0
  9 39  1  0
  9 40  1  0
 10 41  1  0
 10 42  1  0
 12 43  1  0
 12 44  1  0
 14 45  1  0
 15 46  1  0
 17 47  1  0
 19 48  1  0
 19 49  1  0
 20 50  1  0
 22 51  1  0
 22 52  1  0
 22 53  1  0
 25 54  1  0
 27 55  1  0
M  END
>  <UniqueID>  (16) 
16

>  <SMILES>  (16) 
Cc1cccc(CN2CCN(Cc3ccc4[nH]c(CNS(C)(=O)=O)cc4c3)C2=O)n1

>  <Energy>  (16) 
92.05571979338961

>  <Genealogy>  (16) 
Cc1cccc(CN2CCN(Cc3ccc4[nH]c(CNS(C)(=O)=O)cc4c3)C2=O)n1 (3D coordinates assigned)
Cc1cccc(CN2CCN(Cc3ccc4[nH]c(CNS(C)(=O)=O)cc4c3)C2=O)n1 (nonaromatic ring conformer: 92.05571979338961 kcal/mol)

>  <smiles>  (16) 
Cc1cccc(CN2CCN(Cc3ccc4[nH]c(CNS(C)(=O)=O)cc4c3)C2=O)n1

>  <score_type>  (16) 
oracle

>  <origin>  (16) 
adg

>  <m_score__min__energy>  (16) 
-9.4499999999999993

>  <m_primary>  (16) 
energy

$$$$
16:0
     RDKit          3D

 34 34  0  0  0  0  0  0  0  0999 V2000
   55.8760   27.3720   46.3260 H   0  0  0  0  0  0  0  0  0  0  0  0
   55.1950   26.6790   46.0420 O   0  0  0  0  0  0  0  0  0  0  0  0
   55.5390   25.3390   45.8660 C   0  0  0  0  0  0  0  0  0  0  0  0
   54.5920   24.4610   45.3200 C   0  0  0  0  0  0  0  0  0  0  0  0
   53.6234   24.8485   44.9713 H   0  0  0  0  0  0  0  0  0  0  0  0
   54.8720   23.1000   45.2170 C   0  0  0  0  0  0  0  0  0  0  0  0
   54.1317   22.4110   44.7842 H   0  0  0  0  0  0  0  0  0  0  0  0
   56.0990   22.6220   45.6680 C   0  0  0  0  0  0  0  0  0  0  0  0
   56.3245   21.5468   45.6122 H   0  0  0  0  0  0  0  0  0  0  0  0
   57.0180   23.4830   46.1770 N   0  0  0  0  0  0  0  0  0  0  0  0
   56.8000   24.8240   46.2700 C   0  0  0  0  0  0  0  0  0  0  0  0
   57.7610   25.5570   46.7650 N   0  0  0  0  0  0  0  0  0  0  0  0
   58.0230   26.9560   46.5810 C   0  0  0  0  0  0  0  0  0  0  0  0
   57.6880   27.7910   47.4640 O   0  0  0  0  0  0  0  0  0  0  0  0
   58.5580   27.4300   45.3450 N   0  0  0  0  0  0  0  0  0  0  0  0
   57.7480   27.5830   44.1420 C   0  0  0  0  0  0  0  0  0  0  0  0
   56.7483   27.1609   44.3222 H   0  0  0  0  0  0  0  0  0  0  0  0
   58.2384   27.0531   43.3121 H   0  0  0  0  0  0  0  0  0  0  0  0
   57.6120   29.0600   43.7750 C   0  0  0  0  0  0  0  0  0  0  0  0
   57.4488   29.1464   42.6906 H   0  0  0  0  0  0  0  0  0  0  0  0
   58.5358   29.5784   44.0715 H   0  0  0  0  0  0  0  0  0  0  0  0
   56.4550   29.6980   44.4980 C   0  0  0  0  0  0  0  0  0  0  0  0
   55.5130   28.9640   44.8970 O   0  0  0  0  0  0  0  0  0  0  0  0
   56.4140   31.0990   44.8050 N   0  0  0  0  0  0  0  0  0  0  0  0
   57.4590   32.0760   44.5130 C   0  0  0  0  0  0  0  0  0  0  0  0
   57.3822   32.3800   43.4586 H   0  0  0  0  0  0  0  0  0  0  0  0
   58.4365   31.6121   44.7113 H   0  0  0  0  0  0  0  0  0  0  0  0
   57.3190   33.3160   45.4030 C   0  0  0  0  0  0  0  0  0  0  0  0
   57.2441   32.9939   46.4521 H   0  0  0  0  0  0  0  0  0  0  0  0
   56.4159   33.8601   45.0893 H   0  0  0  0  0  0  0  0  0  0  0  0
   58.5130   34.2590   45.2600 C   0  0  0  0  0  0  0  0  0  0  0  0
   58.8756   34.5454   46.2582 H   0  0  0  0  0  0  0  0  0  0  0  0
   59.3181   33.7504   44.7094 H   0  0  0  0  0  0  0  0  0  0  0  0
   58.2047   35.1600   44.7094 H   0  0  0  0  0  0  0  0  0  0  0  0
  1  2  1  0
  2  3  1  0
  3  4  2  0
  4  5  1  0
  4  6  1  0
  6  7  1  0
  6  8  2  0
  8  9  1  0
  8 10  1  0
 10 11  1  0
 11 12  2  0
 12 13  1  0
 13 14  2  0
 13 15  1  0
 15 16  1  0
 16 17  1  0
 16 18  1  0
 16 19  1  0
 19 20  1  0
 19 21  1  0
 19 22  1  0
 22 23  2  0
 22 24  1  0
 24 25  1  0
 25 26  1  0
 25 27  1  0
 25 28  1  0
 28 29  1  0
 28 30  1  0
 28 31  1  0
 31 32  1  0
 31 33  1  0
 31 34  1  0
 11  3  1  0
M  CHG  3  10  -1  15  -1  24  -1
M  END
>  <UniqueID>  (17) 
17

>  <SMILES>  (17) 
CCC[N-]C(=O)CC[N-]C(=O)/N=c1/[n-]cccc1O

>  <Energy>  (17) 
33.423590335105686

>  <Genealogy>  (17) 
CCC[N-]C(=O)CC[N-]C(=O)N=c1[n-]cccc1O (protonated)
CCC[N-]C(=O)CC[N-]C(=O)/N=c1/[n-]cccc1O (cis-trans isomerization)
CCC[N-]C(=O)CC[N-]C(=O)/N=c1/[n-]cccc1O (3D coordinates assigned)
CCC[N-]C(=O)CC[N-]C(=O)/N=c1/[n-]cccc1O (optimized conformer: 33.423590335105686 kcal/mol)

>  <smiles>  (17) 
CCCNC(=O)CCNC(=O)N=c1[nH]cccc1O

>  <score_type>  (17) 
oracle

>  <origin>  (17) 
adg

>  <m_score__min__energy>  (17) 
-9.9700000000000006

>  <m_primary>  (17) 
energy

$$$$
17:0
     RDKit          3D

 49 52  0  0  0  0  0  0  0  0999 V2000
   60.7710   30.7420   50.0750 C   0  0  0  0  0  0  0  0  0  0  0  0
   60.5720   31.1150   48.6650 N   0  0  0  0  0  0  0  0  0  0  0  0
   60.6430   29.9230   47.7900 C   0  0  0  0  0  0  0  0  0  0  0  0
   60.9100   30.3000   46.3260 C   0  0  0  0  0  0  0  0  0  0  0  0
   60.5990   29.2160   45.4500 O   0  0  0  0  0  0  0  0  0  0  0  0
   59.4820   28.3830   45.6050 C   0  0  0  0  0  0  0  0  0  0  0  0
   58.1870   28.9030   45.4060 C   0  0  0  0  0  0  0  0  0  0  0  0
   57.9670   30.3130   45.0140 C   0  0  0  0  0  0  0  0  0  0  0  0
   57.9380   30.7030   43.6630 C   0  0  0  0  0  0  0  0  0  0  0  0
   57.7550   32.0450   43.3200 C   0  0  0  0  0  0  0  0  0  0  0  0
   57.5910   33.0080   44.3180 C   0  0  0  0  0  0  0  0  0  0  0  0
   57.5990   32.6310   45.6640 C   0  0  0  0  0  0  0  0  0  0  0  0
   57.4330   33.6020   46.6490 O   0  0  0  0  0  0  0  0  0  0  0  0
   57.7760   31.2850   46.0110 C   0  0  0  0  0  0  0  0  0  0  0  0
   57.1210   28.1350   45.6130 O   0  0  0  0  0  0  0  0  0  0  0  0
   57.2040   26.8610   45.9820 C   0  0  0  0  0  0  0  0  0  0  0  0
   56.0320   26.1180   46.1790 C   0  0  0  0  0  0  0  0  0  0  0  0
   54.7900   26.7130   45.9930 O   0  0  0  0  0  0  0  0  0  0  0  0
   56.1110   24.7730   46.5620 C   0  0  0  0  0  0  0  0  0  0  0  0
   54.9500   24.0320   46.7580 O   0  0  0  0  0  0  0  0  0  0  0  0
   57.3580   24.1690   46.7470 C   0  0  0  0  0  0  0  0  0  0  0  0
   58.5320   24.9020   46.5540 C   0  0  0  0  0  0  0  0  0  0  0  0
   58.4650   26.2540   46.1720 C   0  0  0  0  0  0  0  0  0  0  0  0
   59.6160   27.0330   45.9720 C   0  0  0  0  0  0  0  0  0  0  0  0
   60.7620   26.5230   46.1010 O   0  0  0  0  0  0  0  0  0  0  0  0
   61.4620   32.2250   48.2540 C   0  0  0  0  0  0  0  0  0  0  0  0
   60.7290   33.4060   47.6760 C   0  0  0  0  0  0  0  0  0  0  0  0
   60.8980   33.9300   46.4120 C   0  0  0  0  0  0  0  0  0  0  0  0
   60.0020   34.9750   46.3690 C   0  0  0  0  0  0  0  0  0  0  0  0
   59.3770   35.0360   47.5210 O   0  0  0  0  0  0  0  0  0  0  0  0
   59.7880   34.1060   48.3340 N   0  0  0  0  0  0  0  0  0  0  0  0
   60.3530   31.5256   50.7241 H   0  0  0  0  0  0  0  0  0  0  0  0
   60.2620   29.7881   50.2773 H   0  0  0  0  0  0  0  0  0  0  0  0
   61.8468   30.6336   50.2773 H   0  0  0  0  0  0  0  0  0  0  0  0
   61.4558   29.2712   48.1429 H   0  0  0  0  0  0  0  0  0  0  0  0
   59.6719   29.4085   47.8369 H   0  0  0  0  0  0  0  0  0  0  0  0
   60.2878   31.1670   46.0593 H   0  0  0  0  0  0  0  0  0  0  0  0
   61.9776   30.5414   46.2170 H   0  0  0  0  0  0  0  0  0  0  0  0
   58.0600   29.9478   42.8726 H   0  0  0  0  0  0  0  0  0  0  0  0
   57.7401   32.3437   42.2614 H   0  0  0  0  0  0  0  0  0  0  0  0
   57.4553   34.0648   44.0445 H   0  0  0  0  0  0  0  0  0  0  0  0
   58.1600   33.7980   47.3270 H   0  0  0  0  0  0  0  0  0  0  0  0
   57.7654   30.9874   47.0699 H   0  0  0  0  0  0  0  0  0  0  0  0
   57.4154   23.1119   47.0459 H   0  0  0  0  0  0  0  0  0  0  0  0
   59.5102   24.4208   46.7011 H   0  0  0  0  0  0  0  0  0  0  0  0
   62.0250   32.5636   49.1363 H   0  0  0  0  0  0  0  0  0  0  0  0
   62.1179   31.8347   47.4619 H   0  0  0  0  0  0  0  0  0  0  0  0
   61.5866   33.5927   45.6233 H   0  0  0  0  0  0  0  0  0  0  0  0
   59.8379   35.6458   45.5128 H   0  0  0  0  0  0  0  0  0  0  0  0
  1  2  1  0
  2  3  1  0
  3  4  1  0
  4  5  1  0
  5  6  1  0
  6  7  2  0
  7  8  1  0
  8  9  2  0
  9 10  1  0
 10 11  2  0
 11 12  1  0
 12 13  1  0
 12 14  2  0
  7 15  1  0
 15 16  1  0
 16 17  2  0
 17 18  1  0
 17 19  1  0
 19 20  1  0
 19 21  2  0
 21 22  1  0
 22 23  2  0
 23 24  1  0
 24 25  2  0
  2 26  1  0
 26 27  1  0
 27 28  1  0
 28 29  2  0
 29 30  1  0
 30 31  1  0
 24  6  1  0
 31 27  2  0
 14  8  1  0
 23 16  1  0
  1 32  1  0
  1 33  1  0
  1 34  1  0
  3 35  1  0
  3 36  1  0
  4 37  1  0
  4 38  1  0
  9 39  1  0
 10 40  1  0
 11 41  1  0
 13 42  1  0
 14 43  1  0
 21 44  1  0
 22 45  1  0
 26 46  1  0
 26 47  1  0
 28 48  1  0
 29 49  1  0
M  CHG  2  18  -1  20  -1
M  END
>  <UniqueID>  (18) 
18

>  <SMILES>  (18) 
CN(CCOc1c(-c2cccc(O)c2)oc2c([O-])c([O-])ccc2c1=O)Cc1ccon1

>  <Energy>  (18) 
97.00242702769867

>  <Genealogy>  (18) 
CN(CCOc1c(-c2cccc(O)c2)oc2c([O-])c([O-])ccc2c1=O)Cc1ccon1 (protonated)
CN(CCOc1c(-c2cccc(O)c2)oc2c([O-])c([O-])ccc2c1=O)Cc1ccon1 (3D coordinates assigned)
CN(CCOc1c(-c2cccc(O)c2)oc2c([O-])c([O-])ccc2c1=O)Cc1ccon1 (optimized conformer: 97.00242702769867 kcal/mol)

>  <smiles>  (18) 
CN(CCOc1c(-c2cccc(O)c2)oc2c(O)c(O)ccc2c1=O)Cc1ccon1

>  <score_type>  (18) 
oracle

>  <origin>  (18) 
adg

>  <m_score__min__energy>  (18) 
-14.07

>  <m_primary>  (18) 
energy

$$$$
18:0
     RDKit          3D

 41 42  0  0  0  0  0  0  0  0999 V2000
   56.6160   34.5940   45.3170 O   0  0  0  0  0  0  0  0  0  0  0  0
   57.6720   33.9190   45.4470 C   0  0  0  0  0  0  0  0  0  0  0  0
   58.4270   33.5630   44.2230 C   0  0  0  0  0  0  0  0  0  0  0  0
   58.1940   32.5050   43.4330 C   0  0  0  0  0  0  0  0  0  0  0  0
   57.9750   31.1230   43.9020 C   0  0  0  0  0  0  0  0  0  0  0  0
   59.0570   30.2700   44.1730 C   0  0  0  0  0  0  0  0  0  0  0  0
   58.8310   28.9770   44.6560 C   0  0  0  0  0  0  0  0  0  0  0  0
   57.5190   28.5300   44.9030 C   0  0  0  0  0  0  0  0  0  0  0  0
   57.2420   27.2400   45.3840 O   0  0  0  0  0  0  0  0  0  0  0  0
   57.9600   26.5880   46.4310 C   0  0  0  0  0  0  0  0  0  0  0  0
   57.8670   27.3350   47.6430 O   0  0  0  0  0  0  0  0  0  0  0  0
   58.7480   28.3600   48.0220 C   0  0  0  0  0  0  0  0  0  0  0  0
   59.8980   28.0130   48.7410 C   0  0  0  0  0  0  0  0  0  0  0  0
   60.8100   28.9950   49.1390 C   0  0  0  0  0  0  0  0  0  0  0  0
   60.5780   30.3390   48.8210 C   0  0  0  0  0  0  0  0  0  0  0  0
   61.4800   31.3270   49.2110 O   0  0  0  0  0  0  0  0  0  0  0  0
   59.4300   30.6950   48.1070 C   0  0  0  0  0  0  0  0  0  0  0  0
   58.5170   29.7140   47.7080 C   0  0  0  0  0  0  0  0  0  0  0  0
   56.4440   29.3980   44.6640 C   0  0  0  0  0  0  0  0  0  0  0  0
   55.1430   28.9780   44.9100 O   0  0  0  0  0  0  0  0  0  0  0  0
   56.6720   30.6900   44.1800 C   0  0  0  0  0  0  0  0  0  0  0  0
   58.1460   33.5820   46.8410 C   0  0  0  0  0  0  0  0  0  0  0  0
   59.3260   34.4170   47.2600 C   0  0  0  0  0  0  0  0  0  0  0  0
   59.5910   35.4760   46.6290 O   0  0  0  0  0  0  0  0  0  0  0  0
   60.1470   34.0600   48.4300 C   0  0  0  0  0  0  0  0  0  0  0  0
   61.3980   34.2050   48.4070 O   0  0  0  0  0  0  0  0  0  0  0  0
   59.5420   33.5510   49.5710 O   0  0  0  0  0  0  0  0  0  0  0  0
   59.2549   34.2279   43.9359 H   0  0  0  0  0  0  0  0  0  0  0  0
   58.1636   32.6814   42.3477 H   0  0  0  0  0  0  0  0  0  0  0  0
   60.0862   30.6200   44.0048 H   0  0  0  0  0  0  0  0  0  0  0  0
   59.6823   28.3062   44.8438 H   0  0  0  0  0  0  0  0  0  0  0  0
   57.5361   25.5856   46.5905 H   0  0  0  0  0  0  0  0  0  0  0  0
   59.0184   26.5113   46.1415 H   0  0  0  0  0  0  0  0  0  0  0  0
   60.0855   26.9592   48.9948 H   0  0  0  0  0  0  0  0  0  0  0  0
   61.7111   28.7116   49.7027 H   0  0  0  0  0  0  0  0  0  0  0  0
   61.1850   32.2860   49.3550 H   0  0  0  0  0  0  0  0  0  0  0  0
   59.2444   31.7503   47.8583 H   0  0  0  0  0  0  0  0  0  0  0  0
   57.6152   30.0003   47.1470 H   0  0  0  0  0  0  0  0  0  0  0  0
   55.8232   31.3703   44.0166 H   0  0  0  0  0  0  0  0  0  0  0  0
   57.3207   33.7562   47.5471 H   0  0  0  0  0  0  0  0  0  0  0  0
   58.4612   32.5281   46.8439 H   0  0  0  0  0  0  0  0  0  0  0  0
  1  2  2  0
  2  3  1  0
  3  4  2  3
  4  5  1  0
  5  6  2  0
  6  7  1  0
  7  8  2  0
  8  9  1  0
  9 10  1  0
 10 11  1  0
 11 12  1  0
 12 13  2  0
 13 14  1  0
 14 15  2  0
 15 16  1  0
 15 17  1  0
 17 18  2  0
  8 19  1  0
 19 20  1  0
 19 21  2  0
  2 22  1  0
 22 23  1  0
 23 24  2  0
 23 25  1  0
 25 26  2  0
 25 27  1  0
 21  5  1  0
 18 12  1  0
  3 28  1  0
  4 29  1  0
  6 30  1  0
  7 31  1  0
 10 32  1  0
 10 33  1  0
 13 34  1  0
 14 35  1  0
 16 36  1  0
 17 37  1  0
 18 38  1  0
 21 39  1  0
 22 40  1  0
 22 41  1  0
M  CHG  2  20  -1  27  -1
M  END
>  <UniqueID>  (19) 
19

>  <SMILES>  (19) 
O=C(C=Cc1ccc(OCOc2ccc(O)cc2)c([O-])c1)CC(=O)C(=O)[O-]

>  <Energy>  (19) 
48.44613826678325

>  <Genealogy>  (19) 
O=C(C=Cc1ccc(OCOc2ccc(O)cc2)c([O-])c1)CC(=O)C(=O)[O-] (protonated)
O=C(C=Cc1ccc(OCOc2ccc(O)cc2)c([O-])c1)CC(=O)C(=O)[O-] (3D coordinates assigned)
O=C(C=Cc1ccc(OCOc2ccc(O)cc2)c([O-])c1)CC(=O)C(=O)[O-] (optimized conformer: 48.44613826678325 kcal/mol)

>  <smiles>  (19) 
O=C(C=Cc1ccc(OCOc2ccc(O)cc2)c(O)c1)CC(=O)C(=O)O

>  <score_type>  (19) 
oracle

>  <origin>  (19) 
adg

>  <m_score__min__energy>  (19) 
-13.99

>  <m_primary>  (19) 
energy

$$$$
19:0
     RDKit          3D

 39 41  0  0  0  0  0  0  0  0999 V2000
   56.0290   30.7790   44.7450 O   0  0  0  0  0  0  0  0  0  0  0  0
   57.2390   30.4440   44.8630 C   0  0  0  0  0  0  0  0  0  0  0  0
   58.2480   31.1570   44.1390 N   0  0  0  0  0  0  0  0  0  0  0  0
   58.0340   32.4610   43.5180 C   0  0  0  0  0  0  0  0  0  0  0  0
   57.3820   33.4410   44.5000 C   0  0  0  0  0  0  0  0  0  0  0  0
   58.2760   33.7090   45.6840 C   0  0  0  0  0  0  0  0  0  0  0  0
   59.2660   34.7030   45.6130 C   0  0  0  0  0  0  0  0  0  0  0  0
   60.0740   34.9740   46.7210 C   0  0  0  0  0  0  0  0  0  0  0  0
   59.8920   34.2640   47.9110 C   0  0  0  0  0  0  0  0  0  0  0  0
   58.9000   33.2820   47.9950 C   0  0  0  0  0  0  0  0  0  0  0  0
   58.0920   33.0060   46.8870 C   0  0  0  0  0  0  0  0  0  0  0  0
   57.6140   29.3120   45.7420 C   0  0  0  0  0  0  0  0  0  0  0  0
   58.5570   29.4880   46.7700 C   0  0  0  0  0  0  0  0  0  0  0  0
   58.9150   28.4180   47.5930 C   0  0  0  0  0  0  0  0  0  0  0  0
   58.3400   27.1610   47.4010 C   0  0  0  0  0  0  0  0  0  0  0  0
   57.3980   26.9600   46.3790 C   0  0  0  0  0  0  0  0  0  0  0  0
   56.8070   25.6620   46.1790 N   0  0  0  0  0  0  0  0  0  0  0  0
   57.4460   24.4750   46.1170 C   0  0  0  0  0  0  0  0  0  0  0  0
   58.8180   24.3150   46.2710 O   0  0  0  0  0  0  0  0  0  0  0  0
   56.5550   23.4420   45.9090 C   0  0  0  0  0  0  0  0  0  0  0  0
   55.3020   24.0230   45.8410 C   0  0  0  0  0  0  0  0  0  0  0  0
   55.4990   25.3790   46.0090 C   0  0  0  0  0  0  0  0  0  0  0  0
   54.4880   26.3330   45.9790 O   0  0  0  0  0  0  0  0  0  0  0  0
   57.0390   28.0400   45.5550 C   0  0  0  0  0  0  0  0  0  0  0  0
   59.0034   32.8682   43.1948 H   0  0  0  0  0  0  0  0  0  0  0  0
   57.3620   32.3312   42.6568 H   0  0  0  0  0  0  0  0  0  0  0  0
   57.1828   34.3896   43.9799 H   0  0  0  0  0  0  0  0  0  0  0  0
   56.4466   32.9932   44.8666 H   0  0  0  0  0  0  0  0  0  0  0  0
   59.4060   35.2707   44.6813 H   0  0  0  0  0  0  0  0  0  0  0  0
   60.8540   35.7469   46.6562 H   0  0  0  0  0  0  0  0  0  0  0  0
   60.5293   34.4777   48.7818 H   0  0  0  0  0  0  0  0  0  0  0  0
   58.7550   32.7262   48.9331 H   0  0  0  0  0  0  0  0  0  0  0  0
   57.3097   32.2359   46.9575 H   0  0  0  0  0  0  0  0  0  0  0  0
   59.0159   30.4753   46.9271 H   0  0  0  0  0  0  0  0  0  0  0  0
   59.6527   28.5665   48.3953 H   0  0  0  0  0  0  0  0  0  0  0  0
   58.6262   26.3231   48.0537 H   0  0  0  0  0  0  0  0  0  0  0  0
   56.7934   22.3722   45.8160 H   0  0  0  0  0  0  0  0  0  0  0  0
   54.3423   23.5087   45.6846 H   0  0  0  0  0  0  0  0  0  0  0  0
   56.2999   27.8902   44.7542 H   0  0  0  0  0  0  0  0  0  0  0  0
  1  2  2  0
  2  3  1  0
  3  4  1  0
  4  5  1  0
  5  6  1  0
  6  7  2  0
  7  8  1  0
  8  9  2  0
  9 10  1  0
 10 11  2  0
  2 12  1  0
 12 13  2  0
 13 14  1  0
 14 15  2  0
 15 16  1  0
 16 17  1  0
 17 18  1  0
 18 19  1  0
 18 20  2  0
 20 21  1  0
 21 22  2  0
 22 23  1  0
 16 24  2  0
 11  6  1  0
 24 12  1  0
 22 17  1  0
  4 25  1  0
  4 26  1  0
  5 27  1  0
  5 28  1  0
  7 29  1  0
  8 30  1  0
  9 31  1  0
 10 32  1  0
 11 33  1  0
 13 34  1  0
 14 35  1  0
 15 36  1  0
 20 37  1  0
 21 38  1  0
 24 39  1  0
M  CHG  3   3  -1  19  -1  23  -1
M  END
>  <UniqueID>  (20) 
20

>  <SMILES>  (20) 
O=C([N-]CCc1ccccc1)c1cccc(-n2c([O-])ccc2[O-])c1

>  <Energy>  (20) 
70.90617617424563

>  <Genealogy>  (20) 
O=C([N-]CCc1ccccc1)c1cccc(-n2c([O-])ccc2[O-])c1 (protonated)
O=C([N-]CCc1ccccc1)c1cccc(-n2c([O-])ccc2[O-])c1 (3D coordinates assigned)
O=C([N-]CCc1ccccc1)c1cccc(-n2c([O-])ccc2[O-])c1 (optimized conformer: 70.90617617424563 kcal/mol)

>  <smiles>  (20) 
O=C(NCCc1ccccc1)c1cccc(-n2c(O)ccc2O)c1

>  <score_type>  (20) 
oracle

>  <origin>  (20) 
adg

>  <m_score__min__energy>  (20) 
-14.49

>  <m_primary>  (20) 
energy

$$$$
20:0
     RDKit          3D

 62 66  0  0  0  0  0  0  0  0999 V2000
   61.0989   35.2485   49.1553 H   0  0  0  0  0  0  0  0  0  0  0  0
   60.3280   34.5840   48.7380 C   0  0  0  0  0  0  0  0  0  0  0  0
   59.7800   34.8540   47.4830 C   0  0  0  0  0  0  0  0  0  0  0  0
   60.1407   35.7187   46.9066 H   0  0  0  0  0  0  0  0  0  0  0  0
   58.7770   34.0370   46.9500 C   0  0  0  0  0  0  0  0  0  0  0  0
   58.2640   34.3700   45.6830 O   0  0  0  0  0  0  0  0  0  0  0  0
   58.3410   33.5660   44.5080 C   0  0  0  0  0  0  0  0  0  0  0  0
   59.3803   33.2366   44.3618 H   0  0  0  0  0  0  0  0  0  0  0  0
   58.0084   34.1621   43.6454 H   0  0  0  0  0  0  0  0  0  0  0  0
   57.4580   32.3670   44.6380 C   0  0  0  0  0  0  0  0  0  0  0  0
   56.3490   32.4700   45.2260 O   0  0  0  0  0  0  0  0  0  0  0  0
   57.8790   31.1130   44.0930 N   0  0  0  0  0  0  0  0  0  0  0  0
   57.4220   29.7940   44.5260 C   0  0  2  0  0  0  0  0  0  0  0  0
   57.9370   29.0343   43.9197 H   0  0  0  0  0  0  0  0  0  0  0  0
   55.9450   29.6450   44.2830 C   0  0  0  0  0  0  0  0  0  0  0  0
   55.1850   29.3320   45.2380 O   0  0  0  0  0  0  0  0  0  0  0  0
   55.4090   29.7960   43.0100 O   0  0  0  0  0  0  0  0  0  0  0  0
   57.8100   29.5050   45.9910 C   0  0  0  0  0  0  0  0  0  0  0  0
   58.5330   30.2636   46.3252 H   0  0  0  0  0  0  0  0  0  0  0  0
   56.8959   29.5377   46.6021 H   0  0  0  0  0  0  0  0  0  0  0  0
   58.4280   28.1420   46.1410 C   0  0  0  0  0  0  0  0  0  0  0  0
   59.7870   27.8600   46.2460 C   0  0  0  0  0  0  0  0  0  0  0  0
   60.5832   28.6177   46.2888 H   0  0  0  0  0  0  0  0  0  0  0  0
   59.9910   26.5250   46.2880 N   0  0  0  0  0  0  0  0  0  0  0  0
   60.9090   26.0340   46.3670 H   0  0  0  0  0  0  0  0  0  0  0  0
   58.7750   25.9610   46.1900 C   0  0  0  0  0  0  0  0  0  0  0  0
   58.4760   24.6000   46.1640 C   0  0  0  0  0  0  0  0  0  0  0  0
   59.2726   23.8432   46.2169 H   0  0  0  0  0  0  0  0  0  0  0  0
   57.1230   24.2240   46.0680 C   0  0  0  0  0  0  0  0  0  0  0  0
   56.8523   23.1582   46.0411 H   0  0  0  0  0  0  0  0  0  0  0  0
   56.1110   25.2070   46.0060 C   0  0  0  0  0  0  0  0  0  0  0  0
   55.0559   24.9022   45.9433 H   0  0  0  0  0  0  0  0  0  0  0  0
   56.4440   26.5740   46.0240 C   0  0  0  0  0  0  0  0  0  0  0  0
   55.6651   27.3491   45.9735 H   0  0  0  0  0  0  0  0  0  0  0  0
   57.7940   26.9140   46.1080 C   0  0  0  0  0  0  0  0  0  0  0  0
   58.3400   32.9160   47.6890 C   0  0  0  0  0  0  0  0  0  0  0  0
   57.5463   32.2701   47.2854 H   0  0  0  0  0  0  0  0  0  0  0  0
   58.9140   32.6210   48.9380 C   0  0  0  0  0  0  0  0  0  0  0  0
   58.5200   31.3750   49.6910 C   0  0  0  0  0  0  0  0  0  0  0  0
   57.9809   30.7029   49.0071 H   0  0  0  0  0  0  0  0  0  0  0  0
   59.4387   30.9046   50.0714 H   0  0  0  0  0  0  0  0  0  0  0  0
   57.6200   31.6860   50.8880 C   0  0  0  0  0  0  0  0  0  0  0  0
   58.1219   32.4169   51.5391 H   0  0  0  0  0  0  0  0  0  0  0  0
   56.6680   32.0983   50.5222 H   0  0  0  0  0  0  0  0  0  0  0  0
   57.3490   30.4670   51.6500 N   0  0  0  0  0  0  0  0  0  0  0  0
   56.1580   30.1030   52.0200 C   0  0  0  0  0  0  0  0  0  0  0  0
   56.0050   28.9830   52.7710 N   0  0  0  0  0  0  0  0  0  0  0  0
   54.7800   28.5570   53.1730 C   0  0  0  0  0  0  0  0  0  0  0  0
   54.6880   27.5080   53.8650 O   0  0  0  0  0  0  0  0  0  0  0  0
   53.6360   29.2860   52.8110 C   0  0  0  0  0  0  0  0  0  0  0  0
   52.3390   28.8990   53.1950 C   0  0  0  0  0  0  0  0  0  0  0  0
   52.1920   27.9916   53.7992 H   0  0  0  0  0  0  0  0  0  0  0  0
   51.2380   29.6670   52.8090 C   0  0  0  0  0  0  0  0  0  0  0  0
   50.2250   29.3637   53.1121 H   0  0  0  0  0  0  0  0  0  0  0  0
   51.4190   30.8210   52.0380 C   0  0  0  0  0  0  0  0  0  0  0  0
   50.5475   31.4193   51.7339 H   0  0  0  0  0  0  0  0  0  0  0  0
   52.7040   31.2160   51.6530 C   0  0  0  0  0  0  0  0  0  0  0  0
   52.8660   32.3350   50.9020 F   0  0  0  0  0  0  0  0  0  0  0  0
   53.8140   30.4530   52.0350 C   0  0  0  0  0  0  0  0  0  0  0  0
   55.0640   30.8330   51.6630 N   0  0  0  0  0  0  0  0  0  0  0  0
   59.8990   33.4720   49.4640 C   0  0  0  0  0  0  0  0  0  0  0  0
   60.3342   33.2615   50.4521 H   0  0  0  0  0  0  0  0  0  0  0  0
  1  2  1  0
  2  3  2  0
  3  4  1  0
  3  5  1  0
  5  6  1  0
  6  7  1  0
  7  8  1  0
  7  9  1  0
  7 10  1  0
 10 11  2  0
 10 12  1  0
 12 13  1  0
 13 14  1  6
 13 15  1  0
 15 16  2  0
 15 17  1  0
 13 18  1  0
 18 19  1  0
 18 20  1  0
 18 21  1  0
 21 22  2  0
 22 23  1  0
 22 24  1  0
 24 25  1  0
 24 26  1  0
 26 27  2  0
 27 28  1  0
 27 29  1  0
 29 30  1  0
 29 31  2  0
 31 32  1  0
 31 33  1  0
 33 34  1  0
 33 35  2  0
  5 36  2  0
 36 37  1  0
 36 38  1  0
 38 39  1  0
 39 40  1  0
 39 41  1  0
 39 42  1  0
 42 43  1  0
 42 44  1  0
 42 45  1  0
 45 46  2  0
 46 47  1  0
 47 48  1  0
 48 49  2  0
 48 50  1  0
 50 51  2  0
 51 52  1  0
 51 53  1  0
 53 54  1  0
 53 55  2  0
 55 56  1  0
 55 57  1  0
 57 58  1  0
 57 59  2  0
 59 60  1  0
 38 61  2  0
 61 62  1  0
 61  2  1  0
 35 21  1  0
 60 46  1  0
 35 26  1  0
 59 50  1  0
M  CHG  4  12  -1  17  -1  47  -1  60  -1
M  END
>  <UniqueID>  (21) 
21

>  <SMILES>  (21) 
O=C(COc1cccc(CC/N=c2/[n-]c(=O)c3cccc(F)c3[n-]2)c1)[N-][C@@H](Cc1c[nH]c2ccccc12)C(=O)[O-]

>  <Energy>  (21) 
89.71781398085963

>  <Genealogy>  (21) 
O=C(COc1cccc(CCN=c2[n-]c(=O)c3cccc(F)c3[n-]2)c1)[N-]C(Cc1c[nH]c2ccccc12)C(=O)[O-] (protonated)
O=C(COc1cccc(CCN=c2[n-]c(=O)c3cccc(F)c3[n-]2)c1)[N-][C@@H](Cc1c[nH]c2ccccc12)C(=O)[O-] (chirality)
O=C(COc1cccc(CC/N=c2/[n-]c(=O)c3cccc(F)c3[n-]2)c1)[N-][C@@H](Cc1c[nH]c2ccccc12)C(=O)[O-] (cis-trans isomerization)
O=C(COc1cccc(CC/N=c2/[n-]c(=O)c3cccc(F)c3[n-]2)c1)[N-][C@@H](Cc1c[nH]c2ccccc12)C(=O)[O-] (3D coordinates assigned)
O=C(COc1cccc(CC/N=c2/[n-]c(=O)c3cccc(F)c3[n-]2)c1)[N-][C@@H](Cc1c[nH]c2ccccc12)C(=O)[O-] (optimized conformer: 89.71781398085963 kcal/mol)

>  <smiles>  (21) 
O=C(COc1cccc(CCN=c2[nH]c(=O)c3cccc(F)c3[nH]2)c1)NC(Cc1c[nH]c2ccccc12)C(=O)O

>  <score_type>  (21) 
oracle

>  <origin>  (21) 
adg

>  <m_score__min__energy>  (21) 
-16.969999999999999

>  <m_primary>  (21) 
energy

$$$$
21:0
     RDKit          3D

 38 40  0  0  1  0  0  0  0  0999 V2000
   55.0800   29.9300   44.2500 O   0  0  0  0  0  0  0  0  0  0  0  0
   56.1560   29.4000   44.5970 C   0  0  0  0  0  0  0  0  0  0  0  0
   56.0710   28.2230   45.2520 N   0  0  0  0  0  0  0  0  0  0  0  0
   57.2010   27.6120   45.6480 C   0  0  0  0  0  0  0  0  0  0  0  0
   57.2030   26.5020   46.2710 N   0  0  0  0  0  0  0  0  0  0  0  0
   55.9760   25.3120   46.2260 S   0  0  0  0  0  0  0  0  0  0  0  0
   55.7270   24.6290   47.5240 O   0  0  0  0  0  0  0  0  0  0  0  0
   54.6850   26.0670   45.9180 O   0  0  0  0  0  0  0  0  0  0  0  0
   56.1720   24.1920   44.8910 C   0  0  0  0  0  0  0  0  0  0  0  0
   55.1790   23.8850   44.0060 C   0  0  0  0  0  0  0  0  0  0  0  0
   55.4460   22.9870   42.9870 C   0  0  0  0  0  0  0  0  0  0  0  0
   56.6930   22.3930   42.8440 C   0  0  0  0  0  0  0  0  0  0  0  0
   57.7110   22.7030   43.7430 C   0  0  0  0  0  0  0  0  0  0  0  0
   57.4230   23.6000   44.7510 C   0  0  0  0  0  0  0  0  0  0  0  0
   58.8390   24.0160   45.9860 Br  0  0  0  0  0  0  0  0  0  0  0  0
   58.3880   28.1860   45.3840 N   0  0  0  0  0  0  0  0  0  0  0  0
   58.4690   29.3440   44.7390 N   0  0  0  0  0  0  0  0  0  0  0  0
   57.3560   30.0150   44.3110 C   0  0  0  0  0  0  0  0  0  0  0  0
   57.4690   31.3060   43.5920 C   0  0  0  0  0  0  0  0  0  0  0  0
   57.8670   32.4400   44.4560 C   0  0  0  0  0  0  0  0  0  0  0  0
   58.6880   33.4690   44.0470 C   0  0  0  0  0  0  0  0  0  0  0  0
   59.0080   34.4950   44.9350 C   0  0  0  0  0  0  0  0  0  0  0  0
   58.5120   34.4990   46.2300 C   0  0  0  0  0  0  0  0  0  0  0  0
   57.6890   33.4730   46.6470 C   0  0  0  0  0  0  0  0  0  0  0  0
   57.3760   32.4620   45.7650 C   0  0  0  0  0  0  0  0  0  0  0  0
   55.1710   27.7490   45.4740 H   0  0  0  0  0  0  0  0  0  0  0  0
   54.1836   24.3434   44.1010 H   0  0  0  0  0  0  0  0  0  0  0  0
   54.6489   22.7372   42.2713 H   0  0  0  0  0  0  0  0  0  0  0  0
   56.8760   21.6815   42.0253 H   0  0  0  0  0  0  0  0  0  0  0  0
   58.7088   22.2489   43.6525 H   0  0  0  0  0  0  0  0  0  0  0  0
   59.2660   27.7260   45.6820 H   0  0  0  0  0  0  0  0  0  0  0  0
   58.2214   31.1953   42.7972 H   0  0  0  0  0  0  0  0  0  0  0  0
   56.4695   31.5405   43.1971 H   0  0  0  0  0  0  0  0  0  0  0  0
   59.0895   33.4806   43.0230 H   0  0  0  0  0  0  0  0  0  0  0  0
   59.6637   35.3136   44.6035 H   0  0  0  0  0  0  0  0  0  0  0  0
   58.7730   35.3148   46.9203 H   0  0  0  0  0  0  0  0  0  0  0  0
   57.2877   33.4624   47.6711 H   0  0  0  0  0  0  0  0  0  0  0  0
   56.7190   31.6463   46.1012 H   0  0  0  0  0  0  0  0  0  0  0  0
  1  2  2  0
  2  3  1  0
  3  4  1  0
  4  5  2  0
  5  6  1  0
  6  7  2  0
  6  8  2  0
  6  9  1  0
  9 10  2  0
 10 11  1  0
 11 12  2  0
 12 13  1  0
 13 14  2  0
 14 15  1  0
  4 16  1  0
 16 17  1  0
 17 18  2  0
 18 19  1  0
 19 20  1  0
 20 21  2  0
 21 22  1  0
 22 23  2  0
 23 24  1  0
 24 25  2  0
 18  2  1  0
 25 20  1  0
 14  9  1  0
  3 26  1  0
 10 27  1  0
 11 28  1  0
 12 29  1  0
 13 30  1  0
 16 31  1  0
 19 32  1  0
 19 33  1  0
 21 34  1  0
 22 35  1  0
 23 36  1  0
 24 37  1  0
 25 38  1  0
M  END
>  <smiles>  (22) 
O=c1[nH]c(=NS(=O)(=O)c2ccccc2Br)[nH]nc1Cc1ccccc1

>  <score_type>  (22) 
oracle

>  <origin>  (22) 
adg

>  <m_score__min__energy>  (22) 
-9.4199999999999999

>  <m_primary>  (22) 
energy

$$$$
22:0
     RDKit          3D

 50 53  0  0  0  0  0  0  0  0999 V2000
   62.5490   31.0640   49.3860 C   0  0  0  0  0  0  0  0  0  0  0  0
   63.5080   32.1870   49.4020 N   0  0  0  0  0  0  0  0  0  0  0  0
   63.1020   33.2370   50.3820 C   0  0  0  0  0  0  0  0  0  0  0  0
   62.4860   34.4910   49.7320 C   0  0  0  0  0  0  0  0  0  0  0  0
   61.7510   34.1260   48.5180 N   0  0  0  0  0  0  0  0  0  0  0  0
   60.3190   34.2900   48.4440 C   0  0  0  0  0  0  0  0  0  0  0  0
   59.6430   34.3750   49.5050 O   0  0  0  0  0  0  0  0  0  0  0  0
   59.6140   34.3090   47.1480 C   0  0  0  0  0  0  0  0  0  0  0  0
   59.9120   35.2820   46.1820 C   0  0  0  0  0  0  0  0  0  0  0  0
   59.2380   35.2840   44.9570 C   0  0  0  0  0  0  0  0  0  0  0  0
   58.2810   34.3040   44.6790 C   0  0  0  0  0  0  0  0  0  0  0  0
   57.9950   33.3110   45.6230 C   0  0  0  0  0  0  0  0  0  0  0  0
   57.0440   32.2870   45.2960 N   0  0  0  0  0  0  0  0  0  0  0  0
   57.2910   31.1830   44.4130 C   0  0  0  0  0  0  0  0  0  0  0  0
   57.4040   31.4050   43.1780 O   0  0  0  0  0  0  0  0  0  0  0  0
   57.4350   29.7970   44.9180 C   0  0  0  0  0  0  0  0  0  0  0  0
   58.7060   29.2980   45.2270 C   0  0  0  0  0  0  0  0  0  0  0  0
   58.8480   27.9720   45.6400 C   0  0  0  0  0  0  0  0  0  0  0  0
   60.1060   27.4220   45.9250 C   0  0  0  0  0  0  0  0  0  0  0  0
   60.2070   26.0860   46.3260 C   0  0  0  0  0  0  0  0  0  0  0  0
   59.0580   25.2980   46.4490 C   0  0  0  0  0  0  0  0  0  0  0  0
   57.8010   25.8430   46.1700 C   0  0  0  0  0  0  0  0  0  0  0  0
   57.6890   27.1760   45.7590 C   0  0  0  0  0  0  0  0  0  0  0  0
   56.4940   27.6870   45.4830 O   0  0  0  0  0  0  0  0  0  0  0  0
   56.3240   28.9420   45.0770 C   0  0  0  0  0  0  0  0  0  0  0  0
   55.1560   29.3590   44.8540 O   0  0  0  0  0  0  0  0  0  0  0  0
   58.6340   33.3440   46.8750 C   0  0  0  0  0  0  0  0  0  0  0  0
   62.4730   33.3930   47.4680 C   0  0  0  0  0  0  0  0  0  0  0  0
   63.7360   32.7230   48.0400 C   0  0  0  0  0  0  0  0  0  0  0  0
   62.3036   30.7766   50.4191 H   0  0  0  0  0  0  0  0  0  0  0  0
   61.6316   31.3727   48.8635 H   0  0  0  0  0  0  0  0  0  0  0  0
   62.9975   30.2062   48.8635 H   0  0  0  0  0  0  0  0  0  0  0  0
   64.4220   31.7890   49.7270 H   0  0  0  0  0  0  0  0  0  0  0  0
   62.3602   32.8024   51.0682 H   0  0  0  0  0  0  0  0  0  0  0  0
   64.0164   33.5617   50.9002 H   0  0  0  0  0  0  0  0  0  0  0  0
   61.7962   34.9672   50.4443 H   0  0  0  0  0  0  0  0  0  0  0  0
   63.2934   35.1888   49.4651 H   0  0  0  0  0  0  0  0  0  0  0  0
   60.6773   36.0446   46.3888 H   0  0  0  0  0  0  0  0  0  0  0  0
   59.4617   36.0594   44.2095 H   0  0  0  0  0  0  0  0  0  0  0  0
   57.7509   34.3132   43.7152 H   0  0  0  0  0  0  0  0  0  0  0  0
   59.5894   29.9482   45.1447 H   0  0  0  0  0  0  0  0  0  0  0  0
   61.0114   28.0400   45.8334 H   0  0  0  0  0  0  0  0  0  0  0  0
   61.1941   25.6531   46.5456 H   0  0  0  0  0  0  0  0  0  0  0  0
   59.1434   24.2480   46.7657 H   0  0  0  0  0  0  0  0  0  0  0  0
   56.8984   25.2228   46.2738 H   0  0  0  0  0  0  0  0  0  0  0  0
   58.3632   32.6075   47.6459 H   0  0  0  0  0  0  0  0  0  0  0  0
   61.8127   32.6196   47.0487 H   0  0  0  0  0  0  0  0  0  0  0  0
   62.7745   34.1040   46.6847 H   0  0  0  0  0  0  0  0  0  0  0  0
   64.0312   31.8962   47.3772 H   0  0  0  0  0  0  0  0  0  0  0  0
   64.5278   33.4841   48.1012 H   0  0  0  0  0  0  0  0  0  0  0  0
  1  2  1  0
  2  3  1  0
  3  4  1  0
  4  5  1  0
  5  6  1  0
  6  7  2  0
  6  8  1  0
  8  9  2  0
  9 10  1  0
 10 11  2  0
 11 12  1  0
 12 13  1  0
 13 14  1  0
 14 15  2  0
 14 16  1  0
 16 17  2  0
 17 18  1  0
 18 19  2  0
 19 20  1  0
 20 21  2  0
 21 22  1  0
 22 23  2  0
 23 24  1  0
 24 25  1  0
 25 26  2  0
 12 27  2  0
  5 28  1  0
 28 29  1  0
 29  2  1  0
 27  8  1  0
 25 16  1  0
 23 18  1  0
  1 30  1  0
  1 31  1  0
  1 32  1  0
  2 33  1  0
  3 34  1  0
  3 35  1  0
  4 36  1  0
  4 37  1  0
  9 38  1  0
 10 39  1  0
 11 40  1  0
 17 41  1  0
 19 42  1  0
 20 43  1  0
 21 44  1  0
 22 45  1  0
 27 46  1  0
 28 47  1  0
 28 48  1  0
 29 49  1  0
 29 50  1  0
M  CHG  2   2   1  13  -1
M  END
>  <UniqueID>  (23) 
22

>  <SMILES>  (23) 
C[NH+]1CCN(C(=O)c2cccc([N-]C(=O)c3cc4ccccc4oc3=O)c2)CC1

>  <Energy>  (23) 
76.76006863053908

>  <Genealogy>  (23) 
C[NH+]1CCN(C(=O)c2cccc([N-]C(=O)c3cc4ccccc4oc3=O)c2)CC1 (protonated)
C[NH+]1CCN(C(=O)c2cccc([N-]C(=O)c3cc4ccccc4oc3=O)c2)CC1 (3D coordinates assigned)
C[NH+]1CCN(C(=O)c2cccc([N-]C(=O)c3cc4ccccc4oc3=O)c2)CC1 (nonaromatic ring conformer: 76.76006863053908 kcal/mol)

>  <smiles>  (23) 
CN1CCN(C(=O)c2cccc(NC(=O)c3cc4ccccc4oc3=O)c2)CC1

>  <score_type>  (23) 
oracle

>  <origin>  (23) 
adg

>  <m_score__min__energy>  (23) 
-10.5

>  <m_primary>  (23) 
energy

$$$$
23:0
     RDKit          3D

 47 50  0  0  0  0  0  0  0  0999 V2000
   60.7389   26.8196   46.6170 H   0  0  0  0  0  0  0  0  0  0  0  0
   59.8230   27.4270   46.5700 C   0  0  0  0  0  0  0  0  0  0  0  0
   59.8990   28.7070   46.9590 C   0  0  0  0  0  0  0  0  0  0  0  0
   60.3330   29.1490   48.6430 S   0  0  0  0  0  0  0  0  0  0  0  0
   59.8240   30.8340   48.2740 C   0  0  0  0  0  0  0  0  0  0  0  0
   59.0990   31.7280   49.4390 S   0  0  0  0  0  0  0  0  0  0  0  0
   59.5920   31.0980   46.8870 N   0  0  0  0  0  0  0  0  0  0  0  0
   59.3190   32.3970   46.3280 C   0  0  0  0  0  0  0  0  0  0  0  0
   58.1710   32.6040   45.5430 C   0  0  0  0  0  0  0  0  0  0  0  0
   57.4785   31.7701   45.3559 H   0  0  0  0  0  0  0  0  0  0  0  0
   57.9050   33.8640   44.9990 C   0  0  0  0  0  0  0  0  0  0  0  0
   57.0043   34.0190   44.3868 H   0  0  0  0  0  0  0  0  0  0  0  0
   58.7820   34.9270   45.2320 C   0  0  0  0  0  0  0  0  0  0  0  0
   58.5715   35.9181   44.8038 H   0  0  0  0  0  0  0  0  0  0  0  0
   59.9260   34.7300   46.0090 C   0  0  0  0  0  0  0  0  0  0  0  0
   60.6160   35.5670   46.1916 H   0  0  0  0  0  0  0  0  0  0  0  0
   60.1960   33.4720   46.5550 C   0  0  0  0  0  0  0  0  0  0  0  0
   61.0989   33.3224   47.1652 H   0  0  0  0  0  0  0  0  0  0  0  0
   59.6640   29.8930   46.1350 C   0  0  0  0  0  0  0  0  0  0  0  0
   59.6130   29.8770   44.8750 O   0  0  0  0  0  0  0  0  0  0  0  0
   58.5880   26.7790   46.0820 C   0  0  0  0  0  0  0  0  0  0  0  0
   57.7500   26.2410   46.9820 C   0  0  0  0  0  0  0  0  0  0  0  0
   57.9715   26.3771   48.0508 H   0  0  0  0  0  0  0  0  0  0  0  0
   56.5430   25.4740   46.6050 C   0  0  0  0  0  0  0  0  0  0  0  0
   55.4760   26.0940   45.9480 C   0  0  0  0  0  0  0  0  0  0  0  0
   55.5210   27.4480   45.6380 O   0  0  0  0  0  0  0  0  0  0  0  0
   54.3790   25.3710   45.6170 N   0  0  0  0  0  0  0  0  0  0  0  0
   54.2810   24.0520   45.9160 C   0  0  0  0  0  0  0  0  0  0  0  0
   53.2330   23.4280   45.5950 O   0  0  0  0  0  0  0  0  0  0  0  0
   55.3030   23.4140   46.5730 N   0  0  0  0  0  0  0  0  0  0  0  0
   55.1930   22.0110   46.8930 C   0  0  0  0  0  0  0  0  0  0  0  0
   55.6360   21.0390   45.9800 C   0  0  0  0  0  0  0  0  0  0  0  0
   56.0676   21.3482   45.0166 H   0  0  0  0  0  0  0  0  0  0  0  0
   55.5300   19.6800   46.2920 C   0  0  0  0  0  0  0  0  0  0  0  0
   55.8773   18.9226   45.5738 H   0  0  0  0  0  0  0  0  0  0  0  0
   54.9830   19.2830   47.5160 C   0  0  0  0  0  0  0  0  0  0  0  0
   54.9018   18.2137   47.7610 H   0  0  0  0  0  0  0  0  0  0  0  0
   54.5390   20.2450   48.4290 C   0  0  0  0  0  0  0  0  0  0  0  0
   54.1076   19.9316   49.3911 H   0  0  0  0  0  0  0  0  0  0  0  0
   54.6430   21.6050   48.1200 C   0  0  0  0  0  0  0  0  0  0  0  0
   54.2929   22.3592   48.8402 H   0  0  0  0  0  0  0  0  0  0  0  0
   56.4300   24.1130   46.9230 C   0  0  0  0  0  0  0  0  0  0  0  0
   57.3820   23.5320   47.5170 O   0  0  0  0  0  0  0  0  0  0  0  0
   58.2480   26.8290   44.6130 C   0  0  0  0  0  0  0  0  0  0  0  0
   57.1663   26.9881   44.4922 H   0  0  0  0  0  0  0  0  0  0  0  0
   58.7956   27.6563   44.1379 H   0  0  0  0  0  0  0  0  0  0  0  0
   58.5342   25.8791   44.1379 H   0  0  0  0  0  0  0  0  0  0  0  0
  1  2  1  0
  2  3  2  0
  3  4  1  0
  4  5  1  0
  5  6  2  0
  5  7  1  0
  7  8  1  0
  8  9  2  0
  9 10  1  0
  9 11  1  0
 11 12  1  0
 11 13  2  0
 13 14  1  0
 13 15  1  0
 15 16  1  0
 15 17  2  0
 17 18  1  0
  7 19  1  0
 19 20  2  0
  2 21  1  0
 21 22  2  0
 22 23  1  0
 22 24  1  0
 24 25  2  0
 25 26  1  0
 25 27  1  0
 27 28  1  0
 28 29  2  0
 28 30  1  0
 30 31  1  0
 31 32  2  0
 32 33  1  0
 32 34  1  0
 34 35  1  0
 34 36  2  0
 36 37  1  0
 36 38  1  0
 38 39  1  0
 38 40  2  0
 40 41  1  0
 30 42  1  0
 42 43  2  0
 21 44  1  0
 44 45  1  0
 44 46  1  0
 44 47  1  0
 19  3  1  0
 42 24  1  0
 17  8  1  0
 40 31  1  0
M  CHG  2  26  -1  27  -1
M  END
>  <UniqueID>  (24) 
23

>  <SMILES>  (24) 
C/C(C=C1SC(=S)N(c2ccccc2)C1=O)=C\c1c([O-])[n-]c(=O)n(-c2ccccc2)c1=O

>  <Energy>  (24) 
102.31839444816141

>  <Genealogy>  (24) 
CC(=Cc1c([O-])[n-]c(=O)n(-c2ccccc2)c1=O)C=C1SC(=S)N(c2ccccc2)C1=O (protonated)
C/C(C=C1SC(=S)N(c2ccccc2)C1=O)=C\c1c([O-])[n-]c(=O)n(-c2ccccc2)c1=O (cis-trans isomerization)
C/C(C=C1SC(=S)N(c2ccccc2)C1=O)=C\c1c([O-])[n-]c(=O)n(-c2ccccc2)c1=O (3D coordinates assigned)
C/C(C=C1SC(=S)N(c2ccccc2)C1=O)=C\c1c([O-])[n-]c(=O)n(-c2ccccc2)c1=O (nonaromatic ring conformer: 102.31839444816141 kcal/mol)

>  <smiles>  (24) 
CC(=Cc1c(O)[nH]c(=O)n(-c2ccccc2)c1=O)C=C1SC(=S)N(c2ccccc2)C1=O

>  <score_type>  (24) 
oracle

>  <origin>  (24) 
adg

>  <m_score__min__energy>  (24) 
-14.57

>  <m_primary>  (24) 
energy

$$$$
24:0
     RDKit          3D

 53 56  0  0  0  0  0  0  0  0999 V2000
   55.1740   30.2360   44.4870 O   0  0  0  0  0  0  0  0  0  0  0  0
   56.1650   29.5490   44.8530 C   0  0  0  0  0  0  0  0  0  0  0  0
   55.9890   28.1930   45.2710 N   0  0  0  0  0  0  0  0  0  0  0  0
   57.0550   27.3310   45.6870 C   0  0  0  0  0  0  0  0  0  0  0  0
   57.0220   26.8010   46.9830 C   0  0  0  0  0  0  0  0  0  0  0  0
   58.0420   25.9550   47.4280 C   0  0  0  0  0  0  0  0  0  0  0  0
   59.0920   25.6170   46.5730 C   0  0  0  0  0  0  0  0  0  0  0  0
   59.1180   26.1120   45.2670 C   0  0  0  0  0  0  0  0  0  0  0  0
   58.1000   26.9610   44.8120 C   0  0  0  0  0  0  0  0  0  0  0  0
   58.1210   27.4590   43.1240 Cl  0  0  0  0  0  0  0  0  0  0  0  0
   57.4780   30.1190   44.8790 N   0  0  0  0  0  0  0  0  0  0  0  0
   57.8120   31.4700   45.2300 C   0  0  0  0  0  0  0  0  0  0  0  0
   57.3490   32.5460   44.4520 C   0  0  0  0  0  0  0  0  0  0  0  0
   57.7690   33.8460   44.7220 C   0  0  0  0  0  0  0  0  0  0  0  0
   58.6580   34.0910   45.7660 C   0  0  0  0  0  0  0  0  0  0  0  0
   59.1210   33.0420   46.5650 C   0  0  0  0  0  0  0  0  0  0  0  0
   60.0420   33.3520   47.6170 N   0  0  0  0  0  0  0  0  0  0  0  0
   59.7700   33.2100   49.0150 C   0  0  0  0  0  0  0  0  0  0  0  0
   60.6370   33.5950   49.8420 O   0  0  0  0  0  0  0  0  0  0  0  0
   58.4940   32.7280   49.4680 N   0  0  0  0  0  0  0  0  0  0  0  0
   58.2190   32.3120   50.8170 C   0  0  0  0  0  0  0  0  0  0  0  0
   57.7780   31.0000   51.0540 C   0  0  0  0  0  0  0  0  0  0  0  0
   57.5350   30.5580   52.3580 C   0  0  0  0  0  0  0  0  0  0  0  0
   57.7440   31.4180   53.4400 C   0  0  0  0  0  0  0  0  0  0  0  0
   57.4420   30.8610   55.0750 Cl  0  0  0  0  0  0  0  0  0  0  0  0
   58.2020   32.7190   53.2170 C   0  0  0  0  0  0  0  0  0  0  0  0
   58.4450   33.1650   51.9140 C   0  0  0  0  0  0  0  0  0  0  0  0
   58.7110   31.7130   46.2930 C   0  0  0  0  0  0  0  0  0  0  0  0
   59.2590   30.6100   47.0400 N   0  0  0  0  0  0  0  0  0  0  0  0
   60.5320   29.9920   46.7110 C   0  0  0  0  0  0  0  0  0  0  0  0
   60.5980   28.7200   47.5490 C   0  0  0  0  0  0  0  0  0  0  0  0
   59.5250   28.8700   48.6260 C   0  0  0  0  0  0  0  0  0  0  0  0
   58.5460   29.9070   48.0960 C   0  0  0  0  0  0  0  0  0  0  0  0
   56.1881   27.0521   47.6550 H   0  0  0  0  0  0  0  0  0  0  0  0
   58.0170   25.5555   48.4526 H   0  0  0  0  0  0  0  0  0  0  0  0
   59.8999   24.9602   46.9279 H   0  0  0  0  0  0  0  0  0  0  0  0
   59.9413   25.8341   44.5925 H   0  0  0  0  0  0  0  0  0  0  0  0
   56.6496   32.3594   43.6237 H   0  0  0  0  0  0  0  0  0  0  0  0
   57.3980   34.6811   44.1096 H   0  0  0  0  0  0  0  0  0  0  0  0
   58.9983   35.1183   45.9631 H   0  0  0  0  0  0  0  0  0  0  0  0
   57.6970   32.7560   48.7930 H   0  0  0  0  0  0  0  0  0  0  0  0
   57.6226   30.3150   50.2075 H   0  0  0  0  0  0  0  0  0  0  0  0
   57.1788   29.5320   52.5327 H   0  0  0  0  0  0  0  0  0  0  0  0
   58.3719   33.3943   54.0686 H   0  0  0  0  0  0  0  0  0  0  0  0
   58.8145   34.1873   51.7454 H   0  0  0  0  0  0  0  0  0  0  0  0
   60.5752   29.7485   45.6392 H   0  0  0  0  0  0  0  0  0  0  0  0
   61.3774   30.6633   46.9222 H   0  0  0  0  0  0  0  0  0  0  0  0
   60.3914   27.8390   46.9236 H   0  0  0  0  0  0  0  0  0  0  0  0
   61.5956   28.5794   47.9906 H   0  0  0  0  0  0  0  0  0  0  0  0
   59.0134   27.9106   48.7929 H   0  0  0  0  0  0  0  0  0  0  0  0
   59.9587   29.1783   49.5887 H   0  0  0  0  0  0  0  0  0  0  0  0
   57.6475   29.4169   47.6930 H   0  0  0  0  0  0  0  0  0  0  0  0
   58.2090   30.5925   48.8875 H   0  0  0  0  0  0  0  0  0  0  0  0
  1  2  2  0
  2  3  1  0
  3  4  1  0
  4  5  2  0
  5  6  1  0
  6  7  2  0
  7  8  1  0
  8  9  2  0
  9 10  1  0
  2 11  1  0
 11 12  1  0
 12 13  2  0
 13 14  1  0
 14 15  2  0
 15 16  1  0
 16 17  1  0
 17 18  1  0
 18 19  2  0
 18 20  1  0
 20 21  1  0
 21 22  2  0
 22 23  1  0
 23 24  2  0
 24 25  1  0
 24 26  1  0
 26 27  2  0
 16 28  2  0
 28 29  1  0
 29 30  1  0
 30 31  1  0
 31 32  1  0
 32 33  1  0
  9  4  1  0
 28 12  1  0
 33 29  1  0
 27 21  1  0
  5 34  1  0
  6 35  1  0
  7 36  1  0
  8 37  1  0
 13 38  1  0
 14 39  1  0
 15 40  1  0
 20 41  1  0
 22 42  1  0
 23 43  1  0
 26 44  1  0
 27 45  1  0
 30 46  1  0
 30 47  1  0
 31 48  1  0
 31 49  1  0
 32 50  1  0
 32 51  1  0
 33 52  1  0
 33 53  1  0
M  CHG  3   3  -1  11  -1  17  -1
M  END
>  <UniqueID>  (25) 
24

>  <SMILES>  (25) 
O=C([N-]c1ccccc1Cl)[N-]c1cccc([N-]C(=O)Nc2ccc(Cl)cc2)c1N1CCCC1

>  <Energy>  (25) 
79.88997062583196

>  <Genealogy>  (25) 
O=C([N-]c1ccccc1Cl)[N-]c1cccc([N-]C(=O)Nc2ccc(Cl)cc2)c1N1CCCC1 (protonated)
O=C([N-]c1ccccc1Cl)[N-]c1cccc([N-]C(=O)Nc2ccc(Cl)cc2)c1N1CCCC1 (3D coordinates assigned)
O=C([N-]c1ccccc1Cl)[N-]c1cccc([N-]C(=O)Nc2ccc(Cl)cc2)c1N1CCCC1 (nonaromatic ring conformer: 79.88997062583196 kcal/mol)

>  <smiles>  (25) 
O=C(Nc1ccc(Cl)cc1)Nc1cccc(NC(=O)Nc2ccccc2Cl)c1N1CCCC1

>  <score_type>  (25) 
oracle

>  <origin>  (25) 
adg

>  <m_score__min__energy>  (25) 
-14.119999999999999

>  <m_primary>  (25) 
energy

$$$$
25:0
     RDKit          3D

 47 49  0  0  0  0  0  0  0  0999 V2000
   58.1180   32.6290   43.6230 C   0  0  0  0  0  0  0  0  0  0  0  0
   57.1160   31.7780   44.3970 C   0  0  0  0  0  0  0  0  0  0  0  0
   57.6470   30.4260   44.6350 N   0  0  0  0  0  0  0  0  0  0  0  0
   58.9320   30.2660   45.3310 C   0  0  0  0  0  0  0  0  0  0  0  0
   58.8430   30.8320   46.7210 C   0  0  0  0  0  0  0  0  0  0  0  0
   58.2380   30.1780   47.6130 O   0  0  0  0  0  0  0  0  0  0  0  0
   59.3720   32.1340   47.0310 N   0  0  0  0  0  0  0  0  0  0  0  0
   58.4440   33.2530   47.2210 C   0  0  0  0  0  0  0  0  0  0  0  0
   58.9000   34.4340   46.3650 C   0  0  0  0  0  0  0  0  0  0  0  0
   60.3110   34.8780   46.7670 C   0  0  0  0  0  0  0  0  0  0  0  0
   61.2690   33.7180   46.9280 C   0  0  0  0  0  0  0  0  0  0  0  0
   62.6460   33.9770   47.0050 C   0  0  0  0  0  0  0  0  0  0  0  0
   63.5470   32.9400   47.2520 C   0  0  0  0  0  0  0  0  0  0  0  0
   63.0800   31.6390   47.4450 C   0  0  0  0  0  0  0  0  0  0  0  0
   61.7110   31.3680   47.3820 C   0  0  0  0  0  0  0  0  0  0  0  0
   60.7910   32.3970   47.1050 C   0  0  0  0  0  0  0  0  0  0  0  0
   56.9180   29.2670   44.1810 C   0  0  0  0  0  0  0  0  0  0  0  0
   56.9380   28.9470   42.9600 O   0  0  0  0  0  0  0  0  0  0  0  0
   56.2030   28.4510   45.1190 N   0  0  0  0  0  0  0  0  0  0  0  0
   56.6720   27.2130   45.6690 C   0  0  0  0  0  0  0  0  0  0  0  0
   58.0480   27.0550   45.8890 C   0  0  0  0  0  0  0  0  0  0  0  0
   58.5460   25.8650   46.4250 C   0  0  0  0  0  0  0  0  0  0  0  0
   57.6710   24.8310   46.7670 C   0  0  0  0  0  0  0  0  0  0  0  0
   56.2950   24.9910   46.5860 C   0  0  0  0  0  0  0  0  0  0  0  0
   55.7880   26.1810   46.0500 C   0  0  0  0  0  0  0  0  0  0  0  0
   54.4120   26.3400   45.9350 O   0  0  0  0  0  0  0  0  0  0  0  0
   58.7599   33.1742   44.3307 H   0  0  0  0  0  0  0  0  0  0  0  0
   58.7397   31.9787   42.9901 H   0  0  0  0  0  0  0  0  0  0  0  0
   57.5769   33.3478   42.9901 H   0  0  0  0  0  0  0  0  0  0  0  0
   56.9073   32.2582   45.3644 H   0  0  0  0  0  0  0  0  0  0  0  0
   56.1942   31.6935   43.8027 H   0  0  0  0  0  0  0  0  0  0  0  0
   59.1830   29.1966   45.3894 H   0  0  0  0  0  0  0  0  0  0  0  0
   59.7121   30.8047   44.7731 H   0  0  0  0  0  0  0  0  0  0  0  0
   57.4319   32.9474   46.9173 H   0  0  0  0  0  0  0  0  0  0  0  0
   58.4316   33.5474   48.2808 H   0  0  0  0  0  0  0  0  0  0  0  0
   58.9031   34.1337   45.3068 H   0  0  0  0  0  0  0  0  0  0  0  0
   58.2062   35.2734   46.5200 H   0  0  0  0  0  0  0  0  0  0  0  0
   60.7021   35.5511   45.9898 H   0  0  0  0  0  0  0  0  0  0  0  0
   60.2339   35.3807   47.7424 H   0  0  0  0  0  0  0  0  0  0  0  0
   63.0176   35.0035   46.8699 H   0  0  0  0  0  0  0  0  0  0  0  0
   64.6263   33.1483   47.2946 H   0  0  0  0  0  0  0  0  0  0  0  0
   63.7917   30.8250   47.6472 H   0  0  0  0  0  0  0  0  0  0  0  0
   61.3492   30.3429   47.5501 H   0  0  0  0  0  0  0  0  0  0  0  0
   58.7393   27.8730   45.6380 H   0  0  0  0  0  0  0  0  0  0  0  0
   59.6283   25.7419   46.5780 H   0  0  0  0  0  0  0  0  0  0  0  0
   58.0656   23.8905   47.1790 H   0  0  0  0  0  0  0  0  0  0  0  0
   55.6074   24.1792   46.8656 H   0  0  0  0  0  0  0  0  0  0  0  0
  1  2  1  0
  2  3  1  0
  3  4  1  0
  4  5  1  0
  5  6  2  0
  5  7  1  0
  7  8  1  0
  8  9  1  0
  9 10  1  0
 10 11  1  0
 11 12  2  0
 12 13  1  0
 13 14  2  0
 14 15  1  0
 15 16  2  0
  3 17  1  0
 17 18  2  0
 17 19  1  0
 19 20  1  0
 20 21  2  0
 21 22  1  0
 22 23  2  0
 23 24  1  0
 24 25  2  0
 25 26  1  0
 16  7  1  0
 25 20  1  0
 16 11  1  0
  1 27  1  0
  1 28  1  0
  1 29  1  0
  2 30  1  0
  2 31  1  0
  4 32  1  0
  4 33  1  0
  8 34  1  0
  8 35  1  0
  9 36  1  0
  9 37  1  0
 10 38  1  0
 10 39  1  0
 12 40  1  0
 13 41  1  0
 14 42  1  0
 15 43  1  0
 21 44  1  0
 22 45  1  0
 23 46  1  0
 24 47  1  0
M  CHG  2  19  -1  26  -1
M  END
>  <UniqueID>  (26) 
25

>  <SMILES>  (26) 
CCN(CC(=O)N1CCCc2ccccc21)C(=O)[N-]c1ccccc1[O-]

>  <Energy>  (26) 
54.40806134864015

>  <Genealogy>  (26) 
CCN(CC(=O)N1CCCc2ccccc21)C(=O)[N-]c1ccccc1[O-] (protonated)
CCN(CC(=O)N1CCCc2ccccc21)C(=O)[N-]c1ccccc1[O-] (3D coordinates assigned)
CCN(CC(=O)N1CCCc2ccccc21)C(=O)[N-]c1ccccc1[O-] (nonaromatic ring conformer: 54.40806134864015 kcal/mol)

>  <smiles>  (26) 
CCN(CC(=O)N1CCCc2ccccc21)C(=O)Nc1ccccc1O

>  <score_type>  (26) 
oracle

>  <origin>  (26) 
adg

>  <m_score__min__energy>  (26) 
-14.289999999999999

>  <m_primary>  (26) 
energy

$$$$
26:0
     RDKit          3D

 33 35  0  0  0  0  0  0  0  0999 V2000
   58.4065   26.8597   44.6164 H   0  0  0  0  0  0  0  0  0  0  0  0
   57.4240   26.8680   45.1110 C   0  0  0  0  0  0  0  0  0  0  0  0
   57.0520   27.9620   45.7110 N   0  0  0  0  0  0  0  0  0  0  0  0
   57.0560   29.2970   45.1820 C   0  0  0  0  0  0  0  0  0  0  0  0
   57.6740   30.3170   45.8090 N   0  0  0  0  0  0  0  0  0  0  0  0
   57.6510   31.4680   45.0790 C   0  0  0  0  0  0  0  0  0  0  0  0
   58.2570   32.7230   45.5980 C   0  0  0  0  0  0  0  0  0  0  0  0
   58.3880   32.9150   46.9870 C   0  0  0  0  0  0  0  0  0  0  0  0
   58.0406   32.1348   47.6803 H   0  0  0  0  0  0  0  0  0  0  0  0
   58.9560   34.0890   47.4930 C   0  0  0  0  0  0  0  0  0  0  0  0
   59.0503   34.2294   48.5799 H   0  0  0  0  0  0  0  0  0  0  0  0
   59.4030   35.0820   46.6210 C   0  0  0  0  0  0  0  0  0  0  0  0
   59.8486   36.0048   47.0207 H   0  0  0  0  0  0  0  0  0  0  0  0
   59.2850   34.9050   45.2420 C   0  0  0  0  0  0  0  0  0  0  0  0
   59.6396   35.6885   44.5562 H   0  0  0  0  0  0  0  0  0  0  0  0
   58.7170   33.7340   44.7290 C   0  0  0  0  0  0  0  0  0  0  0  0
   58.6286   33.6009   43.6407 H   0  0  0  0  0  0  0  0  0  0  0  0
   57.0220   31.3490   43.8360 C   0  0  0  0  0  0  0  0  0  0  0  0
   56.8923   32.1553   43.0990 H   0  0  0  0  0  0  0  0  0  0  0  0
   56.4980   29.7610   43.6620 S   0  0  0  0  0  0  0  0  0  0  0  0
   56.6090   25.6370   45.0530 C   0  0  0  0  0  0  0  0  0  0  0  0
   57.1620   24.4810   44.4860 C   0  0  0  0  0  0  0  0  0  0  0  0
   58.1838   24.5095   44.0796 H   0  0  0  0  0  0  0  0  0  0  0  0
   56.4240   23.2840   44.4310 C   0  0  0  0  0  0  0  0  0  0  0  0
   56.9920   22.1050   43.8290 N   0  0  0  0  0  0  0  0  0  0  0  0
   58.1730   21.7760   44.0630 O   0  0  0  0  0  0  0  0  0  0  0  0
   56.2400   21.3190   42.9860 O   0  0  0  0  0  0  0  0  0  0  0  0
   55.1270   23.2580   44.9720 C   0  0  0  0  0  0  0  0  0  0  0  0
   54.5350   22.3320   44.9267 H   0  0  0  0  0  0  0  0  0  0  0  0
   54.5840   24.4000   45.5670 C   0  0  0  0  0  0  0  0  0  0  0  0
   53.5711   24.3657   45.9947 H   0  0  0  0  0  0  0  0  0  0  0  0
   55.3220   25.5850   45.6210 C   0  0  0  0  0  0  0  0  0  0  0  0
   54.7760   26.7000   46.2490 O   0  0  0  0  0  0  0  0  0  0  0  0
  1  2  1  0
  2  3  2  0
  3  4  1  0
  4  5  2  0
  5  6  1  0
  6  7  1  0
  7  8  2  0
  8  9  1  0
  8 10  1  0
 10 11  1  0
 10 12  2  0
 12 13  1  0
 12 14  1  0
 14 15  1  0
 14 16  2  0
 16 17  1  0
  6 18  2  0
 18 19  1  0
 18 20  1  0
  2 21  1  0
 21 22  2  0
 22 23  1  0
 22 24  1  0
 24 25  1  0
 25 26  2  0
 25 27  1  0
 24 28  2  0
 28 29  1  0
 28 30  1  0
 30 31  1  0
 30 32  2  0
 32 33  1  0
 20  4  1  0
 32 21  1  0
 16  7  1  0
M  CHG  3  25   1  27  -1  33  -1
M  END
>  <UniqueID>  (27) 
26

>  <SMILES>  (27) 
O=[N+]([O-])c1ccc([O-])c(/C=N\c2nc(-c3ccccc3)cs2)c1

>  <Energy>  (27) 
81.02341552460601

>  <Genealogy>  (27) 
O=[N+]([O-])c1ccc([O-])c(C=Nc2nc(-c3ccccc3)cs2)c1 (protonated)
O=[N+]([O-])c1ccc([O-])c(/C=N\c2nc(-c3ccccc3)cs2)c1 (cis-trans isomerization)
O=[N+]([O-])c1ccc([O-])c(/C=N\c2nc(-c3ccccc3)cs2)c1 (3D coordinates assigned)
O=[N+]([O-])c1ccc([O-])c(/C=N\c2nc(-c3ccccc3)cs2)c1 (optimized conformer: 81.02341552460601 kcal/mol)

>  <smiles>  (27) 
O=[N+]([O-])c1ccc(O)c(C=Nc2nc(-c3ccccc3)cs2)c1

>  <score_type>  (27) 
oracle

>  <origin>  (27) 
adg

>  <m_score__min__energy>  (27) 
-12.73

>  <m_primary>  (27) 
energy

$$$$
27:0
     RDKit          3D

 52 55  0  0  0  0  0  0  0  0999 V2000
   61.1558   28.9303   48.3401 H   0  0  0  0  0  0  0  0  0  0  0  0
   61.0230   29.9130   47.8640 C   0  0  0  0  0  0  0  0  0  0  0  0
   61.9400   30.8940   48.0730 N   0  0  0  0  0  0  0  0  0  0  0  0
   61.8320   32.1260   47.5090 C   0  0  0  0  0  0  0  0  0  0  0  0
   62.7510   33.0130   47.7730 N   0  0  0  0  0  0  0  0  0  0  0  0
   63.5460   33.1010   48.9630 C   0  0  0  0  0  0  0  0  0  0  0  0
   63.0990   33.4390   50.2310 C   0  0  0  0  0  0  0  0  0  0  0  0
   61.4590   33.8300   50.7250 Cl  0  0  0  0  0  0  0  0  0  0  0  0
   64.2560   33.5770   50.9830 C   0  0  0  0  0  0  0  0  0  0  0  0
   64.3270   34.0540   52.4070 C   0  0  0  0  0  0  0  0  0  0  0  0
   65.0913   33.4730   52.9439 H   0  0  0  0  0  0  0  0  0  0  0  0
   63.3408   33.9151   52.8741 H   0  0  0  0  0  0  0  0  0  0  0  0
   64.6910   35.5340   52.4670 C   0  0  0  0  0  0  0  0  0  0  0  0
   64.7688   35.8502   53.5177 H   0  0  0  0  0  0  0  0  0  0  0  0
   65.6555   35.6951   51.9633 H   0  0  0  0  0  0  0  0  0  0  0  0
   63.9112   36.1241   51.9633 H   0  0  0  0  0  0  0  0  0  0  0  0
   65.3210   33.3580   50.1770 N   0  0  0  0  0  0  0  0  0  0  0  0
   66.7320   33.4710   50.5380 C   0  0  0  0  0  0  0  0  0  0  0  0
   66.8307   33.4789   51.6335 H   0  0  0  0  0  0  0  0  0  0  0  0
   67.2856   32.6143   50.1261 H   0  0  0  0  0  0  0  0  0  0  0  0
   67.1422   34.4049   50.1261 H   0  0  0  0  0  0  0  0  0  0  0  0
   64.8900   33.0850   48.9550 N   0  0  0  0  0  0  0  0  0  0  0  0
   65.5020   32.9210   48.1230 H   0  0  0  0  0  0  0  0  0  0  0  0
   60.7170   32.4090   46.6940 C   0  0  0  0  0  0  0  0  0  0  0  0
   60.5980   33.4061   46.2450 H   0  0  0  0  0  0  0  0  0  0  0  0
   59.7660   31.4160   46.4610 C   0  0  0  0  0  0  0  0  0  0  0  0
   58.9002   31.6287   45.8167 H   0  0  0  0  0  0  0  0  0  0  0  0
   59.9070   30.1460   47.0440 C   0  0  0  0  0  0  0  0  0  0  0  0
   58.9000   29.0820   46.8020 C   0  0  0  0  0  0  0  0  0  0  0  0
   58.8680   27.9310   47.6090 C   0  0  0  0  0  0  0  0  0  0  0  0
   59.5961   27.8169   48.4256 H   0  0  0  0  0  0  0  0  0  0  0  0
   57.9180   26.9300   47.3820 C   0  0  0  0  0  0  0  0  0  0  0  0
   57.9099   26.0295   48.0137 H   0  0  0  0  0  0  0  0  0  0  0  0
   56.9760   27.0690   46.3530 C   0  0  0  0  0  0  0  0  0  0  0  0
   55.9840   26.0030   46.1180 C   0  0  0  0  0  0  0  0  0  0  0  0
   54.7710   26.3160   45.9820 O   0  0  0  0  0  0  0  0  0  0  0  0
   56.3530   24.6200   46.0130 N   0  0  0  0  0  0  0  0  0  0  0  0
   55.5350   23.5550   45.4410 C   0  0  0  0  0  0  0  0  0  0  0  0
   55.8889   22.5842   45.8181 H   0  0  0  0  0  0  0  0  0  0  0  0
   54.4866   23.7152   45.7329 H   0  0  0  0  0  0  0  0  0  0  0  0
   55.6320   23.5680   43.9100 C   0  0  0  0  0  0  0  0  0  0  0  0
   54.5670   23.7836   43.7391 H   0  0  0  0  0  0  0  0  0  0  0  0
   56.6440   22.6040   43.3110 C   0  0  0  0  0  0  0  0  0  0  0  0
   57.1996   21.9143   43.9634 H   0  0  0  0  0  0  0  0  0  0  0  0
   56.6153   21.8362   42.5238 H   0  0  0  0  0  0  0  0  0  0  0  0
   56.9440   24.0940   43.3490 C   0  0  0  0  0  0  0  0  0  0  0  0
   57.7166   24.4823   44.0290 H   0  0  0  0  0  0  0  0  0  0  0  0
   57.2222   24.8507   42.6007 H   0  0  0  0  0  0  0  0  0  0  0  0
   57.0190   28.2030   45.5300 C   0  0  0  0  0  0  0  0  0  0  0  0
   56.3028   28.3053   44.7014 H   0  0  0  0  0  0  0  0  0  0  0  0
   57.9670   29.2040   45.7570 C   0  0  0  0  0  0  0  0  0  0  0  0
   57.9836   30.0953   45.1126 H   0  0  0  0  0  0  0  0  0  0  0  0
  1  2  1  0
  2  3  1  0
  3  4  1  0
  4  5  2  0
  5  6  1  0
  6  7  1  0
  7  8  1  0
  7  9  2  0
  9 10  1  0
 10 11  1  0
 10 12  1  0
 10 13  1  0
 13 14  1  0
 13 15  1  0
 13 16  1  0
  9 17  1  0
 17 18  1  0
 18 19  1  0
 18 20  1  0
 18 21  1  0
 17 22  1  0
 22 23  1  0
  4 24  1  0
 24 25  1  0
 24 26  2  0
 26 27  1  0
 26 28  1  0
 28 29  1  0
 29 30  2  0
 30 31  1  0
 30 32  1  0
 32 33  1  0
 32 34  2  0
 34 35  1  0
 35 36  2  0
 35 37  1  0
 37 38  1  0
 38 39  1  0
 38 40  1  0
 38 41  1  0
 41 42  1  0
 41 43  1  0
 43 44  1  0
 43 45  1  0
 43 46  1  0
 46 47  1  0
 46 48  1  0
 34 49  1  0
 49 50  1  0
 49 51  2  0
 51 52  1  0
 28  2  2  0
 51 29  1  0
 22  6  2  0
 46 41  1  0
M  CHG  3   3  -1  22   1  37  -1
M  END
>  <UniqueID>  (28) 
27

>  <SMILES>  (28) 
CCc1c(Cl)c(/N=c2\ccc(-c3ccc(C(=O)[N-]CC4CC4)cc3)c[n-]2)[nH+]n1C

>  <Energy>  (28) 
364.5622010113041

>  <Genealogy>  (28) 
CCc1c(Cl)c(N=c2ccc(-c3ccc(C(=O)[N-]CC4CC4)cc3)c[n-]2)[nH+]n1C (protonated)
CCc1c(Cl)c(/N=c2\ccc(-c3ccc(C(=O)[N-]CC4CC4)cc3)c[n-]2)[nH+]n1C (cis-trans isomerization)
CCc1c(Cl)c(/N=c2\ccc(-c3ccc(C(=O)[N-]CC4CC4)cc3)c[n-]2)[nH+]n1C (3D coordinates assigned)
CCc1c(Cl)c(/N=c2\ccc(-c3ccc(C(=O)[N-]CC4CC4)cc3)c[n-]2)[nH+]n1C (nonaromatic ring conformer: 364.5622010113041 kcal/mol)

>  <smiles>  (28) 
CCc1c(Cl)c(N=c2ccc(-c3ccc(C(=O)NCC4CC4)cc3)c[nH]2)nn1C

>  <score_type>  (28) 
oracle

>  <origin>  (28) 
adg

>  <m_score__min__energy>  (28) 
-8.6999999999999993

>  <m_primary>  (28) 
energy

$$$$
28:0
     RDKit          3D

 47 49  0  0  0  0  0  0  0  0999 V2000
   60.8180   27.0800   49.9730 C   0  0  0  0  0  0  0  0  0  0  0  0
   60.0820   26.3640   48.9880 O   0  0  0  0  0  0  0  0  0  0  0  0
   59.3740   27.0030   47.9640 C   0  0  0  0  0  0  0  0  0  0  0  0
   59.9480   28.0900   47.3060 C   0  0  0  0  0  0  0  0  0  0  0  0
   59.2520   28.7070   46.2700 C   0  0  0  0  0  0  0  0  0  0  0  0
   57.9850   28.2420   45.8860 C   0  0  0  0  0  0  0  0  0  0  0  0
   57.3470   28.8960   44.7330 C   0  0  0  0  0  0  0  0  0  0  0  0
   57.4050   28.3450   43.6040 O   0  0  0  0  0  0  0  0  0  0  0  0
   56.6200   30.1240   44.8750 N   0  0  0  0  0  0  0  0  0  0  0  0
   56.8790   31.3490   44.1210 C   0  0  0  0  0  0  0  0  0  0  0  0
   57.5960   32.3680   44.9680 C   0  0  0  0  0  0  0  0  0  0  0  0
   57.0020   33.6100   45.2260 C   0  0  0  0  0  0  0  0  0  0  0  0
   57.6960   34.5590   45.9740 C   0  0  0  0  0  0  0  0  0  0  0  0
   58.9360   34.2740   46.4540 N   0  0  0  0  0  0  0  0  0  0  0  0
   59.5470   33.0720   46.2460 C   0  0  0  0  0  0  0  0  0  0  0  0
   60.8660   32.8380   46.8020 N   0  0  0  0  0  0  0  0  0  0  0  0
   61.1020   31.5480   47.4790 C   0  0  0  0  0  0  0  0  0  0  0  0
   62.4910   31.4540   48.1080 C   0  0  0  0  0  0  0  0  0  0  0  0
   63.4640   31.9950   47.2440 O   0  0  0  0  0  0  0  0  0  0  0  0
   63.2910   33.3930   47.1930 C   0  0  0  0  0  0  0  0  0  0  0  0
   61.9720   33.7710   46.5050 C   0  0  0  0  0  0  0  0  0  0  0  0
   58.8660   32.0900   45.4970 C   0  0  0  0  0  0  0  0  0  0  0  0
   57.4190   27.1400   46.5910 C   0  0  0  0  0  0  0  0  0  0  0  0
   56.1640   26.5630   46.3180 O   0  0  0  0  0  0  0  0  0  0  0  0
   55.9010   25.3060   45.7040 C   0  0  0  0  0  0  0  0  0  0  0  0
   58.1400   26.5670   47.5930 N   0  0  0  0  0  0  0  0  0  0  0  0
   60.4931   26.7639   50.9752 H   0  0  0  0  0  0  0  0  0  0  0  0
   61.8912   26.8710   49.8526 H   0  0  0  0  0  0  0  0  0  0  0  0
   60.6387   28.1586   49.8526 H   0  0  0  0  0  0  0  0  0  0  0  0
   60.9417   28.4568   47.6027 H   0  0  0  0  0  0  0  0  0  0  0  0
   59.6990   29.5660   45.7482 H   0  0  0  0  0  0  0  0  0  0  0  0
   57.5011   31.1075   43.2465 H   0  0  0  0  0  0  0  0  0  0  0  0
   55.9150   31.7744   43.8052 H   0  0  0  0  0  0  0  0  0  0  0  0
   55.9961   33.8343   44.8414 H   0  0  0  0  0  0  0  0  0  0  0  0
   57.2404   35.5395   46.1764 H   0  0  0  0  0  0  0  0  0  0  0  0
   60.3486   31.4238   48.2709 H   0  0  0  0  0  0  0  0  0  0  0  0
   61.0291   30.7569   46.7182 H   0  0  0  0  0  0  0  0  0  0  0  0
   62.4976   32.0132   49.0553 H   0  0  0  0  0  0  0  0  0  0  0  0
   62.7273   30.3952   48.2897 H   0  0  0  0  0  0  0  0  0  0  0  0
   63.2860   33.7904   48.2187 H   0  0  0  0  0  0  0  0  0  0  0  0
   64.1197   33.8227   46.6111 H   0  0  0  0  0  0  0  0  0  0  0  0
   61.6793   34.7767   46.8411 H   0  0  0  0  0  0  0  0  0  0  0  0
   62.1487   33.7297   45.4201 H   0  0  0  0  0  0  0  0  0  0  0  0
   59.3298   31.1070   45.3276 H   0  0  0  0  0  0  0  0  0  0  0  0
   55.7416   24.5443   46.4815 H   0  0  0  0  0  0  0  0  0  0  0  0
   55.0000   25.3851   45.0780 H   0  0  0  0  0  0  0  0  0  0  0  0
   56.7582   25.0172   45.0780 H   0  0  0  0  0  0  0  0  0  0  0  0
  1  2  1  0
  2  3  1  0
  3  4  2  0
  4  5  1  0
  5  6  2  0
  6  7  1  0
  7  8  2  0
  7  9  1  0
  9 10  1  0
 10 11  1  0
 11 12  2  0
 12 13  1  0
 13 14  2  0
 14 15  1  0
 15 16  1  0
 16 17  1  0
 17 18  1  0
 18 19  1  0
 19 20  1  0
 20 21  1  0
 15 22  2  0
  6 23  1  0
 23 24  1  0
 24 25  1  0
 23 26  2  0
 26  3  1  0
 22 11  1  0
 21 16  1  0
  1 27  1  0
  1 28  1  0
  1 29  1  0
  4 30  1  0
  5 31  1  0
 10 32  1  0
 10 33  1  0
 12 34  1  0
 13 35  1  0
 17 36  1  0
 17 37  1  0
 18 38  1  0
 18 39  1  0
 20 40  1  0
 20 41  1  0
 21 42  1  0
 21 43  1  0
 22 44  1  0
 25 45  1  0
 25 46  1  0
 25 47  1  0
M  CHG  1   9  -1
M  END
>  <UniqueID>  (29) 
28

>  <SMILES>  (29) 
COc1ccc(C(=O)[N-]Cc2ccnc(N3CCOCC3)c2)c(OC)n1

>  <Energy>  (29) 
56.92574920461296

>  <Genealogy>  (29) 
COc1ccc(C(=O)[N-]Cc2ccnc(N3CCOCC3)c2)c(OC)n1 (protonated)
COc1ccc(C(=O)[N-]Cc2ccnc(N3CCOCC3)c2)c(OC)n1 (3D coordinates assigned)
COc1ccc(C(=O)[N-]Cc2ccnc(N3CCOCC3)c2)c(OC)n1 (nonaromatic ring conformer: 56.92574920461296 kcal/mol)

>  <smiles>  (29) 
COc1ccc(C(=O)NCc2ccnc(N3CCOCC3)c2)c(OC)n1

>  <score_type>  (29) 
oracle

>  <origin>  (29) 
adg

>  <m_score__min__energy>  (29) 
-9.8100000000000005

>  <m_primary>  (29) 
energy

$$$$
29:0
     RDKit          3D

 45 47  0  0  1  0  0  0  0  0999 V2000
   59.2020   32.0470   46.1540 N   0  0  0  0  0  0  0  0  0  0  0  0
   59.2960   31.2170   47.3240 C   0  0  0  0  0  0  0  0  0  0  0  0
   58.5640   31.4930   48.3070 O   0  0  0  0  0  0  0  0  0  0  0  0
   60.1990   30.1460   47.3020 N   0  0  0  0  0  0  0  0  0  0  0  0
   60.4110   29.2350   48.3710 C   0  0  0  0  0  0  0  0  0  0  0  0
   60.7300   29.7080   49.6370 C   0  0  0  0  0  0  0  0  0  0  0  0
   60.9450   28.8450   50.7060 C   0  0  0  0  0  0  0  0  0  0  0  0
   60.8270   27.4870   50.4560 C   0  0  0  0  0  0  0  0  0  0  0  0
   60.5110   27.0160   49.2000 C   0  0  0  0  0  0  0  0  0  0  0  0
   60.2970   27.8940   48.1320 C   0  0  0  0  0  0  0  0  0  0  0  0
   55.8580   25.3390   46.3740 N   0  0  0  0  0  0  0  0  0  0  0  0
   56.6420   26.3450   46.2070 C   0  0  0  0  0  0  0  0  0  0  0  0
   58.2140   28.4740   45.8240 C   0  0  0  0  0  0  0  0  0  0  0  0
   56.9030   28.5010   45.3890 C   0  0  0  0  0  0  0  0  0  0  0  0
   56.3720   29.6990   44.7170 C   0  0  0  0  0  0  0  0  0  0  0  0
   55.2120   29.5970   43.9320 N   0  0  0  0  0  0  0  0  0  0  0  0
   56.9320   30.8200   44.8280 O   0  0  0  0  0  0  0  0  0  0  0  0
   56.1150   27.4220   45.5860 N   0  0  0  0  0  0  0  0  0  0  0  0
   58.7580   27.3770   46.4580 C   0  0  0  0  0  0  0  0  0  0  0  0
   59.9750   27.3310   46.8690 N   0  0  0  0  0  0  0  0  0  0  0  0
   55.9790   24.1500   45.5970 C   0  0  0  0  0  0  0  0  0  0  0  0
   56.3940   24.3070   44.2690 C   0  0  0  0  0  0  0  0  0  0  0  0
   56.5360   23.2000   43.4490 C   0  0  0  0  0  0  0  0  0  0  0  0
   56.2580   21.9320   43.9680 C   0  0  0  0  0  0  0  0  0  0  0  0
   56.4120   20.8520   43.1180 O   0  0  0  0  0  0  0  0  0  0  0  0
   55.8440   21.7750   45.2890 C   0  0  0  0  0  0  0  0  0  0  0  0
   55.7070   22.8940   46.0980 C   0  0  0  0  0  0  0  0  0  0  0  0
   57.9300   26.3190   46.6320 N   0  0  0  0  0  0  0  0  0  0  0  0
   59.9570   32.7780   46.0140 H   0  0  0  0  0  0  0  0  0  0  0  0
   58.4300   31.9510   45.4580 H   0  0  0  0  0  0  0  0  0  0  0  0
   60.7820   29.9770   46.4360 H   0  0  0  0  0  0  0  0  0  0  0  0
   60.8148   30.7928   49.7983 H   0  0  0  0  0  0  0  0  0  0  0  0
   61.1979   29.2240   51.7072 H   0  0  0  0  0  0  0  0  0  0  0  0
   60.9886   26.7714   51.2757 H   0  0  0  0  0  0  0  0  0  0  0  0
   60.4256   25.9319   49.0345 H   0  0  0  0  0  0  0  0  0  0  0  0
   58.8462   29.3589   45.6587 H   0  0  0  0  0  0  0  0  0  0  0  0
   54.3900   30.2280   44.0590 H   0  0  0  0  0  0  0  0  0  0  0  0
   55.1690   28.8660   43.1950 H   0  0  0  0  0  0  0  0  0  0  0  0
   55.1460   27.4880   45.2460 H   0  0  0  0  0  0  0  0  0  0  0  0
   56.6078   25.3119   43.8761 H   0  0  0  0  0  0  0  0  0  0  0  0
   56.8626   23.3167   42.4051 H   0  0  0  0  0  0  0  0  0  0  0  0
   56.9630   20.0290   43.2970 H   0  0  0  0  0  0  0  0  0  0  0  0
   55.6276   20.7727   45.6872 H   0  0  0  0  0  0  0  0  0  0  0  0
   55.3805   22.7791   47.1421 H   0  0  0  0  0  0  0  0  0  0  0  0
   58.2970   25.4680   47.1060 H   0  0  0  0  0  0  0  0  0  0  0  0
  1  2  1  0
  2  3  2  0
  2  4  1  0
  4  5  1  0
  5  6  2  0
  6  7  1  0
  7  8  2  0
  8  9  1  0
  9 10  2  0
 10 11  1  0
 11 12  2  0
 12 13  1  0
 13 14  2  0
 14 15  1  0
 15 16  1  0
 15 17  2  0
 14 18  1  0
 18 19  1  0
 19 20  2  0
 20 21  1  0
 21 22  2  0
 22 23  1  0
 23 24  2  0
 24 25  1  0
 24 26  1  0
 26 27  2  0
 19 28  1  0
 10  5  1  0
 28 12  1  0
 27 21  1  0
  1 29  1  0
  1 30  1  0
  4 31  1  0
  6 32  1  0
  7 33  1  0
  8 34  1  0
  9 35  1  0
 13 36  1  0
 16 37  1  0
 16 38  1  0
 18 39  1  0
 22 40  1  0
 23 41  1  0
 25 42  1  0
 26 43  1  0
 27 44  1  0
 28 45  1  0
M  END
>  <smiles>  (30) 
NC(=O)Nc1ccccc1N=c1cc(C(N)=O)[nH]c(=Nc2ccc(O)cc2)[nH]1

>  <score_type>  (30) 
oracle

>  <origin>  (30) 
adg

>  <m_score__min__energy>  (30) 
-9.1999999999999993

>  <m_primary>  (30) 
energy

$$$$
30:0
     RDKit          3D

 18 18  0  0  0  0  0  0  0  0999 V2000
   55.7240   24.0330   46.3630 C   0  0  0  0  0  0  0  0  0  0  0  0
   56.6470   25.1650   45.9750 C   0  0  0  0  0  0  0  0  0  0  0  0
   58.0340   24.9450   45.7520 C   0  0  0  0  0  0  0  0  0  0  0  0
   58.6960   23.6270   45.9400 C   0  0  0  0  0  0  0  0  0  0  0  0
   58.0720   22.6460   46.4210 O   0  0  0  0  0  0  0  0  0  0  0  0
   60.0410   23.4740   45.6240 O   0  0  0  0  0  0  0  0  0  0  0  0
   58.8220   26.0280   45.3380 C   0  0  0  0  0  0  0  0  0  0  0  0
   58.2820   27.2620   45.1890 N   0  0  0  0  0  0  0  0  0  0  0  0
   56.9700   27.5190   45.4250 C   0  0  0  0  0  0  0  0  0  0  0  0
   56.4820   28.9040   45.2430 C   0  0  0  0  0  0  0  0  0  0  0  0
   57.2570   29.8720   45.4630 O   0  0  0  0  0  0  0  0  0  0  0  0
   55.1810   29.1660   44.8320 O   0  0  0  0  0  0  0  0  0  0  0  0
   56.1250   26.4690   45.8300 C   0  0  0  0  0  0  0  0  0  0  0  0
   54.7770   26.7110   46.0840 O   0  0  0  0  0  0  0  0  0  0  0  0
   55.6683   23.9647   47.4595 H   0  0  0  0  0  0  0  0  0  0  0  0
   54.7198   24.2227   45.9560 H   0  0  0  0  0  0  0  0  0  0  0  0
   56.1120   23.0876   45.9560 H   0  0  0  0  0  0  0  0  0  0  0  0
   59.8915   25.8743   45.1316 H   0  0  0  0  0  0  0  0  0  0  0  0
  1  2  1  0
  2  3  2  0
  3  4  1  0
  4  5  2  0
  4  6  1  0
  3  7  1  0
  7  8  2  0
  8  9  1  0
  9 10  1  0
 10 11  2  0
 10 12  1  0
  9 13  2  0
 13 14  1  0
 13  2  1  0
  1 15  1  0
  1 16  1  0
  1 17  1  0
  7 18  1  0
M  CHG  3   6  -1  12  -1  14  -1
M  END
>  <UniqueID>  (31) 
29

>  <SMILES>  (31) 
Cc1c(C(=O)[O-])cnc(C(=O)[O-])c1[O-]

>  <Energy>  (31) 
24.426473177935954

>  <Genealogy>  (31) 
Cc1c(C(=O)[O-])cnc(C(=O)[O-])c1[O-] (protonated)
Cc1c(C(=O)[O-])cnc(C(=O)[O-])c1[O-] (3D coordinates assigned)
Cc1c(C(=O)[O-])cnc(C(=O)[O-])c1[O-] (optimized conformer: 24.426473177935954 kcal/mol)

>  <smiles>  (31) 
Cc1c(C(=O)O)cnc(C(=O)O)c1O

>  <score_type>  (31) 
oracle

>  <origin>  (31) 
adg

>  <m_score__min__energy>  (31) 
-13.109999999999999

>  <m_primary>  (31) 
energy

$$$$
31:0
     RDKit          3D

 39 41  0  0  0  0  0  0  0  0999 V2000
   60.8480   29.3710   45.2930 O   0  0  0  0  0  0  0  0  0  0  0  0
   59.8840   29.6220   46.0660 C   0  0  0  0  0  0  0  0  0  0  0  0
   60.0230   30.6940   47.0090 N   0  0  0  0  0  0  0  0  0  0  0  0
   61.0940   31.6480   47.0500 C   0  0  0  0  0  0  0  0  0  0  0  0
   62.3900   31.2650   47.4420 C   0  0  0  0  0  0  0  0  0  0  0  0
   63.4160   32.2130   47.5210 C   0  0  0  0  0  0  0  0  0  0  0  0
   63.1550   33.5530   47.2260 C   0  0  0  0  0  0  0  0  0  0  0  0
   61.8680   33.9480   46.8530 C   0  0  0  0  0  0  0  0  0  0  0  0
   60.8340   33.0050   46.7600 C   0  0  0  0  0  0  0  0  0  0  0  0
   59.5270   33.4360   46.3520 N   0  0  0  0  0  0  0  0  0  0  0  0
   58.4850   33.6910   47.3490 C   0  0  0  0  0  0  0  0  0  0  0  0
   57.1120   33.4280   46.7220 C   0  0  0  0  0  0  0  0  0  0  0  0
   56.9640   34.1560   45.5130 O   0  0  0  0  0  0  0  0  0  0  0  0
   57.8840   33.6750   44.5490 C   0  0  0  0  0  0  0  0  0  0  0  0
   59.3290   33.9350   44.9890 C   0  0  0  0  0  0  0  0  0  0  0  0
   58.6680   28.7730   46.0150 C   0  0  0  0  0  0  0  0  0  0  0  0
   58.7020   27.4360   46.4500 C   0  0  0  0  0  0  0  0  0  0  0  0
   57.5540   26.6370   46.3700 C   0  0  0  0  0  0  0  0  0  0  0  0
   56.3660   27.1590   45.8430 C   0  0  0  0  0  0  0  0  0  0  0  0
   55.2220   26.3660   45.7550 O   0  0  0  0  0  0  0  0  0  0  0  0
   56.3280   28.4860   45.3980 C   0  0  0  0  0  0  0  0  0  0  0  0
   55.1540   29.0120   44.8740 O   0  0  0  0  0  0  0  0  0  0  0  0
   57.4730   29.2880   45.4810 C   0  0  0  0  0  0  0  0  0  0  0  0
   62.5979   30.2132   47.6880 H   0  0  0  0  0  0  0  0  0  0  0  0
   64.4293   31.9026   47.8158 H   0  0  0  0  0  0  0  0  0  0  0  0
   63.9627   34.2972   47.2874 H   0  0  0  0  0  0  0  0  0  0  0  0
   61.6642   35.0059   46.6307 H   0  0  0  0  0  0  0  0  0  0  0  0
   58.6296   33.0234   48.2112 H   0  0  0  0  0  0  0  0  0  0  0  0
   58.5434   34.7368   47.6851 H   0  0  0  0  0  0  0  0  0  0  0  0
   57.0116   32.3532   46.5107 H   0  0  0  0  0  0  0  0  0  0  0  0
   56.3333   33.7530   47.4277 H   0  0  0  0  0  0  0  0  0  0  0  0
   57.7367   32.5925   44.4203 H   0  0  0  0  0  0  0  0  0  0  0  0
   57.7063   34.2042   43.6012 H   0  0  0  0  0  0  0  0  0  0  0  0
   60.0181   33.4167   44.3061 H   0  0  0  0  0  0  0  0  0  0  0  0
   59.5286   35.0165   44.9642 H   0  0  0  0  0  0  0  0  0  0  0  0
   59.6344   27.0156   46.8550 H   0  0  0  0  0  0  0  0  0  0  0  0
   57.5858   25.5955   46.7225 H   0  0  0  0  0  0  0  0  0  0  0  0
   54.3660   26.7150   45.3390 H   0  0  0  0  0  0  0  0  0  0  0  0
   57.4376   30.3285   45.1259 H   0  0  0  0  0  0  0  0  0  0  0  0
  1  2  2  0
  2  3  1  0
  3  4  1  0
  4  5  2  0
  5  6  1  0
  6  7  2  0
  7  8  1  0
  8  9  2  0
  9 10  1  0
 10 11  1  0
 11 12  1  0
 12 13  1  0
 13 14  1  0
 14 15  1  0
  2 16  1  0
 16 17  2  0
 17 18  1  0
 18 19  2  0
 19 20  1  0
 19 21  1  0
 21 22  1  0
 21 23  2  0
  9  4  1  0
 15 10  1  0
 23 16  1  0
  5 24  1  0
  6 25  1  0
  7 26  1  0
  8 27  1  0
 11 28  1  0
 11 29  1  0
 12 30  1  0
 12 31  1  0
 14 32  1  0
 14 33  1  0
 15 34  1  0
 15 35  1  0
 17 36  1  0
 18 37  1  0
 20 38  1  0
 23 39  1  0
M  CHG  2   3  -1  22  -1
M  END
>  <UniqueID>  (32) 
30

>  <SMILES>  (32) 
O=C([N-]c1ccccc1N1CCOCC1)c1ccc(O)c([O-])c1

>  <Energy>  (32) 
53.75017015283076

>  <Genealogy>  (32) 
O=C([N-]c1ccccc1N1CCOCC1)c1ccc(O)c([O-])c1 (protonated)
O=C([N-]c1ccccc1N1CCOCC1)c1ccc(O)c([O-])c1 (3D coordinates assigned)
O=C([N-]c1ccccc1N1CCOCC1)c1ccc(O)c([O-])c1 (nonaromatic ring conformer: 53.75017015283076 kcal/mol)

>  <smiles>  (32) 
O=C(Nc1ccccc1N1CCOCC1)c1ccc(O)c(O)c1

>  <score_type>  (32) 
oracle

>  <origin>  (32) 
adg

>  <m_score__min__energy>  (32) 
-12.85

>  <m_primary>  (32) 
energy

$$$$
32:0
     RDKit          3D

 37 39  0  0  0  0  0  0  0  0999 V2000
   60.0540   28.2020   48.8550 N   0  0  0  0  0  0  0  0  0  0  0  0
   59.5120   29.7360   49.4390 S   0  0  0  0  0  0  0  0  0  0  0  0
   58.2150   29.5620   50.1780 O   0  0  0  0  0  0  0  0  0  0  0  0
   60.5330   30.2990   50.3880 O   0  0  0  0  0  0  0  0  0  0  0  0
   59.2800   30.8360   48.0840 C   0  0  0  0  0  0  0  0  0  0  0  0
   59.8140   32.1270   48.1270 C   0  0  0  0  0  0  0  0  0  0  0  0
   59.6620   32.9860   47.0380 C   0  0  0  0  0  0  0  0  0  0  0  0
   58.9540   32.5750   45.9000 C   0  0  0  0  0  0  0  0  0  0  0  0
   58.4020   31.2730   45.8460 C   0  0  0  0  0  0  0  0  0  0  0  0
   58.5910   30.4070   46.9430 C   0  0  0  0  0  0  0  0  0  0  0  0
   57.6780   30.8470   44.6640 N   0  0  0  0  0  0  0  0  0  0  0  0
   56.8200   29.6880   44.6820 C   0  0  0  0  0  0  0  0  0  0  0  0
   55.6040   29.8130   44.9950 O   0  0  0  0  0  0  0  0  0  0  0  0
   57.3460   28.3270   44.3260 C   0  0  0  0  0  0  0  0  0  0  0  0
   57.4730   27.4700   45.5480 C   0  0  0  0  0  0  0  0  0  0  0  0
   58.6260   27.2490   46.2020 N   0  0  0  0  0  0  0  0  0  0  0  0
   58.2650   26.4040   47.1930 C   0  0  0  0  0  0  0  0  0  0  0  0
   59.0860   25.9600   48.0380 O   0  0  0  0  0  0  0  0  0  0  0  0
   56.9560   26.0710   47.2060 N   0  0  0  0  0  0  0  0  0  0  0  0
   56.4700   26.7510   46.1570 C   0  0  0  0  0  0  0  0  0  0  0  0
   55.1390   26.7170   45.7610 O   0  0  0  0  0  0  0  0  0  0  0  0
   57.8020   31.6300   43.4290 C   0  0  0  0  0  0  0  0  0  0  0  0
   57.7590   33.1220   43.7480 C   0  0  0  0  0  0  0  0  0  0  0  0
   58.8910   33.4950   44.7070 C   0  0  0  0  0  0  0  0  0  0  0  0
   59.6200   28.0640   47.9140 H   0  0  0  0  0  0  0  0  0  0  0  0
   59.6450   27.4750   49.4840 H   0  0  0  0  0  0  0  0  0  0  0  0
   60.3557   32.4668   49.0220 H   0  0  0  0  0  0  0  0  0  0  0  0
   60.1013   33.9939   47.0727 H   0  0  0  0  0  0  0  0  0  0  0  0
   58.1925   29.3826   46.9018 H   0  0  0  0  0  0  0  0  0  0  0  0
   56.6540   27.8465   43.6187 H   0  0  0  0  0  0  0  0  0  0  0  0
   58.3406   28.4413   43.8703 H   0  0  0  0  0  0  0  0  0  0  0  0
   58.7577   31.3898   42.9402 H   0  0  0  0  0  0  0  0  0  0  0  0
   56.9661   31.3806   42.7589 H   0  0  0  0  0  0  0  0  0  0  0  0
   57.8700   33.6953   42.8158 H   0  0  0  0  0  0  0  0  0  0  0  0
   56.7958   33.3575   44.2241 H   0  0  0  0  0  0  0  0  0  0  0  0
   59.8468   33.4387   44.1655 H   0  0  0  0  0  0  0  0  0  0  0  0
   58.6989   34.5133   45.0760 H   0  0  0  0  0  0  0  0  0  0  0  0
  1  2  1  0
  2  3  2  0
  2  4  2  0
  2  5  1  0
  5  6  2  0
  6  7  1  0
  7  8  2  0
  8  9  1  0
  9 10  2  0
  9 11  1  0
 11 12  1  0
 12 13  2  0
 12 14  1  0
 14 15  1  0
 15 16  1  0
 16 17  1  0
 17 18  2  0
 17 19  1  0
 19 20  1  0
 20 21  1  0
 11 22  1  0
 22 23  1  0
 23 24  1  0
 10  5  1  0
 20 15  2  0
 24  8  1  0
  1 25  1  0
  1 26  1  0
  6 27  1  0
  7 28  1  0
 10 29  1  0
 14 30  1  0
 14 31  1  0
 22 32  1  0
 22 33  1  0
 23 34  1  0
 23 35  1  0
 24 36  1  0
 24 37  1  0
M  CHG  3  16  -1  19  -1  21  -1
M  END
>  <UniqueID>  (33) 
31

>  <SMILES>  (33) 
NS(=O)(=O)c1ccc2c(c1)N(C(=O)Cc1[n-]c(=O)[n-]c1[O-])CCC2

>  <Energy>  (33) 
70.36815955940833

>  <Genealogy>  (33) 
NS(=O)(=O)c1ccc2c(c1)N(C(=O)Cc1[n-]c(=O)[n-]c1[O-])CCC2 (protonated)
NS(=O)(=O)c1ccc2c(c1)N(C(=O)Cc1[n-]c(=O)[n-]c1[O-])CCC2 (3D coordinates assigned)
NS(=O)(=O)c1ccc2c(c1)N(C(=O)Cc1[n-]c(=O)[n-]c1[O-])CCC2 (nonaromatic ring conformer: 70.36815955940833 kcal/mol)

>  <smiles>  (33) 
NS(=O)(=O)c1ccc2c(c1)N(C(=O)Cc1[nH]c(=O)[nH]c1O)CCC2

>  <score_type>  (33) 
oracle

>  <origin>  (33) 
adg

>  <m_score__min__energy>  (33) 
-14.26

>  <m_primary>  (33) 
energy

$$$$
33:0
     RDKit          3D

 45 47  0  0  1  0  0  0  0  0999 V2000
   59.5120   34.8950   45.9210 C   0  0  0  0  0  0  0  0  0  0  0  0
   58.8080   33.6600   45.4850 C   0  0  0  0  0  0  0  0  0  0  0  0
   58.5210   33.4920   44.1360 C   0  0  0  0  0  0  0  0  0  0  0  0
   57.8630   32.3500   43.6900 C   0  0  0  0  0  0  0  0  0  0  0  0
   57.4860   31.3660   44.5850 C   0  0  0  0  0  0  0  0  0  0  0  0
   56.6610   29.9440   43.9980 S   0  0  0  0  0  0  0  0  0  0  0  0
   55.4550   29.7100   44.8700 O   0  0  0  0  0  0  0  0  0  0  0  0
   56.1610   30.1360   42.5950 O   0  0  0  0  0  0  0  0  0  0  0  0
   57.6990   28.5640   44.0010 N   0  0  0  0  0  0  0  0  0  0  0  0
   57.9480   27.9610   45.1250 C   0  0  0  0  0  0  0  0  0  0  0  0
   57.8750   26.5690   45.1890 C   0  0  0  0  0  0  0  0  0  0  0  0
   58.1540   25.9810   46.4220 C   0  0  0  0  0  0  0  0  0  0  0  0
   58.4700   26.7550   47.4550 N   0  0  0  0  0  0  0  0  0  0  0  0
   58.5440   28.0960   47.4070 C   0  0  0  0  0  0  0  0  0  0  0  0
   58.9020   28.9350   48.5840 C   0  0  0  0  0  0  0  0  0  0  0  0
   59.9270   29.9550   48.2310 C   0  0  0  0  0  0  0  0  0  0  0  0
   60.7670   29.8260   47.1380 C   0  0  0  0  0  0  0  0  0  0  0  0
   61.6750   30.8440   46.9200 C   0  0  0  0  0  0  0  0  0  0  0  0
   61.7730   31.9550   47.7280 C   0  0  0  0  0  0  0  0  0  0  0  0
   62.7630   32.9900   47.4310 C   0  0  0  0  0  0  0  0  0  0  0  0
   64.1260   32.6310   47.2360 N   0  0  0  0  0  0  0  0  0  0  0  0
   62.3440   34.1760   47.3620 O   0  0  0  0  0  0  0  0  0  0  0  0
   60.9270   32.0560   48.8040 C   0  0  0  0  0  0  0  0  0  0  0  0
   59.9920   31.0640   49.0770 C   0  0  0  0  0  0  0  0  0  0  0  0
   58.2750   28.6830   46.2100 N   0  0  0  0  0  0  0  0  0  0  0  0
   57.7630   31.5160   45.9380 C   0  0  0  0  0  0  0  0  0  0  0  0
   58.4210   32.6640   46.3590 C   0  0  0  0  0  0  0  0  0  0  0  0
   59.5350   34.9354   47.0200 H   0  0  0  0  0  0  0  0  0  0  0  0
   60.5412   34.8869   45.5328 H   0  0  0  0  0  0  0  0  0  0  0  0
   58.9806   35.7764   45.5328 H   0  0  0  0  0  0  0  0  0  0  0  0
   58.8164   34.2682   43.4147 H   0  0  0  0  0  0  0  0  0  0  0  0
   57.6415   32.2294   42.6193 H   0  0  0  0  0  0  0  0  0  0  0  0
   57.6101   25.9646   44.3089 H   0  0  0  0  0  0  0  0  0  0  0  0
   58.1130   24.8880   46.5385 H   0  0  0  0  0  0  0  0  0  0  0  0
   58.6740   26.3060   48.3640 H   0  0  0  0  0  0  0  0  0  0  0  0
   57.9984   29.4463   48.9474 H   0  0  0  0  0  0  0  0  0  0  0  0
   59.3190   28.2797   49.3629 H   0  0  0  0  0  0  0  0  0  0  0  0
   60.7137   28.9516   46.4727 H   0  0  0  0  0  0  0  0  0  0  0  0
   62.3536   30.7632   46.0580 H   0  0  0  0  0  0  0  0  0  0  0  0
   64.9310   33.2240   47.5400 H   0  0  0  0  0  0  0  0  0  0  0  0
   64.3750   31.7170   46.7600 H   0  0  0  0  0  0  0  0  0  0  0  0
   60.9898   32.9360   49.4610 H   0  0  0  0  0  0  0  0  0  0  0  0
   59.3174   31.1509   49.9415 H   0  0  0  0  0  0  0  0  0  0  0  0
   57.4672   30.7414   46.6608 H   0  0  0  0  0  0  0  0  0  0  0  0
   58.6423   32.7844   47.4298 H   0  0  0  0  0  0  0  0  0  0  0  0
  1  2  1  0
  2  3  2  0
  3  4  1  0
  4  5  2  0
  5  6  1  0
  6  7  2  0
  6  8  2  0
  6  9  1  0
  9 10  2  0
 10 11  1  0
 11 12  2  0
 12 13  1  0
 13 14  1  0
 14 15  1  0
 15 16  1  0
 16 17  2  0
 17 18  1  0
 18 19  2  0
 19 20  1  0
 20 21  1  0
 20 22  2  0
 19 23  1  0
 23 24  2  0
 14 25  2  0
  5 26  1  0
 26 27  2  0
 27  2  1  0
 25 10  1  0
 24 16  1  0
  1 28  1  0
  1 29  1  0
  1 30  1  0
  3 31  1  0
  4 32  1  0
 11 33  1  0
 12 34  1  0
 13 35  1  0
 15 36  1  0
 15 37  1  0
 17 38  1  0
 18 39  1  0
 21 40  1  0
 21 41  1  0
 23 42  1  0
 24 43  1  0
 26 44  1  0
 27 45  1  0
M  END
>  <smiles>  (34) 
Cc1ccc(S(=O)(=O)N=c2cc[nH]c(Cc3ccc(C(N)=O)cc3)n2)cc1

>  <score_type>  (34) 
oracle

>  <origin>  (34) 
adg

>  <m_score__min__energy>  (34) 
-9.6799999999999997

>  <m_primary>  (34) 
energy

$$$$
34:0
     RDKit          3D

 46 49  0  0  0  0  0  0  0  0999 V2000
   50.7130   34.2560   51.6460 H   0  0  0  0  0  0  0  0  0  0  0  0
   50.8770   33.2880   52.0020 N   0  0  0  0  0  0  0  0  0  0  0  0
   51.4070   32.2730   51.1500 C   0  0  0  0  0  0  0  0  0  0  0  0
   51.1820   32.3320   49.9120 O   0  0  0  0  0  0  0  0  0  0  0  0
   52.2110   31.1620   51.7130 C   0  0  0  0  0  0  0  0  0  0  0  0
   51.6440   29.8920   51.9010 C   0  0  0  0  0  0  0  0  0  0  0  0
   50.5931   29.7103   51.6315 H   0  0  0  0  0  0  0  0  0  0  0  0
   52.4210   28.8600   52.4320 C   0  0  0  0  0  0  0  0  0  0  0  0
   51.9818   27.8624   52.5800 H   0  0  0  0  0  0  0  0  0  0  0  0
   53.7180   29.0860   52.7660 N   0  0  0  0  0  0  0  0  0  0  0  0
   54.3050   30.3050   52.5980 C   0  0  0  0  0  0  0  0  0  0  0  0
   55.5490   30.5080   52.9250 N   0  0  0  0  0  0  0  0  0  0  0  0
   56.6880   30.4940   52.0490 C   0  0  0  0  0  0  0  0  0  0  0  0
   57.4250   29.4730   51.9620 O   0  0  0  0  0  0  0  0  0  0  0  0
   56.9500   31.6450   51.2350 N   0  0  0  0  0  0  0  0  0  0  0  0
   56.1800   32.3440   51.1300 H   0  0  0  0  0  0  0  0  0  0  0  0
   58.1510   31.8370   50.4690 C   0  0  0  0  0  0  0  0  0  0  0  0
   58.6440   30.8250   49.6010 C   0  0  0  0  0  0  0  0  0  0  0  0
   58.0887   29.8807   49.5016 H   0  0  0  0  0  0  0  0  0  0  0  0
   59.8360   31.0110   48.8630 C   0  0  0  0  0  0  0  0  0  0  0  0
   60.3410   29.9580   47.9490 C   0  0  0  0  0  0  0  0  0  0  0  0
   61.5190   30.0150   47.5030 O   0  0  0  0  0  0  0  0  0  0  0  0
   59.4900   28.8690   47.5710 N   0  0  0  0  0  0  0  0  0  0  0  0
   58.8750   28.7420   46.2540 C   0  0  0  0  0  0  0  0  0  0  0  0
   58.4149   29.7012   45.9742 H   0  0  0  0  0  0  0  0  0  0  0  0
   59.6492   28.4681   45.5221 H   0  0  0  0  0  0  0  0  0  0  0  0
   57.8190   27.6720   46.2730 C   0  0  0  0  0  0  0  0  0  0  0  0
   56.5710   27.8950   45.6710 C   0  0  0  0  0  0  0  0  0  0  0  0
   56.3560   28.8647   45.1983 H   0  0  0  0  0  0  0  0  0  0  0  0
   55.6270   26.9170   45.6700 N   0  0  0  0  0  0  0  0  0  0  0  0
   55.8530   25.7030   46.2410 C   0  0  0  0  0  0  0  0  0  0  0  0
   54.9530   24.8240   46.2190 O   0  0  0  0  0  0  0  0  0  0  0  0
   57.0830   25.4340   46.8460 C   0  0  0  0  0  0  0  0  0  0  0  0
   57.2727   24.4534   47.3068 H   0  0  0  0  0  0  0  0  0  0  0  0
   58.0690   26.4220   46.8600 C   0  0  0  0  0  0  0  0  0  0  0  0
   59.0423   26.2207   47.3313 H   0  0  0  0  0  0  0  0  0  0  0  0
   60.5100   32.2280   49.0420 C   0  0  0  0  0  0  0  0  0  0  0  0
   61.6510   32.6390   48.4650 N   0  0  0  0  0  0  0  0  0  0  0  0
   61.8280   33.8670   49.0110 C   0  0  0  0  0  0  0  0  0  0  0  0
   62.8110   34.5990   48.7200 O   0  0  0  0  0  0  0  0  0  0  0  0
   60.8730   34.2510   49.8920 N   0  0  0  0  0  0  0  0  0  0  0  0
   60.0500   33.1910   49.8920 C   0  0  0  0  0  0  0  0  0  0  0  0
   58.8820   33.0320   50.6280 C   0  0  0  0  0  0  0  0  0  0  0  0
   58.5370   33.8176   51.3163 H   0  0  0  0  0  0  0  0  0  0  0  0
   53.5550   31.3630   52.0690 C   0  0  0  0  0  0  0  0  0  0  0  0
   54.0183   32.3513   51.9323 H   0  0  0  0  0  0  0  0  0  0  0  0
  1  2  1  0
  2  3  1  0
  3  4  2  0
  3  5  1  0
  5  6  1  0
  6  7  1  0
  6  8  2  0
  8  9  1  0
  8 10  1  0
 10 11  1  0
 11 12  2  0
 12 13  1  0
 13 14  2  0
 13 15  1  0
 15 16  1  0
 15 17  1  0
 17 18  2  0
 18 19  1  0
 18 20  1  0
 20 21  1  0
 21 22  2  0
 21 23  1  0
 23 24  1  0
 24 25  1  0
 24 26  1  0
 24 27  1  0
 27 28  2  0
 28 29  1  0
 28 30  1  0
 30 31  1  0
 31 32  2  0
 31 33  1  0
 33 34  1  0
 33 35  2  0
 35 36  1  0
 20 37  2  0
 37 38  1  0
 38 39  1  0
 39 40  2  0
 39 41  1  0
 41 42  1  0
 42 43  2  0
 43 44  1  0
 11 45  1  0
 45 46  1  0
 45  5  2  0
 43 17  1  0
 35 27  1  0
 42 37  1  0
M  CHG  6   2  -1  10  -1  23  -1  30  -1  38  -1  41  -1
M  END
>  <UniqueID>  (35) 
32

>  <SMILES>  (35) 
[NH-]C(=O)c1cc[n-]/c(=N\C(=O)Nc2cc(C(=O)[N-]Cc3ccc(=O)[n-]c3)c3[n-]c(=O)[n-]c3c2)c1

>  <Energy>  (35) 
92.5062083376575

>  <Genealogy>  (35) 
[NH-]C(=O)c1cc[n-]c(=NC(=O)Nc2cc(C(=O)[N-]Cc3ccc(=O)[n-]c3)c3[n-]c(=O)[n-]c3c2)c1 (protonated)
[NH-]C(=O)c1cc[n-]/c(=N\C(=O)Nc2cc(C(=O)[N-]Cc3ccc(=O)[n-]c3)c3[n-]c(=O)[n-]c3c2)c1 (cis-trans isomerization)
[NH-]C(=O)c1cc[n-]/c(=N\C(=O)Nc2cc(C(=O)[N-]Cc3ccc(=O)[n-]c3)c3[n-]c(=O)[n-]c3c2)c1 (3D coordinates assigned)
[NH-]C(=O)c1cc[n-]/c(=N\C(=O)Nc2cc(C(=O)[N-]Cc3ccc(=O)[n-]c3)c3[n-]c(=O)[n-]c3c2)c1 (optimized conformer: 92.5062083376575 kcal/mol)

>  <smiles>  (35) 
NC(=O)c1cc[nH]c(=NC(=O)Nc2cc(C(=O)NCc3ccc(=O)[nH]c3)c3[nH]c(=O)[nH]c3c2)c1

>  <score_type>  (35) 
oracle

>  <origin>  (35) 
adg

>  <m_score__min__energy>  (35) 
-18.68

>  <m_primary>  (35) 
energy

$$$$
35:0
     RDKit          3D

 20 21  0  0  0  0  0  0  0  0999 V2000
   53.7870   25.0200   45.6450 O   0  0  0  0  0  0  0  0  0  0  0  0
   54.9930   25.3820   45.6410 C   0  0  0  0  0  0  0  0  0  0  0  0
   55.3710   26.7170   45.9940 N   0  0  0  0  0  0  0  0  0  0  0  0
   56.6770   27.3010   45.8620 C   0  0  0  0  0  0  0  0  0  0  0  0
   57.8340   26.6300   46.3010 C   0  0  0  0  0  0  0  0  0  0  0  0
   59.0960   27.2120   46.1410 C   0  0  0  0  0  0  0  0  0  0  0  0
   59.2240   28.4600   45.5290 C   0  0  0  0  0  0  0  0  0  0  0  0
   58.0860   29.1310   45.0630 C   0  0  0  0  0  0  0  0  0  0  0  0
   58.1880   30.3790   44.4330 C   0  0  0  0  0  0  0  0  0  0  0  0
   57.0380   31.0220   43.9750 C   0  0  0  0  0  0  0  0  0  0  0  0
   55.7940   30.4130   44.1520 C   0  0  0  0  0  0  0  0  0  0  0  0
   55.7060   29.2030   44.7660 N   0  0  0  0  0  0  0  0  0  0  0  0
   56.8080   28.5460   45.2240 C   0  0  0  0  0  0  0  0  0  0  0  0
   55.7720   24.6578   45.3606 H   0  0  0  0  0  0  0  0  0  0  0  0
   57.7451   25.6406   46.7734 H   0  0  0  0  0  0  0  0  0  0  0  0
   59.9918   26.6836   46.4992 H   0  0  0  0  0  0  0  0  0  0  0  0
   60.2181   28.9164   45.4127 H   0  0  0  0  0  0  0  0  0  0  0  0
   59.1730   30.8504   44.3000 H   0  0  0  0  0  0  0  0  0  0  0  0
   57.1105   32.0009   43.4784 H   0  0  0  0  0  0  0  0  0  0  0  0
   54.8824   30.9136   43.7936 H   0  0  0  0  0  0  0  0  0  0  0  0
  1  2  2  0
  2  3  1  0
  3  4  1  0
  4  5  2  0
  5  6  1  0
  6  7  2  0
  7  8  1  0
  8  9  2  0
  9 10  1  0
 10 11  2  0
 11 12  1  0
 12 13  2  0
 13  4  1  0
 13  8  1  0
  2 14  1  0
  5 15  1  0
  6 16  1  0
  7 17  1  0
  9 18  1  0
 10 19  1  0
 11 20  1  0
M  CHG  1   3  -1
M  END
>  <UniqueID>  (36) 
33

>  <SMILES>  (36) 
O=C[N-]c1cccc2cccnc12

>  <Energy>  (36) 
27.94020070559892

>  <Genealogy>  (36) 
O=C[N-]c1cccc2cccnc12 (protonated)
O=C[N-]c1cccc2cccnc12 (3D coordinates assigned)
O=C[N-]c1cccc2cccnc12 (optimized conformer: 27.94020070559892 kcal/mol)

>  <smiles>  (36) 
O=CNc1cccc2cccnc12

>  <score_type>  (36) 
oracle

>  <origin>  (36) 
adg

>  <m_score__min__energy>  (36) 
-8.6500000000000004

>  <m_primary>  (36) 
energy

$$$$
36:0
     RDKit          3D

 50 52  0  0  0  0  0  0  0  0999 V2000
   59.5457   27.4943   46.1601 H   0  0  0  0  0  0  0  0  0  0  0  0
   59.0220   28.3300   45.6730 C   0  0  0  0  0  0  0  0  0  0  0  0
   59.2150   29.6340   46.1360 C   0  0  0  0  0  0  0  0  0  0  0  0
   59.9067   29.8197   46.9709 H   0  0  0  0  0  0  0  0  0  0  0  0
   58.5340   30.7080   45.5450 C   0  0  0  0  0  0  0  0  0  0  0  0
   58.7710   32.0410   46.0250 N   0  0  0  0  0  0  0  0  0  0  0  0
   59.6670   32.2200   46.5320 H   0  0  0  0  0  0  0  0  0  0  0  0
   57.7950   33.0960   45.9910 C   0  0  0  0  0  0  0  0  0  0  0  0
   56.6190   32.8690   45.5970 O   0  0  0  0  0  0  0  0  0  0  0  0
   58.1440   34.4620   46.4960 C   0  0  0  0  0  0  0  0  0  0  0  0
   57.5599   35.2133   45.9444 H   0  0  0  0  0  0  0  0  0  0  0  0
   57.9103   34.5179   47.5694 H   0  0  0  0  0  0  0  0  0  0  0  0
   59.8860   34.7810   46.2620 S   0  0  0  0  0  0  0  0  0  0  0  0
   60.0290   36.1690   45.6950 O   0  0  0  0  0  0  0  0  0  0  0  0
   60.4350   33.7940   45.2710 O   0  0  0  0  0  0  0  0  0  0  0  0
   60.7370   34.6720   47.7920 N   0  0  0  0  0  0  0  0  0  0  0  0
   59.8510   34.2310   48.8850 C   0  0  0  0  0  0  0  0  0  0  0  0
   60.3231   34.4860   49.8453 H   0  0  0  0  0  0  0  0  0  0  0  0
   58.8859   34.7431   48.7574 H   0  0  0  0  0  0  0  0  0  0  0  0
   59.5790   32.7070   48.8560 C   0  0  0  0  0  0  0  0  0  0  0  0
   59.7243   32.3068   49.8703 H   0  0  0  0  0  0  0  0  0  0  0  0
   58.5480   32.5663   48.4993 H   0  0  0  0  0  0  0  0  0  0  0  0
   60.4300   32.0040   47.9690 O   0  0  0  0  0  0  0  0  0  0  0  0
   61.7650   32.4060   48.1740 C   0  0  0  0  0  0  0  0  0  0  0  0
   62.0030   32.3382   49.2458 H   0  0  0  0  0  0  0  0  0  0  0  0
   62.4282   31.7457   47.5959 H   0  0  0  0  0  0  0  0  0  0  0  0
   61.9700   33.8570   47.7000 C   0  0  0  0  0  0  0  0  0  0  0  0
   62.7468   34.3237   48.3236 H   0  0  0  0  0  0  0  0  0  0  0  0
   62.2636   33.8202   46.6405 H   0  0  0  0  0  0  0  0  0  0  0  0
   57.6800   30.4610   44.4570 C   0  0  0  0  0  0  0  0  0  0  0  0
   57.1604   31.2984   43.9684 H   0  0  0  0  0  0  0  0  0  0  0  0
   57.4870   29.1570   43.9920 C   0  0  0  0  0  0  0  0  0  0  0  0
   56.8007   28.9726   43.1524 H   0  0  0  0  0  0  0  0  0  0  0  0
   58.1640   28.0790   44.5900 C   0  0  0  0  0  0  0  0  0  0  0  0
   57.9550   26.6900   44.1120 C   0  0  0  0  0  0  0  0  0  0  0  0
   58.1320   26.4250   42.8940 O   0  0  0  0  0  0  0  0  0  0  0  0
   57.6100   25.6180   45.0060 N   0  0  0  0  0  0  0  0  0  0  0  0
   56.4680   24.9960   45.0470 C   0  0  0  0  0  0  0  0  0  0  0  0
   55.5180   25.3200   45.9680 N   0  0  0  0  0  0  0  0  0  0  0  0
   54.3380   24.6950   46.0070 N   0  0  0  0  0  0  0  0  0  0  0  0
   54.0280   23.7080   45.1220 C   0  0  0  0  0  0  0  0  0  0  0  0
   52.7930   23.0560   45.1740 O   0  0  0  0  0  0  0  0  0  0  0  0
   51.5590   23.7260   44.9420 C   0  0  0  0  0  0  0  0  0  0  0  0
   51.0925   23.9793   45.9054 H   0  0  0  0  0  0  0  0  0  0  0  0
   51.7439   24.6476   44.3706 H   0  0  0  0  0  0  0  0  0  0  0  0
   50.8868   23.0690   44.3706 H   0  0  0  0  0  0  0  0  0  0  0  0
   54.9610   23.3440   44.1520 C   0  0  0  0  0  0  0  0  0  0  0  0
   54.7283   22.5502   43.4269 H   0  0  0  0  0  0  0  0  0  0  0  0
   56.1920   23.9970   44.1110 C   0  0  0  0  0  0  0  0  0  0  0  0
   56.9384   23.7281   43.3491 H   0  0  0  0  0  0  0  0  0  0  0  0
  1  2  1  0
  2  3  2  0
  3  4  1  0
  3  5  1  0
  5  6  1  0
  6  7  1  0
  6  8  1  0
  8  9  2  0
  8 10  1  0
 10 11  1  0
 10 12  1  0
 10 13  1  0
 13 14  2  0
 13 15  2  0
 13 16  1  0
 16 17  1  0
 17 18  1  0
 17 19  1  0
 17 20  1  0
 20 21  1  0
 20 22  1  0
 20 23  1  0
 23 24  1  0
 24 25  1  0
 24 26  1  0
 24 27  1  0
 27 28  1  0
 27 29  1  0
  5 30  2  0
 30 31  1  0
 30 32  1  0
 32 33  1  0
 32 34  2  0
 34 35  1  0
 35 36  2  0
 35 37  1  0
 37 38  2  0
 38 39  1  0
 39 40  1  0
 40 41  2  0
 41 42  1  0
 42 43  1  0
 43 44  1  0
 43 45  1  0
 43 46  1  0
 41 47  1  0
 47 48  1  0
 47 49  2  0
 49 50  1  0
 34  2  1  0
 49 38  1  0
 27 16  1  0
M  CHG  1  39  -1
M  END
>  <UniqueID>  (37) 
34

>  <SMILES>  (37) 
COc1cc/c(=N/C(=O)c2ccc(NC(=O)CS(=O)(=O)N3CCOCC3)cc2)[n-]n1

>  <Energy>  (37) 
66.97334547134157

>  <Genealogy>  (37) 
COc1ccc(=NC(=O)c2ccc(NC(=O)CS(=O)(=O)N3CCOCC3)cc2)[n-]n1 (protonated)
COc1cc/c(=N/C(=O)c2ccc(NC(=O)CS(=O)(=O)N3CCOCC3)cc2)[n-]n1 (cis-trans isomerization)
COc1cc/c(=N/C(=O)c2ccc(NC(=O)CS(=O)(=O)N3CCOCC3)cc2)[n-]n1 (3D coordinates assigned)
COc1cc/c(=N/C(=O)c2ccc(NC(=O)CS(=O)(=O)N3CCOCC3)cc2)[n-]n1 (nonaromatic ring conformer: 66.97334547134157 kcal/mol)

>  <smiles>  (37) 
COc1ccc(=NC(=O)c2ccc(NC(=O)CS(=O)(=O)N3CCOCC3)cc2)[nH]n1

>  <score_type>  (37) 
oracle

>  <origin>  (37) 
adg

>  <m_score__min__energy>  (37) 
-10.58

>  <m_primary>  (37) 
energy

$$$$
37:0
     RDKit          3D

 42 44  0  0  0  0  0  0  0  0999 V2000
   56.9890   29.4460   43.3400 C   0  0  0  0  0  0  0  0  0  0  0  0
   57.7370   30.0620   44.4930 C   0  0  0  0  0  0  0  0  0  0  0  0
   58.1610   29.3340   45.6200 C   0  0  0  0  0  0  0  0  0  0  0  0
   57.9120   27.9090   45.9240 C   0  0  0  0  0  0  0  0  0  0  0  0
   56.6390   27.3590   45.7120 C   0  0  0  0  0  0  0  0  0  0  0  0
   56.3970   26.0080   45.9760 C   0  0  0  0  0  0  0  0  0  0  0  0
   57.4320   25.1780   46.4340 C   0  0  0  0  0  0  0  0  0  0  0  0
   57.1820   23.7500   46.7260 C   0  0  0  0  0  0  0  0  0  0  0  0
   57.4210   23.3110   47.8850 O   0  0  0  0  0  0  0  0  0  0  0  0
   56.6930   22.8500   45.7130 N   0  0  0  0  0  0  0  0  0  0  0  0
   55.8190   21.7280   46.0740 C   0  0  0  0  0  0  0  0  0  0  0  0
   56.4600   20.3840   45.6720 C   0  0  0  0  0  0  0  0  0  0  0  0
   57.4010   20.4930   44.5360 N   0  0  0  0  0  0  0  0  0  0  0  0
   57.0590   21.5890   43.6180 C   0  0  0  0  0  0  0  0  0  0  0  0
   57.1960   22.9400   44.3340 C   0  0  0  0  0  0  0  0  0  0  0  0
   58.7070   25.7280   46.6480 C   0  0  0  0  0  0  0  0  0  0  0  0
   58.9470   27.0790   46.3840 C   0  0  0  0  0  0  0  0  0  0  0  0
   59.0350   30.3690   46.6240 S   0  0  0  0  0  0  0  0  0  0  0  0
   58.8120   31.6940   45.6240 C   0  0  0  0  0  0  0  0  0  0  0  0
   59.2740   32.8420   45.8640 O   0  0  0  0  0  0  0  0  0  0  0  0
   58.0800   31.3890   44.5250 N   0  0  0  0  0  0  0  0  0  0  0  0
   57.7580   32.3550   43.4700 C   0  0  0  0  0  0  0  0  0  0  0  0
   56.1940   28.7913   43.7265 H   0  0  0  0  0  0  0  0  0  0  0  0
   56.5424   30.2417   42.7257 H   0  0  0  0  0  0  0  0  0  0  0  0
   57.6843   28.8551   42.7257 H   0  0  0  0  0  0  0  0  0  0  0  0
   55.8251   27.9958   45.3351 H   0  0  0  0  0  0  0  0  0  0  0  0
   55.3897   25.5929   45.8240 H   0  0  0  0  0  0  0  0  0  0  0  0
   55.6511   21.7368   47.1611 H   0  0  0  0  0  0  0  0  0  0  0  0
   54.8644   21.8378   45.5386 H   0  0  0  0  0  0  0  0  0  0  0  0
   57.0069   19.9862   46.5396 H   0  0  0  0  0  0  0  0  0  0  0  0
   55.6434   19.7201   45.3519 H   0  0  0  0  0  0  0  0  0  0  0  0
   57.3950   19.5930   44.0010 H   0  0  0  0  0  0  0  0  0  0  0  0
   58.3720   20.6400   44.9000 H   0  0  0  0  0  0  0  0  0  0  0  0
   57.7389   21.5649   42.7536 H   0  0  0  0  0  0  0  0  0  0  0  0
   56.0194   21.4645   43.2806 H   0  0  0  0  0  0  0  0  0  0  0  0
   58.2563   23.2320   44.3546 H   0  0  0  0  0  0  0  0  0  0  0  0
   56.6043   23.6907   43.7897 H   0  0  0  0  0  0  0  0  0  0  0  0
   59.5209   25.0915   47.0255 H   0  0  0  0  0  0  0  0  0  0  0  0
   59.9536   27.4952   46.5376 H   0  0  0  0  0  0  0  0  0  0  0  0
   57.4415   33.3045   43.9264 H   0  0  0  0  0  0  0  0  0  0  0  0
   58.6475   32.5266   42.8461 H   0  0  0  0  0  0  0  0  0  0  0  0
   56.9434   31.9586   42.8461 H   0  0  0  0  0  0  0  0  0  0  0  0
  1  2  1  0
  2  3  2  0
  3  4  1  0
  4  5  2  0
  5  6  1  0
  6  7  2  0
  7  8  1  0
  8  9  2  0
  8 10  1  0
 10 11  1  0
 11 12  1  0
 12 13  1  0
 13 14  1  0
 14 15  1  0
  7 16  1  0
 16 17  2  0
  3 18  1  0
 18 19  1  0
 19 20  2  0
 19 21  1  0
 21 22  1  0
 21  2  1  0
 17  4  1  0
 15 10  1  0
  1 23  1  0
  1 24  1  0
  1 25  1  0
  5 26  1  0
  6 27  1  0
 11 28  1  0
 11 29  1  0
 12 30  1  0
 12 31  1  0
 13 32  1  0
 13 33  1  0
 14 34  1  0
 14 35  1  0
 15 36  1  0
 15 37  1  0
 16 38  1  0
 17 39  1  0
 22 40  1  0
 22 41  1  0
 22 42  1  0
M  CHG  1  13   1
M  END
>  <UniqueID>  (38) 
35

>  <SMILES>  (38) 
Cc1c(-c2ccc(C(=O)N3CC[NH2+]CC3)cc2)sc(=O)n1C

>  <Energy>  (38) 
88.8741473658412

>  <Genealogy>  (38) 
Cc1c(-c2ccc(C(=O)N3CC[NH2+]CC3)cc2)sc(=O)n1C (protonated)
Cc1c(-c2ccc(C(=O)N3CC[NH2+]CC3)cc2)sc(=O)n1C (3D coordinates assigned)
Cc1c(-c2ccc(C(=O)N3CC[NH2+]CC3)cc2)sc(=O)n1C (nonaromatic ring conformer: 88.8741473658412 kcal/mol)

>  <smiles>  (38) 
Cc1c(-c2ccc(C(=O)N3CCNCC3)cc2)sc(=O)n1C

>  <score_type>  (38) 
oracle

>  <origin>  (38) 
adg

>  <m_score__min__energy>  (38) 
-6.3200000000000003

>  <m_primary>  (38) 
energy

$$$$
38:0
     RDKit          3D

 51 53  0  0  0  0  0  0  0  0999 V2000
   58.3329   29.7943   45.3453 H   0  0  0  0  0  0  0  0  0  0  0  0
   57.8310   28.8590   45.6340 C   0  0  0  0  0  0  0  0  0  0  0  0
   56.5100   28.6110   45.2340 C   0  0  0  0  0  0  0  0  0  0  0  0
   55.7360   29.6450   44.4730 C   0  0  0  0  0  0  0  0  0  0  0  0
   54.6780   29.6038   44.7714 H   0  0  0  0  0  0  0  0  0  0  0  0
   55.8217   29.4460   43.3946 H   0  0  0  0  0  0  0  0  0  0  0  0
   56.2720   30.9690   44.7660 N   0  0  0  0  0  0  0  0  0  0  0  0
   57.2910   31.5930   43.9800 C   0  0  0  0  0  0  0  0  0  0  0  0
   57.2700   31.5070   42.7220 O   0  0  0  0  0  0  0  0  0  0  0  0
   58.3950   32.3440   44.6560 C   0  0  0  0  0  0  0  0  0  0  0  0
   59.0728   32.7582   43.8951 H   0  0  0  0  0  0  0  0  0  0  0  0
   58.9476   31.6577   45.3146 H   0  0  0  0  0  0  0  0  0  0  0  0
   57.8350   33.4480   45.4660 N   0  0  0  0  0  0  0  0  0  0  0  0
   58.5920   34.7040   45.2940 C   0  0  0  0  0  0  0  0  0  0  0  0
   58.0281   35.5238   45.7629 H   0  0  0  0  0  0  0  0  0  0  0  0
   58.7235   34.8722   44.2149 H   0  0  0  0  0  0  0  0  0  0  0  0
   59.9960   34.6360   45.9360 C   0  0  0  0  0  0  0  0  0  0  0  0
   60.2307   35.6158   46.3774 H   0  0  0  0  0  0  0  0  0  0  0  0
   60.7136   34.3679   45.1466 H   0  0  0  0  0  0  0  0  0  0  0  0
   60.0820   33.6050   46.9940 N   0  0  0  0  0  0  0  0  0  0  0  0
   61.2410   33.8520   47.8650 C   0  0  0  0  0  0  0  0  0  0  0  0
   60.9292   33.7856   48.9178 H   0  0  0  0  0  0  0  0  0  0  0  0
   62.0175   33.0992   47.6643 H   0  0  0  0  0  0  0  0  0  0  0  0
   61.6431   34.8560   47.6643 H   0  0  0  0  0  0  0  0  0  0  0  0
   58.8410   33.5570   47.7840 C   0  0  0  0  0  0  0  0  0  0  0  0
   58.6220   34.5600   48.1790 H   0  0  0  0  0  0  0  0  0  0  0  0
   58.9700   32.8478   48.6149 H   0  0  0  0  0  0  0  0  0  0  0  0
   57.6680   33.0900   46.8990 C   0  0  0  0  0  0  0  0  0  0  0  0
   56.7433   33.5561   47.2700 H   0  0  0  0  0  0  0  0  0  0  0  0
   57.6311   31.9922   46.9588 H   0  0  0  0  0  0  0  0  0  0  0  0
   55.8940   27.4590   45.6220 N   0  0  0  0  0  0  0  0  0  0  0  0
   56.5190   26.5100   46.3720 C   0  0  0  0  0  0  0  0  0  0  0  0
   55.8500   25.4400   46.7040 N   0  0  0  0  0  0  0  0  0  0  0  0
   56.3630   24.0730   46.8240 C   0  0  0  0  0  0  0  0  0  0  0  0
   57.3581   24.1010   47.2919 H   0  0  0  0  0  0  0  0  0  0  0  0
   55.6659   23.4877   47.4416 H   0  0  0  0  0  0  0  0  0  0  0  0
   56.4720   23.4220   45.4700 C   0  0  0  0  0  0  0  0  0  0  0  0
   55.6340   23.8350   44.4200 C   0  0  0  0  0  0  0  0  0  0  0  0
   54.9090   24.6457   44.5844 H   0  0  0  0  0  0  0  0  0  0  0  0
   55.7180   23.2200   43.1680 C   0  0  0  0  0  0  0  0  0  0  0  0
   55.0606   23.5492   42.3498 H   0  0  0  0  0  0  0  0  0  0  0  0
   56.6350   22.1880   42.9530 C   0  0  0  0  0  0  0  0  0  0  0  0
   56.6982   21.7044   41.9670 H   0  0  0  0  0  0  0  0  0  0  0  0
   57.4730   21.7700   43.9930 C   0  0  0  0  0  0  0  0  0  0  0  0
   58.1995   20.9620   43.8219 H   0  0  0  0  0  0  0  0  0  0  0  0
   57.3880   22.3780   45.2490 C   0  0  0  0  0  0  0  0  0  0  0  0
   58.0400   22.0386   46.0674 H   0  0  0  0  0  0  0  0  0  0  0  0
   57.8540   26.7270   46.7760 C   0  0  0  0  0  0  0  0  0  0  0  0
   58.3799   25.9732   47.3804 H   0  0  0  0  0  0  0  0  0  0  0  0
   58.5020   27.9070   46.4020 C   0  0  0  0  0  0  0  0  0  0  0  0
   59.5418   28.0855   46.7133 H   0  0  0  0  0  0  0  0  0  0  0  0
  1  2  1  0
  2  3  2  0
  3  4  1  0
  4  5  1  0
  4  6  1  0
  4  7  1  0
  7  8  1  0
  8  9  2  0
  8 10  1  0
 10 11  1  0
 10 12  1  0
 10 13  1  0
 13 14  1  0
 14 15  1  0
 14 16  1  0
 14 17  1  0
 17 18  1  0
 17 19  1  0
 17 20  1  0
 20 21  1  0
 21 22  1  0
 21 23  1  0
 21 24  1  0
 20 25  1  0
 25 26  1  0
 25 27  1  0
 25 28  1  0
 28 29  1  0
 28 30  1  0
  3 31  1  0
 31 32  1  0
 32 33  2  0
 33 34  1  0
 34 35  1  0
 34 36  1  0
 34 37  1  0
 37 38  2  0
 38 39  1  0
 38 40  1  0
 40 41  1  0
 40 42  2  0
 42 43  1  0
 42 44  1  0
 44 45  1  0
 44 46  2  0
 46 47  1  0
 32 48  1  0
 48 49  1  0
 48 50  2  0
 50 51  1  0
 50  2  1  0
 28 13  1  0
 46 37  1  0
M  CHG  2   7  -1  31  -1
M  END
>  <UniqueID>  (39) 
36

>  <SMILES>  (39) 
CN1CCN(CC(=O)[N-]Cc2ccc/c(=N\Cc3ccccc3)[n-]2)CC1

>  <Energy>  (39) 
60.70580722131012

>  <Genealogy>  (39) 
CN1CCN(CC(=O)[N-]Cc2cccc(=NCc3ccccc3)[n-]2)CC1 (protonated)
CN1CCN(CC(=O)[N-]Cc2ccc/c(=N\Cc3ccccc3)[n-]2)CC1 (cis-trans isomerization)
CN1CCN(CC(=O)[N-]Cc2ccc/c(=N\Cc3ccccc3)[n-]2)CC1 (3D coordinates assigned)
CN1CCN(CC(=O)[N-]Cc2ccc/c(=N\Cc3ccccc3)[n-]2)CC1 (nonaromatic ring conformer: 60.70580722131012 kcal/mol)

>  <smiles>  (39) 
CN1CCN(CC(=O)NCc2cccc(=NCc3ccccc3)[nH]2)CC1

>  <score_type>  (39) 
oracle

>  <origin>  (39) 
adg

>  <m_score__min__energy>  (39) 
-12.26

>  <m_primary>  (39) 
energy

$$$$
39:0
     RDKit          3D

 50 52  0  0  0  0  0  0  0  0999 V2000
   57.0811   26.4783   43.9809 H   0  0  0  0  0  0  0  0  0  0  0  0
   57.3560   26.8220   44.9890 C   0  0  0  0  0  0  0  0  0  0  0  0
   56.5250   26.3670   46.1220 C   0  0  0  0  0  0  0  0  0  0  0  0
   57.0690   26.0830   47.2230 O   0  0  0  0  0  0  0  0  0  0  0  0
   55.1090   26.2090   45.9880 N   0  0  0  0  0  0  0  0  0  0  0  0
   54.4500   24.9570   45.6260 C   0  0  0  0  0  0  0  0  0  0  0  0
   53.9585   24.5343   46.5147 H   0  0  0  0  0  0  0  0  0  0  0  0
   53.7023   25.1564   44.8442 H   0  0  0  0  0  0  0  0  0  0  0  0
   55.4620   23.9730   45.1010 C   0  0  0  0  0  0  0  0  0  0  0  0
   55.6030   23.7840   43.7160 C   0  0  0  0  0  0  0  0  0  0  0  0
   54.9434   24.3222   43.0194 H   0  0  0  0  0  0  0  0  0  0  0  0
   56.5790   22.9140   43.2200 C   0  0  0  0  0  0  0  0  0  0  0  0
   56.6839   22.7680   42.1348 H   0  0  0  0  0  0  0  0  0  0  0  0
   57.4210   22.2300   44.1000 C   0  0  0  0  0  0  0  0  0  0  0  0
   58.1889   21.5472   43.7074 H   0  0  0  0  0  0  0  0  0  0  0  0
   57.2880   22.4130   45.4800 C   0  0  0  0  0  0  0  0  0  0  0  0
   58.1090   21.7530   46.3330 F   0  0  0  0  0  0  0  0  0  0  0  0
   56.3120   23.2800   45.9800 C   0  0  0  0  0  0  0  0  0  0  0  0
   56.2088   23.4205   47.0661 H   0  0  0  0  0  0  0  0  0  0  0  0
   58.4220   27.6250   45.1060 C   0  0  0  0  0  0  0  0  0  0  0  0
   59.4165   27.1550   45.1005 H   0  0  0  0  0  0  0  0  0  0  0  0
   58.3610   29.0960   45.2420 C   0  0  0  0  0  0  0  0  0  0  0  0
   57.4730   29.8240   44.4380 C   0  0  0  0  0  0  0  0  0  0  0  0
   56.8565   29.3008   43.6923 H   0  0  0  0  0  0  0  0  0  0  0  0
   57.3660   31.2110   44.5780 C   0  0  0  0  0  0  0  0  0  0  0  0
   56.6758   31.7755   43.9338 H   0  0  0  0  0  0  0  0  0  0  0  0
   58.1350   31.8840   45.5360 C   0  0  0  0  0  0  0  0  0  0  0  0
   57.9670   33.6280   45.7240 S   0  0  0  0  0  0  0  0  0  0  0  0
   57.6640   33.9390   47.1630 O   0  0  0  0  0  0  0  0  0  0  0  0
   56.8280   34.1330   44.8790 O   0  0  0  0  0  0  0  0  0  0  0  0
   59.4360   34.4320   45.2610 N   0  0  0  0  0  0  0  0  0  0  0  0
   59.1770   35.1440   44.5390 H   0  0  0  0  0  0  0  0  0  0  0  0
   60.0010   35.1360   46.4150 C   0  0  0  0  0  0  0  0  0  0  0  0
   60.5407   36.0303   46.0699 H   0  0  0  0  0  0  0  0  0  0  0  0
   59.1888   35.4350   47.0939 H   0  0  0  0  0  0  0  0  0  0  0  0
   60.9520   34.2280   47.1440 C   0  0  0  0  0  0  0  0  0  0  0  0
   60.6120   33.7090   48.4040 C   0  0  0  0  0  0  0  0  0  0  0  0
   59.6586   33.9919   48.8741 H   0  0  0  0  0  0  0  0  0  0  0  0
   61.4810   32.8340   49.0630 C   0  0  0  0  0  0  0  0  0  0  0  0
   61.2151   32.4376   50.0541 H   0  0  0  0  0  0  0  0  0  0  0  0
   62.6870   32.4630   48.4630 C   0  0  0  0  0  0  0  0  0  0  0  0
   63.3712   31.7774   48.9843 H   0  0  0  0  0  0  0  0  0  0  0  0
   63.0260   32.9610   47.2020 C   0  0  0  0  0  0  0  0  0  0  0  0
   63.9741   32.6642   46.7297 H   0  0  0  0  0  0  0  0  0  0  0  0
   62.1590   33.8370   46.5410 C   0  0  0  0  0  0  0  0  0  0  0  0
   62.4233   34.2214   45.5448 H   0  0  0  0  0  0  0  0  0  0  0  0
   58.9970   31.1570   46.3670 C   0  0  0  0  0  0  0  0  0  0  0  0
   59.5907   31.6788   47.1321 H   0  0  0  0  0  0  0  0  0  0  0  0
   59.1050   29.7710   46.2270 C   0  0  0  0  0  0  0  0  0  0  0  0
   59.7752   29.2046   46.8904 H   0  0  0  0  0  0  0  0  0  0  0  0
  1  2  1  0
  2  3  1  0
  3  4  2  0
  3  5  1  0
  5  6  1  0
  6  7  1  0
  6  8  1  0
  6  9  1  0
  9 10  2  0
 10 11  1  0
 10 12  1  0
 12 13  1  0
 12 14  2  0
 14 15  1  0
 14 16  1  0
 16 17  1  0
 16 18  2  0
 18 19  1  0
  2 20  2  0
 20 21  1  0
 20 22  1  0
 22 23  2  0
 23 24  1  0
 23 25  1  0
 25 26  1  0
 25 27  2  0
 27 28  1  0
 28 29  2  0
 28 30  2  0
 28 31  1  0
 31 32  1  0
 31 33  1  0
 33 34  1  0
 33 35  1  0
 33 36  1  0
 36 37  2  0
 37 38  1  0
 37 39  1  0
 39 40  1  0
 39 41  2  0
 41 42  1  0
 41 43  1  0
 43 44  1  0
 43 45  2  0
 45 46  1  0
 27 47  1  0
 47 48  1  0
 47 49  2  0
 49 50  1  0
 18  9  1  0
 49 22  1  0
 45 36  1  0
M  CHG  1   5  -1
M  END
>  <UniqueID>  (40) 
37

>  <SMILES>  (40) 
O=C(/C=C\c1ccc(S(=O)(=O)NCc2ccccc2)cc1)[N-]Cc1cccc(F)c1

>  <Energy>  (40) 
54.070861957955245

>  <Genealogy>  (40) 
O=C(C=Cc1ccc(S(=O)(=O)NCc2ccccc2)cc1)[N-]Cc1cccc(F)c1 (protonated)
O=C(/C=C\c1ccc(S(=O)(=O)NCc2ccccc2)cc1)[N-]Cc1cccc(F)c1 (cis-trans isomerization)
O=C(/C=C\c1ccc(S(=O)(=O)NCc2ccccc2)cc1)[N-]Cc1cccc(F)c1 (3D coordinates assigned)
O=C(/C=C\c1ccc(S(=O)(=O)NCc2ccccc2)cc1)[N-]Cc1cccc(F)c1 (optimized conformer: 54.070861957955245 kcal/mol)

>  <smiles>  (40) 
O=C(C=Cc1ccc(S(=O)(=O)NCc2ccccc2)cc1)NCc1cccc(F)c1

>  <score_type>  (40) 
oracle

>  <origin>  (40) 
adg

>  <m_score__min__energy>  (40) 
-11.6

>  <m_primary>  (40) 
energy

$$$$
40:0
     RDKit          3D

 57 61  0  0  0  0  0  0  0  0999 V2000
   56.9854   21.1523   42.3405 H   0  0  0  0  0  0  0  0  0  0  0  0
   56.9650   21.8460   43.1940 C   0  0  0  0  0  0  0  0  0  0  0  0
   55.8770   22.6320   43.4050 N   0  0  0  0  0  0  0  0  0  0  0  0
   55.8040   23.4920   44.4570 C   0  0  0  0  0  0  0  0  0  0  0  0
   54.9123   24.1220   44.5910 H   0  0  0  0  0  0  0  0  0  0  0  0
   56.8690   23.5760   45.3740 C   0  0  0  0  0  0  0  0  0  0  0  0
   56.8640   24.4450   46.5190 N   0  0  0  0  0  0  0  0  0  0  0  0
   57.3180   25.8040   46.6460 C   0  0  0  0  0  0  0  0  0  0  0  0
   58.4950   26.0600   47.0070 O   0  0  0  0  0  0  0  0  0  0  0  0
   56.4350   26.9030   46.3620 N   0  0  0  0  0  0  0  0  0  0  0  0
   56.6330   27.8610   45.5030 C   0  0  0  0  0  0  0  0  0  0  0  0
   55.6560   28.7680   45.2170 N   0  0  0  0  0  0  0  0  0  0  0  0
   55.8440   29.7740   44.3250 C   0  0  0  0  0  0  0  0  0  0  0  0
   55.0266   30.4784   44.1114 H   0  0  0  0  0  0  0  0  0  0  0  0
   57.0740   29.9160   43.6780 C   0  0  0  0  0  0  0  0  0  0  0  0
   57.3500   31.3130   42.5880 S   0  0  0  0  0  0  0  0  0  0  0  0
   57.9070   32.3390   43.9440 C   0  0  0  0  0  0  0  0  0  0  0  0
   57.9450   31.8910   45.2230 N   0  0  0  0  0  0  0  0  0  0  0  0
   58.4980   32.9180   45.8810 C   0  0  0  0  0  0  0  0  0  0  0  0
   58.8250   32.9950   47.2400 C   0  0  0  0  0  0  0  0  0  0  0  0
   58.7140   31.8290   48.1430 C   0  0  0  0  0  0  0  0  0  0  0  0
   58.7110   32.0110   49.3910 O   0  0  0  0  0  0  0  0  0  0  0  0
   58.6610   30.4950   47.6090 N   0  0  0  0  0  0  0  0  0  0  0  0
   58.7010   30.3500   46.5760 H   0  0  0  0  0  0  0  0  0  0  0  0
   58.6790   29.3010   48.4500 C   0  0  0  0  0  0  0  0  0  0  0  0
   58.2386   29.5403   49.4292 H   0  0  0  0  0  0  0  0  0  0  0  0
   58.0963   28.5083   47.9579 H   0  0  0  0  0  0  0  0  0  0  0  0
   60.1180   28.8110   48.6490 C   0  0  0  0  0  0  0  0  0  0  0  0
   60.2000   28.3262   49.6330 H   0  0  0  0  0  0  0  0  0  0  0  0
   60.3595   28.0983   47.8467 H   0  0  0  0  0  0  0  0  0  0  0  0
   61.0920   29.9560   48.5820 C   0  0  0  0  0  0  0  0  0  0  0  0
   61.5010   30.4660   47.3390 C   0  0  0  0  0  0  0  0  0  0  0  0
   61.1120   30.0238   46.4099 H   0  0  0  0  0  0  0  0  0  0  0  0
   62.4010   31.5340   47.2790 C   0  0  0  0  0  0  0  0  0  0  0  0
   62.7141   31.9331   46.3029 H   0  0  0  0  0  0  0  0  0  0  0  0
   62.9040   32.0960   48.4550 C   0  0  0  0  0  0  0  0  0  0  0  0
   63.6164   32.9326   48.4045 H   0  0  0  0  0  0  0  0  0  0  0  0
   62.5010   31.5940   49.6960 C   0  0  0  0  0  0  0  0  0  0  0  0
   62.9023   32.0316   50.6220 H   0  0  0  0  0  0  0  0  0  0  0  0
   61.5890   30.5370   49.7620 C   0  0  0  0  0  0  0  0  0  0  0  0
   61.2589   30.1583   50.7406 H   0  0  0  0  0  0  0  0  0  0  0  0
   59.3450   34.2240   47.7060 C   0  0  0  0  0  0  0  0  0  0  0  0
   59.5814   34.3463   48.7733 H   0  0  0  0  0  0  0  0  0  0  0  0
   59.5640   35.2980   46.8120 C   0  0  0  0  0  0  0  0  0  0  0  0
   59.9647   36.2502   47.1899 H   0  0  0  0  0  0  0  0  0  0  0  0
   59.2730   35.1570   45.4430 C   0  0  0  0  0  0  0  0  0  0  0  0
   59.4618   35.9764   44.7338 H   0  0  0  0  0  0  0  0  0  0  0  0
   58.7380   33.9450   45.0170 C   0  0  0  0  0  0  0  0  0  0  0  0
   58.3880   33.5970   43.7680 N   0  0  0  0  0  0  0  0  0  0  0  0
   58.0910   28.9930   43.9400 C   0  0  0  0  0  0  0  0  0  0  0  0
   59.0621   29.0829   43.4313 H   0  0  0  0  0  0  0  0  0  0  0  0
   57.8700   27.9560   44.8500 C   0  0  0  0  0  0  0  0  0  0  0  0
   58.6612   27.2192   45.0527 H   0  0  0  0  0  0  0  0  0  0  0  0
   58.0040   22.7870   45.1510 C   0  0  0  0  0  0  0  0  0  0  0  0
   58.8593   22.8519   45.8397 H   0  0  0  0  0  0  0  0  0  0  0  0
   58.0560   21.9190   44.0600 C   0  0  0  0  0  0  0  0  0  0  0  0
   58.9476   21.2990   43.8847 H   0  0  0  0  0  0  0  0  0  0  0  0
  1  2  1  0
  2  3  2  0
  3  4  1  0
  4  5  1  0
  4  6  2  0
  6  7  1  0
  7  8  1  0
  8  9  2  0
  8 10  1  0
 10 11  2  0
 11 12  1  0
 12 13  1  0
 13 14  1  0
 13 15  2  0
 15 16  1  0
 16 17  1  0
 17 18  2  0
 18 19  1  0
 19 20  2  0
 20 21  1  0
 21 22  2  0
 21 23  1  0
 23 24  1  0
 23 25  1  0
 25 26  1  0
 25 27  1  0
 25 28  1  0
 28 29  1  0
 28 30  1  0
 28 31  1  0
 31 32  2  0
 32 33  1  0
 32 34  1  0
 34 35  1  0
 34 36  2  0
 36 37  1  0
 36 38  1  0
 38 39  1  0
 38 40  2  0
 40 41  1  0
 20 42  1  0
 42 43  1  0
 42 44  2  0
 44 45  1  0
 44 46  1  0
 46 47  1  0
 46 48  2  0
 48 49  1  0
 15 50  1  0
 50 51  1  0
 50 52  2  0
 52 53  1  0
  6 54  1  0
 54 55  1  0
 54 56  2  0
 56 57  1  0
 56  2  1  0
 52 11  1  0
 49 17  1  0
 48 19  1  0
 40 31  1  0
M  CHG  3   7  -1  12  -1  49  -1
M  END
>  <UniqueID>  (41) 
38

>  <SMILES>  (41) 
O=C(/N=c1/ccc(Sc2nc3c(C(=O)NCCc4ccccc4)cccc3[n-]2)c[n-]1)[N-]c1cccnc1

>  <Energy>  (41) 
98.42339011450554

>  <Genealogy>  (41) 
O=C(N=c1ccc(Sc2nc3c(C(=O)NCCc4ccccc4)cccc3[n-]2)c[n-]1)[N-]c1cccnc1 (protonated)
O=C(/N=c1/ccc(Sc2nc3c(C(=O)NCCc4ccccc4)cccc3[n-]2)c[n-]1)[N-]c1cccnc1 (cis-trans isomerization)
O=C(/N=c1/ccc(Sc2nc3c(C(=O)NCCc4ccccc4)cccc3[n-]2)c[n-]1)[N-]c1cccnc1 (3D coordinates assigned)
O=C(/N=c1/ccc(Sc2nc3c(C(=O)NCCc4ccccc4)cccc3[n-]2)c[n-]1)[N-]c1cccnc1 (optimized conformer: 98.42339011450554 kcal/mol)

>  <smiles>  (41) 
O=C(N=c1ccc(Sc2nc3c(C(=O)NCCc4ccccc4)cccc3[nH]2)c[nH]1)Nc1cccnc1

>  <score_type>  (41) 
oracle

>  <origin>  (41) 
adg

>  <m_score__min__energy>  (41) 
-14.49

>  <m_primary>  (41) 
energy

$$$$
41:0
     RDKit          3D

 54 56  0  0  0  0  0  0  0  0999 V2000
   58.8310   30.1150   44.1900 C   0  0  0  0  0  0  0  0  0  0  0  0
   57.2940   30.0900   44.3310 C   0  0  0  0  0  0  0  0  0  0  0  0
   56.9200   29.1690   45.5070 C   0  0  0  0  0  0  0  0  0  0  0  0
   56.6910   29.5520   43.0200 C   0  0  0  0  0  0  0  0  0  0  0  0
   56.8120   31.4610   44.5850 N   0  0  0  0  0  0  0  0  0  0  0  0
   57.4410   32.6390   44.0470 C   0  0  0  0  0  0  0  0  0  0  0  0
   57.7530   32.6710   42.8270 O   0  0  0  0  0  0  0  0  0  0  0  0
   57.7970   33.8350   44.9120 C   0  0  0  0  0  0  0  0  0  0  0  0
   57.2360   33.7710   46.3540 C   0  0  0  0  0  0  0  0  0  0  0  0
   58.0780   32.8600   47.2630 C   0  0  0  0  0  0  0  0  0  0  0  0
   59.5200   33.1340   47.1370 N   0  0  0  0  0  0  0  0  0  0  0  0
   60.4980   32.2880   47.7850 C   0  0  0  0  0  0  0  0  0  0  0  0
   61.6960   32.6750   47.8790 O   0  0  0  0  0  0  0  0  0  0  0  0
   60.1500   30.9560   48.3210 C   0  0  0  0  0  0  0  0  0  0  0  0
   60.4060   29.8040   47.6780 N   0  0  0  0  0  0  0  0  0  0  0  0
   59.8410   28.8580   48.4570 C   0  0  0  0  0  0  0  0  0  0  0  0
   59.9440   27.3960   48.1680 C   0  0  0  0  0  0  0  0  0  0  0  0
   60.7810   27.1860   47.0880 F   0  0  0  0  0  0  0  0  0  0  0  0
   58.6890   26.8970   47.8760 F   0  0  0  0  0  0  0  0  0  0  0  0
   60.4530   26.7320   49.2690 F   0  0  0  0  0  0  0  0  0  0  0  0
   59.2480   29.3490   49.5650 N   0  0  0  0  0  0  0  0  0  0  0  0
   59.4370   30.6780   49.4780 C   0  0  0  0  0  0  0  0  0  0  0  0
   58.9740   31.6230   50.5210 C   0  0  0  0  0  0  0  0  0  0  0  0
   57.7930   31.3900   51.2500 C   0  0  0  0  0  0  0  0  0  0  0  0
   57.3620   32.3100   52.2100 C   0  0  0  0  0  0  0  0  0  0  0  0
   58.0980   33.4760   52.4450 C   0  0  0  0  0  0  0  0  0  0  0  0
   59.2610   33.7250   51.7130 C   0  0  0  0  0  0  0  0  0  0  0  0
   59.6950   32.8080   50.7500 C   0  0  0  0  0  0  0  0  0  0  0  0
   59.9550   34.2410   46.2720 C   0  0  0  0  0  0  0  0  0  0  0  0
   59.3350   34.0790   44.8810 C   0  0  0  0  0  0  0  0  0  0  0  0
   59.2908   30.1225   45.1893 H   0  0  0  0  0  0  0  0  0  0  0  0
   59.1633   29.2221   43.6401 H   0  0  0  0  0  0  0  0  0  0  0  0
   59.1341   31.0182   43.6401 H   0  0  0  0  0  0  0  0  0  0  0  0
   57.1289   29.6835   46.4565 H   0  0  0  0  0  0  0  0  0  0  0  0
   55.8498   28.9207   45.4523 H   0  0  0  0  0  0  0  0  0  0  0  0
   57.5141   28.2448   45.4523 H   0  0  0  0  0  0  0  0  0  0  0  0
   55.8887   28.8362   43.2521 H   0  0  0  0  0  0  0  0  0  0  0  0
   56.2789   30.3880   42.4358 H   0  0  0  0  0  0  0  0  0  0  0  0
   57.4748   29.0476   42.4358 H   0  0  0  0  0  0  0  0  0  0  0  0
   56.0160   31.5920   45.2470 H   0  0  0  0  0  0  0  0  0  0  0  0
   57.2910   34.7058   44.4696 H   0  0  0  0  0  0  0  0  0  0  0  0
   57.2297   34.7862   46.7774 H   0  0  0  0  0  0  0  0  0  0  0  0
   56.2198   33.3529   46.3036 H   0  0  0  0  0  0  0  0  0  0  0  0
   57.7755   33.0237   48.3078 H   0  0  0  0  0  0  0  0  0  0  0  0
   57.9024   31.8184   46.9560 H   0  0  0  0  0  0  0  0  0  0  0  0
   57.2058   30.4788   51.0633 H   0  0  0  0  0  0  0  0  0  0  0  0
   56.4423   32.1167   52.7817 H   0  0  0  0  0  0  0  0  0  0  0  0
   57.7612   34.1959   53.2054 H   0  0  0  0  0  0  0  0  0  0  0  0
   59.8371   34.6444   51.8942 H   0  0  0  0  0  0  0  0  0  0  0  0
   60.6055   33.0152   50.1686 H   0  0  0  0  0  0  0  0  0  0  0  0
   59.6298   35.1967   46.7089 H   0  0  0  0  0  0  0  0  0  0  0  0
   61.0517   34.2296   46.1872 H   0  0  0  0  0  0  0  0  0  0  0  0
   59.5309   34.9945   44.3035 H   0  0  0  0  0  0  0  0  0  0  0  0
   59.7948   33.1909   44.4228 H   0  0  0  0  0  0  0  0  0  0  0  0
  1  2  1  0
  2  3  1  0
  2  4  1  0
  2  5  1  0
  5  6  1  0
  6  7  2  0
  6  8  1  0
  8  9  1  0
  9 10  1  0
 10 11  1  0
 11 12  1  0
 12 13  2  0
 12 14  1  0
 14 15  1  0
 15 16  1  0
 16 17  1  0
 17 18  1  0
 17 19  1  0
 17 20  1  0
 16 21  2  0
 21 22  1  0
 22 23  1  0
 23 24  2  0
 24 25  1  0
 25 26  2  0
 26 27  1  0
 27 28  2  0
 11 29  1  0
 29 30  1  0
 30  8  1  0
 22 14  2  0
 28 23  1  0
  1 31  1  0
  1 32  1  0
  1 33  1  0
  3 34  1  0
  3 35  1  0
  3 36  1  0
  4 37  1  0
  4 38  1  0
  4 39  1  0
  5 40  1  0
  8 41  1  0
  9 42  1  0
  9 43  1  0
 10 44  1  0
 10 45  1  0
 24 46  1  0
 25 47  1  0
 26 48  1  0
 27 49  1  0
 28 50  1  0
 29 51  1  0
 29 52  1  0
 30 53  1  0
 30 54  1  0
M  CHG  1  15  -1
M  END
>  <UniqueID>  (42) 
39

>  <SMILES>  (42) 
CC(C)(C)NC(=O)C1CCN(C(=O)c2[n-]c(C(F)(F)F)nc2-c2ccccc2)CC1

>  <Energy>  (42) 
89.82572567420402

>  <Genealogy>  (42) 
CC(C)(C)NC(=O)C1CCN(C(=O)c2[n-]c(C(F)(F)F)nc2-c2ccccc2)CC1 (protonated)
CC(C)(C)NC(=O)C1CCN(C(=O)c2[n-]c(C(F)(F)F)nc2-c2ccccc2)CC1 (3D coordinates assigned)
CC(C)(C)NC(=O)C1CCN(C(=O)c2[n-]c(C(F)(F)F)nc2-c2ccccc2)CC1 (nonaromatic ring conformer: 89.82572567420402 kcal/mol)

>  <smiles>  (42) 
CC(C)(C)NC(=O)C1CCN(C(=O)c2[nH]c(C(F)(F)F)nc2-c2ccccc2)CC1

>  <score_type>  (42) 
oracle

>  <origin>  (42) 
adg

>  <m_score__min__energy>  (42) 
-9.4199999999999999

>  <m_primary>  (42) 
energy

$$$$
42:0
     RDKit          3D

 27 28  0  0  0  0  0  0  0  0999 V2000
   56.5063   28.7766   46.4202 H   0  0  0  0  0  0  0  0  0  0  0  0
   57.1330   28.6440   45.5260 C   0  0  0  0  0  0  0  0  0  0  0  0
   57.6620   27.4300   45.3170 C   0  0  0  0  0  0  0  0  0  0  0  0
   58.5221   27.3629   44.6345 H   0  0  0  0  0  0  0  0  0  0  0  0
   57.1810   26.1750   45.9310 C   0  0  0  0  0  0  0  0  0  0  0  0
   55.8770   25.8860   46.2630 C   0  0  0  0  0  0  0  0  0  0  0  0
   54.7780   26.6970   46.0090 O   0  0  0  0  0  0  0  0  0  0  0  0
   55.7990   24.6920   46.8810 N   0  0  0  0  0  0  0  0  0  0  0  0
   57.0870   24.2910   46.9220 C   0  0  0  0  0  0  0  0  0  0  0  0
   57.4490   23.2040   47.4440 O   0  0  0  0  0  0  0  0  0  0  0  0
   57.9530   25.1630   46.3670 N   0  0  0  0  0  0  0  0  0  0  0  0
   58.9940   25.0800   46.3340 H   0  0  0  0  0  0  0  0  0  0  0  0
   57.3260   29.8200   44.6480 C   0  0  0  0  0  0  0  0  0  0  0  0
   56.8440   29.8120   43.3270 C   0  0  0  0  0  0  0  0  0  0  0  0
   56.3426   28.9152   42.9342 H   0  0  0  0  0  0  0  0  0  0  0  0
   56.9970   30.9330   42.5110 C   0  0  0  0  0  0  0  0  0  0  0  0
   56.6291   30.9124   41.4745 H   0  0  0  0  0  0  0  0  0  0  0  0
   57.6160   32.0800   43.0080 C   0  0  0  0  0  0  0  0  0  0  0  0
   57.7419   32.9605   42.3608 H   0  0  0  0  0  0  0  0  0  0  0  0
   58.0760   32.1120   44.3260 C   0  0  0  0  0  0  0  0  0  0  0  0
   58.5560   33.0223   44.7147 H   0  0  0  0  0  0  0  0  0  0  0  0
   57.9300   30.9870   45.1620 C   0  0  0  0  0  0  0  0  0  0  0  0
   58.3780   30.9890   46.4930 O   0  0  0  0  0  0  0  0  0  0  0  0
   59.7120   30.6990   46.8970 C   0  0  0  0  0  0  0  0  0  0  0  0
   59.7680   30.6868   47.9955 H   0  0  0  0  0  0  0  0  0  0  0  0
   60.0086   29.7154   46.5038 H   0  0  0  0  0  0  0  0  0  0  0  0
   60.3902   31.4707   46.5038 H   0  0  0  0  0  0  0  0  0  0  0  0
  1  2  1  0
  2  3  2  0
  3  4  1  0
  3  5  1  0
  5  6  2  0
  6  7  1  0
  6  8  1  0
  8  9  1  0
  9 10  2  0
  9 11  1  0
 11 12  1  0
  2 13  1  0
 13 14  2  0
 14 15  1  0
 14 16  1  0
 16 17  1  0
 16 18  2  0
 18 19  1  0
 18 20  1  0
 20 21  1  0
 20 22  2  0
 22 23  1  0
 23 24  1  0
 24 25  1  0
 24 26  1  0
 24 27  1  0
 11  5  1  0
 22 13  1  0
M  CHG  2   7  -1   8  -1
M  END
>  <UniqueID>  (43) 
40

>  <SMILES>  (43) 
COc1ccccc1/C=C\c1[nH]c(=O)[n-]c1[O-]

>  <Energy>  (43) 
66.23074241457772

>  <Genealogy>  (43) 
COc1ccccc1C=Cc1[nH]c(=O)[n-]c1[O-] (protonated)
COc1ccccc1/C=C\c1[nH]c(=O)[n-]c1[O-] (cis-trans isomerization)
COc1ccccc1/C=C\c1[nH]c(=O)[n-]c1[O-] (3D coordinates assigned)
COc1ccccc1/C=C\c1[nH]c(=O)[n-]c1[O-] (optimized conformer: 66.23074241457772 kcal/mol)

>  <smiles>  (43) 
COc1ccccc1C=Cc1[nH]c(=O)[nH]c1O

>  <score_type>  (43) 
oracle

>  <origin>  (43) 
adg

>  <m_score__min__energy>  (43) 
-12.65

>  <m_primary>  (43) 
energy

$$$$
43:0
     RDKit          3D

 47 49  0  0  0  0  0  0  0  0999 V2000
   60.3070   26.8060   47.2560 C   0  0  0  0  0  0  0  0  0  0  0  0
   59.4470   27.0830   46.0230 C   0  0  0  0  0  0  0  0  0  0  0  0
   59.8680   28.3690   45.2940 C   0  0  0  0  0  0  0  0  0  0  0  0
   58.7090   29.3070   45.0920 C   0  0  0  0  0  0  0  0  0  0  0  0
   57.3940   28.8280   45.0790 C   0  0  0  0  0  0  0  0  0  0  0  0
   56.3560   29.7340   44.8610 C   0  0  0  0  0  0  0  0  0  0  0  0
   55.1630   29.3380   44.8540 O   0  0  0  0  0  0  0  0  0  0  0  0
   56.6350   31.0460   44.6610 N   0  0  0  0  0  0  0  0  0  0  0  0
   57.9160   31.4990   44.6750 C   0  0  0  0  0  0  0  0  0  0  0  0
   58.2610   33.2290   44.3720 S   0  0  0  0  0  0  0  0  0  0  0  0
   57.3190   33.8600   45.8110 C   0  0  0  0  0  0  0  0  0  0  0  0
   58.1030   33.7000   47.0860 C   0  0  0  0  0  0  0  0  0  0  0  0
   57.7810   32.7770   47.8810 O   0  0  0  0  0  0  0  0  0  0  0  0
   59.2630   34.4860   47.3960 N   0  0  0  0  0  0  0  0  0  0  0  0
   60.6470   34.1020   47.4640 C   0  0  0  0  0  0  0  0  0  0  0  0
   61.4940   34.1690   46.3420 C   0  0  0  0  0  0  0  0  0  0  0  0
   62.8480   33.8380   46.4550 C   0  0  0  0  0  0  0  0  0  0  0  0
   63.3760   33.4550   47.6900 C   0  0  0  0  0  0  0  0  0  0  0  0
   62.5550   33.4200   48.8170 C   0  0  0  0  0  0  0  0  0  0  0  0
   61.1990   33.7550   48.7140 C   0  0  0  0  0  0  0  0  0  0  0  0
   60.1920   33.7400   50.2030 S   0  0  0  0  0  0  0  0  0  0  0  0
   59.6930   32.0300   49.9660 C   0  0  0  0  0  0  0  0  0  0  0  0
   60.2320   31.2840   48.9080 C   0  0  0  0  0  0  0  0  0  0  0  0
   59.8390   29.9530   48.7130 C   0  0  0  0  0  0  0  0  0  0  0  0
   58.9070   29.3660   49.5760 C   0  0  0  0  0  0  0  0  0  0  0  0
   58.3730   30.1080   50.6370 C   0  0  0  0  0  0  0  0  0  0  0  0
   58.7670   31.4360   50.8370 C   0  0  0  0  0  0  0  0  0  0  0  0
   58.9420   30.6310   44.8810 N   0  0  0  0  0  0  0  0  0  0  0  0
   59.7170   26.9960   48.1648 H   0  0  0  0  0  0  0  0  0  0  0  0
   60.6361   25.7564   47.2453 H   0  0  0  0  0  0  0  0  0  0  0  0
   61.1868   27.4662   47.2453 H   0  0  0  0  0  0  0  0  0  0  0  0
   59.5417   26.2355   45.3282 H   0  0  0  0  0  0  0  0  0  0  0  0
   58.4080   27.2125   46.3601 H   0  0  0  0  0  0  0  0  0  0  0  0
   60.6384   28.8795   45.8905 H   0  0  0  0  0  0  0  0  0  0  0  0
   60.2541   28.0873   44.3032 H   0  0  0  0  0  0  0  0  0  0  0  0
   57.1835   27.7600   45.2373 H   0  0  0  0  0  0  0  0  0  0  0  0
   57.0990   34.9266   45.6563 H   0  0  0  0  0  0  0  0  0  0  0  0
   56.3877   33.2812   45.8992 H   0  0  0  0  0  0  0  0  0  0  0  0
   61.0881   34.4839   45.3693 H   0  0  0  0  0  0  0  0  0  0  0  0
   63.4987   33.8794   45.5691 H   0  0  0  0  0  0  0  0  0  0  0  0
   64.4381   33.1813   47.7738 H   0  0  0  0  0  0  0  0  0  0  0  0
   62.9744   33.1280   49.7911 H   0  0  0  0  0  0  0  0  0  0  0  0
   60.9651   31.7447   48.2295 H   0  0  0  0  0  0  0  0  0  0  0  0
   60.2629   29.3701   47.8820 H   0  0  0  0  0  0  0  0  0  0  0  0
   58.5941   28.3229   49.4213 H   0  0  0  0  0  0  0  0  0  0  0  0
   57.6413   29.6454   51.3156 H   0  0  0  0  0  0  0  0  0  0  0  0
   58.3513   32.0134   51.6759 H   0  0  0  0  0  0  0  0  0  0  0  0
  1  2  1  0
  2  3  1  0
  3  4  1  0
  4  5  2  0
  5  6  1  0
  6  7  2  0
  6  8  1  0
  8  9  1  0
  9 10  1  0
 10 11  1  0
 11 12  1  0
 12 13  2  0
 12 14  1  0
 14 15  1  0
 15 16  2  0
 16 17  1  0
 17 18  2  0
 18 19  1  0
 19 20  2  0
 20 21  1  0
 21 22  1  0
 22 23  2  0
 23 24  1  0
 24 25  2  0
 25 26  1  0
 26 27  2  0
  9 28  2  0
 28  4  1  0
 20 15  1  0
 27 22  1  0
  1 29  1  0
  1 30  1  0
  1 31  1  0
  2 32  1  0
  2 33  1  0
  3 34  1  0
  3 35  1  0
  5 36  1  0
 11 37  1  0
 11 38  1  0
 16 39  1  0
 17 40  1  0
 18 41  1  0
 19 42  1  0
 23 43  1  0
 24 44  1  0
 25 45  1  0
 26 46  1  0
 27 47  1  0
M  CHG  2   8  -1  14  -1
M  END
>  <UniqueID>  (44) 
41

>  <SMILES>  (44) 
CCCc1cc(=O)[n-]c(SCC(=O)[N-]c2ccccc2Sc2ccccc2)n1

>  <Energy>  (44) 
43.185481161271596

>  <Genealogy>  (44) 
CCCc1cc(=O)[n-]c(SCC(=O)[N-]c2ccccc2Sc2ccccc2)n1 (protonated)
CCCc1cc(=O)[n-]c(SCC(=O)[N-]c2ccccc2Sc2ccccc2)n1 (3D coordinates assigned)
CCCc1cc(=O)[n-]c(SCC(=O)[N-]c2ccccc2Sc2ccccc2)n1 (optimized conformer: 43.185481161271596 kcal/mol)

>  <smiles>  (44) 
CCCc1cc(=O)[nH]c(SCC(=O)Nc2ccccc2Sc2ccccc2)n1

>  <score_type>  (44) 
oracle

>  <origin>  (44) 
adg

>  <m_score__min__energy>  (44) 
-12.33

>  <m_primary>  (44) 
energy

$$$$
44:0
     RDKit          3D

 44 47  0  0  0  0  0  0  0  0999 V2000
   63.2480   32.7420   48.1520 C   0  0  0  0  0  0  0  0  0  0  0  0
   61.9060   32.8660   47.4900 C   0  0  0  0  0  0  0  0  0  0  0  0
   61.6620   33.8940   46.5670 C   0  0  0  0  0  0  0  0  0  0  0  0
   60.4000   34.0310   45.9790 C   0  0  0  0  0  0  0  0  0  0  0  0
   59.3660   33.1490   46.3190 C   0  0  0  0  0  0  0  0  0  0  0  0
   57.7760   33.3380   45.5880 S   0  0  0  0  0  0  0  0  0  0  0  0
   57.6630   34.6710   44.9040 O   0  0  0  0  0  0  0  0  0  0  0  0
   56.7280   33.2530   46.6600 O   0  0  0  0  0  0  0  0  0  0  0  0
   57.5050   32.0790   44.4250 N   0  0  0  0  0  0  0  0  0  0  0  0
   57.5050   30.6730   44.7160 C   0  0  0  0  0  0  0  0  0  0  0  0
   58.6840   29.9670   44.9980 C   0  0  0  0  0  0  0  0  0  0  0  0
   58.6180   28.5940   45.2540 C   0  0  0  0  0  0  0  0  0  0  0  0
   59.7590   27.8380   45.5480 C   0  0  0  0  0  0  0  0  0  0  0  0
   59.6460   26.5020   45.7710 N   0  0  0  0  0  0  0  0  0  0  0  0
   58.4440   25.8580   45.7180 C   0  0  0  0  0  0  0  0  0  0  0  0
   58.3580   24.4730   45.9070 O   0  0  0  0  0  0  0  0  0  0  0  0
   57.8800   23.5620   44.9560 C   0  0  0  0  0  0  0  0  0  0  0  0
   56.7140   23.8110   44.2070 C   0  0  0  0  0  0  0  0  0  0  0  0
   56.2860   22.8900   43.2450 C   0  0  0  0  0  0  0  0  0  0  0  0
   57.0170   21.7200   43.0210 C   0  0  0  0  0  0  0  0  0  0  0  0
   58.1810   21.4720   43.7560 C   0  0  0  0  0  0  0  0  0  0  0  0
   58.6140   22.3930   44.7150 C   0  0  0  0  0  0  0  0  0  0  0  0
   57.2800   26.5810   45.4310 C   0  0  0  0  0  0  0  0  0  0  0  0
   57.3640   27.9570   45.2080 C   0  0  0  0  0  0  0  0  0  0  0  0
   56.2650   28.6600   44.9520 O   0  0  0  0  0  0  0  0  0  0  0  0
   56.2890   29.9700   44.7170 C   0  0  0  0  0  0  0  0  0  0  0  0
   55.2090   30.5750   44.4890 O   0  0  0  0  0  0  0  0  0  0  0  0
   59.6040   32.1280   47.2500 C   0  0  0  0  0  0  0  0  0  0  0  0
   60.8650   31.9920   47.8390 C   0  0  0  0  0  0  0  0  0  0  0  0
   63.1204   32.7538   49.2445 H   0  0  0  0  0  0  0  0  0  0  0  0
   63.7207   31.7964   47.8482 H   0  0  0  0  0  0  0  0  0  0  0  0
   63.8860   33.5850   47.8482 H   0  0  0  0  0  0  0  0  0  0  0  0
   62.4671   34.5959   46.3043 H   0  0  0  0  0  0  0  0  0  0  0  0
   60.2192   34.8330   45.2481 H   0  0  0  0  0  0  0  0  0  0  0  0
   59.6520   30.4891   45.0176 H   0  0  0  0  0  0  0  0  0  0  0  0
   60.7445   28.3240   45.5984 H   0  0  0  0  0  0  0  0  0  0  0  0
   56.1381   24.7323   44.3788 H   0  0  0  0  0  0  0  0  0  0  0  0
   55.3729   23.0869   42.6641 H   0  0  0  0  0  0  0  0  0  0  0  0
   56.6772   20.9946   42.2671 H   0  0  0  0  0  0  0  0  0  0  0  0
   58.7565   20.5513   43.5794 H   0  0  0  0  0  0  0  0  0  0  0  0
   59.5357   22.1988   45.2832 H   0  0  0  0  0  0  0  0  0  0  0  0
   56.3074   26.0695   45.3816 H   0  0  0  0  0  0  0  0  0  0  0  0
   58.7959   31.4315   47.5181 H   0  0  0  0  0  0  0  0  0  0  0  0
   61.0416   31.1971   48.5785 H   0  0  0  0  0  0  0  0  0  0  0  0
  1  2  1  0
  2  3  2  0
  3  4  1  0
  4  5  2  0
  5  6  1  0
  6  7  2  0
  6  8  2  0
  6  9  1  0
  9 10  1  0
 10 11  2  0
 11 12  1  0
 12 13  2  0
 13 14  1  0
 14 15  2  0
 15 16  1  0
 16 17  1  0
 17 18  2  0
 18 19  1  0
 19 20  2  0
 20 21  1  0
 21 22  2  0
 15 23  1  0
 23 24  2  0
 24 25  1  0
 25 26  1  0
 26 27  2  0
  5 28  1  0
 28 29  2  0
 29  2  1  0
 26 10  1  0
 24 12  1  0
 22 17  1  0
  1 30  1  0
  1 31  1  0
  1 32  1  0
  3 33  1  0
  4 34  1  0
 11 35  1  0
 13 36  1  0
 18 37  1  0
 19 38  1  0
 20 39  1  0
 21 40  1  0
 22 41  1  0
 23 42  1  0
 28 43  1  0
 29 44  1  0
M  CHG  1   9  -1
M  END
>  <UniqueID>  (45) 
42

>  <SMILES>  (45) 
Cc1ccc(S(=O)(=O)[N-]c2cc3cnc(Oc4ccccc4)cc3oc2=O)cc1

>  <Energy>  (45) 
61.166244273694325

>  <Genealogy>  (45) 
Cc1ccc(S(=O)(=O)[N-]c2cc3cnc(Oc4ccccc4)cc3oc2=O)cc1 (protonated)
Cc1ccc(S(=O)(=O)[N-]c2cc3cnc(Oc4ccccc4)cc3oc2=O)cc1 (3D coordinates assigned)
Cc1ccc(S(=O)(=O)[N-]c2cc3cnc(Oc4ccccc4)cc3oc2=O)cc1 (optimized conformer: 61.166244273694325 kcal/mol)

>  <smiles>  (45) 
Cc1ccc(S(=O)(=O)Nc2cc3cnc(Oc4ccccc4)cc3oc2=O)cc1

>  <score_type>  (45) 
oracle

>  <origin>  (45) 
adg

>  <m_score__min__energy>  (45) 
-10.369999999999999

>  <m_primary>  (45) 
energy

$$$$
45:0
     RDKit          3D

 25 26  0  0  0  0  0  0  0  0999 V2000
   58.9415   31.6218   48.1517 H   0  0  0  0  0  0  0  0  0  0  0  0
   58.6700   32.1360   47.2180 C   0  0  0  0  0  0  0  0  0  0  0  0
   57.7690   31.5730   46.3700 N   0  0  0  0  0  0  0  0  0  0  0  0
   57.3980   32.1670   45.2030 C   0  0  0  0  0  0  0  0  0  0  0  0
   56.5320   31.5560   44.4450 N   0  0  0  0  0  0  0  0  0  0  0  0
   56.4090   29.8420   44.1870 S   0  0  0  0  0  0  0  0  0  0  0  0
   55.1500   29.3390   44.8340 O   0  0  0  0  0  0  0  0  0  0  0  0
   56.3410   29.5690   42.7090 O   0  0  0  0  0  0  0  0  0  0  0  0
   57.7860   29.0150   44.9090 C   0  0  0  0  0  0  0  0  0  0  0  0
   57.5810   28.0560   45.9120 C   0  0  0  0  0  0  0  0  0  0  0  0
   56.5592   27.8178   46.2424 H   0  0  0  0  0  0  0  0  0  0  0  0
   58.6720   27.4020   46.4930 C   0  0  0  0  0  0  0  0  0  0  0  0
   58.5076   26.6520   47.2807 H   0  0  0  0  0  0  0  0  0  0  0  0
   59.9720   27.7010   46.0730 C   0  0  0  0  0  0  0  0  0  0  0  0
   61.0280   27.0670   46.6380 F   0  0  0  0  0  0  0  0  0  0  0  0
   60.1810   28.6520   45.0710 C   0  0  0  0  0  0  0  0  0  0  0  0
   61.2037   28.8854   44.7399 H   0  0  0  0  0  0  0  0  0  0  0  0
   59.0910   29.3080   44.4880 C   0  0  0  0  0  0  0  0  0  0  0  0
   59.2583   30.0549   43.6980 H   0  0  0  0  0  0  0  0  0  0  0  0
   57.9640   33.4110   44.8580 C   0  0  0  0  0  0  0  0  0  0  0  0
   57.6769   33.9105   43.9209 H   0  0  0  0  0  0  0  0  0  0  0  0
   58.8930   34.0040   45.7170 C   0  0  0  0  0  0  0  0  0  0  0  0
   59.3421   34.9738   45.4566 H   0  0  0  0  0  0  0  0  0  0  0  0
   59.2510   33.3660   46.9050 C   0  0  0  0  0  0  0  0  0  0  0  0
   60.4150   34.1000   47.9910 Cl  0  0  0  0  0  0  0  0  0  0  0  0
  1  2  1  0
  2  3  1  0
  3  4  1  0
  4  5  2  0
  5  6  1  0
  6  7  2  0
  6  8  2  0
  6  9  1  0
  9 10  2  0
 10 11  1  0
 10 12  1  0
 12 13  1  0
 12 14  2  0
 14 15  1  0
 14 16  1  0
 16 17  1  0
 16 18  2  0
 18 19  1  0
  4 20  1  0
 20 21  1  0
 20 22  2  0
 22 23  1  0
 22 24  1  0
 24 25  1  0
 24  2  2  0
 18  9  1  0
M  CHG  1   3  -1
M  END
>  <UniqueID>  (46) 
43

>  <SMILES>  (46) 
O=S(=O)(/N=c1\ccc(Cl)c[n-]1)c1ccc(F)cc1

>  <Energy>  (46) 
31.82300922678792

>  <Genealogy>  (46) 
O=S(=O)(N=c1ccc(Cl)c[n-]1)c1ccc(F)cc1 (protonated)
O=S(=O)(/N=c1\ccc(Cl)c[n-]1)c1ccc(F)cc1 (cis-trans isomerization)
O=S(=O)(/N=c1\ccc(Cl)c[n-]1)c1ccc(F)cc1 (3D coordinates assigned)
O=S(=O)(/N=c1\ccc(Cl)c[n-]1)c1ccc(F)cc1 (optimized conformer: 31.82300922678792 kcal/mol)

>  <smiles>  (46) 
O=S(=O)(N=c1ccc(Cl)c[nH]1)c1ccc(F)cc1

>  <score_type>  (46) 
oracle

>  <origin>  (46) 
adg

>  <m_score__min__energy>  (46) 
-8.4800000000000004

>  <m_primary>  (46) 
energy

$$$$
46:0
     RDKit          3D

 48 51  0  0  0  0  0  0  0  0999 V2000
   58.1987   27.5916   48.4670 H   0  0  0  0  0  0  0  0  0  0  0  0
   59.1130   27.4730   47.8670 C   0  0  0  0  0  0  0  0  0  0  0  0
   60.2430   28.0750   48.2670 C   0  0  0  0  0  0  0  0  0  0  0  0
   61.1285   27.4537   48.4666 H   0  0  0  0  0  0  0  0  0  0  0  0
   60.3510   29.5700   48.4550 C   0  0  0  0  0  0  0  0  0  0  0  0
   59.3536   29.9544   48.7148 H   0  0  0  0  0  0  0  0  0  0  0  0
   61.0988   29.7277   49.2461 H   0  0  0  0  0  0  0  0  0  0  0  0
   60.8400   30.3200   47.2630 N   0  0  1  0  0  0  0  0  0  0  0  0
   61.8770   30.1720   47.2990 H   0  0  0  0  0  0  0  0  0  0  0  0
   60.4260   29.7210   45.9710 C   0  0  0  0  0  0  0  0  0  0  0  0
   61.0689   30.1303   45.1778 H   0  0  0  0  0  0  0  0  0  0  0  0
   60.5282   28.6309   46.0774 H   0  0  0  0  0  0  0  0  0  0  0  0
   58.9610   29.9970   45.5970 C   0  0  0  0  0  0  0  0  0  0  0  0
   58.8209   29.7708   44.5297 H   0  0  0  0  0  0  0  0  0  0  0  0
   58.3284   29.3596   46.2323 H   0  0  0  0  0  0  0  0  0  0  0  0
   58.5630   31.4240   45.8430 C   0  0  0  0  0  0  0  0  0  0  0  0
   57.3870   31.9370   45.2610 C   0  0  0  0  0  0  0  0  0  0  0  0
   56.5360   31.1070   44.5390 O   0  0  0  0  0  0  0  0  0  0  0  0
   57.0710   33.2920   45.3940 C   0  0  0  0  0  0  0  0  0  0  0  0
   56.1358   33.6808   44.9649 H   0  0  0  0  0  0  0  0  0  0  0  0
   57.9370   34.1540   46.0690 C   0  0  0  0  0  0  0  0  0  0  0  0
   57.7030   35.2266   46.1389 H   0  0  0  0  0  0  0  0  0  0  0  0
   59.1040   33.6510   46.6570 C   0  0  0  0  0  0  0  0  0  0  0  0
   59.3690   32.2720   46.6250 C   0  0  0  0  0  0  0  0  0  0  0  0
   60.6110   31.7920   47.3480 C   0  0  2  0  0  0  0  0  0  0  0  0
   60.4774   31.9580   48.4272 H   0  0  0  0  0  0  0  0  0  0  0  0
   61.8090   32.6210   46.8260 C   0  0  0  0  0  0  0  0  0  0  0  0
   62.6941   32.3807   47.4333 H   0  0  0  0  0  0  0  0  0  0  0  0
   61.9573   32.3593   45.7679 H   0  0  0  0  0  0  0  0  0  0  0  0
   61.5570   34.1570   46.8990 C   0  0  0  0  0  0  0  0  0  0  0  0
   62.2502   34.5822   47.6397 H   0  0  0  0  0  0  0  0  0  0  0  0
   61.7156   34.5444   45.8818 H   0  0  0  0  0  0  0  0  0  0  0  0
   60.1170   34.5630   47.2990 C   0  0  0  0  0  0  0  0  0  0  0  0
   60.0158   34.5008   48.3926 H   0  0  0  0  0  0  0  0  0  0  0  0
   59.9329   35.5912   46.9543 H   0  0  0  0  0  0  0  0  0  0  0  0
   59.0690   26.6400   46.6170 C   0  0  0  0  0  0  0  0  0  0  0  0
   59.8461   25.8635   46.6733 H   0  0  0  0  0  0  0  0  0  0  0  0
   59.2445   27.2942   45.7503 H   0  0  0  0  0  0  0  0  0  0  0  0
   57.7540   25.9970   46.4650 N   0  0  0  0  0  0  0  0  0  0  0  0
   57.6620   24.6410   46.6140 C   0  0  0  0  0  0  0  0  0  0  0  0
   58.5619   24.0580   46.8595 H   0  0  0  0  0  0  0  0  0  0  0  0
   56.4400   23.9900   46.4580 C   0  0  0  0  0  0  0  0  0  0  0  0
   56.3635   22.8996   46.5808 H   0  0  0  0  0  0  0  0  0  0  0  0
   55.3180   24.7520   46.1430 C   0  0  0  0  0  0  0  0  0  0  0  0
   54.1970   24.1980   45.9940 O   0  0  0  0  0  0  0  0  0  0  0  0
   55.4350   26.0950   45.9930 N   0  0  0  0  0  0  0  0  0  0  0  0
   56.6310   26.7210   46.1460 C   0  0  0  0  0  0  0  0  0  0  0  0
   56.6890   27.9700   45.9900 O   0  0  0  0  0  0  0  0  0  0  0  0
  1  2  1  0
  2  3  2  0
  3  4  1  0
  3  5  1  0
  5  6  1  0
  5  7  1  0
  5  8  1  0
  8  9  1  6
  8 10  1  0
 10 11  1  0
 10 12  1  0
 10 13  1  0
 13 14  1  0
 13 15  1  0
 13 16  1  0
 16 17  2  0
 17 18  1  0
 17 19  1  0
 19 20  1  0
 19 21  2  0
 21 22  1  0
 21 23  1  0
 23 24  2  0
 24 25  1  0
 25 26  1  1
 25 27  1  0
 27 28  1  0
 27 29  1  0
 27 30  1  0
 30 31  1  0
 30 32  1  0
 30 33  1  0
 33 34  1  0
 33 35  1  0
  2 36  1  0
 36 37  1  0
 36 38  1  0
 36 39  1  0
 39 40  1  0
 40 41  1  0
 40 42  2  0
 42 43  1  0
 42 44  1  0
 44 45  2  0
 44 46  1  0
 46 47  1  0
 47 48  2  0
 25  8  1  0
 47 39  1  0
 24 16  1  0
 33 23  1  0
M  CHG  3   8   1  18  -1  46  -1
M  END
>  <UniqueID>  (47) 
44

>  <SMILES>  (47) 
O=c1ccn(C/C=C/C[N@H+]2CCc3c([O-])ccc4c3[C@@H]2CCC4)c(=O)[n-]1

>  <Energy>  (47) 
70.89823311669653

>  <Genealogy>  (47) 
O=c1ccn(CC=CC[NH+]2CCc3c([O-])ccc4c3C2CCC4)c(=O)[n-]1 (protonated)
O=c1ccn(CC=CC[N@H+]2CCc3c([O-])ccc4c3[C@@H]2CCC4)c(=O)[n-]1 (chirality)
O=c1ccn(C/C=C/C[N@H+]2CCc3c([O-])ccc4c3[C@@H]2CCC4)c(=O)[n-]1 (cis-trans isomerization)
O=c1ccn(C/C=C/C[N@H+]2CCc3c([O-])ccc4c3[C@@H]2CCC4)c(=O)[n-]1 (3D coordinates assigned)
O=c1ccn(C/C=C/C[N@H+]2CCc3c([O-])ccc4c3[C@@H]2CCC4)c(=O)[n-]1 (nonaromatic ring conformer: 70.89823311669653 kcal/mol)

>  <smiles>  (47) 
O=c1ccn(CC=CCN2CCc3c(O)ccc4c3C2CCC4)c(=O)[nH]1

>  <score_type>  (47) 
oracle

>  <origin>  (47) 
adg

>  <m_score__min__energy>  (47) 
-9.7899999999999991

>  <m_primary>  (47) 
energy

$$$$
47:0
     RDKit          3D

 58 60  0  0  0  0  0  0  0  0999 V2000
   55.9930   24.1220   47.1510 C   0  0  0  0  0  0  0  0  0  0  0  0
   55.9390   25.5380   47.0110 O   0  0  0  0  0  0  0  0  0  0  0  0
   56.8800   26.3030   46.3060 C   0  0  0  0  0  0  0  0  0  0  0  0
   58.2080   25.8710   46.2910 C   0  0  0  0  0  0  0  0  0  0  0  0
   59.1830   26.5930   45.5990 C   0  0  0  0  0  0  0  0  0  0  0  0
   58.8420   27.7700   44.9070 C   0  0  0  0  0  0  0  0  0  0  0  0
   59.7990   28.5150   44.1970 O   0  0  0  0  0  0  0  0  0  0  0  0
   61.1690   28.6330   44.5640 C   0  0  0  0  0  0  0  0  0  0  0  0
   57.5080   28.2140   44.9220 C   0  0  0  0  0  0  0  0  0  0  0  0
   57.0520   29.6830   44.0530 S   0  0  0  0  0  0  0  0  0  0  0  0
   56.4440   29.3260   42.7260 O   0  0  0  0  0  0  0  0  0  0  0  0
   56.0210   30.4210   44.8620 O   0  0  0  0  0  0  0  0  0  0  0  0
   58.4750   30.6560   43.7660 N   0  0  0  0  0  0  0  0  0  0  0  0
   58.8600   31.4370   44.9550 C   0  0  0  0  0  0  0  0  0  0  0  0
   57.7750   32.4840   45.2740 C   0  0  0  0  0  0  0  0  0  0  0  0
   58.1910   33.3140   46.4940 C   0  0  0  0  0  0  0  0  0  0  0  0
   58.6520   32.4610   47.6020 N   0  0  0  0  0  0  0  0  0  0  0  0
   58.9940   33.0500   48.8720 C   0  0  0  0  0  0  0  0  0  0  0  0
   58.6990   32.4460   49.9400 O   0  0  0  0  0  0  0  0  0  0  0  0
   59.7780   34.3290   48.9640 C   0  0  0  0  0  0  0  0  0  0  0  0
   61.2340   34.0520   48.7320 C   0  0  0  0  0  0  0  0  0  0  0  0
   62.1860   33.8340   49.7080 C   0  0  0  0  0  0  0  0  0  0  0  0
   63.3450   33.5160   49.0990 N   0  0  0  0  0  0  0  0  0  0  0  0
   64.5750   33.1180   49.7690 C   0  0  0  0  0  0  0  0  0  0  0  0
   63.1780   33.4850   47.7850 N   0  0  0  0  0  0  0  0  0  0  0  0
   61.8990   33.8270   47.5320 C   0  0  0  0  0  0  0  0  0  0  0  0
   61.3090   33.8240   46.1600 C   0  0  0  0  0  0  0  0  0  0  0  0
   58.5280   31.0010   47.4940 C   0  0  0  0  0  0  0  0  0  0  0  0
   59.1080   30.4910   46.1640 C   0  0  0  0  0  0  0  0  0  0  0  0
   56.5330   27.4800   45.6170 C   0  0  0  0  0  0  0  0  0  0  0  0
   56.0030   23.8593   48.2191 H   0  0  0  0  0  0  0  0  0  0  0  0
   55.1114   23.6722   46.6710 H   0  0  0  0  0  0  0  0  0  0  0  0
   56.9063   23.7407   46.6710 H   0  0  0  0  0  0  0  0  0  0  0  0
   58.4887   24.9536   46.8292 H   0  0  0  0  0  0  0  0  0  0  0  0
   60.2245   26.2392   45.5949 H   0  0  0  0  0  0  0  0  0  0  0  0
   61.2555   28.6405   45.6606 H   0  0  0  0  0  0  0  0  0  0  0  0
   61.7323   27.7800   44.1575 H   0  0  0  0  0  0  0  0  0  0  0  0
   61.5781   29.5697   44.1575 H   0  0  0  0  0  0  0  0  0  0  0  0
   59.2440   29.9860   43.5320 H   0  0  0  0  0  0  0  0  0  0  0  0
   59.7988   31.9717   44.7480 H   0  0  0  0  0  0  0  0  0  0  0  0
   57.6448   33.1494   44.4078 H   0  0  0  0  0  0  0  0  0  0  0  0
   56.8285   31.9683   45.4934 H   0  0  0  0  0  0  0  0  0  0  0  0
   59.0070   33.9916   46.2026 H   0  0  0  0  0  0  0  0  0  0  0  0
   57.3130   33.8795   46.8393 H   0  0  0  0  0  0  0  0  0  0  0  0
   59.4150   35.0351   48.2026 H   0  0  0  0  0  0  0  0  0  0  0  0
   59.6467   34.7635   49.9660 H   0  0  0  0  0  0  0  0  0  0  0  0
   62.0260   33.9072   50.7938 H   0  0  0  0  0  0  0  0  0  0  0  0
   64.4307   33.1647   50.8585 H   0  0  0  0  0  0  0  0  0  0  0  0
   64.8352   32.0898   49.4773 H   0  0  0  0  0  0  0  0  0  0  0  0
   65.3882   33.7988   49.4773 H   0  0  0  0  0  0  0  0  0  0  0  0
   60.2114   33.8184   46.2329 H   0  0  0  0  0  0  0  0  0  0  0  0
   61.6359   34.7238   45.6183 H   0  0  0  0  0  0  0  0  0  0  0  0
   61.6451   32.9276   45.6183 H   0  0  0  0  0  0  0  0  0  0  0  0
   59.0729   30.5320   48.3265 H   0  0  0  0  0  0  0  0  0  0  0  0
   57.4606   30.7381   47.5324 H   0  0  0  0  0  0  0  0  0  0  0  0
   60.1939   30.3659   46.2868 H   0  0  0  0  0  0  0  0  0  0  0  0
   58.5927   29.5462   45.9365 H   0  0  0  0  0  0  0  0  0  0  0  0
   55.4895   27.8280   45.6228 H   0  0  0  0  0  0  0  0  0  0  0  0
  1  2  1  0
  2  3  1  0
  3  4  2  0
  4  5  1  0
  5  6  2  0
  6  7  1  0
  7  8  1  0
  6  9  1  0
  9 10  1  0
 10 11  2  0
 10 12  2  0
 10 13  1  0
 13 14  1  0
 14 15  1  0
 15 16  1  0
 16 17  1  0
 17 18  1  0
 18 19  2  0
 18 20  1  0
 20 21  1  0
 21 22  2  0
 22 23  1  0
 23 24  1  0
 23 25  1  0
 25 26  2  0
 26 27  1  0
 17 28  1  0
 28 29  1  0
  9 30  2  0
 30  3  1  0
 29 14  1  0
 26 21  1  0
  1 31  1  0
  1 32  1  0
  1 33  1  0
  4 34  1  0
  5 35  1  0
  8 36  1  0
  8 37  1  0
  8 38  1  0
 13 39  1  0
 14 40  1  0
 15 41  1  0
 15 42  1  0
 16 43  1  0
 16 44  1  0
 20 45  1  0
 20 46  1  0
 22 47  1  0
 24 48  1  0
 24 49  1  0
 24 50  1  0
 27 51  1  0
 27 52  1  0
 27 53  1  0
 28 54  1  0
 28 55  1  0
 29 56  1  0
 29 57  1  0
 30 58  1  0
M  END
>  <UniqueID>  (48) 
45

>  <SMILES>  (48) 
COc1ccc(OC)c(S(=O)(=O)NC2CCN(C(=O)Cc3cn(C)nc3C)CC2)c1

>  <Energy>  (48) 
86.42304170108744

>  <Genealogy>  (48) 
COc1ccc(OC)c(S(=O)(=O)NC2CCN(C(=O)Cc3cn(C)nc3C)CC2)c1 (3D coordinates assigned)
COc1ccc(OC)c(S(=O)(=O)NC2CCN(C(=O)Cc3cn(C)nc3C)CC2)c1 (nonaromatic ring conformer: 86.42304170108744 kcal/mol)

>  <smiles>  (48) 
COc1ccc(OC)c(S(=O)(=O)NC2CCN(C(=O)Cc3cn(C)nc3C)CC2)c1

>  <score_type>  (48) 
oracle

>  <origin>  (48) 
adg

>  <m_score__min__energy>  (48) 
-9.2899999999999991

>  <m_primary>  (48) 
energy

$$$$
48:0
     RDKit          3D

 42 44  0  0  0  0  0  0  0  0999 V2000
   57.0630   22.5860   47.8740 O   0  0  0  0  0  0  0  0  0  0  0  0
   57.3170   23.5320   47.0810 C   0  0  0  0  0  0  0  0  0  0  0  0
   58.3240   23.3410   45.9920 C   0  0  0  0  0  0  0  0  0  0  0  0
   57.6370   22.9070   44.7270 C   0  0  0  0  0  0  0  0  0  0  0  0
   56.6420   23.7110   44.1470 C   0  0  0  0  0  0  0  0  0  0  0  0
   55.9710   23.2830   42.9980 C   0  0  0  0  0  0  0  0  0  0  0  0
   56.2820   22.0470   42.4250 C   0  0  0  0  0  0  0  0  0  0  0  0
   57.2620   21.2350   43.0030 C   0  0  0  0  0  0  0  0  0  0  0  0
   57.9360   21.6610   44.1510 C   0  0  0  0  0  0  0  0  0  0  0  0
   56.6680   24.7990   47.2300 N   0  0  0  0  0  0  0  0  0  0  0  0
   57.1030   26.0290   46.6330 C   0  0  0  0  0  0  0  0  0  0  0  0
   58.4750   26.2890   46.5630 C   0  0  0  0  0  0  0  0  0  0  0  0
   58.9440   27.4590   45.9640 C   0  0  0  0  0  0  0  0  0  0  0  0
   58.0450   28.3780   45.4230 C   0  0  0  0  0  0  0  0  0  0  0  0
   56.6610   28.1300   45.4750 C   0  0  0  0  0  0  0  0  0  0  0  0
   55.7170   29.0290   44.8730 N   0  0  0  0  0  0  0  0  0  0  0  0
   56.0380   30.1860   44.0930 C   0  0  0  0  0  0  0  0  0  0  0  0
   56.2720   30.0450   42.8630 O   0  0  0  0  0  0  0  0  0  0  0  0
   56.0900   31.4820   44.7010 N   0  0  0  0  0  0  0  0  0  0  0  0
   57.2570   32.1640   45.1810 C   0  0  0  0  0  0  0  0  0  0  0  0
   57.4230   33.5190   44.8580 C   0  0  0  0  0  0  0  0  0  0  0  0
   58.5540   34.2180   45.2920 C   0  0  0  0  0  0  0  0  0  0  0  0
   59.5380   33.5610   46.0360 C   0  0  0  0  0  0  0  0  0  0  0  0
   59.3930   32.2050   46.3430 C   0  0  0  0  0  0  0  0  0  0  0  0
   58.2600   31.5050   45.9130 C   0  0  0  0  0  0  0  0  0  0  0  0
   56.1940   26.9390   46.0530 C   0  0  0  0  0  0  0  0  0  0  0  0
   54.8320   26.6560   46.0240 O   0  0  0  0  0  0  0  0  0  0  0  0
   58.8515   24.2896   45.8131 H   0  0  0  0  0  0  0  0  0  0  0  0
   59.0429   22.5662   46.2967 H   0  0  0  0  0  0  0  0  0  0  0  0
   56.3898   24.6816   44.5990 H   0  0  0  0  0  0  0  0  0  0  0  0
   55.1973   23.9198   42.5443 H   0  0  0  0  0  0  0  0  0  0  0  0
   55.7554   21.7130   41.5188 H   0  0  0  0  0  0  0  0  0  0  0  0
   57.5029   20.2601   42.5541 H   0  0  0  0  0  0  0  0  0  0  0  0
   58.7039   21.0178   44.6055 H   0  0  0  0  0  0  0  0  0  0  0  0
   59.1899   25.5662   46.9831 H   0  0  0  0  0  0  0  0  0  0  0  0
   60.0251   27.6569   45.9184 H   0  0  0  0  0  0  0  0  0  0  0  0
   58.4193   29.2999   44.9540 H   0  0  0  0  0  0  0  0  0  0  0  0
   56.6583   34.0354   44.2592 H   0  0  0  0  0  0  0  0  0  0  0  0
   58.6690   35.2844   45.0479 H   0  0  0  0  0  0  0  0  0  0  0  0
   60.4264   34.1109   46.3799 H   0  0  0  0  0  0  0  0  0  0  0  0
   60.1708   31.6873   46.9235 H   0  0  0  0  0  0  0  0  0  0  0  0
   58.1540   30.4358   46.1486 H   0  0  0  0  0  0  0  0  0  0  0  0
  1  2  2  0
  2  3  1  0
  3  4  1  0
  4  5  2  0
  5  6  1  0
  6  7  2  0
  7  8  1  0
  8  9  2  0
  2 10  1  0
 10 11  1  0
 11 12  2  0
 12 13  1  0
 13 14  2  0
 14 15  1  0
 15 16  1  0
 16 17  1  0
 17 18  2  0
 17 19  1  0
 19 20  1  0
 20 21  2  0
 21 22  1  0
 22 23  2  0
 23 24  1  0
 24 25  2  0
 15 26  2  0
 26 27  1  0
  9  4  1  0
 26 11  1  0
 25 20  1  0
  3 28  1  0
  3 29  1  0
  5 30  1  0
  6 31  1  0
  7 32  1  0
  8 33  1  0
  9 34  1  0
 12 35  1  0
 13 36  1  0
 14 37  1  0
 21 38  1  0
 22 39  1  0
 23 40  1  0
 24 41  1  0
 25 42  1  0
M  CHG  4  10  -1  16  -1  19  -1  27  -1
M  END
>  <UniqueID>  (49) 
46

>  <SMILES>  (49) 
O=C(Cc1ccccc1)[N-]c1cccc([N-]C(=O)[N-]c2ccccc2)c1[O-]

>  <Energy>  (49) 
55.67175730928969

>  <Genealogy>  (49) 
O=C(Cc1ccccc1)[N-]c1cccc([N-]C(=O)[N-]c2ccccc2)c1[O-] (protonated)
O=C(Cc1ccccc1)[N-]c1cccc([N-]C(=O)[N-]c2ccccc2)c1[O-] (3D coordinates assigned)
O=C(Cc1ccccc1)[N-]c1cccc([N-]C(=O)[N-]c2ccccc2)c1[O-] (optimized conformer: 55.67175730928969 kcal/mol)

>  <smiles>  (49) 
O=C(Cc1ccccc1)Nc1cccc(NC(=O)Nc2ccccc2)c1O

>  <score_type>  (49) 
oracle

>  <origin>  (49) 
adg

>  <m_score__min__energy>  (49) 
-17.780000000000001

>  <m_primary>  (49) 
energy

$$$$
49:0
     RDKit          3D

 39 41  0  0  0  0  0  0  0  0999 V2000
   58.3800   30.2650   51.2130 C   0  0  0  0  0  0  0  0  0  0  0  0
   57.8320   30.0130   52.6150 C   0  0  0  0  0  0  0  0  0  0  0  0
   56.3230   30.0770   52.6230 C   0  0  0  0  0  0  0  0  0  0  0  0
   55.6850   31.1560   51.9910 C   0  0  0  0  0  0  0  0  0  0  0  0
   54.2920   31.2270   51.9360 C   0  0  0  0  0  0  0  0  0  0  0  0
   53.5090   30.2190   52.5160 C   0  0  0  0  0  0  0  0  0  0  0  0
   52.0090   30.2720   52.4180 C   0  0  0  0  0  0  0  0  0  0  0  0
   51.6010   30.7670   51.0640 C   0  0  0  0  0  0  0  0  0  0  0  0
   51.5450   29.9960   49.9650 N   0  0  0  0  0  0  0  0  0  0  0  0
   51.0670   30.8350   49.0210 C   0  0  0  0  0  0  0  0  0  0  0  0
   50.8770   30.4770   47.8290 O   0  0  0  0  0  0  0  0  0  0  0  0
   50.8020   32.0860   49.4550 N   0  0  0  0  0  0  0  0  0  0  0  0
   51.1400   32.0230   50.7530 C   0  0  0  0  0  0  0  0  0  0  0  0
   51.0240   33.0910   51.6350 O   0  0  0  0  0  0  0  0  0  0  0  0
   54.1380   29.1290   53.1330 C   0  0  0  0  0  0  0  0  0  0  0  0
   55.5360   29.0510   53.1920 C   0  0  0  0  0  0  0  0  0  0  0  0
   56.1430   27.9270   53.8420 N   0  0  0  0  0  0  0  0  0  0  0  0
   57.2140   28.0760   54.8110 C   0  0  0  0  0  0  0  0  0  0  0  0
   57.2440   26.7670   55.5900 C   0  0  0  0  0  0  0  0  0  0  0  0
   56.4090   25.7760   54.7820 C   0  0  0  0  0  0  0  0  0  0  0  0
   55.5180   26.6200   53.8830 C   0  0  0  0  0  0  0  0  0  0  0  0
   59.3772   30.7236   51.2860 H   0  0  0  0  0  0  0  0  0  0  0  0
   58.4541   29.3105   50.6713 H   0  0  0  0  0  0  0  0  0  0  0  0
   57.7036   30.9425   50.6713 H   0  0  0  0  0  0  0  0  0  0  0  0
   58.1521   29.0164   52.9531 H   0  0  0  0  0  0  0  0  0  0  0  0
   58.2205   30.7904   53.2893 H   0  0  0  0  0  0  0  0  0  0  0  0
   56.2891   31.9538   51.5344 H   0  0  0  0  0  0  0  0  0  0  0  0
   53.8064   32.0776   51.4353 H   0  0  0  0  0  0  0  0  0  0  0  0
   51.5978   29.2641   52.5765 H   0  0  0  0  0  0  0  0  0  0  0  0
   51.6211   30.9582   53.1852 H   0  0  0  0  0  0  0  0  0  0  0  0
   53.5285   28.3271   53.5751 H   0  0  0  0  0  0  0  0  0  0  0  0
   58.1741   28.2414   54.3003 H   0  0  0  0  0  0  0  0  0  0  0  0
   57.0491   28.9400   55.4715 H   0  0  0  0  0  0  0  0  0  0  0  0
   58.2779   26.4045   55.6882 H   0  0  0  0  0  0  0  0  0  0  0  0
   56.8447   26.8946   56.6070 H   0  0  0  0  0  0  0  0  0  0  0  0
   57.0615   25.1297   54.1766 H   0  0  0  0  0  0  0  0  0  0  0  0
   55.8173   25.1182   55.4356 H   0  0  0  0  0  0  0  0  0  0  0  0
   55.4672   26.1855   52.8737 H   0  0  0  0  0  0  0  0  0  0  0  0
   54.4860   26.6710   54.2603 H   0  0  0  0  0  0  0  0  0  0  0  0
  1  2  1  0
  2  3  1  0
  3  4  2  0
  4  5  1  0
  5  6  2  0
  6  7  1  0
  7  8  1  0
  8  9  1  0
  9 10  1  0
 10 11  2  0
 10 12  1  0
 12 13  1  0
 13 14  1  0
  6 15  1  0
 15 16  2  0
 16 17  1  0
 17 18  1  0
 18 19  1  0
 19 20  1  0
 20 21  1  0
 16  3  1  0
 21 17  1  0
 13  8  2  0
  1 22  1  0
  1 23  1  0
  1 24  1  0
  2 25  1  0
  2 26  1  0
  4 27  1  0
  5 28  1  0
  7 29  1  0
  7 30  1  0
 15 31  1  0
 18 32  1  0
 18 33  1  0
 19 34  1  0
 19 35  1  0
 20 36  1  0
 20 37  1  0
 21 38  1  0
 21 39  1  0
M  CHG  3   9  -1  12  -1  14  -1
M  END
>  <UniqueID>  (50) 
47

>  <SMILES>  (50) 
CCc1ccc(Cc2[n-]c(=O)[n-]c2[O-])cc1N1CCCC1

>  <Energy>  (50) 
70.36005791789675

>  <Genealogy>  (50) 
CCc1ccc(Cc2[n-]c(=O)[n-]c2[O-])cc1N1CCCC1 (protonated)
CCc1ccc(Cc2[n-]c(=O)[n-]c2[O-])cc1N1CCCC1 (3D coordinates assigned)
CCc1ccc(Cc2[n-]c(=O)[n-]c2[O-])cc1N1CCCC1 (nonaromatic ring conformer: 70.36005791789675 kcal/mol)

>  <smiles>  (50) 
CCc1ccc(Cc2[nH]c(=O)[nH]c2O)cc1N1CCCC1

>  <score_type>  (50) 
oracle

>  <origin>  (50) 
adg

>  <m_score__min__energy>  (50) 
-15.67

>  <m_primary>  (50) 
energy

$$$$
50:0
     RDKit          3D

 58 61  0  0  0  0  0  0  0  0999 V2000
   65.4180   33.0340   49.7480 C   0  0  0  0  0  0  0  0  0  0  0  0
   63.9850   32.5790   49.6710 C   0  0  0  0  0  0  0  0  0  0  0  0
   63.4790   31.7280   50.6680 C   0  0  0  0  0  0  0  0  0  0  0  0
   62.1560   31.2870   50.6190 C   0  0  0  0  0  0  0  0  0  0  0  0
   61.3190   31.6800   49.5730 C   0  0  0  0  0  0  0  0  0  0  0  0
   59.6630   31.0740   49.4880 S   0  0  0  0  0  0  0  0  0  0  0  0
   59.4000   30.2030   50.6860 O   0  0  0  0  0  0  0  0  0  0  0  0
   58.7030   32.2310   49.5210 O   0  0  0  0  0  0  0  0  0  0  0  0
   59.4410   30.1430   48.0270 N   0  0  0  0  0  0  0  0  0  0  0  0
   60.7020   30.0980   47.2630 C   0  0  0  0  0  0  0  0  0  0  0  0
   60.4650   29.4670   45.8830 C   0  0  0  0  0  0  0  0  0  0  0  0
   59.4460   28.4140   45.9580 N   0  0  0  0  0  0  0  0  0  0  0  0
   58.8680   27.9080   44.7410 C   0  0  0  0  0  0  0  0  0  0  0  0
   59.5780   27.8320   43.7010 O   0  0  0  0  0  0  0  0  0  0  0  0
   57.4030   27.5690   44.6430 C   0  0  0  0  0  0  0  0  0  0  0  0
   56.5310   28.6900   45.2200 C   0  0  0  0  0  0  0  0  0  0  0  0
   57.1160   30.0400   44.9320 C   0  0  0  0  0  0  0  0  0  0  0  0
   57.2350   30.4700   43.6470 N   0  0  0  0  0  0  0  0  0  0  0  0
   57.7300   31.7020   43.3560 C   0  0  0  0  0  0  0  0  0  0  0  0
   57.8260   32.0580   42.1510 O   0  0  0  0  0  0  0  0  0  0  0  0
   58.1220   32.5580   44.3980 C   0  0  0  0  0  0  0  0  0  0  0  0
   58.6470   33.8410   44.1650 C   0  0  0  0  0  0  0  0  0  0  0  0
   58.9820   34.6660   45.2430 C   0  0  0  0  0  0  0  0  0  0  0  0
   58.8070   34.2150   46.5550 C   0  0  0  0  0  0  0  0  0  0  0  0
   58.3050   32.9330   46.7960 C   0  0  0  0  0  0  0  0  0  0  0  0
   57.9660   32.1010   45.7240 C   0  0  0  0  0  0  0  0  0  0  0  0
   57.4710   30.8580   45.9580 N   0  0  0  0  0  0  0  0  0  0  0  0
   59.2270   27.7490   47.2460 C   0  0  0  0  0  0  0  0  0  0  0  0
   58.9410   28.7850   48.3530 C   0  0  0  0  0  0  0  0  0  0  0  0
   61.8070   32.5380   48.5800 C   0  0  0  0  0  0  0  0  0  0  0  0
   63.1380   32.9900   48.6140 C   0  0  0  0  0  0  0  0  0  0  0  0
   63.6340   33.9070   47.5270 C   0  0  0  0  0  0  0  0  0  0  0  0
   65.7165   33.1288   50.8025 H   0  0  0  0  0  0  0  0  0  0  0  0
   66.0641   32.2968   49.2489 H   0  0  0  0  0  0  0  0  0  0  0  0
   65.5205   34.0089   49.2489 H   0  0  0  0  0  0  0  0  0  0  0  0
   64.1310   31.4069   51.4937 H   0  0  0  0  0  0  0  0  0  0  0  0
   61.7703   30.6259   51.4091 H   0  0  0  0  0  0  0  0  0  0  0  0
   58.7190   30.6410   47.4570 H   0  0  0  0  0  0  0  0  0  0  0  0
   61.0849   31.1210   47.1336 H   0  0  0  0  0  0  0  0  0  0  0  0
   61.4338   29.4895   47.8145 H   0  0  0  0  0  0  0  0  0  0  0  0
   60.1273   30.2461   45.1837 H   0  0  0  0  0  0  0  0  0  0  0  0
   61.4076   29.0203   45.5337 H   0  0  0  0  0  0  0  0  0  0  0  0
   57.1401   27.4191   43.5855 H   0  0  0  0  0  0  0  0  0  0  0  0
   57.2194   26.6531   45.2238 H   0  0  0  0  0  0  0  0  0  0  0  0
   55.5285   28.6310   44.7710 H   0  0  0  0  0  0  0  0  0  0  0  0
   56.4777   28.5609   46.3111 H   0  0  0  0  0  0  0  0  0  0  0  0
   58.7943   34.1960   43.1343 H   0  0  0  0  0  0  0  0  0  0  0  0
   59.3845   35.6730   45.0584 H   0  0  0  0  0  0  0  0  0  0  0  0
   59.0651   34.8708   47.3996 H   0  0  0  0  0  0  0  0  0  0  0  0
   58.1765   32.5782   47.8293 H   0  0  0  0  0  0  0  0  0  0  0  0
   58.3682   27.0672   47.1589 H   0  0  0  0  0  0  0  0  0  0  0  0
   60.1345   27.1876   47.5130 H   0  0  0  0  0  0  0  0  0  0  0  0
   57.8532   28.8407   48.5068 H   0  0  0  0  0  0  0  0  0  0  0  0
   59.4701   28.4507   49.2576 H   0  0  0  0  0  0  0  0  0  0  0  0
   61.1426   32.8616   47.7653 H   0  0  0  0  0  0  0  0  0  0  0  0
   64.1108   34.7886   47.9802 H   0  0  0  0  0  0  0  0  0  0  0  0
   64.3667   33.3738   46.9034 H   0  0  0  0  0  0  0  0  0  0  0  0
   62.7867   34.2284   46.9034 H   0  0  0  0  0  0  0  0  0  0  0  0
  1  2  1  0
  2  3  2  0
  3  4  1  0
  4  5  2  0
  5  6  1  0
  6  7  2  0
  6  8  2  0
  6  9  1  0
  9 10  1  0
 10 11  1  0
 11 12  1  0
 12 13  1  0
 13 14  2  0
 13 15  1  0
 15 16  1  0
 16 17  1  0
 17 18  2  0
 18 19  1  0
 19 20  2  0
 19 21  1  0
 21 22  2  0
 22 23  1  0
 23 24  2  0
 24 25  1  0
 25 26  2  0
 26 27  1  0
 12 28  1  0
 28 29  1  0
  5 30  1  0
 30 31  2  0
 31 32  1  0
 31  2  1  0
 29  9  1  0
 27 17  1  0
 26 21  1  0
  1 33  1  0
  1 34  1  0
  1 35  1  0
  3 36  1  0
  4 37  1  0
  9 38  1  0
 10 39  1  0
 10 40  1  0
 11 41  1  0
 11 42  1  0
 15 43  1  0
 15 44  1  0
 16 45  1  0
 16 46  1  0
 22 47  1  0
 23 48  1  0
 24 49  1  0
 25 50  1  0
 28 51  1  0
 28 52  1  0
 29 53  1  0
 29 54  1  0
 30 55  1  0
 32 56  1  0
 32 57  1  0
 32 58  1  0
M  CHG  2   9   1  27  -1
M  END
>  <UniqueID>  (51) 
48

>  <SMILES>  (51) 
Cc1ccc(S(=O)(=O)[NH+]2CCN(C(=O)CCc3nc(=O)c4ccccc4[n-]3)CC2)cc1C

>  <Energy>  (51) 
62.28978228900882

>  <Genealogy>  (51) 
Cc1ccc(S(=O)(=O)[NH+]2CCN(C(=O)CCc3nc(=O)c4ccccc4[n-]3)CC2)cc1C (protonated)
Cc1ccc(S(=O)(=O)[NH+]2CCN(C(=O)CCc3nc(=O)c4ccccc4[n-]3)CC2)cc1C (3D coordinates assigned)
Cc1ccc(S(=O)(=O)[NH+]2CCN(C(=O)CCc3nc(=O)c4ccccc4[n-]3)CC2)cc1C (nonaromatic ring conformer: 62.28978228900882 kcal/mol)

>  <smiles>  (51) 
Cc1ccc(S(=O)(=O)N2CCN(C(=O)CCc3nc(=O)c4ccccc4[nH]3)CC2)cc1C

>  <score_type>  (51) 
oracle

>  <origin>  (51) 
adg

>  <m_score__min__energy>  (51) 
-10.23

>  <m_primary>  (51) 
energy

$$$$
51:0
     RDKit          3D

 38 40  0  0  0  0  0  0  0  0999 V2000
   55.1480   29.3650   44.8340 N   0  0  0  0  0  0  0  0  0  0  0  0
   56.5590   29.7880   43.9300 S   0  0  0  0  0  0  0  0  0  0  0  0
   57.3160   28.5450   43.5600 O   0  0  0  0  0  0  0  0  0  0  0  0
   56.1200   30.4850   42.6730 O   0  0  0  0  0  0  0  0  0  0  0  0
   57.6030   30.8590   44.8830 C   0  0  0  0  0  0  0  0  0  0  0  0
   57.5790   32.2360   44.6020 C   0  0  0  0  0  0  0  0  0  0  0  0
   58.3390   33.1310   45.3550 C   0  0  0  0  0  0  0  0  0  0  0  0
   59.1340   32.6670   46.4000 C   0  0  0  0  0  0  0  0  0  0  0  0
   59.1810   31.3020   46.6900 C   0  0  0  0  0  0  0  0  0  0  0  0
   58.4280   30.3810   45.9360 C   0  0  0  0  0  0  0  0  0  0  0  0
   58.5480   28.9400   46.2580 C   0  0  0  0  0  0  0  0  0  0  0  0
   59.7720   28.3920   46.6600 C   0  0  0  0  0  0  0  0  0  0  0  0
   59.8530   27.0270   46.9330 C   0  0  0  0  0  0  0  0  0  0  0  0
   58.7280   26.2090   46.8000 C   0  0  0  0  0  0  0  0  0  0  0  0
   58.8870   24.8380   47.0110 O   0  0  0  0  0  0  0  0  0  0  0  0
   57.4960   26.7990   46.4270 C   0  0  0  0  0  0  0  0  0  0  0  0
   56.2180   26.0630   46.3710 C   0  0  0  0  0  0  0  0  0  0  0  0
   55.1510   26.6370   46.0240 O   0  0  0  0  0  0  0  0  0  0  0  0
   56.1990   24.6730   46.7190 N   0  0  0  0  0  0  0  0  0  0  0  0
   56.4210   23.6400   45.9520 C   0  0  0  0  0  0  0  0  0  0  0  0
   56.0090   23.7150   44.6570 N   0  0  0  0  0  0  0  0  0  0  0  0
   56.1870   22.7010   43.7700 C   0  0  0  0  0  0  0  0  0  0  0  0
   56.8110   21.5230   44.1740 C   0  0  0  0  0  0  0  0  0  0  0  0
   57.2280   21.3930   45.4970 C   0  0  0  0  0  0  0  0  0  0  0  0
   57.0250   22.4370   46.4050 C   0  0  0  0  0  0  0  0  0  0  0  0
   57.3840   22.2360   47.7330 O   0  0  0  0  0  0  0  0  0  0  0  0
   57.4600   28.1310   46.1520 N   0  0  0  0  0  0  0  0  0  0  0  0
   55.4560   28.7280   45.6030 H   0  0  0  0  0  0  0  0  0  0  0  0
   56.9537   32.6121   43.7789 H   0  0  0  0  0  0  0  0  0  0  0  0
   58.3103   34.2058   45.1228 H   0  0  0  0  0  0  0  0  0  0  0  0
   59.7254   33.3764   46.9974 H   0  0  0  0  0  0  0  0  0  0  0  0
   59.8125   30.9423   47.5157 H   0  0  0  0  0  0  0  0  0  0  0  0
   60.6611   29.0320   46.7595 H   0  0  0  0  0  0  0  0  0  0  0  0
   60.8099   26.5908   47.2555 H   0  0  0  0  0  0  0  0  0  0  0  0
   58.1300   24.2180   47.2610 H   0  0  0  0  0  0  0  0  0  0  0  0
   55.8382   22.8105   42.7325 H   0  0  0  0  0  0  0  0  0  0  0  0
   56.9727   20.7048   43.4568 H   0  0  0  0  0  0  0  0  0  0  0  0
   57.7186   20.4659   45.8285 H   0  0  0  0  0  0  0  0  0  0  0  0
  1  2  1  0
  2  3  2  0
  2  4  2  0
  2  5  1  0
  5  6  2  0
  6  7  1  0
  7  8  2  0
  8  9  1  0
  9 10  2  0
 10 11  1  0
 11 12  2  0
 12 13  1  0
 13 14  2  0
 14 15  1  0
 14 16  1  0
 16 17  1  0
 17 18  2  0
 17 19  1  0
 19 20  2  3
 20 21  1  0
 21 22  1  0
 22 23  2  0
 23 24  1  0
 24 25  2  0
 25 26  1  0
 16 27  2  0
 10  5  1  0
 27 11  1  0
 25 20  1  0
  1 28  1  0
  6 29  1  0
  7 30  1  0
  8 31  1  0
  9 32  1  0
 12 33  1  0
 13 34  1  0
 15 35  1  0
 22 36  1  0
 23 37  1  0
 24 38  1  0
M  CHG  3   1  -1  21  -1  26  -1
M  END
>  <UniqueID>  (52) 
49

>  <SMILES>  (52) 
[NH-]S(=O)(=O)c1ccccc1-c1ccc(O)c(C(=O)N=c2[n-]cccc2[O-])n1

>  <Energy>  (52) 
65.25454812812552

>  <Genealogy>  (52) 
[NH-]S(=O)(=O)c1ccccc1-c1ccc(O)c(C(=O)N=c2[n-]cccc2[O-])n1 (protonated)
[NH-]S(=O)(=O)c1ccccc1-c1ccc(O)c(C(=O)N=c2[n-]cccc2[O-])n1 (3D coordinates assigned)
[NH-]S(=O)(=O)c1ccccc1-c1ccc(O)c(C(=O)N=c2[n-]cccc2[O-])n1 (optimized conformer: 65.25454812812552 kcal/mol)

>  <smiles>  (52) 
NS(=O)(=O)c1ccccc1-c1ccc(O)c(C(=O)N=c2[nH]cccc2O)n1

>  <score_type>  (52) 
oracle

>  <origin>  (52) 
adg

>  <m_score__min__energy>  (52) 
-14.789999999999999

>  <m_primary>  (52) 
energy

$$$$
52:0
     RDKit          3D

 31 33  0  0  0  0  0  0  0  0999 V2000
   53.7520   30.4120   54.6070 O   0  0  0  0  0  0  0  0  0  0  0  0
   53.2690   30.5350   53.4490 C   0  0  0  0  0  0  0  0  0  0  0  0
   51.8210   30.8790   53.2890 C   0  0  0  0  0  0  0  0  0  0  0  0
   51.5150   31.1330   51.8470 C   0  0  0  0  0  0  0  0  0  0  0  0
   51.7510   30.2520   50.8590 N   0  0  0  0  0  0  0  0  0  0  0  0
   51.3880   30.9290   49.7470 C   0  0  0  0  0  0  0  0  0  0  0  0
   51.4590   30.4280   48.5940 O   0  0  0  0  0  0  0  0  0  0  0  0
   50.9500   32.1880   49.9660 N   0  0  0  0  0  0  0  0  0  0  0  0
   51.0420   32.3010   51.3010 C   0  0  0  0  0  0  0  0  0  0  0  0
   50.7090   33.4520   52.0040 O   0  0  0  0  0  0  0  0  0  0  0  0
   54.0910   30.3390   52.2880 N   0  0  0  0  0  0  0  0  0  0  0  0
   55.5270   30.2650   52.3200 C   0  0  0  0  0  0  0  0  0  0  0  0
   56.1920   29.2930   53.0870 C   0  0  0  0  0  0  0  0  0  0  0  0
   57.5860   29.2580   53.1210 C   0  0  0  0  0  0  0  0  0  0  0  0
   58.3320   30.1960   52.4040 C   0  0  0  0  0  0  0  0  0  0  0  0
   57.6870   31.1900   51.6490 C   0  0  0  0  0  0  0  0  0  0  0  0
   58.4970   32.1820   50.9060 C   0  0  0  0  0  0  0  0  0  0  0  0
   58.6610   32.2970   49.5390 C   0  0  0  0  0  0  0  0  0  0  0  0
   59.4800   33.3330   49.2840 N   0  0  0  0  0  0  0  0  0  0  0  0
   59.7840   33.8110   50.5080 C   0  0  0  0  0  0  0  0  0  0  0  0
   59.2030   33.1310   51.4710 O   0  0  0  0  0  0  0  0  0  0  0  0
   56.2800   31.2200   51.6200 C   0  0  0  0  0  0  0  0  0  0  0  0
   51.2051   30.0425   53.6508 H   0  0  0  0  0  0  0  0  0  0  0  0
   51.5971   31.7845   53.8720 H   0  0  0  0  0  0  0  0  0  0  0  0
   53.6110   30.1750   51.3740 H   0  0  0  0  0  0  0  0  0  0  0  0
   55.6111   28.5573   53.6625 H   0  0  0  0  0  0  0  0  0  0  0  0
   58.1000   28.4881   53.7152 H   0  0  0  0  0  0  0  0  0  0  0  0
   59.4310   30.1564   52.4305 H   0  0  0  0  0  0  0  0  0  0  0  0
   58.1973   31.6471   48.7823 H   0  0  0  0  0  0  0  0  0  0  0  0
   60.4444   34.6735   50.6809 H   0  0  0  0  0  0  0  0  0  0  0  0
   55.7648   32.0012   51.0419 H   0  0  0  0  0  0  0  0  0  0  0  0
  1  2  2  0
  2  3  1  0
  3  4  1  0
  4  5  1  0
  5  6  1  0
  6  7  2  0
  6  8  1  0
  8  9  1  0
  9 10  1  0
  2 11  1  0
 11 12  1  0
 12 13  2  0
 13 14  1  0
 14 15  2  0
 15 16  1  0
 16 17  1  0
 17 18  2  0
 18 19  1  0
 19 20  2  0
 20 21  1  0
 16 22  2  0
  9  4  2  0
 22 12  1  0
 21 17  1  0
  3 23  1  0
  3 24  1  0
 11 25  1  0
 13 26  1  0
 14 27  1  0
 15 28  1  0
 18 29  1  0
 20 30  1  0
 22 31  1  0
M  CHG  3   5  -1   8  -1  10  -1
M  END
>  <UniqueID>  (53) 
50

>  <SMILES>  (53) 
O=C(Cc1[n-]c(=O)[n-]c1[O-])Nc1cccc(-c2cnco2)c1

>  <Energy>  (53) 
94.34294981627855

>  <Genealogy>  (53) 
O=C(Cc1[n-]c(=O)[n-]c1[O-])Nc1cccc(-c2cnco2)c1 (protonated)
O=C(Cc1[n-]c(=O)[n-]c1[O-])Nc1cccc(-c2cnco2)c1 (3D coordinates assigned)
O=C(Cc1[n-]c(=O)[n-]c1[O-])Nc1cccc(-c2cnco2)c1 (optimized conformer: 94.34294981627855 kcal/mol)

>  <smiles>  (53) 
O=C(Cc1[nH]c(=O)[nH]c1O)Nc1cccc(-c2cnco2)c1

>  <score_type>  (53) 
oracle

>  <origin>  (53) 
adg

>  <m_score__min__energy>  (53) 
-15.67

>  <m_primary>  (53) 
energy

$$$$
53:0
     RDKit          3D

 33 34  0  0  0  0  0  0  0  0999 V2000
   58.7460   27.1150   45.2390 C   0  0  0  0  0  0  0  0  0  0  0  0
   59.0780   28.5180   45.6280 C   0  0  0  0  0  0  0  0  0  0  0  0
   60.1600   28.8600   46.2920 O   0  0  0  0  0  0  0  0  0  0  0  0
   60.1430   30.1630   46.4730 C   0  0  0  0  0  0  0  0  0  0  0  0
   61.1950   30.9000   47.1790 C   0  0  0  0  0  0  0  0  0  0  0  0
   62.3900   30.8340   46.7800 O   0  0  0  0  0  0  0  0  0  0  0  0
   60.8570   31.6900   48.3230 N   0  0  0  0  0  0  0  0  0  0  0  0
   60.7120   33.1410   48.2880 C   0  0  0  0  0  0  0  0  0  0  0  0
   59.6510   33.5360   47.2970 C   0  0  0  0  0  0  0  0  0  0  0  0
   58.3080   33.2020   47.5350 C   0  0  0  0  0  0  0  0  0  0  0  0
   57.3200   33.5480   46.6080 C   0  0  0  0  0  0  0  0  0  0  0  0
   57.6670   34.2240   45.4340 C   0  0  0  0  0  0  0  0  0  0  0  0
   56.7090   34.5580   44.5350 F   0  0  0  0  0  0  0  0  0  0  0  0
   59.0030   34.5560   45.1880 C   0  0  0  0  0  0  0  0  0  0  0  0
   59.9930   34.2120   46.1140 C   0  0  0  0  0  0  0  0  0  0  0  0
   59.0050   30.7120   45.9100 C   0  0  0  0  0  0  0  0  0  0  0  0
   58.3210   29.6450   45.3680 C   0  0  0  0  0  0  0  0  0  0  0  0
   56.7890   29.7190   44.5110 S   0  0  0  0  0  0  0  0  0  0  0  0
   57.0080   29.1930   42.8780 N   0  0  0  0  0  0  0  0  0  0  0  0
   56.2810   31.1340   44.5100 O   0  0  0  0  0  0  0  0  0  0  0  0
   55.7920   28.8230   45.1890 O   0  0  0  0  0  0  0  0  0  0  0  0
   58.6023   26.5076   46.1448 H   0  0  0  0  0  0  0  0  0  0  0  0
   57.8216   27.1088   44.6428 H   0  0  0  0  0  0  0  0  0  0  0  0
   59.5696   26.6951   44.6428 H   0  0  0  0  0  0  0  0  0  0  0  0
   60.4272   33.5014   49.2875 H   0  0  0  0  0  0  0  0  0  0  0  0
   61.6697   33.5891   47.9845 H   0  0  0  0  0  0  0  0  0  0  0  0
   58.0319   32.6657   48.4549 H   0  0  0  0  0  0  0  0  0  0  0  0
   56.2689   33.2882   46.8024 H   0  0  0  0  0  0  0  0  0  0  0  0
   59.2756   35.0885   44.2649 H   0  0  0  0  0  0  0  0  0  0  0  0
   61.0433   34.4717   45.9153 H   0  0  0  0  0  0  0  0  0  0  0  0
   58.7096   31.7715   45.8975 H   0  0  0  0  0  0  0  0  0  0  0  0
   56.7320   28.1860   42.8410 H   0  0  0  0  0  0  0  0  0  0  0  0
   58.0320   29.2330   42.6780 H   0  0  0  0  0  0  0  0  0  0  0  0
  1  2  1  0
  2  3  1  0
  3  4  1  0
  4  5  1  0
  5  6  2  0
  5  7  1  0
  7  8  1  0
  8  9  1  0
  9 10  2  0
 10 11  1  0
 11 12  2  0
 12 13  1  0
 12 14  1  0
 14 15  2  0
  4 16  2  0
 16 17  1  0
 17 18  1  0
 18 19  1  0
 18 20  2  0
 18 21  2  0
 17  2  2  0
 15  9  1  0
  1 22  1  0
  1 23  1  0
  1 24  1  0
  8 25  1  0
  8 26  1  0
 10 27  1  0
 11 28  1  0
 14 29  1  0
 15 30  1  0
 16 31  1  0
 19 32  1  0
 19 33  1  0
M  CHG  1   7  -1
M  END
>  <UniqueID>  (54) 
51

>  <SMILES>  (54) 
Cc1oc(C(=O)[N-]Cc2ccc(F)cc2)cc1S(N)(=O)=O

>  <Energy>  (54) 
53.5833729252704

>  <Genealogy>  (54) 
Cc1oc(C(=O)[N-]Cc2ccc(F)cc2)cc1S(N)(=O)=O (protonated)
Cc1oc(C(=O)[N-]Cc2ccc(F)cc2)cc1S(N)(=O)=O (3D coordinates assigned)
Cc1oc(C(=O)[N-]Cc2ccc(F)cc2)cc1S(N)(=O)=O (optimized conformer: 53.5833729252704 kcal/mol)

>  <smiles>  (54) 
Cc1oc(C(=O)NCc2ccc(F)cc2)cc1S(N)(=O)=O

>  <score_type>  (54) 
oracle

>  <origin>  (54) 
adg

>  <m_score__min__energy>  (54) 
-9.0199999999999996

>  <m_primary>  (54) 
energy

$$$$
54:0
     RDKit          3D

 39 40  0  0  0  0  0  0  0  0999 V2000
   63.0490   34.4930   50.1860 C   0  0  0  0  0  0  0  0  0  0  0  0
   62.7360   34.4610   48.7970 O   0  0  0  0  0  0  0  0  0  0  0  0
   61.8910   33.5160   48.1970 C   0  0  0  0  0  0  0  0  0  0  0  0
   62.4050   32.2440   47.9230 C   0  0  0  0  0  0  0  0  0  0  0  0
   61.6020   31.2670   47.3260 C   0  0  0  0  0  0  0  0  0  0  0  0
   60.2640   31.5470   47.0000 C   0  0  0  0  0  0  0  0  0  0  0  0
   59.4450   30.5490   46.3570 N   0  0  0  0  0  0  0  0  0  0  0  0
   59.6390   29.2450   47.0090 C   0  0  0  0  0  0  0  0  0  0  0  0
   60.2190   28.1990   46.0420 C   0  0  0  0  0  0  0  0  0  0  0  0
   59.5610   28.2470   44.6570 C   0  0  0  0  0  0  0  0  0  0  0  0
   58.1210   28.6550   44.7710 C   0  0  0  0  0  0  0  0  0  0  0  0
   57.7060   29.9290   44.6570 N   0  0  0  0  0  0  0  0  0  0  0  0
   56.3760   29.8440   44.8590 C   0  0  0  0  0  0  0  0  0  0  0  0
   55.6180   30.8480   44.8260 O   0  0  0  0  0  0  0  0  0  0  0  0
   55.9220   28.5990   45.1030 N   0  0  0  0  0  0  0  0  0  0  0  0
   57.0350   27.8430   45.0510 C   0  0  0  0  0  0  0  0  0  0  0  0
   57.0340   26.3620   45.2900 C   0  0  0  0  0  0  0  0  0  0  0  0
   55.9330   25.9910   46.2300 C   0  0  0  0  0  0  0  0  0  0  0  0
   54.7470   26.3360   45.9860 O   0  0  0  0  0  0  0  0  0  0  0  0
   56.2080   25.2280   47.3580 O   0  0  0  0  0  0  0  0  0  0  0  0
   59.7520   32.8280   47.2640 C   0  0  0  0  0  0  0  0  0  0  0  0
   60.5540   33.8040   47.8610 C   0  0  0  0  0  0  0  0  0  0  0  0
   62.1234   34.3984   50.7727 H   0  0  0  0  0  0  0  0  0  0  0  0
   63.7240   33.6592   50.4291 H   0  0  0  0  0  0  0  0  0  0  0  0
   63.5413   35.4462   50.4291 H   0  0  0  0  0  0  0  0  0  0  0  0
   63.4490   32.0105   48.1792 H   0  0  0  0  0  0  0  0  0  0  0  0
   62.0204   30.2728   47.1102 H   0  0  0  0  0  0  0  0  0  0  0  0
   58.4420   30.8380   46.4180 H   0  0  0  0  0  0  0  0  0  0  0  0
   59.7020   30.4840   45.3430 H   0  0  0  0  0  0  0  0  0  0  0  0
   60.3316   29.3700   47.8544 H   0  0  0  0  0  0  0  0  0  0  0  0
   58.6568   28.8856   47.3497 H   0  0  0  0  0  0  0  0  0  0  0  0
   61.2969   28.3854   45.9266 H   0  0  0  0  0  0  0  0  0  0  0  0
   60.0227   27.2048   46.4698 H   0  0  0  0  0  0  0  0  0  0  0  0
   60.0945   28.9750   44.0282 H   0  0  0  0  0  0  0  0  0  0  0  0
   59.6115   27.2454   44.2051 H   0  0  0  0  0  0  0  0  0  0  0  0
   56.8862   25.8398   44.3332 H   0  0  0  0  0  0  0  0  0  0  0  0
   57.9975   26.0695   45.7329 H   0  0  0  0  0  0  0  0  0  0  0  0
   58.7111   33.0648   46.9986 H   0  0  0  0  0  0  0  0  0  0  0  0
   60.1395   34.8014   48.0694 H   0  0  0  0  0  0  0  0  0  0  0  0
  1  2  1  0
  2  3  1  0
  3  4  2  0
  4  5  1  0
  5  6  2  0
  6  7  1  0
  7  8  1  0
  8  9  1  0
  9 10  1  0
 10 11  1  0
 11 12  1  0
 12 13  1  0
 13 14  2  0
 13 15  1  0
 15 16  1  0
 16 17  1  0
 17 18  1  0
 18 19  2  0
 18 20  1  0
  6 21  1  0
 21 22  2  0
 22  3  1  0
 16 11  2  0
  1 23  1  0
  1 24  1  0
  1 25  1  0
  4 26  1  0
  5 27  1  0
  7 28  1  0
  7 29  1  0
  8 30  1  0
  8 31  1  0
  9 32  1  0
  9 33  1  0
 10 34  1  0
 10 35  1  0
 17 36  1  0
 17 37  1  0
 21 38  1  0
 22 39  1  0
M  CHG  4   7   1  12  -1  15  -1  20  -1
M  END
>  <UniqueID>  (55) 
52

>  <SMILES>  (55) 
COc1ccc([NH2+]CCCc2[n-]c(=O)[n-]c2CC(=O)[O-])cc1

>  <Energy>  (55) 
60.865241264608585

>  <Genealogy>  (55) 
COc1ccc([NH2+]CCCc2[n-]c(=O)[n-]c2CC(=O)[O-])cc1 (protonated)
COc1ccc([NH2+]CCCc2[n-]c(=O)[n-]c2CC(=O)[O-])cc1 (3D coordinates assigned)
COc1ccc([NH2+]CCCc2[n-]c(=O)[n-]c2CC(=O)[O-])cc1 (optimized conformer: 60.865241264608585 kcal/mol)

>  <smiles>  (55) 
COc1ccc(NCCCc2[nH]c(=O)[nH]c2CC(=O)O)cc1

>  <score_type>  (55) 
oracle

>  <origin>  (55) 
adg

>  <m_score__min__energy>  (55) 
-10.41

>  <m_primary>  (55) 
energy

$$$$
55:0
     RDKit          3D

 31 32  0  0  0  0  0  0  0  0999 V2000
   54.4810   27.0830   46.7160 H   0  0  0  0  0  0  0  0  0  0  0  0
   55.1570   26.6760   46.0320 N   0  0  0  0  0  0  0  0  0  0  0  0
   56.5610   26.7050   46.2840 C   0  0  0  0  0  0  0  0  0  0  0  0
   57.0620   25.8510   47.0650 O   0  0  0  0  0  0  0  0  0  0  0  0
   57.4220   27.7210   45.6360 C   0  0  0  0  0  0  0  0  0  0  0  0
   58.7900   27.8010   45.9410 C   0  0  0  0  0  0  0  0  0  0  0  0
   59.2338   27.0964   46.6598 H   0  0  0  0  0  0  0  0  0  0  0  0
   59.5870   28.7700   45.3360 C   0  0  0  0  0  0  0  0  0  0  0  0
   60.6583   28.8357   45.5769 H   0  0  0  0  0  0  0  0  0  0  0  0
   59.0170   29.6560   44.4230 C   0  0  0  0  0  0  0  0  0  0  0  0
   59.6411   30.4276   43.9485 H   0  0  0  0  0  0  0  0  0  0  0  0
   57.6880   29.5730   44.1130 N   0  0  0  0  0  0  0  0  0  0  0  0
   57.1010   30.5410   43.1790 C   0  0  0  0  0  0  0  0  0  0  0  0
   57.4110   30.2923   42.1533 H   0  0  0  0  0  0  0  0  0  0  0  0
   56.0045   30.4999   43.2563 H   0  0  0  0  0  0  0  0  0  0  0  0
   57.5670   31.9210   43.5170 C   0  0  0  0  0  0  0  0  0  0  0  0
   58.0830   32.6420   42.6200 O   0  0  0  0  0  0  0  0  0  0  0  0
   57.3650   32.4220   44.8470 N   0  0  0  0  0  0  0  0  0  0  0  0
   58.0990   33.2710   45.5130 C   0  0  0  0  0  0  0  0  0  0  0  0
   58.1210   33.1740   46.9110 C   0  0  0  0  0  0  0  0  0  0  0  0
   57.5275   32.4002   47.4199 H   0  0  0  0  0  0  0  0  0  0  0  0
   58.8980   34.0620   47.6550 C   0  0  0  0  0  0  0  0  0  0  0  0
   58.9118   33.9971   48.7530 H   0  0  0  0  0  0  0  0  0  0  0  0
   59.6570   35.0320   47.0020 C   0  0  0  0  0  0  0  0  0  0  0  0
   60.2659   35.7432   47.5794 H   0  0  0  0  0  0  0  0  0  0  0  0
   59.6360   35.0910   45.6090 C   0  0  0  0  0  0  0  0  0  0  0  0
   60.2391   35.8471   45.0851 H   0  0  0  0  0  0  0  0  0  0  0  0
   58.8740   34.2190   44.8930 N   0  0  0  0  0  0  0  0  0  0  0  0
   58.9390   34.2810   43.8550 H   0  0  0  0  0  0  0  0  0  0  0  0
   56.8910   28.6350   44.7090 C   0  0  0  0  0  0  0  0  0  0  0  0
   55.8203   28.5951   44.4598 H   0  0  0  0  0  0  0  0  0  0  0  0
  1  2  1  0
  2  3  1  0
  3  4  2  0
  3  5  1  0
  5  6  2  0
  6  7  1  0
  6  8  1  0
  8  9  1  0
  8 10  2  0
 10 11  1  0
 10 12  1  0
 12 13  1  0
 13 14  1  0
 13 15  1  0
 13 16  1  0
 16 17  2  0
 16 18  1  0
 18 19  2  0
 19 20  1  0
 20 21  1  0
 20 22  2  0
 22 23  1  0
 22 24  1  0
 24 25  1  0
 24 26  2  0
 26 27  1  0
 26 28  1  0
 28 29  1  0
 12 30  2  0
 30 31  1  0
 30  5  1  0
 28 19  1  0
M  CHG  2   2  -1  12   1
M  END
>  <UniqueID>  (56) 
53

>  <SMILES>  (56) 
[NH-]C(=O)c1ccc[n+](CC(=O)/N=c2/cccc[nH]2)c1

>  <Energy>  (56) 
38.06605511387947

>  <Genealogy>  (56) 
[NH-]C(=O)c1ccc[n+](CC(=O)N=c2cccc[nH]2)c1 (protonated)
[NH-]C(=O)c1ccc[n+](CC(=O)/N=c2/cccc[nH]2)c1 (cis-trans isomerization)
[NH-]C(=O)c1ccc[n+](CC(=O)/N=c2/cccc[nH]2)c1 (3D coordinates assigned)
[NH-]C(=O)c1ccc[n+](CC(=O)/N=c2/cccc[nH]2)c1 (optimized conformer: 38.06605511387947 kcal/mol)

>  <smiles>  (56) 
NC(=O)c1ccc[n+](CC(=O)N=c2cccc[nH]2)c1

>  <score_type>  (56) 
oracle

>  <origin>  (56) 
adg

>  <m_score__min__energy>  (56) 
-9

>  <m_primary>  (56) 
energy

$$$$
56:0
     RDKit          3D

 42 44  0  0  0  0  0  0  0  0999 V2000
   56.4110   29.0870   51.6190 H   0  0  0  0  0  0  0  0  0  0  0  0
   57.3080   29.4890   51.8640 O   0  0  0  0  0  0  0  0  0  0  0  0
   57.9460   30.4050   51.0310 C   0  0  0  0  0  0  0  0  0  0  0  0
   57.9670   31.7590   51.3810 C   0  0  0  0  0  0  0  0  0  0  0  0
   57.4823   32.0930   52.3103 H   0  0  0  0  0  0  0  0  0  0  0  0
   58.6030   32.6900   50.5520 C   0  0  0  0  0  0  0  0  0  0  0  0
   58.6354   33.7506   50.8419 H   0  0  0  0  0  0  0  0  0  0  0  0
   59.2010   32.2730   49.3490 C   0  0  0  0  0  0  0  0  0  0  0  0
   59.9090   33.1990   48.5110 N   0  0  0  0  0  0  0  0  0  0  0  0
   59.5890   33.5870   47.3080 C   0  0  0  0  0  0  0  0  0  0  0  0
   58.9170   32.7230   46.5020 N   0  0  0  0  0  0  0  0  0  0  0  0
   58.5280   33.0500   45.2390 C   0  0  0  0  0  0  0  0  0  0  0  0
   57.8080   32.0480   44.4120 C   0  0  0  0  0  0  0  0  0  0  0  0
   57.7370   32.1660   43.0120 C   0  0  0  0  0  0  0  0  0  0  0  0
   58.2288   33.0118   42.5093 H   0  0  0  0  0  0  0  0  0  0  0  0
   57.0460   31.2160   42.2560 C   0  0  0  0  0  0  0  0  0  0  0  0
   56.9993   31.3162   41.1616 H   0  0  0  0  0  0  0  0  0  0  0  0
   56.4150   30.1410   42.8820 C   0  0  0  0  0  0  0  0  0  0  0  0
   55.8743   29.3961   42.2797 H   0  0  0  0  0  0  0  0  0  0  0  0
   56.4680   30.0070   44.2790 C   0  0  0  0  0  0  0  0  0  0  0  0
   55.8360   28.9200   44.9690 N   0  0  0  0  0  0  0  0  0  0  0  0
   56.6380   27.5190   45.6060 S   0  0  0  0  0  0  0  0  0  0  0  0
   55.6200   26.4850   46.0000 O   0  0  0  0  0  0  0  0  0  0  0  0
   57.4130   27.9210   46.8280 O   0  0  0  0  0  0  0  0  0  0  0  0
   57.7700   26.8420   44.4000 C   0  0  0  0  0  0  0  0  0  0  0  0
   57.2290   26.6622   43.4593 H   0  0  0  0  0  0  0  0  0  0  0  0
   58.1805   25.9002   44.7930 H   0  0  0  0  0  0  0  0  0  0  0  0
   58.9220   27.8030   44.1370 C   0  0  0  0  0  0  0  0  0  0  0  0
   59.3368   28.1491   45.0952 H   0  0  0  0  0  0  0  0  0  0  0  0
   59.7059   27.2873   43.5629 H   0  0  0  0  0  0  0  0  0  0  0  0
   58.5552   28.6667   43.5629 H   0  0  0  0  0  0  0  0  0  0  0  0
   57.1580   30.9650   45.0340 C   0  0  0  0  0  0  0  0  0  0  0  0
   57.1923   30.8694   46.1293 H   0  0  0  0  0  0  0  0  0  0  0  0
   58.8420   34.3300   44.7540 C   0  0  0  0  0  0  0  0  0  0  0  0
   58.5608   34.6186   43.7305 H   0  0  0  0  0  0  0  0  0  0  0  0
   59.4950   35.2090   45.5570 N   0  0  0  0  0  0  0  0  0  0  0  0
   59.8690   34.8770   46.8180 C   0  0  0  0  0  0  0  0  0  0  0  0
   60.3873   35.6104   47.4532 H   0  0  0  0  0  0  0  0  0  0  0  0
   59.2050   30.9120   49.0200 C   0  0  0  0  0  0  0  0  0  0  0  0
   59.7106   30.5724   48.1040 H   0  0  0  0  0  0  0  0  0  0  0  0
   58.5700   29.9820   49.8490 C   0  0  0  0  0  0  0  0  0  0  0  0
   58.5601   28.9171   49.5733 H   0  0  0  0  0  0  0  0  0  0  0  0
  1  2  1  0
  2  3  1  0
  3  4  2  0
  4  5  1  0
  4  6  1  0
  6  7  1  0
  6  8  2  0
  8  9  1  0
  9 10  2  0
 10 11  1  0
 11 12  1  0
 12 13  1  0
 13 14  2  0
 14 15  1  0
 14 16  1  0
 16 17  1  0
 16 18  2  0
 18 19  1  0
 18 20  1  0
 20 21  1  0
 21 22  1  0
 22 23  2  0
 22 24  2  0
 22 25  1  0
 25 26  1  0
 25 27  1  0
 25 28  1  0
 28 29  1  0
 28 30  1  0
 28 31  1  0
 20 32  2  0
 32 33  1  0
 12 34  2  0
 34 35  1  0
 34 36  1  0
 36 37  2  0
 37 38  1  0
  8 39  1  0
 39 40  1  0
 39 41  2  0
 41 42  1  0
 41  3  1  0
 37 10  1  0
 32 13  1  0
M  CHG  2  11  -1  21  -1
M  END
>  <UniqueID>  (57) 
54

>  <SMILES>  (57) 
CCS(=O)(=O)[N-]c1cccc(-c2cnc/c(=N\c3ccc(O)cc3)[n-]2)c1

>  <Energy>  (57) 
55.6416087753814

>  <Genealogy>  (57) 
CCS(=O)(=O)[N-]c1cccc(-c2cncc(=Nc3ccc(O)cc3)[n-]2)c1 (protonated)
CCS(=O)(=O)[N-]c1cccc(-c2cnc/c(=N\c3ccc(O)cc3)[n-]2)c1 (cis-trans isomerization)
CCS(=O)(=O)[N-]c1cccc(-c2cnc/c(=N\c3ccc(O)cc3)[n-]2)c1 (3D coordinates assigned)
CCS(=O)(=O)[N-]c1cccc(-c2cnc/c(=N\c3ccc(O)cc3)[n-]2)c1 (optimized conformer: 55.6416087753814 kcal/mol)

>  <smiles>  (57) 
CCS(=O)(=O)Nc1cccc(-c2cncc(=Nc3ccc(O)cc3)[nH]2)c1

>  <score_type>  (57) 
oracle

>  <origin>  (57) 
adg

>  <m_score__min__energy>  (57) 
-11.51

>  <m_primary>  (57) 
energy

$$$$
57:0
     RDKit          3D

 40 41  0  0  0  0  0  0  0  0999 V2000
   56.1960   23.6450   45.2650 C   0  0  0  0  0  0  0  0  0  0  0  0
   56.1500   25.0200   46.3970 S   0  0  0  0  0  0  0  0  0  0  0  0
   55.8730   24.4780   47.7720 O   0  0  0  0  0  0  0  0  0  0  0  0
   55.0310   25.9400   45.9970 O   0  0  0  0  0  0  0  0  0  0  0  0
   57.6800   25.8750   46.3930 N   0  0  1  0  0  0  0  0  0  0  0  0
   58.4440   25.5130   45.1770 C   0  0  0  0  0  0  0  0  0  0  0  0
   57.7280   25.8850   43.8640 C   0  0  0  0  0  0  0  0  0  0  0  0
   58.0570   27.2870   43.3150 C   0  0  0  0  0  0  0  0  0  0  0  0
   57.7850   28.3480   44.3010 N   0  0  0  0  0  0  0  0  0  0  0  0
   56.9490   29.4700   43.9540 C   0  0  0  0  0  0  0  0  0  0  0  0
   56.4700   29.5590   42.7910 O   0  0  0  0  0  0  0  0  0  0  0  0
   56.6320   30.4680   44.9370 N   0  0  0  0  0  0  0  0  0  0  0  0
   57.3640   31.6740   45.1960 C   0  0  0  0  0  0  0  0  0  0  0  0
   57.4430   32.6410   44.1850 C   0  0  0  0  0  0  0  0  0  0  0  0
   58.1280   33.8410   44.4030 C   0  0  0  0  0  0  0  0  0  0  0  0
   58.7260   34.0910   45.6430 C   0  0  0  0  0  0  0  0  0  0  0  0
   59.4280   35.3280   45.8690 C   0  0  0  0  0  0  0  0  0  0  0  0
   59.9920   36.3220   46.0510 N   0  0  0  0  0  0  0  0  0  0  0  0
   58.6290   33.1420   46.6680 C   0  0  0  0  0  0  0  0  0  0  0  0
   57.9450   31.9410   46.4490 C   0  0  0  0  0  0  0  0  0  0  0  0
   58.3030   28.2520   45.6800 C   0  0  0  0  0  0  0  0  0  0  0  0
   57.4660   27.3330   46.6020 C   0  0  0  0  0  0  0  0  0  0  0  0
   56.2275   22.7034   45.8329 H   0  0  0  0  0  0  0  0  0  0  0  0
   55.2968   23.6613   44.6316 H   0  0  0  0  0  0  0  0  0  0  0  0
   57.0921   23.7213   44.6316 H   0  0  0  0  0  0  0  0  0  0  0  0
   58.2110   25.5150   47.2200 H   0  0  0  0  0  0  0  0  0  0  0  0
   59.4113   26.0360   45.2057 H   0  0  0  0  0  0  0  0  0  0  0  0
   58.5591   24.4190   45.1825 H   0  0  0  0  0  0  0  0  0  0  0  0
   58.0101   25.1451   43.1005 H   0  0  0  0  0  0  0  0  0  0  0  0
   56.6520   25.8900   44.0924 H   0  0  0  0  0  0  0  0  0  0  0  0
   59.1224   27.3202   43.0434 H   0  0  0  0  0  0  0  0  0  0  0  0
   57.4154   27.4664   42.4397 H   0  0  0  0  0  0  0  0  0  0  0  0
   56.9629   32.4551   43.2129 H   0  0  0  0  0  0  0  0  0  0  0  0
   58.1966   34.5886   43.5990 H   0  0  0  0  0  0  0  0  0  0  0  0
   59.0909   33.3407   47.6463 H   0  0  0  0  0  0  0  0  0  0  0  0
   57.8613   31.2026   47.2600 H   0  0  0  0  0  0  0  0  0  0  0  0
   59.3292   27.8582   45.6378 H   0  0  0  0  0  0  0  0  0  0  0  0
   58.2560   29.2635   46.1098 H   0  0  0  0  0  0  0  0  0  0  0  0
   57.7224   27.5702   47.6451 H   0  0  0  0  0  0  0  0  0  0  0  0
   56.4113   27.5286   46.3582 H   0  0  0  0  0  0  0  0  0  0  0  0
  1  2  1  0
  2  3  2  0
  2  4  2  0
  2  5  1  0
  5  6  1  0
  6  7  1  0
  7  8  1  0
  8  9  1  0
  9 10  1  0
 10 11  2  0
 10 12  1  0
 12 13  1  0
 13 14  2  0
 14 15  1  0
 15 16  2  0
 16 17  1  0
 17 18  3  0
 16 19  1  0
 19 20  2  0
  9 21  1  0
 21 22  1  0
 22  5  1  0
 20 13  1  0
  1 23  1  0
  1 24  1  0
  1 25  1  0
  5 26  1  1
  6 27  1  0
  6 28  1  0
  7 29  1  0
  7 30  1  0
  8 31  1  0
  8 32  1  0
 14 33  1  0
 15 34  1  0
 19 35  1  0
 20 36  1  0
 21 37  1  0
 21 38  1  0
 22 39  1  0
 22 40  1  0
M  CHG  2   5   1  12  -1
M  END
>  <UniqueID>  (58) 
55

>  <SMILES>  (58) 
CS(=O)(=O)[N@H+]1CCCN(C(=O)[N-]c2ccc(C#N)cc2)CC1

>  <Energy>  (58) 
47.994824256533406

>  <Genealogy>  (58) 
CS(=O)(=O)[NH+]1CCCN(C(=O)[N-]c2ccc(C#N)cc2)CC1 (protonated)
CS(=O)(=O)[N@H+]1CCCN(C(=O)[N-]c2ccc(C#N)cc2)CC1 (chirality)
CS(=O)(=O)[N@H+]1CCCN(C(=O)[N-]c2ccc(C#N)cc2)CC1 (3D coordinates assigned)
CS(=O)(=O)[N@H+]1CCCN(C(=O)[N-]c2ccc(C#N)cc2)CC1 (nonaromatic ring conformer: 47.994824256533406 kcal/mol)

>  <smiles>  (58) 
CS(=O)(=O)N1CCCN(C(=O)Nc2ccc(C#N)cc2)CC1

>  <score_type>  (58) 
oracle

>  <origin>  (58) 
adg

>  <m_score__min__energy>  (58) 
-5.6200000000000001

>  <m_primary>  (58) 
energy

$$$$
58:0
     RDKit          3D

 50 52  0  0  0  0  0  0  0  0999 V2000
   68.3150   33.4800   50.5160 C   0  0  0  0  0  0  0  0  0  0  0  0
   66.9740   33.2180   50.0090 N   0  0  0  0  0  0  0  0  0  0  0  0
   65.8010   33.5420   50.7770 C   0  0  0  0  0  0  0  0  0  0  0  0
   65.9300   34.1440   51.8770 O   0  0  0  0  0  0  0  0  0  0  0  0
   64.4810   33.2110   50.2980 N   0  0  0  0  0  0  0  0  0  0  0  0
   64.3110   32.1950   49.2450 C   0  0  0  0  0  0  0  0  0  0  0  0
   62.9460   31.5120   49.3560 C   0  0  0  0  0  0  0  0  0  0  0  0
   61.8990   32.5210   49.5260 N   0  0  0  0  0  0  0  0  0  0  0  0
   60.9270   32.7820   48.4970 C   0  0  0  0  0  0  0  0  0  0  0  0
   60.2660   31.7190   47.8640 C   0  0  0  0  0  0  0  0  0  0  0  0
   59.3080   31.9660   46.8780 C   0  0  0  0  0  0  0  0  0  0  0  0
   58.9920   33.2840   46.5120 C   0  0  0  0  0  0  0  0  0  0  0  0
   57.7550   33.5960   45.2960 S   0  0  0  0  0  0  0  0  0  0  0  0
   58.3310   34.3350   44.1180 O   0  0  0  0  0  0  0  0  0  0  0  0
   56.6640   34.4320   45.9060 O   0  0  0  0  0  0  0  0  0  0  0  0
   57.0940   32.0900   44.7530 N   0  0  0  0  0  0  0  0  0  0  0  0
   57.8640   31.1430   44.0140 C   0  0  0  0  0  0  0  0  0  0  0  0
   58.5320   31.5130   43.0080 O   0  0  0  0  0  0  0  0  0  0  0  0
   57.8880   29.7360   44.4360 C   0  0  0  0  0  0  0  0  0  0  0  0
   59.0260   28.9470   44.5770 C   0  0  0  0  0  0  0  0  0  0  0  0
   58.7520   27.6630   45.0490 C   0  0  0  0  0  0  0  0  0  0  0  0
   57.4000   27.4500   45.2820 C   0  0  0  0  0  0  0  0  0  0  0  0
   56.6910   25.9970   45.9580 S   0  0  0  0  0  0  0  0  0  0  0  0
   54.9720   26.1700   45.9990 N   0  0  0  0  0  0  0  0  0  0  0  0
   57.1980   25.7900   47.3580 O   0  0  0  0  0  0  0  0  0  0  0  0
   57.0630   24.8090   45.1150 O   0  0  0  0  0  0  0  0  0  0  0  0
   56.5430   28.8430   44.9050 S   0  0  0  0  0  0  0  0  0  0  0  0
   59.6520   34.3520   47.1430 C   0  0  0  0  0  0  0  0  0  0  0  0
   59.3540   35.6680   46.8020 O   0  0  0  0  0  0  0  0  0  0  0  0
   60.6120   34.1010   48.1260 C   0  0  0  0  0  0  0  0  0  0  0  0
   62.0440   33.4260   50.6670 C   0  0  0  0  0  0  0  0  0  0  0  0
   63.3810   34.1580   50.5570 C   0  0  0  0  0  0  0  0  0  0  0  0
   68.2983   33.4767   51.6159 H   0  0  0  0  0  0  0  0  0  0  0  0
   69.0017   32.6990   50.1574 H   0  0  0  0  0  0  0  0  0  0  0  0
   68.6572   34.4620   50.1574 H   0  0  0  0  0  0  0  0  0  0  0  0
   66.8850   32.8120   49.0510 H   0  0  0  0  0  0  0  0  0  0  0  0
   64.3914   32.6801   48.2610 H   0  0  0  0  0  0  0  0  0  0  0  0
   65.0948   31.4325   49.3644 H   0  0  0  0  0  0  0  0  0  0  0  0
   62.7512   30.9343   48.4404 H   0  0  0  0  0  0  0  0  0  0  0  0
   62.9464   30.8388   50.2260 H   0  0  0  0  0  0  0  0  0  0  0  0
   60.5040   30.6828   48.1463 H   0  0  0  0  0  0  0  0  0  0  0  0
   58.7989   31.1241   46.3861 H   0  0  0  0  0  0  0  0  0  0  0  0
   60.0403   29.3006   44.3399 H   0  0  0  0  0  0  0  0  0  0  0  0
   59.5257   26.8997   45.2187 H   0  0  0  0  0  0  0  0  0  0  0  0
   54.7670   27.0560   46.5130 H   0  0  0  0  0  0  0  0  0  0  0  0
   61.1259   34.9423   48.6140 H   0  0  0  0  0  0  0  0  0  0  0  0
   61.2222   34.1572   50.6641 H   0  0  0  0  0  0  0  0  0  0  0  0
   62.0125   32.8500   51.6036 H   0  0  0  0  0  0  0  0  0  0  0  0
   63.3278   34.8825   49.7310 H   0  0  0  0  0  0  0  0  0  0  0  0
   63.5783   34.6732   51.5086 H   0  0  0  0  0  0  0  0  0  0  0  0
  1  2  1  0
  2  3  1  0
  3  4  2  0
  3  5  1  0
  5  6  1  0
  6  7  1  0
  7  8  1  0
  8  9  1  0
  9 10  2  0
 10 11  1  0
 11 12  2  0
 12 13  1  0
 13 14  2  0
 13 15  2  0
 13 16  1  0
 16 17  1  0
 17 18  2  0
 17 19  1  0
 19 20  2  0
 20 21  1  0
 21 22  2  0
 22 23  1  0
 23 24  1  0
 23 25  2  0
 23 26  2  0
 22 27  1  0
 12 28  1  0
 28 29  1  0
 28 30  2  0
  8 31  1  0
 31 32  1  0
 32  5  1  0
 30  9  1  0
 27 19  1  0
  1 33  1  0
  1 34  1  0
  1 35  1  0
  2 36  1  0
  6 37  1  0
  6 38  1  0
  7 39  1  0
  7 40  1  0
 10 41  1  0
 11 42  1  0
 20 43  1  0
 21 44  1  0
 24 45  1  0
 30 46  1  0
 31 47  1  0
 31 48  1  0
 32 49  1  0
 32 50  1  0
M  CHG  3  16  -1  24  -1  29  -1
M  END
>  <UniqueID>  (59) 
56

>  <SMILES>  (59) 
CNC(=O)N1CCN(c2ccc(S(=O)(=O)[N-]C(=O)c3ccc(S([NH-])(=O)=O)s3)c([O-])c2)CC1

>  <Energy>  (59) 
81.83472770434783

>  <Genealogy>  (59) 
CNC(=O)N1CCN(c2ccc(S(=O)(=O)[N-]C(=O)c3ccc(S([NH-])(=O)=O)s3)c([O-])c2)CC1 (protonated)
CNC(=O)N1CCN(c2ccc(S(=O)(=O)[N-]C(=O)c3ccc(S([NH-])(=O)=O)s3)c([O-])c2)CC1 (3D coordinates assigned)
CNC(=O)N1CCN(c2ccc(S(=O)(=O)[N-]C(=O)c3ccc(S([NH-])(=O)=O)s3)c([O-])c2)CC1 (nonaromatic ring conformer: 81.83472770434783 kcal/mol)

>  <smiles>  (59) 
CNC(=O)N1CCN(c2ccc(S(=O)(=O)NC(=O)c3ccc(S(N)(=O)=O)s3)c(O)c2)CC1

>  <score_type>  (59) 
oracle

>  <origin>  (59) 
adg

>  <m_score__min__energy>  (59) 
-14.08

>  <m_primary>  (59) 
energy

$$$$
59:0
     RDKit          3D

 34 36  0  0  0  0  0  0  0  0999 V2000
   59.2805   33.4192   43.9365 H   0  0  0  0  0  0  0  0  0  0  0  0
   58.8580   33.1660   44.9200 C   0  0  0  0  0  0  0  0  0  0  0  0
   59.0580   34.0360   45.9230 C   0  0  0  0  0  0  0  0  0  0  0  0
   58.7630   35.0826   45.7569 H   0  0  0  0  0  0  0  0  0  0  0  0
   59.6480   33.6880   47.2390 C   0  0  0  0  0  0  0  0  0  0  0  0
   58.7940   33.4700   48.3330 C   0  0  0  0  0  0  0  0  0  0  0  0
   57.7048   33.5343   48.1935 H   0  0  0  0  0  0  0  0  0  0  0  0
   59.3110   33.1730   49.5940 C   0  0  0  0  0  0  0  0  0  0  0  0
   58.6277   32.9932   50.4371 H   0  0  0  0  0  0  0  0  0  0  0  0
   60.6880   33.1030   49.7910 C   0  0  0  0  0  0  0  0  0  0  0  0
   61.0879   32.8681   50.7884 H   0  0  0  0  0  0  0  0  0  0  0  0
   61.5660   33.3310   48.7220 C   0  0  0  0  0  0  0  0  0  0  0  0
   62.9540   33.2610   48.9270 C   0  0  0  0  0  0  0  0  0  0  0  0
   63.3494   33.0351   49.9283 H   0  0  0  0  0  0  0  0  0  0  0  0
   63.8330   33.4770   47.8650 C   0  0  0  0  0  0  0  0  0  0  0  0
   64.9189   33.4231   48.0323 H   0  0  0  0  0  0  0  0  0  0  0  0
   63.3390   33.7610   46.5920 C   0  0  0  0  0  0  0  0  0  0  0  0
   64.0370   33.9275   45.7583 H   0  0  0  0  0  0  0  0  0  0  0  0
   61.9610   33.8350   46.3710 C   0  0  0  0  0  0  0  0  0  0  0  0
   61.5813   34.0549   45.3623 H   0  0  0  0  0  0  0  0  0  0  0  0
   61.0530   33.6300   47.4310 C   0  0  0  0  0  0  0  0  0  0  0  0
   58.1130   31.8930   45.0360 C   0  0  0  0  0  0  0  0  0  0  0  0
   57.0500   31.6410   44.1570 C   0  0  0  0  0  0  0  0  0  0  0  0
   56.7719   32.3952   43.4061 H   0  0  0  0  0  0  0  0  0  0  0  0
   56.3410   30.4380   44.2280 C   0  0  0  0  0  0  0  0  0  0  0  0
   55.4999   30.2563   43.5427 H   0  0  0  0  0  0  0  0  0  0  0  0
   56.6980   29.4630   45.1690 C   0  0  0  0  0  0  0  0  0  0  0  0
   55.9720   28.2340   45.2420 N   0  0  0  0  0  0  0  0  0  0  0  0
   56.2520   27.4120   44.6610 H   0  0  0  0  0  0  0  0  0  0  0  0
   55.1480   28.1360   45.8770 H   0  0  0  0  0  0  0  0  0  0  0  0
   57.7780   29.6970   46.0290 C   0  0  0  0  0  0  0  0  0  0  0  0
   58.0686   28.9313   46.7634 H   0  0  0  0  0  0  0  0  0  0  0  0
   58.4890   30.8990   45.9590 C   0  0  0  0  0  0  0  0  0  0  0  0
   59.3456   31.0685   46.6279 H   0  0  0  0  0  0  0  0  0  0  0  0
  1  2  1  0
  2  3  2  0
  3  4  1  0
  3  5  1  0
  5  6  2  0
  6  7  1  0
  6  8  1  0
  8  9  1  0
  8 10  2  0
 10 11  1  0
 10 12  1  0
 12 13  2  0
 13 14  1  0
 13 15  1  0
 15 16  1  0
 15 17  2  0
 17 18  1  0
 17 19  1  0
 19 20  1  0
 19 21  2  0
  2 22  1  0
 22 23  2  0
 23 24  1  0
 23 25  1  0
 25 26  1  0
 25 27  2  0
 27 28  1  0
 28 29  1  0
 28 30  1  0
 27 31  1  0
 31 32  1  0
 31 33  2  0
 33 34  1  0
 21  5  1  0
 33 22  1  0
 21 12  1  0
M  END
>  <UniqueID>  (60) 
57

>  <SMILES>  (60) 
Nc1ccc(/C=C\c2cccc3ccccc23)cc1

>  <Energy>  (60) 
50.609663194942705

>  <Genealogy>  (60) 
Nc1ccc(/C=C\c2cccc3ccccc23)cc1 (cis-trans isomerization)
Nc1ccc(/C=C\c2cccc3ccccc23)cc1 (3D coordinates assigned)
Nc1ccc(/C=C\c2cccc3ccccc23)cc1 (optimized conformer: 50.609663194942705 kcal/mol)

>  <smiles>  (60) 
Nc1ccc(C=Cc2cccc3ccccc23)cc1

>  <score_type>  (60) 
oracle

>  <origin>  (60) 
adg

>  <m_score__min__energy>  (60) 
-8.1699999999999999

>  <m_primary>  (60) 
energy

$$$$
60:0
     RDKit          3D

 34 36  0  0  1  0  0  0  0  0999 V2000
   61.4450   30.2670   50.1010 C   0  0  0  0  0  0  0  0  0  0  0  0
   60.7750   30.4330   48.9860 C   0  0  0  0  0  0  0  0  0  0  0  0
   60.4090   31.5940   48.4390 N   0  0  0  0  0  0  0  0  0  0  0  0
   59.7210   31.3910   47.2730 C   0  0  0  0  0  0  0  0  0  0  0  0
   59.2240   32.4820   46.4820 C   0  0  0  0  0  0  0  0  0  0  0  0
   59.8880   33.6270   46.1410 C   0  0  0  0  0  0  0  0  0  0  0  0
   59.3540   34.6510   45.3940 C   0  0  0  0  0  0  0  0  0  0  0  0
   58.0560   34.5060   44.9600 C   0  0  0  0  0  0  0  0  0  0  0  0
   57.3290   33.3770   45.2670 C   0  0  0  0  0  0  0  0  0  0  0  0
   57.9060   32.3750   46.0200 C   0  0  0  0  0  0  0  0  0  0  0  0
   59.6850   30.0330   47.1290 C   0  0  0  0  0  0  0  0  0  0  0  0
   59.1880   29.3750   46.1190 C   0  0  0  0  0  0  0  0  0  0  0  0
   58.2650   28.2630   46.1710 C   0  0  0  0  0  0  0  0  0  0  0  0
   56.9770   28.4530   45.6480 C   0  0  0  0  0  0  0  0  0  0  0  0
   56.5670   29.6670   45.1260 O   0  0  0  0  0  0  0  0  0  0  0  0
   56.0940   27.4150   45.6480 N   0  0  0  0  0  0  0  0  0  0  0  0
   56.4660   26.2060   46.1540 C   0  0  0  0  0  0  0  0  0  0  0  0
   55.6180   25.2760   46.1330 O   0  0  0  0  0  0  0  0  0  0  0  0
   57.6960   26.0000   46.6610 N   0  0  0  0  0  0  0  0  0  0  0  0
   58.5860   27.0140   46.6710 C   0  0  0  0  0  0  0  0  0  0  0  0
   59.7490   26.8450   47.1430 O   0  0  0  0  0  0  0  0  0  0  0  0
   60.3310   29.4510   48.1830 N   0  0  0  0  0  0  0  0  0  0  0  0
   61.6884   29.2528   50.4506 H   0  0  0  0  0  0  0  0  0  0  0  0
   61.7637   31.1419   50.6866 H   0  0  0  0  0  0  0  0  0  0  0  0
   60.9254   33.7376   46.4895 H   0  0  0  0  0  0  0  0  0  0  0  0
   59.9408   35.5497   45.1531 H   0  0  0  0  0  0  0  0  0  0  0  0
   57.5927   35.3028   44.3596 H   0  0  0  0  0  0  0  0  0  0  0  0
   56.2925   33.2746   44.9132 H   0  0  0  0  0  0  0  0  0  0  0  0
   57.3203   31.4759   46.2619 H   0  0  0  0  0  0  0  0  0  0  0  0
   59.5056   29.7015   45.1177 H   0  0  0  0  0  0  0  0  0  0  0  0
   56.5800   30.5450   45.6230 H   0  0  0  0  0  0  0  0  0  0  0  0
   55.1440   27.5780   45.2550 H   0  0  0  0  0  0  0  0  0  0  0  0
   58.0000   25.0820   47.0530 H   0  0  0  0  0  0  0  0  0  0  0  0
   60.4730   28.4320   48.3640 H   0  0  0  0  0  0  0  0  0  0  0  0
  1  2  2  0
  2  3  1  0
  3  4  2  0
  4  5  1  0
  5  6  2  0
  6  7  1  0
  7  8  2  0
  8  9  1  0
  9 10  2  0
  4 11  1  0
 11 12  2  0
 12 13  1  0
 13 14  2  0
 14 15  1  0
 14 16  1  0
 16 17  1  0
 17 18  2  0
 17 19  1  0
 19 20  1  0
 20 21  2  0
 11 22  1  0
 22  2  1  0
 10  5  1  0
 20 13  1  0
  1 23  1  0
  1 24  1  0
  6 25  1  0
  7 26  1  0
  8 27  1  0
  9 28  1  0
 10 29  1  0
 12 30  1  0
 15 31  1  0
 16 32  1  0
 19 33  1  0
 22 34  1  0
M  END
>  <smiles>  (61) 
C=c1nc(-c2ccccc2)c(=Cc2c(O)[nH]c(=O)[nH]c2=O)[nH]1

>  <score_type>  (61) 
oracle

>  <origin>  (61) 
adg

>  <m_score__min__energy>  (61) 
-8.4399999999999995

>  <m_primary>  (61) 
energy

$$$$
61:0
     RDKit          3D

 38 39  0  0  0  0  0  0  0  0999 V2000
   63.7830   32.7320   46.8710 C   0  0  0  0  0  0  0  0  0  0  0  0
   62.4660   33.3850   47.1240 C   0  0  0  0  0  0  0  0  0  0  0  0
   61.8800   33.5670   48.3630 C   0  0  0  0  0  0  0  0  0  0  0  0
   60.6540   34.1310   48.0760 C   0  0  0  0  0  0  0  0  0  0  0  0
   59.6350   34.5650   49.0820 C   0  0  0  0  0  0  0  0  0  0  0  0
   60.5450   34.2770   46.7380 N   0  0  0  0  0  0  0  0  0  0  0  0
   59.3950   34.7940   45.9990 C   0  0  0  0  0  0  0  0  0  0  0  0
   58.2970   33.7660   45.9600 C   0  0  0  0  0  0  0  0  0  0  0  0
   57.1750   34.0840   45.4860 O   0  0  0  0  0  0  0  0  0  0  0  0
   58.5130   32.4090   46.3750 N   0  0  0  0  0  0  0  0  0  0  0  0
   59.1310   31.4690   45.7180 C   0  0  0  0  0  0  0  0  0  0  0  0
   58.9900   30.0240   46.0100 C   0  0  0  0  0  0  0  0  0  0  0  0
   59.9500   29.3860   46.8160 C   0  0  0  0  0  0  0  0  0  0  0  0
   59.8220   28.0340   47.1350 C   0  0  0  0  0  0  0  0  0  0  0  0
   58.7280   27.3060   46.6680 C   0  0  0  0  0  0  0  0  0  0  0  0
   57.7550   27.9300   45.8840 C   0  0  0  0  0  0  0  0  0  0  0  0
   57.8700   29.2890   45.5510 C   0  0  0  0  0  0  0  0  0  0  0  0
   56.6280   30.0380   44.5380 S   0  0  0  0  0  0  0  0  0  0  0  0
   56.5430   31.7320   44.8800 N   0  0  0  0  0  0  0  0  0  0  0  0
   55.2990   29.3970   44.8170 O   0  0  0  0  0  0  0  0  0  0  0  0
   56.9620   29.8560   43.0830 O   0  0  0  0  0  0  0  0  0  0  0  0
   61.6340   33.8060   46.1510 N   0  0  0  0  0  0  0  0  0  0  0  0
   64.2643   32.4933   47.8309 H   0  0  0  0  0  0  0  0  0  0  0  0
   63.6290   31.8059   46.2978 H   0  0  0  0  0  0  0  0  0  0  0  0
   64.4269   33.4152   46.2978 H   0  0  0  0  0  0  0  0  0  0  0  0
   62.2958   33.3191   49.3508 H   0  0  0  0  0  0  0  0  0  0  0  0
   60.0268   34.3981   50.0962 H   0  0  0  0  0  0  0  0  0  0  0  0
   59.4165   35.6343   48.9447 H   0  0  0  0  0  0  0  0  0  0  0  0
   58.7126   33.9816   48.9447 H   0  0  0  0  0  0  0  0  0  0  0  0
   59.0238   35.7033   46.4943 H   0  0  0  0  0  0  0  0  0  0  0  0
   59.7052   35.0268   44.9696 H   0  0  0  0  0  0  0  0  0  0  0  0
   59.7985   31.7669   44.8960 H   0  0  0  0  0  0  0  0  0  0  0  0
   60.8086   29.9577   47.1979 H   0  0  0  0  0  0  0  0  0  0  0  0
   60.5850   27.5415   47.7557 H   0  0  0  0  0  0  0  0  0  0  0  0
   58.6313   26.2390   46.9174 H   0  0  0  0  0  0  0  0  0  0  0  0
   56.8912   27.3517   45.5244 H   0  0  0  0  0  0  0  0  0  0  0  0
   56.6400   31.8360   45.9140 H   0  0  0  0  0  0  0  0  0  0  0  0
   57.3860   32.1740   44.4510 H   0  0  0  0  0  0  0  0  0  0  0  0
  1  2  1  0
  2  3  1  0
  3  4  2  0
  4  5  1  0
  4  6  1  0
  6  7  1  0
  7  8  1  0
  8  9  2  0
  8 10  1  0
 10 11  2  3
 11 12  1  0
 12 13  2  0
 13 14  1  0
 14 15  2  0
 15 16  1  0
 16 17  2  0
 17 18  1  0
 18 19  1  0
 18 20  2  0
 18 21  2  0
  6 22  1  0
 22  2  2  0
 17 12  1  0
  1 23  1  0
  1 24  1  0
  1 25  1  0
  3 26  1  0
  5 27  1  0
  5 28  1  0
  5 29  1  0
  7 30  1  0
  7 31  1  0
 11 32  1  0
 13 33  1  0
 14 34  1  0
 15 35  1  0
 16 36  1  0
 19 37  1  0
 19 38  1  0
M  END
>  <UniqueID>  (62) 
58

>  <SMILES>  (62) 
Cc1cc(C)n(CC(=O)N=Cc2ccccc2S(N)(=O)=O)n1

>  <Energy>  (62) 
73.80738566842871

>  <Genealogy>  (62) 
Cc1cc(C)n(CC(=O)N=Cc2ccccc2S(N)(=O)=O)n1 (3D coordinates assigned)
Cc1cc(C)n(CC(=O)N=Cc2ccccc2S(N)(=O)=O)n1 (optimized conformer: 73.80738566842871 kcal/mol)

>  <smiles>  (62) 
Cc1cc(C)n(CC(=O)N=Cc2ccccc2S(N)(=O)=O)n1

>  <score_type>  (62) 
oracle

>  <origin>  (62) 
adg

>  <m_score__min__energy>  (62) 
-7.4500000000000002

>  <m_primary>  (62) 
energy

$$$$
62:0
     RDKit          3D

 63 67  0  0  1  0  0  0  0  0999 V2000
   61.9860   33.7830   46.3700 C   0  0  0  0  0  0  0  0  0  0  0  0
   62.3030   33.2020   47.7370 C   0  0  0  0  0  0  0  0  0  0  0  0
   63.7610   32.7540   47.6870 C   0  0  0  0  0  0  0  0  0  0  0  0
   61.4420   32.0420   47.9850 N   0  0  0  0  0  0  0  0  0  0  0  0
   61.5010   30.8270   47.3980 C   0  0  0  0  0  0  0  0  0  0  0  0
   60.5130   30.0400   47.9280 C   0  0  0  0  0  0  0  0  0  0  0  0
   60.1310   28.6610   47.6750 C   0  0  0  0  0  0  0  0  0  0  0  0
   60.8200   27.7780   48.2950 O   0  0  0  0  0  0  0  0  0  0  0  0
   59.0630   28.2560   46.7920 C   0  0  0  0  0  0  0  0  0  0  0  0
   58.8560   26.9500   46.3890 C   0  0  0  0  0  0  0  0  0  0  0  0
   57.7840   26.6870   45.5610 C   0  0  0  0  0  0  0  0  0  0  0  0
   57.4730   25.3870   45.0730 N   0  0  0  0  0  0  0  0  0  0  0  0
   57.1750   24.2810   45.9940 C   0  0  0  0  0  0  0  0  0  0  0  0
   56.3970   23.3150   45.0850 C   0  0  0  0  0  0  0  0  0  0  0  0
   57.2300   23.4520   43.8250 C   0  0  1  0  0  0  0  0  0  0  0  0
   56.6090   22.8800   42.7360 F   0  0  0  0  0  0  0  0  0  0  0  0
   57.3840   24.9400   43.7050 C   0  0  0  0  0  0  0  0  0  0  0  0
   56.9420   27.6840   45.1480 N   0  0  0  0  0  0  0  0  0  0  0  0
   57.1210   28.9610   45.5270 C   0  0  0  0  0  0  0  0  0  0  0  0
   56.3110   29.9170   45.1390 N   0  0  0  0  0  0  0  0  0  0  0  0
   56.2330   30.0900   43.7080 C   0  0  0  0  0  0  0  0  0  0  0  0
   55.5160   29.3460   42.9910 O   0  0  0  0  0  0  0  0  0  0  0  0
   57.0530   31.2070   43.1060 C   0  0  0  0  0  0  0  0  0  0  0  0
   58.2950   31.3640   43.8440 N   0  0  0  0  0  0  0  0  0  0  0  0
   58.3070   32.3680   44.6810 C   0  0  0  0  0  0  0  0  0  0  0  0
   58.9590   33.5110   44.4070 N   0  0  0  0  0  0  0  0  0  0  0  0
   58.9230   34.5020   45.3020 C   0  0  0  0  0  0  0  0  0  0  0  0
   58.2390   34.4110   46.5150 C   0  0  0  0  0  0  0  0  0  0  0  0
   57.5860   33.2000   46.7330 C   0  0  0  0  0  0  0  0  0  0  0  0
   57.6260   32.2080   45.8280 N   0  0  0  0  0  0  0  0  0  0  0  0
   58.1920   29.2390   46.3570 C   0  0  0  0  0  0  0  0  0  0  0  0
   59.8600   30.8310   48.8560 C   0  0  0  0  0  0  0  0  0  0  0  0
   58.7830   30.5910   49.6990 C   0  0  0  0  0  0  0  0  0  0  0  0
   58.2970   31.5270   50.5360 N   0  0  0  0  0  0  0  0  0  0  0  0
   58.9120   32.7220   50.5190 C   0  0  0  0  0  0  0  0  0  0  0  0
   59.9530   33.0200   49.7310 N   0  0  0  0  0  0  0  0  0  0  0  0
   60.4460   32.0860   48.8890 C   0  0  0  0  0  0  0  0  0  0  0  0
   61.4624   34.7427   46.4919 H   0  0  0  0  0  0  0  0  0  0  0  0
   62.9214   33.9437   45.8140 H   0  0  0  0  0  0  0  0  0  0  0  0
   61.3446   33.0834   45.8140 H   0  0  0  0  0  0  0  0  0  0  0  0
   62.1361   33.9381   48.5372 H   0  0  0  0  0  0  0  0  0  0  0  0
   64.1438   32.6364   48.7115 H   0  0  0  0  0  0  0  0  0  0  0  0
   63.8313   31.7928   47.1567 H   0  0  0  0  0  0  0  0  0  0  0  0
   64.3589   33.5099   47.1567 H   0  0  0  0  0  0  0  0  0  0  0  0
   62.2210   30.5211   46.6247 H   0  0  0  0  0  0  0  0  0  0  0  0
   59.5269   26.1432   46.7191 H   0  0  0  0  0  0  0  0  0  0  0  0
   58.0970   23.8175   46.3748 H   0  0  0  0  0  0  0  0  0  0  0  0
   56.6223   24.5878   46.8942 H   0  0  0  0  0  0  0  0  0  0  0  0
   56.4042   22.2862   45.4744 H   0  0  0  0  0  0  0  0  0  0  0  0
   55.3252   23.5338   44.9696 H   0  0  0  0  0  0  0  0  0  0  0  0
   58.1965   22.9285   43.8675 H   0  0  0  0  0  0  0  0  0  0  0  0
   58.2978   25.1960   43.1487 H   0  0  0  0  0  0  0  0  0  0  0  0
   56.5551   25.4110   43.1562 H   0  0  0  0  0  0  0  0  0  0  0  0
   56.1390   27.4590   44.5220 H   0  0  0  0  0  0  0  0  0  0  0  0
   57.2803   30.9675   42.0567 H   0  0  0  0  0  0  0  0  0  0  0  0
   56.4803   32.1447   43.1586 H   0  0  0  0  0  0  0  0  0  0  0  0
   59.4584   35.4349   45.0717 H   0  0  0  0  0  0  0  0  0  0  0  0
   58.2171   35.2340   47.2445 H   0  0  0  0  0  0  0  0  0  0  0  0
   57.0248   33.0526   47.6675 H   0  0  0  0  0  0  0  0  0  0  0  0
   57.1260   31.2880   46.0060 H   0  0  0  0  0  0  0  0  0  0  0  0
   58.3568   30.2768   46.6822 H   0  0  0  0  0  0  0  0  0  0  0  0
   58.3089   29.5985   49.6824 H   0  0  0  0  0  0  0  0  0  0  0  0
   58.5366   33.5045   51.1949 H   0  0  0  0  0  0  0  0  0  0  0  0
  1  2  1  0
  2  3  1  0
  2  4  1  0
  4  5  1  0
  5  6  2  0
  6  7  1  0
  7  8  2  0
  7  9  1  0
  9 10  1  0
 10 11  2  0
 11 12  1  0
 12 13  1  0
 13 14  1  0
 14 15  1  0
 15 16  1  0
 15 17  1  0
 11 18  1  0
 18 19  1  0
 19 20  2  0
 20 21  1  0
 21 22  2  0
 21 23  1  0
 23 24  1  0
 24 25  2  3
 25 26  1  0
 26 27  2  0
 27 28  1  0
 28 29  2  0
 29 30  1  0
 19 31  1  0
  6 32  1  0
 32 33  2  0
 33 34  1  0
 34 35  2  0
 35 36  1  0
 36 37  2  0
 37  4  1  0
 31  9  2  0
 37 32  1  0
 17 12  1  0
 30 25  1  0
  1 38  1  0
  1 39  1  0
  1 40  1  0
  2 41  1  0
  3 42  1  0
  3 43  1  0
  3 44  1  0
  5 45  1  0
 10 46  1  0
 13 47  1  0
 13 48  1  0
 14 49  1  0
 14 50  1  0
 15 51  1  1
 17 52  1  0
 17 53  1  0
 18 54  1  0
 23 55  1  0
 23 56  1  0
 27 57  1  0
 28 58  1  0
 29 59  1  0
 30 60  1  0
 31 61  1  0
 33 62  1  0
 35 63  1  0
M  END
>  <smiles>  (63) 
CC(C)n1cc(C(=O)c2cc(N3CCC(F)C3)[nH]c(=NC(=O)CN=c3nccc[nH]3)c2)c2cncnc21

>  <score_type>  (63) 
oracle

>  <origin>  (63) 
adg

>  <m_score__min__energy>  (63) 
-9.6099999999999994

>  <m_primary>  (63) 
energy

$$$$
63:0
     RDKit          3D

 38 40  0  0  0  0  0  0  0  0999 V2000
   63.0530   31.6060   49.6310 C   0  0  0  0  0  0  0  0  0  0  0  0
   62.1200   32.2970   48.6870 C   0  0  0  0  0  0  0  0  0  0  0  0
   62.6080   33.4970   47.6010 S   0  0  0  0  0  0  0  0  0  0  0  0
   61.0810   33.7210   46.9560 C   0  0  0  0  0  0  0  0  0  0  0  0
   60.7400   34.6070   45.9950 N   0  0  0  0  0  0  0  0  0  0  0  0
   59.4410   34.6900   45.5990 C   0  0  0  0  0  0  0  0  0  0  0  0
   58.4790   33.8950   46.1750 N   0  0  0  0  0  0  0  0  0  0  0  0
   57.0800   34.0380   45.7550 C   0  0  0  0  0  0  0  0  0  0  0  0
   58.8150   33.0090   47.1730 C   0  0  0  0  0  0  0  0  0  0  0  0
   57.9180   32.3290   47.7430 O   0  0  0  0  0  0  0  0  0  0  0  0
   60.1590   32.8900   47.5620 C   0  0  0  0  0  0  0  0  0  0  0  0
   60.7410   32.0620   48.5510 C   0  0  0  0  0  0  0  0  0  0  0  0
   60.0200   31.0380   49.3330 C   0  0  0  0  0  0  0  0  0  0  0  0
   59.6960   31.2740   50.5270 O   0  0  0  0  0  0  0  0  0  0  0  0
   59.6140   29.8180   48.6990 N   0  0  0  0  0  0  0  0  0  0  0  0
   59.4800   29.5970   47.2880 C   0  0  0  0  0  0  0  0  0  0  0  0
   60.5840   29.1120   46.5760 C   0  0  0  0  0  0  0  0  0  0  0  0
   60.4870   28.8610   45.2050 C   0  0  0  0  0  0  0  0  0  0  0  0
   59.2800   29.0790   44.5350 C   0  0  0  0  0  0  0  0  0  0  0  0
   58.1620   29.5470   45.2380 C   0  0  0  0  0  0  0  0  0  0  0  0
   56.6270   29.7820   44.4060 S   0  0  0  0  0  0  0  0  0  0  0  0
   56.7780   29.2810   42.7590 N   0  0  0  0  0  0  0  0  0  0  0  0
   55.5570   28.9710   45.0820 O   0  0  0  0  0  0  0  0  0  0  0  0
   56.2360   31.2320   44.4550 O   0  0  0  0  0  0  0  0  0  0  0  0
   58.2600   29.7920   46.6150 C   0  0  0  0  0  0  0  0  0  0  0  0
   62.7559   31.8261   50.6670 H   0  0  0  0  0  0  0  0  0  0  0  0
   63.0100   30.5202   49.4600 H   0  0  0  0  0  0  0  0  0  0  0  0
   64.0791   31.9637   49.4600 H   0  0  0  0  0  0  0  0  0  0  0  0
   59.1575   35.4012   44.8092 H   0  0  0  0  0  0  0  0  0  0  0  0
   56.4353   34.1039   46.6438 H   0  0  0  0  0  0  0  0  0  0  0  0
   56.9694   34.9521   45.1532 H   0  0  0  0  0  0  0  0  0  0  0  0
   56.7868   33.1651   45.1532 H   0  0  0  0  0  0  0  0  0  0  0  0
   61.5337   28.9275   47.0995 H   0  0  0  0  0  0  0  0  0  0  0  0
   61.3627   28.4909   44.6516 H   0  0  0  0  0  0  0  0  0  0  0  0
   59.2077   28.8830   43.4550 H   0  0  0  0  0  0  0  0  0  0  0  0
   56.6190   28.2490   42.7390 H   0  0  0  0  0  0  0  0  0  0  0  0
   57.7730   29.4380   42.4830 H   0  0  0  0  0  0  0  0  0  0  0  0
   57.3775   30.1388   47.1726 H   0  0  0  0  0  0  0  0  0  0  0  0
  1  2  1  0
  2  3  1  0
  3  4  1  0
  4  5  1  0
  5  6  2  0
  6  7  1  0
  7  8  1  0
  7  9  1  0
  9 10  2  0
  9 11  1  0
 11 12  1  0
 12 13  1  0
 13 14  2  0
 13 15  1  0
 15 16  1  0
 16 17  2  0
 17 18  1  0
 18 19  2  0
 19 20  1  0
 20 21  1  0
 21 22  1  0
 21 23  2  0
 21 24  2  0
 20 25  2  0
 12  2  2  0
 25 16  1  0
 11  4  2  0
  1 26  1  0
  1 27  1  0
  1 28  1  0
  6 29  1  0
  8 30  1  0
  8 31  1  0
  8 32  1  0
 17 33  1  0
 18 34  1  0
 19 35  1  0
 22 36  1  0
 22 37  1  0
 25 38  1  0
M  CHG  1  15  -1
M  END
>  <UniqueID>  (64) 
59

>  <SMILES>  (64) 
Cc1sc2ncn(C)c(=O)c2c1C(=O)[N-]c1cccc(S(N)(=O)=O)c1

>  <Energy>  (64) 
82.202523194613

>  <Genealogy>  (64) 
Cc1sc2ncn(C)c(=O)c2c1C(=O)[N-]c1cccc(S(N)(=O)=O)c1 (protonated)
Cc1sc2ncn(C)c(=O)c2c1C(=O)[N-]c1cccc(S(N)(=O)=O)c1 (3D coordinates assigned)
Cc1sc2ncn(C)c(=O)c2c1C(=O)[N-]c1cccc(S(N)(=O)=O)c1 (optimized conformer: 82.202523194613 kcal/mol)

>  <smiles>  (64) 
Cc1sc2ncn(C)c(=O)c2c1C(=O)Nc1cccc(S(N)(=O)=O)c1

>  <score_type>  (64) 
oracle

>  <origin>  (64) 
adg

>  <m_score__min__energy>  (64) 
-9.7799999999999994

>  <m_primary>  (64) 
energy

$$$$
64:0
     RDKit          3D

 48 51  0  0  0  0  0  0  0  0999 V2000
   64.4045   32.4526   45.8674 H   0  0  0  0  0  0  0  0  0  0  0  0
   63.7670   32.6150   46.7490 C   0  0  0  0  0  0  0  0  0  0  0  0
   62.9800   31.5720   47.2440 C   0  0  0  0  0  0  0  0  0  0  0  0
   62.9979   30.5891   46.7505 H   0  0  0  0  0  0  0  0  0  0  0  0
   62.1700   31.7750   48.3650 C   0  0  0  0  0  0  0  0  0  0  0  0
   61.5483   30.9520   48.7472 H   0  0  0  0  0  0  0  0  0  0  0  0
   62.1460   33.0270   49.0070 C   0  0  0  0  0  0  0  0  0  0  0  0
   61.2840   33.2420   50.1950 C   0  0  0  0  0  0  0  0  0  0  0  0
   61.7440   32.8550   51.4660 C   0  0  0  0  0  0  0  0  0  0  0  0
   62.7424   32.4054   51.5714 H   0  0  0  0  0  0  0  0  0  0  0  0
   60.9430   33.0370   52.5960 C   0  0  0  0  0  0  0  0  0  0  0  0
   61.3091   32.7248   53.5852 H   0  0  0  0  0  0  0  0  0  0  0  0
   59.6800   33.6140   52.4710 C   0  0  0  0  0  0  0  0  0  0  0  0
   59.0512   33.7574   53.3621 H   0  0  0  0  0  0  0  0  0  0  0  0
   59.2120   34.0100   51.2170 C   0  0  0  0  0  0  0  0  0  0  0  0
   58.2183   34.4728   51.1258 H   0  0  0  0  0  0  0  0  0  0  0  0
   60.0030   33.8210   50.0690 C   0  0  0  0  0  0  0  0  0  0  0  0
   59.5640   34.2640   48.8110 O   0  0  0  0  0  0  0  0  0  0  0  0
   59.0980   33.4410   47.7720 C   0  0  0  0  0  0  0  0  0  0  0  0
   58.6470   32.1320   48.0190 C   0  0  0  0  0  0  0  0  0  0  0  0
   58.6431   31.7393   49.0465 H   0  0  0  0  0  0  0  0  0  0  0  0
   58.2040   31.3280   46.9660 C   0  0  0  0  0  0  0  0  0  0  0  0
   57.8489   30.3068   47.1687 H   0  0  0  0  0  0  0  0  0  0  0  0
   58.2100   31.8160   45.6540 C   0  0  0  0  0  0  0  0  0  0  0  0
   57.6700   30.7940   44.3260 S   0  0  0  0  0  0  0  0  0  0  0  0
   57.8700   31.5220   43.0260 O   0  0  0  0  0  0  0  0  0  0  0  0
   56.2090   30.4800   44.5000 O   0  0  0  0  0  0  0  0  0  0  0  0
   58.5990   29.3270   44.3380 N   0  0  0  0  0  0  0  0  0  0  0  0
   58.3410   28.2470   45.0200 C   0  0  0  0  0  0  0  0  0  0  0  0
   59.3350   27.5590   45.7460 C   0  0  0  0  0  0  0  0  0  0  0  0
   60.3715   27.9273   45.7521 H   0  0  0  0  0  0  0  0  0  0  0  0
   58.9940   26.4070   46.4570 C   0  0  0  0  0  0  0  0  0  0  0  0
   59.7627   25.8640   47.0264 H   0  0  0  0  0  0  0  0  0  0  0  0
   57.6780   25.9450   46.4450 C   0  0  0  0  0  0  0  0  0  0  0  0
   57.2380   24.4980   47.3340 Cl  0  0  0  0  0  0  0  0  0  0  0  0
   56.7160   26.6470   45.7170 C   0  0  0  0  0  0  0  0  0  0  0  0
   55.6748   26.2925   45.6999 H   0  0  0  0  0  0  0  0  0  0  0  0
   57.0620   27.7690   45.0280 N   0  0  0  0  0  0  0  0  0  0  0  0
   56.3180   28.2720   44.4940 H   0  0  0  0  0  0  0  0  0  0  0  0
   58.6850   33.1080   45.3990 C   0  0  0  0  0  0  0  0  0  0  0  0
   58.7081   33.4889   44.3673 H   0  0  0  0  0  0  0  0  0  0  0  0
   59.1310   33.9180   46.4510 C   0  0  0  0  0  0  0  0  0  0  0  0
   59.6180   35.2450   46.1670 C   0  0  0  0  0  0  0  0  0  0  0  0
   60.0090   36.3100   45.9390 N   0  0  0  0  0  0  0  0  0  0  0  0
   62.9360   34.0720   48.4960 C   0  0  0  0  0  0  0  0  0  0  0  0
   62.9182   35.0588   48.9817 H   0  0  0  0  0  0  0  0  0  0  0  0
   63.7440   33.8640   47.3740 C   0  0  0  0  0  0  0  0  0  0  0  0
   64.3625   34.6852   46.9829 H   0  0  0  0  0  0  0  0  0  0  0  0
  1  2  1  0
  2  3  2  0
  3  4  1  0
  3  5  1  0
  5  6  1  0
  5  7  2  0
  7  8  1  0
  8  9  2  0
  9 10  1  0
  9 11  1  0
 11 12  1  0
 11 13  2  0
 13 14  1  0
 13 15  1  0
 15 16  1  0
 15 17  2  0
 17 18  1  0
 18 19  1  0
 19 20  2  0
 20 21  1  0
 20 22  1  0
 22 23  1  0
 22 24  2  0
 24 25  1  0
 25 26  2  0
 25 27  2  0
 25 28  1  0
 28 29  2  0
 29 30  1  0
 30 31  1  0
 30 32  2  0
 32 33  1  0
 32 34  1  0
 34 35  1  0
 34 36  2  0
 36 37  1  0
 36 38  1  0
 38 39  1  0
 24 40  1  0
 40 41  1  0
 40 42  2  0
 42 43  1  0
 43 44  3  0
  7 45  1  0
 45 46  1  0
 45 47  2  0
 47 48  1  0
 47  2  1  0
 17  8  1  0
 42 19  1  0
 38 29  1  0
M  END
>  <UniqueID>  (65) 
60

>  <SMILES>  (65) 
N#Cc1cc(S(=O)(=O)/N=c2\ccc(Cl)c[nH]2)ccc1Oc1ccccc1-c1ccccc1

>  <Energy>  (65) 
71.56319980870323

>  <Genealogy>  (65) 
N#Cc1cc(S(=O)(=O)/N=c2\ccc(Cl)c[nH]2)ccc1Oc1ccccc1-c1ccccc1 (cis-trans isomerization)
N#Cc1cc(S(=O)(=O)/N=c2\ccc(Cl)c[nH]2)ccc1Oc1ccccc1-c1ccccc1 (3D coordinates assigned)
N#Cc1cc(S(=O)(=O)/N=c2\ccc(Cl)c[nH]2)ccc1Oc1ccccc1-c1ccccc1 (optimized conformer: 71.56319980870323 kcal/mol)

>  <smiles>  (65) 
N#Cc1cc(S(=O)(=O)N=c2ccc(Cl)c[nH]2)ccc1Oc1ccccc1-c1ccccc1

>  <score_type>  (65) 
oracle

>  <origin>  (65) 
adg

>  <m_score__min__energy>  (65) 
-9.4900000000000002

>  <m_primary>  (65) 
energy

$$$$
65:0
     RDKit          3D

 23 24  0  0  0  0  0  0  0  0999 V2000
   59.6390   32.3640   46.0500 C   0  0  0  0  0  0  0  0  0  0  0  0
   58.3860   31.8060   45.5570 N   0  0  0  0  0  0  0  0  0  0  0  0
   57.2020   32.4340   45.4390 C   0  0  0  0  0  0  0  0  0  0  0  0
   56.2900   31.6360   44.8500 N   0  0  0  0  0  0  0  0  0  0  0  0
   56.8930   30.4880   44.5710 N   0  0  0  0  0  0  0  0  0  0  0  0
   58.1650   30.6050   44.9940 C   0  0  0  0  0  0  0  0  0  0  0  0
   59.3960   29.3170   44.8050 S   0  0  0  0  0  0  0  0  0  0  0  0
   58.4520   28.1550   45.7910 C   0  0  0  0  0  0  0  0  0  0  0  0
   57.3410   27.5360   45.3450 N   0  0  0  0  0  0  0  0  0  0  0  0
   56.9880   26.8000   46.4220 C   0  0  0  0  0  0  0  0  0  0  0  0
   55.8370   25.9550   46.4490 N   0  0  0  0  0  0  0  0  0  0  0  0
   54.7610   26.3410   45.9490 O   0  0  0  0  0  0  0  0  0  0  0  0
   55.9090   24.7090   47.0270 O   0  0  0  0  0  0  0  0  0  0  0  0
   57.8240   26.9500   47.4690 N   0  0  0  0  0  0  0  0  0  0  0  0
   58.7470   27.7970   47.0540 N   0  0  0  0  0  0  0  0  0  0  0  0
   59.8380   28.2940   47.8840 C   0  0  0  0  0  0  0  0  0  0  0  0
   59.6338   32.3617   47.1500 H   0  0  0  0  0  0  0  0  0  0  0  0
   60.4798   31.7553   45.6860 H   0  0  0  0  0  0  0  0  0  0  0  0
   59.7491   33.3962   45.6860 H   0  0  0  0  0  0  0  0  0  0  0  0
   57.0049   33.4617   45.7781 H   0  0  0  0  0  0  0  0  0  0  0  0
   59.5751   28.1743   48.9454 H   0  0  0  0  0  0  0  0  0  0  0  0
   60.7533   27.7240   47.6664 H   0  0  0  0  0  0  0  0  0  0  0  0
   60.0086   29.3587   47.6664 H   0  0  0  0  0  0  0  0  0  0  0  0
  1  2  1  0
  2  3  1  0
  3  4  2  0
  4  5  1  0
  5  6  2  0
  6  7  1  0
  7  8  1  0
  8  9  2  0
  9 10  1  0
 10 11  1  0
 11 12  2  0
 11 13  1  0
 10 14  2  0
 14 15  1  0
 15 16  1  0
  6  2  1  0
 15  8  1  0
  1 17  1  0
  1 18  1  0
  1 19  1  0
  3 20  1  0
 16 21  1  0
 16 22  1  0
 16 23  1  0
M  CHG  2  11   1  13  -1
M  END
>  <UniqueID>  (66) 
61

>  <SMILES>  (66) 
Cn1cnnc1Sc1nc([N+](=O)[O-])nn1C

>  <Energy>  (66) 
84.18606098958064

>  <Genealogy>  (66) 
Cn1cnnc1Sc1nc([N+](=O)[O-])nn1C (3D coordinates assigned)
Cn1cnnc1Sc1nc([N+](=O)[O-])nn1C (optimized conformer: 84.18606098958064 kcal/mol)

>  <smiles>  (66) 
Cn1cnnc1Sc1nc([N+](=O)[O-])nn1C

>  <score_type>  (66) 
oracle

>  <origin>  (66) 
adg

>  <m_score__min__energy>  (66) 
-7.0499999999999998

>  <m_primary>  (66) 
energy

$$$$
66:0
     RDKit          3D

 42 44  0  0  0  0  0  0  0  0999 V2000
   57.3940   25.2750   44.4910 C   0  0  0  0  0  0  0  0  0  0  0  0
   56.6140   25.6990   45.7300 C   0  0  0  0  0  0  0  0  0  0  0  0
   57.2870   26.7580   46.4070 O   0  0  0  0  0  0  0  0  0  0  0  0
   58.6560   27.0180   46.2680 C   0  0  0  0  0  0  0  0  0  0  0  0
   59.5040   26.1230   46.5380 O   0  0  0  0  0  0  0  0  0  0  0  0
   59.0960   28.3260   45.8540 N   0  0  0  0  0  0  0  0  0  0  0  0
   58.7910   28.8080   44.5330 C   0  0  0  0  0  0  0  0  0  0  0  0
   57.5640   28.7600   43.9950 C   0  0  0  0  0  0  0  0  0  0  0  0
   56.3840   29.4750   44.5170 C   0  0  0  0  0  0  0  0  0  0  0  0
   55.5270   28.8250   45.1740 O   0  0  0  0  0  0  0  0  0  0  0  0
   56.2490   30.8940   44.3380 N   0  0  0  0  0  0  0  0  0  0  0  0
   57.0160   31.8120   44.8480 C   0  0  0  0  0  0  0  0  0  0  0  0
   57.5120   32.8600   44.1370 N   0  0  0  0  0  0  0  0  0  0  0  0
   58.2450   33.5060   45.0560 C   0  0  0  0  0  0  0  0  0  0  0  0
   58.9920   34.6700   44.8860 C   0  0  0  0  0  0  0  0  0  0  0  0
   59.6900   35.1650   46.0040 C   0  0  0  0  0  0  0  0  0  0  0  0
   59.6230   34.4920   47.2460 C   0  0  0  0  0  0  0  0  0  0  0  0
   58.8580   33.3170   47.3780 C   0  0  0  0  0  0  0  0  0  0  0  0
   58.1800   32.8580   46.2510 C   0  0  0  0  0  0  0  0  0  0  0  0
   57.4020   31.7700   46.1490 N   0  0  0  0  0  0  0  0  0  0  0  0
   59.7250   29.2210   46.7910 C   0  0  0  0  0  0  0  0  0  0  0  0
   59.3240   29.2280   48.1390 C   0  0  0  0  0  0  0  0  0  0  0  0
   59.9320   30.0940   49.0530 C   0  0  0  0  0  0  0  0  0  0  0  0
   60.9470   30.9570   48.6320 C   0  0  0  0  0  0  0  0  0  0  0  0
   61.3580   30.9540   47.2970 C   0  0  0  0  0  0  0  0  0  0  0  0
   60.7530   30.0890   46.3800 C   0  0  0  0  0  0  0  0  0  0  0  0
   58.3223   24.7704   44.7970 H   0  0  0  0  0  0  0  0  0  0  0  0
   56.7824   24.5852   43.8909 H   0  0  0  0  0  0  0  0  0  0  0  0
   57.6403   26.1634   43.8909 H   0  0  0  0  0  0  0  0  0  0  0  0
   55.6132   26.0411   45.4279 H   0  0  0  0  0  0  0  0  0  0  0  0
   56.5320   24.8382   46.4099 H   0  0  0  0  0  0  0  0  0  0  0  0
   59.6068   29.2381   43.9335 H   0  0  0  0  0  0  0  0  0  0  0  0
   57.4268   28.1406   43.0964 H   0  0  0  0  0  0  0  0  0  0  0  0
   59.0347   35.1832   43.9140 H   0  0  0  0  0  0  0  0  0  0  0  0
   60.2914   36.0813   45.9108 H   0  0  0  0  0  0  0  0  0  0  0  0
   60.1712   34.8883   48.1134 H   0  0  0  0  0  0  0  0  0  0  0  0
   58.7980   32.7809   48.3366 H   0  0  0  0  0  0  0  0  0  0  0  0
   58.5275   28.5483   48.4762 H   0  0  0  0  0  0  0  0  0  0  0  0
   59.6108   30.0959   50.1050 H   0  0  0  0  0  0  0  0  0  0  0  0
   61.4226   31.6391   49.3521 H   0  0  0  0  0  0  0  0  0  0  0  0
   62.1583   31.6327   46.9668 H   0  0  0  0  0  0  0  0  0  0  0  0
   61.0829   30.0872   45.3306 H   0  0  0  0  0  0  0  0  0  0  0  0
  1  2  1  0
  2  3  1  0
  3  4  1  0
  4  5  2  0
  4  6  1  0
  6  7  1  0
  7  8  2  3
  8  9  1  0
  9 10  2  0
  9 11  1  0
 11 12  2  3
 12 13  1  0
 13 14  1  0
 14 15  2  0
 15 16  1  0
 16 17  2  0
 17 18  1  0
 18 19  2  0
 19 20  1  0
  6 21  1  0
 21 22  2  0
 22 23  1  0
 23 24  2  0
 24 25  1  0
 25 26  2  0
 20 12  1  0
 26 21  1  0
 19 14  1  0
  1 27  1  0
  1 28  1  0
  1 29  1  0
  2 30  1  0
  2 31  1  0
  7 32  1  0
  8 33  1  0
 15 34  1  0
 16 35  1  0
 17 36  1  0
 18 37  1  0
 22 38  1  0
 23 39  1  0
 24 40  1  0
 25 41  1  0
 26 42  1  0
M  CHG  2  13  -1  20  -1
M  END
>  <UniqueID>  (67) 
62

>  <SMILES>  (67) 
CCOC(=O)N(C=CC(=O)N=c1[n-]c2ccccc2[n-]1)c1ccccc1

>  <Energy>  (67) 
87.95265676052543

>  <Genealogy>  (67) 
CCOC(=O)N(C=CC(=O)N=c1[n-]c2ccccc2[n-]1)c1ccccc1 (protonated)
CCOC(=O)N(C=CC(=O)N=c1[n-]c2ccccc2[n-]1)c1ccccc1 (3D coordinates assigned)
CCOC(=O)N(C=CC(=O)N=c1[n-]c2ccccc2[n-]1)c1ccccc1 (optimized conformer: 87.95265676052543 kcal/mol)

>  <smiles>  (67) 
CCOC(=O)N(C=CC(=O)N=c1[nH]c2ccccc2[nH]1)c1ccccc1

>  <score_type>  (67) 
oracle

>  <origin>  (67) 
adg

>  <m_score__min__energy>  (67) 
-10.779999999999999

>  <m_primary>  (67) 
energy

$$$$
67:0
     RDKit          3D

 60 63  0  0  0  0  0  0  0  0999 V2000
   57.7690   26.3090   43.0660 C   0  0  0  0  0  0  0  0  0  0  0  0
   57.9620   26.6250   44.5230 C   0  0  0  0  0  0  0  0  0  0  0  0
   57.9720   25.5850   45.4660 C   0  0  0  0  0  0  0  0  0  0  0  0
   58.1430   25.8630   46.8210 C   0  0  0  0  0  0  0  0  0  0  0  0
   58.3260   27.1770   47.2520 C   0  0  0  0  0  0  0  0  0  0  0  0
   58.3470   28.2320   46.3270 C   0  0  0  0  0  0  0  0  0  0  0  0
   58.5810   29.6360   46.8210 C   0  0  0  0  0  0  0  0  0  0  0  0
   58.1350   27.9580   44.9540 C   0  0  0  0  0  0  0  0  0  0  0  0
   58.1270   29.0230   43.9930 N   0  0  0  0  0  0  0  0  0  0  0  0
   57.1640   30.0840   44.0390 C   0  0  0  0  0  0  0  0  0  0  0  0
   56.1730   30.0130   44.8160 O   0  0  0  0  0  0  0  0  0  0  0  0
   57.3560   31.3060   43.1970 C   0  0  0  0  0  0  0  0  0  0  0  0
   57.7770   32.4450   44.0680 C   0  0  0  0  0  0  0  0  0  0  0  0
   58.5360   33.4710   43.6380 N   0  0  0  0  0  0  0  0  0  0  0  0
   58.7440   34.1940   44.6950 O   0  0  0  0  0  0  0  0  0  0  0  0
   58.1590   33.6410   45.7290 C   0  0  0  0  0  0  0  0  0  0  0  0
   58.1810   34.2100   47.1100 C   0  0  0  0  0  0  0  0  0  0  0  0
   59.5770   34.2940   47.5920 N   0  0  0  0  0  0  0  0  0  0  0  0
   59.6780   34.5670   49.0390 C   0  0  0  0  0  0  0  0  0  0  0  0
   59.2870   33.3590   49.9160 C   0  0  0  0  0  0  0  0  0  0  0  0
   59.4190   32.0080   49.1960 C   0  0  0  0  0  0  0  0  0  0  0  0
   60.5500   31.9950   48.1610 C   0  0  2  0  0  0  0  0  0  0  0  0
   61.8920   31.9510   48.8450 C   0  0  0  0  0  0  0  0  0  0  0  0
   62.9050   32.7910   48.5380 N   0  0  0  0  0  0  0  0  0  0  0  0
   63.8960   32.3900   49.3580 C   0  0  0  0  0  0  0  0  0  0  0  0
   65.2630   32.9900   49.3740 C   0  0  0  0  0  0  0  0  0  0  0  0
   63.4580   31.3220   50.1090 C   0  0  0  0  0  0  0  0  0  0  0  0
   64.2300   30.5540   51.1290 C   0  0  0  0  0  0  0  0  0  0  0  0
   62.2180   31.0750   49.7720 O   0  0  0  0  0  0  0  0  0  0  0  0
   60.4470   33.1750   47.1520 C   0  0  0  0  0  0  0  0  0  0  0  0
   57.5190   32.5050   45.3910 N   0  0  0  0  0  0  0  0  0  0  0  0
   57.1980   25.3741   42.9661 H   0  0  0  0  0  0  0  0  0  0  0  0
   57.2174   27.1290   42.5829 H   0  0  0  0  0  0  0  0  0  0  0  0
   58.7504   26.1927   42.5829 H   0  0  0  0  0  0  0  0  0  0  0  0
   57.8441   24.5443   45.1334 H   0  0  0  0  0  0  0  0  0  0  0  0
   58.1336   25.0426   47.5537 H   0  0  0  0  0  0  0  0  0  0  0  0
   58.4547   27.3875   48.3240 H   0  0  0  0  0  0  0  0  0  0  0  0
   58.5820   29.6423   47.9210 H   0  0  0  0  0  0  0  0  0  0  0  0
   59.5518   29.9977   46.4513 H   0  0  0  0  0  0  0  0  0  0  0  0
   57.7800   30.2930   46.4513 H   0  0  0  0  0  0  0  0  0  0  0  0
   58.7950   28.9790   43.1900 H   0  0  0  0  0  0  0  0  0  0  0  0
   58.1329   31.1139   42.4424 H   0  0  0  0  0  0  0  0  0  0  0  0
   56.4116   31.5577   42.6922 H   0  0  0  0  0  0  0  0  0  0  0  0
   57.7370   35.2164   47.0980 H   0  0  0  0  0  0  0  0  0  0  0  0
   57.6021   33.5591   47.7817 H   0  0  0  0  0  0  0  0  0  0  0  0
   60.7169   34.8449   49.2703 H   0  0  0  0  0  0  0  0  0  0  0  0
   58.9715   35.3785   49.2679 H   0  0  0  0  0  0  0  0  0  0  0  0
   59.9395   33.3464   50.8015 H   0  0  0  0  0  0  0  0  0  0  0  0
   58.2262   33.4817   50.1798 H   0  0  0  0  0  0  0  0  0  0  0  0
   59.6194   31.2283   49.9456 H   0  0  0  0  0  0  0  0  0  0  0  0
   58.4764   31.8250   48.6593 H   0  0  0  0  0  0  0  0  0  0  0  0
   60.4422   31.0778   47.5635 H   0  0  0  0  0  0  0  0  0  0  0  0
   65.5886   33.1329   50.4150 H   0  0  0  0  0  0  0  0  0  0  0  0
   65.9648   32.3172   48.8594 H   0  0  0  0  0  0  0  0  0  0  0  0
   65.2428   33.9620   48.8594 H   0  0  0  0  0  0  0  0  0  0  0  0
   63.9171   30.8653   52.1366 H   0  0  0  0  0  0  0  0  0  0  0  0
   64.0376   29.4785   51.0012 H   0  0  0  0  0  0  0  0  0  0  0  0
   65.3045   30.7520   51.0012 H   0  0  0  0  0  0  0  0  0  0  0  0
   61.4590   33.5729   46.9858 H   0  0  0  0  0  0  0  0  0  0  0  0
   59.9878   32.7647   46.2405 H   0  0  0  0  0  0  0  0  0  0  0  0
  1  2  1  0
  2  3  2  0
  3  4  1  0
  4  5  2  0
  5  6  1  0
  6  7  1  0
  6  8  2  0
  8  9  1  0
  9 10  1  0
 10 11  2  0
 10 12  1  0
 12 13  1  0
 13 14  2  0
 14 15  1  0
 15 16  1  0
 16 17  1  0
 17 18  1  0
 18 19  1  0
 19 20  1  0
 20 21  1  0
 21 22  1  0
 22 23  1  0
 23 24  2  0
 24 25  1  0
 25 26  1  0
 25 27  2  0
 27 28  1  0
 27 29  1  0
 22 30  1  0
 16 31  2  0
  8  2  1  0
 31 13  1  0
 30 18  1  0
 29 23  1  0
  1 32  1  0
  1 33  1  0
  1 34  1  0
  3 35  1  0
  4 36  1  0
  5 37  1  0
  7 38  1  0
  7 39  1  0
  7 40  1  0
  9 41  1  0
 12 42  1  0
 12 43  1  0
 17 44  1  0
 17 45  1  0
 19 46  1  0
 19 47  1  0
 20 48  1  0
 20 49  1  0
 21 50  1  0
 21 51  1  0
 22 52  1  6
 26 53  1  0
 26 54  1  0
 26 55  1  0
 28 56  1  0
 28 57  1  0
 28 58  1  0
 30 59  1  0
 30 60  1  0
M  END
>  <UniqueID>  (68) 
63

>  <SMILES>  (68) 
Cc1cccc(C)c1NC(=O)Cc1noc(CN2CCC[C@H](c3nc(C)c(C)o3)C2)n1

>  <Energy>  (68) 
134.93674282886778

>  <Genealogy>  (68) 
Cc1cccc(C)c1NC(=O)Cc1noc(CN2CCC[C@H](c3nc(C)c(C)o3)C2)n1 (chirality)
Cc1cccc(C)c1NC(=O)Cc1noc(CN2CCC[C@H](c3nc(C)c(C)o3)C2)n1 (3D coordinates assigned)
Cc1cccc(C)c1NC(=O)Cc1noc(CN2CCC[C@H](c3nc(C)c(C)o3)C2)n1 (nonaromatic ring conformer: 134.93674282886778 kcal/mol)

>  <smiles>  (68) 
Cc1cccc(C)c1NC(=O)Cc1noc(CN2CCCC(c3nc(C)c(C)o3)C2)n1

>  <score_type>  (68) 
oracle

>  <origin>  (68) 
adg

>  <m_score__min__energy>  (68) 
-9.6899999999999995

>  <m_primary>  (68) 
energy

$$$$
68:0
     RDKit          3D

 37 39  0  0  0  0  0  0  0  0999 V2000
   57.8050   29.2342   50.7399 H   0  0  0  0  0  0  0  0  0  0  0  0
   58.1810   30.2640   50.8300 C   0  0  0  0  0  0  0  0  0  0  0  0
   59.3350   30.6230   50.2080 N   0  0  0  0  0  0  0  0  0  0  0  0
   59.8420   31.8880   50.2950 C   0  0  0  0  0  0  0  0  0  0  0  0
   60.9600   32.2030   49.7060 N   0  0  0  0  0  0  0  0  0  0  0  0
   61.1610   32.2500   48.2860 C   0  0  0  0  0  0  0  0  0  0  0  0
   62.3300   32.1360   47.8330 O   0  0  0  0  0  0  0  0  0  0  0  0
   60.0380   32.4770   47.3480 C   0  0  0  0  0  0  0  0  0  0  0  0
   59.3190   33.6820   47.4220 C   0  0  0  0  0  0  0  0  0  0  0  0
   59.5981   34.4394   48.1693 H   0  0  0  0  0  0  0  0  0  0  0  0
   58.2530   33.9250   46.5540 C   0  0  0  0  0  0  0  0  0  0  0  0
   57.7079   34.8790   46.6062 H   0  0  0  0  0  0  0  0  0  0  0  0
   57.8790   32.9590   45.6210 C   0  0  0  0  0  0  0  0  0  0  0  0
   57.0374   33.1519   44.9394 H   0  0  0  0  0  0  0  0  0  0  0  0
   58.5690   31.7480   45.5490 C   0  0  0  0  0  0  0  0  0  0  0  0
   58.2539   30.9823   44.8248 H   0  0  0  0  0  0  0  0  0  0  0  0
   59.6660   31.4990   46.3970 C   0  0  0  0  0  0  0  0  0  0  0  0
   60.3330   30.2250   46.3890 N   0  0  0  0  0  0  0  0  0  0  0  0
   59.9950   29.0720   45.6060 C   0  0  0  0  0  0  0  0  0  0  0  0
   60.8330   28.6550   44.7630 O   0  0  0  0  0  0  0  0  0  0  0  0
   58.6770   28.3990   45.7100 C   0  0  0  0  0  0  0  0  0  0  0  0
   58.5820   27.1150   46.2750 C   0  0  0  0  0  0  0  0  0  0  0  0
   59.4870   26.6141   46.6493 H   0  0  0  0  0  0  0  0  0  0  0  0
   57.3440   26.4710   46.3640 C   0  0  0  0  0  0  0  0  0  0  0  0
   57.2779   25.4703   46.8159 H   0  0  0  0  0  0  0  0  0  0  0  0
   56.1910   27.0940   45.8810 C   0  0  0  0  0  0  0  0  0  0  0  0
   54.9640   26.4480   45.9720 O   0  0  0  0  0  0  0  0  0  0  0  0
   56.2760   28.3670   45.3040 C   0  0  0  0  0  0  0  0  0  0  0  0
   55.1340   28.9900   44.8130 O   0  0  0  0  0  0  0  0  0  0  0  0
   57.5130   29.0130   45.2170 C   0  0  0  0  0  0  0  0  0  0  0  0
   57.5756   30.0109   44.7585 H   0  0  0  0  0  0  0  0  0  0  0  0
   59.1630   32.8500   51.0590 C   0  0  0  0  0  0  0  0  0  0  0  0
   59.6610   34.1440   51.1780 O   0  0  0  0  0  0  0  0  0  0  0  0
   57.9710   32.5010   51.6980 C   0  0  0  0  0  0  0  0  0  0  0  0
   57.4251   33.2492   52.2914 H   0  0  0  0  0  0  0  0  0  0  0  0
   57.4730   31.2020   51.5830 C   0  0  0  0  0  0  0  0  0  0  0  0
   56.5330   30.9207   52.0803 H   0  0  0  0  0  0  0  0  0  0  0  0
  1  2  1  0
  2  3  1  0
  3  4  1  0
  4  5  2  0
  5  6  1  0
  6  7  2  0
  6  8  1  0
  8  9  2  0
  9 10  1  0
  9 11  1  0
 11 12  1  0
 11 13  2  0
 13 14  1  0
 13 15  1  0
 15 16  1  0
 15 17  2  0
 17 18  1  0
 18 19  1  0
 19 20  2  0
 19 21  1  0
 21 22  2  0
 22 23  1  0
 22 24  1  0
 24 25  1  0
 24 26  2  0
 26 27  1  0
 26 28  1  0
 28 29  1  0
 28 30  2  0
 30 31  1  0
  4 32  1  0
 32 33  1  0
 32 34  2  0
 34 35  1  0
 34 36  1  0
 36 37  1  0
 36  2  2  0
 17  8  1  0
 30 21  1  0
M  CHG  5   3  -1  18  -1  27  -1  29  -1  33  -1
M  END
>  <UniqueID>  (69) 
64

>  <SMILES>  (69) 
O=C([N-]c1ccccc1C(=O)/N=c1\[n-]cccc1[O-])c1ccc([O-])c([O-])c1

>  <Energy>  (69) 
56.90679870640385

>  <Genealogy>  (69) 
O=C([N-]c1ccccc1C(=O)N=c1[n-]cccc1[O-])c1ccc([O-])c([O-])c1 (protonated)
O=C([N-]c1ccccc1C(=O)/N=c1\[n-]cccc1[O-])c1ccc([O-])c([O-])c1 (cis-trans isomerization)
O=C([N-]c1ccccc1C(=O)/N=c1\[n-]cccc1[O-])c1ccc([O-])c([O-])c1 (3D coordinates assigned)
O=C([N-]c1ccccc1C(=O)/N=c1\[n-]cccc1[O-])c1ccc([O-])c([O-])c1 (optimized conformer: 56.90679870640385 kcal/mol)

>  <smiles>  (69) 
O=C(Nc1ccccc1C(=O)N=c1[nH]cccc1O)c1ccc(O)c(O)c1

>  <score_type>  (69) 
oracle

>  <origin>  (69) 
adg

>  <m_score__min__energy>  (69) 
-17.93

>  <m_primary>  (69) 
energy

$$$$
69:0
     RDKit          3D

 46 49  0  0  0  0  0  0  0  0999 V2000
   55.9490   29.7480   43.0360 C   0  0  0  0  0  0  0  0  0  0  0  0
   56.8690   30.7110   43.0290 C   0  0  0  0  0  0  0  0  0  0  0  0
   57.4190   31.2920   44.2680 C   0  0  0  0  0  0  0  0  0  0  0  0
   57.1030   30.8070   45.3910 O   0  0  0  0  0  0  0  0  0  0  0  0
   58.3470   32.3850   44.1850 N   0  0  0  0  0  0  0  0  0  0  0  0
   58.7840   33.1600   45.3150 C   0  0  0  0  0  0  0  0  0  0  0  0
   59.0910   34.5270   45.1930 C   0  0  0  0  0  0  0  0  0  0  0  0
   59.5390   35.2500   46.3000 C   0  0  0  0  0  0  0  0  0  0  0  0
   59.6990   34.6170   47.5350 C   0  0  0  0  0  0  0  0  0  0  0  0
   59.4200   33.2480   47.6710 C   0  0  0  0  0  0  0  0  0  0  0  0
   59.5890   32.5920   48.9420 N   0  0  0  0  0  0  0  0  0  0  0  0
   59.5200   33.1270   50.1930 C   0  0  0  0  0  0  0  0  0  0  0  0
   59.3120   34.3490   50.4130 O   0  0  0  0  0  0  0  0  0  0  0  0
   59.7200   32.2300   51.1970 N   0  0  0  0  0  0  0  0  0  0  0  0
   59.9240   31.0870   50.5180 C   0  0  0  0  0  0  0  0  0  0  0  0
   60.1550   29.8110   51.0070 C   0  0  0  0  0  0  0  0  0  0  0  0
   60.2950   28.8010   50.0990 N   0  0  0  0  0  0  0  0  0  0  0  0
   60.2170   29.0310   48.7440 C   0  0  0  0  0  0  0  0  0  0  0  0
   60.3260   28.0560   47.8900 N   0  0  0  0  0  0  0  0  0  0  0  0
   59.4300   27.7550   46.8070 C   0  0  0  0  0  0  0  0  0  0  0  0
   59.6570   28.3500   45.5590 C   0  0  0  0  0  0  0  0  0  0  0  0
   58.8210   28.0630   44.4770 C   0  0  0  0  0  0  0  0  0  0  0  0
   57.7650   27.1600   44.6260 C   0  0  0  0  0  0  0  0  0  0  0  0
   57.5510   26.5260   45.8570 C   0  0  0  0  0  0  0  0  0  0  0  0
   56.2320   25.3750   46.0520 S   0  0  0  0  0  0  0  0  0  0  0  0
   54.7210   26.1930   45.8670 N   0  0  0  0  0  0  0  0  0  0  0  0
   56.3050   24.7500   47.4160 O   0  0  0  0  0  0  0  0  0  0  0  0
   56.3380   24.2890   45.0170 O   0  0  0  0  0  0  0  0  0  0  0  0
   58.3860   26.8190   46.9430 C   0  0  0  0  0  0  0  0  0  0  0  0
   59.9770   30.2940   48.2810 N   0  0  0  0  0  0  0  0  0  0  0  0
   59.8510   31.2980   49.1830 C   0  0  0  0  0  0  0  0  0  0  0  0
   58.9700   32.5260   46.5520 C   0  0  0  0  0  0  0  0  0  0  0  0
   55.5676   29.3448   42.0863 H   0  0  0  0  0  0  0  0  0  0  0  0
   55.5705   29.3559   43.9915 H   0  0  0  0  0  0  0  0  0  0  0  0
   57.2327   31.0876   42.0616 H   0  0  0  0  0  0  0  0  0  0  0  0
   58.7970   32.5720   43.2600 H   0  0  0  0  0  0  0  0  0  0  0  0
   58.9776   35.0289   44.2208 H   0  0  0  0  0  0  0  0  0  0  0  0
   59.7667   36.3215   46.1995 H   0  0  0  0  0  0  0  0  0  0  0  0
   60.0453   35.1941   48.4051 H   0  0  0  0  0  0  0  0  0  0  0  0
   60.2231   29.6188   52.0879 H   0  0  0  0  0  0  0  0  0  0  0  0
   60.4982   29.0470   45.4303 H   0  0  0  0  0  0  0  0  0  0  0  0
   58.9945   28.5490   43.5055 H   0  0  0  0  0  0  0  0  0  0  0  0
   57.1008   26.9466   43.7756 H   0  0  0  0  0  0  0  0  0  0  0  0
   54.7950   27.0920   46.3960 H   0  0  0  0  0  0  0  0  0  0  0  0
   58.2255   26.3152   47.9076 H   0  0  0  0  0  0  0  0  0  0  0  0
   58.7611   31.4503   46.6478 H   0  0  0  0  0  0  0  0  0  0  0  0
  1  2  2  0
  2  3  1  0
  3  4  2  0
  3  5  1  0
  5  6  1  0
  6  7  2  0
  7  8  1  0
  8  9  2  0
  9 10  1  0
 10 11  1  0
 11 12  1  0
 12 13  2  0
 12 14  1  0
 14 15  1  0
 15 16  2  0
 16 17  1  0
 17 18  1  0
 18 19  2  3
 19 20  1  0
 20 21  2  0
 21 22  1  0
 22 23  2  0
 23 24  1  0
 24 25  1  0
 25 26  1  0
 25 27  2  0
 25 28  2  0
 24 29  2  0
 18 30  1  0
 30 31  2  0
 10 32  2  0
 32  6  1  0
 31 11  1  0
 31 15  1  0
 29 20  1  0
  1 33  1  0
  1 34  1  0
  2 35  1  0
  5 36  1  0
  7 37  1  0
  8 38  1  0
  9 39  1  0
 16 40  1  0
 21 41  1  0
 22 42  1  0
 23 43  1  0
 26 44  1  0
 29 45  1  0
 32 46  1  0
M  CHG  3  14  -1  17  -1  26  -1
M  END
>  <UniqueID>  (70) 
65

>  <SMILES>  (70) 
C=CC(=O)Nc1cccc(-n2c(=O)[n-]c3c[n-]c(=Nc4cccc(S([NH-])(=O)=O)c4)nc32)c1

>  <Energy>  (70) 
105.2808360069716

>  <Genealogy>  (70) 
C=CC(=O)Nc1cccc(-n2c(=O)[n-]c3c[n-]c(=Nc4cccc(S([NH-])(=O)=O)c4)nc32)c1 (protonated)
C=CC(=O)Nc1cccc(-n2c(=O)[n-]c3c[n-]c(=Nc4cccc(S([NH-])(=O)=O)c4)nc32)c1 (3D coordinates assigned)
C=CC(=O)Nc1cccc(-n2c(=O)[n-]c3c[n-]c(=Nc4cccc(S([NH-])(=O)=O)c4)nc32)c1 (optimized conformer: 105.2808360069716 kcal/mol)

>  <smiles>  (70) 
C=CC(=O)Nc1cccc(-n2c(=O)[nH]c3c[nH]c(=Nc4cccc(S(N)(=O)=O)c4)nc32)c1

>  <score_type>  (70) 
oracle

>  <origin>  (70) 
adg

>  <m_score__min__energy>  (70) 
-14.67

>  <m_primary>  (70) 
energy

$$$$
70:0
     RDKit          3D

 39 41  0  0  0  0  0  0  0  0999 V2000
   57.4675   34.7197   43.9073 H   0  0  0  0  0  0  0  0  0  0  0  0
   57.8720   34.3970   44.8780 C   0  0  0  0  0  0  0  0  0  0  0  0
   57.0390   33.7730   45.8080 C   0  0  0  0  0  0  0  0  0  0  0  0
   55.9775   33.6084   45.5712 H   0  0  0  0  0  0  0  0  0  0  0  0
   57.5520   33.3570   47.0400 C   0  0  0  0  0  0  0  0  0  0  0  0
   56.8896   32.8737   47.7733 H   0  0  0  0  0  0  0  0  0  0  0  0
   58.9100   33.5530   47.3470 C   0  0  0  0  0  0  0  0  0  0  0  0
   59.4440   33.0990   48.6810 C   0  0  0  0  0  0  0  0  0  0  0  0
   59.3856   33.9328   49.3961 H   0  0  0  0  0  0  0  0  0  0  0  0
   60.4884   32.7783   48.5534 H   0  0  0  0  0  0  0  0  0  0  0  0
   58.6830   31.9980   49.1810 O   0  0  0  0  0  0  0  0  0  0  0  0
   59.1780   30.7020   49.4160 C   0  0  0  0  0  0  0  0  0  0  0  0
   59.4940   30.2560   50.7160 C   0  0  0  0  0  0  0  0  0  0  0  0
   59.3302   30.9222   51.5759 H   0  0  0  0  0  0  0  0  0  0  0  0
   60.0130   28.9760   50.9210 C   0  0  0  0  0  0  0  0  0  0  0  0
   60.3160   28.5620   52.1760 F   0  0  0  0  0  0  0  0  0  0  0  0
   60.2200   28.1250   49.8370 C   0  0  0  0  0  0  0  0  0  0  0  0
   60.6319   27.1182   50.0005 H   0  0  0  0  0  0  0  0  0  0  0  0
   59.9060   28.5470   48.5450 C   0  0  0  0  0  0  0  0  0  0  0  0
   60.0710   27.8683   47.6952 H   0  0  0  0  0  0  0  0  0  0  0  0
   59.3800   29.8330   48.3180 C   0  0  0  0  0  0  0  0  0  0  0  0
   59.0660   30.2600   46.9280 C   0  0  0  0  0  0  0  0  0  0  0  0
   59.9170   30.9010   46.2570 O   0  0  0  0  0  0  0  0  0  0  0  0
   57.7640   30.0510   46.3640 N   0  0  0  0  0  0  0  0  0  0  0  0
   57.3750   30.2430   45.1310 C   0  0  0  0  0  0  0  0  0  0  0  0
   56.2590   29.5820   44.5530 C   0  0  0  0  0  0  0  0  0  0  0  0
   55.5260   28.6170   45.2350 O   0  0  0  0  0  0  0  0  0  0  0  0
   55.9000   29.8750   43.2350 C   0  0  0  0  0  0  0  0  0  0  0  0
   55.0228   29.3876   42.7844 H   0  0  0  0  0  0  0  0  0  0  0  0
   56.6490   30.7820   42.4900 C   0  0  0  0  0  0  0  0  0  0  0  0
   56.3661   31.0174   41.4534 H   0  0  0  0  0  0  0  0  0  0  0  0
   57.7600   31.3880   43.0710 C   0  0  0  0  0  0  0  0  0  0  0  0
   58.3649   32.0979   42.4877 H   0  0  0  0  0  0  0  0  0  0  0  0
   58.1000   31.1050   44.3580 N   0  0  0  0  0  0  0  0  0  0  0  0
   58.9370   31.5830   44.7640 H   0  0  0  0  0  0  0  0  0  0  0  0
   59.7400   34.1980   46.4100 C   0  0  0  0  0  0  0  0  0  0  0  0
   61.0500   34.4250   46.6810 F   0  0  0  0  0  0  0  0  0  0  0  0
   59.2190   34.6120   45.1790 C   0  0  0  0  0  0  0  0  0  0  0  0
   59.8722   35.1083   44.4461 H   0  0  0  0  0  0  0  0  0  0  0  0
  1  2  1  0
  2  3  2  0
  3  4  1  0
  3  5  1  0
  5  6  1  0
  5  7  2  0
  7  8  1  0
  8  9  1  0
  8 10  1  0
  8 11  1  0
 11 12  1  0
 12 13  2  0
 13 14  1  0
 13 15  1  0
 15 16  1  0
 15 17  2  0
 17 18  1  0
 17 19  1  0
 19 20  1  0
 19 21  2  0
 21 22  1  0
 22 23  2  0
 22 24  1  0
 24 25  2  0
 25 26  1  0
 26 27  1  0
 26 28  2  0
 28 29  1  0
 28 30  1  0
 30 31  1  0
 30 32  2  0
 32 33  1  0
 32 34  1  0
 34 35  1  0
  7 36  1  0
 36 37  1  0
 36 38  2  0
 38 39  1  0
 38  2  1  0
 21 12  1  0
 34 25  1  0
M  CHG  1  27  -1
M  END
>  <UniqueID>  (71) 
66

>  <SMILES>  (71) 
O=C(/N=c1/[nH]cccc1[O-])c1ccc(F)cc1OCc1ccccc1F

>  <Energy>  (71) 
57.76572493970117

>  <Genealogy>  (71) 
O=C(N=c1[nH]cccc1[O-])c1ccc(F)cc1OCc1ccccc1F (protonated)
O=C(/N=c1/[nH]cccc1[O-])c1ccc(F)cc1OCc1ccccc1F (cis-trans isomerization)
O=C(/N=c1/[nH]cccc1[O-])c1ccc(F)cc1OCc1ccccc1F (3D coordinates assigned)
O=C(/N=c1/[nH]cccc1[O-])c1ccc(F)cc1OCc1ccccc1F (optimized conformer: 57.76572493970117 kcal/mol)

>  <smiles>  (71) 
O=C(N=c1[nH]cccc1O)c1ccc(F)cc1OCc1ccccc1F

>  <score_type>  (71) 
oracle

>  <origin>  (71) 
adg

>  <m_score__min__energy>  (71) 
-10.77

>  <m_primary>  (71) 
energy

$$$$
71:0
     RDKit          3D

 48 51  0  0  0  0  0  0  0  0999 V2000
   55.6590   23.4600   47.0060 C   0  0  0  0  0  0  0  0  0  0  0  0
   56.9560   24.0320   47.1480 O   0  0  0  0  0  0  0  0  0  0  0  0
   57.3450   25.2600   46.5920 C   0  0  0  0  0  0  0  0  0  0  0  0
   58.7100   25.5150   46.4370 C   0  0  0  0  0  0  0  0  0  0  0  0
   59.1540   26.7230   45.8930 C   0  0  0  0  0  0  0  0  0  0  0  0
   58.2300   27.7140   45.4950 C   0  0  0  0  0  0  0  0  0  0  0  0
   58.6250   28.9640   44.9520 C   0  0  0  0  0  0  0  0  0  0  0  0
   60.0960   29.3130   44.8450 C   0  0  0  0  0  0  0  0  0  0  0  0
   57.6150   29.8540   44.4930 C   0  0  0  0  0  0  0  0  0  0  0  0
   57.9400   31.1790   43.8250 C   0  0  0  0  0  0  0  0  0  0  0  0
   57.6440   32.3330   44.7470 C   0  0  0  0  0  0  0  0  0  0  0  0
   57.0230   33.3330   44.2990 O   0  0  0  0  0  0  0  0  0  0  0  0
   58.0050   32.3090   46.1330 N   0  0  0  0  0  0  0  0  0  0  0  0
   59.3220   32.5090   46.6550 C   0  0  0  0  0  0  0  0  0  0  0  0
   60.3480   33.7400   46.1430 S   0  0  0  0  0  0  0  0  0  0  0  0
   61.6420   33.2810   47.1130 C   0  0  0  0  0  0  0  0  0  0  0  0
   61.3130   32.1170   47.8030 C   0  0  0  0  0  0  0  0  0  0  0  0
   59.9990   31.6830   47.5570 C   0  0  0  0  0  0  0  0  0  0  0  0
   59.4520   30.4670   48.1020 C   0  0  0  0  0  0  0  0  0  0  0  0
   59.0140   29.4900   48.5420 N   0  0  0  0  0  0  0  0  0  0  0  0
   62.2730   31.4660   48.7660 C   0  0  0  0  0  0  0  0  0  0  0  0
   63.7230   31.9150   48.5110 C   0  0  0  0  0  0  0  0  0  0  0  0
   63.8140   33.4410   48.3360 C   0  0  0  0  0  0  0  0  0  0  0  0
   63.0010   33.9100   47.1190 C   0  0  0  0  0  0  0  0  0  0  0  0
   56.2660   29.4940   44.6950 C   0  0  0  0  0  0  0  0  0  0  0  0
   55.3360   30.2740   44.3520 O   0  0  0  0  0  0  0  0  0  0  0  0
   55.9470   28.3330   45.2470 O   0  0  0  0  0  0  0  0  0  0  0  0
   56.8500   27.4450   45.6360 C   0  0  0  0  0  0  0  0  0  0  0  0
   56.4150   26.2330   46.1860 C   0  0  0  0  0  0  0  0  0  0  0  0
   55.2306   23.2711   48.0014 H   0  0  0  0  0  0  0  0  0  0  0  0
   55.0101   24.1554   46.4535 H   0  0  0  0  0  0  0  0  0  0  0  0
   55.7349   22.5119   46.4535 H   0  0  0  0  0  0  0  0  0  0  0  0
   59.4435   24.7560   46.7468 H   0  0  0  0  0  0  0  0  0  0  0  0
   60.2325   26.9036   45.7737 H   0  0  0  0  0  0  0  0  0  0  0  0
   60.5231   29.4143   45.8536 H   0  0  0  0  0  0  0  0  0  0  0  0
   60.6236   28.5151   44.3019 H   0  0  0  0  0  0  0  0  0  0  0  0
   60.2089   30.2629   44.3019 H   0  0  0  0  0  0  0  0  0  0  0  0
   59.0071   31.1957   43.5583 H   0  0  0  0  0  0  0  0  0  0  0  0
   57.3171   31.2804   42.9241 H   0  0  0  0  0  0  0  0  0  0  0  0
   61.9897   31.7404   49.7928 H   0  0  0  0  0  0  0  0  0  0  0  0
   62.2196   30.3768   48.6215 H   0  0  0  0  0  0  0  0  0  0  0  0
   64.3466   31.6147   49.3660 H   0  0  0  0  0  0  0  0  0  0  0  0
   64.0760   31.4380   47.5848 H   0  0  0  0  0  0  0  0  0  0  0  0
   63.4215   33.9299   49.2398 H   0  0  0  0  0  0  0  0  0  0  0  0
   64.8682   33.7111   48.1759 H   0  0  0  0  0  0  0  0  0  0  0  0
   62.8919   35.0039   47.1580 H   0  0  0  0  0  0  0  0  0  0  0  0
   63.5322   33.6106   46.2035 H   0  0  0  0  0  0  0  0  0  0  0  0
   55.3381   26.0408   46.3012 H   0  0  0  0  0  0  0  0  0  0  0  0
  1  2  1  0
  2  3  1  0
  3  4  2  0
  4  5  1  0
  5  6  2  0
  6  7  1  0
  7  8  1  0
  7  9  2  0
  9 10  1  0
 10 11  1  0
 11 12  2  0
 11 13  1  0
 13 14  1  0
 14 15  1  0
 15 16  1  0
 16 17  2  0
 17 18  1  0
 18 19  1  0
 19 20  3  0
 17 21  1  0
 21 22  1  0
 22 23  1  0
 23 24  1  0
  9 25  1  0
 25 26  2  0
 25 27  1  0
 27 28  1  0
 28 29  2  0
 29  3  1  0
 28  6  1  0
 18 14  2  0
 24 16  1  0
  1 30  1  0
  1 31  1  0
  1 32  1  0
  4 33  1  0
  5 34  1  0
  8 35  1  0
  8 36  1  0
  8 37  1  0
 10 38  1  0
 10 39  1  0
 21 40  1  0
 21 41  1  0
 22 42  1  0
 22 43  1  0
 23 44  1  0
 23 45  1  0
 24 46  1  0
 24 47  1  0
 29 48  1  0
M  CHG  1  13  -1
M  END
>  <UniqueID>  (72) 
67

>  <SMILES>  (72) 
COc1ccc2c(C)c(CC(=O)[N-]c3sc4c(c3C#N)CCCC4)c(=O)oc2c1

>  <Energy>  (72) 
90.20924301542351

>  <Genealogy>  (72) 
COc1ccc2c(C)c(CC(=O)[N-]c3sc4c(c3C#N)CCCC4)c(=O)oc2c1 (protonated)
COc1ccc2c(C)c(CC(=O)[N-]c3sc4c(c3C#N)CCCC4)c(=O)oc2c1 (3D coordinates assigned)
COc1ccc2c(C)c(CC(=O)[N-]c3sc4c(c3C#N)CCCC4)c(=O)oc2c1 (nonaromatic ring conformer: 90.20924301542351 kcal/mol)

>  <smiles>  (72) 
COc1ccc2c(C)c(CC(=O)Nc3sc4c(c3C#N)CCCC4)c(=O)oc2c1

>  <score_type>  (72) 
oracle

>  <origin>  (72) 
adg

>  <m_score__min__energy>  (72) 
-10.630000000000001

>  <m_primary>  (72) 
energy

$$$$
72:0
     RDKit          3D

 34 36  0  0  0  0  0  0  0  0999 V2000
   60.8299   34.8823   48.7813 H   0  0  0  0  0  0  0  0  0  0  0  0
   59.9490   34.2810   48.5120 C   0  0  0  0  0  0  0  0  0  0  0  0
   59.3390   33.4720   49.4740 C   0  0  0  0  0  0  0  0  0  0  0  0
   59.7511   33.4298   50.4930 H   0  0  0  0  0  0  0  0  0  0  0  0
   58.2060   32.7140   49.1500 C   0  0  0  0  0  0  0  0  0  0  0  0
   57.6100   31.8730   50.1530 N   0  0  0  0  0  0  0  0  0  0  0  0
   56.5780   31.9390   50.3030 H   0  0  0  0  0  0  0  0  0  0  0  0
   58.3180   30.8630   50.8850 C   0  0  0  0  0  0  0  0  0  0  0  0
   59.4780   30.5140   50.5280 O   0  0  0  0  0  0  0  0  0  0  0  0
   57.6680   30.2280   51.9970 N   0  0  0  0  0  0  0  0  0  0  0  0
   56.3880   30.0840   52.1800 C   0  0  0  0  0  0  0  0  0  0  0  0
   55.5030   31.0330   51.7690 N   0  0  0  0  0  0  0  0  0  0  0  0
   54.1680   30.8830   51.9580 C   0  0  0  0  0  0  0  0  0  0  0  0
   53.2870   31.8790   51.5220 C   0  0  0  0  0  0  0  0  0  0  0  0
   53.6789   32.7798   51.0270 H   0  0  0  0  0  0  0  0  0  0  0  0
   51.9100   31.7320   51.7140 C   0  0  0  0  0  0  0  0  0  0  0  0
   51.0390   32.7230   51.2810 O   0  0  0  0  0  0  0  0  0  0  0  0
   51.4090   30.5870   52.3410 C   0  0  0  0  0  0  0  0  0  0  0  0
   50.3250   30.4737   52.4896 H   0  0  0  0  0  0  0  0  0  0  0  0
   52.2810   29.5850   52.7800 C   0  0  0  0  0  0  0  0  0  0  0  0
   51.8802   28.6870   53.2729 H   0  0  0  0  0  0  0  0  0  0  0  0
   53.6710   29.7220   52.5930 C   0  0  0  0  0  0  0  0  0  0  0  0
   54.6040   28.7500   53.0110 C   0  0  0  0  0  0  0  0  0  0  0  0
   54.1860   27.4810   53.6940 C   0  0  0  0  0  0  0  0  0  0  0  0
   54.2315   27.6193   54.7843 H   0  0  0  0  0  0  0  0  0  0  0  0
   53.1570   27.2277   53.3992 H   0  0  0  0  0  0  0  0  0  0  0  0
   54.8631   26.6657   53.3992 H   0  0  0  0  0  0  0  0  0  0  0  0
   55.9290   28.9620   52.7910 N   0  0  0  0  0  0  0  0  0  0  0  0
   57.7140   32.7460   47.8320 C   0  0  0  0  0  0  0  0  0  0  0  0
   56.8438   32.1310   47.5591 H   0  0  0  0  0  0  0  0  0  0  0  0
   58.3240   33.5550   46.8650 C   0  0  0  0  0  0  0  0  0  0  0  0
   57.6740   33.5680   45.2320 Cl  0  0  0  0  0  0  0  0  0  0  0  0
   59.4450   34.3300   47.2080 C   0  0  0  0  0  0  0  0  0  0  0  0
   60.2400   35.3580   46.0250 Cl  0  0  0  0  0  0  0  0  0  0  0  0
  1  2  1  0
  2  3  2  0
  3  4  1  0
  3  5  1  0
  5  6  1  0
  6  7  1  0
  6  8  1  0
  8  9  2  0
  8 10  1  0
 10 11  2  0
 11 12  1  0
 12 13  2  0
 13 14  1  0
 14 15  1  0
 14 16  2  0
 16 17  1  0
 16 18  1  0
 18 19  1  0
 18 20  2  0
 20 21  1  0
 20 22  1  0
 22 23  2  0
 23 24  1  0
 24 25  1  0
 24 26  1  0
 24 27  1  0
 23 28  1  0
  5 29  2  0
 29 30  1  0
 29 31  1  0
 31 32  1  0
 31 33  2  0
 33 34  1  0
 33  2  1  0
 28 11  1  0
 22 13  1  0
M  CHG  2  17  -1  28  -1
M  END
>  <UniqueID>  (73) 
68

>  <SMILES>  (73) 
Cc1[n-]/c(=N/C(=O)Nc2ccc(Cl)c(Cl)c2)nc2cc([O-])ccc12

>  <Energy>  (73) 
47.3480886707924

>  <Genealogy>  (73) 
Cc1[n-]c(=NC(=O)Nc2ccc(Cl)c(Cl)c2)nc2cc([O-])ccc12 (protonated)
Cc1[n-]/c(=N/C(=O)Nc2ccc(Cl)c(Cl)c2)nc2cc([O-])ccc12 (cis-trans isomerization)
Cc1[n-]/c(=N/C(=O)Nc2ccc(Cl)c(Cl)c2)nc2cc([O-])ccc12 (3D coordinates assigned)
Cc1[n-]/c(=N/C(=O)Nc2ccc(Cl)c(Cl)c2)nc2cc([O-])ccc12 (optimized conformer: 47.3480886707924 kcal/mol)

>  <smiles>  (73) 
Cc1[nH]c(=NC(=O)Nc2ccc(Cl)c(Cl)c2)nc2cc(O)ccc12

>  <score_type>  (73) 
oracle

>  <origin>  (73) 
adg

>  <m_score__min__energy>  (73) 
-13.279999999999999

>  <m_primary>  (73) 
energy

$$$$
73:0
     RDKit          3D

 38 40  0  0  0  0  0  0  0  0999 V2000
   56.0940   30.8300   44.5260 N   0  0  0  0  0  0  0  0  0  0  0  0
   56.7980   29.7520   44.3920 C   0  0  0  0  0  0  0  0  0  0  0  0
   57.1480   28.8450   45.3140 N   0  0  0  0  0  0  0  0  0  0  0  0
   57.8860   27.9010   44.6930 C   0  0  0  0  0  0  0  0  0  0  0  0
   58.6420   26.4340   45.4240 S   0  0  0  0  0  0  0  0  0  0  0  0
   58.4660   26.4170   47.2140 C   0  0  0  0  0  0  0  0  0  0  0  0
   59.5230   27.3270   47.8050 C   0  0  0  0  0  0  0  0  0  0  0  0
   60.3970   26.7700   48.4690 O   0  0  0  0  0  0  0  0  0  0  0  0
   59.4300   28.6960   47.5610 N   0  0  0  0  0  0  0  0  0  0  0  0
   60.2700   29.7710   47.9880 C   0  0  0  0  0  0  0  0  0  0  0  0
   60.0970   31.0720   47.3380 C   0  0  0  0  0  0  0  0  0  0  0  0
   58.9490   31.5530   46.7650 C   0  0  0  0  0  0  0  0  0  0  0  0
   57.7700   30.8410   46.7960 O   0  0  0  0  0  0  0  0  0  0  0  0
   58.8920   32.7940   46.1170 C   0  0  0  0  0  0  0  0  0  0  0  0
   60.0000   33.6050   46.0250 C   0  0  0  0  0  0  0  0  0  0  0  0
   61.1660   33.1270   46.6040 C   0  0  0  0  0  0  0  0  0  0  0  0
   62.2730   33.9490   46.5000 C   0  0  0  0  0  0  0  0  0  0  0  0
   63.4840   33.5720   47.0330 C   0  0  0  0  0  0  0  0  0  0  0  0
   63.5690   32.3490   47.6780 C   0  0  0  0  0  0  0  0  0  0  0  0
   62.4420   31.5380   47.7710 C   0  0  0  0  0  0  0  0  0  0  0  0
   61.2210   31.9040   47.2400 C   0  0  0  0  0  0  0  0  0  0  0  0
   57.9920   28.2220   43.3920 N   0  0  0  0  0  0  0  0  0  0  0  0
   57.3220   29.3630   43.2070 N   0  0  0  0  0  0  0  0  0  0  0  0
   56.2750   31.5510   45.2460 H   0  0  0  0  0  0  0  0  0  0  0  0
   57.4654   26.7792   47.4927 H   0  0  0  0  0  0  0  0  0  0  0  0
   58.5902   25.3934   47.5971 H   0  0  0  0  0  0  0  0  0  0  0  0
   58.5900   29.0020   46.9530 H   0  0  0  0  0  0  0  0  0  0  0  0
   60.0956   29.9161   49.0643 H   0  0  0  0  0  0  0  0  0  0  0  0
   61.2866   29.4555   47.7104 H   0  0  0  0  0  0  0  0  0  0  0  0
   57.0880   30.9830   46.0490 H   0  0  0  0  0  0  0  0  0  0  0  0
   57.9423   33.1268   45.6728 H   0  0  0  0  0  0  0  0  0  0  0  0
   59.9628   34.5809   45.5189 H   0  0  0  0  0  0  0  0  0  0  0  0
   62.1843   34.9167   45.9845 H   0  0  0  0  0  0  0  0  0  0  0  0
   64.3642   34.2264   46.9490 H   0  0  0  0  0  0  0  0  0  0  0  0
   64.5235   32.0203   48.1149 H   0  0  0  0  0  0  0  0  0  0  0  0
   62.5269   30.5699   48.2864 H   0  0  0  0  0  0  0  0  0  0  0  0
   58.4990   27.6960   42.6370 H   0  0  0  0  0  0  0  0  0  0  0  0
   57.2140   29.8800   42.2930 H   0  0  0  0  0  0  0  0  0  0  0  0
  1  2  2  3
  2  3  1  0
  3  4  2  0
  4  5  1  0
  5  6  1  0
  6  7  1  0
  7  8  2  0
  7  9  1  0
  9 10  1  0
 10 11  1  0
 11 12  2  0
 12 13  1  0
 12 14  1  0
 14 15  2  0
 15 16  1  0
 16 17  2  0
 17 18  1  0
 18 19  2  0
 19 20  1  0
 20 21  2  0
  4 22  1  0
 22 23  1  0
 23  2  1  0
 21 11  1  0
 21 16  1  0
  1 24  1  0
  6 25  1  0
  6 26  1  0
  9 27  1  0
 10 28  1  0
 10 29  1  0
 13 30  1  0
 14 31  1  0
 15 32  1  0
 17 33  1  0
 18 34  1  0
 19 35  1  0
 20 36  1  0
 22 37  1  0
 23 38  1  0
M  END
>  <smiles>  (74) 
N=c1nc(SCC(=O)NCc2c(O)ccc3ccccc23)[nH][nH]1

>  <score_type>  (74) 
oracle

>  <origin>  (74) 
adg

>  <m_score__min__energy>  (74) 
-8.1799999999999997

>  <m_primary>  (74) 
energy

$$$$
74:0
     RDKit          3D

 54 56  0  0  0  0  0  0  0  0999 V2000
   57.7040   32.3500   41.0500 C   0  0  0  0  0  0  0  0  0  0  0  0
   57.2560   31.4700   42.2050 C   0  0  0  0  0  0  0  0  0  0  0  0
   58.1400   31.6380   43.3070 O   0  0  0  0  0  0  0  0  0  0  0  0
   57.6910   31.9570   44.5930 C   0  0  0  0  0  0  0  0  0  0  0  0
   56.6720   31.3760   45.0580 O   0  0  0  0  0  0  0  0  0  0  0  0
   58.4130   32.9860   45.3890 C   0  0  0  0  0  0  0  0  0  0  0  0
   58.6300   34.2560   44.8200 C   0  0  0  0  0  0  0  0  0  0  0  0
   59.2710   35.2640   45.5420 C   0  0  0  0  0  0  0  0  0  0  0  0
   59.7090   35.0220   46.8430 C   0  0  0  0  0  0  0  0  0  0  0  0
   59.5060   33.7720   47.4260 C   0  0  0  0  0  0  0  0  0  0  0  0
   58.8510   32.7500   46.7180 C   0  0  0  0  0  0  0  0  0  0  0  0
   58.6800   31.4620   47.3260 N   0  0  0  0  0  0  0  0  0  0  0  0
   59.6050   30.3700   47.2460 C   0  0  0  0  0  0  0  0  0  0  0  0
   59.8520   29.7040   48.2850 O   0  0  0  0  0  0  0  0  0  0  0  0
   60.3810   30.0710   45.9920 C   0  0  0  0  0  0  0  0  0  0  0  0
   59.7750   28.9830   45.2920 O   0  0  0  0  0  0  0  0  0  0  0  0
   59.1540   27.8790   45.9030 C   0  0  0  0  0  0  0  0  0  0  0  0
   59.8750   26.8020   46.4470 C   0  0  0  0  0  0  0  0  0  0  0  0
   59.2440   25.7990   47.0480 O   0  0  0  0  0  0  0  0  0  0  0  0
   57.9190   25.7470   47.1630 C   0  0  0  0  0  0  0  0  0  0  0  0
   57.2940   24.5900   47.8860 C   0  0  0  0  0  0  0  0  0  0  0  0
   55.9140   24.4150   47.4520 N   0  0  0  0  0  0  0  0  0  0  0  0
   55.5220   24.3430   46.0750 C   0  0  0  0  0  0  0  0  0  0  0  0
   54.5940   25.0800   45.6450 O   0  0  0  0  0  0  0  0  0  0  0  0
   56.1470   23.3510   45.1760 C   0  0  0  0  0  0  0  0  0  0  0  0
   56.0400   23.5460   43.7860 C   0  0  0  0  0  0  0  0  0  0  0  0
   56.5370   22.5920   42.8960 C   0  0  0  0  0  0  0  0  0  0  0  0
   57.1450   21.4340   43.3790 C   0  0  0  0  0  0  0  0  0  0  0  0
   57.2770   21.2360   44.7550 C   0  0  0  0  0  0  0  0  0  0  0  0
   56.8000   22.1910   45.6600 C   0  0  0  0  0  0  0  0  0  0  0  0
   57.0230   21.9690   47.0210 O   0  0  0  0  0  0  0  0  0  0  0  0
   57.1290   26.7680   46.6170 C   0  0  0  0  0  0  0  0  0  0  0  0
   57.7570   27.8400   45.9820 C   0  0  0  0  0  0  0  0  0  0  0  0
   57.0650   28.7720   45.4920 O   0  0  0  0  0  0  0  0  0  0  0  0
   58.1697   33.2648   41.4452 H   0  0  0  0  0  0  0  0  0  0  0  0
   58.4337   31.8036   40.4343 H   0  0  0  0  0  0  0  0  0  0  0  0
   56.8329   32.6186   40.4343 H   0  0  0  0  0  0  0  0  0  0  0  0
   56.2371   31.7538   42.5071 H   0  0  0  0  0  0  0  0  0  0  0  0
   57.2671   30.4172   41.8864 H   0  0  0  0  0  0  0  0  0  0  0  0
   58.2899   34.4561   43.7932 H   0  0  0  0  0  0  0  0  0  0  0  0
   59.4308   36.2511   45.0835 H   0  0  0  0  0  0  0  0  0  0  0  0
   60.2149   35.8175   47.4098 H   0  0  0  0  0  0  0  0  0  0  0  0
   59.8619   33.5840   48.4497 H   0  0  0  0  0  0  0  0  0  0  0  0
   60.3876   30.9615   45.3463 H   0  0  0  0  0  0  0  0  0  0  0  0
   61.4122   29.7986   46.2610 H   0  0  0  0  0  0  0  0  0  0  0  0
   60.9725   26.7894   46.3744 H   0  0  0  0  0  0  0  0  0  0  0  0
   57.8630   23.6743   47.6677 H   0  0  0  0  0  0  0  0  0  0  0  0
   57.3087   24.7908   48.9674 H   0  0  0  0  0  0  0  0  0  0  0  0
   55.5611   24.4571   43.3980 H   0  0  0  0  0  0  0  0  0  0  0  0
   56.4487   22.7543   41.8116 H   0  0  0  0  0  0  0  0  0  0  0  0
   57.5208   20.6761   42.6759 H   0  0  0  0  0  0  0  0  0  0  0  0
   57.7599   20.3218   45.1307 H   0  0  0  0  0  0  0  0  0  0  0  0
   56.4920   22.4250   47.7500 H   0  0  0  0  0  0  0  0  0  0  0  0
   56.0321   26.7248   46.6880 H   0  0  0  0  0  0  0  0  0  0  0  0
  1  2  1  0
  2  3  1  0
  3  4  1  0
  4  5  2  0
  4  6  1  0
  6  7  2  0
  7  8  1  0
  8  9  2  0
  9 10  1  0
 10 11  2  0
 11 12  1  0
 12 13  1  0
 13 14  2  0
 13 15  1  0
 15 16  1  0
 16 17  1  0
 17 18  2  0
 18 19  1  0
 19 20  1  0
 20 21  1  0
 21 22  1  0
 22 23  1  0
 23 24  2  0
 23 25  1  0
 25 26  2  0
 26 27  1  0
 27 28  2  0
 28 29  1  0
 29 30  2  0
 30 31  1  0
 20 32  2  0
 32 33  1  0
 33 34  2  0
 11  6  1  0
 33 17  1  0
 30 25  1  0
  1 35  1  0
  1 36  1  0
  1 37  1  0
  2 38  1  0
  2 39  1  0
  7 40  1  0
  8 41  1  0
  9 42  1  0
 10 43  1  0
 15 44  1  0
 15 45  1  0
 18 46  1  0
 21 47  1  0
 21 48  1  0
 26 49  1  0
 27 50  1  0
 28 51  1  0
 29 52  1  0
 31 53  1  0
 32 54  1  0
M  CHG  2  12  -1  22  -1
M  END
>  <UniqueID>  (75) 
69

>  <SMILES>  (75) 
CCOC(=O)c1ccccc1[N-]C(=O)COc1coc(C[N-]C(=O)c2ccccc2O)cc1=O

>  <Energy>  (75) 
59.12205072129133

>  <Genealogy>  (75) 
CCOC(=O)c1ccccc1[N-]C(=O)COc1coc(C[N-]C(=O)c2ccccc2O)cc1=O (protonated)
CCOC(=O)c1ccccc1[N-]C(=O)COc1coc(C[N-]C(=O)c2ccccc2O)cc1=O (3D coordinates assigned)
CCOC(=O)c1ccccc1[N-]C(=O)COc1coc(C[N-]C(=O)c2ccccc2O)cc1=O (optimized conformer: 59.12205072129133 kcal/mol)

>  <smiles>  (75) 
CCOC(=O)c1ccccc1NC(=O)COc1coc(CNC(=O)c2ccccc2O)cc1=O

>  <score_type>  (75) 
oracle

>  <origin>  (75) 
adg

>  <m_score__min__energy>  (75) 
-10.59

>  <m_primary>  (75) 
energy

$$$$
75:0
     RDKit          3D

 36 37  0  0  0  0  0  0  0  0999 V2000
   58.1730   29.5320   50.1140 O   0  0  0  0  0  0  0  0  0  0  0  0
   58.3170   30.7720   49.9410 C   0  0  0  0  0  0  0  0  0  0  0  0
   57.4770   31.7310   50.7240 C   0  0  0  0  0  0  0  0  0  0  0  0
   56.9090   31.0730   51.9830 C   0  0  0  0  0  0  0  0  0  0  0  0
   55.5500   31.5460   52.2460 N   0  0  0  0  0  0  0  0  0  0  0  0
   54.4050   30.6800   52.2360 C   0  0  0  0  0  0  0  0  0  0  0  0
   54.5380   29.4460   52.0140 O   0  0  0  0  0  0  0  0  0  0  0  0
   53.0420   31.2330   52.5170 C   0  0  0  0  0  0  0  0  0  0  0  0
   52.2330   31.2940   51.2600 C   0  0  0  0  0  0  0  0  0  0  0  0
   52.2650   30.3580   50.2950 N   0  0  0  0  0  0  0  0  0  0  0  0
   51.3890   30.8280   49.3790 C   0  0  0  0  0  0  0  0  0  0  0  0
   51.1450   30.2210   48.3040 O   0  0  0  0  0  0  0  0  0  0  0  0
   50.7980   31.9980   49.7050 N   0  0  0  0  0  0  0  0  0  0  0  0
   51.3390   32.2750   50.9020 C   0  0  0  0  0  0  0  0  0  0  0  0
   51.0230   33.4020   51.6500 O   0  0  0  0  0  0  0  0  0  0  0  0
   59.2610   31.2760   48.9860 N   0  0  0  0  0  0  0  0  0  0  0  0
   59.0310   32.3250   48.0320 C   0  0  0  0  0  0  0  0  0  0  0  0
   59.2970   33.6660   48.3700 C   0  0  0  0  0  0  0  0  0  0  0  0
   59.0520   34.6910   47.4580 C   0  0  0  0  0  0  0  0  0  0  0  0
   58.5300   34.3970   46.2010 C   0  0  0  0  0  0  0  0  0  0  0  0
   58.2350   33.0770   45.8570 C   0  0  0  0  0  0  0  0  0  0  0  0
   58.4680   32.0250   46.7640 C   0  0  0  0  0  0  0  0  0  0  0  0
   58.1170   30.6380   46.3540 C   0  0  0  0  0  0  0  0  0  0  0  0
   58.7460   29.6450   46.8040 O   0  0  0  0  0  0  0  0  0  0  0  0
   57.0750   30.4150   45.4620 O   0  0  0  0  0  0  0  0  0  0  0  0
   58.0955   32.5920   51.0176 H   0  0  0  0  0  0  0  0  0  0  0  0
   56.6367   32.0530   50.0914 H   0  0  0  0  0  0  0  0  0  0  0  0
   56.8908   29.9821   51.8433 H   0  0  0  0  0  0  0  0  0  0  0  0
   57.5472   31.3379   52.8389 H   0  0  0  0  0  0  0  0  0  0  0  0
   55.4240   32.5470   52.5190 H   0  0  0  0  0  0  0  0  0  0  0  0
   52.5315   30.5856   53.2452 H   0  0  0  0  0  0  0  0  0  0  0  0
   53.1469   32.2500   52.9227 H   0  0  0  0  0  0  0  0  0  0  0  0
   59.7022   33.9069   49.3639 H   0  0  0  0  0  0  0  0  0  0  0  0
   59.2713   35.7336   47.7315 H   0  0  0  0  0  0  0  0  0  0  0  0
   58.3499   35.2063   45.4781 H   0  0  0  0  0  0  0  0  0  0  0  0
   57.8151   32.8554   44.8647 H   0  0  0  0  0  0  0  0  0  0  0  0
  1  2  2  0
  2  3  1  0
  3  4  1  0
  4  5  1  0
  5  6  1  0
  6  7  2  0
  6  8  1  0
  8  9  1  0
  9 10  1  0
 10 11  1  0
 11 12  2  0
 11 13  1  0
 13 14  1  0
 14 15  1  0
  2 16  1  0
 16 17  1  0
 17 18  2  0
 18 19  1  0
 19 20  2  0
 20 21  1  0
 21 22  2  0
 22 23  1  0
 23 24  2  0
 23 25  1  0
 14  9  2  0
 22 17  1  0
  3 26  1  0
  3 27  1  0
  4 28  1  0
  4 29  1  0
  5 30  1  0
  8 31  1  0
  8 32  1  0
 18 33  1  0
 19 34  1  0
 20 35  1  0
 21 36  1  0
M  CHG  5  10  -1  13  -1  15  -1  16  -1  25  -1
M  END
>  <UniqueID>  (76) 
70

>  <SMILES>  (76) 
O=C(CCNC(=O)Cc1[n-]c(=O)[n-]c1[O-])[N-]c1ccccc1C(=O)[O-]

>  <Energy>  (76) 
59.74980634990687

>  <Genealogy>  (76) 
O=C(CCNC(=O)Cc1[n-]c(=O)[n-]c1[O-])[N-]c1ccccc1C(=O)[O-] (protonated)
O=C(CCNC(=O)Cc1[n-]c(=O)[n-]c1[O-])[N-]c1ccccc1C(=O)[O-] (3D coordinates assigned)
O=C(CCNC(=O)Cc1[n-]c(=O)[n-]c1[O-])[N-]c1ccccc1C(=O)[O-] (optimized conformer: 59.74980634990687 kcal/mol)

>  <smiles>  (76) 
O=C(Cc1[nH]c(=O)[nH]c1O)NCCC(=O)Nc1ccccc1C(=O)O

>  <score_type>  (76) 
oracle

>  <origin>  (76) 
adg

>  <m_score__min__energy>  (76) 
-18.600000000000001

>  <m_primary>  (76) 
energy

$$$$
76:0
     RDKit          3D

 29 31  0  0  0  0  0  0  0  0999 V2000
   55.1450   28.9890   44.8830 O   0  0  0  0  0  0  0  0  0  0  0  0
   56.2720   29.7770   44.6750 C   0  0  0  0  0  0  0  0  0  0  0  0
   56.2590   30.7460   43.6660 C   0  0  0  0  0  0  0  0  0  0  0  0
   57.3850   31.5430   43.4450 C   0  0  0  0  0  0  0  0  0  0  0  0
   58.5250   31.3730   44.2330 C   0  0  0  0  0  0  0  0  0  0  0  0
   58.5430   30.4070   45.2430 C   0  0  0  0  0  0  0  0  0  0  0  0
   57.4130   29.5950   45.4700 C   0  0  0  0  0  0  0  0  0  0  0  0
   57.3820   28.6060   46.4700 O   0  0  0  0  0  0  0  0  0  0  0  0
   57.8550   27.2690   46.3190 C   0  0  0  0  0  0  0  0  0  0  0  0
   56.7150   26.3410   46.0230 C   0  0  0  0  0  0  0  0  0  0  0  0
   55.4260   26.5960   46.3470 N   0  0  0  0  0  0  0  0  0  0  0  0
   54.6710   25.5680   45.9690 N   0  0  0  0  0  0  0  0  0  0  0  0
   55.4860   24.6570   45.4080 C   0  0  0  0  0  0  0  0  0  0  0  0
   55.1430   23.4160   44.8650 C   0  0  0  0  0  0  0  0  0  0  0  0
   53.8250   22.9630   44.8470 O   0  0  0  0  0  0  0  0  0  0  0  0
   56.1830   22.6250   44.3320 C   0  0  0  0  0  0  0  0  0  0  0  0
   55.8960   21.3820   43.7800 O   0  0  0  0  0  0  0  0  0  0  0  0
   57.5180   23.0900   44.3550 C   0  0  0  0  0  0  0  0  0  0  0  0
   57.8290   24.3450   44.9090 C   0  0  0  0  0  0  0  0  0  0  0  0
   56.7780   25.1010   45.4260 C   0  0  0  0  0  0  0  0  0  0  0  0
   55.3607   30.8806   43.0456 H   0  0  0  0  0  0  0  0  0  0  0  0
   57.3734   32.3039   42.6507 H   0  0  0  0  0  0  0  0  0  0  0  0
   59.4112   32.0009   44.0585 H   0  0  0  0  0  0  0  0  0  0  0  0
   59.4425   30.2798   45.8633 H   0  0  0  0  0  0  0  0  0  0  0  0
   58.5773   27.2316   45.4902 H   0  0  0  0  0  0  0  0  0  0  0  0
   58.3376   26.9535   47.2558 H   0  0  0  0  0  0  0  0  0  0  0  0
   53.6040   21.9760   44.8890 H   0  0  0  0  0  0  0  0  0  0  0  0
   58.3204   22.4650   43.9360 H   0  0  0  0  0  0  0  0  0  0  0  0
   58.8641   24.7165   44.9334 H   0  0  0  0  0  0  0  0  0  0  0  0
  1  2  1  0
  2  3  2  0
  3  4  1  0
  4  5  2  0
  5  6  1  0
  6  7  2  0
  7  8  1  0
  8  9  1  0
  9 10  1  0
 10 11  1  0
 11 12  1  0
 12 13  2  0
 13 14  1  0
 14 15  1  0
 14 16  2  0
 16 17  1  0
 16 18  1  0
 18 19  2  0
 19 20  1  0
  7  2  1  0
 20 10  2  0
 20 13  1  0
  3 21  1  0
  4 22  1  0
  5 23  1  0
  6 24  1  0
  9 25  1  0
  9 26  1  0
 15 27  1  0
 18 28  1  0
 19 29  1  0
M  CHG  3   1  -1  11  -1  17  -1
M  END
>  <UniqueID>  (77) 
71

>  <SMILES>  (77) 
[O-]c1ccccc1OCc1[n-]nc2c(O)c([O-])ccc12

>  <Energy>  (77) 
69.51293967689918

>  <Genealogy>  (77) 
[O-]c1ccccc1OCc1[n-]nc2c(O)c([O-])ccc12 (protonated)
[O-]c1ccccc1OCc1[n-]nc2c(O)c([O-])ccc12 (3D coordinates assigned)
[O-]c1ccccc1OCc1[n-]nc2c(O)c([O-])ccc12 (optimized conformer: 69.51293967689918 kcal/mol)

>  <smiles>  (77) 
Oc1ccccc1OCc1[nH]nc2c(O)c(O)ccc12

>  <score_type>  (77) 
oracle

>  <origin>  (77) 
adg

>  <m_score__min__energy>  (77) 
-15.66

>  <m_primary>  (77) 
energy

$$$$
77:0
     RDKit          3D

 24 25  0  0  0  0  0  0  0  0999 V2000
   56.2510   30.0110   42.8470 C   0  0  0  0  0  0  0  0  0  0  0  0
   57.0680   30.1990   44.0970 C   0  0  0  0  0  0  0  0  0  0  0  0
   57.9960   31.2520   44.1520 C   0  0  0  0  0  0  0  0  0  0  0  0
   58.8000   31.4320   45.2800 C   0  0  0  0  0  0  0  0  0  0  0  0
   58.6860   30.5630   46.3650 C   0  0  0  0  0  0  0  0  0  0  0  0
   57.7560   29.5230   46.3340 C   0  0  0  0  0  0  0  0  0  0  0  0
   56.9220   29.3470   45.2200 C   0  0  0  0  0  0  0  0  0  0  0  0
   55.9660   28.2780   45.2360 N   0  0  0  0  0  0  0  0  0  0  0  0
   56.2440   27.0170   45.8600 C   0  0  0  0  0  0  0  0  0  0  0  0
   57.4490   26.6610   46.3390 N   0  0  0  0  0  0  0  0  0  0  0  0
   57.2370   25.4050   46.7860 C   0  0  0  0  0  0  0  0  0  0  0  0
   58.1440   24.7160   47.3210 O   0  0  0  0  0  0  0  0  0  0  0  0
   55.9800   24.9430   46.6140 N   0  0  0  0  0  0  0  0  0  0  0  0
   55.3590   25.9770   46.0210 C   0  0  0  0  0  0  0  0  0  0  0  0
   54.0170   25.9550   45.6510 O   0  0  0  0  0  0  0  0  0  0  0  0
   55.2126   29.7721   43.1202 H   0  0  0  0  0  0  0  0  0  0  0  0
   56.2702   30.9370   42.2536 H   0  0  0  0  0  0  0  0  0  0  0  0
   56.6731   29.1865   42.2536 H   0  0  0  0  0  0  0  0  0  0  0  0
   58.0904   31.9407   43.2995 H   0  0  0  0  0  0  0  0  0  0  0  0
   59.5237   32.2598   45.3126 H   0  0  0  0  0  0  0  0  0  0  0  0
   59.3301   30.6976   47.2465 H   0  0  0  0  0  0  0  0  0  0  0  0
   57.6764   28.8362   47.1895 H   0  0  0  0  0  0  0  0  0  0  0  0
   55.1380   28.3530   44.6040 H   0  0  0  0  0  0  0  0  0  0  0  0
   53.3900   26.7160   45.8790 H   0  0  0  0  0  0  0  0  0  0  0  0
  1  2  1  0
  2  3  2  0
  3  4  1  0
  4  5  2  0
  5  6  1  0
  6  7  2  0
  7  8  1  0
  8  9  1  0
  9 10  1  0
 10 11  1  0
 11 12  2  0
 11 13  1  0
 13 14  1  0
 14 15  1  0
  7  2  1  0
 14  9  2  0
  1 16  1  0
  1 17  1  0
  1 18  1  0
  3 19  1  0
  4 20  1  0
  5 21  1  0
  6 22  1  0
  8 23  1  0
 15 24  1  0
M  CHG  2  10  -1  13  -1
M  END
>  <UniqueID>  (78) 
72

>  <SMILES>  (78) 
Cc1ccccc1Nc1[n-]c(=O)[n-]c1O

>  <Energy>  (78) 
59.66101209068453

>  <Genealogy>  (78) 
Cc1ccccc1Nc1[n-]c(=O)[n-]c1O (protonated)
Cc1ccccc1Nc1[n-]c(=O)[n-]c1O (3D coordinates assigned)
Cc1ccccc1Nc1[n-]c(=O)[n-]c1O (optimized conformer: 59.66101209068453 kcal/mol)

>  <smiles>  (78) 
Cc1ccccc1Nc1[nH]c(=O)[nH]c1O

>  <score_type>  (78) 
oracle

>  <origin>  (78) 
adg

>  <m_score__min__energy>  (78) 
-10.529999999999999

>  <m_primary>  (78) 
energy

$$$$
78:0
     RDKit          3D

 48 50  0  0  0  0  0  0  0  0999 V2000
   56.2953   29.5565   42.1277 H   0  0  0  0  0  0  0  0  0  0  0  0
   56.8200   30.2930   42.7540 C   0  0  0  0  0  0  0  0  0  0  0  0
   57.0730   31.4970   42.2310 C   0  0  0  0  0  0  0  0  0  0  0  0
   56.6877   31.7503   41.2323 H   0  0  0  0  0  0  0  0  0  0  0  0
   58.1770   33.7970   45.1050 C   0  0  0  0  0  0  0  0  0  0  0  0
   59.2850   34.6110   44.8380 C   0  0  0  0  0  0  0  0  0  0  0  0
   59.5769   34.8149   43.7972 H   0  0  0  0  0  0  0  0  0  0  0  0
   60.0010   35.1500   45.8600 N   0  0  0  0  0  0  0  0  0  0  0  0
   59.6630   34.9400   47.1600 C   0  0  0  0  0  0  0  0  0  0  0  0
   60.2658   35.3882   47.9636 H   0  0  0  0  0  0  0  0  0  0  0  0
   58.5530   34.1570   47.4760 C   0  0  0  0  0  0  0  0  0  0  0  0
   58.2735   33.9851   48.5259 H   0  0  0  0  0  0  0  0  0  0  0  0
   57.8010   33.5940   46.4430 C   0  0  0  0  0  0  0  0  0  0  0  0
   56.9120   32.9901   46.6776 H   0  0  0  0  0  0  0  0  0  0  0  0
   57.3860   33.2610   43.9800 C   0  0  0  0  0  0  0  0  0  0  0  0
   56.3150   33.5104   43.9516 H   0  0  0  0  0  0  0  0  0  0  0  0
   57.8680   32.4920   42.9860 C   0  0  0  0  0  0  0  0  0  0  0  0
   58.9275   32.6112   42.7155 H   0  0  0  0  0  0  0  0  0  0  0  0
   57.2040   29.8930   44.1250 C   0  0  0  0  0  0  0  0  0  0  0  0
   56.2860   29.7460   44.9760 O   0  0  0  0  0  0  0  0  0  0  0  0
   58.5730   29.6270   44.4910 N   0  0  0  0  0  0  0  0  0  0  0  0
   59.2300   29.2890   43.7550 H   0  0  0  0  0  0  0  0  0  0  0  0
   59.0460   29.6230   45.8500 C   0  0  0  0  0  0  0  0  0  0  0  0
   59.9220   28.6200   46.2740 C   0  0  0  0  0  0  0  0  0  0  0  0
   60.2470   27.8393   45.5705 H   0  0  0  0  0  0  0  0  0  0  0  0
   60.3840   28.6100   47.5910 C   0  0  0  0  0  0  0  0  0  0  0  0
   61.0624   27.8109   47.9244 H   0  0  0  0  0  0  0  0  0  0  0  0
   60.0000   29.5870   48.4730 N   0  0  0  0  0  0  0  0  0  0  0  0
   60.4640   29.5250   49.8360 C   0  0  0  0  0  0  0  0  0  0  0  0
   59.7430   28.9840   50.7170 O   0  0  0  0  0  0  0  0  0  0  0  0
   61.8060   30.0850   50.2200 C   0  0  0  0  0  0  0  0  0  0  0  0
   61.8072   30.3189   51.2948 H   0  0  0  0  0  0  0  0  0  0  0  0
   62.5822   29.3386   49.9952 H   0  0  0  0  0  0  0  0  0  0  0  0
   62.0930   31.3390   49.4390 C   0  0  0  0  0  0  0  0  0  0  0  0
   62.5910   31.2550   48.1280 C   0  0  0  0  0  0  0  0  0  0  0  0
   62.8023   30.2712   47.6836 H   0  0  0  0  0  0  0  0  0  0  0  0
   62.8190   32.4190   47.3860 C   0  0  0  0  0  0  0  0  0  0  0  0
   63.2117   32.3482   46.3609 H   0  0  0  0  0  0  0  0  0  0  0  0
   62.5490   33.6710   47.9440 C   0  0  0  0  0  0  0  0  0  0  0  0
   62.7323   34.5846   47.3594 H   0  0  0  0  0  0  0  0  0  0  0  0
   62.0460   33.7630   49.2450 C   0  0  0  0  0  0  0  0  0  0  0  0
   61.8327   34.7491   49.6834 H   0  0  0  0  0  0  0  0  0  0  0  0
   61.8140   32.6030   49.9890 C   0  0  0  0  0  0  0  0  0  0  0  0
   61.4112   32.6789   51.0098 H   0  0  0  0  0  0  0  0  0  0  0  0
   59.1750   30.6040   48.0680 C   0  0  0  0  0  0  0  0  0  0  0  0
   58.8570   31.5340   48.8650 O   0  0  0  0  0  0  0  0  0  0  0  0
   58.6930   30.6380   46.7550 C   0  0  0  0  0  0  0  0  0  0  0  0
   58.0374   31.4598   46.4311 H   0  0  0  0  0  0  0  0  0  0  0  0
  1  2  1  0
  2  3  2  0
  3  4  1  0
  3  5  1  0
  5  6  2  0
  6  7  1  0
  6  8  1  0
  8  9  2  0
  9 10  1  0
  9 11  1  0
 11 12  1  0
 11 13  2  0
 13 14  1  0
  2 15  1  0
 15 16  1  0
 15 17  2  0
 17 18  1  0
 17 19  1  0
 19 20  2  0
 19 21  1  0
 21 22  1  0
 21 23  1  0
 23 24  1  0
 24 25  1  0
 24 26  2  0
 26 27  1  0
 26 28  1  0
 28 29  1  0
 29 30  2  0
 29 31  1  0
 31 32  1  0
 31 33  1  0
 31 34  1  0
 34 35  2  0
 35 36  1  0
 35 37  1  0
 37 38  1  0
 37 39  2  0
 39 40  1  0
 39 41  1  0
 41 42  1  0
 41 43  2  0
 43 44  1  0
 28 45  1  0
 45 46  2  0
 45 47  1  0
 47 48  1  0
 13  5  1  0
 47 23  2  0
 43 34  1  0
M  END
>  <UniqueID>  (79) 
73

>  <SMILES>  (79) 
O=C(/C=C/C=Cc1cccnc1)Nc1ccn(C(=O)Cc2ccccc2)c(=O)c1

>  <Energy>  (79) 
66.156464690003

>  <Genealogy>  (79) 
O=C(/C=C/C=Cc1cccnc1)Nc1ccn(C(=O)Cc2ccccc2)c(=O)c1 (cis-trans isomerization)
O=C(/C=C/C=Cc1cccnc1)Nc1ccn(C(=O)Cc2ccccc2)c(=O)c1 (3D coordinates assigned)
O=C(/C=C/C=Cc1cccnc1)Nc1ccn(C(=O)Cc2ccccc2)c(=O)c1 (optimized conformer: 66.156464690003 kcal/mol)

>  <smiles>  (79) 
O=C(C=CC=Cc1cccnc1)Nc1ccn(C(=O)Cc2ccccc2)c(=O)c1

>  <score_type>  (79) 
oracle

>  <origin>  (79) 
adg

>  <m_score__min__energy>  (79) 
-9.7799999999999994

>  <m_primary>  (79) 
energy

$$$$
79:0
     RDKit          3D

 41 43  0  0  0  0  0  0  0  0999 V2000
   61.7000   34.2700   49.8650 C   0  0  0  0  0  0  0  0  0  0  0  0
   60.8850   33.7920   48.6950 C   0  0  0  0  0  0  0  0  0  0  0  0
   59.4850   33.7320   48.7940 C   0  0  0  0  0  0  0  0  0  0  0  0
   58.7170   33.2870   47.7150 C   0  0  0  0  0  0  0  0  0  0  0  0
   59.3350   32.8960   46.5190 C   0  0  0  0  0  0  0  0  0  0  0  0
   58.5430   32.4190   45.4120 N   0  0  0  0  0  0  0  0  0  0  0  0
   58.5350   33.1050   44.2240 C   0  0  0  0  0  0  0  0  0  0  0  0
   59.1830   34.1820   44.1020 O   0  0  0  0  0  0  0  0  0  0  0  0
   57.8200   32.6380   43.1660 N   0  0  0  0  0  0  0  0  0  0  0  0
   57.1060   31.4890   43.2540 C   0  0  0  0  0  0  0  0  0  0  0  0
   57.0890   30.7670   44.4460 C   0  0  0  0  0  0  0  0  0  0  0  0
   56.3690   29.4830   44.5280 C   0  0  0  0  0  0  0  0  0  0  0  0
   55.1550   29.4780   44.8610 O   0  0  0  0  0  0  0  0  0  0  0  0
   57.0320   28.2340   44.2860 N   0  0  0  0  0  0  0  0  0  0  0  0
   58.4800   28.0530   44.1900 C   0  0  0  0  0  0  0  0  0  0  0  0
   59.1570   28.4020   45.4910 C   0  0  0  0  0  0  0  0  0  0  0  0
   58.7020   27.8460   46.6980 C   0  0  0  0  0  0  0  0  0  0  0  0
   59.2890   28.2200   47.9110 C   0  0  0  0  0  0  0  0  0  0  0  0
   60.3430   29.1400   47.9270 C   0  0  0  0  0  0  0  0  0  0  0  0
   61.0640   29.6240   49.4510 Cl  0  0  0  0  0  0  0  0  0  0  0  0
   60.8180   29.6780   46.7270 C   0  0  0  0  0  0  0  0  0  0  0  0
   60.2310   29.3090   45.5130 C   0  0  0  0  0  0  0  0  0  0  0  0
   57.8220   31.2580   45.5350 C   0  0  0  0  0  0  0  0  0  0  0  0
   57.8410   30.6060   46.6180 O   0  0  0  0  0  0  0  0  0  0  0  0
   60.7310   32.9570   46.4150 C   0  0  0  0  0  0  0  0  0  0  0  0
   61.5080   33.4000   47.4920 C   0  0  0  0  0  0  0  0  0  0  0  0
   63.2570   33.4490   47.3040 Cl  0  0  0  0  0  0  0  0  0  0  0  0
   61.2027   33.9783   50.8018 H   0  0  0  0  0  0  0  0  0  0  0  0
   62.7011   33.8159   49.8245 H   0  0  0  0  0  0  0  0  0  0  0  0
   61.7923   35.3654   49.8245 H   0  0  0  0  0  0  0  0  0  0  0  0
   58.9899   34.0375   49.7276 H   0  0  0  0  0  0  0  0  0  0  0  0
   57.6215   33.2432   47.8044 H   0  0  0  0  0  0  0  0  0  0  0  0
   57.8200   33.1660   42.2650 H   0  0  0  0  0  0  0  0  0  0  0  0
   56.5395   31.1261   42.3837 H   0  0  0  0  0  0  0  0  0  0  0  0
   58.6954   27.0029   43.9431 H   0  0  0  0  0  0  0  0  0  0  0  0
   58.8648   28.7209   43.4052 H   0  0  0  0  0  0  0  0  0  0  0  0
   57.8811   27.1139   46.6891 H   0  0  0  0  0  0  0  0  0  0  0  0
   58.9213   27.7900   48.8544 H   0  0  0  0  0  0  0  0  0  0  0  0
   61.6544   30.3923   46.7382 H   0  0  0  0  0  0  0  0  0  0  0  0
   60.6112   29.7303   44.5707 H   0  0  0  0  0  0  0  0  0  0  0  0
   61.2211   32.6539   45.4781 H   0  0  0  0  0  0  0  0  0  0  0  0
  1  2  1  0
  2  3  2  0
  3  4  1  0
  4  5  2  0
  5  6  1  0
  6  7  1  0
  7  8  2  0
  7  9  1  0
  9 10  1  0
 10 11  2  0
 11 12  1  0
 12 13  2  0
 12 14  1  0
 14 15  1  0
 15 16  1  0
 16 17  2  0
 17 18  1  0
 18 19  2  0
 19 20  1  0
 19 21  1  0
 21 22  2  0
 11 23  1  0
 23 24  2  0
  5 25  1  0
 25 26  2  0
 26 27  1  0
 26  2  1  0
 23  6  1  0
 22 16  1  0
  1 28  1  0
  1 29  1  0
  1 30  1  0
  3 31  1  0
  4 32  1  0
  9 33  1  0
 10 34  1  0
 15 35  1  0
 15 36  1  0
 17 37  1  0
 18 38  1  0
 21 39  1  0
 22 40  1  0
 25 41  1  0
M  CHG  1  14  -1
M  END
>  <UniqueID>  (80) 
74

>  <SMILES>  (80) 
Cc1ccc(-n2c(=O)[nH]cc(C(=O)[N-]Cc3ccc(Cl)cc3)c2=O)cc1Cl

>  <Energy>  (80) 
55.30307426697771

>  <Genealogy>  (80) 
Cc1ccc(-n2c(=O)[nH]cc(C(=O)[N-]Cc3ccc(Cl)cc3)c2=O)cc1Cl (protonated)
Cc1ccc(-n2c(=O)[nH]cc(C(=O)[N-]Cc3ccc(Cl)cc3)c2=O)cc1Cl (3D coordinates assigned)
Cc1ccc(-n2c(=O)[nH]cc(C(=O)[N-]Cc3ccc(Cl)cc3)c2=O)cc1Cl (optimized conformer: 55.30307426697771 kcal/mol)

>  <smiles>  (80) 
Cc1ccc(-n2c(=O)[nH]cc(C(=O)NCc3ccc(Cl)cc3)c2=O)cc1Cl

>  <score_type>  (80) 
oracle

>  <origin>  (80) 
adg

>  <m_score__min__energy>  (80) 
-9.6500000000000004

>  <m_primary>  (80) 
energy

$$$$
80:0
     RDKit          3D

 35 36  0  0  0  0  0  0  0  0999 V2000
   58.0590   29.9950   43.7860 C   0  0  0  0  0  0  0  0  0  0  0  0
   56.3140   29.9920   44.1400 S   0  0  0  0  0  0  0  0  0  0  0  0
   55.5250   29.8960   42.8650 O   0  0  0  0  0  0  0  0  0  0  0  0
   55.9550   31.2810   44.8250 O   0  0  0  0  0  0  0  0  0  0  0  0
   55.9170   28.6740   45.1960 N   0  0  0  0  0  0  0  0  0  0  0  0
   56.8430   27.8100   45.8740 C   0  0  0  0  0  0  0  0  0  0  0  0
   58.1520   28.2720   46.0390 C   0  0  0  0  0  0  0  0  0  0  0  0
   59.0950   27.5060   46.7160 C   0  0  0  0  0  0  0  0  0  0  0  0
   58.7530   26.2480   47.2060 C   0  0  0  0  0  0  0  0  0  0  0  0
   57.4650   25.7180   46.9920 C   0  0  0  0  0  0  0  0  0  0  0  0
   57.1090   24.3270   47.4960 C   0  0  0  0  0  0  0  0  0  0  0  0
   55.7120   23.9600   47.2160 N   0  0  0  0  0  0  0  0  0  0  0  0
   55.5820   23.2330   45.9420 C   0  0  2  0  0  0  0  0  0  0  0  0
   56.2360   23.9370   44.9150 O   0  0  0  0  0  0  0  0  0  0  0  0
   54.1260   23.0810   45.6140 C   0  0  0  0  0  0  0  0  0  0  0  0
   53.3050   22.0470   46.0100 C   0  0  0  0  0  0  0  0  0  0  0  0
   52.0860   22.2250   45.4710 N   0  0  0  0  0  0  0  0  0  0  0  0
   52.2200   23.3610   44.7580 C   0  0  0  0  0  0  0  0  0  0  0  0
   51.2760   23.8630   44.0940 O   0  0  0  0  0  0  0  0  0  0  0  0
   53.4480   23.9160   44.8070 N   0  0  0  0  0  0  0  0  0  0  0  0
   56.4930   26.5210   46.3390 C   0  0  0  0  0  0  0  0  0  0  0  0
   55.1940   26.0540   46.1280 O   0  0  0  0  0  0  0  0  0  0  0  0
   58.6245   29.9960   44.7295 H   0  0  0  0  0  0  0  0  0  0  0  0
   58.3168   29.0973   43.2049 H   0  0  0  0  0  0  0  0  0  0  0  0
   58.3137   30.8936   43.2049 H   0  0  0  0  0  0  0  0  0  0  0  0
   58.4392   29.2516   45.6291 H   0  0  0  0  0  0  0  0  0  0  0  0
   60.1132   27.8946   46.8648 H   0  0  0  0  0  0  0  0  0  0  0  0
   59.4964   25.6618   47.7661 H   0  0  0  0  0  0  0  0  0  0  0  0
   57.7694   23.5960   47.0065 H   0  0  0  0  0  0  0  0  0  0  0  0
   57.2392   24.3268   48.5883 H   0  0  0  0  0  0  0  0  0  0  0  0
   55.1470   24.8400   47.1550 H   0  0  0  0  0  0  0  0  0  0  0  0
   56.0460   22.2400   46.0351 H   0  0  0  0  0  0  0  0  0  0  0  0
   55.5690   24.5610   44.5270 H   0  0  0  0  0  0  0  0  0  0  0  0
   53.5995   21.2112   46.6617 H   0  0  0  0  0  0  0  0  0  0  0  0
   54.9700   25.2220   45.5980 H   0  0  0  0  0  0  0  0  0  0  0  0
  1  2  1  0
  2  3  2  0
  2  4  2  0
  2  5  1  0
  5  6  1  0
  6  7  2  0
  7  8  1  0
  8  9  2  0
  9 10  1  0
 10 11  1  0
 11 12  1  0
 12 13  1  0
 13 14  1  0
 13 15  1  0
 15 16  2  0
 16 17  1  0
 17 18  1  0
 18 19  2  0
 18 20  1  0
 10 21  2  0
 21 22  1  0
 21  6  1  0
 20 15  1  0
  1 23  1  0
  1 24  1  0
  1 25  1  0
  7 26  1  0
  8 27  1  0
  9 28  1  0
 11 29  1  0
 11 30  1  0
 12 31  1  0
 13 32  1  1
 14 33  1  0
 16 34  1  0
 22 35  1  0
M  CHG  3   5  -1  17  -1  20  -1
M  END
>  <UniqueID>  (81) 
75

>  <SMILES>  (81) 
CS(=O)(=O)[N-]c1cccc(CN[C@H](O)c2c[n-]c(=O)[n-]2)c1O

>  <Energy>  (81) 
70.05099416936892

>  <Genealogy>  (81) 
CS(=O)(=O)[N-]c1cccc(CNC(O)c2c[n-]c(=O)[n-]2)c1O (protonated)
CS(=O)(=O)[N-]c1cccc(CN[C@H](O)c2c[n-]c(=O)[n-]2)c1O (chirality)
CS(=O)(=O)[N-]c1cccc(CN[C@H](O)c2c[n-]c(=O)[n-]2)c1O (3D coordinates assigned)
CS(=O)(=O)[N-]c1cccc(CN[C@H](O)c2c[n-]c(=O)[n-]2)c1O (optimized conformer: 70.05099416936892 kcal/mol)

>  <smiles>  (81) 
CS(=O)(=O)Nc1cccc(CNC(O)c2c[nH]c(=O)[nH]2)c1O

>  <score_type>  (81) 
oracle

>  <origin>  (81) 
adg

>  <m_score__min__energy>  (81) 
-12.710000000000001

>  <m_primary>  (81) 
energy

$$$$
81:0
     RDKit          3D

 22 23  0  0  0  0  0  0  0  0999 V2000
   59.4420   28.4660   46.7890 C   0  0  0  0  0  0  0  0  0  0  0  0
   58.5920   29.2330   46.0900 C   0  0  0  0  0  0  0  0  0  0  0  0
   58.7140   30.5780   46.2610 N   0  0  0  0  0  0  0  0  0  0  0  0
   57.8100   31.4510   45.7650 C   0  0  0  0  0  0  0  0  0  0  0  0
   58.0020   33.0530   46.0120 S   0  0  0  0  0  0  0  0  0  0  0  0
   56.7200   30.9950   45.1080 N   0  0  0  0  0  0  0  0  0  0  0  0
   56.5400   29.6720   44.8710 C   0  0  0  0  0  0  0  0  0  0  0  0
   55.5090   29.3120   44.2400 O   0  0  0  0  0  0  0  0  0  0  0  0
   57.5140   28.7270   45.2900 C   0  0  0  0  0  0  0  0  0  0  0  0
   57.3790   27.4330   44.8840 C   0  0  0  0  0  0  0  0  0  0  0  0
   57.1780   26.2510   45.7530 C   0  0  0  0  0  0  0  0  0  0  0  0
   55.9130   25.9320   46.2820 C   0  0  0  0  0  0  0  0  0  0  0  0
   54.8010   26.7120   45.9880 O   0  0  0  0  0  0  0  0  0  0  0  0
   55.7740   24.8590   47.1030 N   0  0  0  0  0  0  0  0  0  0  0  0
   56.8410   24.0910   47.4410 C   0  0  0  0  0  0  0  0  0  0  0  0
   56.6410   22.8070   48.4280 S   0  0  0  0  0  0  0  0  0  0  0  0
   58.0760   24.3990   46.9700 N   0  0  0  0  0  0  0  0  0  0  0  0
   58.2690   25.4600   46.1450 C   0  0  0  0  0  0  0  0  0  0  0  0
   59.4310   25.7180   45.7310 O   0  0  0  0  0  0  0  0  0  0  0  0
   59.3973   27.3708   46.6971 H   0  0  0  0  0  0  0  0  0  0  0  0
   60.1837   28.9323   47.4541 H   0  0  0  0  0  0  0  0  0  0  0  0
   57.4239   27.2478   43.8006 H   0  0  0  0  0  0  0  0  0  0  0  0
  1  2  2  0
  2  3  1  0
  3  4  1  0
  4  5  2  0
  4  6  1  0
  6  7  1  0
  7  8  2  0
  7  9  1  0
  9 10  2  3
 10 11  1  0
 11 12  2  0
 12 13  1  0
 12 14  1  0
 14 15  1  0
 15 16  2  0
 15 17  1  0
 17 18  1  0
 18 19  2  0
  9  2  1  0
 18 11  1  0
  1 20  1  0
  1 21  1  0
 10 22  1  0
M  CHG  5   3  -1   6  -1  13  -1  14  -1  17  -1
M  END
>  <UniqueID>  (82) 
76

>  <SMILES>  (82) 
C=c1[n-]c(=S)[n-]c(=O)c1=Cc1c([O-])[n-]c(=S)[n-]c1=O

>  <Energy>  (82) 
48.81811151142844

>  <Genealogy>  (82) 
C=c1[n-]c(=S)[n-]c(=O)c1=Cc1c([O-])[n-]c(=S)[n-]c1=O (protonated)
C=c1[n-]c(=S)[n-]c(=O)c1=Cc1c([O-])[n-]c(=S)[n-]c1=O (3D coordinates assigned)
C=c1[n-]c(=S)[n-]c(=O)c1=Cc1c([O-])[n-]c(=S)[n-]c1=O (optimized conformer: 48.81811151142844 kcal/mol)

>  <smiles>  (82) 
C=c1[nH]c(=S)[nH]c(=O)c1=Cc1c(O)[nH]c(=S)[nH]c1=O

>  <score_type>  (82) 
oracle

>  <origin>  (82) 
adg

>  <m_score__min__energy>  (82) 
-16.43

>  <m_primary>  (82) 
energy

$$$$
82:0
     RDKit          3D

 41 43  0  0  0  0  0  0  0  0999 V2000
   50.3950   24.5911   42.8798 H   0  0  0  0  0  0  0  0  0  0  0  0
   51.2670   24.0960   43.3320 C   0  0  0  0  0  0  0  0  0  0  0  0
   51.9012   23.4349   42.7231 H   0  0  0  0  0  0  0  0  0  0  0  0
   51.5550   24.2970   44.6170 C   0  0  0  0  0  0  0  0  0  0  0  0
   50.9076   24.9619   45.2076 H   0  0  0  0  0  0  0  0  0  0  0  0
   52.7130   23.6590   45.2780 C   0  0  0  0  0  0  0  0  0  0  0  0
   52.8340   22.4050   45.2670 O   0  0  0  0  0  0  0  0  0  0  0  0
   53.6730   24.4350   46.0050 N   0  0  0  0  0  0  0  0  0  0  0  0
   55.0130   24.7390   45.5900 C   0  0  0  0  0  0  0  0  0  0  0  0
   55.8090   23.7940   44.9220 C   0  0  0  0  0  0  0  0  0  0  0  0
   55.3949   22.8060   44.6724 H   0  0  0  0  0  0  0  0  0  0  0  0
   57.1250   24.1060   44.5740 C   0  0  0  0  0  0  0  0  0  0  0  0
   57.7436   23.3641   44.0478 H   0  0  0  0  0  0  0  0  0  0  0  0
   57.6580   25.3570   44.8920 C   0  0  0  0  0  0  0  0  0  0  0  0
   58.6976   25.5946   44.6222 H   0  0  0  0  0  0  0  0  0  0  0  0
   56.8700   26.3140   45.5560 C   0  0  0  0  0  0  0  0  0  0  0  0
   57.3940   27.5950   45.9470 N   0  0  0  0  0  0  0  0  0  0  0  0
   57.0680   28.7560   45.4580 C   0  0  0  0  0  0  0  0  0  0  0  0
   55.8480   28.9710   44.8980 N   0  0  0  0  0  0  0  0  0  0  0  0
   55.5230   30.1960   44.4160 C   0  0  0  0  0  0  0  0  0  0  0  0
   54.5380   30.3629   43.9557 H   0  0  0  0  0  0  0  0  0  0  0  0
   56.4140   31.2160   44.5020 N   0  0  0  0  0  0  0  0  0  0  0  0
   57.6270   31.0180   45.0770 C   0  0  0  0  0  0  0  0  0  0  0  0
   58.4730   32.0050   45.1310 N   0  0  0  0  0  0  0  0  0  0  0  0
   58.8930   32.7180   46.3080 C   0  0  0  0  0  0  0  0  0  0  0  0
   58.9180   32.0930   47.5700 C   0  0  0  0  0  0  0  0  0  0  0  0
   58.6372   31.0333   47.6606 H   0  0  0  0  0  0  0  0  0  0  0  0
   59.2970   32.8100   48.7070 C   0  0  0  0  0  0  0  0  0  0  0  0
   59.3277   32.3097   49.6862 H   0  0  0  0  0  0  0  0  0  0  0  0
   59.6370   34.1600   48.6040 C   0  0  0  0  0  0  0  0  0  0  0  0
   59.9451   34.7195   49.4996 H   0  0  0  0  0  0  0  0  0  0  0  0
   59.5860   34.8000   47.3640 C   0  0  0  0  0  0  0  0  0  0  0  0
   59.8467   35.8660   47.2885 H   0  0  0  0  0  0  0  0  0  0  0  0
   59.2040   34.0920   46.2120 C   0  0  0  0  0  0  0  0  0  0  0  0
   59.1520   34.7930   44.8830 C   0  0  0  0  0  0  0  0  0  0  0  0
   59.0715   35.8782   45.0438 H   0  0  0  0  0  0  0  0  0  0  0  0
   60.0689   34.5733   44.3164 H   0  0  0  0  0  0  0  0  0  0  0  0
   58.2775   34.4404   44.3164 H   0  0  0  0  0  0  0  0  0  0  0  0
   57.9500   29.7830   45.5490 N   0  0  0  0  0  0  0  0  0  0  0  0
   55.5620   25.9820   45.9320 C   0  0  0  0  0  0  0  0  0  0  0  0
   54.9595   26.7048   46.5018 H   0  0  0  0  0  0  0  0  0  0  0  0
  1  2  1  0
  2  3  1  0
  2  4  2  0
  4  5  1  0
  4  6  1  0
  6  7  2  0
  6  8  1  0
  8  9  1  0
  9 10  2  0
 10 11  1  0
 10 12  1  0
 12 13  1  0
 12 14  2  0
 14 15  1  0
 14 16  1  0
 16 17  1  0
 17 18  2  0
 18 19  1  0
 19 20  2  0
 20 21  1  0
 20 22  1  0
 22 23  1  0
 23 24  2  3
 24 25  1  0
 25 26  2  0
 26 27  1  0
 26 28  1  0
 28 29  1  0
 28 30  2  0
 30 31  1  0
 30 32  1  0
 32 33  1  0
 32 34  2  0
 34 35  1  0
 35 36  1  0
 35 37  1  0
 35 38  1  0
 23 39  1  0
 16 40  2  0
 40 41  1  0
 40  9  1  0
 39 18  1  0
 34 25  1  0
M  CHG  3   8  -1  22  -1  39  -1
M  END
>  <UniqueID>  (83) 
77

>  <SMILES>  (83) 
C=CC(=O)[N-]c1cccc(/N=c2\nc[n-]c(=Nc3ccccc3C)[n-]2)c1

>  <Energy>  (83) 
60.38240993209861

>  <Genealogy>  (83) 
C=CC(=O)[N-]c1cccc(N=c2nc[n-]c(=Nc3ccccc3C)[n-]2)c1 (protonated)
C=CC(=O)[N-]c1cccc(/N=c2\nc[n-]c(=Nc3ccccc3C)[n-]2)c1 (cis-trans isomerization)
C=CC(=O)[N-]c1cccc(/N=c2\nc[n-]c(=Nc3ccccc3C)[n-]2)c1 (3D coordinates assigned)
C=CC(=O)[N-]c1cccc(/N=c2\nc[n-]c(=Nc3ccccc3C)[n-]2)c1 (optimized conformer: 60.38240993209861 kcal/mol)

>  <smiles>  (83) 
C=CC(=O)Nc1cccc(N=c2nc[nH]c(=Nc3ccccc3C)[nH]2)c1

>  <score_type>  (83) 
oracle

>  <origin>  (83) 
adg

>  <m_score__min__energy>  (83) 
-12.359999999999999

>  <m_primary>  (83) 
energy

$$$$
83:0
     RDKit          3D

 29 29  0  0  0  0  0  0  0  0999 V2000
   59.2160   34.6210   45.3070 C   0  0  0  0  0  0  0  0  0  0  0  0
   58.5240   33.3390   44.8480 C   0  0  0  0  0  0  0  0  0  0  0  0
   58.2200   32.3710   46.0050 C   0  0  0  0  0  0  0  0  0  0  0  0
   58.8470   31.0020   45.7940 C   0  0  0  0  0  0  0  0  0  0  0  0
   60.1130   30.7330   46.3710 C   0  0  0  0  0  0  0  0  0  0  0  0
   60.7160   31.7100   47.1820 O   0  0  0  0  0  0  0  0  0  0  0  0
   62.1180   31.9380   47.2740 C   0  0  0  0  0  0  0  0  0  0  0  0
   60.7420   29.4980   46.1290 C   0  0  0  0  0  0  0  0  0  0  0  0
   60.1260   28.5370   45.3350 C   0  0  0  0  0  0  0  0  0  0  0  0
   58.8730   28.7810   44.7820 C   0  0  0  0  0  0  0  0  0  0  0  0
   58.2130   29.9990   45.0040 C   0  0  0  0  0  0  0  0  0  0  0  0
   56.5780   30.1980   44.3360 S   0  0  0  0  0  0  0  0  0  0  0  0
   55.5210   28.9570   44.9130 N   0  0  0  0  0  0  0  0  0  0  0  0
   56.6150   30.1180   42.8360 O   0  0  0  0  0  0  0  0  0  0  0  0
   56.0230   31.5290   44.7560 O   0  0  0  0  0  0  0  0  0  0  0  0
   59.2341   34.6545   46.4063 H   0  0  0  0  0  0  0  0  0  0  0  0
   60.2465   34.6393   44.9226 H   0  0  0  0  0  0  0  0  0  0  0  0
   58.6658   35.4925   44.9226 H   0  0  0  0  0  0  0  0  0  0  0  0
   57.5765   33.6084   44.3585 H   0  0  0  0  0  0  0  0  0  0  0  0
   59.2103   32.8235   44.1601 H   0  0  0  0  0  0  0  0  0  0  0  0
   58.6143   32.8003   46.9379 H   0  0  0  0  0  0  0  0  0  0  0  0
   57.1292   32.2370   46.0530 H   0  0  0  0  0  0  0  0  0  0  0  0
   62.4130   31.9860   48.3326 H   0  0  0  0  0  0  0  0  0  0  0  0
   62.6564   31.1156   46.7802 H   0  0  0  0  0  0  0  0  0  0  0  0
   62.3681   32.8886   46.7802 H   0  0  0  0  0  0  0  0  0  0  0  0
   61.7279   29.2912   46.5710 H   0  0  0  0  0  0  0  0  0  0  0  0
   60.6319   27.5792   45.1432 H   0  0  0  0  0  0  0  0  0  0  0  0
   58.3934   28.0088   44.1625 H   0  0  0  0  0  0  0  0  0  0  0  0
   54.5510   29.3450   44.8960 H   0  0  0  0  0  0  0  0  0  0  0  0
  1  2  1  0
  2  3  1  0
  3  4  1  0
  4  5  2  0
  5  6  1  0
  6  7  1  0
  5  8  1  0
  8  9  2  0
  9 10  1  0
 10 11  2  0
 11 12  1  0
 12 13  1  0
 12 14  2  0
 12 15  2  0
 11  4  1  0
  1 16  1  0
  1 17  1  0
  1 18  1  0
  2 19  1  0
  2 20  1  0
  3 21  1  0
  3 22  1  0
  7 23  1  0
  7 24  1  0
  7 25  1  0
  8 26  1  0
  9 27  1  0
 10 28  1  0
 13 29  1  0
M  CHG  1  13  -1
M  END
>  <UniqueID>  (84) 
78

>  <SMILES>  (84) 
CCCc1c(OC)cccc1S([NH-])(=O)=O

>  <Energy>  (84) 
26.262341301105614

>  <Genealogy>  (84) 
CCCc1c(OC)cccc1S([NH-])(=O)=O (protonated)
CCCc1c(OC)cccc1S([NH-])(=O)=O (3D coordinates assigned)
CCCc1c(OC)cccc1S([NH-])(=O)=O (optimized conformer: 26.262341301105614 kcal/mol)

>  <smiles>  (84) 
CCCc1c(OC)cccc1S(N)(=O)=O

>  <score_type>  (84) 
oracle

>  <origin>  (84) 
adg

>  <m_score__min__energy>  (84) 
-8.6199999999999992

>  <m_primary>  (84) 
energy

$$$$
84:0
     RDKit          3D

 40 43  0  0  0  0  0  0  0  0999 V2000
   54.8180   26.1630   45.9930 N   0  0  0  0  0  0  0  0  0  0  0  0
   56.4440   25.6090   46.1800 S   0  0  0  0  0  0  0  0  0  0  0  0
   56.7190   25.3340   47.6320 O   0  0  0  0  0  0  0  0  0  0  0  0
   56.6290   24.3350   45.4050 O   0  0  0  0  0  0  0  0  0  0  0  0
   57.5570   26.8400   45.5870 C   0  0  0  0  0  0  0  0  0  0  0  0
   57.9190   26.8710   44.2350 C   0  0  0  0  0  0  0  0  0  0  0  0
   58.7920   27.8550   43.7660 C   0  0  0  0  0  0  0  0  0  0  0  0
   59.3030   28.8160   44.6420 C   0  0  0  0  0  0  0  0  0  0  0  0
   58.9440   28.8060   46.0020 C   0  0  0  0  0  0  0  0  0  0  0  0
   59.4810   29.8300   46.9340 C   0  0  0  0  0  0  0  0  0  0  0  0
   60.6820   30.4200   46.6870 N   0  0  0  0  0  0  0  0  0  0  0  0
   61.1950   31.3580   47.5250 C   0  0  0  0  0  0  0  0  0  0  0  0
   62.4300   31.9500   47.2410 C   0  0  0  0  0  0  0  0  0  0  0  0
   62.9590   32.9130   48.1040 C   0  0  0  0  0  0  0  0  0  0  0  0
   62.2700   33.2840   49.2650 C   0  0  0  0  0  0  0  0  0  0  0  0
   62.8400   34.2870   50.1180 N   0  0  0  0  0  0  0  0  0  0  0  0
   63.8220   34.0670   51.1380 C   0  0  0  0  0  0  0  0  0  0  0  0
   63.6480   34.5900   52.2710 O   0  0  0  0  0  0  0  0  0  0  0  0
   65.0570   33.3010   50.8900 C   0  0  0  0  0  0  0  0  0  0  0  0
   65.1580   31.9340   50.7030 C   0  0  0  0  0  0  0  0  0  0  0  0
   66.4960   31.6860   50.4890 C   0  0  0  0  0  0  0  0  0  0  0  0
   67.1280   32.9120   50.5510 C   0  0  0  0  0  0  0  0  0  0  0  0
   66.2440   33.8530   50.7870 O   0  0  0  0  0  0  0  0  0  0  0  0
   61.0150   32.7100   49.5390 C   0  0  0  0  0  0  0  0  0  0  0  0
   60.4790   31.7380   48.6770 C   0  0  0  0  0  0  0  0  0  0  0  0
   59.2400   31.1190   48.9140 C   0  0  0  0  0  0  0  0  0  0  0  0
   58.5500   31.4160   49.9270 O   0  0  0  0  0  0  0  0  0  0  0  0
   58.7760   30.1870   48.0430 N   0  0  0  0  0  0  0  0  0  0  0  0
   58.0630   27.8090   46.4650 C   0  0  0  0  0  0  0  0  0  0  0  0
   54.7600   27.0980   46.4560 H   0  0  0  0  0  0  0  0  0  0  0  0
   57.5152   26.1191   43.5410 H   0  0  0  0  0  0  0  0  0  0  0  0
   59.0781   27.8735   42.7040 H   0  0  0  0  0  0  0  0  0  0  0  0
   59.9916   29.5866   44.2651 H   0  0  0  0  0  0  0  0  0  0  0  0
   62.9851   31.6572   46.3376 H   0  0  0  0  0  0  0  0  0  0  0  0
   63.9251   33.3837   47.8693 H   0  0  0  0  0  0  0  0  0  0  0  0
   64.3403   31.1984   50.7214 H   0  0  0  0  0  0  0  0  0  0  0  0
   66.9661   30.7085   50.3057 H   0  0  0  0  0  0  0  0  0  0  0  0
   68.2082   33.0753   50.4222 H   0  0  0  0  0  0  0  0  0  0  0  0
   60.4517   33.0229   50.4305 H   0  0  0  0  0  0  0  0  0  0  0  0
   57.7694   27.7906   47.5249 H   0  0  0  0  0  0  0  0  0  0  0  0
  1  2  1  0
  2  3  2  0
  2  4  2  0
  2  5  1  0
  5  6  2  0
  6  7  1  0
  7  8  2  0
  8  9  1  0
  9 10  1  0
 10 11  2  0
 11 12  1  0
 12 13  2  0
 13 14  1  0
 14 15  2  0
 15 16  1  0
 16 17  1  0
 17 18  2  0
 17 19  1  0
 19 20  2  0
 20 21  1  0
 21 22  2  0
 22 23  1  0
 15 24  1  0
 24 25  2  0
 25 26  1  0
 26 27  2  0
 26 28  1  0
  9 29  2  0
 29  5  1  0
 28 10  1  0
 25 12  1  0
 23 19  1  0
  1 30  1  0
  6 31  1  0
  7 32  1  0
  8 33  1  0
 13 34  1  0
 14 35  1  0
 20 36  1  0
 21 37  1  0
 22 38  1  0
 24 39  1  0
 29 40  1  0
M  CHG  3   1  -1  16  -1  28  -1
M  END
>  <UniqueID>  (85) 
79

>  <SMILES>  (85) 
[NH-]S(=O)(=O)c1cccc(-c2nc3ccc([N-]C(=O)c4ccco4)cc3c(=O)[n-]2)c1

>  <Energy>  (85) 
81.40570089272752

>  <Genealogy>  (85) 
[NH-]S(=O)(=O)c1cccc(-c2nc3ccc([N-]C(=O)c4ccco4)cc3c(=O)[n-]2)c1 (protonated)
[NH-]S(=O)(=O)c1cccc(-c2nc3ccc([N-]C(=O)c4ccco4)cc3c(=O)[n-]2)c1 (3D coordinates assigned)
[NH-]S(=O)(=O)c1cccc(-c2nc3ccc([N-]C(=O)c4ccco4)cc3c(=O)[n-]2)c1 (optimized conformer: 81.40570089272752 kcal/mol)

>  <smiles>  (85) 
NS(=O)(=O)c1cccc(-c2nc3ccc(NC(=O)c4ccco4)cc3c(=O)[nH]2)c1

>  <score_type>  (85) 
oracle

>  <origin>  (85) 
adg

>  <m_score__min__energy>  (85) 
-12.93

>  <m_primary>  (85) 
energy

$$$$
85:0
     RDKit          3D

 53 57  0  0  0  0  0  0  0  0999 V2000
   66.9440   35.5960   52.2680 C   0  0  0  0  0  0  0  0  0  0  0  0
   66.1050   34.4490   51.7180 C   0  0  0  0  0  0  0  0  0  0  0  0
   64.3670   34.8580   51.7390 S   0  0  0  0  0  0  0  0  0  0  0  0
   64.2000   36.3510   51.7750 O   0  0  0  0  0  0  0  0  0  0  0  0
   63.7350   34.2760   52.9740 O   0  0  0  0  0  0  0  0  0  0  0  0
   63.5730   34.1980   50.3120 C   0  0  0  0  0  0  0  0  0  0  0  0
   64.2280   33.2590   49.5080 C   0  0  0  0  0  0  0  0  0  0  0  0
   63.5940   32.7400   48.3770 C   0  0  0  0  0  0  0  0  0  0  0  0
   62.2950   33.1420   48.0490 C   0  0  0  0  0  0  0  0  0  0  0  0
   61.7170   32.6620   46.8800 O   0  0  0  0  0  0  0  0  0  0  0  0
   61.6090   34.0500   48.8810 C   0  0  0  0  0  0  0  0  0  0  0  0
   60.2770   34.4990   48.5910 N   0  0  0  0  0  0  0  0  0  0  0  0
   59.7080   34.6490   47.2840 C   0  0  0  0  0  0  0  0  0  0  0  0
   59.6390   35.7890   46.7500 O   0  0  0  0  0  0  0  0  0  0  0  0
   59.2500   33.4660   46.5310 C   0  0  0  0  0  0  0  0  0  0  0  0
   59.0060   33.5330   45.1490 C   0  0  0  0  0  0  0  0  0  0  0  0
   58.5780   32.3950   44.4640 C   0  0  0  0  0  0  0  0  0  0  0  0
   58.3490   32.4710   43.1270 F   0  0  0  0  0  0  0  0  0  0  0  0
   58.3960   31.1890   45.1560 C   0  0  0  0  0  0  0  0  0  0  0  0
   57.9720   30.0180   44.4990 C   0  0  0  0  0  0  0  0  0  0  0  0
   57.8240   28.8460   45.2440 C   0  0  0  0  0  0  0  0  0  0  0  0
   58.0720   28.8220   46.5930 C   0  0  0  0  0  0  0  0  0  0  0  0
   58.4810   29.9690   47.2760 C   0  0  0  0  0  0  0  0  0  0  0  0
   58.6510   31.1610   46.5530 C   0  0  0  0  0  0  0  0  0  0  0  0
   59.0650   32.2880   47.1890 N   0  0  0  0  0  0  0  0  0  0  0  0
   57.8350   27.4810   47.1800 C   0  0  0  0  0  0  0  0  0  0  0  0
   57.6180   26.5610   45.9390 C   0  0  2  0  0  0  0  0  0  0  0  0
   57.3840   27.5240   44.7340 C   0  0  0  0  0  0  0  0  0  0  0  0
   56.3940   25.6760   46.1500 C   0  0  0  0  0  0  0  0  0  0  0  0
   55.2690   26.2090   46.3490 O   0  0  0  0  0  0  0  0  0  0  0  0
   56.4790   24.2510   46.1350 N   0  0  0  0  0  0  0  0  0  0  0  0
   57.7110   23.5780   45.9210 C   0  0  0  0  0  0  0  0  0  0  0  0
   57.7470   22.3180   45.9230 O   0  0  0  0  0  0  0  0  0  0  0  0
   58.9020   24.3260   45.7020 N   0  0  0  0  0  0  0  0  0  0  0  0
   58.8920   25.7560   45.6920 C   0  0  0  0  0  0  0  0  0  0  0  0
   59.9760   26.3660   45.4820 O   0  0  0  0  0  0  0  0  0  0  0  0
   62.2670   34.5920   49.9930 C   0  0  0  0  0  0  0  0  0  0  0  0
   66.9249   35.5699   53.3675 H   0  0  0  0  0  0  0  0  0  0  0  0
   67.9813   35.4928   51.9168 H   0  0  0  0  0  0  0  0  0  0  0  0
   66.5315   36.5533   51.9168 H   0  0  0  0  0  0  0  0  0  0  0  0
   66.4132   34.2425   50.6824 H   0  0  0  0  0  0  0  0  0  0  0  0
   66.2639   33.5641   52.3518 H   0  0  0  0  0  0  0  0  0  0  0  0
   65.2447   32.9287   49.7672 H   0  0  0  0  0  0  0  0  0  0  0  0
   64.1186   32.0117   47.7411 H   0  0  0  0  0  0  0  0  0  0  0  0
   59.1519   34.4798   44.6084 H   0  0  0  0  0  0  0  0  0  0  0  0
   57.7613   30.0261   43.4194 H   0  0  0  0  0  0  0  0  0  0  0  0
   58.6666   29.9396   48.3598 H   0  0  0  0  0  0  0  0  0  0  0  0
   58.7060   27.1503   47.7648 H   0  0  0  0  0  0  0  0  0  0  0  0
   56.9811   27.4664   47.8733 H   0  0  0  0  0  0  0  0  0  0  0  0
   57.9870   27.2188   43.8661 H   0  0  0  0  0  0  0  0  0  0  0  0
   56.3390   27.5279   44.3904 H   0  0  0  0  0  0  0  0  0  0  0  0
   59.8020   23.8170   45.5480 H   0  0  0  0  0  0  0  0  0  0  0  0
   61.7531   35.3341   50.6216 H   0  0  0  0  0  0  0  0  0  0  0  0
  1  2  1  0
  2  3  1  0
  3  4  2  0
  3  5  2  0
  3  6  1  0
  6  7  2  0
  7  8  1  0
  8  9  2  0
  9 10  1  0
  9 11  1  0
 11 12  1  0
 12 13  1  0
 13 14  2  0
 13 15  1  0
 15 16  2  0
 16 17  1  0
 17 18  1  0
 17 19  2  0
 19 20  1  0
 20 21  2  0
 21 22  1  0
 22 23  2  0
 23 24  1  0
 24 25  2  0
 22 26  1  0
 27 26  1  1
 27 28  1  0
 27 29  1  0
 29 30  2  0
 29 31  1  0
 31 32  1  0
 32 33  2  0
 32 34  1  0
 34 35  1  0
 35 36  2  0
 11 37  2  0
 37  6  1  0
 25 15  1  0
 35 27  1  0
 24 19  1  0
 28 21  1  0
  1 38  1  0
  1 39  1  0
  1 40  1  0
  2 41  1  0
  2 42  1  0
  7 43  1  0
  8 44  1  0
 16 45  1  0
 20 46  1  0
 23 47  1  0
 26 48  1  0
 26 49  1  0
 28 50  1  0
 28 51  1  0
 34 52  1  0
 37 53  1  0
M  CHG  3  10  -1  12  -1  31  -1
M  END
>  <UniqueID>  (86) 
80

>  <SMILES>  (86) 
CCS(=O)(=O)c1ccc([O-])c([N-]C(=O)c2cc(F)c3cc4c(cc3n2)C[C@]2(C4)C(=O)[N-]C(=O)NC2=O)c1

>  <Energy>  (86) 
73.06356215725363

>  <Genealogy>  (86) 
CCS(=O)(=O)c1ccc([O-])c([N-]C(=O)c2cc(F)c3cc4c(cc3n2)CC2(C4)C(=O)[N-]C(=O)NC2=O)c1 (protonated)
CCS(=O)(=O)c1ccc([O-])c([N-]C(=O)c2cc(F)c3cc4c(cc3n2)C[C@]2(C4)C(=O)[N-]C(=O)NC2=O)c1 (chirality)
CCS(=O)(=O)c1ccc([O-])c([N-]C(=O)c2cc(F)c3cc4c(cc3n2)C[C@]2(C4)C(=O)[N-]C(=O)NC2=O)c1 (3D coordinates assigned)
CCS(=O)(=O)c1ccc([O-])c([N-]C(=O)c2cc(F)c3cc4c(cc3n2)C[C@]2(C4)C(=O)[N-]C(=O)NC2=O)c1 (nonaromatic ring conformer: 73.06356215725363 kcal/mol)

>  <smiles>  (86) 
CCS(=O)(=O)c1ccc(O)c(NC(=O)c2cc(F)c3cc4c(cc3n2)CC2(C4)C(=O)NC(=O)NC2=O)c1

>  <score_type>  (86) 
oracle

>  <origin>  (86) 
adg

>  <m_score__min__energy>  (86) 
-17.289999999999999

>  <m_primary>  (86) 
energy

$$$$
86:0
     RDKit          3D

 37 39  0  0  0  0  0  0  0  0999 V2000
   57.1570   32.7740   52.2580 C   0  0  0  0  0  0  0  0  0  0  0  0
   58.3800   31.9720   51.9590 C   0  0  0  0  0  0  0  0  0  0  0  0
   59.6340   32.4680   51.9860 N   0  0  0  0  0  0  0  0  0  0  0  0
   60.4620   31.4620   51.7440 N   0  0  0  0  0  0  0  0  0  0  0  0
   61.9130   31.5860   51.7640 C   0  0  0  0  0  0  0  0  0  0  0  0
   59.7750   30.3110   51.5980 C   0  0  0  0  0  0  0  0  0  0  0  0
   58.4340   30.6130   51.7250 C   0  0  0  0  0  0  0  0  0  0  0  0
   57.3070   29.7270   51.7030 N   0  0  0  0  0  0  0  0  0  0  0  0
   56.8660   28.8710   52.7670 C   0  0  0  0  0  0  0  0  0  0  0  0
   57.6880   28.1310   53.3710 O   0  0  0  0  0  0  0  0  0  0  0  0
   55.4330   28.8460   53.1470 C   0  0  0  0  0  0  0  0  0  0  0  0
   54.8580   27.6810   53.6880 C   0  0  0  0  0  0  0  0  0  0  0  0
   53.5120   27.6620   54.0590 C   0  0  0  0  0  0  0  0  0  0  0  0
   52.7210   28.8000   53.8940 C   0  0  0  0  0  0  0  0  0  0  0  0
   53.2700   29.9670   53.3420 C   0  0  0  0  0  0  0  0  0  0  0  0
   52.4290   31.2060   53.1990 C   0  0  0  0  0  0  0  0  0  0  0  0
   51.9110   31.3160   51.7980 C   0  0  0  0  0  0  0  0  0  0  0  0
   52.1190   30.3930   50.8430 N   0  0  0  0  0  0  0  0  0  0  0  0
   51.4210   30.8730   49.7900 C   0  0  0  0  0  0  0  0  0  0  0  0
   51.3740   30.2810   48.6820 O   0  0  0  0  0  0  0  0  0  0  0  0
   50.7720   32.0350   50.0230 N   0  0  0  0  0  0  0  0  0  0  0  0
   51.0880   32.2970   51.3010 C   0  0  0  0  0  0  0  0  0  0  0  0
   50.6290   33.4070   51.9980 O   0  0  0  0  0  0  0  0  0  0  0  0
   54.6270   29.9880   52.9810 C   0  0  0  0  0  0  0  0  0  0  0  0
   57.0303   32.8571   53.3475 H   0  0  0  0  0  0  0  0  0  0  0  0
   57.2623   33.7790   51.8234 H   0  0  0  0  0  0  0  0  0  0  0  0
   56.2772   32.2769   51.8234 H   0  0  0  0  0  0  0  0  0  0  0  0
   62.2641   31.6160   52.8060 H   0  0  0  0  0  0  0  0  0  0  0  0
   62.3619   30.7229   51.2505 H   0  0  0  0  0  0  0  0  0  0  0  0
   62.2089   32.5127   51.2505 H   0  0  0  0  0  0  0  0  0  0  0  0
   60.2039   29.3153   51.4120 H   0  0  0  0  0  0  0  0  0  0  0  0
   55.4734   26.7788   53.8196 H   0  0  0  0  0  0  0  0  0  0  0  0
   53.0734   26.7466   54.4829 H   0  0  0  0  0  0  0  0  0  0  0  0
   51.6639   28.7818   54.1977 H   0  0  0  0  0  0  0  0  0  0  0  0
   51.5810   31.1530   53.8976 H   0  0  0  0  0  0  0  0  0  0  0  0
   53.0454   32.0884   53.4259 H   0  0  0  0  0  0  0  0  0  0  0  0
   55.0648   30.9069   52.5640 H   0  0  0  0  0  0  0  0  0  0  0  0
  1  2  1  0
  2  3  2  0
  3  4  1  0
  4  5  1  0
  4  6  1  0
  6  7  2  0
  7  8  1  0
  8  9  1  0
  9 10  2  0
  9 11  1  0
 11 12  2  0
 12 13  1  0
 13 14  2  0
 14 15  1  0
 15 16  1  0
 16 17  1  0
 17 18  1  0
 18 19  1  0
 19 20  2  0
 19 21  1  0
 21 22  1  0
 22 23  1  0
 15 24  2  0
  7  2  1  0
 24 11  1  0
 22 17  2  0
  1 25  1  0
  1 26  1  0
  1 27  1  0
  5 28  1  0
  5 29  1  0
  5 30  1  0
  6 31  1  0
 12 32  1  0
 13 33  1  0
 14 34  1  0
 16 35  1  0
 16 36  1  0
 24 37  1  0
M  CHG  4   8  -1  18  -1  21  -1  23  -1
M  END
>  <UniqueID>  (87) 
81

>  <SMILES>  (87) 
Cc1nn(C)cc1[N-]C(=O)c1cccc(Cc2[n-]c(=O)[n-]c2[O-])c1

>  <Energy>  (87) 
97.79698716060959

>  <Genealogy>  (87) 
Cc1nn(C)cc1[N-]C(=O)c1cccc(Cc2[n-]c(=O)[n-]c2[O-])c1 (protonated)
Cc1nn(C)cc1[N-]C(=O)c1cccc(Cc2[n-]c(=O)[n-]c2[O-])c1 (3D coordinates assigned)
Cc1nn(C)cc1[N-]C(=O)c1cccc(Cc2[n-]c(=O)[n-]c2[O-])c1 (optimized conformer: 97.79698716060959 kcal/mol)

>  <smiles>  (87) 
Cc1nn(C)cc1NC(=O)c1cccc(Cc2[nH]c(=O)[nH]c2O)c1

>  <score_type>  (87) 
oracle

>  <origin>  (87) 
adg

>  <m_score__min__energy>  (87) 
-17.390000000000001

>  <m_primary>  (87) 
energy

$$$$
87:0
     RDKit          3D

 39 41  0  0  0  0  0  0  0  0999 V2000
   57.8990   31.2750   46.4160 N   0  0  0  0  0  0  0  0  0  0  0  0
   58.2190   32.7060   47.3290 S   0  0  0  0  0  0  0  0  0  0  0  0
   57.3640   32.7170   48.5640 O   0  0  0  0  0  0  0  0  0  0  0  0
   57.8640   33.9070   46.4980 O   0  0  0  0  0  0  0  0  0  0  0  0
   59.9350   32.7650   47.7710 C   0  0  0  0  0  0  0  0  0  0  0  0
   60.8790   33.0410   46.7680 C   0  0  0  0  0  0  0  0  0  0  0  0
   62.2370   33.1430   47.0790 C   0  0  0  0  0  0  0  0  0  0  0  0
   62.6680   32.9710   48.3940 C   0  0  0  0  0  0  0  0  0  0  0  0
   61.7440   32.6870   49.4010 C   0  0  0  0  0  0  0  0  0  0  0  0
   60.3770   32.5670   49.1020 C   0  0  0  0  0  0  0  0  0  0  0  0
   59.4460   32.2310   50.1970 C   0  0  0  0  0  0  0  0  0  0  0  0
   58.9230   33.2370   51.0150 C   0  0  0  0  0  0  0  0  0  0  0  0
   58.0410   32.9120   52.0460 C   0  0  0  0  0  0  0  0  0  0  0  0
   57.6900   31.5640   52.2610 C   0  0  0  0  0  0  0  0  0  0  0  0
   56.8590   31.1950   53.1940 N   0  0  0  0  0  0  0  0  0  0  0  0
   55.6470   29.9550   53.0690 S   0  0  0  0  0  0  0  0  0  0  0  0
   56.0610   28.9790   52.0030 O   0  0  0  0  0  0  0  0  0  0  0  0
   55.5500   29.2310   54.3830 O   0  0  0  0  0  0  0  0  0  0  0  0
   54.0900   30.6540   52.6220 C   0  0  0  0  0  0  0  0  0  0  0  0
   53.8600   31.0580   51.2980 C   0  0  0  0  0  0  0  0  0  0  0  0
   52.6340   31.6220   50.9360 C   0  0  0  0  0  0  0  0  0  0  0  0
   51.6250   31.7810   51.8920 C   0  0  0  0  0  0  0  0  0  0  0  0
   50.4080   32.3440   51.5310 O   0  0  0  0  0  0  0  0  0  0  0  0
   51.8430   31.3680   53.2100 C   0  0  0  0  0  0  0  0  0  0  0  0
   53.0700   30.8030   53.5770 C   0  0  0  0  0  0  0  0  0  0  0  0
   53.2560   30.4040   54.8600 F   0  0  0  0  0  0  0  0  0  0  0  0
   58.2320   30.6070   51.4630 N   0  0  0  0  0  0  0  0  0  0  0  0
   59.0920   30.9010   50.4520 C   0  0  0  0  0  0  0  0  0  0  0  0
   57.8010   30.4920   47.1000 H   0  0  0  0  0  0  0  0  0  0  0  0
   60.5459   33.1780   45.7286 H   0  0  0  0  0  0  0  0  0  0  0  0
   62.9674   33.3593   46.2855 H   0  0  0  0  0  0  0  0  0  0  0  0
   63.7370   33.0592   48.6380 H   0  0  0  0  0  0  0  0  0  0  0  0
   62.0893   32.5561   50.4372 H   0  0  0  0  0  0  0  0  0  0  0  0
   59.2073   34.2860   50.8455 H   0  0  0  0  0  0  0  0  0  0  0  0
   57.6225   33.7023   52.6866 H   0  0  0  0  0  0  0  0  0  0  0  0
   54.6485   30.9301   50.5417 H   0  0  0  0  0  0  0  0  0  0  0  0
   52.4618   31.9415   49.8976 H   0  0  0  0  0  0  0  0  0  0  0  0
   51.0479   31.4875   53.9607 H   0  0  0  0  0  0  0  0  0  0  0  0
   59.5101   30.0929   49.8338 H   0  0  0  0  0  0  0  0  0  0  0  0
  1  2  1  0
  2  3  2  0
  2  4  2  0
  2  5  1  0
  5  6  2  0
  6  7  1  0
  7  8  2  0
  8  9  1  0
  9 10  2  0
 10 11  1  0
 11 12  1  0
 12 13  2  0
 13 14  1  0
 14 15  2  3
 15 16  1  0
 16 17  2  0
 16 18  2  0
 16 19  1  0
 19 20  2  0
 20 21  1  0
 21 22  2  0
 22 23  1  0
 22 24  1  0
 24 25  2  0
 25 26  1  0
 14 27  1  0
 27 28  1  0
 10  5  1  0
 28 11  2  0
 25 19  1  0
  1 29  1  0
  6 30  1  0
  7 31  1  0
  8 32  1  0
  9 33  1  0
 12 34  1  0
 13 35  1  0
 20 36  1  0
 21 37  1  0
 24 38  1  0
 28 39  1  0
M  CHG  3   1  -1  23  -1  27  -1
M  END
>  <UniqueID>  (88) 
82

>  <SMILES>  (88) 
[NH-]S(=O)(=O)c1ccccc1-c1ccc(=NS(=O)(=O)c2ccc([O-])cc2F)[n-]c1

>  <Energy>  (88) 
56.9317108973625

>  <Genealogy>  (88) 
[NH-]S(=O)(=O)c1ccccc1-c1ccc(=NS(=O)(=O)c2ccc([O-])cc2F)[n-]c1 (protonated)
[NH-]S(=O)(=O)c1ccccc1-c1ccc(=NS(=O)(=O)c2ccc([O-])cc2F)[n-]c1 (3D coordinates assigned)
[NH-]S(=O)(=O)c1ccccc1-c1ccc(=NS(=O)(=O)c2ccc([O-])cc2F)[n-]c1 (optimized conformer: 56.9317108973625 kcal/mol)

>  <smiles>  (88) 
NS(=O)(=O)c1ccccc1-c1ccc(=NS(=O)(=O)c2ccc(O)cc2F)[nH]c1

>  <score_type>  (88) 
oracle

>  <origin>  (88) 
adg

>  <m_score__min__energy>  (88) 
-13.83

>  <m_primary>  (88) 
energy

$$$$
88:0
     RDKit          3D

 62 64  0  0  0  0  0  0  0  0999 V2000
   56.9580   28.9900   45.4330 C   0  0  0  0  0  0  0  0  0  0  0  0
   57.6310   28.0860   46.3690 N   0  0  0  0  0  0  0  0  0  0  0  0
   58.4550   28.6320   47.4480 C   0  0  0  0  0  0  0  0  0  0  0  0
   58.6140   30.1480   47.2980 C   0  0  0  0  0  0  0  0  0  0  0  0
   59.0350   30.7670   48.5770 N   0  0  0  0  0  0  0  0  0  0  0  0
   58.5430   30.0310   49.7720 C   0  0  0  0  0  0  0  0  0  0  0  0
   58.6990   30.8870   51.0450 C   0  0  0  0  0  0  0  0  0  0  0  0
   57.7150   30.5280   52.1800 C   0  0  0  0  0  0  0  0  0  0  0  0
   56.2320   30.6080   51.7590 C   0  0  0  0  0  0  0  0  0  0  0  0
   55.5350   29.3550   52.0580 N   0  0  0  0  0  0  0  0  0  0  0  0
   54.3340   29.5880   52.8670 C   0  0  0  0  0  0  0  0  0  0  0  0
   53.3020   30.2850   52.0220 C   0  0  0  0  0  0  0  0  0  0  0  0
   53.0160   29.8240   50.7270 C   0  0  0  0  0  0  0  0  0  0  0  0
   52.0980   30.5040   49.9230 C   0  0  0  0  0  0  0  0  0  0  0  0
   51.4680   31.6600   50.3970 C   0  0  0  0  0  0  0  0  0  0  0  0
   50.5600   32.3280   49.5810 O   0  0  0  0  0  0  0  0  0  0  0  0
   51.7590   32.1380   51.6880 C   0  0  0  0  0  0  0  0  0  0  0  0
   51.1470   33.2900   52.1830 O   0  0  0  0  0  0  0  0  0  0  0  0
   52.6770   31.4530   52.4920 C   0  0  0  0  0  0  0  0  0  0  0  0
   58.7030   32.2170   48.6130 C   0  0  0  0  0  0  0  0  0  0  0  0
   58.5680   32.8410   47.2460 C   0  0  0  0  0  0  0  0  0  0  0  0
   57.3980   33.2560   46.6510 C   0  0  0  0  0  0  0  0  0  0  0  0
   57.6750   33.7230   45.4250 N   0  0  0  0  0  0  0  0  0  0  0  0
   59.0140   33.5840   45.3120 C   0  0  0  0  0  0  0  0  0  0  0  0
   59.5960   33.0440   46.4040 N   0  0  0  0  0  0  0  0  0  0  0  0
   57.5770   26.6690   46.1500 C   0  0  0  0  0  0  0  0  0  0  0  0
   58.7650   25.9240   46.1580 C   0  0  0  0  0  0  0  0  0  0  0  0
   58.7290   24.5420   45.9490 C   0  0  0  0  0  0  0  0  0  0  0  0
   57.5070   23.8970   45.7420 C   0  0  0  0  0  0  0  0  0  0  0  0
   56.3180   24.6300   45.7450 C   0  0  0  0  0  0  0  0  0  0  0  0
   56.3460   26.0150   45.9480 C   0  0  0  0  0  0  0  0  0  0  0  0
   55.1540   26.7310   45.9670 O   0  0  0  0  0  0  0  0  0  0  0  0
   56.3939   29.7477   45.9966 H   0  0  0  0  0  0  0  0  0  0  0  0
   57.7078   29.4868   44.7998 H   0  0  0  0  0  0  0  0  0  0  0  0
   56.2670   28.4142   44.7998 H   0  0  0  0  0  0  0  0  0  0  0  0
   57.9755   28.4136   48.4136 H   0  0  0  0  0  0  0  0  0  0  0  0
   59.4507   28.1669   47.4007 H   0  0  0  0  0  0  0  0  0  0  0  0
   59.3741   30.3558   46.5305 H   0  0  0  0  0  0  0  0  0  0  0  0
   57.6435   30.5748   47.0048 H   0  0  0  0  0  0  0  0  0  0  0  0
   57.4803   29.7843   49.6313 H   0  0  0  0  0  0  0  0  0  0  0  0
   59.1370   29.1127   49.8897 H   0  0  0  0  0  0  0  0  0  0  0  0
   59.7235   30.7566   51.4238 H   0  0  0  0  0  0  0  0  0  0  0  0
   58.4779   31.9247   50.7545 H   0  0  0  0  0  0  0  0  0  0  0  0
   57.9273   29.5013   52.5128 H   0  0  0  0  0  0  0  0  0  0  0  0
   57.8635   31.2662   52.9818 H   0  0  0  0  0  0  0  0  0  0  0  0
   55.7463   31.4296   52.3059 H   0  0  0  0  0  0  0  0  0  0  0  0
   56.1839   30.7866   50.6747 H   0  0  0  0  0  0  0  0  0  0  0  0
   56.1800   28.7560   52.6260 H   0  0  0  0  0  0  0  0  0  0  0  0
   53.9339   28.6257   53.2188 H   0  0  0  0  0  0  0  0  0  0  0  0
   54.5867   30.2131   53.7361 H   0  0  0  0  0  0  0  0  0  0  0  0
   53.5172   28.9230   50.3436 H   0  0  0  0  0  0  0  0  0  0  0  0
   51.8697   30.1295   48.9142 H   0  0  0  0  0  0  0  0  0  0  0  0
   50.5140   33.8450   51.6210 H   0  0  0  0  0  0  0  0  0  0  0  0
   52.9110   31.8310   53.4982 H   0  0  0  0  0  0  0  0  0  0  0  0
   57.7499   32.3421   49.1478 H   0  0  0  0  0  0  0  0  0  0  0  0
   59.5370   32.7259   49.1184 H   0  0  0  0  0  0  0  0  0  0  0  0
   56.3981   33.2117   47.1073 H   0  0  0  0  0  0  0  0  0  0  0  0
   59.5768   33.8825   44.4152 H   0  0  0  0  0  0  0  0  0  0  0  0
   59.7276   26.4281   46.3291 H   0  0  0  0  0  0  0  0  0  0  0  0
   59.6636   23.9620   45.9475 H   0  0  0  0  0  0  0  0  0  0  0  0
   57.4812   22.8098   45.5764 H   0  0  0  0  0  0  0  0  0  0  0  0
   55.3573   24.1179   45.5875 H   0  0  0  0  0  0  0  0  0  0  0  0
  1  2  1  0
  2  3  1  0
  3  4  1  0
  4  5  1  0
  5  6  1  0
  6  7  1  0
  7  8  1  0
  8  9  1  0
  9 10  1  0
 10 11  1  0
 11 12  1  0
 12 13  2  0
 13 14  1  0
 14 15  2  0
 15 16  1  0
 15 17  1  0
 17 18  1  0
 17 19  2  0
  5 20  1  0
 20 21  1  0
 21 22  2  0
 22 23  1  0
 23 24  1  0
 24 25  2  0
  2 26  1  0
 26 27  2  0
 27 28  1  0
 28 29  2  0
 29 30  1  0
 30 31  2  0
 31 32  1  0
 19 12  1  0
 25 21  1  0
 31 26  1  0
  1 33  1  0
  1 34  1  0
  1 35  1  0
  3 36  1  0
  3 37  1  0
  4 38  1  0
  4 39  1  0
  6 40  1  0
  6 41  1  0
  7 42  1  0
  7 43  1  0
  8 44  1  0
  8 45  1  0
  9 46  1  0
  9 47  1  0
 10 48  1  0
 11 49  1  0
 11 50  1  0
 13 51  1  0
 14 52  1  0
 18 53  1  0
 19 54  1  0
 20 55  1  0
 20 56  1  0
 22 57  1  0
 24 58  1  0
 27 59  1  0
 28 60  1  0
 29 61  1  0
 30 62  1  0
M  CHG  3  16  -1  23  -1  32  -1
M  END
>  <UniqueID>  (89) 
83

>  <SMILES>  (89) 
CN(CCN(CCCCNCc1ccc([O-])c(O)c1)Cc1c[n-]cn1)c1ccccc1[O-]

>  <Energy>  (89) 
92.04884661348962

>  <Genealogy>  (89) 
CN(CCN(CCCCNCc1ccc([O-])c(O)c1)Cc1c[n-]cn1)c1ccccc1[O-] (protonated)
CN(CCN(CCCCNCc1ccc([O-])c(O)c1)Cc1c[n-]cn1)c1ccccc1[O-] (3D coordinates assigned)
CN(CCN(CCCCNCc1ccc([O-])c(O)c1)Cc1c[n-]cn1)c1ccccc1[O-] (optimized conformer: 92.04884661348962 kcal/mol)

>  <smiles>  (89) 
CN(CCN(CCCCNCc1ccc(O)c(O)c1)Cc1c[nH]cn1)c1ccccc1O

>  <score_type>  (89) 
oracle

>  <origin>  (89) 
adg

>  <m_score__min__energy>  (89) 
-17.199999999999999

>  <m_primary>  (89) 
energy

$$$$
89:0
     RDKit          3D

 45 47  0  0  0  0  0  0  0  0999 V2000
   55.8045   31.2258   43.5513 H   0  0  0  0  0  0  0  0  0  0  0  0
   56.5640   30.6050   44.0490 C   0  0  0  0  0  0  0  0  0  0  0  0
   56.1020   29.3140   44.6150 C   0  0  0  0  0  0  0  0  0  0  0  0
   54.9220   28.9610   44.3510 O   0  0  0  0  0  0  0  0  0  0  0  0
   56.9250   28.4660   45.5290 C   0  0  0  0  0  0  0  0  0  0  0  0
   58.2090   28.8860   45.9340 C   0  0  0  0  0  0  0  0  0  0  0  0
   58.5960   29.8568   45.5907 H   0  0  0  0  0  0  0  0  0  0  0  0
   59.0020   28.0790   46.7720 C   0  0  0  0  0  0  0  0  0  0  0  0
   60.3580   28.4250   47.1010 N   0  0  0  0  0  0  0  0  0  0  0  0
   61.0170   29.6660   46.8220 C   0  0  0  0  0  0  0  0  0  0  0  0
   61.2230   29.9800   45.6200 O   0  0  0  0  0  0  0  0  0  0  0  0
   61.5100   30.5550   47.9000 C   0  0  0  0  0  0  0  0  0  0  0  0
   61.1340   30.3410   49.2390 C   0  0  0  0  0  0  0  0  0  0  0  0
   60.4673   29.5038   49.4931 H   0  0  0  0  0  0  0  0  0  0  0  0
   61.6040   31.1880   50.2490 C   0  0  0  0  0  0  0  0  0  0  0  0
   61.1220   30.9160   51.9150 Cl  0  0  0  0  0  0  0  0  0  0  0  0
   62.4600   32.2470   49.9330 C   0  0  0  0  0  0  0  0  0  0  0  0
   62.8295   32.9106   50.7287 H   0  0  0  0  0  0  0  0  0  0  0  0
   62.8470   32.4640   48.6080 C   0  0  0  0  0  0  0  0  0  0  0  0
   63.9120   33.7960   48.2120 Cl  0  0  0  0  0  0  0  0  0  0  0  0
   62.3780   31.6190   47.5950 C   0  0  0  0  0  0  0  0  0  0  0  0
   62.6903   31.7883   46.5539 H   0  0  0  0  0  0  0  0  0  0  0  0
   58.4930   26.8630   47.2330 C   0  0  0  0  0  0  0  0  0  0  0  0
   59.1061   26.2286   47.8900 H   0  0  0  0  0  0  0  0  0  0  0  0
   57.2140   26.4470   46.8670 C   0  0  0  0  0  0  0  0  0  0  0  0
   56.8171   25.4959   47.2515 H   0  0  0  0  0  0  0  0  0  0  0  0
   56.4330   27.2320   46.0140 C   0  0  0  0  0  0  0  0  0  0  0  0
   55.1820   26.7600   45.6340 O   0  0  0  0  0  0  0  0  0  0  0  0
   57.8160   31.0940   44.0820 C   0  0  0  0  0  0  0  0  0  0  0  0
   58.5699   30.5837   43.4646 H   0  0  0  0  0  0  0  0  0  0  0  0
   58.2700   32.2590   44.8760 C   0  0  0  0  0  0  0  0  0  0  0  0
   58.7170   33.4020   44.1980 C   0  0  0  0  0  0  0  0  0  0  0  0
   58.7348   33.4148   43.0982 H   0  0  0  0  0  0  0  0  0  0  0  0
   59.1400   34.5250   44.9140 C   0  0  0  0  0  0  0  0  0  0  0  0
   59.4728   35.4246   44.3754 H   0  0  0  0  0  0  0  0  0  0  0  0
   59.1420   34.5100   46.3130 C   0  0  0  0  0  0  0  0  0  0  0  0
   59.5600   35.6370   47.0120 O   0  0  0  0  0  0  0  0  0  0  0  0
   58.7270   33.3650   47.0090 C   0  0  0  0  0  0  0  0  0  0  0  0
   58.7460   33.3910   48.4150 O   0  0  0  0  0  0  0  0  0  0  0  0
   59.7910   33.9600   49.1950 C   0  0  0  0  0  0  0  0  0  0  0  0
   59.5610   33.8347   50.2634 H   0  0  0  0  0  0  0  0  0  0  0  0
   60.7395   33.4538   48.9623 H   0  0  0  0  0  0  0  0  0  0  0  0
   59.8805   35.0314   48.9623 H   0  0  0  0  0  0  0  0  0  0  0  0
   58.3010   32.2320   46.2820 C   0  0  0  0  0  0  0  0  0  0  0  0
   57.9915   31.3228   46.8183 H   0  0  0  0  0  0  0  0  0  0  0  0
  1  2  1  0
  2  3  1  0
  3  4  2  0
  3  5  1  0
  5  6  2  0
  6  7  1  0
  6  8  1  0
  8  9  1  0
  9 10  1  0
 10 11  2  0
 10 12  1  0
 12 13  2  0
 13 14  1  0
 13 15  1  0
 15 16  1  0
 15 17  2  0
 17 18  1  0
 17 19  1  0
 19 20  1  0
 19 21  2  0
 21 22  1  0
  8 23  2  0
 23 24  1  0
 23 25  1  0
 25 26  1  0
 25 27  2  0
 27 28  1  0
  2 29  2  0
 29 30  1  0
 29 31  1  0
 31 32  2  0
 32 33  1  0
 32 34  1  0
 34 35  1  0
 34 36  2  0
 36 37  1  0
 36 38  1  0
 38 39  1  0
 39 40  1  0
 40 41  1  0
 40 42  1  0
 40 43  1  0
 38 44  2  0
 44 45  1  0
 27  5  1  0
 44 31  1  0
 21 12  1  0
M  CHG  3   9  -1  28  -1  37  -1
M  END
>  <UniqueID>  (90) 
84

>  <SMILES>  (90) 
COc1cc(/C=C\C(=O)c2cc([N-]C(=O)c3cc(Cl)cc(Cl)c3)ccc2[O-])ccc1[O-]

>  <Energy>  (90) 
63.86337762830956

>  <Genealogy>  (90) 
COc1cc(C=CC(=O)c2cc([N-]C(=O)c3cc(Cl)cc(Cl)c3)ccc2[O-])ccc1[O-] (protonated)
COc1cc(/C=C\C(=O)c2cc([N-]C(=O)c3cc(Cl)cc(Cl)c3)ccc2[O-])ccc1[O-] (cis-trans isomerization)
COc1cc(/C=C\C(=O)c2cc([N-]C(=O)c3cc(Cl)cc(Cl)c3)ccc2[O-])ccc1[O-] (3D coordinates assigned)
COc1cc(/C=C\C(=O)c2cc([N-]C(=O)c3cc(Cl)cc(Cl)c3)ccc2[O-])ccc1[O-] (optimized conformer: 63.86337762830956 kcal/mol)

>  <smiles>  (90) 
COc1cc(C=CC(=O)c2cc(NC(=O)c3cc(Cl)cc(Cl)c3)ccc2O)ccc1O

>  <score_type>  (90) 
oracle

>  <origin>  (90) 
adg

>  <m_score__min__energy>  (90) 
-15.92

>  <m_primary>  (90) 
energy

$$$$
90:0
     RDKit          3D

 53 55  0  0  0  0  0  0  0  0999 V2000
   56.9940   31.0890   43.7150 C   0  0  0  0  0  0  0  0  0  0  0  0
   56.8670   31.8610   44.9480 N   0  0  0  0  0  0  0  0  0  0  0  0
   57.6700   33.3910   44.7690 S   0  0  0  0  0  0  0  0  0  0  0  0
   58.3210   33.4650   43.4150 O   0  0  0  0  0  0  0  0  0  0  0  0
   56.6560   34.4960   44.8690 O   0  0  0  0  0  0  0  0  0  0  0  0
   58.8780   33.6050   46.0350 C   0  0  0  0  0  0  0  0  0  0  0  0
   60.2250   33.7760   45.6920 C   0  0  0  0  0  0  0  0  0  0  0  0
   61.1880   33.9680   46.6880 C   0  0  0  0  0  0  0  0  0  0  0  0
   60.8080   34.0060   48.0380 C   0  0  0  0  0  0  0  0  0  0  0  0
   61.8380   34.1810   49.1180 C   0  0  0  0  0  0  0  0  0  0  0  0
   62.8770   33.1540   48.9660 N   0  0  0  0  0  0  0  0  0  0  0  0
   62.7370   32.0970   49.9760 C   0  0  0  0  0  0  0  0  0  0  0  0
   61.3910   31.4330   49.8550 C   0  0  0  0  0  0  0  0  0  0  0  0
   60.3500   31.7590   50.7380 C   0  0  0  0  0  0  0  0  0  0  0  0
   59.0950   31.1610   50.5980 C   0  0  0  0  0  0  0  0  0  0  0  0
   58.8690   30.2330   49.5790 C   0  0  0  0  0  0  0  0  0  0  0  0
   59.9020   29.8900   48.6930 C   0  0  0  0  0  0  0  0  0  0  0  0
   59.6610   28.9530   47.6320 N   0  0  0  0  0  0  0  0  0  0  0  0
   59.6630   27.5130   47.9030 C   0  0  0  0  0  0  0  0  0  0  0  0
   60.1770   26.7190   46.6940 C   0  0  0  0  0  0  0  0  0  0  0  0
   59.2780   26.8950   45.4590 C   0  0  0  0  0  0  0  0  0  0  0  0
   59.3530   28.3140   44.8920 C   0  0  0  0  0  0  0  0  0  0  0  0
   58.9360   29.4990   46.1530 S   0  0  0  0  0  0  0  0  0  0  0  0
   57.4450   29.5730   46.3180 O   0  0  0  0  0  0  0  0  0  0  0  0
   59.4700   30.8480   45.7600 O   0  0  0  0  0  0  0  0  0  0  0  0
   61.1610   30.4930   48.8380 C   0  0  0  0  0  0  0  0  0  0  0  0
   59.4590   33.8240   48.3810 C   0  0  0  0  0  0  0  0  0  0  0  0
   58.4980   33.6310   47.3850 C   0  0  0  0  0  0  0  0  0  0  0  0
   57.1680   30.0311   43.9610 H   0  0  0  0  0  0  0  0  0  0  0  0
   56.0686   31.1814   43.1276 H   0  0  0  0  0  0  0  0  0  0  0  0
   57.8410   31.4730   43.1276 H   0  0  0  0  0  0  0  0  0  0  0  0
   57.3660   31.3380   45.7050 H   0  0  0  0  0  0  0  0  0  0  0  0
   60.5270   33.7592   44.6344 H   0  0  0  0  0  0  0  0  0  0  0  0
   62.2459   34.0895   46.4122 H   0  0  0  0  0  0  0  0  0  0  0  0
   62.2925   35.1792   49.0346 H   0  0  0  0  0  0  0  0  0  0  0  0
   61.3604   34.0802   50.1038 H   0  0  0  0  0  0  0  0  0  0  0  0
   63.8060   33.6160   49.1100 H   0  0  0  0  0  0  0  0  0  0  0  0
   63.5268   31.3459   49.8270 H   0  0  0  0  0  0  0  0  0  0  0  0
   62.8263   32.5446   50.9768 H   0  0  0  0  0  0  0  0  0  0  0  0
   60.5228   32.4881   51.5434 H   0  0  0  0  0  0  0  0  0  0  0  0
   58.2827   31.4218   51.2923 H   0  0  0  0  0  0  0  0  0  0  0  0
   57.8775   29.7691   49.4704 H   0  0  0  0  0  0  0  0  0  0  0  0
   60.3137   27.3118   48.7668 H   0  0  0  0  0  0  0  0  0  0  0  0
   58.6302   27.1975   48.1121 H   0  0  0  0  0  0  0  0  0  0  0  0
   61.1908   27.0669   46.4467 H   0  0  0  0  0  0  0  0  0  0  0  0
   60.1746   25.6527   46.9644 H   0  0  0  0  0  0  0  0  0  0  0  0
   59.5987   26.1850   44.6824 H   0  0  0  0  0  0  0  0  0  0  0  0
   58.2387   26.7067   45.7662 H   0  0  0  0  0  0  0  0  0  0  0  0
   60.3743   28.5089   44.5330 H   0  0  0  0  0  0  0  0  0  0  0  0
   58.6397   28.4075   44.0599 H   0  0  0  0  0  0  0  0  0  0  0  0
   61.9753   30.2265   48.1482 H   0  0  0  0  0  0  0  0  0  0  0  0
   59.1570   33.8334   49.4387 H   0  0  0  0  0  0  0  0  0  0  0  0
   57.4412   33.4992   47.6603 H   0  0  0  0  0  0  0  0  0  0  0  0
  1  2  1  0
  2  3  1  0
  3  4  2  0
  3  5  2  0
  3  6  1  0
  6  7  2  0
  7  8  1  0
  8  9  2  0
  9 10  1  0
 10 11  1  0
 11 12  1  0
 12 13  1  0
 13 14  2  0
 14 15  1  0
 15 16  2  0
 16 17  1  0
 17 18  1  0
 18 19  1  0
 19 20  1  0
 20 21  1  0
 21 22  1  0
 22 23  1  0
 23 24  2  0
 23 25  2  0
 17 26  2  0
  9 27  1  0
 27 28  2  0
 28  6  1  0
 26 13  1  0
 23 18  1  0
  1 29  1  0
  1 30  1  0
  1 31  1  0
  2 32  1  0
  7 33  1  0
  8 34  1  0
 10 35  1  0
 10 36  1  0
 11 37  1  0
 12 38  1  0
 12 39  1  0
 14 40  1  0
 15 41  1  0
 16 42  1  0
 19 43  1  0
 19 44  1  0
 20 45  1  0
 20 46  1  0
 21 47  1  0
 21 48  1  0
 22 49  1  0
 22 50  1  0
 26 51  1  0
 27 52  1  0
 28 53  1  0
M  END
>  <UniqueID>  (91) 
85

>  <SMILES>  (91) 
CNS(=O)(=O)c1ccc(CNCc2cccc(N3CCCCS3(=O)=O)c2)cc1

>  <Energy>  (91) 
48.960401781716584

>  <Genealogy>  (91) 
CNS(=O)(=O)c1ccc(CNCc2cccc(N3CCCCS3(=O)=O)c2)cc1 (3D coordinates assigned)
CNS(=O)(=O)c1ccc(CNCc2cccc(N3CCCCS3(=O)=O)c2)cc1 (nonaromatic ring conformer: 48.960401781716584 kcal/mol)

>  <smiles>  (91) 
CNS(=O)(=O)c1ccc(CNCc2cccc(N3CCCCS3(=O)=O)c2)cc1

>  <score_type>  (91) 
oracle

>  <origin>  (91) 
adg

>  <m_score__min__energy>  (91) 
-9.5999999999999996

>  <m_primary>  (91) 
energy

$$$$
91:0
     RDKit          3D

 32 34  0  0  0  0  0  0  0  0999 V2000
   57.6090   31.0950   41.4440 H   0  0  0  0  0  0  0  0  0  0  0  0
   57.0280   31.3320   42.2390 O   0  0  0  0  0  0  0  0  0  0  0  0
   57.2870   30.8270   43.5150 C   0  0  0  0  0  0  0  0  0  0  0  0
   57.0040   29.4820   43.7960 C   0  0  0  0  0  0  0  0  0  0  0  0
   56.5821   28.8414   43.0076 H   0  0  0  0  0  0  0  0  0  0  0  0
   57.2520   28.9380   45.0740 C   0  0  0  0  0  0  0  0  0  0  0  0
   56.9800   27.6420   45.3410 C   0  0  0  0  0  0  0  0  0  0  0  0
   55.7340   27.1830   45.6230 N   0  0  0  0  0  0  0  0  0  0  0  0
   55.9240   25.8680   45.8180 C   0  0  0  0  0  0  0  0  0  0  0  0
   54.9960   25.0670   46.1120 O   0  0  0  0  0  0  0  0  0  0  0  0
   57.2490   25.5460   45.6520 C   0  0  0  0  0  0  0  0  0  0  0  0
   57.7950   24.3290   45.8000 C   0  0  0  0  0  0  0  0  0  0  0  0
   58.5991   24.2135   46.5416 H   0  0  0  0  0  0  0  0  0  0  0  0
   57.3860   23.1300   45.0300 C   0  0  0  0  0  0  0  0  0  0  0  0
   56.6620   23.2980   43.8410 C   0  0  0  0  0  0  0  0  0  0  0  0
   56.3925   24.3095   43.5031 H   0  0  0  0  0  0  0  0  0  0  0  0
   56.2910   22.2170   43.1030 N   0  0  0  0  0  0  0  0  0  0  0  0
   56.6150   20.9510   43.4770 C   0  0  0  0  0  0  0  0  0  0  0  0
   56.2933   20.0971   42.8627 H   0  0  0  0  0  0  0  0  0  0  0  0
   57.3550   20.7340   44.6390 C   0  0  0  0  0  0  0  0  0  0  0  0
   57.6255   19.7119   44.9426 H   0  0  0  0  0  0  0  0  0  0  0  0
   57.7490   21.8270   45.4130 C   0  0  0  0  0  0  0  0  0  0  0  0
   58.3445   21.6684   46.3241 H   0  0  0  0  0  0  0  0  0  0  0  0
   57.9270   26.6690   45.3570 N   0  0  0  0  0  0  0  0  0  0  0  0
   57.7940   29.7800   46.0660 C   0  0  0  0  0  0  0  0  0  0  0  0
   57.9972   29.3769   47.0691 H   0  0  0  0  0  0  0  0  0  0  0  0
   58.0760   31.1190   45.7910 C   0  0  0  0  0  0  0  0  0  0  0  0
   58.4979   31.7592   46.5798 H   0  0  0  0  0  0  0  0  0  0  0  0
   57.8270   31.6580   44.5180 C   0  0  0  0  0  0  0  0  0  0  0  0
   58.1060   32.9460   44.2760 C   0  0  0  0  0  0  0  0  0  0  0  0
   57.9129   33.3730   43.2808 H   0  0  0  0  0  0  0  0  0  0  0  0
   58.5281   33.5764   45.0725 H   0  0  0  0  0  0  0  0  0  0  0  0
  1  2  1  0
  2  3  1  0
  3  4  2  0
  4  5  1  0
  4  6  1  0
  6  7  2  3
  7  8  1  0
  8  9  1  0
  9 10  2  0
  9 11  1  0
 11 12  2  0
 12 13  1  0
 12 14  1  0
 14 15  2  0
 15 16  1  0
 15 17  1  0
 17 18  2  0
 18 19  1  0
 18 20  1  0
 20 21  1  0
 20 22  2  0
 22 23  1  0
 11 24  1  0
  6 25  1  0
 25 26  1  0
 25 27  2  0
 27 28  1  0
 27 29  1  0
 29 30  2  0
 30 31  1  0
 30 32  1  0
 29  3  1  0
 24  7  1  0
 22 14  1  0
M  CHG  2   8  -1  24  -1
M  END
>  <UniqueID>  (92) 
86

>  <SMILES>  (92) 
C=c1ccc(=c2[n-]c(=O)/c(=C/c3cccnc3)[n-]2)cc1O

>  <Energy>  (92) 
75.1766249049461

>  <Genealogy>  (92) 
C=c1ccc(=c2[n-]c(=O)c(=Cc3cccnc3)[n-]2)cc1O (protonated)
C=c1ccc(=c2[n-]c(=O)/c(=C/c3cccnc3)[n-]2)cc1O (cis-trans isomerization)
C=c1ccc(=c2[n-]c(=O)/c(=C/c3cccnc3)[n-]2)cc1O (3D coordinates assigned)
C=c1ccc(=c2[n-]c(=O)/c(=C/c3cccnc3)[n-]2)cc1O (optimized conformer: 75.1766249049461 kcal/mol)

>  <smiles>  (92) 
C=c1ccc(=c2[nH]c(=O)c(=Cc3cccnc3)[nH]2)cc1O

>  <score_type>  (92) 
oracle

>  <origin>  (92) 
adg

>  <m_score__min__energy>  (92) 
-10.390000000000001

>  <m_primary>  (92) 
energy

$$$$
92:0
     RDKit          3D

 53 55  0  0  0  0  0  0  0  0999 V2000
   60.3000   28.9620   44.7990 C   0  0  0  0  0  0  0  0  0  0  0  0
   59.9460   28.7900   46.2230 N   0  0  0  0  0  0  0  0  0  0  0  0
   59.7460   27.3620   46.5200 C   0  0  0  0  0  0  0  0  0  0  0  0
   58.7260   29.5250   46.5140 C   0  0  0  0  0  0  0  0  0  0  0  0
   58.4120   29.7620   47.7170 O   0  0  0  0  0  0  0  0  0  0  0  0
   57.7150   29.8410   45.4740 C   0  0  0  0  0  0  0  0  0  0  0  0
   57.5440   31.0910   44.8160 C   0  0  0  0  0  0  0  0  0  0  0  0
   58.5470   32.2130   44.7400 C   0  0  0  0  0  0  0  0  0  0  0  0
   57.9500   33.5510   44.9380 N   0  0  0  0  0  0  0  0  0  0  0  0
   57.1910   33.6210   46.2070 C   0  0  0  0  0  0  0  0  0  0  0  0
   58.0920   33.4860   47.4410 C   0  0  0  0  0  0  0  0  0  0  0  0
   59.2070   34.5530   47.4490 C   0  0  0  0  0  0  0  0  0  0  0  0
   60.2570   34.2880   48.5530 C   0  0  0  0  0  0  0  0  0  0  0  0
   61.3540   33.3620   48.0920 C   0  0  0  0  0  0  0  0  0  0  0  0
   61.0800   32.0120   47.8110 C   0  0  0  0  0  0  0  0  0  0  0  0
   62.0940   31.1700   47.3450 C   0  0  0  0  0  0  0  0  0  0  0  0
   63.3880   31.6640   47.1560 C   0  0  0  0  0  0  0  0  0  0  0  0
   63.6740   33.0040   47.4380 C   0  0  0  0  0  0  0  0  0  0  0  0
   62.6620   33.8490   47.9040 C   0  0  0  0  0  0  0  0  0  0  0  0
   59.9190   34.6470   46.0750 C   0  0  0  0  0  0  0  0  0  0  0  0
   58.9330   34.6600   44.8910 C   0  0  0  0  0  0  0  0  0  0  0  0
   56.3440   31.1830   44.1090 C   0  0  0  0  0  0  0  0  0  0  0  0
   55.5670   29.7110   44.1420 S   0  0  0  0  0  0  0  0  0  0  0  0
   56.6860   28.9520   45.1470 C   0  0  0  0  0  0  0  0  0  0  0  0
   56.5690   27.5960   45.5830 N   0  0  0  0  0  0  0  0  0  0  0  0
   61.2870   29.4415   44.7219 H   0  0  0  0  0  0  0  0  0  0  0  0
   60.3308   27.9784   44.3074 H   0  0  0  0  0  0  0  0  0  0  0  0
   59.5458   29.5941   44.3074 H   0  0  0  0  0  0  0  0  0  0  0  0
   60.7420   29.1440   46.7940 H   0  0  0  0  0  0  0  0  0  0  0  0
   59.7252   27.2135   47.6097 H   0  0  0  0  0  0  0  0  0  0  0  0
   58.7922   27.0273   46.0861 H   0  0  0  0  0  0  0  0  0  0  0  0
   60.5711   26.7782   46.0861 H   0  0  0  0  0  0  0  0  0  0  0  0
   59.3085   32.0528   45.5175 H   0  0  0  0  0  0  0  0  0  0  0  0
   58.9757   32.1962   43.7271 H   0  0  0  0  0  0  0  0  0  0  0  0
   56.6718   34.5896   46.2541 H   0  0  0  0  0  0  0  0  0  0  0  0
   56.4821   32.7799   46.2182 H   0  0  0  0  0  0  0  0  0  0  0  0
   57.4781   33.6043   48.3461 H   0  0  0  0  0  0  0  0  0  0  0  0
   58.5654   32.4934   47.4147 H   0  0  0  0  0  0  0  0  0  0  0  0
   58.7103   35.5113   47.6611 H   0  0  0  0  0  0  0  0  0  0  0  0
   60.7061   35.2469   48.8510 H   0  0  0  0  0  0  0  0  0  0  0  0
   59.7423   33.8047   49.3965 H   0  0  0  0  0  0  0  0  0  0  0  0
   60.0641   31.6168   47.9584 H   0  0  0  0  0  0  0  0  0  0  0  0
   61.8728   30.1149   47.1263 H   0  0  0  0  0  0  0  0  0  0  0  0
   64.1817   30.9987   46.7853 H   0  0  0  0  0  0  0  0  0  0  0  0
   64.6930   33.3922   47.2934 H   0  0  0  0  0  0  0  0  0  0  0  0
   62.8893   34.9022   48.1254 H   0  0  0  0  0  0  0  0  0  0  0  0
   60.5117   35.5733   46.0490 H   0  0  0  0  0  0  0  0  0  0  0  0
   60.5525   33.7540   45.9686 H   0  0  0  0  0  0  0  0  0  0  0  0
   58.3850   35.6137   44.9027 H   0  0  0  0  0  0  0  0  0  0  0  0
   59.5240   34.5346   43.9718 H   0  0  0  0  0  0  0  0  0  0  0  0
   55.9697   32.0878   43.6078 H   0  0  0  0  0  0  0  0  0  0  0  0
   56.5160   27.3820   46.6040 H   0  0  0  0  0  0  0  0  0  0  0  0
   56.5670   26.7910   44.9110 H   0  0  0  0  0  0  0  0  0  0  0  0
  1  2  1  0
  2  3  1  0
  2  4  1  0
  4  5  2  0
  4  6  1  0
  6  7  1  0
  7  8  1  0
  8  9  1  0
  9 10  1  0
 10 11  1  0
 11 12  1  0
 12 13  1  0
 13 14  1  0
 14 15  2  0
 15 16  1  0
 16 17  2  0
 17 18  1  0
 18 19  2  0
 12 20  1  0
 20 21  1  0
  7 22  2  0
 22 23  1  0
 23 24  1  0
 24 25  1  0
 24  6  2  0
 21  9  1  0
 19 14  1  0
  1 26  1  0
  1 27  1  0
  1 28  1  0
  2 29  1  0
  3 30  1  0
  3 31  1  0
  3 32  1  0
  8 33  1  0
  8 34  1  0
 10 35  1  0
 10 36  1  0
 11 37  1  0
 11 38  1  0
 12 39  1  0
 13 40  1  0
 13 41  1  0
 15 42  1  0
 16 43  1  0
 17 44  1  0
 18 45  1  0
 19 46  1  0
 20 47  1  0
 20 48  1  0
 21 49  1  0
 21 50  1  0
 22 51  1  0
 25 52  1  0
 25 53  1  0
M  CHG  1   2   1
M  END
>  <UniqueID>  (93) 
87

>  <SMILES>  (93) 
C[NH+](C)C(=O)c1c(CN2CCC(Cc3ccccc3)CC2)csc1N

>  <Energy>  (93) 
90.90428051026774

>  <Genealogy>  (93) 
C[NH+](C)C(=O)c1c(CN2CCC(Cc3ccccc3)CC2)csc1N (protonated)
C[NH+](C)C(=O)c1c(CN2CCC(Cc3ccccc3)CC2)csc1N (3D coordinates assigned)
C[NH+](C)C(=O)c1c(CN2CCC(Cc3ccccc3)CC2)csc1N (nonaromatic ring conformer: 90.90428051026774 kcal/mol)

>  <smiles>  (93) 
CN(C)C(=O)c1c(CN2CCC(Cc3ccccc3)CC2)csc1N

>  <score_type>  (93) 
oracle

>  <origin>  (93) 
adg

>  <m_score__min__energy>  (93) 
-7.8300000000000001

>  <m_primary>  (93) 
energy

$$$$
93:0
     RDKit          3D

 44 46  0  0  0  0  0  0  0  0999 V2000
   60.0470   34.2170   49.7510 C   0  0  0  0  0  0  0  0  0  0  0  0
   61.1000   33.9510   48.7060 C   0  0  0  0  0  0  0  0  0  0  0  0
   62.3800   33.5360   49.1160 C   0  0  0  0  0  0  0  0  0  0  0  0
   63.3760   33.2710   48.1760 C   0  0  0  0  0  0  0  0  0  0  0  0
   63.1130   33.4240   46.8150 C   0  0  0  0  0  0  0  0  0  0  0  0
   61.8500   33.8330   46.3890 C   0  0  0  0  0  0  0  0  0  0  0  0
   60.8280   34.0980   47.3210 C   0  0  0  0  0  0  0  0  0  0  0  0
   59.4810   34.5570   46.8090 C   0  0  0  0  0  0  0  0  0  0  0  0
   59.3540   34.3860   44.9930 S   0  0  0  0  0  0  0  0  0  0  0  0
   58.5240   32.7970   45.0380 C   0  0  0  0  0  0  0  0  0  0  0  0
   57.5120   32.5430   44.1720 N   0  0  0  0  0  0  0  0  0  0  0  0
   56.8660   31.3520   44.1830 C   0  0  0  0  0  0  0  0  0  0  0  0
   57.2400   30.3490   45.0890 C   0  0  0  0  0  0  0  0  0  0  0  0
   56.5240   29.0490   45.0820 C   0  0  0  0  0  0  0  0  0  0  0  0
   57.1410   27.9650   45.2560 O   0  0  0  0  0  0  0  0  0  0  0  0
   55.1470   29.0090   44.8830 O   0  0  0  0  0  0  0  0  0  0  0  0
   58.3020   30.6270   45.9760 C   0  0  0  0  0  0  0  0  0  0  0  0
   58.7190   29.6400   46.8840 O   0  0  0  0  0  0  0  0  0  0  0  0
   59.9860   29.8250   48.0190 S   0  0  0  0  0  0  0  0  0  0  0  0
   60.6990   28.5110   48.1760 O   0  0  0  0  0  0  0  0  0  0  0  0
   60.9590   30.8520   47.5130 O   0  0  0  0  0  0  0  0  0  0  0  0
   59.3380   30.3560   49.5670 C   0  0  0  0  0  0  0  0  0  0  0  0
   59.6110   29.6350   50.7390 C   0  0  0  0  0  0  0  0  0  0  0  0
   59.0700   30.0510   51.9600 C   0  0  0  0  0  0  0  0  0  0  0  0
   58.2570   31.1870   52.0150 C   0  0  0  0  0  0  0  0  0  0  0  0
   57.9850   31.9090   50.8490 C   0  0  0  0  0  0  0  0  0  0  0  0
   58.5240   31.4960   49.6270 C   0  0  0  0  0  0  0  0  0  0  0  0
   58.9120   31.8490   45.9300 N   0  0  0  0  0  0  0  0  0  0  0  0
   60.4880   34.1056   50.7526 H   0  0  0  0  0  0  0  0  0  0  0  0
   59.6622   35.2406   49.6316 H   0  0  0  0  0  0  0  0  0  0  0  0
   59.2223   33.4990   49.6316 H   0  0  0  0  0  0  0  0  0  0  0  0
   62.5976   33.4193   50.1879 H   0  0  0  0  0  0  0  0  0  0  0  0
   64.3710   32.9406   48.5090 H   0  0  0  0  0  0  0  0  0  0  0  0
   63.9030   33.2218   46.0767 H   0  0  0  0  0  0  0  0  0  0  0  0
   61.6497   33.9499   45.3137 H   0  0  0  0  0  0  0  0  0  0  0  0
   58.6945   33.9492   47.2802 H   0  0  0  0  0  0  0  0  0  0  0  0
   59.3620   35.6208   47.0625 H   0  0  0  0  0  0  0  0  0  0  0  0
   56.0426   31.1706   43.4765 H   0  0  0  0  0  0  0  0  0  0  0  0
   60.2512   28.7415   50.6977 H   0  0  0  0  0  0  0  0  0  0  0  0
   59.2844   29.4838   52.8778 H   0  0  0  0  0  0  0  0  0  0  0  0
   57.8313   31.5128   52.9756 H   0  0  0  0  0  0  0  0  0  0  0  0
   57.3460   32.8033   50.8932 H   0  0  0  0  0  0  0  0  0  0  0  0
   58.3092   32.0663   48.7112 H   0  0  0  0  0  0  0  0  0  0  0  0
   59.6840   32.0900   46.5860 H   0  0  0  0  0  0  0  0  0  0  0  0
  1  2  1  0
  2  3  2  0
  3  4  1  0
  4  5  2  0
  5  6  1  0
  6  7  2  0
  7  8  1  0
  8  9  1  0
  9 10  1  0
 10 11  2  0
 11 12  1  0
 12 13  2  0
 13 14  1  0
 14 15  2  0
 14 16  1  0
 13 17  1  0
 17 18  1  0
 18 19  1  0
 19 20  2  0
 19 21  2  0
 19 22  1  0
 22 23  2  0
 23 24  1  0
 24 25  2  0
 25 26  1  0
 26 27  2  0
 17 28  2  0
  7  2  1  0
 28 10  1  0
 27 22  1  0
  1 29  1  0
  1 30  1  0
  1 31  1  0
  3 32  1  0
  4 33  1  0
  5 34  1  0
  6 35  1  0
  8 36  1  0
  8 37  1  0
 12 38  1  0
 23 39  1  0
 24 40  1  0
 25 41  1  0
 26 42  1  0
 27 43  1  0
 28 44  1  0
M  CHG  2  16  -1  28   1
M  END
>  <UniqueID>  (94) 
88

>  <SMILES>  (94) 
Cc1ccccc1CSc1ncc(C(=O)[O-])c(OS(=O)(=O)c2ccccc2)[nH+]1

>  <Energy>  (94) 
42.30757174191863

>  <Genealogy>  (94) 
Cc1ccccc1CSc1ncc(C(=O)[O-])c(OS(=O)(=O)c2ccccc2)[nH+]1 (protonated)
Cc1ccccc1CSc1ncc(C(=O)[O-])c(OS(=O)(=O)c2ccccc2)[nH+]1 (3D coordinates assigned)
Cc1ccccc1CSc1ncc(C(=O)[O-])c(OS(=O)(=O)c2ccccc2)[nH+]1 (optimized conformer: 42.30757174191863 kcal/mol)

>  <smiles>  (94) 
Cc1ccccc1CSc1ncc(C(=O)O)c(OS(=O)(=O)c2ccccc2)n1

>  <score_type>  (94) 
oracle

>  <origin>  (94) 
adg

>  <m_score__min__energy>  (94) 
-9.1899999999999995

>  <m_primary>  (94) 
energy

$$$$
94:0
     RDKit          3D

 69 74  0  0  0  0  0  0  0  0999 V2000
   61.9155   31.2253   51.5275 H   0  0  0  0  0  0  0  0  0  0  0  0
   61.9070   31.7120   50.5410 C   0  0  0  0  0  0  0  0  0  0  0  0
   61.4420   31.0720   49.4730 C   0  0  0  0  0  0  0  0  0  0  0  0
   60.7370   29.8330   49.5410 N   0  0  0  0  0  0  0  0  0  0  0  0
   61.2180   28.7390   50.3500 C   0  0  0  0  0  0  0  0  0  0  0  0
   60.7510   27.4350   50.1250 C   0  0  0  0  0  0  0  0  0  0  0  0
   59.9835   27.2531   49.3582 H   0  0  0  0  0  0  0  0  0  0  0  0
   61.2560   26.3670   50.8700 C   0  0  0  0  0  0  0  0  0  0  0  0
   60.8978   25.3446   50.6794 H   0  0  0  0  0  0  0  0  0  0  0  0
   62.2180   26.5990   51.8590 C   0  0  0  0  0  0  0  0  0  0  0  0
   62.8550   25.2620   52.7960 Cl  0  0  0  0  0  0  0  0  0  0  0  0
   62.6730   27.9000   52.1020 C   0  0  0  0  0  0  0  0  0  0  0  0
   63.4157   28.0831   52.8925 H   0  0  0  0  0  0  0  0  0  0  0  0
   62.1860   28.9660   51.3430 C   0  0  0  0  0  0  0  0  0  0  0  0
   62.5605   29.9846   51.5226 H   0  0  0  0  0  0  0  0  0  0  0  0
   60.0420   29.6260   48.3120 C   0  0  0  0  0  0  0  0  0  0  0  0
   59.0610   28.7820   48.1630 N   0  0  0  0  0  0  0  0  0  0  0  0
   58.9570   27.7670   47.1560 C   0  0  0  0  0  0  0  0  0  0  0  0
   58.4600   26.6420   47.4310 O   0  0  0  0  0  0  0  0  0  0  0  0
   59.3500   28.0740   45.7480 C   0  0  0  0  0  0  0  0  0  0  0  0
   60.3051   28.6196   45.7487 H   0  0  0  0  0  0  0  0  0  0  0  0
   59.4552   27.1306   45.1922 H   0  0  0  0  0  0  0  0  0  0  0  0
   58.2970   28.9180   45.0840 C   0  0  0  0  0  0  0  0  0  0  0  0
   58.6580   30.0750   44.3740 C   0  0  0  0  0  0  0  0  0  0  0  0
   59.7166   30.3657   44.3049 H   0  0  0  0  0  0  0  0  0  0  0  0
   57.6810   30.8590   43.7550 C   0  0  0  0  0  0  0  0  0  0  0  0
   57.9720   31.7597   43.1946 H   0  0  0  0  0  0  0  0  0  0  0  0
   56.3360   30.4990   43.8480 C   0  0  0  0  0  0  0  0  0  0  0  0
   55.5674   31.1082   43.3499 H   0  0  0  0  0  0  0  0  0  0  0  0
   55.9660   29.3630   44.5750 C   0  0  0  0  0  0  0  0  0  0  0  0
   54.9044   29.0869   44.6578 H   0  0  0  0  0  0  0  0  0  0  0  0
   56.9410   28.5770   45.1970 C   0  0  0  0  0  0  0  0  0  0  0  0
   56.6442   27.6899   45.7758 H   0  0  0  0  0  0  0  0  0  0  0  0
   60.4620   30.7550   47.0000 S   0  0  0  0  0  0  0  0  0  0  0  0
   61.5190   31.7420   48.1360 C   0  0  1  0  0  0  0  0  0  0  0  0
   62.5369   31.7782   47.7206 H   0  0  0  0  0  0  0  0  0  0  0  0
   61.0880   33.1500   48.2830 N   0  0  0  0  0  0  0  0  0  0  0  0
   61.0570   33.8550   46.9760 C   0  0  0  0  0  0  0  0  0  0  0  0
   61.3595   34.9023   47.1230 H   0  0  0  0  0  0  0  0  0  0  0  0
   61.7499   33.3520   46.2854 H   0  0  0  0  0  0  0  0  0  0  0  0
   59.6690   33.8180   46.3850 C   0  0  0  0  0  0  0  0  0  0  0  0
   59.4510   34.2090   45.0540 C   0  0  0  0  0  0  0  0  0  0  0  0
   60.3024   34.4977   44.4202 H   0  0  0  0  0  0  0  0  0  0  0  0
   58.1540   34.2320   44.5330 C   0  0  0  0  0  0  0  0  0  0  0  0
   57.9865   34.5454   43.4920 H   0  0  0  0  0  0  0  0  0  0  0  0
   57.0670   33.8570   45.3330 C   0  0  0  0  0  0  0  0  0  0  0  0
   56.0483   33.8696   44.9181 H   0  0  0  0  0  0  0  0  0  0  0  0
   57.2770   33.4670   46.6580 C   0  0  0  0  0  0  0  0  0  0  0  0
   56.4235   33.1724   47.2864 H   0  0  0  0  0  0  0  0  0  0  0  0
   58.5730   33.4510   47.1860 C   0  0  0  0  0  0  0  0  0  0  0  0
   58.7349   33.1502   48.2316 H   0  0  0  0  0  0  0  0  0  0  0  0
   62.0100   33.8670   49.2140 C   0  0  0  0  0  0  0  0  0  0  0  0
   61.5077   34.7770   49.5740 H   0  0  0  0  0  0  0  0  0  0  0  0
   62.9281   34.1007   48.6551 H   0  0  0  0  0  0  0  0  0  0  0  0
   62.3970   33.0490   50.3810 N   0  0  0  0  0  0  0  0  0  0  0  0
   63.4100   33.5600   51.3120 C   0  0  0  0  0  0  0  0  0  0  0  0
   63.5787   34.6295   51.1180 H   0  0  0  0  0  0  0  0  0  0  0  0
   63.0577   33.4233   52.3450 H   0  0  0  0  0  0  0  0  0  0  0  0
   64.7000   32.8070   51.1210 C   0  0  0  0  0  0  0  0  0  0  0  0
   64.8410   31.5040   51.6280 C   0  0  0  0  0  0  0  0  0  0  0  0
   63.9890   31.0139   52.1218 H   0  0  0  0  0  0  0  0  0  0  0  0
   66.0590   30.8270   51.5080 C   0  0  0  0  0  0  0  0  0  0  0  0
   66.1670   29.8117   51.9173 H   0  0  0  0  0  0  0  0  0  0  0  0
   67.1400   31.4420   50.8670 C   0  0  0  0  0  0  0  0  0  0  0  0
   68.0962   30.9076   50.7665 H   0  0  0  0  0  0  0  0  0  0  0  0
   67.0050   32.7360   50.3540 C   0  0  0  0  0  0  0  0  0  0  0  0
   67.8538   33.2144   49.8434 H   0  0  0  0  0  0  0  0  0  0  0  0
   65.7930   33.4250   50.4880 C   0  0  0  0  0  0  0  0  0  0  0  0
   65.6962   34.4491   50.0983 H   0  0  0  0  0  0  0  0  0  0  0  0
  1  2  1  0
  2  3  2  0
  3  4  1  0
  4  5  1  0
  5  6  2  0
  6  7  1  0
  6  8  1  0
  8  9  1  0
  8 10  2  0
 10 11  1  0
 10 12  1  0
 12 13  1  0
 12 14  2  0
 14 15  1  0
  4 16  1  0
 16 17  2  0
 17 18  1  0
 18 19  2  0
 18 20  1  0
 20 21  1  0
 20 22  1  0
 20 23  1  0
 23 24  2  0
 24 25  1  0
 24 26  1  0
 26 27  1  0
 26 28  2  0
 28 29  1  0
 28 30  1  0
 30 31  1  0
 30 32  2  0
 32 33  1  0
 16 34  1  0
 34 35  1  0
 35 36  1  6
 35 37  1  0
 37 38  1  0
 38 39  1  0
 38 40  1  0
 38 41  1  0
 41 42  2  0
 42 43  1  0
 42 44  1  0
 44 45  1  0
 44 46  2  0
 46 47  1  0
 46 48  1  0
 48 49  1  0
 48 50  2  0
 50 51  1  0
 37 52  1  0
 52 53  1  0
 52 54  1  0
 52 55  1  0
 55 56  1  0
 56 57  1  0
 56 58  1  0
 56 59  1  0
 59 60  2  0
 60 61  1  0
 60 62  1  0
 62 63  1  0
 62 64  2  0
 64 65  1  0
 64 66  1  0
 66 67  1  0
 66 68  2  0
 68 69  1  0
 55  2  1  0
 68 59  1  0
 35  3  1  0
 50 41  1  0
 14  5  1  0
 32 23  1  0
M  END
>  <UniqueID>  (95) 
89

>  <SMILES>  (95) 
O=C(Cc1ccccc1)/N=C1/S[C@@H]2C(=CN(Cc3ccccc3)CN2Cc2ccccc2)N1c1ccc(Cl)cc1

>  <Energy>  (95) 
102.30614916847163

>  <Genealogy>  (95) 
O=C(Cc1ccccc1)N=C1S[C@@H]2C(=CN(Cc3ccccc3)CN2Cc2ccccc2)N1c1ccc(Cl)cc1 (chirality)
O=C(Cc1ccccc1)/N=C1/S[C@@H]2C(=CN(Cc3ccccc3)CN2Cc2ccccc2)N1c1ccc(Cl)cc1 (cis-trans isomerization)
O=C(Cc1ccccc1)/N=C1/S[C@@H]2C(=CN(Cc3ccccc3)CN2Cc2ccccc2)N1c1ccc(Cl)cc1 (3D coordinates assigned)
O=C(Cc1ccccc1)/N=C1/S[C@@H]2C(=CN(Cc3ccccc3)CN2Cc2ccccc2)N1c1ccc(Cl)cc1 (nonaromatic ring conformer: 102.30614916847163 kcal/mol)

>  <smiles>  (95) 
O=C(Cc1ccccc1)N=C1SC2C(=CN(Cc3ccccc3)CN2Cc2ccccc2)N1c1ccc(Cl)cc1

>  <score_type>  (95) 
oracle

>  <origin>  (95) 
adg

>  <m_score__min__energy>  (95) 
-10.49

>  <m_primary>  (95) 
energy

$$$$
