0:0
     RDKit          3D

 43 45  0  0  0  0  0  0  0  0999 V2000
   54.7190   26.1560   45.9590 N   0  0  0  0  0  0  0  0  0  0  0  0
   56.2360   25.3650   46.2140 S   0  0  0  0  0  0  0  0  0  0  0  0
   56.2870   24.8500   47.6250 O   0  0  0  0  0  0  0  0  0  0  0  0
   56.3750   24.2070   45.2700 O   0  0  0  0  0  0  0  0  0  0  0  0
   57.5440   26.5050   45.9230 C   0  0  0  0  0  0  0  0  0  0  0  0
   58.8650   26.2060   46.2900 C   0  0  0  0  0  0  0  0  0  0  0  0
   59.8920   27.1120   46.0110 C   0  0  0  0  0  0  0  0  0  0  0  0
   59.6080   28.3210   45.3670 C   0  0  0  0  0  0  0  0  0  0  0  0
   58.2890   28.6430   45.0250 C   0  0  0  0  0  0  0  0  0  0  0  0
   58.0110   29.9050   44.4000 N   0  0  0  0  0  0  0  0  0  0  0  0
   56.9710   30.8050   44.8090 C   0  0  0  0  0  0  0  0  0  0  0  0
   55.7790   30.5440   44.5050 O   0  0  0  0  0  0  0  0  0  0  0  0
   57.2590   32.0010   45.5490 N   0  0  0  0  0  0  0  0  0  0  0  0
   58.5700   32.3920   45.9810 C   0  0  0  0  0  0  0  0  0  0  0  0
   59.3570   31.4800   46.6930 C   0  0  0  0  0  0  0  0  0  0  0  0
   60.6600   31.8210   47.0730 C   0  0  0  0  0  0  0  0  0  0  0  0
   61.1770   33.0880   46.7630 C   0  0  0  0  0  0  0  0  0  0  0  0
   62.8400   33.5060   47.1580 S   0  0  0  0  0  0  0  0  0  0  0  0
   63.6760   32.2550   47.1660 O   0  0  0  0  0  0  0  0  0  0  0  0
   63.4090   34.4540   46.1380 O   0  0  0  0  0  0  0  0  0  0  0  0
   62.8890   34.2330   48.7320 N   0  0  0  0  0  0  0  0  0  0  0  0
   62.0240   33.9780   49.6670 C   0  0  0  0  0  0  0  0  0  0  0  0
   62.4690   33.4940   50.9040 C   0  0  0  0  0  0  0  0  0  0  0  0
   61.5370   33.2330   51.9130 C   0  0  0  0  0  0  0  0  0  0  0  0
   60.1800   33.4620   51.6830 C   0  0  0  0  0  0  0  0  0  0  0  0
   59.7710   33.9470   50.4380 C   0  0  0  0  0  0  0  0  0  0  0  0
   60.6910   34.1860   49.4650 N   0  0  0  0  0  0  0  0  0  0  0  0
   60.3780   34.0130   46.0810 C   0  0  0  0  0  0  0  0  0  0  0  0
   59.0780   33.6730   45.7000 C   0  0  0  0  0  0  0  0  0  0  0  0
   57.2610   27.7220   45.2890 C   0  0  0  0  0  0  0  0  0  0  0  0
   54.7790   27.0830   46.4350 H   0  0  0  0  0  0  0  0  0  0  0  0
   59.0926   25.2572   46.7980 H   0  0  0  0  0  0  0  0  0  0  0  0
   60.9266   26.8737   46.2986 H   0  0  0  0  0  0  0  0  0  0  0  0
   60.4229   29.0204   45.1287 H   0  0  0  0  0  0  0  0  0  0  0  0
   58.9503   30.4921   46.9548 H   0  0  0  0  0  0  0  0  0  0  0  0
   61.2808   31.0935   47.6164 H   0  0  0  0  0  0  0  0  0  0  0  0
   63.5410   33.3210   51.0797 H   0  0  0  0  0  0  0  0  0  0  0  0
   61.8731   32.8476   52.8869 H   0  0  0  0  0  0  0  0  0  0  0  0
   59.4406   33.2630   52.4727 H   0  0  0  0  0  0  0  0  0  0  0  0
   58.7047   34.1356   50.2447 H   0  0  0  0  0  0  0  0  0  0  0  0
   60.7753   35.0111   45.8443 H   0  0  0  0  0  0  0  0  0  0  0  0
   58.4493   34.4097   45.1784 H   0  0  0  0  0  0  0  0  0  0  0  0
   56.2274   27.9581   44.9960 H   0  0  0  0  0  0  0  0  0  0  0  0
  1  2  1  0
  2  3  2  0
  2  4  2  0
  2  5  1  0
  5  6  2  0
  6  7  1  0
  7  8  2  0
  8  9  1  0
  9 10  1  0
 10 11  1  0
 11 12  2  0
 11 13  1  0
 13 14  1  0
 14 15  2  0
 15 16  1  0
 16 17  2  0
 17 18  1  0
 18 19  2  0
 18 20  2  0
 18 21  1  0
 21 22  2  3
 22 23  1  0
 23 24  2  0
 24 25  1  0
 25 26  2  0
 26 27  1  0
 17 28  1  0
 28 29  2  0
  9 30  2  0
 30  5  1  0
 29 14  1  0
 27 22  1  0
  1 31  1  0
  6 32  1  0
  7 33  1  0
  8 34  1  0
 15 35  1  0
 16 36  1  0
 23 37  1  0
 24 38  1  0
 25 39  1  0
 26 40  1  0
 28 41  1  0
 29 42  1  0
 30 43  1  0
M  CHG  4   1  -1  10  -1  13  -1  27  -1
M  END
>  <UniqueID>  (1) 
1

>  <SMILES>  (1) 
[NH-]S(=O)(=O)c1cccc([N-]C(=O)[N-]c2ccc(S(=O)(=O)N=c3cccc[n-]3)cc2)c1

>  <Energy>  (1) 
52.09659526375198

>  <Genealogy>  (1) 
[NH-]S(=O)(=O)c1cccc([N-]C(=O)[N-]c2ccc(S(=O)(=O)N=c3cccc[n-]3)cc2)c1 (protonated)
[NH-]S(=O)(=O)c1cccc([N-]C(=O)[N-]c2ccc(S(=O)(=O)N=c3cccc[n-]3)cc2)c1 (3D coordinates assigned)
[NH-]S(=O)(=O)c1cccc([N-]C(=O)[N-]c2ccc(S(=O)(=O)N=c3cccc[n-]3)cc2)c1 (optimized conformer: 52.09659526375198 kcal/mol)

>  <smiles>  (1) 
NS(=O)(=O)c1cccc(NC(=O)Nc2ccc(S(=O)(=O)N=c3cccc[nH]3)cc2)c1

>  <score_type>  (1) 
oracle

>  <origin>  (1) 
adg

>  <m_score__min__energy>  (1) 
-15.18

>  <m_primary>  (1) 
energy

$$$$
1:0
     RDKit          3D

 42 43  0  0  0  0  0  0  0  0999 V2000
   57.0810   21.1670   43.0090 C   0  0  0  0  0  0  0  0  0  0  0  0
   56.0120   21.9610   43.5140 O   0  0  0  0  0  0  0  0  0  0  0  0
   56.1760   23.2210   44.1080 C   0  0  0  0  0  0  0  0  0  0  0  0
   55.2820   23.7250   45.0700 C   0  0  0  0  0  0  0  0  0  0  0  0
   55.4880   24.9900   45.6320 C   0  0  0  0  0  0  0  0  0  0  0  0
   56.5900   25.7660   45.2420 C   0  0  0  0  0  0  0  0  0  0  0  0
   56.8070   27.1340   45.8310 C   0  0  0  0  0  0  0  0  0  0  0  0
   57.5370   28.0000   44.9030 N   0  0  0  0  0  0  0  0  0  0  0  0
   56.6860   29.4950   44.6310 S   0  0  0  0  0  0  0  0  0  0  0  0
   55.2650   29.3570   45.1020 O   0  0  0  0  0  0  0  0  0  0  0  0
   56.6780   29.7920   43.1580 O   0  0  0  0  0  0  0  0  0  0  0  0
   57.4470   30.8030   45.4870 N   0  0  0  0  0  0  0  0  0  0  0  0
   57.1470   32.0710   44.8200 C   0  0  0  0  0  0  0  0  0  0  0  0
   57.9620   33.1690   45.4420 C   0  0  0  0  0  0  0  0  0  0  0  0
   58.5090   34.1810   44.6400 C   0  0  0  0  0  0  0  0  0  0  0  0
   59.3000   35.1810   45.2120 C   0  0  0  0  0  0  0  0  0  0  0  0
   59.5610   35.1720   46.5850 C   0  0  0  0  0  0  0  0  0  0  0  0
   59.0330   34.1530   47.3990 C   0  0  0  0  0  0  0  0  0  0  0  0
   59.2720   34.0940   48.7800 O   0  0  0  0  0  0  0  0  0  0  0  0
   60.5460   33.8430   49.3640 C   0  0  0  0  0  0  0  0  0  0  0  0
   58.2410   33.1540   46.8190 C   0  0  0  0  0  0  0  0  0  0  0  0
   57.4810   25.2640   44.2810 C   0  0  0  0  0  0  0  0  0  0  0  0
   57.2740   24.0000   43.7210 C   0  0  0  0  0  0  0  0  0  0  0  0
   57.6514   20.7433   43.8487 H   0  0  0  0  0  0  0  0  0  0  0  0
   56.6731   20.3512   42.3941 H   0  0  0  0  0  0  0  0  0  0  0  0
   57.7442   21.7932   42.3941 H   0  0  0  0  0  0  0  0  0  0  0  0
   54.4167   23.1218   45.3821 H   0  0  0  0  0  0  0  0  0  0  0  0
   54.7832   25.3775   46.3824 H   0  0  0  0  0  0  0  0  0  0  0  0
   55.8301   27.5883   46.0527 H   0  0  0  0  0  0  0  0  0  0  0  0
   57.4025   27.0274   46.7497 H   0  0  0  0  0  0  0  0  0  0  0  0
   57.0230   30.8290   46.4430 H   0  0  0  0  0  0  0  0  0  0  0  0
   57.3948   31.9908   43.7513 H   0  0  0  0  0  0  0  0  0  0  0  0
   56.0770   32.3001   44.9320 H   0  0  0  0  0  0  0  0  0  0  0  0
   58.3148   34.1877   43.5573 H   0  0  0  0  0  0  0  0  0  0  0  0
   59.7186   35.9778   44.5796 H   0  0  0  0  0  0  0  0  0  0  0  0
   60.1810   35.9639   47.0306 H   0  0  0  0  0  0  0  0  0  0  0  0
   60.4567   33.8606   50.4602 H   0  0  0  0  0  0  0  0  0  0  0  0
   60.9092   32.8560   49.0415 H   0  0  0  0  0  0  0  0  0  0  0  0
   61.2564   34.6184   49.0415 H   0  0  0  0  0  0  0  0  0  0  0  0
   57.8331   32.3492   47.4482 H   0  0  0  0  0  0  0  0  0  0  0  0
   58.3455   25.8674   43.9672 H   0  0  0  0  0  0  0  0  0  0  0  0
   57.9792   23.6139   42.9702 H   0  0  0  0  0  0  0  0  0  0  0  0
  1  2  1  0
  2  3  1  0
  3  4  2  0
  4  5  1  0
  5  6  2  0
  6  7  1  0
  7  8  1  0
  8  9  1  0
  9 10  2  0
  9 11  2  0
  9 12  1  0
 12 13  1  0
 13 14  1  0
 14 15  2  0
 15 16  1  0
 16 17  2  0
 17 18  1  0
 18 19  1  0
 19 20  1  0
 18 21  2  0
  6 22  1  0
 22 23  2  0
 23  3  1  0
 21 14  1  0
  1 24  1  0
  1 25  1  0
  1 26  1  0
  4 27  1  0
  5 28  1  0
  7 29  1  0
  7 30  1  0
 12 31  1  0
 13 32  1  0
 13 33  1  0
 15 34  1  0
 16 35  1  0
 17 36  1  0
 20 37  1  0
 20 38  1  0
 20 39  1  0
 21 40  1  0
 22 41  1  0
 23 42  1  0
M  CHG  1   8  -1
M  END
>  <UniqueID>  (2) 
2

>  <SMILES>  (2) 
COc1ccc(C[N-]S(=O)(=O)NCc2cccc(OC)c2)cc1

>  <Energy>  (2) 
34.057557927218916

>  <Genealogy>  (2) 
COc1ccc(C[N-]S(=O)(=O)NCc2cccc(OC)c2)cc1 (protonated)
COc1ccc(C[N-]S(=O)(=O)NCc2cccc(OC)c2)cc1 (3D coordinates assigned)
COc1ccc(C[N-]S(=O)(=O)NCc2cccc(OC)c2)cc1 (optimized conformer: 34.057557927218916 kcal/mol)

>  <smiles>  (2) 
COc1ccc(CNS(=O)(=O)NCc2cccc(OC)c2)cc1

>  <score_type>  (2) 
oracle

>  <origin>  (2) 
adg

>  <m_score__min__energy>  (2) 
-9.4100000000000001

>  <m_primary>  (2) 
energy

$$$$
2:0
     RDKit          3D

 33 34  0  0  0  0  0  0  0  0999 V2000
   54.0230   26.7130   46.1400 H   0  0  0  0  0  0  0  0  0  0  0  0
   54.9770   26.3130   45.9930 N   0  0  0  0  0  0  0  0  0  0  0  0
   56.0300   27.0640   45.9700 C   0  0  0  0  0  0  0  0  0  0  0  0
   56.0270   28.2240   45.2590 N   0  0  0  0  0  0  0  0  0  0  0  0
   57.1080   29.0510   45.2050 C   0  0  0  0  0  0  0  0  0  0  0  0
   57.0090   30.2860   44.3570 C   0  0  0  0  0  0  0  0  0  0  0  0
   56.9380   31.1715   45.0057 H   0  0  0  0  0  0  0  0  0  0  0  0
   57.9035   30.3674   43.7220 H   0  0  0  0  0  0  0  0  0  0  0  0
   56.1130   30.2239   43.7220 H   0  0  0  0  0  0  0  0  0  0  0  0
   58.2780   28.7160   45.9280 C   0  0  0  0  0  0  0  0  0  0  0  0
   59.4820   29.5780   45.9440 C   0  0  0  0  0  0  0  0  0  0  0  0
   60.3120   29.4970   44.9970 O   0  0  0  0  0  0  0  0  0  0  0  0
   59.7510   30.4350   47.0630 N   0  0  0  0  0  0  0  0  0  0  0  0
   59.3340   30.1740   47.9840 H   0  0  0  0  0  0  0  0  0  0  0  0
   60.6440   31.5620   47.0050 C   0  0  0  0  0  0  0  0  0  0  0  0
   62.0280   31.3910   47.2010 C   0  0  0  0  0  0  0  0  0  0  0  0
   62.4288   30.3905   47.4211 H   0  0  0  0  0  0  0  0  0  0  0  0
   62.8950   32.4820   47.1180 C   0  0  0  0  0  0  0  0  0  0  0  0
   63.9736   32.3402   47.2806 H   0  0  0  0  0  0  0  0  0  0  0  0
   62.3950   33.7520   46.8290 C   0  0  0  0  0  0  0  0  0  0  0  0
   63.0796   34.6110   46.7704 H   0  0  0  0  0  0  0  0  0  0  0  0
   61.0280   33.9350   46.6140 C   0  0  0  0  0  0  0  0  0  0  0  0
   60.6406   34.9374   46.3793 H   0  0  0  0  0  0  0  0  0  0  0  0
   60.1410   32.8420   46.6960 C   0  0  0  0  0  0  0  0  0  0  0  0
   58.7600   32.9940   46.4880 O   0  0  0  0  0  0  0  0  0  0  0  0
   58.1800   33.8150   45.4790 C   0  0  0  0  0  0  0  0  0  0  0  0
   57.6068   34.6264   45.9512 H   0  0  0  0  0  0  0  0  0  0  0  0
   58.9762   34.2445   44.8533 H   0  0  0  0  0  0  0  0  0  0  0  0
   57.5091   33.2081   44.8533 H   0  0  0  0  0  0  0  0  0  0  0  0
   58.2990   27.5070   46.6430 C   0  0  0  0  0  0  0  0  0  0  0  0
   59.2081   27.2094   47.1861 H   0  0  0  0  0  0  0  0  0  0  0  0
   57.1760   26.6820   46.6690 C   0  0  0  0  0  0  0  0  0  0  0  0
   57.1927   25.7389   47.2350 H   0  0  0  0  0  0  0  0  0  0  0  0
  1  2  1  0
  2  3  2  0
  3  4  1  0
  4  5  1  0
  5  6  1  0
  6  7  1  0
  6  8  1  0
  6  9  1  0
  5 10  2  0
 10 11  1  0
 11 12  2  0
 11 13  1  0
 13 14  1  0
 13 15  1  0
 15 16  2  0
 16 17  1  0
 16 18  1  0
 18 19  1  0
 18 20  2  0
 20 21  1  0
 20 22  1  0
 22 23  1  0
 22 24  2  0
 24 25  1  0
 25 26  1  0
 26 27  1  0
 26 28  1  0
 26 29  1  0
 10 30  1  0
 30 31  1  0
 30 32  2  0
 32 33  1  0
 32  3  1  0
 24 15  1  0
M  CHG  1   4  -1
M  END
>  <UniqueID>  (3) 
3

>  <SMILES>  (3) 
[H]/N=c1/ccc(C(=O)Nc2ccccc2OC)c(C)[n-]1

>  <Energy>  (3) 
41.671106662171304

>  <Genealogy>  (3) 
COc1ccccc1NC(=O)c1ccc(=N)[n-]c1C (protonated)
[H]/N=c1/ccc(C(=O)Nc2ccccc2OC)c(C)[n-]1 (cis-trans isomerization)
[H]/N=c1/ccc(C(=O)Nc2ccccc2OC)c(C)[n-]1 (3D coordinates assigned)
[H]/N=c1/ccc(C(=O)Nc2ccccc2OC)c(C)[n-]1 (optimized conformer: 41.671106662171304 kcal/mol)

>  <smiles>  (3) 
COc1ccccc1NC(=O)c1ccc(=N)[nH]c1C

>  <score_type>  (3) 
oracle

>  <origin>  (3) 
adg

>  <m_score__min__energy>  (3) 
-8.4900000000000002

>  <m_primary>  (3) 
energy

$$$$
3:0
     RDKit          3D

 49 51  0  0  0  0  0  0  0  0999 V2000
   57.8408   32.6756   44.1283 H   0  0  0  0  0  0  0  0  0  0  0  0
   57.3670   31.6990   43.9500 C   0  0  0  0  0  0  0  0  0  0  0  0
   57.0020   30.8700   44.9630 N   0  0  0  0  0  0  0  0  0  0  0  0
   56.4310   29.7380   44.4990 C   0  0  0  0  0  0  0  0  0  0  0  0
   56.0240   28.7530   45.2440 N   0  0  0  0  0  0  0  0  0  0  0  0
   56.6360   27.4640   45.4330 C   0  0  0  0  0  0  0  0  0  0  0  0
   56.0760   26.6490   46.2130 O   0  0  0  0  0  0  0  0  0  0  0  0
   57.9730   27.0860   44.8420 C   0  0  0  0  0  0  0  0  0  0  0  0
   58.2689   27.8587   44.1172 H   0  0  0  0  0  0  0  0  0  0  0  0
   57.8593   26.1024   44.3628 H   0  0  0  0  0  0  0  0  0  0  0  0
   59.0830   26.9600   45.9130 C   0  0  0  0  0  0  0  0  0  0  0  0
   59.4356   25.9181   45.9048 H   0  0  0  0  0  0  0  0  0  0  0  0
   60.3240   27.8320   45.5950 C   0  0  0  0  0  0  0  0  0  0  0  0
   60.3852   27.9858   44.5075 H   0  0  0  0  0  0  0  0  0  0  0  0
   61.2195   27.3108   45.9643 H   0  0  0  0  0  0  0  0  0  0  0  0
   60.2360   29.1970   46.2890 C   0  0  0  0  0  0  0  0  0  0  0  0
   59.3181   29.7044   45.9572 H   0  0  0  0  0  0  0  0  0  0  0  0
   61.1330   29.7724   46.0164 H   0  0  0  0  0  0  0  0  0  0  0  0
   60.2060   29.0740   47.7720 N   0  0  0  0  0  0  0  0  0  0  0  0
   59.5730   30.2580   48.4000 C   0  0  0  0  0  0  0  0  0  0  0  0
   60.3586   30.9755   48.6794 H   0  0  0  0  0  0  0  0  0  0  0  0
   59.0149   29.9182   49.2849 H   0  0  0  0  0  0  0  0  0  0  0  0
   58.5840   30.9490   47.4480 C   0  0  0  0  0  0  0  0  0  0  0  0
   57.6182   31.0679   47.9609 H   0  0  0  0  0  0  0  0  0  0  0  0
   58.4762   30.3237   46.5494 H   0  0  0  0  0  0  0  0  0  0  0  0
   59.0830   32.3070   47.0220 C   0  0  0  0  0  0  0  0  0  0  0  0
   58.1780   33.3120   46.6450 C   0  0  0  0  0  0  0  0  0  0  0  0
   57.0960   33.1170   46.6812 H   0  0  0  0  0  0  0  0  0  0  0  0
   58.6470   34.5590   46.2240 C   0  0  0  0  0  0  0  0  0  0  0  0
   57.9337   35.3436   45.9314 H   0  0  0  0  0  0  0  0  0  0  0  0
   60.0190   34.8110   46.1740 C   0  0  0  0  0  0  0  0  0  0  0  0
   60.3808   35.7957   45.8432 H   0  0  0  0  0  0  0  0  0  0  0  0
   60.9380   33.8220   46.5410 C   0  0  0  0  0  0  0  0  0  0  0  0
   62.3060   34.1240   46.4700 O   0  0  0  0  0  0  0  0  0  0  0  0
   63.3360   33.3410   47.0670 C   0  0  0  0  0  0  0  0  0  0  0  0
   63.2551   33.4025   48.1623 H   0  0  0  0  0  0  0  0  0  0  0  0
   63.2305   32.2930   46.7498 H   0  0  0  0  0  0  0  0  0  0  0  0
   64.3175   33.7230   46.7498 H   0  0  0  0  0  0  0  0  0  0  0  0
   60.4630   32.5660   46.9660 C   0  0  0  0  0  0  0  0  0  0  0  0
   61.1777   31.7819   47.2563 H   0  0  0  0  0  0  0  0  0  0  0  0
   59.5980   27.8060   48.2560 C   0  0  0  0  0  0  0  0  0  0  0  0
   59.1545   27.9824   49.2471 H   0  0  0  0  0  0  0  0  0  0  0  0
   60.3935   27.0475   48.3002 H   0  0  0  0  0  0  0  0  0  0  0  0
   58.5060   27.2850   47.3130 C   0  0  0  0  0  0  0  0  0  0  0  0
   57.7249   28.0526   47.2098 H   0  0  0  0  0  0  0  0  0  0  0  0
   58.0883   26.3615   47.7404 H   0  0  0  0  0  0  0  0  0  0  0  0
   56.3760   29.7090   42.8220 S   0  0  0  0  0  0  0  0  0  0  0  0
   57.0980   31.2230   42.6720 C   0  0  0  0  0  0  0  0  0  0  0  0
   57.3181   31.7438   41.7284 H   0  0  0  0  0  0  0  0  0  0  0  0
  1  2  1  0
  2  3  1  0
  3  4  1  0
  4  5  2  0
  5  6  1  0
  6  7  2  0
  6  8  1  0
  8  9  1  0
  8 10  1  0
  8 11  1  0
 11 12  1  0
 11 13  1  0
 13 14  1  0
 13 15  1  0
 13 16  1  0
 16 17  1  0
 16 18  1  0
 16 19  1  0
 19 20  1  0
 20 21  1  0
 20 22  1  0
 20 23  1  0
 23 24  1  0
 23 25  1  0
 23 26  1  0
 26 27  2  0
 27 28  1  0
 27 29  1  0
 29 30  1  0
 29 31  2  0
 31 32  1  0
 31 33  1  0
 33 34  1  0
 34 35  1  0
 35 36  1  0
 35 37  1  0
 35 38  1  0
 33 39  2  0
 39 40  1  0
 19 41  1  0
 41 42  1  0
 41 43  1  0
 41 44  1  0
 44 45  1  0
 44 46  1  0
  4 47  1  0
 47 48  1  0
 48 49  1  0
 48  2  2  0
 44 11  1  0
 39 26  1  0
M  CHG  1   3  -1
M  END
>  <UniqueID>  (4) 
4

>  <SMILES>  (4) 
COc1cccc(CCN2CCC(CC(=O)/N=c3\[n-]ccs3)CC2)c1

>  <Energy>  (4) 
89.53755854397029

>  <Genealogy>  (4) 
COc1cccc(CCN2CCC(CC(=O)N=c3[n-]ccs3)CC2)c1 (protonated)
COc1cccc(CCN2CCC(CC(=O)/N=c3\[n-]ccs3)CC2)c1 (cis-trans isomerization)
COc1cccc(CCN2CCC(CC(=O)/N=c3\[n-]ccs3)CC2)c1 (3D coordinates assigned)
COc1cccc(CCN2CCC(CC(=O)/N=c3\[n-]ccs3)CC2)c1 (nonaromatic ring conformer: 89.53755854397029 kcal/mol)

>  <smiles>  (4) 
COc1cccc(CCN2CCC(CC(=O)N=c3[nH]ccs3)CC2)c1

>  <score_type>  (4) 
oracle

>  <origin>  (4) 
adg

>  <m_score__min__energy>  (4) 
-9.8699999999999992

>  <m_primary>  (4) 
energy

$$$$
4:0
     RDKit          3D

 51 51  0  0  0  0  0  0  0  0999 V2000
   63.6960   33.1730   46.8210 C   0  0  0  0  0  0  0  0  0  0  0  0
   63.3300   32.7120   48.2320 C   0  0  0  0  0  0  0  0  0  0  0  0
   63.4520   33.8400   49.2630 C   0  0  0  0  0  0  0  0  0  0  0  0
   62.3270   33.8000   50.2500 C   0  0  0  0  0  0  0  0  0  0  0  0
   62.5320   33.3770   51.4220 O   0  0  0  0  0  0  0  0  0  0  0  0
   61.0620   34.2450   49.8580 O   0  0  0  0  0  0  0  0  0  0  0  0
   60.2190   33.5510   48.9360 C   0  0  2  0  0  0  0  0  0  0  0  0
   59.2880   34.5790   48.2830 C   0  0  0  0  0  0  0  0  0  0  0  0
   59.9890   35.2370   47.2390 O   0  0  0  0  0  0  0  0  0  0  0  0
   60.5040   34.3130   46.3030 C   0  0  0  0  0  0  0  0  0  0  0  0
   59.4280   33.3610   45.8510 C   0  0  0  0  0  0  0  0  0  0  0  0
   58.3130   33.8430   45.1500 C   0  0  0  0  0  0  0  0  0  0  0  0
   57.3010   32.9680   44.7460 C   0  0  0  0  0  0  0  0  0  0  0  0
   57.3870   31.6010   45.0320 C   0  0  0  0  0  0  0  0  0  0  0  0
   56.3420   30.7670   44.6120 O   0  0  0  0  0  0  0  0  0  0  0  0
   56.3490   30.0090   43.4080 C   0  0  0  0  0  0  0  0  0  0  0  0
   58.5110   31.1140   45.7250 C   0  0  0  0  0  0  0  0  0  0  0  0
   59.5230   31.9900   46.1320 C   0  0  0  0  0  0  0  0  0  0  0  0
   59.4440   32.4440   49.7050 C   0  0  0  0  0  0  0  0  0  0  0  0
   59.7230   32.3690   51.1630 N   0  0  2  0  0  0  0  0  0  0  0  0
   60.3900   31.0810   51.4530 C   0  0  0  0  0  0  0  0  0  0  0  0
   58.4790   32.4990   51.9600 C   0  0  0  0  0  0  0  0  0  0  0  0
   57.5810   31.3460   51.7710 C   0  0  0  0  0  0  0  0  0  0  0  0
   56.8700   30.4460   51.6200 N   0  0  0  0  0  0  0  0  0  0  0  0
   64.3789   34.0332   46.8819 H   0  0  0  0  0  0  0  0  0  0  0  0
   64.1896   32.3503   46.2830 H   0  0  0  0  0  0  0  0  0  0  0  0
   62.7828   33.4672   46.2830 H   0  0  0  0  0  0  0  0  0  0  0  0
   62.2919   32.3481   48.2271 H   0  0  0  0  0  0  0  0  0  0  0  0
   64.0334   31.9165   48.5190 H   0  0  0  0  0  0  0  0  0  0  0  0
   64.4050   33.7315   49.8016 H   0  0  0  0  0  0  0  0  0  0  0  0
   63.4125   34.8019   48.7309 H   0  0  0  0  0  0  0  0  0  0  0  0
   60.7943   33.0556   48.1400 H   0  0  0  0  0  0  0  0  0  0  0  0
   58.4055   34.0681   47.8703 H   0  0  0  0  0  0  0  0  0  0  0  0
   58.9606   35.3142   49.0329 H   0  0  0  0  0  0  0  0  0  0  0  0
   60.8924   34.8599   45.4312 H   0  0  0  0  0  0  0  0  0  0  0  0
   61.3100   33.7364   46.7804 H   0  0  0  0  0  0  0  0  0  0  0  0
   58.2347   34.9152   44.9170 H   0  0  0  0  0  0  0  0  0  0  0  0
   56.4297   33.3571   44.1987 H   0  0  0  0  0  0  0  0  0  0  0  0
   56.3589   28.9361   43.6503 H   0  0  0  0  0  0  0  0  0  0  0  0
   55.4486   30.2442   42.8214 H   0  0  0  0  0  0  0  0  0  0  0  0
   57.2449   30.2607   42.8214 H   0  0  0  0  0  0  0  0  0  0  0  0
   58.5941   30.0400   45.9476 H   0  0  0  0  0  0  0  0  0  0  0  0
   60.3974   31.6018   46.6750 H   0  0  0  0  0  0  0  0  0  0  0  0
   58.3677   32.6294   49.5741 H   0  0  0  0  0  0  0  0  0  0  0  0
   59.7812   31.4865   49.2813 H   0  0  0  0  0  0  0  0  0  0  0  0
   60.3920   33.1250   51.4300 H   0  0  0  0  0  0  0  0  0  0  0  0
   60.4618   30.9423   52.5418 H   0  0  0  0  0  0  0  0  0  0  0  0
   59.8045   30.2584   51.0164 H   0  0  0  0  0  0  0  0  0  0  0  0
   61.3996   31.0845   51.0164 H   0  0  0  0  0  0  0  0  0  0  0  0
   58.7451   32.5715   53.0249 H   0  0  0  0  0  0  0  0  0  0  0  0
   57.9500   33.4017   51.6205 H   0  0  0  0  0  0  0  0  0  0  0  0
  1  2  1  0
  2  3  1  0
  3  4  1  0
  4  5  2  0
  4  6  1  0
  6  7  1  0
  7  8  1  0
  8  9  1  0
  9 10  1  0
 10 11  1  0
 11 12  2  0
 12 13  1  0
 13 14  2  0
 14 15  1  0
 15 16  1  0
 14 17  1  0
 17 18  2  0
  7 19  1  0
 19 20  1  0
 20 21  1  0
 20 22  1  0
 22 23  1  0
 23 24  3  0
 18 11  1  0
  1 25  1  0
  1 26  1  0
  1 27  1  0
  2 28  1  0
  2 29  1  0
  3 30  1  0
  3 31  1  0
  7 32  1  6
  8 33  1  0
  8 34  1  0
 10 35  1  0
 10 36  1  0
 12 37  1  0
 13 38  1  0
 16 39  1  0
 16 40  1  0
 16 41  1  0
 17 42  1  0
 18 43  1  0
 19 44  1  0
 19 45  1  0
 20 46  1  1
 21 47  1  0
 21 48  1  0
 21 49  1  0
 22 50  1  0
 22 51  1  0
M  CHG  1  20   1
M  END
>  <UniqueID>  (5) 
5

>  <SMILES>  (5) 
CCCC(=O)O[C@H](COCc1ccc(OC)cc1)C[N@H+](C)CC#N

>  <Energy>  (5) 
41.74024508900494

>  <Genealogy>  (5) 
CCCC(=O)OC(COCc1ccc(OC)cc1)C[NH+](C)CC#N (protonated)
CCCC(=O)O[C@H](COCc1ccc(OC)cc1)C[N@H+](C)CC#N (chirality)
CCCC(=O)O[C@H](COCc1ccc(OC)cc1)C[N@H+](C)CC#N (3D coordinates assigned)
CCCC(=O)O[C@H](COCc1ccc(OC)cc1)C[N@H+](C)CC#N (optimized conformer: 41.74024508900494 kcal/mol)

>  <smiles>  (5) 
CCCC(=O)OC(COCc1ccc(OC)cc1)CN(C)CC#N

>  <score_type>  (5) 
oracle

>  <origin>  (5) 
adg

>  <m_score__min__energy>  (5) 
-4.4900000000000002

>  <m_primary>  (5) 
energy

$$$$
5:0
     RDKit          3D

 48 51  0  0  0  0  0  0  0  0999 V2000
   58.9210   34.9990   47.2970 C   0  0  0  0  0  0  0  0  0  0  0  0
   59.7000   33.9970   46.5640 N   0  0  0  0  0  0  0  0  0  0  0  0
   59.2260   33.5430   45.2800 C   0  0  0  0  0  0  0  0  0  0  0  0
   59.4840   34.2220   44.2480 O   0  0  0  0  0  0  0  0  0  0  0  0
   58.4400   32.2930   45.1420 C   0  0  0  0  0  0  0  0  0  0  0  0
   57.2010   32.2880   44.4450 C   0  0  0  0  0  0  0  0  0  0  0  0
   56.4530   31.1030   44.3170 C   0  0  0  0  0  0  0  0  0  0  0  0
   56.9750   29.9450   44.8820 C   0  0  0  0  0  0  0  0  0  0  0  0
   56.4400   28.7170   44.8780 N   0  0  0  0  0  0  0  0  0  0  0  0
   57.3620   27.9820   45.5590 C   0  0  0  0  0  0  0  0  0  0  0  0
   57.2000   26.5270   45.8120 C   0  0  0  0  0  0  0  0  0  0  0  0
   58.3380   25.6970   45.8320 C   0  0  0  0  0  0  0  0  0  0  0  0
   58.2160   24.3250   46.0680 C   0  0  0  0  0  0  0  0  0  0  0  0
   56.9590   23.7620   46.2870 C   0  0  0  0  0  0  0  0  0  0  0  0
   55.8210   24.5690   46.2720 C   0  0  0  0  0  0  0  0  0  0  0  0
   55.9310   25.9440   46.0370 C   0  0  0  0  0  0  0  0  0  0  0  0
   54.7720   26.7130   46.0300 O   0  0  0  0  0  0  0  0  0  0  0  0
   58.4380   28.7000   45.9790 N   0  0  0  0  0  0  0  0  0  0  0  0
   58.1650   29.9350   45.5360 C   0  0  0  0  0  0  0  0  0  0  0  0
   58.9350   31.0850   45.6880 C   0  0  0  0  0  0  0  0  0  0  0  0
   60.8960   33.4370   47.1520 C   0  0  0  0  0  0  0  0  0  0  0  0
   60.8010   32.4810   48.1780 C   0  0  0  0  0  0  0  0  0  0  0  0
   61.9550   31.9510   48.7610 C   0  0  0  0  0  0  0  0  0  0  0  0
   63.2220   32.3610   48.3320 C   0  0  0  0  0  0  0  0  0  0  0  0
   64.3760   31.7910   48.9660 N   0  0  0  0  0  0  0  0  0  0  0  0
   65.2830   32.5100   50.2570 S   0  0  0  0  0  0  0  0  0  0  0  0
   64.3450   33.8230   51.0070 C   0  0  0  0  0  0  0  0  0  0  0  0
   65.5580   31.4600   51.2950 O   0  0  0  0  0  0  0  0  0  0  0  0
   66.5930   33.0320   49.7380 O   0  0  0  0  0  0  0  0  0  0  0  0
   63.3220   33.3110   47.3010 C   0  0  0  0  0  0  0  0  0  0  0  0
   62.1690   33.8420   46.7160 C   0  0  0  0  0  0  0  0  0  0  0  0
   59.0445   34.8402   48.3785 H   0  0  0  0  0  0  0  0  0  0  0  0
   59.2760   36.0057   47.0313 H   0  0  0  0  0  0  0  0  0  0  0  0
   57.8579   34.9032   47.0313 H   0  0  0  0  0  0  0  0  0  0  0  0
   56.8229   33.2206   44.0009 H   0  0  0  0  0  0  0  0  0  0  0  0
   55.4885   31.0933   43.7881 H   0  0  0  0  0  0  0  0  0  0  0  0
   59.3330   26.1333   45.6601 H   0  0  0  0  0  0  0  0  0  0  0  0
   59.1128   23.6881   46.0811 H   0  0  0  0  0  0  0  0  0  0  0  0
   56.8648   22.6817   46.4716 H   0  0  0  0  0  0  0  0  0  0  0  0
   54.8313   24.1216   46.4460 H   0  0  0  0  0  0  0  0  0  0  0  0
   59.8992   31.0554   46.2166 H   0  0  0  0  0  0  0  0  0  0  0  0
   59.8115   32.1478   48.5243 H   0  0  0  0  0  0  0  0  0  0  0  0
   61.8665   31.2048   49.5644 H   0  0  0  0  0  0  0  0  0  0  0  0
   64.4058   33.7379   52.1020 H   0  0  0  0  0  0  0  0  0  0  0  0
   64.7555   34.7935   50.6913 H   0  0  0  0  0  0  0  0  0  0  0  0
   63.2939   33.7493   50.6913 H   0  0  0  0  0  0  0  0  0  0  0  0
   64.3127   33.6383   46.9527 H   0  0  0  0  0  0  0  0  0  0  0  0
   62.2588   34.5828   45.9079 H   0  0  0  0  0  0  0  0  0  0  0  0
  1  2  1  0
  2  3  1  0
  3  4  2  0
  3  5  1  0
  5  6  2  0
  6  7  1  0
  7  8  2  0
  8  9  1  0
  9 10  1  0
 10 11  1  0
 11 12  2  0
 12 13  1  0
 13 14  2  0
 14 15  1  0
 15 16  2  0
 16 17  1  0
 10 18  2  0
 18 19  1  0
 19 20  2  0
  2 21  1  0
 21 22  2  0
 22 23  1  0
 23 24  2  0
 24 25  1  0
 25 26  1  0
 26 27  1  0
 26 28  2  0
 26 29  2  0
 24 30  1  0
 30 31  2  0
 20  5  1  0
 31 21  1  0
 19  8  1  0
 16 11  1  0
  1 32  1  0
  1 33  1  0
  1 34  1  0
  6 35  1  0
  7 36  1  0
 12 37  1  0
 13 38  1  0
 14 39  1  0
 15 40  1  0
 20 41  1  0
 22 42  1  0
 23 43  1  0
 27 44  1  0
 27 45  1  0
 27 46  1  0
 30 47  1  0
 31 48  1  0
M  CHG  3   9  -1  17  -1  25  -1
M  END
>  <UniqueID>  (6) 
6

>  <SMILES>  (6) 
CN(C(=O)c1ccc2[n-]c(-c3ccccc3[O-])nc2c1)c1ccc([N-]S(C)(=O)=O)cc1

>  <Energy>  (6) 
97.05980680795167

>  <Genealogy>  (6) 
CN(C(=O)c1ccc2[n-]c(-c3ccccc3[O-])nc2c1)c1ccc([N-]S(C)(=O)=O)cc1 (protonated)
CN(C(=O)c1ccc2[n-]c(-c3ccccc3[O-])nc2c1)c1ccc([N-]S(C)(=O)=O)cc1 (3D coordinates assigned)
CN(C(=O)c1ccc2[n-]c(-c3ccccc3[O-])nc2c1)c1ccc([N-]S(C)(=O)=O)cc1 (optimized conformer: 97.05980680795167 kcal/mol)

>  <smiles>  (6) 
CN(C(=O)c1ccc2[nH]c(-c3ccccc3O)nc2c1)c1ccc(NS(C)(=O)=O)cc1

>  <score_type>  (6) 
oracle

>  <origin>  (6) 
adg

>  <m_score__min__energy>  (6) 
-15.15

>  <m_primary>  (6) 
energy

$$$$
6:0
     RDKit          3D

 23 24  0  0  0  0  0  0  0  0999 V2000
   52.6220   22.7010   45.2610 O   0  0  0  0  0  0  0  0  0  0  0  0
   53.6850   23.3720   45.2250 C   0  0  0  0  0  0  0  0  0  0  0  0
   53.6950   24.6530   45.6710 N   0  0  0  0  0  0  0  0  0  0  0  0
   54.8270   25.3990   45.6420 C   0  0  0  0  0  0  0  0  0  0  0  0
   54.7830   26.7080   46.1110 O   0  0  0  0  0  0  0  0  0  0  0  0
   56.0250   24.8510   45.1440 C   0  0  0  0  0  0  0  0  0  0  0  0
   57.2600   25.6770   45.1180 C   0  0  0  0  0  0  0  0  0  0  0  0
   57.3440   26.7870   45.7880 N   0  0  0  0  0  0  0  0  0  0  0  0
   57.2050   28.1200   45.2620 C   0  0  0  0  0  0  0  0  0  0  0  0
   58.3120   28.9590   45.0280 C   0  0  0  0  0  0  0  0  0  0  0  0
   58.1090   30.2360   44.5030 C   0  0  0  0  0  0  0  0  0  0  0  0
   56.8180   30.6680   44.2070 C   0  0  0  0  0  0  0  0  0  0  0  0
   55.7420   29.8110   44.4360 C   0  0  0  0  0  0  0  0  0  0  0  0
   55.9540   28.5670   44.9470 N   0  0  0  0  0  0  0  0  0  0  0  0
   55.9840   23.5150   44.6870 C   0  0  0  0  0  0  0  0  0  0  0  0
   57.0130   22.9510   44.2300 O   0  0  0  0  0  0  0  0  0  0  0  0
   54.8220   22.8150   44.7390 N   0  0  0  0  0  0  0  0  0  0  0  0
   58.1201   25.3420   44.5197 H   0  0  0  0  0  0  0  0  0  0  0  0
   59.3296   28.6100   45.2575 H   0  0  0  0  0  0  0  0  0  0  0  0
   58.9670   30.9004   44.3232 H   0  0  0  0  0  0  0  0  0  0  0  0
   56.6492   31.6746   43.7969 H   0  0  0  0  0  0  0  0  0  0  0  0
   54.7189   30.1411   44.2031 H   0  0  0  0  0  0  0  0  0  0  0  0
   55.1320   27.9430   45.1060 H   0  0  0  0  0  0  0  0  0  0  0  0
  1  2  2  0
  2  3  1  0
  3  4  1  0
  4  5  1  0
  4  6  2  0
  6  7  1  0
  7  8  2  3
  8  9  1  0
  9 10  2  0
 10 11  1  0
 11 12  2  0
 12 13  1  0
 13 14  2  0
  6 15  1  0
 15 16  2  0
 15 17  1  0
 17  2  1  0
 14  9  1  0
  7 18  1  0
 10 19  1  0
 11 20  1  0
 12 21  1  0
 13 22  1  0
 14 23  1  0
M  CHG  4   3  -1   5  -1  14   1  17  -1
M  END
>  <UniqueID>  (7) 
7

>  <SMILES>  (7) 
O=c1[n-]c([O-])c(C=Nc2cccc[nH+]2)c(=O)[n-]1

>  <Energy>  (7) 
30.90398871059819

>  <Genealogy>  (7) 
O=c1[n-]c([O-])c(C=Nc2cccc[nH+]2)c(=O)[n-]1 (protonated)
O=c1[n-]c([O-])c(C=Nc2cccc[nH+]2)c(=O)[n-]1 (3D coordinates assigned)
O=c1[n-]c([O-])c(C=Nc2cccc[nH+]2)c(=O)[n-]1 (optimized conformer: 30.90398871059819 kcal/mol)

>  <smiles>  (7) 
O=c1[nH]c(O)c(C=Nc2ccccn2)c(=O)[nH]1

>  <score_type>  (7) 
oracle

>  <origin>  (7) 
adg

>  <m_score__min__energy>  (7) 
-13.1

>  <m_primary>  (7) 
energy

$$$$
7:0
     RDKit          3D

 46 49  0  0  1  0  0  0  0  0999 V2000
   58.8860   34.9410   47.5160 N   0  0  0  0  0  0  0  0  0  0  0  0
   58.5190   34.2130   46.3540 C   0  0  0  0  0  0  0  0  0  0  0  0
   59.3260   34.2640   45.2330 C   0  0  0  0  0  0  0  0  0  0  0  0
   58.9490   33.5500   44.1210 C   0  0  0  0  0  0  0  0  0  0  0  0
   57.7830   32.8010   44.1360 C   0  0  0  0  0  0  0  0  0  0  0  0
   57.3990   32.0170   42.8570 C   0  0  0  0  0  0  0  0  0  0  0  0
   56.6160   30.8310   43.2310 C   0  0  0  0  0  0  0  0  0  0  0  0
   56.4380   30.2520   44.4560 N   0  0  0  0  0  0  0  0  0  0  0  0
   56.9230   29.2850   45.0840 C   0  0  0  0  0  0  0  0  0  0  0  0
   56.1160   28.1870   45.2480 N   0  0  0  0  0  0  0  0  0  0  0  0
   56.6350   27.1430   45.9250 C   0  0  0  0  0  0  0  0  0  0  0  0
   55.9140   26.1200   46.0890 N   0  0  0  0  0  0  0  0  0  0  0  0
   56.4090   24.8340   45.7640 C   0  0  0  0  0  0  0  0  0  0  0  0
   56.6820   24.5040   44.4320 C   0  0  0  0  0  0  0  0  0  0  0  0
   57.1570   23.2620   44.0700 C   0  0  0  0  0  0  0  0  0  0  0  0
   57.3700   22.3100   45.0620 C   0  0  0  0  0  0  0  0  0  0  0  0
   57.1100   22.5980   46.4060 C   0  0  0  0  0  0  0  0  0  0  0  0
   57.3120   21.6750   47.4110 O   0  0  0  0  0  0  0  0  0  0  0  0
   56.6360   23.8590   46.7110 C   0  0  0  0  0  0  0  0  0  0  0  0
   57.8980   27.2440   46.3920 C   0  0  0  0  0  0  0  0  0  0  0  0
   58.9150   26.0240   47.3490 S   0  0  0  0  0  0  0  0  0  0  0  0
   60.3590   27.1390   47.4370 C   0  0  0  0  0  0  0  0  0  0  0  0
   59.9620   28.2800   46.7660 C   0  0  0  0  0  0  0  0  0  0  0  0
   58.7460   28.3490   46.2430 C   0  0  0  0  0  0  0  0  0  0  0  0
   58.1520   29.3650   45.5470 N   0  0  0  0  0  0  0  0  0  0  0  0
   56.9650   32.7370   45.2410 C   0  0  0  0  0  0  0  0  0  0  0  0
   57.3430   33.4590   46.3740 C   0  0  0  0  0  0  0  0  0  0  0  0
   59.2490   34.4520   48.3590 H   0  0  0  0  0  0  0  0  0  0  0  0
   58.8050   35.9780   47.5660 H   0  0  0  0  0  0  0  0  0  0  0  0
   60.2490   34.8625   45.2310 H   0  0  0  0  0  0  0  0  0  0  0  0
   59.5745   33.5730   43.2164 H   0  0  0  0  0  0  0  0  0  0  0  0
   56.7984   32.6609   42.1977 H   0  0  0  0  0  0  0  0  0  0  0  0
   58.3117   31.7044   42.3285 H   0  0  0  0  0  0  0  0  0  0  0  0
   55.5958   31.0635   42.8918 H   0  0  0  0  0  0  0  0  0  0  0  0
   57.2870   30.0708   42.8046 H   0  0  0  0  0  0  0  0  0  0  0  0
   55.1630   28.1270   44.8870 H   0  0  0  0  0  0  0  0  0  0  0  0
   56.5123   25.2588   43.6500 H   0  0  0  0  0  0  0  0  0  0  0  0
   57.3641   23.0275   43.0154 H   0  0  0  0  0  0  0  0  0  0  0  0
   57.7488   21.3151   44.7851 H   0  0  0  0  0  0  0  0  0  0  0  0
   58.1440   21.1170   47.4910 H   0  0  0  0  0  0  0  0  0  0  0  0
   56.4289   24.0974   47.7647 H   0  0  0  0  0  0  0  0  0  0  0  0
   61.3294   26.9453   47.9175 H   0  0  0  0  0  0  0  0  0  0  0  0
   60.6538   29.1294   46.6661 H   0  0  0  0  0  0  0  0  0  0  0  0
   58.6990   30.2120   45.3910 H   0  0  0  0  0  0  0  0  0  0  0  0
   56.0435   32.1364   45.2315 H   0  0  0  0  0  0  0  0  0  0  0  0
   56.7178   33.4345   47.2787 H   0  0  0  0  0  0  0  0  0  0  0  0
  1  2  1  0
  2  3  2  0
  3  4  1  0
  4  5  2  0
  5  6  1  0
  6  7  1  0
  7  8  1  0
  8  9  2  0
  9 10  1  0
 10 11  1  0
 11 12  2  0
 12 13  1  0
 13 14  2  0
 14 15  1  0
 15 16  2  0
 16 17  1  0
 17 18  1  0
 17 19  2  0
 11 20  1  0
 20 21  1  0
 21 22  1  0
 22 23  2  0
 23 24  1  0
 24 25  1  0
  5 26  1  0
 26 27  2  0
 27  2  1  0
 25  9  1  0
 19 13  1  0
 24 20  2  0
  1 28  1  0
  1 29  1  0
  3 30  1  0
  4 31  1  0
  6 32  1  0
  6 33  1  0
  7 34  1  0
  7 35  1  0
 10 36  1  0
 14 37  1  0
 15 38  1  0
 16 39  1  0
 18 40  1  0
 19 41  1  0
 22 42  1  0
 23 43  1  0
 25 44  1  0
 26 45  1  0
 27 46  1  0
M  END
>  <smiles>  (8) 
Nc1ccc(CCN=c2[nH]c(=Nc3cccc(O)c3)c3sccc3[nH]2)cc1

>  <score_type>  (8) 
oracle

>  <origin>  (8) 
adg

>  <m_score__min__energy>  (8) 
-9.3599999999999994

>  <m_primary>  (8) 
energy

$$$$
8:0
     RDKit          3D

 40 42  0  0  0  0  0  0  0  0999 V2000
   55.4600   25.4860   46.0000 O   0  0  0  0  0  0  0  0  0  0  0  0
   56.4880   26.1240   45.6520 C   0  0  0  0  0  0  0  0  0  0  0  0
   56.6540   27.4680   46.1210 N   0  0  0  0  0  0  0  0  0  0  0  0
   56.9630   28.6040   45.3040 C   0  0  0  0  0  0  0  0  0  0  0  0
   55.9160   29.3370   44.7340 C   0  0  0  0  0  0  0  0  0  0  0  0
   56.1860   30.4580   43.9430 C   0  0  0  0  0  0  0  0  0  0  0  0
   57.5110   30.8680   43.7170 C   0  0  0  0  0  0  0  0  0  0  0  0
   57.7900   32.0470   42.8640 C   0  0  0  0  0  0  0  0  0  0  0  0
   57.7470   31.9290   41.6110 O   0  0  0  0  0  0  0  0  0  0  0  0
   58.0630   33.3410   43.4220 N   0  0  0  0  0  0  0  0  0  0  0  0
   58.3690   33.6250   44.7950 C   0  0  0  0  0  0  0  0  0  0  0  0
   59.5200   34.3460   45.1620 C   0  0  0  0  0  0  0  0  0  0  0  0
   59.7840   34.6110   46.5100 C   0  0  0  0  0  0  0  0  0  0  0  0
   58.8940   34.1780   47.4960 C   0  0  0  0  0  0  0  0  0  0  0  0
   57.7350   33.4840   47.1350 C   0  0  0  0  0  0  0  0  0  0  0  0
   57.4710   33.2160   45.7890 C   0  0  0  0  0  0  0  0  0  0  0  0
   58.5580   30.1610   44.3340 C   0  0  0  0  0  0  0  0  0  0  0  0
   58.2860   29.0400   45.1230 C   0  0  0  0  0  0  0  0  0  0  0  0
   57.4620   25.5240   44.7780 N   0  0  0  0  0  0  0  0  0  0  0  0
   57.3950   24.1680   44.3060 C   0  0  0  0  0  0  0  0  0  0  0  0
   58.2380   23.1660   44.8200 C   0  0  0  0  0  0  0  0  0  0  0  0
   58.1300   21.8490   44.3590 C   0  0  0  0  0  0  0  0  0  0  0  0
   57.1730   21.5200   43.3960 C   0  0  0  0  0  0  0  0  0  0  0  0
   56.3150   22.5040   42.9000 C   0  0  0  0  0  0  0  0  0  0  0  0
   56.4190   23.8210   43.3580 C   0  0  0  0  0  0  0  0  0  0  0  0
   54.8745   29.0295   44.9093 H   0  0  0  0  0  0  0  0  0  0  0  0
   55.3555   31.0229   43.4945 H   0  0  0  0  0  0  0  0  0  0  0  0
   60.2143   34.7024   44.3868 H   0  0  0  0  0  0  0  0  0  0  0  0
   60.6934   35.1609   46.7939 H   0  0  0  0  0  0  0  0  0  0  0  0
   59.1049   34.3829   48.5560 H   0  0  0  0  0  0  0  0  0  0  0  0
   57.0308   33.1489   47.9107 H   0  0  0  0  0  0  0  0  0  0  0  0
   56.5521   32.6804   45.5085 H   0  0  0  0  0  0  0  0  0  0  0  0
   59.5977   30.4922   44.1949 H   0  0  0  0  0  0  0  0  0  0  0  0
   59.1121   28.4964   45.6047 H   0  0  0  0  0  0  0  0  0  0  0  0
   58.3110   26.0750   44.5250 H   0  0  0  0  0  0  0  0  0  0  0  0
   58.9848   23.4185   45.5871 H   0  0  0  0  0  0  0  0  0  0  0  0
   58.7997   21.0717   44.7556 H   0  0  0  0  0  0  0  0  0  0  0  0
   57.0952   20.4861   43.0285 H   0  0  0  0  0  0  0  0  0  0  0  0
   55.5562   22.2425   42.1478 H   0  0  0  0  0  0  0  0  0  0  0  0
   55.7324   24.5896   42.9735 H   0  0  0  0  0  0  0  0  0  0  0  0
  1  2  2  0
  2  3  1  0
  3  4  1  0
  4  5  2  0
  5  6  1  0
  6  7  2  0
  7  8  1  0
  8  9  2  0
  8 10  1  0
 10 11  1  0
 11 12  2  0
 12 13  1  0
 13 14  2  0
 14 15  1  0
 15 16  2  0
  7 17  1  0
 17 18  2  0
  2 19  1  0
 19 20  1  0
 20 21  2  0
 21 22  1  0
 22 23  2  0
 23 24  1  0
 24 25  2  0
 18  4  1  0
 25 20  1  0
 16 11  1  0
  5 26  1  0
  6 27  1  0
 12 28  1  0
 13 29  1  0
 14 30  1  0
 15 31  1  0
 16 32  1  0
 17 33  1  0
 18 34  1  0
 19 35  1  0
 21 36  1  0
 22 37  1  0
 23 38  1  0
 24 39  1  0
 25 40  1  0
M  CHG  2   3  -1  10  -1
M  END
>  <UniqueID>  (9) 
8

>  <SMILES>  (9) 
O=C([N-]c1ccc(C(=O)[N-]c2ccccc2)cc1)Nc1ccccc1

>  <Energy>  (9) 
57.793968638646575

>  <Genealogy>  (9) 
O=C([N-]c1ccc(C(=O)[N-]c2ccccc2)cc1)Nc1ccccc1 (protonated)
O=C([N-]c1ccc(C(=O)[N-]c2ccccc2)cc1)Nc1ccccc1 (3D coordinates assigned)
O=C([N-]c1ccc(C(=O)[N-]c2ccccc2)cc1)Nc1ccccc1 (optimized conformer: 57.793968638646575 kcal/mol)

>  <smiles>  (9) 
O=C(Nc1ccccc1)Nc1ccc(C(=O)Nc2ccccc2)cc1

>  <score_type>  (9) 
oracle

>  <origin>  (9) 
adg

>  <m_score__min__energy>  (9) 
-10.99

>  <m_primary>  (9) 
energy

$$$$
9:0
     RDKit          3D

 63 67  0  0  0  0  0  0  0  0999 V2000
   57.5990   32.2700   41.4110 C   0  0  0  0  0  0  0  0  0  0  0  0
   57.3270   31.6780   42.6780 O   0  0  0  0  0  0  0  0  0  0  0  0
   57.8580   32.1280   43.8970 C   0  0  0  0  0  0  0  0  0  0  0  0
   58.1240   33.4900   44.1380 C   0  0  0  0  0  0  0  0  0  0  0  0
   58.6490   33.9020   45.3650 C   0  0  0  0  0  0  0  0  0  0  0  0
   58.9080   32.9640   46.3700 C   0  0  0  0  0  0  0  0  0  0  0  0
   59.5330   33.4680   47.9400 S   0  0  0  0  0  0  0  0  0  0  0  0
   58.8220   32.7290   49.0400 O   0  0  0  0  0  0  0  0  0  0  0  0
   59.2820   34.9400   48.1050 O   0  0  0  0  0  0  0  0  0  0  0  0
   61.2460   33.1460   48.0130 N   0  0  0  0  0  0  0  0  0  0  0  0
   61.8480   33.8850   49.1350 C   0  0  0  0  0  0  0  0  0  0  0  0
   63.3760   33.6650   49.1650 C   0  0  0  0  0  0  0  0  0  0  0  0
   63.8170   32.8650   48.0840 O   0  0  0  0  0  0  0  0  0  0  0  0
   63.4210   33.4550   46.8610 C   0  0  0  0  0  0  0  0  0  0  0  0
   61.8850   33.5400   46.7460 C   0  0  0  0  0  0  0  0  0  0  0  0
   58.6430   31.6100   46.1380 C   0  0  0  0  0  0  0  0  0  0  0  0
   58.1380   31.1840   44.8980 C   0  0  0  0  0  0  0  0  0  0  0  0
   57.8350   29.8030   44.6590 N   0  0  0  0  0  0  0  0  0  0  0  0
   57.0790   28.9410   45.5200 C   0  0  0  0  0  0  0  0  0  0  0  0
   55.8870   28.6710   45.2170 O   0  0  0  0  0  0  0  0  0  0  0  0
   57.6830   28.3190   46.7490 C   0  0  0  0  0  0  0  0  0  0  0  0
   57.7680   26.8670   46.6030 N   0  0  0  0  0  0  0  0  0  0  0  0
   58.9580   26.1130   46.4460 C   0  0  0  0  0  0  0  0  0  0  0  0
   60.1020   26.5540   46.7300 O   0  0  0  0  0  0  0  0  0  0  0  0
   58.7410   24.8070   45.9240 N   0  0  0  0  0  0  0  0  0  0  0  0
   57.3070   24.6710   45.6520 C   0  0  1  0  0  0  0  0  0  0  0  0
   57.1120   24.4470   44.1370 C   0  0  0  0  0  0  0  0  0  0  0  0
   55.7100   23.9310   43.8140 C   0  0  0  0  0  0  0  0  0  0  0  0
   55.4740   22.5820   44.4920 C   0  0  0  0  0  0  0  0  0  0  0  0
   55.8000   22.6140   45.9660 C   0  0  0  0  0  0  0  0  0  0  0  0
   55.2540   21.6210   46.7950 C   0  0  0  0  0  0  0  0  0  0  0  0
   55.5710   21.5780   48.1530 C   0  0  0  0  0  0  0  0  0  0  0  0
   56.4420   22.5200   48.6970 C   0  0  0  0  0  0  0  0  0  0  0  0
   57.0060   23.5050   47.8840 C   0  0  0  0  0  0  0  0  0  0  0  0
   56.7110   23.5580   46.5070 C   0  0  0  0  0  0  0  0  0  0  0  0
   56.7580   26.0110   46.0800 C   0  0  0  0  0  0  0  0  0  0  0  0
   55.5470   26.3500   45.9930 O   0  0  0  0  0  0  0  0  0  0  0  0
   58.0541   33.2604   41.5592 H   0  0  0  0  0  0  0  0  0  0  0  0
   58.2926   31.6283   40.8478 H   0  0  0  0  0  0  0  0  0  0  0  0
   56.6603   32.3783   40.8478 H   0  0  0  0  0  0  0  0  0  0  0  0
   57.9169   34.2341   43.3548 H   0  0  0  0  0  0  0  0  0  0  0  0
   58.8594   34.9672   45.5416 H   0  0  0  0  0  0  0  0  0  0  0  0
   61.6384   34.9583   49.0163 H   0  0  0  0  0  0  0  0  0  0  0  0
   61.4157   33.5179   50.0775 H   0  0  0  0  0  0  0  0  0  0  0  0
   63.8769   34.6429   49.1108 H   0  0  0  0  0  0  0  0  0  0  0  0
   63.6260   33.1416   50.0996 H   0  0  0  0  0  0  0  0  0  0  0  0
   63.8407   34.4700   46.8013 H   0  0  0  0  0  0  0  0  0  0  0  0
   63.7947   32.8279   46.0381 H   0  0  0  0  0  0  0  0  0  0  0  0
   61.5977   34.5736   46.5027 H   0  0  0  0  0  0  0  0  0  0  0  0
   61.5510   32.8546   45.9531 H   0  0  0  0  0  0  0  0  0  0  0  0
   58.8315   30.8731   46.9327 H   0  0  0  0  0  0  0  0  0  0  0  0
   58.6933   28.7267   46.9010 H   0  0  0  0  0  0  0  0  0  0  0  0
   57.0444   28.5513   47.6140 H   0  0  0  0  0  0  0  0  0  0  0  0
   57.2694   25.4013   43.6131 H   0  0  0  0  0  0  0  0  0  0  0  0
   57.8387   23.6898   43.8076 H   0  0  0  0  0  0  0  0  0  0  0  0
   54.9645   24.6545   44.1755 H   0  0  0  0  0  0  0  0  0  0  0  0
   55.6158   23.8064   42.7251 H   0  0  0  0  0  0  0  0  0  0  0  0
   54.4163   22.3055   44.3700 H   0  0  0  0  0  0  0  0  0  0  0  0
   56.1401   21.8467   44.0170 H   0  0  0  0  0  0  0  0  0  0  0  0
   54.5707   20.8708   46.3703 H   0  0  0  0  0  0  0  0  0  0  0  0
   55.1329   20.7996   48.7950 H   0  0  0  0  0  0  0  0  0  0  0  0
   56.6857   22.4875   49.7692 H   0  0  0  0  0  0  0  0  0  0  0  0
   57.6881   24.2479   48.3231 H   0  0  0  0  0  0  0  0  0  0  0  0
  1  2  1  0
  2  3  1  0
  3  4  2  0
  4  5  1  0
  5  6  2  0
  6  7  1  0
  7  8  2  0
  7  9  2  0
  7 10  1  0
 10 11  1  0
 11 12  1  0
 12 13  1  0
 13 14  1  0
 14 15  1  0
  6 16  1  0
 16 17  2  0
 17 18  1  0
 18 19  1  0
 19 20  2  0
 19 21  1  0
 21 22  1  0
 22 23  1  0
 23 24  2  0
 23 25  1  0
 26 25  1  6
 26 27  1  0
 27 28  1  0
 28 29  1  0
 29 30  1  0
 30 31  2  0
 31 32  1  0
 32 33  2  0
 33 34  1  0
 34 35  2  0
 26 36  1  0
 36 37  2  0
 17  3  1  0
 36 22  1  0
 15 10  1  0
 35 26  1  0
 35 30  1  0
  1 38  1  0
  1 39  1  0
  1 40  1  0
  4 41  1  0
  5 42  1  0
 11 43  1  0
 11 44  1  0
 12 45  1  0
 12 46  1  0
 14 47  1  0
 14 48  1  0
 15 49  1  0
 15 50  1  0
 16 51  1  0
 21 52  1  0
 21 53  1  0
 27 54  1  0
 27 55  1  0
 28 56  1  0
 28 57  1  0
 29 58  1  0
 29 59  1  0
 31 60  1  0
 32 61  1  0
 33 62  1  0
 34 63  1  0
M  CHG  2  18  -1  25  -1
M  END
>  <UniqueID>  (10) 
9

>  <SMILES>  (10) 
COc1ccc(S(=O)(=O)N2CCOCC2)cc1[N-]C(=O)CN1C(=O)[N-][C@]2(CCCc3ccccc32)C1=O

>  <Energy>  (10) 
98.58404330528813

>  <Genealogy>  (10) 
COc1ccc(S(=O)(=O)N2CCOCC2)cc1[N-]C(=O)CN1C(=O)[N-]C2(CCCc3ccccc32)C1=O (protonated)
COc1ccc(S(=O)(=O)N2CCOCC2)cc1[N-]C(=O)CN1C(=O)[N-][C@]2(CCCc3ccccc32)C1=O (chirality)
COc1ccc(S(=O)(=O)N2CCOCC2)cc1[N-]C(=O)CN1C(=O)[N-][C@]2(CCCc3ccccc32)C1=O (3D coordinates assigned)
COc1ccc(S(=O)(=O)N2CCOCC2)cc1[N-]C(=O)CN1C(=O)[N-][C@]2(CCCc3ccccc32)C1=O (nonaromatic ring conformer: 98.58404330528813 kcal/mol)

>  <smiles>  (10) 
COc1ccc(S(=O)(=O)N2CCOCC2)cc1NC(=O)CN1C(=O)NC2(CCCc3ccccc32)C1=O

>  <score_type>  (10) 
oracle

>  <origin>  (10) 
adg

>  <m_score__min__energy>  (10) 
-13.82

>  <m_primary>  (10) 
energy

$$$$
10:0
     RDKit          3D

 56 58  0  0  0  0  0  0  0  0999 V2000
   60.8140   27.9690   50.5700 C   0  0  0  0  0  0  0  0  0  0  0  0
   60.9530   29.4140   51.0500 C   0  0  0  0  0  0  0  0  0  0  0  0
   62.2510   30.0790   50.5810 C   0  0  0  0  0  0  0  0  0  0  0  0
   62.0370   30.9870   49.3940 C   0  0  0  0  0  0  0  0  0  0  0  0
   61.0520   30.8130   48.5720 N   0  0  0  0  0  0  0  0  0  0  0  0
   61.1180   29.8950   47.5480 O   0  0  0  0  0  0  0  0  0  0  0  0
   60.1240   28.9370   47.3620 C   0  0  0  0  0  0  0  0  0  0  0  0
   60.4000   27.7080   47.4310 O   0  0  0  0  0  0  0  0  0  0  0  0
   58.7770   29.3720   47.1560 N   0  0  0  0  0  0  0  0  0  0  0  0
   58.2680   30.1170   46.0410 C   0  0  0  0  0  0  0  0  0  0  0  0
   57.4210   29.5270   45.0880 C   0  0  0  0  0  0  0  0  0  0  0  0
   56.9930   30.2590   43.9780 C   0  0  0  0  0  0  0  0  0  0  0  0
   57.4050   31.5830   43.8070 C   0  0  0  0  0  0  0  0  0  0  0  0
   58.2590   32.1780   44.7390 C   0  0  0  0  0  0  0  0  0  0  0  0
   58.7540   33.8500   44.5020 Cl  0  0  0  0  0  0  0  0  0  0  0  0
   58.7060   31.4420   45.8490 C   0  0  0  0  0  0  0  0  0  0  0  0
   59.5970   32.0360   46.7940 N   0  0  0  0  0  0  0  0  0  0  0  0
   59.0710   33.3600   47.7780 S   0  0  0  0  0  0  0  0  0  0  0  0
   60.0620   34.4880   47.6720 O   0  0  0  0  0  0  0  0  0  0  0  0
   57.7370   33.8550   47.2960 O   0  0  0  0  0  0  0  0  0  0  0  0
   58.9440   32.8350   49.4490 C   0  0  0  0  0  0  0  0  0  0  0  0
   59.6000   33.5450   50.4670 C   0  0  0  0  0  0  0  0  0  0  0  0
   59.5170   33.1100   51.7950 C   0  0  0  0  0  0  0  0  0  0  0  0
   58.7910   31.9590   52.1040 C   0  0  0  0  0  0  0  0  0  0  0  0
   58.1190   31.2580   51.0940 C   0  0  0  0  0  0  0  0  0  0  0  0
   58.2030   31.6850   49.7670 C   0  0  0  0  0  0  0  0  0  0  0  0
   57.3660   30.1280   51.4340 O   0  0  0  0  0  0  0  0  0  0  0  0
   57.0530   29.8310   52.7970 C   0  0  0  0  0  0  0  0  0  0  0  0
   58.2450   30.1700   53.7030 C   0  0  0  0  0  0  0  0  0  0  0  0
   58.7220   31.4870   53.4200 O   0  0  0  0  0  0  0  0  0  0  0  0
   63.2680   32.2410   49.0250 S   0  0  0  0  0  0  0  0  0  0  0  0
   62.9070   32.3520   47.2340 C   0  0  0  0  0  0  0  0  0  0  0  0
   63.1540   33.7760   46.7340 C   0  0  0  0  0  0  0  0  0  0  0  0
   60.7495   27.2984   51.4396 H   0  0  0  0  0  0  0  0  0  0  0  0
   59.9022   27.8705   49.9626 H   0  0  0  0  0  0  0  0  0  0  0  0
   61.6903   27.6985   49.9626 H   0  0  0  0  0  0  0  0  0  0  0  0
   60.1024   29.9948   50.6639 H   0  0  0  0  0  0  0  0  0  0  0  0
   60.9722   29.3947   52.1497 H   0  0  0  0  0  0  0  0  0  0  0  0
   62.6631   30.6729   51.4101 H   0  0  0  0  0  0  0  0  0  0  0  0
   62.9434   29.2819   50.2726 H   0  0  0  0  0  0  0  0  0  0  0  0
   57.0937   28.4847   45.2164 H   0  0  0  0  0  0  0  0  0  0  0  0
   56.3292   29.7914   43.2359 H   0  0  0  0  0  0  0  0  0  0  0  0
   57.0562   32.1582   42.9367 H   0  0  0  0  0  0  0  0  0  0  0  0
   60.6220   31.8460   46.7150 H   0  0  0  0  0  0  0  0  0  0  0  0
   60.1810   34.4459   50.2204 H   0  0  0  0  0  0  0  0  0  0  0  0
   60.0226   33.6739   52.5927 H   0  0  0  0  0  0  0  0  0  0  0  0
   57.6903   31.1222   48.9730 H   0  0  0  0  0  0  0  0  0  0  0  0
   56.1809   30.4255   53.1070 H   0  0  0  0  0  0  0  0  0  0  0  0
   56.8286   28.7579   52.8871 H   0  0  0  0  0  0  0  0  0  0  0  0
   57.9283   30.1167   54.7551 H   0  0  0  0  0  0  0  0  0  0  0  0
   59.0537   29.4480   53.5168 H   0  0  0  0  0  0  0  0  0  0  0  0
   63.5607   31.6563   46.6875 H   0  0  0  0  0  0  0  0  0  0  0  0
   61.8528   32.0887   47.0628 H   0  0  0  0  0  0  0  0  0  0  0  0
   63.2712   34.4515   47.5942 H   0  0  0  0  0  0  0  0  0  0  0  0
   64.0692   33.7969   46.1241 H   0  0  0  0  0  0  0  0  0  0  0  0
   62.2993   34.1039   46.1241 H   0  0  0  0  0  0  0  0  0  0  0  0
  1  2  1  0
  2  3  1  0
  3  4  1  0
  4  5  2  3
  5  6  1  0
  6  7  1  0
  7  8  2  0
  7  9  1  0
  9 10  1  0
 10 11  2  0
 11 12  1  0
 12 13  2  0
 13 14  1  0
 14 15  1  0
 14 16  2  0
 16 17  1  0
 17 18  1  0
 18 19  2  0
 18 20  2  0
 18 21  1  0
 21 22  2  0
 22 23  1  0
 23 24  2  0
 24 25  1  0
 25 26  2  0
 25 27  1  0
 27 28  1  0
 28 29  1  0
 29 30  1  0
  4 31  1  0
 31 32  1  0
 32 33  1  0
 16 10  1  0
 26 21  1  0
 30 24  1  0
  1 34  1  0
  1 35  1  0
  1 36  1  0
  2 37  1  0
  2 38  1  0
  3 39  1  0
  3 40  1  0
 11 41  1  0
 12 42  1  0
 13 43  1  0
 17 44  1  0
 22 45  1  0
 23 46  1  0
 26 47  1  0
 28 48  1  0
 28 49  1  0
 29 50  1  0
 29 51  1  0
 32 52  1  0
 32 53  1  0
 33 54  1  0
 33 55  1  0
 33 56  1  0
M  CHG  1   9  -1
M  END
>  <UniqueID>  (11) 
10

>  <SMILES>  (11) 
CCCC(=NOC(=O)[N-]c1cccc(Cl)c1NS(=O)(=O)c1ccc2c(c1)OCCO2)SCC

>  <Energy>  (11) 
57.98708986872522

>  <Genealogy>  (11) 
CCCC(=NOC(=O)[N-]c1cccc(Cl)c1NS(=O)(=O)c1ccc2c(c1)OCCO2)SCC (protonated)
CCCC(=NOC(=O)[N-]c1cccc(Cl)c1NS(=O)(=O)c1ccc2c(c1)OCCO2)SCC (3D coordinates assigned)
CCCC(=NOC(=O)[N-]c1cccc(Cl)c1NS(=O)(=O)c1ccc2c(c1)OCCO2)SCC (nonaromatic ring conformer: 57.98708986872522 kcal/mol)

>  <smiles>  (11) 
CCCC(=NOC(=O)Nc1cccc(Cl)c1NS(=O)(=O)c1ccc2c(c1)OCCO2)SCC

>  <score_type>  (11) 
oracle

>  <origin>  (11) 
adg

>  <m_score__min__energy>  (11) 
-9.4499999999999993

>  <m_primary>  (11) 
energy

$$$$
11:0
     RDKit          3D

 40 41  0  0  0  0  0  0  0  0999 V2000
   57.7770   33.7060   44.4740 C   0  0  0  0  0  0  0  0  0  0  0  0
   57.6560   32.2560   44.8630 C   0  0  0  0  0  0  0  0  0  0  0  0
   56.9260   31.3830   44.0400 C   0  0  0  0  0  0  0  0  0  0  0  0
   56.8040   30.0330   44.3690 C   0  0  0  0  0  0  0  0  0  0  0  0
   57.4220   29.5220   45.5150 C   0  0  0  0  0  0  0  0  0  0  0  0
   57.2590   28.1330   45.8480 N   0  0  0  0  0  0  0  0  0  0  0  0
   58.0440   27.0670   45.2860 C   0  0  0  0  0  0  0  0  0  0  0  0
   58.5050   27.1430   43.7070 S   0  0  0  0  0  0  0  0  0  0  0  0
   58.2570   25.8610   46.0480 N   0  0  0  0  0  0  0  0  0  0  0  0
   59.5370   25.1470   45.9650 C   0  0  0  0  0  0  0  0  0  0  0  0
   57.1830   25.3200   46.8920 C   0  0  0  0  0  0  0  0  0  0  0  0
   56.1380   24.6380   46.0450 C   0  0  0  0  0  0  0  0  0  0  0  0
   56.3060   23.2950   45.6640 C   0  0  0  0  0  0  0  0  0  0  0  0
   55.3320   22.6500   44.8960 C   0  0  0  0  0  0  0  0  0  0  0  0
   55.5080   21.3240   44.5210 O   0  0  0  0  0  0  0  0  0  0  0  0
   54.1800   23.3390   44.5050 C   0  0  0  0  0  0  0  0  0  0  0  0
   54.0010   24.6720   44.8830 C   0  0  0  0  0  0  0  0  0  0  0  0
   54.9720   25.3240   45.6500 C   0  0  0  0  0  0  0  0  0  0  0  0
   54.7730   26.6500   46.0170 O   0  0  0  0  0  0  0  0  0  0  0  0
   58.1380   30.3930   46.3540 C   0  0  0  0  0  0  0  0  0  0  0  0
   58.2790   31.7530   46.0300 C   0  0  0  0  0  0  0  0  0  0  0  0
   59.0500   32.6550   46.9570 C   0  0  0  0  0  0  0  0  0  0  0  0
   57.8287   34.3259   45.3812 H   0  0  0  0  0  0  0  0  0  0  0  0
   58.6904   33.8508   43.8783 H   0  0  0  0  0  0  0  0  0  0  0  0
   56.9003   34.0002   43.8783 H   0  0  0  0  0  0  0  0  0  0  0  0
   56.4462   31.7673   43.1278 H   0  0  0  0  0  0  0  0  0  0  0  0
   56.2169   29.3647   43.7219 H   0  0  0  0  0  0  0  0  0  0  0  0
   56.4970   27.8710   46.5150 H   0  0  0  0  0  0  0  0  0  0  0  0
   59.9079   24.9401   46.9797 H   0  0  0  0  0  0  0  0  0  0  0  0
   59.3936   24.1986   45.4266 H   0  0  0  0  0  0  0  0  0  0  0  0
   60.2686   25.7673   45.4266 H   0  0  0  0  0  0  0  0  0  0  0  0
   57.6092   24.5914   47.5973 H   0  0  0  0  0  0  0  0  0  0  0  0
   56.7109   26.1480   47.4410 H   0  0  0  0  0  0  0  0  0  0  0  0
   57.2095   22.7484   45.9722 H   0  0  0  0  0  0  0  0  0  0  0  0
   53.4145   22.8315   43.8997 H   0  0  0  0  0  0  0  0  0  0  0  0
   53.0926   25.2110   44.5761 H   0  0  0  0  0  0  0  0  0  0  0  0
   58.5941   30.0049   47.2767 H   0  0  0  0  0  0  0  0  0  0  0  0
   58.8229   32.3893   48.0000 H   0  0  0  0  0  0  0  0  0  0  0  0
   60.1279   32.5337   46.7741 H   0  0  0  0  0  0  0  0  0  0  0  0
   58.7624   33.7009   46.7741 H   0  0  0  0  0  0  0  0  0  0  0  0
  1  2  1  0
  2  3  2  0
  3  4  1  0
  4  5  2  0
  5  6  1  0
  6  7  1  0
  7  8  2  0
  7  9  1  0
  9 10  1  0
  9 11  1  0
 11 12  1  0
 12 13  2  0
 13 14  1  0
 14 15  1  0
 14 16  2  0
 16 17  1  0
 17 18  2  0
 18 19  1  0
  5 20  1  0
 20 21  2  0
 21 22  1  0
 21  2  1  0
 18 12  1  0
  1 23  1  0
  1 24  1  0
  1 25  1  0
  3 26  1  0
  4 27  1  0
  6 28  1  0
 10 29  1  0
 10 30  1  0
 10 31  1  0
 11 32  1  0
 11 33  1  0
 13 34  1  0
 16 35  1  0
 17 36  1  0
 20 37  1  0
 22 38  1  0
 22 39  1  0
 22 40  1  0
M  CHG  2  15  -1  19  -1
M  END
>  <UniqueID>  (12) 
11

>  <SMILES>  (12) 
Cc1ccc(NC(=S)N(C)Cc2cc([O-])ccc2[O-])cc1C

>  <Energy>  (12) 
45.85363023106735

>  <Genealogy>  (12) 
Cc1ccc(NC(=S)N(C)Cc2cc([O-])ccc2[O-])cc1C (protonated)
Cc1ccc(NC(=S)N(C)Cc2cc([O-])ccc2[O-])cc1C (3D coordinates assigned)
Cc1ccc(NC(=S)N(C)Cc2cc([O-])ccc2[O-])cc1C (optimized conformer: 45.85363023106735 kcal/mol)

>  <smiles>  (12) 
Cc1ccc(NC(=S)N(C)Cc2cc(O)ccc2O)cc1C

>  <score_type>  (12) 
oracle

>  <origin>  (12) 
adg

>  <m_score__min__energy>  (12) 
-12.85

>  <m_primary>  (12) 
energy

$$$$
12:0
     RDKit          3D

 51 54  0  0  0  0  0  0  0  0999 V2000
   56.5810   21.3020   43.7610 C   0  0  0  0  0  0  0  0  0  0  0  0
   56.5340   22.6410   44.4340 C   0  0  0  0  0  0  0  0  0  0  0  0
   55.2980   23.2460   44.7190 C   0  0  0  0  0  0  0  0  0  0  0  0
   55.2500   24.5090   45.3170 C   0  0  0  0  0  0  0  0  0  0  0  0
   56.4350   25.1850   45.6240 C   0  0  0  0  0  0  0  0  0  0  0  0
   56.3890   26.4070   46.2160 N   0  0  0  0  0  0  0  0  0  0  0  0
   57.5170   27.0900   46.5480 C   0  0  0  0  0  0  0  0  0  0  0  0
   57.4110   28.2120   47.1110 O   0  0  0  0  0  0  0  0  0  0  0  0
   58.7850   26.5360   46.2780 C   0  0  0  0  0  0  0  0  0  0  0  0
   60.0610   27.2000   46.7410 C   0  0  0  0  0  0  0  0  0  0  0  0
   60.2620   28.4770   46.0330 N   0  0  0  0  0  0  0  0  0  0  0  0
   60.0960   28.5030   44.5700 C   0  0  0  0  0  0  0  0  0  0  0  0
   58.8640   29.2780   44.1830 C   0  0  0  0  0  0  0  0  0  0  0  0
   57.6740   28.6150   43.8480 C   0  0  0  0  0  0  0  0  0  0  0  0
   56.5360   29.3630   43.5380 C   0  0  0  0  0  0  0  0  0  0  0  0
   56.5960   30.7580   43.5510 C   0  0  0  0  0  0  0  0  0  0  0  0
   57.8020   31.3850   43.8650 C   0  0  0  0  0  0  0  0  0  0  0  0
   58.8980   30.6400   44.1680 N   0  0  0  0  0  0  0  0  0  0  0  0
   60.3560   29.7240   46.7600 C   0  0  0  0  0  0  0  0  0  0  0  0
   61.4320   30.0320   47.3440 O   0  0  0  0  0  0  0  0  0  0  0  0
   59.2330   30.6120   46.8530 N   0  0  0  0  0  0  0  0  0  0  0  0
   59.3580   32.0450   46.8430 C   0  0  0  0  0  0  0  0  0  0  0  0
   60.6180   32.6740   46.8330 C   0  0  0  0  0  0  0  0  0  0  0  0
   60.7120   34.0680   46.7880 C   0  0  0  0  0  0  0  0  0  0  0  0
   59.5530   34.8470   46.7470 C   0  0  0  0  0  0  0  0  0  0  0  0
   59.6460   36.1990   46.7020 F   0  0  0  0  0  0  0  0  0  0  0  0
   58.2980   34.2320   46.7420 C   0  0  0  0  0  0  0  0  0  0  0  0
   58.2000   32.8380   46.7840 C   0  0  0  0  0  0  0  0  0  0  0  0
   58.8510   25.2870   45.6430 C   0  0  0  0  0  0  0  0  0  0  0  0
   57.6780   24.5950   45.3230 C   0  0  0  0  0  0  0  0  0  0  0  0
   57.7240   23.3270   44.7230 C   0  0  0  0  0  0  0  0  0  0  0  0
   56.6088   20.5093   44.5232 H   0  0  0  0  0  0  0  0  0  0  0  0
   55.6867   21.1756   43.1330 H   0  0  0  0  0  0  0  0  0  0  0  0
   57.4819   21.2387   43.1330 H   0  0  0  0  0  0  0  0  0  0  0  0
   54.3629   22.7229   44.4702 H   0  0  0  0  0  0  0  0  0  0  0  0
   54.2787   24.9715   45.5463 H   0  0  0  0  0  0  0  0  0  0  0  0
   59.9983   27.3911   47.8225 H   0  0  0  0  0  0  0  0  0  0  0  0
   60.9090   26.5341   46.5233 H   0  0  0  0  0  0  0  0  0  0  0  0
   60.9780   28.9782   44.1158 H   0  0  0  0  0  0  0  0  0  0  0  0
   59.9886   27.4692   44.2099 H   0  0  0  0  0  0  0  0  0  0  0  0
   57.6375   27.5158   43.8296 H   0  0  0  0  0  0  0  0  0  0  0  0
   55.5944   28.8542   43.2841 H   0  0  0  0  0  0  0  0  0  0  0  0
   55.7028   31.3556   43.3164 H   0  0  0  0  0  0  0  0  0  0  0  0
   57.8661   32.4831   43.8674 H   0  0  0  0  0  0  0  0  0  0  0  0
   58.2900   30.1950   47.0140 H   0  0  0  0  0  0  0  0  0  0  0  0
   61.5335   32.0648   46.8608 H   0  0  0  0  0  0  0  0  0  0  0  0
   61.6997   34.5522   46.7849 H   0  0  0  0  0  0  0  0  0  0  0  0
   57.3859   34.8457   46.7050 H   0  0  0  0  0  0  0  0  0  0  0  0
   57.2098   32.3591   46.7708 H   0  0  0  0  0  0  0  0  0  0  0  0
   59.8295   24.8497   45.3955 H   0  0  0  0  0  0  0  0  0  0  0  0
   58.6943   22.8700   44.4788 H   0  0  0  0  0  0  0  0  0  0  0  0
  1  2  1  0
  2  3  2  0
  3  4  1  0
  4  5  2  0
  5  6  1  0
  6  7  1  0
  7  8  2  0
  7  9  1  0
  9 10  1  0
 10 11  1  0
 11 12  1  0
 12 13  1  0
 13 14  2  0
 14 15  1  0
 15 16  2  0
 16 17  1  0
 17 18  2  0
 11 19  1  0
 19 20  2  0
 19 21  1  0
 21 22  1  0
 22 23  2  0
 23 24  1  0
 24 25  2  0
 25 26  1  0
 25 27  1  0
 27 28  2  0
  9 29  2  0
 29 30  1  0
 30 31  2  0
 31  2  1  0
 30  5  1  0
 18 13  1  0
 28 22  1  0
  1 32  1  0
  1 33  1  0
  1 34  1  0
  3 35  1  0
  4 36  1  0
 10 37  1  0
 10 38  1  0
 12 39  1  0
 12 40  1  0
 14 41  1  0
 15 42  1  0
 16 43  1  0
 17 44  1  0
 21 45  1  0
 23 46  1  0
 24 47  1  0
 27 48  1  0
 28 49  1  0
 29 50  1  0
 31 51  1  0
M  CHG  1   6  -1
M  END
>  <UniqueID>  (13) 
12

>  <SMILES>  (13) 
Cc1ccc2[n-]c(=O)c(CN(Cc3ccccn3)C(=O)Nc3ccc(F)cc3)cc2c1

>  <Energy>  (13) 
59.035039935881414

>  <Genealogy>  (13) 
Cc1ccc2[n-]c(=O)c(CN(Cc3ccccn3)C(=O)Nc3ccc(F)cc3)cc2c1 (protonated)
Cc1ccc2[n-]c(=O)c(CN(Cc3ccccn3)C(=O)Nc3ccc(F)cc3)cc2c1 (3D coordinates assigned)
Cc1ccc2[n-]c(=O)c(CN(Cc3ccccn3)C(=O)Nc3ccc(F)cc3)cc2c1 (optimized conformer: 59.035039935881414 kcal/mol)

>  <smiles>  (13) 
Cc1ccc2[nH]c(=O)c(CN(Cc3ccccn3)C(=O)Nc3ccc(F)cc3)cc2c1

>  <score_type>  (13) 
oracle

>  <origin>  (13) 
adg

>  <m_score__min__energy>  (13) 
-10.539999999999999

>  <m_primary>  (13) 
energy

$$$$
13:0
     RDKit          3D

 44 46  0  0  0  0  0  0  0  0999 V2000
   55.1520   29.3050   44.7280 N   0  0  0  0  0  0  0  0  0  0  0  0
   56.7670   29.6850   44.2470 S   0  0  0  0  0  0  0  0  0  0  0  0
   57.6310   28.4630   44.3900 O   0  0  0  0  0  0  0  0  0  0  0  0
   56.7750   30.1140   42.8060 O   0  0  0  0  0  0  0  0  0  0  0  0
   57.3940   30.9820   45.2590 C   0  0  0  0  0  0  0  0  0  0  0  0
   58.1280   30.6840   46.4140 C   0  0  0  0  0  0  0  0  0  0  0  0
   58.6150   31.7140   47.2240 C   0  0  0  0  0  0  0  0  0  0  0  0
   58.3730   33.0590   46.8860 C   0  0  0  0  0  0  0  0  0  0  0  0
   58.8490   34.1330   47.6550 O   0  0  0  0  0  0  0  0  0  0  0  0
   60.0170   34.9030   47.3680 C   0  0  0  0  0  0  0  0  0  0  0  0
   61.2730   34.0600   47.4540 C   0  0  0  0  0  0  0  0  0  0  0  0
   62.2140   34.1560   46.4110 C   0  0  0  0  0  0  0  0  0  0  0  0
   63.4170   33.4500   46.4660 C   0  0  0  0  0  0  0  0  0  0  0  0
   63.6980   32.6350   47.5610 C   0  0  0  0  0  0  0  0  0  0  0  0
   62.7720   32.5090   48.5960 C   0  0  0  0  0  0  0  0  0  0  0  0
   61.5440   33.1950   48.5500 C   0  0  0  0  0  0  0  0  0  0  0  0
   60.5900   32.9930   49.6630 C   0  0  0  0  0  0  0  0  0  0  0  0
   60.1430   33.9960   50.2820 O   0  0  0  0  0  0  0  0  0  0  0  0
   60.2490   31.6690   50.1000 N   0  0  0  0  0  0  0  0  0  0  0  0
   59.0660   31.3440   50.8520 C   0  0  0  0  0  0  0  0  0  0  0  0
   58.0570   32.2970   51.0870 C   0  0  0  0  0  0  0  0  0  0  0  0
   56.9030   31.9430   51.7940 C   0  0  0  0  0  0  0  0  0  0  0  0
   56.7390   30.6370   52.2630 C   0  0  0  0  0  0  0  0  0  0  0  0
   55.2900   30.1960   53.1480 Cl  0  0  0  0  0  0  0  0  0  0  0  0
   57.7290   29.6800   52.0180 C   0  0  0  0  0  0  0  0  0  0  0  0
   58.8830   30.0300   51.3110 C   0  0  0  0  0  0  0  0  0  0  0  0
   57.6240   33.3480   45.7380 C   0  0  0  0  0  0  0  0  0  0  0  0
   57.1360   32.3190   44.9290 C   0  0  0  0  0  0  0  0  0  0  0  0
   55.2190   28.7650   45.6210 H   0  0  0  0  0  0  0  0  0  0  0  0
   58.3220   29.6356   46.6847 H   0  0  0  0  0  0  0  0  0  0  0  0
   59.1902   31.4723   48.1300 H   0  0  0  0  0  0  0  0  0  0  0  0
   59.9323   35.3155   46.3518 H   0  0  0  0  0  0  0  0  0  0  0  0
   60.0907   35.7089   48.1130 H   0  0  0  0  0  0  0  0  0  0  0  0
   61.9985   34.7952   45.5421 H   0  0  0  0  0  0  0  0  0  0  0  0
   64.1435   33.5370   45.6447 H   0  0  0  0  0  0  0  0  0  0  0  0
   64.6523   32.0900   47.6090 H   0  0  0  0  0  0  0  0  0  0  0  0
   63.0039   31.8662   49.4580 H   0  0  0  0  0  0  0  0  0  0  0  0
   60.9480   30.9100   49.9270 H   0  0  0  0  0  0  0  0  0  0  0  0
   58.1765   33.3246   50.7131 H   0  0  0  0  0  0  0  0  0  0  0  0
   56.1223   32.6950   51.9813 H   0  0  0  0  0  0  0  0  0  0  0  0
   57.5994   28.6502   52.3822 H   0  0  0  0  0  0  0  0  0  0  0  0
   59.6534   29.2702   51.1129 H   0  0  0  0  0  0  0  0  0  0  0  0
   57.4182   34.3951   45.4711 H   0  0  0  0  0  0  0  0  0  0  0  0
   56.5479   32.5589   44.0309 H   0  0  0  0  0  0  0  0  0  0  0  0
  1  2  1  0
  2  3  2  0
  2  4  2  0
  2  5  1  0
  5  6  2  0
  6  7  1  0
  7  8  2  0
  8  9  1  0
  9 10  1  0
 10 11  1  0
 11 12  2  0
 12 13  1  0
 13 14  2  0
 14 15  1  0
 15 16  2  0
 16 17  1  0
 17 18  2  0
 17 19  1  0
 19 20  1  0
 20 21  2  0
 21 22  1  0
 22 23  2  0
 23 24  1  0
 23 25  1  0
 25 26  2  0
  8 27  1  0
 27 28  2  0
 28  5  1  0
 16 11  1  0
 26 20  1  0
  1 29  1  0
  6 30  1  0
  7 31  1  0
 10 32  1  0
 10 33  1  0
 12 34  1  0
 13 35  1  0
 14 36  1  0
 15 37  1  0
 19 38  1  0
 21 39  1  0
 22 40  1  0
 25 41  1  0
 26 42  1  0
 27 43  1  0
 28 44  1  0
M  CHG  1   1  -1
M  END
>  <UniqueID>  (14) 
13

>  <SMILES>  (14) 
[NH-]S(=O)(=O)c1ccc(OCc2ccccc2C(=O)Nc2ccc(Cl)cc2)cc1

>  <Energy>  (14) 
54.53685093447838

>  <Genealogy>  (14) 
[NH-]S(=O)(=O)c1ccc(OCc2ccccc2C(=O)Nc2ccc(Cl)cc2)cc1 (protonated)
[NH-]S(=O)(=O)c1ccc(OCc2ccccc2C(=O)Nc2ccc(Cl)cc2)cc1 (3D coordinates assigned)
[NH-]S(=O)(=O)c1ccc(OCc2ccccc2C(=O)Nc2ccc(Cl)cc2)cc1 (optimized conformer: 54.53685093447838 kcal/mol)

>  <smiles>  (14) 
NS(=O)(=O)c1ccc(OCc2ccccc2C(=O)Nc2ccc(Cl)cc2)cc1

>  <score_type>  (14) 
oracle

>  <origin>  (14) 
adg

>  <m_score__min__energy>  (14) 
-11.82

>  <m_primary>  (14) 
energy

$$$$
14:0
     RDKit          3D

 53 55  0  0  0  0  0  0  0  0999 V2000
   60.7587   29.5408   44.6950 H   0  0  0  0  0  0  0  0  0  0  0  0
   60.2990   29.4590   45.6910 C   0  0  0  0  0  0  0  0  0  0  0  0
   60.8030   30.2090   46.6800 C   0  0  0  0  0  0  0  0  0  0  0  0
   61.8907   30.2252   46.8434 H   0  0  0  0  0  0  0  0  0  0  0  0
   59.9120   31.0290   47.5710 C   0  0  0  0  0  0  0  0  0  0  0  0
   59.0197   30.4393   47.8279 H   0  0  0  0  0  0  0  0  0  0  0  0
   60.4737   31.2945   48.4787 H   0  0  0  0  0  0  0  0  0  0  0  0
   59.4820   32.2990   46.8850 C   0  0  0  0  0  0  0  0  0  0  0  0
   60.3890   33.3590   46.7220 C   0  0  0  0  0  0  0  0  0  0  0  0
   61.4088   33.2738   47.1254 H   0  0  0  0  0  0  0  0  0  0  0  0
   60.0020   34.5210   46.0500 C   0  0  0  0  0  0  0  0  0  0  0  0
   60.7164   35.3485   45.9281 H   0  0  0  0  0  0  0  0  0  0  0  0
   58.7080   34.6340   45.5320 C   0  0  0  0  0  0  0  0  0  0  0  0
   58.4053   35.5495   45.0026 H   0  0  0  0  0  0  0  0  0  0  0  0
   57.8000   33.5840   45.6870 C   0  0  0  0  0  0  0  0  0  0  0  0
   56.5460   33.6940   45.1820 F   0  0  0  0  0  0  0  0  0  0  0  0
   58.1830   32.4190   46.3590 C   0  0  0  0  0  0  0  0  0  0  0  0
   57.4657   31.5934   46.4767 H   0  0  0  0  0  0  0  0  0  0  0  0
   59.1600   28.5260   45.8570 C   0  0  0  0  0  0  0  0  0  0  0  0
   59.3000   27.2490   46.4330 C   0  0  0  0  0  0  0  0  0  0  0  0
   60.2923   26.9015   46.7563 H   0  0  0  0  0  0  0  0  0  0  0  0
   58.1860   26.4190   46.5970 C   0  0  0  0  0  0  0  0  0  0  0  0
   58.3060   25.4277   47.0584 H   0  0  0  0  0  0  0  0  0  0  0  0
   56.9120   26.8450   46.1750 C   0  0  0  0  0  0  0  0  0  0  0  0
   55.7620   26.0490   46.3020 O   0  0  0  0  0  0  0  0  0  0  0  0
   55.6920   24.6330   46.1260 C   0  0  0  0  0  0  0  0  0  0  0  0
   55.8745   24.1404   47.0925 H   0  0  0  0  0  0  0  0  0  0  0  0
   56.4536   24.3319   45.3917 H   0  0  0  0  0  0  0  0  0  0  0  0
   54.3140   24.2150   45.6020 C   0  0  0  0  0  0  0  0  0  0  0  0
   53.8043   25.0952   45.1830 H   0  0  0  0  0  0  0  0  0  0  0  0
   53.7295   23.7976   46.4351 H   0  0  0  0  0  0  0  0  0  0  0  0
   54.4460   23.1990   44.5650 N   0  0  0  0  0  0  0  0  0  0  0  0
   55.5400   22.2810   44.4960 C   0  0  0  0  0  0  0  0  0  0  0  0
   55.9000   21.8160   43.3820 O   0  0  0  0  0  0  0  0  0  0  0  0
   56.2110   21.8300   45.6780 N   0  0  0  0  0  0  0  0  0  0  0  0
   55.6740   21.6480   46.9990 C   0  0  0  0  0  0  0  0  0  0  0  0
   54.3390   21.2590   47.1200 C   0  0  0  0  0  0  0  0  0  0  0  0
   53.7230   21.1260   46.2184 H   0  0  0  0  0  0  0  0  0  0  0  0
   53.7850   21.0390   48.3760 C   0  0  0  0  0  0  0  0  0  0  0  0
   52.7327   20.7328   48.4707 H   0  0  0  0  0  0  0  0  0  0  0  0
   54.5720   21.2090   49.5160 C   0  0  0  0  0  0  0  0  0  0  0  0
   54.0640   20.9890   50.6490 O   0  0  0  0  0  0  0  0  0  0  0  0
   55.8790   21.6030   49.4010 N   0  0  0  0  0  0  0  0  0  0  0  0
   56.7010   21.7770   50.6060 C   0  0  0  0  0  0  0  0  0  0  0  0
   56.0739   21.6443   51.4999 H   0  0  0  0  0  0  0  0  0  0  0  0
   57.5083   21.0298   50.6102 H   0  0  0  0  0  0  0  0  0  0  0  0
   57.1363   22.7872   50.6102 H   0  0  0  0  0  0  0  0  0  0  0  0
   56.4430   21.7910   48.1670 C   0  0  0  0  0  0  0  0  0  0  0  0
   57.5077   22.0564   48.0893 H   0  0  0  0  0  0  0  0  0  0  0  0
   56.7720   28.1230   45.6200 C   0  0  0  0  0  0  0  0  0  0  0  0
   55.5200   28.5710   45.2140 O   0  0  0  0  0  0  0  0  0  0  0  0
   57.8840   28.9560   45.4660 C   0  0  0  0  0  0  0  0  0  0  0  0
   57.7566   29.9594   45.0335 H   0  0  0  0  0  0  0  0  0  0  0  0
  1  2  1  0
  2  3  2  0
  3  4  1  0
  3  5  1  0
  5  6  1  0
  5  7  1  0
  5  8  1  0
  8  9  2  0
  9 10  1  0
  9 11  1  0
 11 12  1  0
 11 13  2  0
 13 14  1  0
 13 15  1  0
 15 16  1  0
 15 17  2  0
 17 18  1  0
  2 19  1  0
 19 20  2  0
 20 21  1  0
 20 22  1  0
 22 23  1  0
 22 24  2  0
 24 25  1  0
 25 26  1  0
 26 27  1  0
 26 28  1  0
 26 29  1  0
 29 30  1  0
 29 31  1  0
 29 32  1  0
 32 33  1  0
 33 34  2  0
 33 35  1  0
 35 36  1  0
 36 37  1  0
 37 38  1  0
 37 39  2  0
 39 40  1  0
 39 41  1  0
 41 42  2  0
 41 43  1  0
 43 44  1  0
 44 45  1  0
 44 46  1  0
 44 47  1  0
 43 48  1  0
 48 49  1  0
 24 50  1  0
 50 51  1  0
 50 52  2  0
 52 53  1  0
 17  8  1  0
 52 19  1  0
 48 36  2  0
M  CHG  3  32  -1  35  -1  51  -1
M  END
>  <UniqueID>  (15) 
14

>  <SMILES>  (15) 
Cn1cc([N-]C(=O)[N-]CCOc2ccc(/C=C/Cc3cccc(F)c3)cc2[O-])ccc1=O

>  <Energy>  (15) 
54.46983931986192

>  <Genealogy>  (15) 
Cn1cc([N-]C(=O)[N-]CCOc2ccc(C=CCc3cccc(F)c3)cc2[O-])ccc1=O (protonated)
Cn1cc([N-]C(=O)[N-]CCOc2ccc(/C=C/Cc3cccc(F)c3)cc2[O-])ccc1=O (cis-trans isomerization)
Cn1cc([N-]C(=O)[N-]CCOc2ccc(/C=C/Cc3cccc(F)c3)cc2[O-])ccc1=O (3D coordinates assigned)
Cn1cc([N-]C(=O)[N-]CCOc2ccc(/C=C/Cc3cccc(F)c3)cc2[O-])ccc1=O (optimized conformer: 54.46983931986192 kcal/mol)

>  <smiles>  (15) 
Cn1cc(NC(=O)NCCOc2ccc(C=CCc3cccc(F)c3)cc2O)ccc1=O

>  <score_type>  (15) 
oracle

>  <origin>  (15) 
adg

>  <m_score__min__energy>  (15) 
-13.800000000000001

>  <m_primary>  (15) 
energy

$$$$
15:0
     RDKit          3D

 39 41  0  0  0  0  0  0  0  0999 V2000
   55.5300   28.5840   45.1940 O   0  0  0  0  0  0  0  0  0  0  0  0
   55.8490   29.5320   44.4300 C   0  0  0  0  0  0  0  0  0  0  0  0
   55.1530   30.7320   44.4960 O   0  0  0  0  0  0  0  0  0  0  0  0
   56.9890   29.3770   43.4760 C   0  0  0  0  0  0  0  0  0  0  0  0
   58.1460   30.0600   43.9580 O   0  0  0  0  0  0  0  0  0  0  0  0
   58.5740   30.1030   45.2970 C   0  0  0  0  0  0  0  0  0  0  0  0
   59.1610   28.9820   45.9200 C   0  0  0  0  0  0  0  0  0  0  0  0
   59.5350   29.0300   47.2630 C   0  0  0  0  0  0  0  0  0  0  0  0
   59.3300   30.1910   48.0050 C   0  0  0  0  0  0  0  0  0  0  0  0
   58.7600   31.3120   47.4040 C   0  0  0  0  0  0  0  0  0  0  0  0
   58.3920   31.2910   46.0460 C   0  0  0  0  0  0  0  0  0  0  0  0
   57.7990   32.5160   45.4540 C   0  0  0  0  0  0  0  0  0  0  0  0
   56.6430   32.8730   45.8160 O   0  0  0  0  0  0  0  0  0  0  0  0
   58.5520   33.3970   44.4940 C   0  0  0  0  0  0  0  0  0  0  0  0
   59.0270   34.6820   45.1780 C   0  0  0  0  0  0  0  0  0  0  0  0
   59.9590   34.3590   46.3150 C   0  0  0  0  0  0  0  0  0  0  0  0
   59.5530   34.5840   47.6560 C   0  0  0  0  0  0  0  0  0  0  0  0
   60.4060   34.2530   48.7250 C   0  0  0  0  0  0  0  0  0  0  0  0
   61.6430   33.6940   48.4200 C   0  0  0  0  0  0  0  0  0  0  0  0
   62.0320   33.4660   47.1400 C   0  0  0  0  0  0  0  0  0  0  0  0
   61.2200   33.7780   46.0540 C   0  0  0  0  0  0  0  0  0  0  0  0
   63.2930   32.9010   47.1370 O   0  0  0  0  0  0  0  0  0  0  0  0
   63.7230   32.7690   48.4990 C   0  0  0  0  0  0  0  0  0  0  0  0
   62.6390   33.2860   49.2840 O   0  0  0  0  0  0  0  0  0  0  0  0
   57.2219   28.3080   43.3621 H   0  0  0  0  0  0  0  0  0  0  0  0
   56.7007   29.8099   42.5067 H   0  0  0  0  0  0  0  0  0  0  0  0
   59.3254   28.0611   45.3413 H   0  0  0  0  0  0  0  0  0  0  0  0
   59.9927   28.1493   47.7371 H   0  0  0  0  0  0  0  0  0  0  0  0
   59.6182   30.2231   49.0661 H   0  0  0  0  0  0  0  0  0  0  0  0
   58.5960   32.2233   47.9979 H   0  0  0  0  0  0  0  0  0  0  0  0
   59.4265   32.8484   44.1140 H   0  0  0  0  0  0  0  0  0  0  0  0
   57.8772   33.6702   43.6694 H   0  0  0  0  0  0  0  0  0  0  0  0
   59.5545   35.3092   44.4443 H   0  0  0  0  0  0  0  0  0  0  0  0
   58.1526   35.2182   45.5754 H   0  0  0  0  0  0  0  0  0  0  0  0
   58.5643   35.0203   47.8613 H   0  0  0  0  0  0  0  0  0  0  0  0
   60.1046   34.4304   49.7679 H   0  0  0  0  0  0  0  0  0  0  0  0
   61.5498   33.5784   45.0238 H   0  0  0  0  0  0  0  0  0  0  0  0
   63.9088   31.7131   48.7449 H   0  0  0  0  0  0  0  0  0  0  0  0
   64.6633   33.3074   48.6888 H   0  0  0  0  0  0  0  0  0  0  0  0
  1  2  2  0
  2  3  1  0
  2  4  1  0
  4  5  1  0
  5  6  1  0
  6  7  2  0
  7  8  1  0
  8  9  2  0
  9 10  1  0
 10 11  2  0
 11 12  1  0
 12 13  2  0
 12 14  1  0
 14 15  1  0
 15 16  1  0
 16 17  2  0
 17 18  1  0
 18 19  2  0
 19 20  1  0
 20 21  2  0
 20 22  1  0
 22 23  1  0
 23 24  1  0
 11  6  1  0
 21 16  1  0
 24 19  1  0
  4 25  1  0
  4 26  1  0
  7 27  1  0
  8 28  1  0
  9 29  1  0
 10 30  1  0
 14 31  1  0
 14 32  1  0
 15 33  1  0
 15 34  1  0
 17 35  1  0
 18 36  1  0
 21 37  1  0
 23 38  1  0
 23 39  1  0
M  CHG  1   3  -1
M  END
>  <UniqueID>  (16) 
15

>  <SMILES>  (16) 
O=C([O-])COc1ccccc1C(=O)CCc1ccc2c(c1)OCO2

>  <Energy>  (16) 
69.07419493586183

>  <Genealogy>  (16) 
O=C([O-])COc1ccccc1C(=O)CCc1ccc2c(c1)OCO2 (protonated)
O=C([O-])COc1ccccc1C(=O)CCc1ccc2c(c1)OCO2 (3D coordinates assigned)
O=C([O-])COc1ccccc1C(=O)CCc1ccc2c(c1)OCO2 (nonaromatic ring conformer: 69.07419493586183 kcal/mol)

>  <smiles>  (16) 
O=C(O)COc1ccccc1C(=O)CCc1ccc2c(c1)OCO2

>  <score_type>  (16) 
oracle

>  <origin>  (16) 
adg

>  <m_score__min__energy>  (16) 
-10.039999999999999

>  <m_primary>  (16) 
energy

$$$$
16:0
     RDKit          3D

 42 44  0  0  0  0  0  0  0  0999 V2000
   61.5808   33.2625   45.3745 H   0  0  0  0  0  0  0  0  0  0  0  0
   61.1720   33.3880   46.3880 C   0  0  0  0  0  0  0  0  0  0  0  0
   62.0400   33.5660   47.4680 C   0  0  0  0  0  0  0  0  0  0  0  0
   63.1272   33.5677   47.3008 H   0  0  0  0  0  0  0  0  0  0  0  0
   61.5330   33.7430   48.7670 C   0  0  0  0  0  0  0  0  0  0  0  0
   62.4460   33.9320   49.9160 C   0  0  0  0  0  0  0  0  0  0  0  0
   61.9770   34.1660   51.0640 O   0  0  0  0  0  0  0  0  0  0  0  0
   63.8320   33.8560   49.7250 O   0  0  0  0  0  0  0  0  0  0  0  0
   64.5280   32.6350   49.4890 C   0  0  0  0  0  0  0  0  0  0  0  0
   64.6347   32.4838   48.4047 H   0  0  0  0  0  0  0  0  0  0  0  0
   63.9544   31.8089   49.9346 H   0  0  0  0  0  0  0  0  0  0  0  0
   65.9120   32.6720   50.1280 C   0  0  0  0  0  0  0  0  0  0  0  0
   65.8104   32.6693   51.2233 H   0  0  0  0  0  0  0  0  0  0  0  0
   66.4860   31.7889   49.8108 H   0  0  0  0  0  0  0  0  0  0  0  0
   66.4380   33.5845   49.8108 H   0  0  0  0  0  0  0  0  0  0  0  0
   60.1400   33.7480   48.9590 C   0  0  0  0  0  0  0  0  0  0  0  0
   59.7286   33.8938   49.9687 H   0  0  0  0  0  0  0  0  0  0  0  0
   59.2740   33.5690   47.8760 C   0  0  0  0  0  0  0  0  0  0  0  0
   58.1859   33.5858   48.0364 H   0  0  0  0  0  0  0  0  0  0  0  0
   59.7870   33.3680   46.5850 C   0  0  0  0  0  0  0  0  0  0  0  0
   58.9380   33.1940   45.4420 N   0  0  0  0  0  0  0  0  0  0  0  0
   57.5170   33.3760   45.3820 C   0  0  0  0  0  0  0  0  0  0  0  0
   57.0180   34.5310   45.4310 O   0  0  0  0  0  0  0  0  0  0  0  0
   56.6350   32.2490   45.2560 N   0  0  0  0  0  0  0  0  0  0  0  0
   56.8470   31.1970   44.5600 N   0  0  0  0  0  0  0  0  0  0  0  0
   56.9960   29.8680   45.0770 C   0  0  0  0  0  0  0  0  0  0  0  0
   56.0270   28.8810   45.0760 C   0  0  0  0  0  0  0  0  0  0  0  0
   54.7720   29.0030   44.4920 O   0  0  0  0  0  0  0  0  0  0  0  0
   56.4450   27.7600   45.7100 N   0  0  0  0  0  0  0  0  0  0  0  0
   57.6870   28.0690   46.1380 C   0  0  0  0  0  0  0  0  0  0  0  0
   58.5420   27.2420   46.8630 C   0  0  0  0  0  0  0  0  0  0  0  0
   58.2486   26.2134   47.1196 H   0  0  0  0  0  0  0  0  0  0  0  0
   59.7950   27.7580   47.2600 C   0  0  0  0  0  0  0  0  0  0  0  0
   60.7670   26.8860   47.9980 C   0  0  0  0  0  0  0  0  0  0  0  0
   60.6248   27.0136   49.0813 H   0  0  0  0  0  0  0  0  0  0  0  0
   60.5948   25.8339   47.7270 H   0  0  0  0  0  0  0  0  0  0  0  0
   61.7943   27.1710   47.7270 H   0  0  0  0  0  0  0  0  0  0  0  0
   60.1580   29.0820   46.9060 C   0  0  0  0  0  0  0  0  0  0  0  0
   61.1414   29.4752   47.2030 H   0  0  0  0  0  0  0  0  0  0  0  0
   59.2730   29.8970   46.1790 C   0  0  0  0  0  0  0  0  0  0  0  0
   59.5362   30.9339   45.9228 H   0  0  0  0  0  0  0  0  0  0  0  0
   58.0500   29.3480   45.7930 C   0  0  0  0  0  0  0  0  0  0  0  0
  1  2  1  0
  2  3  2  0
  3  4  1  0
  3  5  1  0
  5  6  1  0
  6  7  2  0
  6  8  1  0
  8  9  1  0
  9 10  1  0
  9 11  1  0
  9 12  1  0
 12 13  1  0
 12 14  1  0
 12 15  1  0
  5 16  2  0
 16 17  1  0
 16 18  1  0
 18 19  1  0
 18 20  2  0
 20 21  1  0
 21 22  1  0
 22 23  2  0
 22 24  1  0
 24 25  2  0
 25 26  1  0
 26 27  2  0
 27 28  1  0
 27 29  1  0
 29 30  1  0
 30 31  2  0
 31 32  1  0
 31 33  1  0
 33 34  1  0
 34 35  1  0
 34 36  1  0
 34 37  1  0
 33 38  2  0
 38 39  1  0
 38 40  1  0
 40 41  1  0
 40 42  2  0
 20  2  1  0
 42 26  1  0
 42 30  1  0
M  CHG  3  21  -1  28  -1  29  -1
M  END
>  <UniqueID>  (17) 
16

>  <SMILES>  (17) 
CCOC(=O)c1ccc([N-]C(=O)/N=N\c2c([O-])[n-]c3cc(C)ccc23)cc1

>  <Energy>  (17) 
87.73413765058072

>  <Genealogy>  (17) 
CCOC(=O)c1ccc([N-]C(=O)N=Nc2c([O-])[n-]c3cc(C)ccc23)cc1 (protonated)
CCOC(=O)c1ccc([N-]C(=O)/N=N\c2c([O-])[n-]c3cc(C)ccc23)cc1 (cis-trans isomerization)
CCOC(=O)c1ccc([N-]C(=O)/N=N\c2c([O-])[n-]c3cc(C)ccc23)cc1 (3D coordinates assigned)
CCOC(=O)c1ccc([N-]C(=O)/N=N\c2c([O-])[n-]c3cc(C)ccc23)cc1 (optimized conformer: 87.73413765058072 kcal/mol)

>  <smiles>  (17) 
CCOC(=O)c1ccc(NC(=O)N=Nc2c(O)[nH]c3cc(C)ccc23)cc1

>  <score_type>  (17) 
oracle

>  <origin>  (17) 
adg

>  <m_score__min__energy>  (17) 
-15.039999999999999

>  <m_primary>  (17) 
energy

$$$$
17:0
     RDKit          3D

 33 35  0  0  0  0  0  0  0  0999 V2000
   57.7170   27.8300   45.2100 C   0  0  0  0  0  0  0  0  0  0  0  0
   57.5690   29.3160   45.2390 C   0  0  0  0  0  0  0  0  0  0  0  0
   56.5080   29.9520   44.8000 O   0  0  0  0  0  0  0  0  0  0  0  0
   56.6460   31.2410   44.9190 N   0  0  0  0  0  0  0  0  0  0  0  0
   57.8570   31.4660   45.4680 C   0  0  0  0  0  0  0  0  0  0  0  0
   58.3440   32.8210   45.7980 C   0  0  0  0  0  0  0  0  0  0  0  0
   58.8080   33.6870   44.7920 C   0  0  0  0  0  0  0  0  0  0  0  0
   59.2950   34.9550   45.1220 C   0  0  0  0  0  0  0  0  0  0  0  0
   59.3400   35.3620   46.4590 C   0  0  0  0  0  0  0  0  0  0  0  0
   58.9030   34.4990   47.4670 C   0  0  0  0  0  0  0  0  0  0  0  0
   58.4140   33.2290   47.1400 C   0  0  0  0  0  0  0  0  0  0  0  0
   58.4910   30.2480   45.6890 C   0  0  0  0  0  0  0  0  0  0  0  0
   59.8690   29.9930   46.1550 C   0  0  0  0  0  0  0  0  0  0  0  0
   60.6370   29.2630   45.4740 O   0  0  0  0  0  0  0  0  0  0  0  0
   60.3340   30.5970   47.3680 N   0  0  0  0  0  0  0  0  0  0  0  0
   61.4770   31.4530   47.5190 C   0  0  0  0  0  0  0  0  0  0  0  0
   61.5550   32.6180   46.7480 C   0  0  0  0  0  0  0  0  0  0  0  0
   62.6430   33.4800   46.8900 C   0  0  0  0  0  0  0  0  0  0  0  0
   63.6410   33.1750   47.8180 C   0  0  0  0  0  0  0  0  0  0  0  0
   63.5400   32.0540   48.5810 N   0  0  0  0  0  0  0  0  0  0  0  0
   62.4900   31.1970   48.4590 C   0  0  0  0  0  0  0  0  0  0  0  0
   57.7553   27.4452   46.2398 H   0  0  0  0  0  0  0  0  0  0  0  0
   56.8586   27.3862   44.6844 H   0  0  0  0  0  0  0  0  0  0  0  0
   58.6461   27.5642   44.6844 H   0  0  0  0  0  0  0  0  0  0  0  0
   58.7876   33.3651   43.7404 H   0  0  0  0  0  0  0  0  0  0  0  0
   59.6432   35.6333   44.3291 H   0  0  0  0  0  0  0  0  0  0  0  0
   59.7195   36.3617   46.7171 H   0  0  0  0  0  0  0  0  0  0  0  0
   58.9433   34.8180   48.5190 H   0  0  0  0  0  0  0  0  0  0  0  0
   58.0831   32.5475   47.9376 H   0  0  0  0  0  0  0  0  0  0  0  0
   60.7572   32.8548   46.0287 H   0  0  0  0  0  0  0  0  0  0  0  0
   62.7139   34.3907   46.2771 H   0  0  0  0  0  0  0  0  0  0  0  0
   64.5087   33.8415   47.9317 H   0  0  0  0  0  0  0  0  0  0  0  0
   62.4340   30.3027   49.0970 H   0  0  0  0  0  0  0  0  0  0  0  0
  1  2  1  0
  2  3  1  0
  3  4  1  0
  4  5  2  0
  5  6  1  0
  6  7  2  0
  7  8  1  0
  8  9  2  0
  9 10  1  0
 10 11  2  0
  5 12  1  0
 12 13  1  0
 13 14  2  0
 13 15  1  0
 15 16  1  0
 16 17  2  0
 17 18  1  0
 18 19  2  0
 19 20  1  0
 20 21  2  0
 12  2  2  0
 21 16  1  0
 11  6  1  0
  1 22  1  0
  1 23  1  0
  1 24  1  0
  7 25  1  0
  8 26  1  0
  9 27  1  0
 10 28  1  0
 11 29  1  0
 17 30  1  0
 18 31  1  0
 19 32  1  0
 21 33  1  0
M  CHG  1  15  -1
M  END
>  <UniqueID>  (18) 
17

>  <SMILES>  (18) 
Cc1onc(-c2ccccc2)c1C(=O)[N-]c1cccnc1

>  <Energy>  (18) 
75.9550899873588

>  <Genealogy>  (18) 
Cc1onc(-c2ccccc2)c1C(=O)[N-]c1cccnc1 (protonated)
Cc1onc(-c2ccccc2)c1C(=O)[N-]c1cccnc1 (3D coordinates assigned)
Cc1onc(-c2ccccc2)c1C(=O)[N-]c1cccnc1 (optimized conformer: 75.9550899873588 kcal/mol)

>  <smiles>  (18) 
Cc1onc(-c2ccccc2)c1C(=O)Nc1cccnc1

>  <score_type>  (18) 
oracle

>  <origin>  (18) 
adg

>  <m_score__min__energy>  (18) 
-9.1400000000000006

>  <m_primary>  (18) 
energy

$$$$
18:0
     RDKit          3D

 62 65  0  0  0  0  0  0  0  0999 V2000
   64.6040   31.9020   46.8050 H   0  0  0  0  0  0  0  0  0  0  0  0
   63.7420   31.6000   47.3160 N   0  0  0  0  0  0  0  0  0  0  0  0
   62.7190   32.3840   47.5060 C   0  0  0  0  0  0  0  0  0  0  0  0
   62.4270   33.3770   46.5590 C   0  0  0  0  0  0  0  0  0  0  0  0
   63.0617   33.4915   45.6679 H   0  0  0  0  0  0  0  0  0  0  0  0
   61.3390   34.2130   46.7470 C   0  0  0  0  0  0  0  0  0  0  0  0
   61.1039   34.9847   45.9992 H   0  0  0  0  0  0  0  0  0  0  0  0
   60.5400   34.0780   47.8840 C   0  0  0  0  0  0  0  0  0  0  0  0
   59.3210   34.9570   48.0180 C   0  0  0  0  0  0  0  0  0  0  0  0
   58.9947   34.9657   49.0684 H   0  0  0  0  0  0  0  0  0  0  0  0
   59.5793   35.9756   47.6928 H   0  0  0  0  0  0  0  0  0  0  0  0
   58.2340   34.4550   47.1810 N   0  0  0  0  0  0  0  0  0  0  0  0
   57.4110   33.9880   47.6230 H   0  0  0  0  0  0  0  0  0  0  0  0
   58.2930   34.5260   45.7500 C   0  0  0  0  0  0  0  0  0  0  0  0
   59.2050   35.1960   45.1850 O   0  0  0  0  0  0  0  0  0  0  0  0
   57.3150   33.7570   44.9160 C   0  0  0  0  0  0  0  0  0  0  0  0
   56.3538   33.6937   45.4472 H   0  0  0  0  0  0  0  0  0  0  0  0
   57.1764   34.2727   43.9543 H   0  0  0  0  0  0  0  0  0  0  0  0
   57.8370   32.3660   44.6610 C   0  0  0  0  0  0  0  0  0  0  0  0
   57.9800   31.7540   43.4290 C   0  0  0  0  0  0  0  0  0  0  0  0
   57.6660   32.3410   42.0880 C   0  0  0  0  0  0  0  0  0  0  0  0
   57.1509   33.3039   42.2207 H   0  0  0  0  0  0  0  0  0  0  0  0
   58.6001   32.4988   41.5290 H   0  0  0  0  0  0  0  0  0  0  0  0
   57.0162   31.6516   41.5290 H   0  0  0  0  0  0  0  0  0  0  0  0
   58.3380   30.4670   43.6000 N   0  0  0  0  0  0  0  0  0  0  0  0
   58.4180   30.3120   44.9400 C   0  0  0  0  0  0  0  0  0  0  0  0
   58.7510   29.0090   45.5500 C   0  0  0  0  0  0  0  0  0  0  0  0
   57.7150   28.1360   45.9230 C   0  0  0  0  0  0  0  0  0  0  0  0
   56.6674   28.4248   45.7520 H   0  0  0  0  0  0  0  0  0  0  0  0
   58.0090   26.9050   46.5090 C   0  0  0  0  0  0  0  0  0  0  0  0
   57.1948   26.2175   46.7819 H   0  0  0  0  0  0  0  0  0  0  0  0
   59.3400   26.5440   46.7500 C   0  0  0  0  0  0  0  0  0  0  0  0
   59.5712   25.5686   47.2029 H   0  0  0  0  0  0  0  0  0  0  0  0
   60.3750   27.4210   46.4160 C   0  0  0  0  0  0  0  0  0  0  0  0
   61.4197   27.1407   46.6159 H   0  0  0  0  0  0  0  0  0  0  0  0
   60.0830   28.6520   45.8290 C   0  0  0  0  0  0  0  0  0  0  0  0
   60.8987   29.3477   45.5828 H   0  0  0  0  0  0  0  0  0  0  0  0
   58.1280   31.4530   45.6150 N   0  0  0  0  0  0  0  0  0  0  0  0
   58.1450   31.6750   47.0610 C   0  0  0  0  0  0  0  0  0  0  0  0
   58.0710   30.7086   47.5812 H   0  0  0  0  0  0  0  0  0  0  0  0
   59.0839   32.1731   47.3445 H   0  0  0  0  0  0  0  0  0  0  0  0
   57.2929   32.3102   47.3445 H   0  0  0  0  0  0  0  0  0  0  0  0
   60.8470   33.0710   48.8270 C   0  0  0  0  0  0  0  0  0  0  0  0
   60.0170   32.9390   49.9950 N   0  0  0  0  0  0  0  0  0  0  0  0
   60.2390   33.7960   51.1600 C   0  0  0  0  0  0  0  0  0  0  0  0
   60.8839   33.2738   51.8821 H   0  0  0  0  0  0  0  0  0  0  0  0
   60.7266   34.7293   50.8417 H   0  0  0  0  0  0  0  0  0  0  0  0
   58.8950   34.1200   51.8170 C   0  0  0  0  0  0  0  0  0  0  0  0
   59.0754   34.6442   52.7671 H   0  0  0  0  0  0  0  0  0  0  0  0
   58.3129   34.7550   51.1330 H   0  0  0  0  0  0  0  0  0  0  0  0
   58.1610   32.9380   52.0720 O   0  0  0  0  0  0  0  0  0  0  0  0
   57.8070   32.3140   50.8520 C   0  0  0  0  0  0  0  0  0  0  0  0
   57.1622   31.4486   51.0648 H   0  0  0  0  0  0  0  0  0  0  0  0
   57.2765   33.0464   50.2258 H   0  0  0  0  0  0  0  0  0  0  0  0
   59.0490   31.8380   50.0970 C   0  0  0  0  0  0  0  0  0  0  0  0
   59.5068   30.9973   50.6388 H   0  0  0  0  0  0  0  0  0  0  0  0
   58.7595   31.5118   49.0871 H   0  0  0  0  0  0  0  0  0  0  0  0
   61.9260   32.2350   48.6220 N   0  0  0  0  0  0  0  0  0  0  0  0
   62.2460   31.1480   49.5700 C   0  0  0  0  0  0  0  0  0  0  0  0
   62.1375   31.5166   50.6007 H   0  0  0  0  0  0  0  0  0  0  0  0
   61.5578   30.3054   49.4076 H   0  0  0  0  0  0  0  0  0  0  0  0
   63.2810   30.8127   49.4076 H   0  0  0  0  0  0  0  0  0  0  0  0
  1  2  1  0
  2  3  2  0
  3  4  1  0
  4  5  1  0
  4  6  2  0
  6  7  1  0
  6  8  1  0
  8  9  1  0
  9 10  1  0
  9 11  1  0
  9 12  1  0
 12 13  1  0
 12 14  1  0
 14 15  2  0
 14 16  1  0
 16 17  1  0
 16 18  1  0
 16 19  1  0
 19 20  2  0
 20 21  1  0
 21 22  1  0
 21 23  1  0
 21 24  1  0
 20 25  1  0
 25 26  2  0
 26 27  1  0
 27 28  2  0
 28 29  1  0
 28 30  1  0
 30 31  1  0
 30 32  2  0
 32 33  1  0
 32 34  1  0
 34 35  1  0
 34 36  2  0
 36 37  1  0
 26 38  1  0
 38 39  1  0
 39 40  1  0
 39 41  1  0
 39 42  1  0
  8 43  2  0
 43 44  1  0
 44 45  1  0
 45 46  1  0
 45 47  1  0
 45 48  1  0
 48 49  1  0
 48 50  1  0
 48 51  1  0
 51 52  1  0
 52 53  1  0
 52 54  1  0
 52 55  1  0
 55 56  1  0
 55 57  1  0
 43 58  1  0
 58 59  1  0
 59 60  1  0
 59 61  1  0
 59 62  1  0
 58  3  1  0
 38 19  1  0
 55 44  1  0
 36 27  1  0
M  END
>  <UniqueID>  (19) 
18

>  <SMILES>  (19) 
[H]/N=c1\ccc(CNC(=O)Cc2c(C)nc(-c3ccccc3)n2C)c(N2CCOCC2)n1C

>  <Energy>  (19) 
105.65115154337524

>  <Genealogy>  (19) 
[H]/N=c1\ccc(CNC(=O)Cc2c(C)nc(-c3ccccc3)n2C)c(N2CCOCC2)n1C (cis-trans isomerization)
[H]/N=c1\ccc(CNC(=O)Cc2c(C)nc(-c3ccccc3)n2C)c(N2CCOCC2)n1C (3D coordinates assigned)
[H]/N=c1\ccc(CNC(=O)Cc2c(C)nc(-c3ccccc3)n2C)c(N2CCOCC2)n1C (nonaromatic ring conformer: 105.65115154337524 kcal/mol)

>  <smiles>  (19) 
Cc1nc(-c2ccccc2)n(C)c1CC(=O)NCc1ccc(=N)n(C)c1N1CCOCC1

>  <score_type>  (19) 
oracle

>  <origin>  (19) 
adg

>  <m_score__min__energy>  (19) 
-8.9299999999999997

>  <m_primary>  (19) 
energy

$$$$
19:0
     RDKit          3D

 43 46  0  0  0  0  0  0  0  0999 V2000
   58.6440   33.5310   45.6020 C   0  0  0  0  0  0  0  0  0  0  0  0
   58.1030   32.6110   44.5990 N   0  0  0  0  0  0  0  0  0  0  0  0
   58.2700   32.8800   43.2700 C   0  0  0  0  0  0  0  0  0  0  0  0
   57.7340   32.0290   42.3040 C   0  0  0  0  0  0  0  0  0  0  0  0
   57.0150   30.9040   42.7010 C   0  0  0  0  0  0  0  0  0  0  0  0
   56.8260   30.6350   44.0650 C   0  0  0  0  0  0  0  0  0  0  0  0
   56.0560   29.4470   44.5060 C   0  0  0  0  0  0  0  0  0  0  0  0
   54.8390   29.3400   44.1950 O   0  0  0  0  0  0  0  0  0  0  0  0
   56.7010   28.4200   45.2710 N   0  0  0  0  0  0  0  0  0  0  0  0
   58.0460   28.4350   45.7650 C   0  0  0  0  0  0  0  0  0  0  0  0
   59.1680   28.1450   45.0170 C   0  0  0  0  0  0  0  0  0  0  0  0
   60.2460   28.2940   45.8090 N   0  0  0  0  0  0  0  0  0  0  0  0
   59.8440   28.6640   47.0160 N   0  0  0  0  0  0  0  0  0  0  0  0
   60.7450   28.9800   48.1210 C   0  0  0  0  0  0  0  0  0  0  0  0
   60.8720   30.4730   48.2690 C   0  0  0  0  0  0  0  0  0  0  0  0
   61.8780   31.1770   47.5760 C   0  0  0  0  0  0  0  0  0  0  0  0
   61.9690   32.5770   47.6730 C   0  0  0  0  0  0  0  0  0  0  0  0
   63.3410   33.5190   46.7360 Br  0  0  0  0  0  0  0  0  0  0  0  0
   61.0410   33.2780   48.4560 C   0  0  0  0  0  0  0  0  0  0  0  0
   60.0780   32.5710   49.1000 N   0  0  0  0  0  0  0  0  0  0  0  0
   59.0900   33.0290   49.8890 C   0  0  0  0  0  0  0  0  0  0  0  0
   58.3340   31.9560   50.3310 C   0  0  0  0  0  0  0  0  0  0  0  0
   58.8910   30.8070   49.7860 C   0  0  0  0  0  0  0  0  0  0  0  0
   59.9690   31.2320   49.0300 C   0  0  0  0  0  0  0  0  0  0  0  0
   58.5010   28.7700   47.0290 C   0  0  0  0  0  0  0  0  0  0  0  0
   57.3800   31.5240   45.0050 C   0  0  0  0  0  0  0  0  0  0  0  0
   58.4194   33.1491   46.6088 H   0  0  0  0  0  0  0  0  0  0  0  0
   59.7337   33.6122   45.4752 H   0  0  0  0  0  0  0  0  0  0  0  0
   58.1852   34.5227   45.4752 H   0  0  0  0  0  0  0  0  0  0  0  0
   58.8310   33.7739   42.9598 H   0  0  0  0  0  0  0  0  0  0  0  0
   57.8781   32.2448   41.2351 H   0  0  0  0  0  0  0  0  0  0  0  0
   56.5948   30.2255   41.9440 H   0  0  0  0  0  0  0  0  0  0  0  0
   59.1797   27.8447   43.9589 H   0  0  0  0  0  0  0  0  0  0  0  0
   61.2430   28.1630   45.5240 H   0  0  0  0  0  0  0  0  0  0  0  0
   60.3431   28.5542   49.0522 H   0  0  0  0  0  0  0  0  0  0  0  0
   61.7365   28.5514   47.9132 H   0  0  0  0  0  0  0  0  0  0  0  0
   62.5984   30.6260   46.9536 H   0  0  0  0  0  0  0  0  0  0  0  0
   61.0921   34.3731   48.5461 H   0  0  0  0  0  0  0  0  0  0  0  0
   58.9113   34.0844   50.1422 H   0  0  0  0  0  0  0  0  0  0  0  0
   57.4555   32.0051   50.9912 H   0  0  0  0  0  0  0  0  0  0  0  0
   58.5462   29.7719   49.9263 H   0  0  0  0  0  0  0  0  0  0  0  0
   57.8799   29.0680   47.8865 H   0  0  0  0  0  0  0  0  0  0  0  0
   57.2295   31.3420   46.0793 H   0  0  0  0  0  0  0  0  0  0  0  0
  1  2  1  0
  2  3  2  0
  3  4  1  0
  4  5  2  0
  5  6  1  0
  6  7  1  0
  7  8  2  0
  7  9  1  0
  9 10  1  0
 10 11  1  0
 11 12  2  0
 12 13  1  0
 13 14  1  0
 14 15  1  0
 15 16  2  0
 16 17  1  0
 17 18  1  0
 17 19  2  0
 19 20  1  0
 20 21  1  0
 21 22  2  0
 22 23  1  0
 23 24  2  0
 13 25  1  0
  6 26  2  0
 26  2  1  0
 25 10  2  0
 24 15  1  0
 24 20  1  0
  1 27  1  0
  1 28  1  0
  1 29  1  0
  3 30  1  0
  4 31  1  0
  5 32  1  0
 11 33  1  0
 12 34  1  0
 14 35  1  0
 14 36  1  0
 16 37  1  0
 19 38  1  0
 21 39  1  0
 22 40  1  0
 23 41  1  0
 25 42  1  0
 26 43  1  0
M  CHG  3   2   1   9  -1  12   1
M  END
>  <UniqueID>  (20) 
19

>  <SMILES>  (20) 
C[n+]1cccc(C(=O)[N-]c2c[nH+]n(Cc3cc(Br)cn4cccc34)c2)c1

>  <Energy>  (20) 
110.14760674736907

>  <Genealogy>  (20) 
C[n+]1cccc(C(=O)[N-]c2c[nH+]n(Cc3cc(Br)cn4cccc34)c2)c1 (protonated)
C[n+]1cccc(C(=O)[N-]c2c[nH+]n(Cc3cc(Br)cn4cccc34)c2)c1 (3D coordinates assigned)
C[n+]1cccc(C(=O)[N-]c2c[nH+]n(Cc3cc(Br)cn4cccc34)c2)c1 (optimized conformer: 110.14760674736907 kcal/mol)

>  <smiles>  (20) 
C[n+]1cccc(C(=O)Nc2cnn(Cc3cc(Br)cn4cccc34)c2)c1

>  <score_type>  (20) 
oracle

>  <origin>  (20) 
adg

>  <m_score__min__energy>  (20) 
-7.6799999999999997

>  <m_primary>  (20) 
energy

$$$$
20:0
     RDKit          3D

 52 55  0  0  0  0  0  0  0  0999 V2000
   56.9460   24.5890   47.1800 C   0  0  0  0  0  0  0  0  0  0  0  0
   57.5130   25.7890   46.4790 C   0  0  0  0  0  0  0  0  0  0  0  0
   58.9030   25.9600   46.3810 C   0  0  0  0  0  0  0  0  0  0  0  0
   59.4290   27.0910   45.7520 C   0  0  0  0  0  0  0  0  0  0  0  0
   58.5750   28.0660   45.2310 C   0  0  0  0  0  0  0  0  0  0  0  0
   57.1840   27.9240   45.3510 C   0  0  0  0  0  0  0  0  0  0  0  0
   56.2630   28.9570   44.7630 C   0  0  0  0  0  0  0  0  0  0  0  0
   56.9970   30.2480   44.5810 C   0  0  0  0  0  0  0  0  0  0  0  0
   57.4650   30.9200   45.6660 N   0  0  0  0  0  0  0  0  0  0  0  0
   58.0950   32.1160   45.5320 C   0  0  0  0  0  0  0  0  0  0  0  0
   58.5690   32.7870   46.6640 C   0  0  0  0  0  0  0  0  0  0  0  0
   59.2170   34.0250   46.5320 C   0  0  0  0  0  0  0  0  0  0  0  0
   59.6910   34.7570   47.7600 C   0  0  0  0  0  0  0  0  0  0  0  0
   60.9730   34.1990   48.2400 N   0  0  0  0  0  0  0  0  0  0  0  0
   60.7340   33.1530   49.2540 C   0  0  0  0  0  0  0  0  0  0  0  0
   62.0510   32.7690   49.9530 C   0  0  0  0  0  0  0  0  0  0  0  0
   63.2810   33.0080   49.0620 C   0  0  0  0  0  0  0  0  0  0  0  0
   62.9450   32.7500   47.5870 C   0  0  2  0  0  0  0  0  0  0  0  0
   64.1400   32.9260   46.7600 N   0  0  0  0  0  0  0  0  0  0  0  0
   61.7800   33.6650   47.1120 C   0  0  0  0  0  0  0  0  0  0  0  0
   59.3810   34.5890   45.2570 C   0  0  0  0  0  0  0  0  0  0  0  0
   58.9110   33.9210   44.1220 C   0  0  0  0  0  0  0  0  0  0  0  0
   58.2640   32.6810   44.2510 C   0  0  0  0  0  0  0  0  0  0  0  0
   57.7630   31.9710   43.1460 C   0  0  0  0  0  0  0  0  0  0  0  0
   57.8800   32.4270   41.9760 O   0  0  0  0  0  0  0  0  0  0  0  0
   57.1400   30.7800   43.3380 N   0  0  0  0  0  0  0  0  0  0  0  0
   56.6570   26.7800   45.9730 C   0  0  0  0  0  0  0  0  0  0  0  0
   57.0144   24.7338   48.2683 H   0  0  0  0  0  0  0  0  0  0  0  0
   55.8920   24.4606   46.8927 H   0  0  0  0  0  0  0  0  0  0  0  0
   57.5161   23.6932   46.8927 H   0  0  0  0  0  0  0  0  0  0  0  0
   59.5799   25.2012   46.8007 H   0  0  0  0  0  0  0  0  0  0  0  0
   60.5188   27.2142   45.6667 H   0  0  0  0  0  0  0  0  0  0  0  0
   58.9943   28.9481   44.7249 H   0  0  0  0  0  0  0  0  0  0  0  0
   55.8957   28.6054   43.7875 H   0  0  0  0  0  0  0  0  0  0  0  0
   55.4141   29.1156   45.4443 H   0  0  0  0  0  0  0  0  0  0  0  0
   58.4335   32.3429   47.6612 H   0  0  0  0  0  0  0  0  0  0  0  0
   59.8294   35.8205   47.5153 H   0  0  0  0  0  0  0  0  0  0  0  0
   58.9370   34.6422   48.5527 H   0  0  0  0  0  0  0  0  0  0  0  0
   60.0232   33.5310   50.0035 H   0  0  0  0  0  0  0  0  0  0  0  0
   60.3224   32.2625   48.7565 H   0  0  0  0  0  0  0  0  0  0  0  0
   62.1545   33.3725   50.8668 H   0  0  0  0  0  0  0  0  0  0  0  0
   62.0073   31.6939   50.1816 H   0  0  0  0  0  0  0  0  0  0  0  0
   63.6139   34.0499   49.1790 H   0  0  0  0  0  0  0  0  0  0  0  0
   64.0779   32.3143   49.3682 H   0  0  0  0  0  0  0  0  0  0  0  0
   62.6050   31.7094   47.4791 H   0  0  0  0  0  0  0  0  0  0  0  0
   64.8980   33.3380   47.3530 H   0  0  0  0  0  0  0  0  0  0  0  0
   64.4750   31.9910   46.4290 H   0  0  0  0  0  0  0  0  0  0  0  0
   62.2035   34.5111   46.5509 H   0  0  0  0  0  0  0  0  0  0  0  0
   61.1125   33.0547   46.4859 H   0  0  0  0  0  0  0  0  0  0  0  0
   59.8823   35.5623   45.1501 H   0  0  0  0  0  0  0  0  0  0  0  0
   59.0482   34.3675   43.1261 H   0  0  0  0  0  0  0  0  0  0  0  0
   55.5674   26.6600   46.0641 H   0  0  0  0  0  0  0  0  0  0  0  0
  1  2  1  0
  2  3  2  0
  3  4  1  0
  4  5  2  0
  5  6  1  0
  6  7  1  0
  7  8  1  0
  8  9  2  0
  9 10  1  0
 10 11  2  0
 11 12  1  0
 12 13  1  0
 13 14  1  0
 14 15  1  0
 15 16  1  0
 16 17  1  0
 17 18  1  0
 18 19  1  0
 18 20  1  0
 12 21  2  0
 21 22  1  0
 22 23  2  0
 23 24  1  0
 24 25  2  0
 24 26  1  0
  6 27  2  0
 27  2  1  0
 26  8  1  0
 23 10  1  0
 20 14  1  0
  1 28  1  0
  1 29  1  0
  1 30  1  0
  3 31  1  0
  4 32  1  0
  5 33  1  0
  7 34  1  0
  7 35  1  0
 11 36  1  0
 13 37  1  0
 13 38  1  0
 15 39  1  0
 15 40  1  0
 16 41  1  0
 16 42  1  0
 17 43  1  0
 17 44  1  0
 18 45  1  1
 19 46  1  0
 19 47  1  0
 20 48  1  0
 20 49  1  0
 21 50  1  0
 22 51  1  0
 27 52  1  0
M  CHG  1  26  -1
M  END
>  <UniqueID>  (21) 
20

>  <SMILES>  (21) 
Cc1cccc(Cc2nc3cc(CN4CCC[C@H](N)C4)ccc3c(=O)[n-]2)c1

>  <Energy>  (21) 
61.53967342007717

>  <Genealogy>  (21) 
Cc1cccc(Cc2nc3cc(CN4CCCC(N)C4)ccc3c(=O)[n-]2)c1 (protonated)
Cc1cccc(Cc2nc3cc(CN4CCC[C@H](N)C4)ccc3c(=O)[n-]2)c1 (chirality)
Cc1cccc(Cc2nc3cc(CN4CCC[C@H](N)C4)ccc3c(=O)[n-]2)c1 (3D coordinates assigned)
Cc1cccc(Cc2nc3cc(CN4CCC[C@H](N)C4)ccc3c(=O)[n-]2)c1 (nonaromatic ring conformer: 61.53967342007717 kcal/mol)

>  <smiles>  (21) 
Cc1cccc(Cc2nc3cc(CN4CCCC(N)C4)ccc3c(=O)[nH]2)c1

>  <score_type>  (21) 
oracle

>  <origin>  (21) 
adg

>  <m_score__min__energy>  (21) 
-10.83

>  <m_primary>  (21) 
energy

$$$$
21:0
     RDKit          3D

 30 31  0  0  0  0  0  0  0  0999 V2000
   59.6470   33.8110   49.5700 C   0  0  0  0  0  0  0  0  0  0  0  0
   60.0350   33.8570   48.1640 N   0  0  0  0  0  0  0  0  0  0  0  0
   61.2930   33.9380   47.6900 C   0  0  0  0  0  0  0  0  0  0  0  0
   61.2480   33.8130   46.3160 C   0  0  0  0  0  0  0  0  0  0  0  0
   59.9670   33.6390   45.9400 N   0  0  0  0  0  0  0  0  0  0  0  0
   59.2520   33.6660   47.0810 C   0  0  0  0  0  0  0  0  0  0  0  0
   57.4660   33.4620   47.1330 S   0  0  0  0  0  0  0  0  0  0  0  0
   57.2180   33.8330   45.3620 C   0  0  0  0  0  0  0  0  0  0  0  0
   57.4750   32.6240   44.5200 C   0  0  0  0  0  0  0  0  0  0  0  0
   58.2260   32.7140   43.5140 O   0  0  0  0  0  0  0  0  0  0  0  0
   56.8430   31.3840   44.8650 N   0  0  0  0  0  0  0  0  0  0  0  0
   57.4780   30.1390   45.1960 C   0  0  0  0  0  0  0  0  0  0  0  0
   58.8340   30.0600   45.5680 C   0  0  0  0  0  0  0  0  0  0  0  0
   59.3980   28.8280   45.9150 C   0  0  0  0  0  0  0  0  0  0  0  0
   58.6170   27.6700   45.9060 C   0  0  0  0  0  0  0  0  0  0  0  0
   59.3910   25.9910   46.3850 Br  0  0  0  0  0  0  0  0  0  0  0  0
   57.2660   27.7440   45.5580 C   0  0  0  0  0  0  0  0  0  0  0  0
   56.6970   28.9740   45.2120 C   0  0  0  0  0  0  0  0  0  0  0  0
   55.3810   29.0310   44.8850 F   0  0  0  0  0  0  0  0  0  0  0  0
   60.5418   33.9171   50.2010 H   0  0  0  0  0  0  0  0  0  0  0  0
   58.9476   34.6325   49.7844 H   0  0  0  0  0  0  0  0  0  0  0  0
   59.1591   32.8487   49.7844 H   0  0  0  0  0  0  0  0  0  0  0  0
   62.2011   34.0796   48.2944 H   0  0  0  0  0  0  0  0  0  0  0  0
   62.1152   33.8495   45.6402 H   0  0  0  0  0  0  0  0  0  0  0  0
   59.6070   33.5060   44.9700 H   0  0  0  0  0  0  0  0  0  0  0  0
   56.1814   34.1662   45.2060 H   0  0  0  0  0  0  0  0  0  0  0  0
   57.9251   34.6223   45.0669 H   0  0  0  0  0  0  0  0  0  0  0  0
   59.4516   30.9701   45.5857 H   0  0  0  0  0  0  0  0  0  0  0  0
   60.4600   28.7709   46.1959 H   0  0  0  0  0  0  0  0  0  0  0  0
   56.6488   26.8335   45.5561 H   0  0  0  0  0  0  0  0  0  0  0  0
  1  2  1  0
  2  3  1  0
  3  4  2  0
  4  5  1  0
  5  6  2  0
  6  7  1  0
  7  8  1  0
  8  9  1  0
  9 10  2  0
  9 11  1  0
 11 12  1  0
 12 13  2  0
 13 14  1  0
 14 15  2  0
 15 16  1  0
 15 17  1  0
 17 18  2  0
 18 19  1  0
  6  2  1  0
 18 12  1  0
  1 20  1  0
  1 21  1  0
  1 22  1  0
  3 23  1  0
  4 24  1  0
  5 25  1  0
  8 26  1  0
  8 27  1  0
 13 28  1  0
 14 29  1  0
 17 30  1  0
M  CHG  2   5   1  11  -1
M  END
>  <UniqueID>  (22) 
21

>  <SMILES>  (22) 
Cn1cc[nH+]c1SCC(=O)[N-]c1ccc(Br)cc1F

>  <Energy>  (22) 
56.603391975683856

>  <Genealogy>  (22) 
Cn1cc[nH+]c1SCC(=O)[N-]c1ccc(Br)cc1F (protonated)
Cn1cc[nH+]c1SCC(=O)[N-]c1ccc(Br)cc1F (3D coordinates assigned)
Cn1cc[nH+]c1SCC(=O)[N-]c1ccc(Br)cc1F (optimized conformer: 56.603391975683856 kcal/mol)

>  <smiles>  (22) 
Cn1ccnc1SCC(=O)Nc1ccc(Br)cc1F

>  <score_type>  (22) 
oracle

>  <origin>  (22) 
adg

>  <m_score__min__energy>  (22) 
-6.8399999999999999

>  <m_primary>  (22) 
energy

$$$$
22:0
     RDKit          3D

 43 46  0  0  0  0  0  0  0  0999 V2000
   57.5227   31.9335   42.3053 H   0  0  0  0  0  0  0  0  0  0  0  0
   57.3970   31.9200   43.3980 C   0  0  0  0  0  0  0  0  0  0  0  0
   57.1990   30.6240   44.0760 C   0  0  0  0  0  0  0  0  0  0  0  0
   56.0440   30.3230   44.4780 O   0  0  0  0  0  0  0  0  0  0  0  0
   58.2620   29.6820   44.2720 N   0  0  0  0  0  0  0  0  0  0  0  0
   58.9690   29.4740   45.5020 C   0  0  0  0  0  0  0  0  0  0  0  0
   60.1670   30.4880   46.1180 S   0  0  0  0  0  0  0  0  0  0  0  0
   60.2500   29.6420   47.5770 C   0  0  0  0  0  0  0  0  0  0  0  0
   61.0740   29.8800   48.5550 N   0  0  0  0  0  0  0  0  0  0  0  0
   62.0010   30.9740   48.6430 C   0  0  0  0  0  0  0  0  0  0  0  0
   62.5810   31.5450   47.4950 C   0  0  0  0  0  0  0  0  0  0  0  0
   62.3494   31.1345   46.5011 H   0  0  0  0  0  0  0  0  0  0  0  0
   63.4510   32.6330   47.6150 C   0  0  0  0  0  0  0  0  0  0  0  0
   63.9162   33.0648   46.7166 H   0  0  0  0  0  0  0  0  0  0  0  0
   63.7310   33.1730   48.8720 C   0  0  0  0  0  0  0  0  0  0  0  0
   64.4225   34.0235   48.9645 H   0  0  0  0  0  0  0  0  0  0  0  0
   63.1310   32.6310   50.0130 C   0  0  0  0  0  0  0  0  0  0  0  0
   63.3444   33.0609   51.0028 H   0  0  0  0  0  0  0  0  0  0  0  0
   62.2600   31.5430   49.8970 C   0  0  0  0  0  0  0  0  0  0  0  0
   61.7757   31.1317   50.7949 H   0  0  0  0  0  0  0  0  0  0  0  0
   59.3820   28.6090   47.6090 N   0  0  0  0  0  0  0  0  0  0  0  0
   58.6570   28.5080   46.4610 C   0  0  0  0  0  0  0  0  0  0  0  0
   57.6330   27.4560   46.3050 C   0  0  0  0  0  0  0  0  0  0  0  0
   57.6640   26.4530   47.0680 O   0  0  0  0  0  0  0  0  0  0  0  0
   56.6320   27.5270   45.2880 N   0  0  0  0  0  0  0  0  0  0  0  0
   56.6930   28.2190   44.5100 H   0  0  0  0  0  0  0  0  0  0  0  0
   55.8800   26.8030   45.2460 H   0  0  0  0  0  0  0  0  0  0  0  0
   57.4290   33.0810   44.0670 C   0  0  0  0  0  0  0  0  0  0  0  0
   56.8726   33.9337   43.6506 H   0  0  0  0  0  0  0  0  0  0  0  0
   58.1700   33.2840   45.3350 C   0  0  0  0  0  0  0  0  0  0  0  0
   59.3330   34.0980   45.3120 C   0  0  0  0  0  0  0  0  0  0  0  0
   59.6575   34.5551   44.3656 H   0  0  0  0  0  0  0  0  0  0  0  0
   60.0750   34.3270   46.4840 C   0  0  0  0  0  0  0  0  0  0  0  0
   60.9813   34.9503   46.4696 H   0  0  0  0  0  0  0  0  0  0  0  0
   59.6260   33.7400   47.6620 C   0  0  0  0  0  0  0  0  0  0  0  0
   58.5110   32.9710   47.7010 C   0  0  0  0  0  0  0  0  0  0  0  0
   57.7470   32.7160   46.5640 C   0  0  0  0  0  0  0  0  0  0  0  0
   56.8424   32.0925   46.6179 H   0  0  0  0  0  0  0  0  0  0  0  0
   58.3000   32.5310   48.9930 O   0  0  0  0  0  0  0  0  0  0  0  0
   59.3520   33.0540   49.8170 C   0  0  0  0  0  0  0  0  0  0  0  0
   58.9395   33.6950   50.6100 H   0  0  0  0  0  0  0  0  0  0  0  0
   59.9184   32.2561   50.3195 H   0  0  0  0  0  0  0  0  0  0  0  0
   60.1750   33.8200   48.9270 O   0  0  0  0  0  0  0  0  0  0  0  0
  1  2  1  0
  2  3  1  0
  3  4  2  0
  3  5  1  0
  5  6  1  0
  6  7  1  0
  7  8  1  0
  8  9  2  0
  9 10  1  0
 10 11  2  0
 11 12  1  0
 11 13  1  0
 13 14  1  0
 13 15  2  0
 15 16  1  0
 15 17  1  0
 17 18  1  0
 17 19  2  0
 19 20  1  0
  8 21  1  0
 21 22  1  0
 22 23  1  0
 23 24  2  0
 23 25  1  0
 25 26  1  0
 25 27  1  0
  2 28  2  3
 28 29  1  0
 28 30  1  0
 30 31  2  0
 31 32  1  0
 31 33  1  0
 33 34  1  0
 33 35  2  0
 35 36  1  0
 36 37  2  0
 37 38  1  0
 36 39  1  0
 39 40  1  0
 40 41  1  0
 40 42  1  0
 40 43  1  0
 22  6  2  0
 37 30  1  0
 19 10  1  0
 43 35  1  0
M  CHG  2   5  -1  21  -1
M  END
>  <UniqueID>  (23) 
22

>  <SMILES>  (23) 
NC(=O)c1[n-]/c(=N/c2ccccc2)sc1[N-]C(=O)C=Cc1ccc2c(c1)OCO2

>  <Energy>  (23) 
120.40768452670116

>  <Genealogy>  (23) 
NC(=O)c1[n-]c(=Nc2ccccc2)sc1[N-]C(=O)C=Cc1ccc2c(c1)OCO2 (protonated)
NC(=O)c1[n-]/c(=N/c2ccccc2)sc1[N-]C(=O)C=Cc1ccc2c(c1)OCO2 (cis-trans isomerization)
NC(=O)c1[n-]/c(=N/c2ccccc2)sc1[N-]C(=O)C=Cc1ccc2c(c1)OCO2 (3D coordinates assigned)
NC(=O)c1[n-]/c(=N/c2ccccc2)sc1[N-]C(=O)C=Cc1ccc2c(c1)OCO2 (nonaromatic ring conformer: 120.40768452670116 kcal/mol)

>  <smiles>  (23) 
NC(=O)c1[nH]c(=Nc2ccccc2)sc1NC(=O)C=Cc1ccc2c(c1)OCO2

>  <score_type>  (23) 
oracle

>  <origin>  (23) 
adg

>  <m_score__min__energy>  (23) 
-10.93

>  <m_primary>  (23) 
energy

$$$$
23:0
     RDKit          3D

 37 38  0  0  0  0  0  0  0  0999 V2000
   64.8000   32.4560   47.3090 H   0  0  0  0  0  0  0  0  0  0  0  0
   64.3470   33.2970   47.6450 O   0  0  0  0  0  0  0  0  0  0  0  0
   62.9640   33.4510   47.5900 C   0  0  0  0  0  0  0  0  0  0  0  0
   62.3570   33.8180   46.3840 C   0  0  0  0  0  0  0  0  0  0  0  0
   62.9734   33.9820   45.4878 H   0  0  0  0  0  0  0  0  0  0  0  0
   60.9700   33.9770   46.3140 C   0  0  0  0  0  0  0  0  0  0  0  0
   60.4975   34.2495   45.3588 H   0  0  0  0  0  0  0  0  0  0  0  0
   60.1760   33.7900   47.4600 C   0  0  0  0  0  0  0  0  0  0  0  0
   58.7040   33.9230   47.4110 C   0  0  0  0  0  0  0  0  0  0  0  0
   58.2339   34.6267   48.1137 H   0  0  0  0  0  0  0  0  0  0  0  0
   57.8980   33.2510   46.5750 C   0  0  0  0  0  0  0  0  0  0  0  0
   57.0347   33.7865   46.1532 H   0  0  0  0  0  0  0  0  0  0  0  0
   58.0930   31.8360   46.1820 C   0  0  0  0  0  0  0  0  0  0  0  0
   57.3700   31.2720   45.1980 C   0  0  0  0  0  0  0  0  0  0  0  0
   56.3589   31.6640   45.0137 H   0  0  0  0  0  0  0  0  0  0  0  0
   57.8540   30.1390   44.3320 C   0  0  0  0  0  0  0  0  0  0  0  0
   57.3174   30.1709   43.3723 H   0  0  0  0  0  0  0  0  0  0  0  0
   58.9373   30.2613   44.1854 H   0  0  0  0  0  0  0  0  0  0  0  0
   57.6180   28.7910   44.9800 C   0  0  0  0  0  0  0  0  0  0  0  0
   58.7130   27.9970   45.3830 C   0  0  0  0  0  0  0  0  0  0  0  0
   60.0190   28.4400   45.1940 O   0  0  0  0  0  0  0  0  0  0  0  0
   58.4990   26.7540   45.9840 C   0  0  0  0  0  0  0  0  0  0  0  0
   59.3579   26.1367   46.2860 H   0  0  0  0  0  0  0  0  0  0  0  0
   57.2000   26.2920   46.2030 C   0  0  0  0  0  0  0  0  0  0  0  0
   57.0378   25.3098   46.6708 H   0  0  0  0  0  0  0  0  0  0  0  0
   56.1070   27.0750   45.8290 C   0  0  0  0  0  0  0  0  0  0  0  0
   54.8170   26.6120   46.0600 O   0  0  0  0  0  0  0  0  0  0  0  0
   56.3080   28.3230   45.2250 C   0  0  0  0  0  0  0  0  0  0  0  0
   55.2010   29.0910   44.8730 O   0  0  0  0  0  0  0  0  0  0  0  0
   59.1530   31.0150   46.8640 C   0  0  0  0  0  0  0  0  0  0  0  0
   59.0396   31.1028   47.9546 H   0  0  0  0  0  0  0  0  0  0  0  0
   59.0473   29.9608   46.5681 H   0  0  0  0  0  0  0  0  0  0  0  0
   60.1472   31.3810   46.5681 H   0  0  0  0  0  0  0  0  0  0  0  0
   60.7870   33.3940   48.6590 C   0  0  0  0  0  0  0  0  0  0  0  0
   60.1709   33.2075   49.5510 H   0  0  0  0  0  0  0  0  0  0  0  0
   62.1740   33.2350   48.7270 C   0  0  0  0  0  0  0  0  0  0  0  0
   62.6465   32.9396   49.6754 H   0  0  0  0  0  0  0  0  0  0  0  0
  1  2  1  0
  2  3  1  0
  3  4  2  0
  4  5  1  0
  4  6  1  0
  6  7  1  0
  6  8  2  0
  8  9  1  0
  9 10  1  0
  9 11  2  0
 11 12  1  0
 11 13  1  0
 13 14  2  0
 14 15  1  0
 14 16  1  0
 16 17  1  0
 16 18  1  0
 16 19  1  0
 19 20  2  0
 20 21  1  0
 20 22  1  0
 22 23  1  0
 22 24  2  0
 24 25  1  0
 24 26  1  0
 26 27  1  0
 26 28  2  0
 28 29  1  0
 13 30  1  0
 30 31  1  0
 30 32  1  0
 30 33  1  0
  8 34  1  0
 34 35  1  0
 34 36  2  0
 36 37  1  0
 36  3  1  0
 28 19  1  0
M  CHG  3  21  -1  27  -1  29  -1
M  END
>  <UniqueID>  (24) 
23

>  <SMILES>  (24) 
CC(/C=C\c1ccc(O)cc1)=C/Cc1c([O-])ccc([O-])c1[O-]

>  <Energy>  (24) 
46.82213595819447

>  <Genealogy>  (24) 
CC(C=Cc1ccc(O)cc1)=CCc1c([O-])ccc([O-])c1[O-] (protonated)
CC(/C=C\c1ccc(O)cc1)=C/Cc1c([O-])ccc([O-])c1[O-] (cis-trans isomerization)
CC(/C=C\c1ccc(O)cc1)=C/Cc1c([O-])ccc([O-])c1[O-] (3D coordinates assigned)
CC(/C=C\c1ccc(O)cc1)=C/Cc1c([O-])ccc([O-])c1[O-] (optimized conformer: 46.82213595819447 kcal/mol)

>  <smiles>  (24) 
CC(C=Cc1ccc(O)cc1)=CCc1c(O)ccc(O)c1O

>  <score_type>  (24) 
oracle

>  <origin>  (24) 
adg

>  <m_score__min__energy>  (24) 
-15.789999999999999

>  <m_primary>  (24) 
energy

$$$$
24:0
     RDKit          3D

 39 41  0  0  0  0  0  0  0  0999 V2000
   58.4280   30.2330   47.3750 O   0  0  0  0  0  0  0  0  0  0  0  0
   58.9690   31.3410   47.6340 C   0  0  0  0  0  0  0  0  0  0  0  0
   59.7240   31.4690   48.8470 N   0  0  0  0  0  0  0  0  0  0  0  0
   59.2720   32.0950   50.0560 C   0  0  0  0  0  0  0  0  0  0  0  0
   57.9840   31.7960   50.5190 C   0  0  0  0  0  0  0  0  0  0  0  0
   57.4830   32.3960   51.6880 C   0  0  0  0  0  0  0  0  0  0  0  0
   56.1470   32.1340   52.1520 N   0  0  0  0  0  0  0  0  0  0  0  0
   55.5000   30.8540   52.0420 C   0  0  0  0  0  0  0  0  0  0  0  0
   56.1990   29.8100   51.9250 O   0  0  0  0  0  0  0  0  0  0  0  0
   54.0240   30.7400   52.1160 C   0  0  0  0  0  0  0  0  0  0  0  0
   53.4140   29.6060   52.6870 C   0  0  0  0  0  0  0  0  0  0  0  0
   52.0210   29.5110   52.7580 C   0  0  0  0  0  0  0  0  0  0  0  0
   51.2210   30.5450   52.2660 C   0  0  0  0  0  0  0  0  0  0  0  0
   51.8140   31.6800   51.7060 C   0  0  0  0  0  0  0  0  0  0  0  0
   51.0170   32.7100   51.2190 O   0  0  0  0  0  0  0  0  0  0  0  0
   53.2070   31.7790   51.6340 C   0  0  0  0  0  0  0  0  0  0  0  0
   58.2850   33.3120   52.3820 C   0  0  0  0  0  0  0  0  0  0  0  0
   59.5830   33.5860   51.9480 C   0  0  0  0  0  0  0  0  0  0  0  0
   60.0900   32.9760   50.7960 C   0  0  0  0  0  0  0  0  0  0  0  0
   61.7710   33.2730   50.3690 Cl  0  0  0  0  0  0  0  0  0  0  0  0
   58.7810   32.4740   46.6970 C   0  0  0  0  0  0  0  0  0  0  0  0
   59.4400   33.7010   46.9010 C   0  0  0  0  0  0  0  0  0  0  0  0
   59.2550   34.7600   46.0080 C   0  0  0  0  0  0  0  0  0  0  0  0
   58.4030   34.6110   44.9100 C   0  0  0  0  0  0  0  0  0  0  0  0
   57.7290   33.4040   44.7080 C   0  0  0  0  0  0  0  0  0  0  0  0
   57.9110   32.3420   45.6000 C   0  0  0  0  0  0  0  0  0  0  0  0
   57.3575   31.0839   49.9618 H   0  0  0  0  0  0  0  0  0  0  0  0
   55.6630   32.8840   52.6960 H   0  0  0  0  0  0  0  0  0  0  0  0
   54.0379   28.7896   53.0797 H   0  0  0  0  0  0  0  0  0  0  0  0
   51.5538   28.6198   53.2024 H   0  0  0  0  0  0  0  0  0  0  0  0
   50.1251   30.4660   52.3193 H   0  0  0  0  0  0  0  0  0  0  0  0
   53.6680   32.6770   51.1967 H   0  0  0  0  0  0  0  0  0  0  0  0
   57.8890   33.8184   53.2746 H   0  0  0  0  0  0  0  0  0  0  0  0
   60.2120   34.2870   52.5163 H   0  0  0  0  0  0  0  0  0  0  0  0
   60.1045   33.8271   47.7685 H   0  0  0  0  0  0  0  0  0  0  0  0
   59.7809   35.7126   46.1695 H   0  0  0  0  0  0  0  0  0  0  0  0
   58.2632   35.4438   44.2051 H   0  0  0  0  0  0  0  0  0  0  0  0
   57.0546   33.2887   43.8467 H   0  0  0  0  0  0  0  0  0  0  0  0
   57.3700   31.3973   45.4423 H   0  0  0  0  0  0  0  0  0  0  0  0
  1  2  2  0
  2  3  1  0
  3  4  1  0
  4  5  2  0
  5  6  1  0
  6  7  1  0
  7  8  1  0
  8  9  2  0
  8 10  1  0
 10 11  2  0
 11 12  1  0
 12 13  2  0
 13 14  1  0
 14 15  1  0
 14 16  2  0
  6 17  2  0
 17 18  1  0
 18 19  2  0
 19 20  1  0
  2 21  1  0
 21 22  2  0
 22 23  1  0
 23 24  2  0
 24 25  1  0
 25 26  2  0
 19  4  1  0
 26 21  1  0
 16 10  1  0
  5 27  1  0
  7 28  1  0
 11 29  1  0
 12 30  1  0
 13 31  1  0
 16 32  1  0
 17 33  1  0
 18 34  1  0
 22 35  1  0
 23 36  1  0
 24 37  1  0
 25 38  1  0
 26 39  1  0
M  CHG  2   3  -1  15  -1
M  END
>  <UniqueID>  (25) 
24

>  <SMILES>  (25) 
O=C([N-]c1cc(NC(=O)c2cccc([O-])c2)ccc1Cl)c1ccccc1

>  <Energy>  (25) 
57.631829798404944

>  <Genealogy>  (25) 
O=C([N-]c1cc(NC(=O)c2cccc([O-])c2)ccc1Cl)c1ccccc1 (protonated)
O=C([N-]c1cc(NC(=O)c2cccc([O-])c2)ccc1Cl)c1ccccc1 (3D coordinates assigned)
O=C([N-]c1cc(NC(=O)c2cccc([O-])c2)ccc1Cl)c1ccccc1 (optimized conformer: 57.631829798404944 kcal/mol)

>  <smiles>  (25) 
O=C(Nc1ccc(Cl)c(NC(=O)c2ccccc2)c1)c1cccc(O)c1

>  <score_type>  (25) 
oracle

>  <origin>  (25) 
adg

>  <m_score__min__energy>  (25) 
-13.68

>  <m_primary>  (25) 
energy

$$$$
25:0
     RDKit          3D

 60 63  0  0  0  0  0  0  0  0999 V2000
   58.1770   31.7740   54.1910 C   0  0  0  0  0  0  0  0  0  0  0  0
   59.1920   32.2630   53.4710 C   0  0  0  0  0  0  0  0  0  0  0  0
   60.1060   31.4050   52.6230 C   0  0  0  0  0  0  0  0  0  0  0  0
   59.4890   30.9280   51.2640 C   0  0  1  0  0  0  0  0  0  0  0  0
   58.6200   29.7140   51.6200 C   0  0  0  0  0  0  0  0  0  0  0  0
   57.3980   29.7050   51.3150 O   0  0  0  0  0  0  0  0  0  0  0  0
   59.1980   28.5620   52.1570 O   0  0  0  0  0  0  0  0  0  0  0  0
   59.0610   28.2090   53.5280 C   0  0  0  0  0  0  0  0  0  0  0  0
   58.6130   32.0600   50.6810 C   0  0  0  0  0  0  0  0  0  0  0  0
   59.3550   33.3690   50.5330 C   0  0  0  0  0  0  0  0  0  0  0  0
   58.8850   34.3860   51.1110 O   0  0  0  0  0  0  0  0  0  0  0  0
   60.5030   33.5170   49.6680 N   0  0  0  0  0  0  0  0  0  0  0  0
   60.3900   34.5940   48.6620 C   0  0  0  0  0  0  0  0  0  0  0  0
   59.6090   34.1290   47.4640 C   0  0  0  0  0  0  0  0  0  0  0  0
   58.4250   33.3940   47.6470 C   0  0  0  0  0  0  0  0  0  0  0  0
   57.6660   32.9950   46.5440 C   0  0  0  0  0  0  0  0  0  0  0  0
   58.0820   33.3200   45.2500 C   0  0  0  0  0  0  0  0  0  0  0  0
   57.3380   32.9380   44.1810 F   0  0  0  0  0  0  0  0  0  0  0  0
   59.2690   34.0330   45.0580 C   0  0  0  0  0  0  0  0  0  0  0  0
   60.0320   34.4360   46.1590 C   0  0  0  0  0  0  0  0  0  0  0  0
   61.7410   32.7540   49.8740 C   0  0  0  0  0  0  0  0  0  0  0  0
   63.0100   33.3850   49.7850 C   0  0  0  0  0  0  0  0  0  0  0  0
   64.1920   32.6840   50.0290 C   0  0  0  0  0  0  0  0  0  0  0  0
   64.1530   31.3360   50.3700 C   0  0  0  0  0  0  0  0  0  0  0  0
   62.9310   30.6790   50.4620 C   0  0  0  0  0  0  0  0  0  0  0  0
   61.7300   31.3620   50.2090 C   0  0  0  0  0  0  0  0  0  0  0  0
   60.5100   30.5950   50.2240 N   0  0  0  0  0  0  0  0  0  0  0  0
   60.5260   29.3230   49.5060 C   0  0  0  0  0  0  0  0  0  0  0  0
   61.1280   28.3180   49.9760 O   0  0  0  0  0  0  0  0  0  0  0  0
   59.8060   29.1410   48.2230 C   0  0  0  0  0  0  0  0  0  0  0  0
   59.1390   27.9380   47.9310 C   0  0  0  0  0  0  0  0  0  0  0  0
   58.4500   27.7870   46.7220 C   0  0  0  0  0  0  0  0  0  0  0  0
   58.4190   28.8370   45.7990 C   0  0  0  0  0  0  0  0  0  0  0  0
   57.7510   28.6900   44.6280 F   0  0  0  0  0  0  0  0  0  0  0  0
   59.0710   30.0410   46.0870 C   0  0  0  0  0  0  0  0  0  0  0  0
   59.7550   30.1970   47.2980 C   0  0  0  0  0  0  0  0  0  0  0  0
   57.5489   32.4521   54.7874 H   0  0  0  0  0  0  0  0  0  0  0  0
   57.9701   30.6936   54.1870 H   0  0  0  0  0  0  0  0  0  0  0  0
   59.3726   33.3478   53.4964 H   0  0  0  0  0  0  0  0  0  0  0  0
   61.0126   31.9871   52.4011 H   0  0  0  0  0  0  0  0  0  0  0  0
   60.3054   30.4949   53.2078 H   0  0  0  0  0  0  0  0  0  0  0  0
   59.3874   29.0499   54.1575 H   0  0  0  0  0  0  0  0  0  0  0  0
   58.0075   27.9770   53.7434 H   0  0  0  0  0  0  0  0  0  0  0  0
   59.6821   27.3271   53.7434 H   0  0  0  0  0  0  0  0  0  0  0  0
   58.2524   31.7482   49.6897 H   0  0  0  0  0  0  0  0  0  0  0  0
   57.7858   32.2302   51.3859 H   0  0  0  0  0  0  0  0  0  0  0  0
   59.8776   35.4563   49.1135 H   0  0  0  0  0  0  0  0  0  0  0  0
   61.4013   34.8766   48.3344 H   0  0  0  0  0  0  0  0  0  0  0  0
   58.0946   33.1318   48.6629 H   0  0  0  0  0  0  0  0  0  0  0  0
   56.7383   32.4234   46.6945 H   0  0  0  0  0  0  0  0  0  0  0  0
   59.6037   34.2776   44.0391 H   0  0  0  0  0  0  0  0  0  0  0  0
   60.9664   34.9951   46.0031 H   0  0  0  0  0  0  0  0  0  0  0  0
   63.0627   34.4507   49.5176 H   0  0  0  0  0  0  0  0  0  0  0  0
   65.1601   33.2005   49.9512 H   0  0  0  0  0  0  0  0  0  0  0  0
   65.0877   30.7904   50.5666 H   0  0  0  0  0  0  0  0  0  0  0  0
   62.9046   29.6139   50.7356 H   0  0  0  0  0  0  0  0  0  0  0  0
   59.1588   27.1114   48.6564 H   0  0  0  0  0  0  0  0  0  0  0  0
   57.9329   26.8423   46.4979 H   0  0  0  0  0  0  0  0  0  0  0  0
   59.0459   30.8664   45.3603 H   0  0  0  0  0  0  0  0  0  0  0  0
   60.2545   31.1501   47.5263 H   0  0  0  0  0  0  0  0  0  0  0  0
  1  2  2  0
  2  3  1  0
  4  3  1  1
  4  5  1  0
  5  6  2  0
  5  7  1  0
  7  8  1  0
  4  9  1  0
  9 10  1  0
 10 11  2  0
 10 12  1  0
 12 13  1  0
 13 14  1  0
 14 15  2  0
 15 16  1  0
 16 17  2  0
 17 18  1  0
 17 19  1  0
 19 20  2  0
 12 21  1  0
 21 22  2  0
 22 23  1  0
 23 24  2  0
 24 25  1  0
 25 26  2  0
 26 27  1  0
 27 28  1  0
 28 29  2  0
 28 30  1  0
 30 31  2  0
 31 32  1  0
 32 33  2  0
 33 34  1  0
 33 35  1  0
 35 36  2  0
 27  4  1  0
 36 30  1  0
 20 14  1  0
 26 21  1  0
  1 37  1  0
  1 38  1  0
  2 39  1  0
  3 40  1  0
  3 41  1  0
  8 42  1  0
  8 43  1  0
  8 44  1  0
  9 45  1  0
  9 46  1  0
 13 47  1  0
 13 48  1  0
 15 49  1  0
 16 50  1  0
 19 51  1  0
 20 52  1  0
 22 53  1  0
 23 54  1  0
 24 55  1  0
 25 56  1  0
 31 57  1  0
 32 58  1  0
 35 59  1  0
 36 60  1  0
M  END
>  <UniqueID>  (26) 
25

>  <SMILES>  (26) 
C=CC[C@@]1(C(=O)OC)CC(=O)N(Cc2ccc(F)cc2)c2ccccc2N1C(=O)c1ccc(F)cc1

>  <Energy>  (26) 
96.92203249496852

>  <Genealogy>  (26) 
C=CC[C@@]1(C(=O)OC)CC(=O)N(Cc2ccc(F)cc2)c2ccccc2N1C(=O)c1ccc(F)cc1 (chirality)
C=CC[C@@]1(C(=O)OC)CC(=O)N(Cc2ccc(F)cc2)c2ccccc2N1C(=O)c1ccc(F)cc1 (3D coordinates assigned)
C=CC[C@@]1(C(=O)OC)CC(=O)N(Cc2ccc(F)cc2)c2ccccc2N1C(=O)c1ccc(F)cc1 (nonaromatic ring conformer: 96.92203249496852 kcal/mol)

>  <smiles>  (26) 
C=CCC1(C(=O)OC)CC(=O)N(Cc2ccc(F)cc2)c2ccccc2N1C(=O)c1ccc(F)cc1

>  <score_type>  (26) 
oracle

>  <origin>  (26) 
adg

>  <m_score__min__energy>  (26) 
-6.0199999999999996

>  <m_primary>  (26) 
energy

$$$$
26:0
     RDKit          3D

 51 54  0  0  0  0  0  0  0  0999 V2000
   59.7040   33.3040   50.6070 C   0  0  0  0  0  0  0  0  0  0  0  0
   60.6330   34.2420   50.0760 O   0  0  0  0  0  0  0  0  0  0  0  0
   61.4840   33.9940   48.9870 C   0  0  0  0  0  0  0  0  0  0  0  0
   62.8810   34.1580   49.0870 C   0  0  0  0  0  0  0  0  0  0  0  0
   63.7100   33.8390   48.0090 C   0  0  0  0  0  0  0  0  0  0  0  0
   63.1610   33.3480   46.8250 C   0  0  0  0  0  0  0  0  0  0  0  0
   61.7790   33.1890   46.7100 C   0  0  0  0  0  0  0  0  0  0  0  0
   60.9310   33.5370   47.7690 C   0  0  0  0  0  0  0  0  0  0  0  0
   59.5190   33.3540   47.6000 N   0  0  0  0  0  0  0  0  0  0  0  0
   58.8700   33.0330   46.3660 C   0  0  0  0  0  0  0  0  0  0  0  0
   59.2260   33.5920   45.2930 O   0  0  0  0  0  0  0  0  0  0  0  0
   57.8060   32.0740   46.3710 N   0  0  0  0  0  0  0  0  0  0  0  0
   57.7440   30.8590   45.6080 C   0  0  0  0  0  0  0  0  0  0  0  0
   57.8570   29.5990   46.2240 C   0  0  0  0  0  0  0  0  0  0  0  0
   57.7630   28.4190   45.4680 C   0  0  0  0  0  0  0  0  0  0  0  0
   57.9030   27.0720   46.1360 C   0  0  0  0  0  0  0  0  0  0  0  0
   56.7340   26.1760   45.8160 C   0  0  0  0  0  0  0  0  0  0  0  0
   55.4800   26.6570   46.0290 N   0  0  0  0  0  0  0  0  0  0  0  0
   54.3910   25.9400   45.7600 N   0  0  0  0  0  0  0  0  0  0  0  0
   54.4720   24.6890   45.2470 C   0  0  0  0  0  0  0  0  0  0  0  0
   53.4140   24.0430   45.0190 O   0  0  0  0  0  0  0  0  0  0  0  0
   55.7300   24.1290   44.9770 C   0  0  0  0  0  0  0  0  0  0  0  0
   56.8860   24.8750   45.2850 C   0  0  0  0  0  0  0  0  0  0  0  0
   58.1850   24.3090   45.0260 N   0  0  0  0  0  0  0  0  0  0  0  0
   58.3380   22.9040   44.6600 C   0  0  0  0  0  0  0  0  0  0  0  0
   57.1930   22.4770   43.7440 C   0  0  0  0  0  0  0  0  0  0  0  0
   55.8450   22.7200   44.4340 C   0  0  0  0  0  0  0  0  0  0  0  0
   57.5660   28.5070   44.0820 C   0  0  0  0  0  0  0  0  0  0  0  0
   57.4270   29.7520   43.4680 C   0  0  0  0  0  0  0  0  0  0  0  0
   57.5050   30.9280   44.2220 C   0  0  0  0  0  0  0  0  0  0  0  0
   57.3520   32.1520   43.5710 O   0  0  0  0  0  0  0  0  0  0  0  0
   59.7369   33.3373   51.7060 H   0  0  0  0  0  0  0  0  0  0  0  0
   58.6903   33.5568   50.2627 H   0  0  0  0  0  0  0  0  0  0  0  0
   59.9666   32.2928   50.2627 H   0  0  0  0  0  0  0  0  0  0  0  0
   63.3208   34.5397   50.0202 H   0  0  0  0  0  0  0  0  0  0  0  0
   64.7982   33.9754   48.0943 H   0  0  0  0  0  0  0  0  0  0  0  0
   63.8169   33.0860   45.9817 H   0  0  0  0  0  0  0  0  0  0  0  0
   61.3521   32.7868   45.7794 H   0  0  0  0  0  0  0  0  0  0  0  0
   58.0208   29.5374   47.3100 H   0  0  0  0  0  0  0  0  0  0  0  0
   58.8284   26.5925   45.7844 H   0  0  0  0  0  0  0  0  0  0  0  0
   57.9332   27.2266   47.2247 H   0  0  0  0  0  0  0  0  0  0  0  0
   59.0480   24.8890   45.0790 H   0  0  0  0  0  0  0  0  0  0  0  0
   59.2952   22.7659   44.1358 H   0  0  0  0  0  0  0  0  0  0  0  0
   58.3208   22.2887   45.5716 H   0  0  0  0  0  0  0  0  0  0  0  0
   57.2352   23.0611   42.8129 H   0  0  0  0  0  0  0  0  0  0  0  0
   57.2934   21.4049   43.5192 H   0  0  0  0  0  0  0  0  0  0  0  0
   55.0381   22.5536   43.7051 H   0  0  0  0  0  0  0  0  0  0  0  0
   55.7670   22.0226   45.2811 H   0  0  0  0  0  0  0  0  0  0  0  0
   57.5209   27.5899   43.4763 H   0  0  0  0  0  0  0  0  0  0  0  0
   57.2548   29.8095   42.3831 H   0  0  0  0  0  0  0  0  0  0  0  0
   57.5720   33.0350   44.0160 H   0  0  0  0  0  0  0  0  0  0  0  0
  1  2  1  0
  2  3  1  0
  3  4  2  0
  4  5  1  0
  5  6  2  0
  6  7  1  0
  7  8  2  0
  8  9  1  0
  9 10  1  0
 10 11  2  0
 10 12  1  0
 12 13  1  0
 13 14  2  0
 14 15  1  0
 15 16  1  0
 16 17  1  0
 17 18  2  0
 18 19  1  0
 19 20  1  0
 20 21  2  0
 20 22  1  0
 22 23  2  0
 23 24  1  0
 24 25  1  0
 25 26  1  0
 26 27  1  0
 15 28  2  0
 28 29  1  0
 29 30  2  0
 30 31  1  0
  8  3  1  0
 30 13  1  0
 23 17  1  0
 27 22  1  0
  1 32  1  0
  1 33  1  0
  1 34  1  0
  4 35  1  0
  5 36  1  0
  6 37  1  0
  7 38  1  0
 14 39  1  0
 16 40  1  0
 16 41  1  0
 24 42  1  0
 25 43  1  0
 25 44  1  0
 26 45  1  0
 26 46  1  0
 27 47  1  0
 27 48  1  0
 28 49  1  0
 29 50  1  0
 31 51  1  0
M  CHG  3   9  -1  12  -1  19  -1
M  END
>  <UniqueID>  (27) 
26

>  <SMILES>  (27) 
COc1ccccc1[N-]C(=O)[N-]c1cc(Cc2n[n-]c(=O)c3c2NCCC3)ccc1O

>  <Energy>  (27) 
64.88251649314395

>  <Genealogy>  (27) 
COc1ccccc1[N-]C(=O)[N-]c1cc(Cc2n[n-]c(=O)c3c2NCCC3)ccc1O (protonated)
COc1ccccc1[N-]C(=O)[N-]c1cc(Cc2n[n-]c(=O)c3c2NCCC3)ccc1O (3D coordinates assigned)
COc1ccccc1[N-]C(=O)[N-]c1cc(Cc2n[n-]c(=O)c3c2NCCC3)ccc1O (nonaromatic ring conformer: 64.88251649314395 kcal/mol)

>  <smiles>  (27) 
COc1ccccc1NC(=O)Nc1cc(Cc2n[nH]c(=O)c3c2NCCC3)ccc1O

>  <score_type>  (27) 
oracle

>  <origin>  (27) 
adg

>  <m_score__min__energy>  (27) 
-13.15

>  <m_primary>  (27) 
energy

$$$$
27:0
     RDKit          3D

 33 35  0  0  0  0  0  0  0  0999 V2000
   62.0720   33.2130   47.5620 C   0  0  0  0  0  0  0  0  0  0  0  0
   61.2050   32.2530   48.2350 N   0  0  0  0  0  0  0  0  0  0  0  0
   59.5840   32.8730   48.3160 S   0  0  0  0  0  0  0  0  0  0  0  0
   58.7810   31.9900   49.2280 O   0  0  0  0  0  0  0  0  0  0  0  0
   59.5960   34.2540   48.9090 O   0  0  0  0  0  0  0  0  0  0  0  0
   58.8380   32.8370   46.7040 C   0  0  0  0  0  0  0  0  0  0  0  0
   58.1540   31.6650   46.3440 C   0  0  0  0  0  0  0  0  0  0  0  0
   57.5250   31.5490   45.0930 C   0  0  0  0  0  0  0  0  0  0  0  0
   56.8410   30.3480   44.6940 N   0  0  0  0  0  0  0  0  0  0  0  0
   56.9230   29.1790   45.2610 C   0  0  0  0  0  0  0  0  0  0  0  0
   58.1110   28.8010   45.8350 N   0  0  0  0  0  0  0  0  0  0  0  0
   58.2630   27.5770   46.4230 C   0  0  0  0  0  0  0  0  0  0  0  0
   59.3590   27.2490   46.9490 O   0  0  0  0  0  0  0  0  0  0  0  0
   57.1740   26.7200   46.4170 C   0  0  0  0  0  0  0  0  0  0  0  0
   56.9250   25.4540   46.8790 C   0  0  0  0  0  0  0  0  0  0  0  0
   57.8180   24.6310   47.5520 O   0  0  0  0  0  0  0  0  0  0  0  0
   55.6510   25.1130   46.5750 N   0  0  0  0  0  0  0  0  0  0  0  0
   55.0820   26.1300   45.9300 N   0  0  0  0  0  0  0  0  0  0  0  0
   56.0090   27.1000   45.8380 C   0  0  0  0  0  0  0  0  0  0  0  0
   55.8590   28.3120   45.2540 N   0  0  0  0  0  0  0  0  0  0  0  0
   57.6360   32.5930   44.1740 C   0  0  0  0  0  0  0  0  0  0  0  0
   58.3200   33.7610   44.5100 C   0  0  0  0  0  0  0  0  0  0  0  0
   58.9310   33.9020   45.7680 C   0  0  0  0  0  0  0  0  0  0  0  0
   59.6490   35.1880   46.0750 C   0  0  0  0  0  0  0  0  0  0  0  0
   62.6108   33.8096   48.3128 H   0  0  0  0  0  0  0  0  0  0  0  0
   62.7962   32.6748   46.9328 H   0  0  0  0  0  0  0  0  0  0  0  0
   61.4631   33.8788   46.9328 H   0  0  0  0  0  0  0  0  0  0  0  0
   58.1098   30.8246   47.0523 H   0  0  0  0  0  0  0  0  0  0  0  0
   57.1808   32.4941   43.1775 H   0  0  0  0  0  0  0  0  0  0  0  0
   58.3821   34.5825   43.7811 H   0  0  0  0  0  0  0  0  0  0  0  0
   59.7208   35.3166   47.1651 H   0  0  0  0  0  0  0  0  0  0  0  0
   60.6598   35.1560   45.6422 H   0  0  0  0  0  0  0  0  0  0  0  0
   59.0914   36.0316   45.6422 H   0  0  0  0  0  0  0  0  0  0  0  0
  1  2  1  0
  2  3  1  0
  3  4  2  0
  3  5  2  0
  3  6  1  0
  6  7  2  0
  7  8  1  0
  8  9  1  0
  9 10  2  3
 10 11  1  0
 11 12  1  0
 12 13  2  0
 12 14  1  0
 14 15  1  0
 15 16  1  0
 15 17  2  0
 17 18  1  0
 18 19  1  0
 19 20  1  0
  8 21  2  0
 21 22  1  0
 22 23  2  0
 23 24  1  0
 23  6  1  0
 20 10  1  0
 19 14  2  0
  1 25  1  0
  1 26  1  0
  1 27  1  0
  7 28  1  0
 21 29  1  0
 22 30  1  0
 24 31  1  0
 24 32  1  0
 24 33  1  0
M  CHG  5   2  -1  11  -1  16  -1  18  -1  20  -1
M  END
>  <UniqueID>  (28) 
27

>  <SMILES>  (28) 
C[N-]S(=O)(=O)c1cc(N=c2[n-]c(=O)c3c([O-])n[n-]c3[n-]2)ccc1C

>  <Energy>  (28) 
86.09795662732785

>  <Genealogy>  (28) 
C[N-]S(=O)(=O)c1cc(N=c2[n-]c(=O)c3c([O-])n[n-]c3[n-]2)ccc1C (protonated)
C[N-]S(=O)(=O)c1cc(N=c2[n-]c(=O)c3c([O-])n[n-]c3[n-]2)ccc1C (3D coordinates assigned)
C[N-]S(=O)(=O)c1cc(N=c2[n-]c(=O)c3c([O-])n[n-]c3[n-]2)ccc1C (optimized conformer: 86.09795662732785 kcal/mol)

>  <smiles>  (28) 
CNS(=O)(=O)c1cc(N=c2[nH]c(=O)c3c(O)n[nH]c3[nH]2)ccc1C

>  <score_type>  (28) 
oracle

>  <origin>  (28) 
adg

>  <m_score__min__energy>  (28) 
-16.559999999999999

>  <m_primary>  (28) 
energy

$$$$
28:0
     RDKit          3D

 47 49  0  0  0  0  0  0  0  0999 V2000
   52.7650   23.6980   45.9030 C   0  0  0  0  0  0  0  0  0  0  0  0
   53.4100   23.0570   44.8060 O   0  0  0  0  0  0  0  0  0  0  0  0
   54.8010   22.9550   44.6500 C   0  0  0  0  0  0  0  0  0  0  0  0
   55.5050   23.7370   43.7110 C   0  0  0  0  0  0  0  0  0  0  0  0
   56.8810   23.5660   43.5390 C   0  0  0  0  0  0  0  0  0  0  0  0
   57.5670   22.6120   44.2900 C   0  0  0  0  0  0  0  0  0  0  0  0
   56.8820   21.8370   45.2290 C   0  0  0  0  0  0  0  0  0  0  0  0
   55.5090   22.0240   45.4350 C   0  0  0  0  0  0  0  0  0  0  0  0
   54.8390   21.2080   46.4040 N   0  0  0  0  0  0  0  0  0  0  0  0
   54.9410   21.3510   47.8280 C   0  0  0  0  0  0  0  0  0  0  0  0
   54.8730   20.3170   48.5430 O   0  0  0  0  0  0  0  0  0  0  0  0
   55.2320   22.6760   48.4780 C   0  0  0  0  0  0  0  0  0  0  0  0
   57.0240   23.0370   48.4730 S   0  0  0  0  0  0  0  0  0  0  0  0
   56.8830   24.5790   47.5730 C   0  0  0  0  0  0  0  0  0  0  0  0
   57.9390   25.4300   47.5130 N   0  0  0  0  0  0  0  0  0  0  0  0
   57.8500   26.6110   46.8490 C   0  0  0  0  0  0  0  0  0  0  0  0
   58.8490   27.3760   46.8060 O   0  0  0  0  0  0  0  0  0  0  0  0
   56.6500   26.9770   46.2270 C   0  0  0  0  0  0  0  0  0  0  0  0
   56.5650   28.2280   45.5250 N   0  0  0  0  0  0  0  0  0  0  0  0
   57.5990   28.8240   44.7300 C   0  0  0  0  0  0  0  0  0  0  0  0
   58.3060   28.0770   44.0020 O   0  0  0  0  0  0  0  0  0  0  0  0
   57.8890   30.2780   44.7780 C   0  0  0  0  0  0  0  0  0  0  0  0
   57.5520   31.0990   43.6900 C   0  0  0  0  0  0  0  0  0  0  0  0
   57.8230   32.4710   43.7250 C   0  0  0  0  0  0  0  0  0  0  0  0
   58.4320   33.0420   44.8510 C   0  0  0  0  0  0  0  0  0  0  0  0
   58.7570   34.5060   44.8730 C   0  0  0  0  0  0  0  0  0  0  0  0
   58.8040   32.2200   45.9240 C   0  0  0  0  0  0  0  0  0  0  0  0
   58.5340   30.8490   45.8890 C   0  0  0  0  0  0  0  0  0  0  0  0
   55.5780   26.0670   46.2790 C   0  0  0  0  0  0  0  0  0  0  0  0
   54.3830   26.3280   45.6190 O   0  0  0  0  0  0  0  0  0  0  0  0
   55.7160   24.9000   46.9580 N   0  0  0  0  0  0  0  0  0  0  0  0
   53.1654   23.3001   46.8471 H   0  0  0  0  0  0  0  0  0  0  0  0
   52.9490   24.7814   45.8544 H   0  0  0  0  0  0  0  0  0  0  0  0
   51.6827   23.5073   45.8544 H   0  0  0  0  0  0  0  0  0  0  0  0
   54.9677   24.4859   43.1106 H   0  0  0  0  0  0  0  0  0  0  0  0
   57.4242   24.1851   42.8098 H   0  0  0  0  0  0  0  0  0  0  0  0
   58.6478   22.4697   44.1430 H   0  0  0  0  0  0  0  0  0  0  0  0
   57.4236   21.0758   45.8097 H   0  0  0  0  0  0  0  0  0  0  0  0
   54.7049   23.4690   47.9273 H   0  0  0  0  0  0  0  0  0  0  0  0
   54.8886   22.6341   49.5222 H   0  0  0  0  0  0  0  0  0  0  0  0
   57.0712   30.6601   42.8033 H   0  0  0  0  0  0  0  0  0  0  0  0
   57.5572   33.1041   42.8656 H   0  0  0  0  0  0  0  0  0  0  0  0
   58.8332   34.8491   45.9154 H   0  0  0  0  0  0  0  0  0  0  0  0
   59.7149   34.6767   44.3599 H   0  0  0  0  0  0  0  0  0  0  0  0
   57.9613   35.0660   44.3599 H   0  0  0  0  0  0  0  0  0  0  0  0
   59.3107   32.6560   46.7976 H   0  0  0  0  0  0  0  0  0  0  0  0
   58.8282   30.2125   46.7365 H   0  0  0  0  0  0  0  0  0  0  0  0
  1  2  1  0
  2  3  1  0
  3  4  2  0
  4  5  1  0
  5  6  2  0
  6  7  1  0
  7  8  2  0
  8  9  1  0
  9 10  1  0
 10 11  2  0
 10 12  1  0
 12 13  1  0
 13 14  1  0
 14 15  2  0
 15 16  1  0
 16 17  2  0
 16 18  1  0
 18 19  1  0
 19 20  1  0
 20 21  2  0
 20 22  1  0
 22 23  2  0
 23 24  1  0
 24 25  2  0
 25 26  1  0
 25 27  1  0
 27 28  2  0
 18 29  2  0
 29 30  1  0
 29 31  1  0
  8  3  1  0
 31 14  1  0
 28 22  1  0
  1 32  1  0
  1 33  1  0
  1 34  1  0
  4 35  1  0
  5 36  1  0
  6 37  1  0
  7 38  1  0
 12 39  1  0
 12 40  1  0
 23 41  1  0
 24 42  1  0
 26 43  1  0
 26 44  1  0
 26 45  1  0
 27 46  1  0
 28 47  1  0
M  CHG  4   9  -1  19  -1  30  -1  31  -1
M  END
>  <UniqueID>  (29) 
28

>  <SMILES>  (29) 
COc1ccccc1[N-]C(=O)CSc1nc(=O)c([N-]C(=O)c2ccc(C)cc2)c([O-])[n-]1

>  <Energy>  (29) 
61.368381737980535

>  <Genealogy>  (29) 
COc1ccccc1[N-]C(=O)CSc1nc(=O)c([N-]C(=O)c2ccc(C)cc2)c([O-])[n-]1 (protonated)
COc1ccccc1[N-]C(=O)CSc1nc(=O)c([N-]C(=O)c2ccc(C)cc2)c([O-])[n-]1 (3D coordinates assigned)
COc1ccccc1[N-]C(=O)CSc1nc(=O)c([N-]C(=O)c2ccc(C)cc2)c([O-])[n-]1 (optimized conformer: 61.368381737980535 kcal/mol)

>  <smiles>  (29) 
COc1ccccc1NC(=O)CSc1nc(=O)c(NC(=O)c2ccc(C)cc2)c(O)[nH]1

>  <score_type>  (29) 
oracle

>  <origin>  (29) 
adg

>  <m_score__min__energy>  (29) 
-16.309999999999999

>  <m_primary>  (29) 
energy

$$$$
29:0
     RDKit          3D

 36 37  0  0  0  0  0  0  0  0999 V2000
   60.5380   32.0440   46.7690 C   0  0  0  0  0  0  0  0  0  0  0  0
   60.0180   33.4150   46.6410 N   0  0  0  0  0  0  0  0  0  0  0  0
   60.4290   34.2080   47.8130 C   0  0  0  0  0  0  0  0  0  0  0  0
   58.5460   33.3840   46.5150 C   0  0  0  0  0  0  0  0  0  0  0  0
   58.1330   32.7390   45.2170 C   0  0  0  0  0  0  0  0  0  0  0  0
   58.5190   33.3090   43.9960 C   0  0  0  0  0  0  0  0  0  0  0  0
   58.1240   32.7260   42.7900 C   0  0  0  0  0  0  0  0  0  0  0  0
   57.3290   31.5760   42.7940 C   0  0  0  0  0  0  0  0  0  0  0  0
   56.9130   31.0050   44.0080 C   0  0  0  0  0  0  0  0  0  0  0  0
   56.0610   29.7910   44.0050 C   0  0  0  0  0  0  0  0  0  0  0  0
   55.5130   29.4230   42.9320 O   0  0  0  0  0  0  0  0  0  0  0  0
   55.8840   28.9850   45.1780 N   0  0  0  0  0  0  0  0  0  0  0  0
   56.7360   27.9080   45.5970 C   0  0  0  0  0  0  0  0  0  0  0  0
   58.1350   28.0540   45.6410 C   0  0  0  0  0  0  0  0  0  0  0  0
   58.9410   26.9930   46.0630 C   0  0  0  0  0  0  0  0  0  0  0  0
   58.3600   25.7840   46.4530 C   0  0  0  0  0  0  0  0  0  0  0  0
   56.9700   25.6390   46.4320 C   0  0  0  0  0  0  0  0  0  0  0  0
   56.1590   26.6980   46.0120 C   0  0  0  0  0  0  0  0  0  0  0  0
   54.7770   26.5420   46.0010 O   0  0  0  0  0  0  0  0  0  0  0  0
   57.3330   31.5850   45.2170 C   0  0  0  0  0  0  0  0  0  0  0  0
   60.6356   31.7868   47.8341 H   0  0  0  0  0  0  0  0  0  0  0  0
   59.8438   31.3418   46.2843 H   0  0  0  0  0  0  0  0  0  0  0  0
   61.5233   31.9788   46.2843 H   0  0  0  0  0  0  0  0  0  0  0  0
   60.1517   33.6730   48.7333 H   0  0  0  0  0  0  0  0  0  0  0  0
   61.5185   34.3582   47.7903 H   0  0  0  0  0  0  0  0  0  0  0  0
   59.9236   35.1848   47.7903 H   0  0  0  0  0  0  0  0  0  0  0  0
   58.1244   32.8097   47.3531 H   0  0  0  0  0  0  0  0  0  0  0  0
   58.1691   34.4173   46.5306 H   0  0  0  0  0  0  0  0  0  0  0  0
   59.1359   34.2197   43.9877 H   0  0  0  0  0  0  0  0  0  0  0  0
   58.4389   33.1724   41.8353 H   0  0  0  0  0  0  0  0  0  0  0  0
   57.0277   31.1159   41.8414 H   0  0  0  0  0  0  0  0  0  0  0  0
   58.5960   29.0070   45.3421 H   0  0  0  0  0  0  0  0  0  0  0  0
   60.0345   27.1102   46.0881 H   0  0  0  0  0  0  0  0  0  0  0  0
   58.9959   24.9467   46.7764 H   0  0  0  0  0  0  0  0  0  0  0  0
   56.5128   24.6893   46.7467 H   0  0  0  0  0  0  0  0  0  0  0  0
   57.0322   31.1307   46.1726 H   0  0  0  0  0  0  0  0  0  0  0  0
  1  2  1  0
  2  3  1  0
  2  4  1  0
  4  5  1  0
  5  6  2  0
  6  7  1  0
  7  8  2  0
  8  9  1  0
  9 10  1  0
 10 11  2  0
 10 12  1  0
 12 13  1  0
 13 14  2  0
 14 15  1  0
 15 16  2  0
 16 17  1  0
 17 18  2  0
 18 19  1  0
  9 20  2  0
 20  5  1  0
 18 13  1  0
  1 21  1  0
  1 22  1  0
  1 23  1  0
  3 24  1  0
  3 25  1  0
  3 26  1  0
  4 27  1  0
  4 28  1  0
  6 29  1  0
  7 30  1  0
  8 31  1  0
 14 32  1  0
 15 33  1  0
 16 34  1  0
 17 35  1  0
 20 36  1  0
M  CHG  2  12  -1  19  -1
M  END
>  <UniqueID>  (30) 
29

>  <SMILES>  (30) 
CN(C)Cc1cccc(C(=O)[N-]c2ccccc2[O-])c1

>  <Energy>  (30) 
41.590039101620626

>  <Genealogy>  (30) 
CN(C)Cc1cccc(C(=O)[N-]c2ccccc2[O-])c1 (protonated)
CN(C)Cc1cccc(C(=O)[N-]c2ccccc2[O-])c1 (3D coordinates assigned)
CN(C)Cc1cccc(C(=O)[N-]c2ccccc2[O-])c1 (optimized conformer: 41.590039101620626 kcal/mol)

>  <smiles>  (30) 
CN(C)Cc1cccc(C(=O)Nc2ccccc2O)c1

>  <score_type>  (30) 
oracle

>  <origin>  (30) 
adg

>  <m_score__min__energy>  (30) 
-13.380000000000001

>  <m_primary>  (30) 
energy

$$$$
30:0
     RDKit          3D

 35 37  0  0  0  0  0  0  0  0999 V2000
   68.1320   33.6400   51.6700 C   0  0  0  0  0  0  0  0  0  0  0  0
   66.7960   33.0310   51.3740 C   0  0  0  0  0  0  0  0  0  0  0  0
   66.3880   32.0800   52.0920 O   0  0  0  0  0  0  0  0  0  0  0  0
   65.9250   33.5590   50.3640 N   0  0  0  0  0  0  0  0  0  0  0  0
   64.9000   32.9670   49.8240 C   0  0  0  0  0  0  0  0  0  0  0  0
   64.2020   31.9460   50.3890 N   0  0  0  0  0  0  0  0  0  0  0  0
   63.1620   31.5670   49.6030 C   0  0  0  0  0  0  0  0  0  0  0  0
   62.2570   30.5510   49.9140 C   0  0  0  0  0  0  0  0  0  0  0  0
   61.2180   30.2700   49.0110 C   0  0  0  0  0  0  0  0  0  0  0  0
   61.0810   31.0050   47.8050 C   0  0  0  0  0  0  0  0  0  0  0  0
   59.9770   30.7010   46.8600 C   0  0  0  0  0  0  0  0  0  0  0  0
   59.8200   29.4040   46.3380 C   0  0  0  0  0  0  0  0  0  0  0  0
   58.7800   29.1190   45.4490 C   0  0  0  0  0  0  0  0  0  0  0  0
   57.8850   30.1240   45.0630 C   0  0  0  0  0  0  0  0  0  0  0  0
   56.5670   29.7620   43.9540 S   0  0  0  0  0  0  0  0  0  0  0  0
   55.1540   29.3400   44.8550 N   0  0  0  0  0  0  0  0  0  0  0  0
   56.2770   30.9630   43.0980 O   0  0  0  0  0  0  0  0  0  0  0  0
   56.9500   28.6150   43.0610 O   0  0  0  0  0  0  0  0  0  0  0  0
   58.0310   31.4160   45.5840 C   0  0  0  0  0  0  0  0  0  0  0  0
   59.0700   31.7040   46.4740 C   0  0  0  0  0  0  0  0  0  0  0  0
   62.0070   32.0320   47.5150 C   0  0  0  0  0  0  0  0  0  0  0  0
   63.0270   32.2860   48.4260 C   0  0  0  0  0  0  0  0  0  0  0  0
   64.2370   33.4500   48.3450 S   0  0  0  0  0  0  0  0  0  0  0  0
   68.2726   33.7041   52.7591 H   0  0  0  0  0  0  0  0  0  0  0  0
   68.9248   33.0143   51.2341 H   0  0  0  0  0  0  0  0  0  0  0  0
   68.1798   34.6488   51.2341 H   0  0  0  0  0  0  0  0  0  0  0  0
   64.3900   31.5260   51.3250 H   0  0  0  0  0  0  0  0  0  0  0  0
   62.3555   29.9805   50.8493 H   0  0  0  0  0  0  0  0  0  0  0  0
   60.5006   29.4689   49.2422 H   0  0  0  0  0  0  0  0  0  0  0  0
   60.5208   28.6086   46.6317 H   0  0  0  0  0  0  0  0  0  0  0  0
   58.6641   28.1002   45.0507 H   0  0  0  0  0  0  0  0  0  0  0  0
   54.7250   30.2330   45.1870 H   0  0  0  0  0  0  0  0  0  0  0  0
   57.3252   32.2074   45.2916 H   0  0  0  0  0  0  0  0  0  0  0  0
   59.1788   32.7224   46.8752 H   0  0  0  0  0  0  0  0  0  0  0  0
   61.9231   32.6184   46.5882 H   0  0  0  0  0  0  0  0  0  0  0  0
  1  2  1  0
  2  3  2  0
  2  4  1  0
  4  5  2  3
  5  6  1  0
  6  7  1  0
  7  8  2  0
  8  9  1  0
  9 10  2  0
 10 11  1  0
 11 12  2  0
 12 13  1  0
 13 14  2  0
 14 15  1  0
 15 16  1  0
 15 17  2  0
 15 18  2  0
 14 19  1  0
 19 20  2  0
 10 21  1  0
 21 22  2  0
 22 23  1  0
 23  5  1  0
 22  7  1  0
 20 11  1  0
  1 24  1  0
  1 25  1  0
  1 26  1  0
  6 27  1  0
  8 28  1  0
  9 29  1  0
 12 30  1  0
 13 31  1  0
 16 32  1  0
 19 33  1  0
 20 34  1  0
 21 35  1  0
M  CHG  1  16  -1
M  END
>  <UniqueID>  (31) 
30

>  <SMILES>  (31) 
CC(=O)N=c1[nH]c2ccc(-c3ccc(S([NH-])(=O)=O)cc3)cc2s1

>  <Energy>  (31) 
82.60238454128974

>  <Genealogy>  (31) 
CC(=O)N=c1[nH]c2ccc(-c3ccc(S([NH-])(=O)=O)cc3)cc2s1 (protonated)
CC(=O)N=c1[nH]c2ccc(-c3ccc(S([NH-])(=O)=O)cc3)cc2s1 (3D coordinates assigned)
CC(=O)N=c1[nH]c2ccc(-c3ccc(S([NH-])(=O)=O)cc3)cc2s1 (optimized conformer: 82.60238454128974 kcal/mol)

>  <smiles>  (31) 
CC(=O)N=c1[nH]c2ccc(-c3ccc(S(N)(=O)=O)cc3)cc2s1

>  <score_type>  (31) 
oracle

>  <origin>  (31) 
adg

>  <m_score__min__energy>  (31) 
-10.029999999999999

>  <m_primary>  (31) 
energy

$$$$
31:0
     RDKit          3D

 41 42  0  0  0  0  0  0  0  0999 V2000
   55.3980   26.4510   46.0560 N   0  0  0  0  0  0  0  0  0  0  0  0
   57.1020   26.3530   45.7810 S   0  0  0  0  0  0  0  0  0  0  0  0
   57.3580   26.3250   44.3010 O   0  0  0  0  0  0  0  0  0  0  0  0
   57.6090   25.0810   46.4020 O   0  0  0  0  0  0  0  0  0  0  0  0
   57.9250   27.7500   46.4940 C   0  0  0  0  0  0  0  0  0  0  0  0
   58.8270   27.5390   47.5490 C   0  0  0  0  0  0  0  0  0  0  0  0
   59.5080   28.6120   48.1280 C   0  0  0  0  0  0  0  0  0  0  0  0
   59.2900   29.9090   47.6670 C   0  0  0  0  0  0  0  0  0  0  0  0
   58.3880   30.1380   46.6270 C   0  0  0  0  0  0  0  0  0  0  0  0
   57.7040   29.0690   46.0260 C   0  0  0  0  0  0  0  0  0  0  0  0
   56.7380   29.3620   44.9470 C   0  0  0  0  0  0  0  0  0  0  0  0
   55.5140   29.1420   45.1430 O   0  0  0  0  0  0  0  0  0  0  0  0
   57.1510   29.9030   43.6850 N   0  0  0  0  0  0  0  0  0  0  0  0
   57.7450   31.2220   43.4760 C   0  0  0  0  0  0  0  0  0  0  0  0
   57.2430   32.2170   44.5310 C   0  0  0  0  0  0  0  0  0  0  0  0
   58.0040   33.5420   44.4730 C   0  0  0  0  0  0  0  0  0  0  0  0
   58.3340   33.9960   45.8180 N   0  0  0  0  0  0  0  0  0  0  0  0
   59.5260   34.7270   46.1220 C   0  0  0  0  0  0  0  0  0  0  0  0
   59.6680   35.9000   45.6810 O   0  0  0  0  0  0  0  0  0  0  0  0
   60.5880   34.1100   46.9500 C   0  0  0  0  0  0  0  0  0  0  0  0
   60.3570   33.8090   48.3060 C   0  0  0  0  0  0  0  0  0  0  0  0
   61.3620   33.2250   49.0830 C   0  0  0  0  0  0  0  0  0  0  0  0
   62.6080   32.9350   48.5190 C   0  0  0  0  0  0  0  0  0  0  0  0
   63.8660   32.2030   49.4980 Cl  0  0  0  0  0  0  0  0  0  0  0  0
   62.8480   33.2290   47.1750 C   0  0  0  0  0  0  0  0  0  0  0  0
   61.8460   33.8130   46.3920 C   0  0  0  0  0  0  0  0  0  0  0  0
   55.1470   27.4650   46.0590 H   0  0  0  0  0  0  0  0  0  0  0  0
   58.9989   26.5189   47.9230 H   0  0  0  0  0  0  0  0  0  0  0  0
   60.2176   28.4332   48.9493 H   0  0  0  0  0  0  0  0  0  0  0  0
   59.8291   30.7525   48.1230 H   0  0  0  0  0  0  0  0  0  0  0  0
   58.2113   31.1650   46.2749 H   0  0  0  0  0  0  0  0  0  0  0  0
   58.8396   31.1406   43.5486 H   0  0  0  0  0  0  0  0  0  0  0  0
   57.4543   31.5866   42.4797 H   0  0  0  0  0  0  0  0  0  0  0  0
   56.1748   32.4125   44.3556 H   0  0  0  0  0  0  0  0  0  0  0  0
   57.4072   31.7728   45.5239 H   0  0  0  0  0  0  0  0  0  0  0  0
   58.9321   33.4024   43.8994 H   0  0  0  0  0  0  0  0  0  0  0  0
   57.3697   34.2975   43.9863 H   0  0  0  0  0  0  0  0  0  0  0  0
   59.3794   34.0348   48.7570 H   0  0  0  0  0  0  0  0  0  0  0  0
   61.1718   32.9930   50.1413 H   0  0  0  0  0  0  0  0  0  0  0  0
   63.8279   33.0007   46.7304 H   0  0  0  0  0  0  0  0  0  0  0  0
   62.0424   34.0414   45.3341 H   0  0  0  0  0  0  0  0  0  0  0  0
  1  2  1  0
  2  3  2  0
  2  4  2  0
  2  5  1  0
  5  6  2  0
  6  7  1  0
  7  8  2  0
  8  9  1  0
  9 10  2  0
 10 11  1  0
 11 12  2  0
 11 13  1  0
 13 14  1  0
 14 15  1  0
 15 16  1  0
 16 17  1  0
 17 18  1  0
 18 19  2  0
 18 20  1  0
 20 21  2  0
 21 22  1  0
 22 23  2  0
 23 24  1  0
 23 25  1  0
 25 26  2  0
 10  5  1  0
 26 20  1  0
  1 27  1  0
  6 28  1  0
  7 29  1  0
  8 30  1  0
  9 31  1  0
 14 32  1  0
 14 33  1  0
 15 34  1  0
 15 35  1  0
 16 36  1  0
 16 37  1  0
 21 38  1  0
 22 39  1  0
 25 40  1  0
 26 41  1  0
M  CHG  3   1  -1  13  -1  17  -1
M  END
>  <UniqueID>  (32) 
31

>  <SMILES>  (32) 
[NH-]S(=O)(=O)c1ccccc1C(=O)[N-]CCC[N-]C(=O)c1ccc(Cl)cc1

>  <Energy>  (32) 
41.44724845213878

>  <Genealogy>  (32) 
[NH-]S(=O)(=O)c1ccccc1C(=O)[N-]CCC[N-]C(=O)c1ccc(Cl)cc1 (protonated)
[NH-]S(=O)(=O)c1ccccc1C(=O)[N-]CCC[N-]C(=O)c1ccc(Cl)cc1 (3D coordinates assigned)
[NH-]S(=O)(=O)c1ccccc1C(=O)[N-]CCC[N-]C(=O)c1ccc(Cl)cc1 (optimized conformer: 41.44724845213878 kcal/mol)

>  <smiles>  (32) 
NS(=O)(=O)c1ccccc1C(=O)NCCCNC(=O)c1ccc(Cl)cc1

>  <score_type>  (32) 
oracle

>  <origin>  (32) 
adg

>  <m_score__min__energy>  (32) 
-14.289999999999999

>  <m_primary>  (32) 
energy

$$$$
32:0
     RDKit          3D

 43 45  0  0  0  0  0  0  0  0999 V2000
   60.8551   30.1296   49.3998 H   0  0  0  0  0  0  0  0  0  0  0  0
   60.7960   30.7270   48.4780 C   0  0  0  0  0  0  0  0  0  0  0  0
   57.2600   31.1580   44.8300 C   0  0  0  0  0  0  0  0  0  0  0  0
   56.1609   31.2001   44.8129 H   0  0  0  0  0  0  0  0  0  0  0  0
   58.5500   31.2480   47.5730 C   0  0  0  0  0  0  0  0  0  0  0  0
   58.3624   31.6634   48.5741 H   0  0  0  0  0  0  0  0  0  0  0  0
   57.7299   30.5831   47.2643 H   0  0  0  0  0  0  0  0  0  0  0  0
   58.6390   32.3870   46.5760 C   0  0  0  0  0  0  0  0  0  0  0  0
   59.3190   33.5600   46.9530 C   0  0  0  0  0  0  0  0  0  0  0  0
   59.8166   33.6093   47.9328 H   0  0  0  0  0  0  0  0  0  0  0  0
   59.3690   34.6620   46.0970 C   0  0  0  0  0  0  0  0  0  0  0  0
   59.9121   35.5690   46.4010 H   0  0  0  0  0  0  0  0  0  0  0  0
   58.7320   34.6150   44.8580 C   0  0  0  0  0  0  0  0  0  0  0  0
   58.7649   35.4881   44.1897 H   0  0  0  0  0  0  0  0  0  0  0  0
   58.0530   33.4620   44.4650 C   0  0  0  0  0  0  0  0  0  0  0  0
   57.5422   33.4361   43.4912 H   0  0  0  0  0  0  0  0  0  0  0  0
   58.0150   32.3340   45.3000 C   0  0  0  0  0  0  0  0  0  0  0  0
   57.8740   30.0420   44.4240 C   0  0  0  0  0  0  0  0  0  0  0  0
   58.6055   30.1092   43.6052 H   0  0  0  0  0  0  0  0  0  0  0  0
   59.8190   30.4450   47.6080 C   0  0  0  0  0  0  0  0  0  0  0  0
   59.9477   29.6089   46.9049 H   0  0  0  0  0  0  0  0  0  0  0  0
   57.6080   28.7200   45.0330 C   0  0  0  0  0  0  0  0  0  0  0  0
   56.2940   28.2470   45.2460 C   0  0  0  0  0  0  0  0  0  0  0  0
   55.1920   29.0020   44.8530 O   0  0  0  0  0  0  0  0  0  0  0  0
   56.0840   26.9930   45.8320 C   0  0  0  0  0  0  0  0  0  0  0  0
   54.7910   26.5320   46.0520 O   0  0  0  0  0  0  0  0  0  0  0  0
   57.1730   26.1940   46.1900 C   0  0  0  0  0  0  0  0  0  0  0  0
   57.0035   25.2115   46.6548 H   0  0  0  0  0  0  0  0  0  0  0  0
   58.4760   26.6400   45.9590 C   0  0  0  0  0  0  0  0  0  0  0  0
   59.5520   25.8330   46.3090 O   0  0  0  0  0  0  0  0  0  0  0  0
   58.6970   27.8960   45.3790 C   0  0  0  0  0  0  0  0  0  0  0  0
   60.0030   28.3260   45.1630 O   0  0  0  0  0  0  0  0  0  0  0  0
   61.8040   31.7960   48.2750 C   0  0  0  0  0  0  0  0  0  0  0  0
   61.9110   32.9140   49.1290 C   0  0  0  0  0  0  0  0  0  0  0  0
   61.2264   33.0174   49.9838 H   0  0  0  0  0  0  0  0  0  0  0  0
   62.8830   33.8910   48.8940 C   0  0  0  0  0  0  0  0  0  0  0  0
   62.9554   34.7632   49.5604 H   0  0  0  0  0  0  0  0  0  0  0  0
   63.7620   33.7640   47.8170 C   0  0  0  0  0  0  0  0  0  0  0  0
   64.5227   34.5371   47.6333 H   0  0  0  0  0  0  0  0  0  0  0  0
   63.6750   32.6550   46.9730 C   0  0  0  0  0  0  0  0  0  0  0  0
   64.3704   32.5529   46.1268 H   0  0  0  0  0  0  0  0  0  0  0  0
   62.7050   31.6740   47.2020 C   0  0  0  0  0  0  0  0  0  0  0  0
   62.6462   30.7995   46.5373 H   0  0  0  0  0  0  0  0  0  0  0  0
  1  2  1  0
  2  3  2  0
  3  4  1  0
  3  5  1  0
  5  6  1  0
  5  7  1  0
  5  8  1  0
  8  9  2  0
  9 10  1  0
  9 11  1  0
 11 12  1  0
 11 13  2  0
 13 14  1  0
 13 15  1  0
 15 16  1  0
 15 17  2  0
 17 18  1  0
 18 19  1  0
 18 20  2  0
 20 21  1  0
 20 22  1  0
 22 23  2  0
 23 24  1  0
 23 25  1  0
 25 26  1  0
 25 27  2  0
 27 28  1  0
 27 29  1  0
 29 30  1  0
 29 31  2  0
 31 32  1  0
  2 33  1  0
 33 34  2  0
 34 35  1  0
 34 36  1  0
 36 37  1  0
 36 38  2  0
 38 39  1  0
 38 40  1  0
 40 41  1  0
 40 42  2  0
 42 43  1  0
 17  8  1  0
 31 22  1  0
 42 33  1  0
M  CHG  4  24  -1  26  -1  30  -1  32  -1
M  END
>  <UniqueID>  (33) 
32

>  <SMILES>  (33) 
[O-]c1cc([O-])c([O-])c(/C=C/c2ccccc2C/C=C/c2ccccc2)c1[O-]

>  <Energy>  (33) 
58.7647583159106

>  <Genealogy>  (33) 
[O-]c1cc([O-])c([O-])c(C=Cc2ccccc2CC=Cc2ccccc2)c1[O-] (protonated)
[O-]c1cc([O-])c([O-])c(/C=C/c2ccccc2C/C=C/c2ccccc2)c1[O-] (cis-trans isomerization)
[O-]c1cc([O-])c([O-])c(/C=C/c2ccccc2C/C=C/c2ccccc2)c1[O-] (3D coordinates assigned)
[O-]c1cc([O-])c([O-])c(/C=C/c2ccccc2C/C=C/c2ccccc2)c1[O-] (optimized conformer: 58.7647583159106 kcal/mol)

>  <smiles>  (33) 
Oc1cc(O)c(O)c(C=Cc2ccccc2CC=Cc2ccccc2)c1O

>  <score_type>  (33) 
oracle

>  <origin>  (33) 
adg

>  <m_score__min__energy>  (33) 
-18.73

>  <m_primary>  (33) 
energy

$$$$
33:0
     RDKit          3D

 42 44  0  0  0  0  0  0  0  0999 V2000
   55.5330   28.8730   44.9420 O   0  0  0  0  0  0  0  0  0  0  0  0
   56.3890   29.7930   44.8570 C   0  0  0  0  0  0  0  0  0  0  0  0
   56.3180   30.7410   43.6920 C   0  0  0  0  0  0  0  0  0  0  0  0
   57.7240   31.2160   43.3010 C   0  0  0  0  0  0  0  0  0  0  0  0
   57.8470   32.7460   43.3090 C   0  0  0  0  0  0  0  0  0  0  0  0
   58.4040   33.2590   44.6050 C   0  0  0  0  0  0  0  0  0  0  0  0
   59.1730   34.4320   44.6450 C   0  0  0  0  0  0  0  0  0  0  0  0
   59.6820   34.8800   45.8640 C   0  0  0  0  0  0  0  0  0  0  0  0
   59.4230   34.1570   47.0340 C   0  0  0  0  0  0  0  0  0  0  0  0
   59.9210   34.5650   48.2770 C   0  0  0  0  0  0  0  0  0  0  0  0
   59.6500   33.7990   49.4130 C   0  0  0  0  0  0  0  0  0  0  0  0
   58.8830   32.6370   49.2940 C   0  0  0  0  0  0  0  0  0  0  0  0
   58.4020   32.2520   48.0800 N   0  0  0  0  0  0  0  0  0  0  0  0
   58.6510   32.9790   46.9560 C   0  0  0  0  0  0  0  0  0  0  0  0
   58.1710   32.5640   45.7530 N   0  0  0  0  0  0  0  0  0  0  0  0
   57.3750   29.9070   45.8920 N   0  0  0  0  0  0  0  0  0  0  0  0
   58.5190   29.0230   46.1020 C   0  0  0  0  0  0  0  0  0  0  0  0
   59.5700   29.6620   46.9770 C   0  0  0  0  0  0  0  0  0  0  0  0
   60.5880   30.4270   46.3850 C   0  0  0  0  0  0  0  0  0  0  0  0
   61.6180   30.9600   47.1630 C   0  0  0  0  0  0  0  0  0  0  0  0
   61.6320   30.7520   48.5430 C   0  0  0  0  0  0  0  0  0  0  0  0
   60.6320   29.9840   49.1450 C   0  0  0  0  0  0  0  0  0  0  0  0
   60.6760   29.7120   50.8790 Cl  0  0  0  0  0  0  0  0  0  0  0  0
   59.6120   29.4200   48.3650 C   0  0  0  0  0  0  0  0  0  0  0  0
   58.6740   28.6380   48.9560 F   0  0  0  0  0  0  0  0  0  0  0  0
   55.8576   30.2278   42.8349 H   0  0  0  0  0  0  0  0  0  0  0  0
   55.7139   31.6142   43.9794 H   0  0  0  0  0  0  0  0  0  0  0  0
   58.4492   30.7994   44.0155 H   0  0  0  0  0  0  0  0  0  0  0  0
   57.9230   30.8685   42.2765 H   0  0  0  0  0  0  0  0  0  0  0  0
   58.5138   33.0529   42.4897 H   0  0  0  0  0  0  0  0  0  0  0  0
   56.8393   33.1683   43.1816 H   0  0  0  0  0  0  0  0  0  0  0  0
   59.3731   34.9946   43.7212 H   0  0  0  0  0  0  0  0  0  0  0  0
   60.2852   35.7989   45.9056 H   0  0  0  0  0  0  0  0  0  0  0  0
   60.5218   35.4828   48.3585 H   0  0  0  0  0  0  0  0  0  0  0  0
   60.0377   34.1083   50.3948 H   0  0  0  0  0  0  0  0  0  0  0  0
   58.6668   32.0303   50.1857 H   0  0  0  0  0  0  0  0  0  0  0  0
   57.8330   31.3770   48.0160 H   0  0  0  0  0  0  0  0  0  0  0  0
   58.1699   28.0976   46.5834 H   0  0  0  0  0  0  0  0  0  0  0  0
   58.9724   28.8131   45.1220 H   0  0  0  0  0  0  0  0  0  0  0  0
   60.5740   30.6078   45.3001 H   0  0  0  0  0  0  0  0  0  0  0  0
   62.4194   31.5446   46.6875 H   0  0  0  0  0  0  0  0  0  0  0  0
   62.4309   31.1930   49.1572 H   0  0  0  0  0  0  0  0  0  0  0  0
  1  2  2  0
  2  3  1  0
  3  4  1  0
  4  5  1  0
  5  6  1  0
  6  7  2  0
  7  8  1  0
  8  9  2  0
  9 10  1  0
 10 11  2  0
 11 12  1  0
 12 13  2  0
 13 14  1  0
 14 15  2  0
  2 16  1  0
 16 17  1  0
 17 18  1  0
 18 19  2  0
 19 20  1  0
 20 21  2  0
 21 22  1  0
 22 23  1  0
 22 24  2  0
 24 25  1  0
 15  6  1  0
 24 18  1  0
 14  9  1  0
  3 26  1  0
  3 27  1  0
  4 28  1  0
  4 29  1  0
  5 30  1  0
  5 31  1  0
  7 32  1  0
  8 33  1  0
 10 34  1  0
 11 35  1  0
 12 36  1  0
 13 37  1  0
 17 38  1  0
 17 39  1  0
 19 40  1  0
 20 41  1  0
 21 42  1  0
M  CHG  2  13   1  16  -1
M  END
>  <UniqueID>  (34) 
33

>  <SMILES>  (34) 
O=C(CCCc1ccc2ccc[nH+]c2n1)[N-]Cc1cccc(Cl)c1F

>  <Energy>  (34) 
36.82462044537295

>  <Genealogy>  (34) 
O=C(CCCc1ccc2ccc[nH+]c2n1)[N-]Cc1cccc(Cl)c1F (protonated)
O=C(CCCc1ccc2ccc[nH+]c2n1)[N-]Cc1cccc(Cl)c1F (3D coordinates assigned)
O=C(CCCc1ccc2ccc[nH+]c2n1)[N-]Cc1cccc(Cl)c1F (optimized conformer: 36.82462044537295 kcal/mol)

>  <smiles>  (34) 
O=C(CCCc1ccc2cccnc2n1)NCc1cccc(Cl)c1F

>  <score_type>  (34) 
oracle

>  <origin>  (34) 
adg

>  <m_score__min__energy>  (34) 
-8.6300000000000008

>  <m_primary>  (34) 
energy

$$$$
34:0
     RDKit          3D

 42 45  0  0  0  0  0  0  0  0999 V2000
   57.2370   30.5050   43.9350 C   0  0  0  0  0  0  0  0  0  0  0  0
   57.2590   31.0380   45.2550 O   0  0  0  0  0  0  0  0  0  0  0  0
   57.9650   32.1910   45.6330 C   0  0  0  0  0  0  0  0  0  0  0  0
   57.5990   33.4760   45.1940 C   0  0  0  0  0  0  0  0  0  0  0  0
   58.3420   34.5910   45.5880 C   0  0  0  0  0  0  0  0  0  0  0  0
   59.4480   34.4370   46.4280 C   0  0  0  0  0  0  0  0  0  0  0  0
   59.8120   33.1650   46.8940 C   0  0  0  0  0  0  0  0  0  0  0  0
   60.9890   33.0250   47.7780 C   0  0  0  0  0  0  0  0  0  0  0  0
   62.2290   33.0910   47.3270 O   0  0  0  0  0  0  0  0  0  0  0  0
   63.0300   32.9200   48.3490 C   0  0  0  0  0  0  0  0  0  0  0  0
   64.3820   32.9390   48.3180 N   0  0  0  0  0  0  0  0  0  0  0  0
   65.0730   32.7870   49.4880 C   0  0  0  0  0  0  0  0  0  0  0  0
   66.3330   32.8230   49.4620 O   0  0  0  0  0  0  0  0  0  0  0  0
   64.4000   32.6040   50.6850 N   0  0  0  0  0  0  0  0  0  0  0  0
   65.1560   32.4860   51.9420 C   0  0  0  0  0  0  0  0  0  0  0  0
   63.0230   32.6140   50.7090 C   0  0  0  0  0  0  0  0  0  0  0  0
   62.3900   32.5230   51.7970 O   0  0  0  0  0  0  0  0  0  0  0  0
   62.3370   32.7430   49.5030 C   0  0  0  0  0  0  0  0  0  0  0  0
   60.9960   32.8080   49.1650 C   0  0  0  0  0  0  0  0  0  0  0  0
   59.8400   32.7800   50.0830 C   0  0  0  0  0  0  0  0  0  0  0  0
   59.7060   33.7560   51.0840 C   0  0  0  0  0  0  0  0  0  0  0  0
   58.6220   33.7160   51.9660 C   0  0  0  0  0  0  0  0  0  0  0  0
   57.6690   32.6980   51.8580 C   0  0  0  0  0  0  0  0  0  0  0  0
   57.7980   31.7210   50.8670 C   0  0  0  0  0  0  0  0  0  0  0  0
   58.8800   31.7590   49.9820 C   0  0  0  0  0  0  0  0  0  0  0  0
   59.0740   32.0440   46.4740 C   0  0  0  0  0  0  0  0  0  0  0  0
   57.1917   29.4070   43.9836 H   0  0  0  0  0  0  0  0  0  0  0  0
   56.3538   30.8851   43.4008 H   0  0  0  0  0  0  0  0  0  0  0  0
   58.1485   30.8110   43.4008 H   0  0  0  0  0  0  0  0  0  0  0  0
   56.7249   33.6032   44.5384 H   0  0  0  0  0  0  0  0  0  0  0  0
   58.0558   35.5931   45.2361 H   0  0  0  0  0  0  0  0  0  0  0  0
   60.0362   35.3177   46.7253 H   0  0  0  0  0  0  0  0  0  0  0  0
   64.8840   33.0840   47.4130 H   0  0  0  0  0  0  0  0  0  0  0  0
   64.4691   32.5932   52.7944 H   0  0  0  0  0  0  0  0  0  0  0  0
   65.6435   31.5009   51.9856 H   0  0  0  0  0  0  0  0  0  0  0  0
   65.9205   33.2757   51.9856 H   0  0  0  0  0  0  0  0  0  0  0  0
   60.4568   34.5549   51.1744 H   0  0  0  0  0  0  0  0  0  0  0  0
   58.5186   34.4855   52.7452 H   0  0  0  0  0  0  0  0  0  0  0  0
   56.8174   32.6663   52.5535 H   0  0  0  0  0  0  0  0  0  0  0  0
   57.0475   30.9212   50.7831 H   0  0  0  0  0  0  0  0  0  0  0  0
   58.9799   30.9873   49.2045 H   0  0  0  0  0  0  0  0  0  0  0  0
   59.3718   31.0399   46.8104 H   0  0  0  0  0  0  0  0  0  0  0  0
  1  2  1  0
  2  3  1  0
  3  4  2  0
  4  5  1  0
  5  6  2  0
  6  7  1  0
  7  8  1  0
  8  9  1  0
  9 10  1  0
 10 11  1  0
 11 12  1  0
 12 13  2  0
 12 14  1  0
 14 15  1  0
 14 16  1  0
 16 17  2  0
 16 18  1  0
 18 19  1  0
 19 20  1  0
 20 21  2  0
 21 22  1  0
 22 23  2  0
 23 24  1  0
 24 25  2  0
  7 26  2  0
 26  3  1  0
 19  8  2  0
 25 20  1  0
 18 10  2  0
  1 27  1  0
  1 28  1  0
  1 29  1  0
  4 30  1  0
  5 31  1  0
  6 32  1  0
 11 33  1  0
 15 34  1  0
 15 35  1  0
 15 36  1  0
 21 37  1  0
 22 38  1  0
 23 39  1  0
 24 40  1  0
 25 41  1  0
 26 42  1  0
M  END
>  <UniqueID>  (35) 
34

>  <SMILES>  (35) 
COc1cccc(-c2oc3[nH]c(=O)n(C)c(=O)c3c2-c2ccccc2)c1

>  <Energy>  (35) 
94.81744449557385

>  <Genealogy>  (35) 
COc1cccc(-c2oc3[nH]c(=O)n(C)c(=O)c3c2-c2ccccc2)c1 (3D coordinates assigned)
COc1cccc(-c2oc3[nH]c(=O)n(C)c(=O)c3c2-c2ccccc2)c1 (optimized conformer: 94.81744449557385 kcal/mol)

>  <smiles>  (35) 
COc1cccc(-c2oc3[nH]c(=O)n(C)c(=O)c3c2-c2ccccc2)c1

>  <score_type>  (35) 
oracle

>  <origin>  (35) 
adg

>  <m_score__min__energy>  (35) 
-7.5800000000000001

>  <m_primary>  (35) 
energy

$$$$
35:0
     RDKit          3D

 34 35  0  0  0  0  0  0  0  0999 V2000
   54.9200   26.3590   45.9390 N   0  0  0  0  0  0  0  0  0  0  0  0
   56.3720   25.4700   46.2310 S   0  0  0  0  0  0  0  0  0  0  0  0
   56.4530   24.3150   45.2740 O   0  0  0  0  0  0  0  0  0  0  0  0
   56.3580   24.9320   47.6360 O   0  0  0  0  0  0  0  0  0  0  0  0
   57.7630   26.5280   46.0110 C   0  0  0  0  0  0  0  0  0  0  0  0
   59.0600   26.0320   46.1950 C   0  0  0  0  0  0  0  0  0  0  0  0
   60.1630   26.8710   46.0200 C   0  0  0  0  0  0  0  0  0  0  0  0
   59.9770   28.2130   45.6760 C   0  0  0  0  0  0  0  0  0  0  0  0
   58.6790   28.7310   45.5190 C   0  0  0  0  0  0  0  0  0  0  0  0
   58.4590   30.1030   45.1470 N   0  0  0  0  0  0  0  0  0  0  0  0
   57.1830   30.6400   44.7660 C   0  0  0  0  0  0  0  0  0  0  0  0
   56.2030   29.8710   44.5680 O   0  0  0  0  0  0  0  0  0  0  0  0
   57.0300   32.1040   44.6290 C   0  0  0  0  0  0  0  0  0  0  0  0
   57.0610   32.9920   45.6340 C   0  0  0  0  0  0  0  0  0  0  0  0
   58.2790   33.4370   46.3440 C   0  0  0  0  0  0  0  0  0  0  0  0
   59.3830   33.9560   45.6430 C   0  0  0  0  0  0  0  0  0  0  0  0
   60.5430   34.3250   46.3300 C   0  0  0  0  0  0  0  0  0  0  0  0
   60.6200   34.1590   47.7160 C   0  0  0  0  0  0  0  0  0  0  0  0
   59.5390   33.6140   48.4160 C   0  0  0  0  0  0  0  0  0  0  0  0
   59.6210   33.4380   49.7910 O   0  0  0  0  0  0  0  0  0  0  0  0
   58.3750   33.2450   47.7300 C   0  0  0  0  0  0  0  0  0  0  0  0
   57.5770   27.8750   45.6710 C   0  0  0  0  0  0  0  0  0  0  0  0
   55.1630   27.3720   46.0120 H   0  0  0  0  0  0  0  0  0  0  0  0
   59.2102   24.9797   46.4779 H   0  0  0  0  0  0  0  0  0  0  0  0
   61.1804   26.4747   46.1532 H   0  0  0  0  0  0  0  0  0  0  0  0
   60.8493   28.8665   45.5275 H   0  0  0  0  0  0  0  0  0  0  0  0
   59.2950   30.7230   45.0510 H   0  0  0  0  0  0  0  0  0  0  0  0
   56.8774   32.4998   43.6141 H   0  0  0  0  0  0  0  0  0  0  0  0
   56.1021   33.4242   45.9560 H   0  0  0  0  0  0  0  0  0  0  0  0
   59.3331   34.0718   44.5503 H   0  0  0  0  0  0  0  0  0  0  0  0
   61.3967   34.7467   45.7792 H   0  0  0  0  0  0  0  0  0  0  0  0
   61.5309   34.4571   48.2559 H   0  0  0  0  0  0  0  0  0  0  0  0
   57.5320   32.8025   48.2809 H   0  0  0  0  0  0  0  0  0  0  0  0
   56.5591   28.2645   45.5221 H   0  0  0  0  0  0  0  0  0  0  0  0
  1  2  1  0
  2  3  2  0
  2  4  2  0
  2  5  1  0
  5  6  2  0
  6  7  1  0
  7  8  2  0
  8  9  1  0
  9 10  1  0
 10 11  1  0
 11 12  2  0
 11 13  1  0
 13 14  2  3
 14 15  1  0
 15 16  2  0
 16 17  1  0
 17 18  2  0
 18 19  1  0
 19 20  1  0
 19 21  2  0
  9 22  2  0
 22  5  1  0
 21 15  1  0
  1 23  1  0
  6 24  1  0
  7 25  1  0
  8 26  1  0
 10 27  1  0
 13 28  1  0
 14 29  1  0
 16 30  1  0
 17 31  1  0
 18 32  1  0
 21 33  1  0
 22 34  1  0
M  CHG  2   1  -1  20  -1
M  END
>  <UniqueID>  (36) 
35

>  <SMILES>  (36) 
[NH-]S(=O)(=O)c1cccc(NC(=O)C=Cc2cccc([O-])c2)c1

>  <Energy>  (36) 
45.44789936150163

>  <Genealogy>  (36) 
[NH-]S(=O)(=O)c1cccc(NC(=O)C=Cc2cccc([O-])c2)c1 (protonated)
[NH-]S(=O)(=O)c1cccc(NC(=O)C=Cc2cccc([O-])c2)c1 (3D coordinates assigned)
[NH-]S(=O)(=O)c1cccc(NC(=O)C=Cc2cccc([O-])c2)c1 (optimized conformer: 45.44789936150163 kcal/mol)

>  <smiles>  (36) 
NS(=O)(=O)c1cccc(NC(=O)C=Cc2cccc(O)c2)c1

>  <score_type>  (36) 
oracle

>  <origin>  (36) 
adg

>  <m_score__min__energy>  (36) 
-13.5

>  <m_primary>  (36) 
energy

$$$$
36:0
     RDKit          3D

 47 49  0  0  0  0  0  0  0  0999 V2000
   55.5450   28.9680   45.0530 N   0  0  0  0  0  0  0  0  0  0  0  0
   56.4590   30.0660   44.0800 S   0  0  0  0  0  0  0  0  0  0  0  0
   55.9720   29.9710   42.6610 O   0  0  0  0  0  0  0  0  0  0  0  0
   56.2650   31.4770   44.5630 O   0  0  0  0  0  0  0  0  0  0  0  0
   58.1420   29.6400   44.1270 N   0  0  0  0  0  0  0  0  0  0  0  0
   58.8220   29.1350   45.2890 C   0  0  0  0  0  0  0  0  0  0  0  0
   58.5940   27.8360   45.7820 C   0  0  0  0  0  0  0  0  0  0  0  0
   59.2690   27.3850   46.9170 C   0  0  0  0  0  0  0  0  0  0  0  0
   60.1770   28.2150   47.5750 C   0  0  0  0  0  0  0  0  0  0  0  0
   60.4010   29.5210   47.1150 C   0  0  0  0  0  0  0  0  0  0  0  0
   61.3610   30.4260   47.8480 C   0  0  0  0  0  0  0  0  0  0  0  0
   60.6480   31.2610   48.8940 C   0  0  0  0  0  0  0  0  0  0  0  0
   59.2670   31.0520   49.0780 C   0  0  0  0  0  0  0  0  0  0  0  0
   58.5500   31.7920   50.0160 C   0  0  0  0  0  0  0  0  0  0  0  0
   59.2010   32.7410   50.8010 C   0  0  0  0  0  0  0  0  0  0  0  0
   60.5730   32.9450   50.6580 C   0  0  0  0  0  0  0  0  0  0  0  0
   61.3160   32.2090   49.7200 C   0  0  0  0  0  0  0  0  0  0  0  0
   63.0660   32.4820   49.6400 S   0  0  0  0  0  0  0  0  0  0  0  0
   63.7850   31.2390   50.0880 O   0  0  0  0  0  0  0  0  0  0  0  0
   63.4760   33.6120   50.5430 O   0  0  0  0  0  0  0  0  0  0  0  0
   63.5270   32.8620   48.0160 N   0  0  0  0  0  0  0  0  0  0  0  0
   62.7610   33.7360   47.1790 C   0  0  0  0  0  0  0  0  0  0  0  0
   63.2170   34.0960   46.0610 O   0  0  0  0  0  0  0  0  0  0  0  0
   61.4720   34.2200   47.5910 N   0  0  0  0  0  0  0  0  0  0  0  0
   60.3320   34.0220   46.9930 C   0  0  0  0  0  0  0  0  0  0  0  0
   60.3030   33.8980   45.5990 C   0  0  0  0  0  0  0  0  0  0  0  0
   59.0800   33.7090   44.9500 C   0  0  0  0  0  0  0  0  0  0  0  0
   57.8970   33.6480   45.6940 C   0  0  0  0  0  0  0  0  0  0  0  0
   57.9600   33.7820   47.0810 C   0  0  0  0  0  0  0  0  0  0  0  0
   59.1620   33.9620   47.6930 N   0  0  0  0  0  0  0  0  0  0  0  0
   59.7220   29.9720   45.9700 C   0  0  0  0  0  0  0  0  0  0  0  0
   54.5770   29.3480   45.1290 H   0  0  0  0  0  0  0  0  0  0  0  0
   58.6560   29.6670   43.2160 H   0  0  0  0  0  0  0  0  0  0  0  0
   57.8805   27.1736   45.2701 H   0  0  0  0  0  0  0  0  0  0  0  0
   59.0840   26.3688   47.2952 H   0  0  0  0  0  0  0  0  0  0  0  0
   60.7190   27.8440   48.4574 H   0  0  0  0  0  0  0  0  0  0  0  0
   62.1260   29.8098   48.3430 H   0  0  0  0  0  0  0  0  0  0  0  0
   61.8203   31.1072   47.1166 H   0  0  0  0  0  0  0  0  0  0  0  0
   58.7476   30.2943   48.4729 H   0  0  0  0  0  0  0  0  0  0  0  0
   57.4692   31.6267   50.1367 H   0  0  0  0  0  0  0  0  0  0  0  0
   58.6318   33.3304   51.5349 H   0  0  0  0  0  0  0  0  0  0  0  0
   61.0798   33.6914   51.2874 H   0  0  0  0  0  0  0  0  0  0  0  0
   61.2361   33.9490   45.0187 H   0  0  0  0  0  0  0  0  0  0  0  0
   59.0476   33.6083   43.8551 H   0  0  0  0  0  0  0  0  0  0  0  0
   56.9300   33.4964   45.1920 H   0  0  0  0  0  0  0  0  0  0  0  0
   57.0382   33.7422   47.6800 H   0  0  0  0  0  0  0  0  0  0  0  0
   59.8975   30.9937   45.6022 H   0  0  0  0  0  0  0  0  0  0  0  0
  1  2  1  0
  2  3  2  0
  2  4  2  0
  2  5  1  0
  5  6  1  0
  6  7  2  0
  7  8  1  0
  8  9  2  0
  9 10  1  0
 10 11  1  0
 11 12  1  0
 12 13  2  0
 13 14  1  0
 14 15  2  0
 15 16  1  0
 16 17  2  0
 17 18  1  0
 18 19  2  0
 18 20  2  0
 18 21  1  0
 21 22  1  0
 22 23  2  0
 22 24  1  0
 24 25  2  3
 25 26  1  0
 26 27  2  0
 27 28  1  0
 28 29  2  0
 29 30  1  0
 10 31  2  0
 31  6  1  0
 17 12  1  0
 30 25  1  0
  1 32  1  0
  5 33  1  0
  7 34  1  0
  8 35  1  0
  9 36  1  0
 11 37  1  0
 11 38  1  0
 13 39  1  0
 14 40  1  0
 15 41  1  0
 16 42  1  0
 26 43  1  0
 27 44  1  0
 28 45  1  0
 29 46  1  0
 31 47  1  0
M  CHG  3   1  -1  21  -1  30  -1
M  END
>  <UniqueID>  (37) 
36

>  <SMILES>  (37) 
[NH-]S(=O)(=O)Nc1cccc(Cc2ccccc2S(=O)(=O)[N-]C(=O)N=c2cccc[n-]2)c1

>  <Energy>  (37) 
56.522045254865404

>  <Genealogy>  (37) 
[NH-]S(=O)(=O)Nc1cccc(Cc2ccccc2S(=O)(=O)[N-]C(=O)N=c2cccc[n-]2)c1 (protonated)
[NH-]S(=O)(=O)Nc1cccc(Cc2ccccc2S(=O)(=O)[N-]C(=O)N=c2cccc[n-]2)c1 (3D coordinates assigned)
[NH-]S(=O)(=O)Nc1cccc(Cc2ccccc2S(=O)(=O)[N-]C(=O)N=c2cccc[n-]2)c1 (optimized conformer: 56.522045254865404 kcal/mol)

>  <smiles>  (37) 
NS(=O)(=O)Nc1cccc(Cc2ccccc2S(=O)(=O)NC(=O)N=c2cccc[nH]2)c1

>  <score_type>  (37) 
oracle

>  <origin>  (37) 
adg

>  <m_score__min__energy>  (37) 
-14.640000000000001

>  <m_primary>  (37) 
energy

$$$$
37:0
     RDKit          3D

 46 48  0  0  0  0  0  0  0  0999 V2000
   53.7460   24.4360   46.0120 O   0  0  0  0  0  0  0  0  0  0  0  0
   54.8610   24.9250   45.6930 C   0  0  0  0  0  0  0  0  0  0  0  0
   55.0640   26.3360   45.8520 N   0  0  0  0  0  0  0  0  0  0  0  0
   56.3170   27.0330   45.7690 C   0  0  0  0  0  0  0  0  0  0  0  0
   57.5290   26.4120   46.1170 C   0  0  0  0  0  0  0  0  0  0  0  0
   58.7370   27.1200   46.0400 C   0  0  0  0  0  0  0  0  0  0  0  0
   59.9380   26.4900   46.3660 O   0  0  0  0  0  0  0  0  0  0  0  0
   58.7370   28.4600   45.6150 C   0  0  0  0  0  0  0  0  0  0  0  0
   59.9570   29.2130   45.5360 N   0  0  0  0  0  0  0  0  0  0  0  0
   60.4510   30.0560   46.5870 C   0  0  0  0  0  0  0  0  0  0  0  0
   59.4800   30.4930   47.8450 S   0  0  0  0  0  0  0  0  0  0  0  0
   61.7650   30.5350   46.4890 O   0  0  0  0  0  0  0  0  0  0  0  0
   62.4500   31.2140   47.5380 C   0  0  0  0  0  0  0  0  0  0  0  0
   62.6790   32.6680   47.1340 C   0  0  0  0  0  0  0  0  0  0  0  0
   61.3840   33.4300   47.1280 C   0  0  0  0  0  0  0  0  0  0  0  0
   60.7600   33.7940   48.3320 C   0  0  0  0  0  0  0  0  0  0  0  0
   59.5700   34.5230   48.2920 C   0  0  0  0  0  0  0  0  0  0  0  0
   59.0220   34.8920   47.0630 C   0  0  0  0  0  0  0  0  0  0  0  0
   59.6770   34.5240   45.8850 C   0  0  0  0  0  0  0  0  0  0  0  0
   60.8320   33.8100   45.9420 N   0  0  0  0  0  0  0  0  0  0  0  0
   57.5370   29.0550   45.2050 C   0  0  0  0  0  0  0  0  0  0  0  0
   56.3330   28.3480   45.2860 C   0  0  0  0  0  0  0  0  0  0  0  0
   55.1490   28.9660   44.8980 O   0  0  0  0  0  0  0  0  0  0  0  0
   55.9230   24.0260   45.1860 C   0  0  0  0  0  0  0  0  0  0  0  0
   55.9880   23.7670   43.8060 C   0  0  0  0  0  0  0  0  0  0  0  0
   56.9940   22.9510   43.2840 C   0  0  0  0  0  0  0  0  0  0  0  0
   57.9400   22.3780   44.1340 C   0  0  0  0  0  0  0  0  0  0  0  0
   57.8770   22.6100   45.5100 C   0  0  0  0  0  0  0  0  0  0  0  0
   56.8680   23.4220   46.0450 C   0  0  0  0  0  0  0  0  0  0  0  0
   56.7830   23.5870   47.7970 Cl  0  0  0  0  0  0  0  0  0  0  0  0
   57.5299   25.3642   46.4518 H   0  0  0  0  0  0  0  0  0  0  0  0
   60.8340   26.9010   46.1300 H   0  0  0  0  0  0  0  0  0  0  0  0
   60.4560   29.2440   44.6180 H   0  0  0  0  0  0  0  0  0  0  0  0
   61.8441   31.1788   48.4554 H   0  0  0  0  0  0  0  0  0  0  0  0
   63.4186   30.7260   47.7213 H   0  0  0  0  0  0  0  0  0  0  0  0
   63.3700   33.1368   47.8500 H   0  0  0  0  0  0  0  0  0  0  0  0
   63.1056   32.6895   46.1203 H   0  0  0  0  0  0  0  0  0  0  0  0
   61.2041   33.5077   49.2968 H   0  0  0  0  0  0  0  0  0  0  0  0
   59.0654   34.8059   49.2276 H   0  0  0  0  0  0  0  0  0  0  0  0
   58.0847   35.4663   47.0220 H   0  0  0  0  0  0  0  0  0  0  0  0
   59.2572   34.8126   44.9100 H   0  0  0  0  0  0  0  0  0  0  0  0
   57.5416   30.0843   44.8171 H   0  0  0  0  0  0  0  0  0  0  0  0
   55.2405   24.2106   43.1318 H   0  0  0  0  0  0  0  0  0  0  0  0
   57.0404   22.7600   42.2017 H   0  0  0  0  0  0  0  0  0  0  0  0
   58.7368   21.7425   43.7201 H   0  0  0  0  0  0  0  0  0  0  0  0
   58.6230   22.1531   46.1768 H   0  0  0  0  0  0  0  0  0  0  0  0
  1  2  2  0
  2  3  1  0
  3  4  1  0
  4  5  2  0
  5  6  1  0
  6  7  1  0
  6  8  2  0
  8  9  1  0
  9 10  1  0
 10 11  2  0
 10 12  1  0
 12 13  1  0
 13 14  1  0
 14 15  1  0
 15 16  2  0
 16 17  1  0
 17 18  2  0
 18 19  1  0
 19 20  2  0
  8 21  1  0
 21 22  2  0
 22 23  1  0
  2 24  1  0
 24 25  2  0
 25 26  1  0
 26 27  2  0
 27 28  1  0
 28 29  2  0
 29 30  1  0
 22  4  1  0
 29 24  1  0
 20 15  1  0
  5 31  1  0
  7 32  1  0
  9 33  1  0
 13 34  1  0
 13 35  1  0
 14 36  1  0
 14 37  1  0
 16 38  1  0
 17 39  1  0
 18 40  1  0
 19 41  1  0
 21 42  1  0
 25 43  1  0
 26 44  1  0
 27 45  1  0
 28 46  1  0
M  CHG  2   3  -1  23  -1
M  END
>  <UniqueID>  (38) 
37

>  <SMILES>  (38) 
O=C([N-]c1cc(O)c(NC(=S)OCCc2ccccn2)cc1[O-])c1ccccc1Cl

>  <Energy>  (38) 
61.54226507347198

>  <Genealogy>  (38) 
O=C([N-]c1cc(O)c(NC(=S)OCCc2ccccn2)cc1[O-])c1ccccc1Cl (protonated)
O=C([N-]c1cc(O)c(NC(=S)OCCc2ccccn2)cc1[O-])c1ccccc1Cl (3D coordinates assigned)
O=C([N-]c1cc(O)c(NC(=S)OCCc2ccccn2)cc1[O-])c1ccccc1Cl (optimized conformer: 61.54226507347198 kcal/mol)

>  <smiles>  (38) 
O=C(Nc1cc(O)c(NC(=S)OCCc2ccccn2)cc1O)c1ccccc1Cl

>  <score_type>  (38) 
oracle

>  <origin>  (38) 
adg

>  <m_score__min__energy>  (38) 
-13.789999999999999

>  <m_primary>  (38) 
energy

$$$$
38:0
     RDKit          3D

 48 50  0  0  0  0  0  0  0  0999 V2000
   55.0530   30.1100   52.4320 C   0  0  0  0  0  0  0  0  0  0  0  0
   56.3940   29.7110   52.1680 O   0  0  0  0  0  0  0  0  0  0  0  0
   57.4040   30.5760   51.7200 C   0  0  0  0  0  0  0  0  0  0  0  0
   58.5180   30.1210   50.9920 C   0  0  0  0  0  0  0  0  0  0  0  0
   59.4950   31.0260   50.5630 C   0  0  0  0  0  0  0  0  0  0  0  0
   59.3760   32.3950   50.8460 C   0  0  0  0  0  0  0  0  0  0  0  0
   60.3930   33.2990   50.3770 N   0  0  0  0  0  0  0  0  0  0  0  0
   60.7550   33.5540   48.6990 S   0  0  0  0  0  0  0  0  0  0  0  0
   62.2260   33.3480   48.4710 O   0  0  0  0  0  0  0  0  0  0  0  0
   60.3960   34.9660   48.3270 O   0  0  0  0  0  0  0  0  0  0  0  0
   59.8620   32.4000   47.7140 C   0  0  0  0  0  0  0  0  0  0  0  0
   58.5860   32.7110   47.2320 C   0  0  0  0  0  0  0  0  0  0  0  0
   57.8680   31.7790   46.4790 C   0  0  0  0  0  0  0  0  0  0  0  0
   58.4030   30.4980   46.2070 C   0  0  0  0  0  0  0  0  0  0  0  0
   57.6740   29.4460   45.3450 C   0  0  0  0  0  0  0  0  0  0  0  0
   56.3540   30.0420   44.8600 C   0  0  0  0  0  0  0  0  0  0  0  0
   55.1480   29.2770   44.8720 N   0  0  0  0  0  0  0  0  0  0  0  0
   56.3340   31.2060   44.3780 O   0  0  0  0  0  0  0  0  0  0  0  0
   57.4390   28.1920   46.2410 C   0  0  0  0  0  0  0  0  0  0  0  0
   57.3850   26.9010   45.4030 C   0  0  0  0  0  0  0  0  0  0  0  0
   58.5790   26.6230   44.6810 O   0  0  0  0  0  0  0  0  0  0  0  0
   59.3300   27.7790   44.3290 C   0  0  0  0  0  0  0  0  0  0  0  0
   58.4610   29.0200   44.0640 C   0  0  0  0  0  0  0  0  0  0  0  0
   59.7120   30.2220   46.6660 C   0  0  0  0  0  0  0  0  0  0  0  0
   60.4240   31.1560   47.4180 C   0  0  0  0  0  0  0  0  0  0  0  0
   58.2660   32.8430   51.5850 C   0  0  0  0  0  0  0  0  0  0  0  0
   57.2910   31.9390   52.0130 C   0  0  0  0  0  0  0  0  0  0  0  0
   54.8920   30.1579   53.5191 H   0  0  0  0  0  0  0  0  0  0  0  0
   54.8716   31.1010   51.9904 H   0  0  0  0  0  0  0  0  0  0  0  0
   54.3594   29.3793   51.9904 H   0  0  0  0  0  0  0  0  0  0  0  0
   58.6214   29.0509   50.7593 H   0  0  0  0  0  0  0  0  0  0  0  0
   60.3652   30.6605   49.9981 H   0  0  0  0  0  0  0  0  0  0  0  0
   61.0230   33.7580   51.0710 H   0  0  0  0  0  0  0  0  0  0  0  0
   58.1454   33.6956   47.4473 H   0  0  0  0  0  0  0  0  0  0  0  0
   56.8731   32.0447   46.0923 H   0  0  0  0  0  0  0  0  0  0  0  0
   54.4710   29.3550   45.6620 H   0  0  0  0  0  0  0  0  0  0  0  0
   58.2614   28.1125   46.9672 H   0  0  0  0  0  0  0  0  0  0  0  0
   56.4733   28.3108   46.7541 H   0  0  0  0  0  0  0  0  0  0  0  0
   57.1879   26.0577   46.0812 H   0  0  0  0  0  0  0  0  0  0  0  0
   56.5901   27.0425   44.6560 H   0  0  0  0  0  0  0  0  0  0  0  0
   60.0220   28.0084   45.1527 H   0  0  0  0  0  0  0  0  0  0  0  0
   59.8575   27.5482   43.3917 H   0  0  0  0  0  0  0  0  0  0  0  0
   59.1094   29.8509   43.7489 H   0  0  0  0  0  0  0  0  0  0  0  0
   57.7342   28.7732   43.2760 H   0  0  0  0  0  0  0  0  0  0  0  0
   60.1764   29.2542   46.4257 H   0  0  0  0  0  0  0  0  0  0  0  0
   61.4336   30.9117   47.7800 H   0  0  0  0  0  0  0  0  0  0  0  0
   58.1653   33.9113   51.8272 H   0  0  0  0  0  0  0  0  0  0  0  0
   56.4255   32.3027   52.5863 H   0  0  0  0  0  0  0  0  0  0  0  0
  1  2  1  0
  2  3  1  0
  3  4  2  0
  4  5  1  0
  5  6  2  0
  6  7  1  0
  7  8  1  0
  8  9  2  0
  8 10  2  0
  8 11  1  0
 11 12  2  0
 12 13  1  0
 13 14  2  0
 14 15  1  0
 15 16  1  0
 16 17  1  0
 16 18  2  0
 15 19  1  0
 19 20  1  0
 20 21  1  0
 21 22  1  0
 22 23  1  0
 14 24  1  0
 24 25  2  0
  6 26  1  0
 26 27  2  0
 27  3  1  0
 25 11  1  0
 23 15  1  0
  1 28  1  0
  1 29  1  0
  1 30  1  0
  4 31  1  0
  5 32  1  0
  7 33  1  0
 12 34  1  0
 13 35  1  0
 17 36  1  0
 19 37  1  0
 19 38  1  0
 20 39  1  0
 20 40  1  0
 22 41  1  0
 22 42  1  0
 23 43  1  0
 23 44  1  0
 24 45  1  0
 25 46  1  0
 26 47  1  0
 27 48  1  0
M  CHG  1  17  -1
M  END
>  <UniqueID>  (39) 
38

>  <SMILES>  (39) 
COc1ccc(NS(=O)(=O)c2ccc(C3(C([NH-])=O)CCOCC3)cc2)cc1

>  <Energy>  (39) 
70.56200781009234

>  <Genealogy>  (39) 
COc1ccc(NS(=O)(=O)c2ccc(C3(C([NH-])=O)CCOCC3)cc2)cc1 (protonated)
COc1ccc(NS(=O)(=O)c2ccc(C3(C([NH-])=O)CCOCC3)cc2)cc1 (3D coordinates assigned)
COc1ccc(NS(=O)(=O)c2ccc(C3(C([NH-])=O)CCOCC3)cc2)cc1 (nonaromatic ring conformer: 70.56200781009234 kcal/mol)

>  <smiles>  (39) 
COc1ccc(NS(=O)(=O)c2ccc(C3(C(N)=O)CCOCC3)cc2)cc1

>  <score_type>  (39) 
oracle

>  <origin>  (39) 
adg

>  <m_score__min__energy>  (39) 
-11.33

>  <m_primary>  (39) 
energy

$$$$
39:0
     RDKit          3D

 63 66  0  0  0  0  0  0  0  0999 V2000
   54.9520   26.3080   45.9800 N   0  0  0  0  0  0  0  0  0  0  0  0
   56.2860   26.0190   46.3920 C   0  0  0  0  0  0  0  0  0  0  0  0
   56.4920   25.1580   47.2880 O   0  0  0  0  0  0  0  0  0  0  0  0
   57.4490   26.6940   45.7270 C   0  0  0  0  0  0  0  0  0  0  0  0
   57.9810   27.7820   46.5710 N   0  0  0  0  0  0  0  0  0  0  0  0
   58.8960   27.4090   47.6300 C   0  0  0  0  0  0  0  0  0  0  0  0
   59.4120   26.2580   47.6290 O   0  0  0  0  0  0  0  0  0  0  0  0
   59.2750   28.3790   48.7180 C   0  0  0  0  0  0  0  0  0  0  0  0
   60.3520   27.8460   49.5490 N   0  0  0  0  0  0  0  0  0  0  0  0
   60.6570   28.3350   50.8590 C   0  0  0  0  0  0  0  0  0  0  0  0
   61.2840   27.6100   51.6780 O   0  0  0  0  0  0  0  0  0  0  0  0
   60.2570   29.7010   51.2330 C   0  0  0  0  0  0  0  0  0  0  0  0
   61.3400   30.9770   51.5110 S   0  0  0  0  0  0  0  0  0  0  0  0
   60.1570   32.1030   51.9070 C   0  0  0  0  0  0  0  0  0  0  0  0
   60.3230   33.4410   52.2540 C   0  0  0  0  0  0  0  0  0  0  0  0
   59.1750   34.2020   52.5240 C   0  0  0  0  0  0  0  0  0  0  0  0
   57.8960   33.6160   52.4430 C   0  0  0  0  0  0  0  0  0  0  0  0
   57.7540   32.2590   52.1000 C   0  0  0  0  0  0  0  0  0  0  0  0
   58.9040   31.5090   51.8300 C   0  0  0  0  0  0  0  0  0  0  0  0
   58.9550   30.1600   51.4530 C   0  0  0  0  0  0  0  0  0  0  0  0
   57.8230   29.3640   51.3110 O   0  0  0  0  0  0  0  0  0  0  0  0
   57.8180   29.2160   46.2110 C   0  0  1  0  0  0  0  0  0  0  0  0
   59.1410   29.8270   45.6860 C   0  0  0  0  0  0  0  0  0  0  0  0
   59.9050   30.6560   46.6900 C   0  0  0  0  0  0  0  0  0  0  0  0
   59.2190   31.4740   47.6040 C   0  0  0  0  0  0  0  0  0  0  0  0
   59.9260   32.2620   48.5190 C   0  0  0  0  0  0  0  0  0  0  0  0
   61.3230   32.2500   48.5200 C   0  0  0  0  0  0  0  0  0  0  0  0
   62.0150   31.4470   47.6060 C   0  0  0  0  0  0  0  0  0  0  0  0
   61.3120   30.6550   46.6930 C   0  0  0  0  0  0  0  0  0  0  0  0
   56.6290   29.5020   45.3030 C   0  0  0  0  0  0  0  0  0  0  0  0
   55.8890   28.5670   44.8980 O   0  0  0  0  0  0  0  0  0  0  0  0
   56.3590   30.8240   44.8160 N   0  0  0  0  0  0  0  0  0  0  0  0
   57.2070   31.5900   43.9090 C   0  0  0  0  0  0  0  0  0  0  0  0
   57.7900   32.7600   44.6480 C   0  0  0  0  0  0  0  0  0  0  0  0
   57.2790   33.1180   45.9080 C   0  0  0  0  0  0  0  0  0  0  0  0
   57.8380   34.1840   46.6190 C   0  0  0  0  0  0  0  0  0  0  0  0
   58.9160   34.8950   46.0810 C   0  0  0  0  0  0  0  0  0  0  0  0
   59.4430   34.5310   44.8360 C   0  0  0  0  0  0  0  0  0  0  0  0
   58.8880   33.4630   44.1240 C   0  0  0  0  0  0  0  0  0  0  0  0
   54.7590   26.7070   45.0340 H   0  0  0  0  0  0  0  0  0  0  0  0
   58.2431   25.9532   45.5519 H   0  0  0  0  0  0  0  0  0  0  0  0
   57.1071   27.1242   44.7741 H   0  0  0  0  0  0  0  0  0  0  0  0
   59.6089   29.3210   48.2586 H   0  0  0  0  0  0  0  0  0  0  0  0
   58.3947   28.5491   49.3553 H   0  0  0  0  0  0  0  0  0  0  0  0
   61.3257   33.8892   52.3149 H   0  0  0  0  0  0  0  0  0  0  0  0
   59.2742   35.2621   52.8005 H   0  0  0  0  0  0  0  0  0  0  0  0
   57.0026   34.2237   52.6494 H   0  0  0  0  0  0  0  0  0  0  0  0
   56.7576   31.7963   52.0451 H   0  0  0  0  0  0  0  0  0  0  0  0
   57.5700   29.7332   47.1497 H   0  0  0  0  0  0  0  0  0  0  0  0
   59.7915   29.0023   45.3593 H   0  0  0  0  0  0  0  0  0  0  0  0
   58.8609   30.5120   44.8722 H   0  0  0  0  0  0  0  0  0  0  0  0
   58.1192   31.4949   47.6001 H   0  0  0  0  0  0  0  0  0  0  0  0
   59.3813   32.8915   49.2381 H   0  0  0  0  0  0  0  0  0  0  0  0
   61.8785   32.8709   49.2383 H   0  0  0  0  0  0  0  0  0  0  0  0
   63.1150   31.4390   47.6059 H   0  0  0  0  0  0  0  0  0  0  0  0
   61.8610   30.0288   45.9744 H   0  0  0  0  0  0  0  0  0  0  0  0
   58.0192   30.9491   43.5353 H   0  0  0  0  0  0  0  0  0  0  0  0
   56.6085   31.9505   43.0594 H   0  0  0  0  0  0  0  0  0  0  0  0
   56.4355   32.5567   46.3363 H   0  0  0  0  0  0  0  0  0  0  0  0
   57.4302   34.4637   47.6016 H   0  0  0  0  0  0  0  0  0  0  0  0
   59.3495   35.7400   46.6361 H   0  0  0  0  0  0  0  0  0  0  0  0
   60.2952   35.0862   44.4171 H   0  0  0  0  0  0  0  0  0  0  0  0
   59.3120   33.1726   43.1514 H   0  0  0  0  0  0  0  0  0  0  0  0
  1  2  1  0
  2  3  2  0
  2  4  1  0
  4  5  1  0
  5  6  1  0
  6  7  2  0
  6  8  1  0
  8  9  1  0
  9 10  1  0
 10 11  2  0
 10 12  1  0
 12 13  1  0
 13 14  1  0
 14 15  2  0
 15 16  1  0
 16 17  2  0
 17 18  1  0
 18 19  2  0
 19 20  1  0
 20 21  1  0
  5 22  1  0
 22 23  1  0
 23 24  1  0
 24 25  2  0
 25 26  1  0
 26 27  2  0
 27 28  1  0
 28 29  2  0
 22 30  1  0
 30 31  2  0
 30 32  1  0
 32 33  1  0
 33 34  1  0
 34 35  2  0
 35 36  1  0
 36 37  2  0
 37 38  1  0
 38 39  2  0
 20 12  2  0
 29 24  1  0
 39 34  1  0
 19 14  1  0
  1 40  1  0
  4 41  1  0
  4 42  1  0
  8 43  1  0
  8 44  1  0
 15 45  1  0
 16 46  1  0
 17 47  1  0
 18 48  1  0
 22 49  1  1
 23 50  1  0
 23 51  1  0
 25 52  1  0
 26 53  1  0
 27 54  1  0
 28 55  1  0
 29 56  1  0
 33 57  1  0
 33 58  1  0
 35 59  1  0
 36 60  1  0
 37 61  1  0
 38 62  1  0
 39 63  1  0
M  CHG  4   1  -1   9  -1  21  -1  32  -1
M  END
>  <UniqueID>  (40) 
39

>  <SMILES>  (40) 
[NH-]C(=O)CN(C(=O)C[N-]C(=O)c1sc2ccccc2c1[O-])[C@@H](Cc1ccccc1)C(=O)[N-]Cc1ccccc1

>  <Energy>  (40) 
99.37232646130431

>  <Genealogy>  (40) 
[NH-]C(=O)CN(C(=O)C[N-]C(=O)c1sc2ccccc2c1[O-])C(Cc1ccccc1)C(=O)[N-]Cc1ccccc1 (protonated)
[NH-]C(=O)CN(C(=O)C[N-]C(=O)c1sc2ccccc2c1[O-])[C@@H](Cc1ccccc1)C(=O)[N-]Cc1ccccc1 (chirality)
[NH-]C(=O)CN(C(=O)C[N-]C(=O)c1sc2ccccc2c1[O-])[C@@H](Cc1ccccc1)C(=O)[N-]Cc1ccccc1 (3D coordinates assigned)
[NH-]C(=O)CN(C(=O)C[N-]C(=O)c1sc2ccccc2c1[O-])[C@@H](Cc1ccccc1)C(=O)[N-]Cc1ccccc1 (optimized conformer: 99.37232646130431 kcal/mol)

>  <smiles>  (40) 
NC(=O)CN(C(=O)CNC(=O)c1sc2ccccc2c1O)C(Cc1ccccc1)C(=O)NCc1ccccc1

>  <score_type>  (40) 
oracle

>  <origin>  (40) 
adg

>  <m_score__min__energy>  (40) 
-18.120000000000001

>  <m_primary>  (40) 
energy

$$$$
40:0
     RDKit          3D

 46 48  0  0  0  0  0  0  0  0999 V2000
   60.2327   28.6115   49.6839 H   0  0  0  0  0  0  0  0  0  0  0  0
   60.2900   29.2270   48.7740 C   0  0  0  0  0  0  0  0  0  0  0  0
   61.1880   30.2400   48.6970 N   0  0  0  0  0  0  0  0  0  0  0  0
   61.2850   31.0090   47.5790 C   0  0  0  0  0  0  0  0  0  0  0  0
   62.1310   31.9950   47.5070 N   0  0  0  0  0  0  0  0  0  0  0  0
   62.8190   32.6230   48.6020 C   0  0  0  0  0  0  0  0  0  0  0  0
   62.1360   33.5750   49.3650 C   0  0  0  0  0  0  0  0  0  0  0  0
   61.0902   33.8185   49.1262 H   0  0  0  0  0  0  0  0  0  0  0  0
   62.7720   34.2180   50.4270 C   0  0  0  0  0  0  0  0  0  0  0  0
   62.2197   34.9489   51.0359 H   0  0  0  0  0  0  0  0  0  0  0  0
   64.1080   33.9360   50.7190 C   0  0  0  0  0  0  0  0  0  0  0  0
   64.5987   34.4349   51.5677 H   0  0  0  0  0  0  0  0  0  0  0  0
   64.8310   33.0180   49.9350 C   0  0  0  0  0  0  0  0  0  0  0  0
   66.2550   32.7420   50.2460 C   0  0  0  0  0  0  0  0  0  0  0  0
   66.6860   31.5590   50.1700 O   0  0  0  0  0  0  0  0  0  0  0  0
   67.1460   33.7920   50.6520 N   0  0  0  0  0  0  0  0  0  0  0  0
   66.7730   34.7380   50.8890 H   0  0  0  0  0  0  0  0  0  0  0  0
   68.5760   33.5610   50.8110 C   0  0  0  0  0  0  0  0  0  0  0  0
   68.8241   33.5209   51.8819 H   0  0  0  0  0  0  0  0  0  0  0  0
   68.8484   32.6072   50.3356 H   0  0  0  0  0  0  0  0  0  0  0  0
   69.1349   34.3805   50.3356 H   0  0  0  0  0  0  0  0  0  0  0  0
   64.1770   32.3650   48.8750 C   0  0  0  0  0  0  0  0  0  0  0  0
   64.7308   31.6461   48.2532 H   0  0  0  0  0  0  0  0  0  0  0  0
   60.4540   30.7730   46.5300 N   0  0  0  0  0  0  0  0  0  0  0  0
   59.5260   29.7750   46.5550 C   0  0  0  0  0  0  0  0  0  0  0  0
   58.6830   29.5510   45.4000 N   0  0  0  0  0  0  0  0  0  0  0  0
   57.3290   30.0470   45.3450 C   0  0  0  0  0  0  0  0  0  0  0  0
   56.3800   29.2490   45.1260 O   0  0  0  0  0  0  0  0  0  0  0  0
   57.0240   31.4250   45.6030 N   0  0  0  0  0  0  0  0  0  0  0  0
   57.9680   32.5060   45.5750 C   0  0  0  0  0  0  0  0  0  0  0  0
   58.5090   33.0440   46.7630 C   0  0  0  0  0  0  0  0  0  0  0  0
   58.1510   32.3570   48.3410 Cl  0  0  0  0  0  0  0  0  0  0  0  0
   59.4140   34.1100   46.6960 C   0  0  0  0  0  0  0  0  0  0  0  0
   59.8232   34.5395   47.6224 H   0  0  0  0  0  0  0  0  0  0  0  0
   59.8000   34.6310   45.4590 C   0  0  0  0  0  0  0  0  0  0  0  0
   60.5026   35.4762   45.4133 H   0  0  0  0  0  0  0  0  0  0  0  0
   59.2940   34.0790   44.2800 C   0  0  0  0  0  0  0  0  0  0  0  0
   59.6090   34.4823   43.3063 H   0  0  0  0  0  0  0  0  0  0  0  0
   58.3880   33.0150   44.3340 C   0  0  0  0  0  0  0  0  0  0  0  0
   57.7610   32.3520   42.8300 Cl  0  0  0  0  0  0  0  0  0  0  0  0
   59.2470   28.8750   44.2250 C   0  0  0  0  0  0  0  0  0  0  0  0
   59.9196   28.0689   44.5534 H   0  0  0  0  0  0  0  0  0  0  0  0
   58.4324   28.4494   43.6206 H   0  0  0  0  0  0  0  0  0  0  0  0
   59.8116   29.6002   43.6206 H   0  0  0  0  0  0  0  0  0  0  0  0
   59.4400   28.9650   47.7020 C   0  0  0  0  0  0  0  0  0  0  0  0
   58.7146   28.1396   47.7514 H   0  0  0  0  0  0  0  0  0  0  0  0
  1  2  1  0
  2  3  1  0
  3  4  1  0
  4  5  2  0
  5  6  1  0
  6  7  2  0
  7  8  1  0
  7  9  1  0
  9 10  1  0
  9 11  2  0
 11 12  1  0
 11 13  1  0
 13 14  1  0
 14 15  2  0
 14 16  1  0
 16 17  1  0
 16 18  1  0
 18 19  1  0
 18 20  1  0
 18 21  1  0
 13 22  2  0
 22 23  1  0
  4 24  1  0
 24 25  2  0
 25 26  1  0
 26 27  1  0
 27 28  2  0
 27 29  1  0
 29 30  1  0
 30 31  2  0
 31 32  1  0
 31 33  1  0
 33 34  1  0
 33 35  2  0
 35 36  1  0
 35 37  1  0
 37 38  1  0
 37 39  2  0
 39 40  1  0
 26 41  1  0
 41 42  1  0
 41 43  1  0
 41 44  1  0
 25 45  1  0
 45 46  1  0
 45  2  2  0
 22  6  1  0
 39 30  1  0
M  CHG  2   3  -1  29  -1
M  END
>  <UniqueID>  (41) 
40

>  <SMILES>  (41) 
CNC(=O)c1cccc(/N=c2/nc(N(C)C(=O)[N-]c3c(Cl)cccc3Cl)cc[n-]2)c1

>  <Energy>  (41) 
68.03206292694531

>  <Genealogy>  (41) 
CNC(=O)c1cccc(N=c2nc(N(C)C(=O)[N-]c3c(Cl)cccc3Cl)cc[n-]2)c1 (protonated)
CNC(=O)c1cccc(/N=c2/nc(N(C)C(=O)[N-]c3c(Cl)cccc3Cl)cc[n-]2)c1 (cis-trans isomerization)
CNC(=O)c1cccc(/N=c2/nc(N(C)C(=O)[N-]c3c(Cl)cccc3Cl)cc[n-]2)c1 (3D coordinates assigned)
CNC(=O)c1cccc(/N=c2/nc(N(C)C(=O)[N-]c3c(Cl)cccc3Cl)cc[n-]2)c1 (optimized conformer: 68.03206292694531 kcal/mol)

>  <smiles>  (41) 
CNC(=O)c1cccc(N=c2nc(N(C)C(=O)Nc3c(Cl)cccc3Cl)cc[nH]2)c1

>  <score_type>  (41) 
oracle

>  <origin>  (41) 
adg

>  <m_score__min__energy>  (41) 
-11.59

>  <m_primary>  (41) 
energy

$$$$
41:0
     RDKit          3D

 51 54  0  0  0  0  0  0  0  0999 V2000
   62.8780   30.5170   50.5860 C   0  0  0  0  0  0  0  0  0  0  0  0
   64.0300   31.3980   50.3780 N   0  0  0  0  0  0  0  0  0  0  0  0
   64.1090   32.4840   49.5550 C   0  0  0  0  0  0  0  0  0  0  0  0
   63.0180   33.0110   48.7090 C   0  0  0  0  0  0  0  0  0  0  0  0
   62.8670   34.2590   48.6070 O   0  0  0  0  0  0  0  0  0  0  0  0
   62.1640   32.1350   47.9640 N   0  0  0  0  0  0  0  0  0  0  0  0
   60.7580   32.3710   47.7840 C   0  0  0  0  0  0  0  0  0  0  0  0
   59.8320   32.0350   48.7870 C   0  0  0  0  0  0  0  0  0  0  0  0
   58.4650   32.2200   48.5760 C   0  0  0  0  0  0  0  0  0  0  0  0
   58.0060   32.7330   47.3640 C   0  0  0  0  0  0  0  0  0  0  0  0
   58.9140   33.0640   46.3510 C   0  0  0  0  0  0  0  0  0  0  0  0
   58.3340   33.6840   44.8080 S   0  0  0  0  0  0  0  0  0  0  0  0
   59.4410   34.3920   44.0780 O   0  0  0  0  0  0  0  0  0  0  0  0
   57.2230   34.6630   45.0570 O   0  0  0  0  0  0  0  0  0  0  0  0
   57.7460   32.3900   43.8140 N   0  0  0  0  0  0  0  0  0  0  0  0
   57.4990   31.0570   44.2780 C   0  0  0  0  0  0  0  0  0  0  0  0
   58.5830   30.2830   44.7210 C   0  0  0  0  0  0  0  0  0  0  0  0
   58.3710   29.0020   45.2370 C   0  0  0  0  0  0  0  0  0  0  0  0
   57.0800   28.4650   45.2920 C   0  0  0  0  0  0  0  0  0  0  0  0
   56.8290   26.8580   45.9730 S   0  0  0  0  0  0  0  0  0  0  0  0
   55.1440   26.4730   45.9770 N   0  0  0  0  0  0  0  0  0  0  0  0
   57.3370   26.8100   47.3860 O   0  0  0  0  0  0  0  0  0  0  0  0
   57.5770   25.8480   45.1530 O   0  0  0  0  0  0  0  0  0  0  0  0
   55.9980   29.2220   44.8200 C   0  0  0  0  0  0  0  0  0  0  0  0
   56.2030   30.5120   44.3170 C   0  0  0  0  0  0  0  0  0  0  0  0
   60.2870   32.8780   46.5620 C   0  0  0  0  0  0  0  0  0  0  0  0
   65.3600   33.0870   49.6580 C   0  0  0  0  0  0  0  0  0  0  0  0
   66.0640   32.3130   50.5550 C   0  0  0  0  0  0  0  0  0  0  0  0
   67.3700   32.4470   51.0230 C   0  0  0  0  0  0  0  0  0  0  0  0
   67.8370   31.4990   51.9500 C   0  0  0  0  0  0  0  0  0  0  0  0
   66.9990   30.4480   52.3810 C   0  0  0  0  0  0  0  0  0  0  0  0
   65.6850   30.3370   51.8890 C   0  0  0  0  0  0  0  0  0  0  0  0
   65.2410   31.2970   50.9690 C   0  0  0  0  0  0  0  0  0  0  0  0
   62.7066   30.3860   51.6646 H   0  0  0  0  0  0  0  0  0  0  0  0
   61.9856   30.9652   50.1248 H   0  0  0  0  0  0  0  0  0  0  0  0
   63.0768   29.5384   50.1248 H   0  0  0  0  0  0  0  0  0  0  0  0
   62.5910   31.2790   47.5330 H   0  0  0  0  0  0  0  0  0  0  0  0
   60.1870   31.6239   49.7436 H   0  0  0  0  0  0  0  0  0  0  0  0
   57.7477   31.9602   49.3684 H   0  0  0  0  0  0  0  0  0  0  0  0
   56.9276   32.8782   47.2030 H   0  0  0  0  0  0  0  0  0  0  0  0
   59.6044   30.6870   44.6616 H   0  0  0  0  0  0  0  0  0  0  0  0
   59.2244   28.4119   45.6023 H   0  0  0  0  0  0  0  0  0  0  0  0
   54.6870   27.0920   46.6800 H   0  0  0  0  0  0  0  0  0  0  0  0
   54.9826   28.7997   44.8452 H   0  0  0  0  0  0  0  0  0  0  0  0
   55.3488   31.1008   43.9515 H   0  0  0  0  0  0  0  0  0  0  0  0
   61.0011   33.1310   45.7644 H   0  0  0  0  0  0  0  0  0  0  0  0
   65.7113   33.9887   49.1350 H   0  0  0  0  0  0  0  0  0  0  0  0
   68.0149   33.2686   50.6779 H   0  0  0  0  0  0  0  0  0  0  0  0
   68.8619   31.5767   52.3420 H   0  0  0  0  0  0  0  0  0  0  0  0
   67.3753   29.7112   53.1059 H   0  0  0  0  0  0  0  0  0  0  0  0
   65.0253   29.5202   52.2170 H   0  0  0  0  0  0  0  0  0  0  0  0
  1  2  1  0
  2  3  1  0
  3  4  1  0
  4  5  2  0
  4  6  1  0
  6  7  1  0
  7  8  2  0
  8  9  1  0
  9 10  2  0
 10 11  1  0
 11 12  1  0
 12 13  2  0
 12 14  2  0
 12 15  1  0
 15 16  1  0
 16 17  2  0
 17 18  1  0
 18 19  2  0
 19 20  1  0
 20 21  1  0
 20 22  2  0
 20 23  2  0
 19 24  1  0
 24 25  2  0
 11 26  2  0
  3 27  2  0
 27 28  1  0
 28 29  2  0
 29 30  1  0
 30 31  2  0
 31 32  1  0
 32 33  2  0
 33  2  1  0
 26  7  1  0
 33 28  1  0
 25 16  1  0
  1 34  1  0
  1 35  1  0
  1 36  1  0
  6 37  1  0
  8 38  1  0
  9 39  1  0
 10 40  1  0
 17 41  1  0
 18 42  1  0
 21 43  1  0
 24 44  1  0
 25 45  1  0
 26 46  1  0
 27 47  1  0
 29 48  1  0
 30 49  1  0
 31 50  1  0
 32 51  1  0
M  CHG  2  15  -1  21  -1
M  END
>  <UniqueID>  (42) 
41

>  <SMILES>  (42) 
Cn1c(C(=O)Nc2cccc(S(=O)(=O)[N-]c3ccc(S([NH-])(=O)=O)cc3)c2)cc2ccccc21

>  <Energy>  (42) 
99.8485404895855

>  <Genealogy>  (42) 
Cn1c(C(=O)Nc2cccc(S(=O)(=O)[N-]c3ccc(S([NH-])(=O)=O)cc3)c2)cc2ccccc21 (protonated)
Cn1c(C(=O)Nc2cccc(S(=O)(=O)[N-]c3ccc(S([NH-])(=O)=O)cc3)c2)cc2ccccc21 (3D coordinates assigned)
Cn1c(C(=O)Nc2cccc(S(=O)(=O)[N-]c3ccc(S([NH-])(=O)=O)cc3)c2)cc2ccccc21 (optimized conformer: 99.8485404895855 kcal/mol)

>  <smiles>  (42) 
Cn1c(C(=O)Nc2cccc(S(=O)(=O)Nc3ccc(S(N)(=O)=O)cc3)c2)cc2ccccc21

>  <score_type>  (42) 
oracle

>  <origin>  (42) 
adg

>  <m_score__min__energy>  (42) 
-13.43

>  <m_primary>  (42) 
energy

$$$$
42:0
     RDKit          3D

 42 44  0  0  0  0  0  0  0  0999 V2000
   56.5300   30.7480   44.2000 C   0  0  0  0  0  0  0  0  0  0  0  0
   57.4300   31.1130   45.2430 O   0  0  0  0  0  0  0  0  0  0  0  0
   58.0780   32.3550   45.3470 C   0  0  0  0  0  0  0  0  0  0  0  0
   57.5410   33.5140   44.7470 C   0  0  0  0  0  0  0  0  0  0  0  0
   58.1860   34.7450   44.8780 C   0  0  0  0  0  0  0  0  0  0  0  0
   59.3700   34.8390   45.6060 C   0  0  0  0  0  0  0  0  0  0  0  0
   59.9180   33.7040   46.2040 C   0  0  0  0  0  0  0  0  0  0  0  0
   59.2880   32.4510   46.0780 C   0  0  0  0  0  0  0  0  0  0  0  0
   59.9000   31.2600   46.7210 C   0  0  0  0  0  0  0  0  0  0  0  0
   61.0210   31.3580   47.2920 O   0  0  0  0  0  0  0  0  0  0  0  0
   59.2410   30.0260   46.6850 O   0  0  0  0  0  0  0  0  0  0  0  0
   59.8840   28.7900   46.3600 C   0  0  1  0  0  0  0  0  0  0  0  0
   59.1880   27.6380   47.0680 C   0  0  0  0  0  0  0  0  0  0  0  0
   57.9450   27.3450   46.2200 C   0  0  2  0  0  0  0  0  0  0  0  0
   57.3230   25.9960   46.4020 N   0  0  0  0  0  0  0  0  0  0  0  0
   58.1680   24.9240   46.5510 C   0  0  0  0  0  0  0  0  0  0  0  0
   57.6810   23.6280   46.7030 C   0  0  0  0  0  0  0  0  0  0  0  0
   56.3120   23.4250   46.6470 C   0  0  0  0  0  0  0  0  0  0  0  0
   55.8320   22.2700   46.7890 O   0  0  0  0  0  0  0  0  0  0  0  0
   55.4910   24.4760   46.4200 N   0  0  0  0  0  0  0  0  0  0  0  0
   55.9700   25.7400   46.2730 C   0  0  0  0  0  0  0  0  0  0  0  0
   55.1470   26.6500   45.9970 O   0  0  0  0  0  0  0  0  0  0  0  0
   58.4310   27.6110   44.7720 C   0  0  0  0  0  0  0  0  0  0  0  0
   58.7550   26.4240   44.1300 F   0  0  0  0  0  0  0  0  0  0  0  0
   57.4420   28.2630   44.0510 F   0  0  0  0  0  0  0  0  0  0  0  0
   59.7000   28.4800   44.8770 C   0  0  1  0  0  0  0  0  0  0  0  0
   59.5950   29.6620   44.1240 O   0  0  0  0  0  0  0  0  0  0  0  0
   55.5951   30.3688   44.6384 H   0  0  0  0  0  0  0  0  0  0  0  0
   56.3126   31.6290   43.5783 H   0  0  0  0  0  0  0  0  0  0  0  0
   56.9877   29.9644   43.5783 H   0  0  0  0  0  0  0  0  0  0  0  0
   56.6062   33.4468   44.1712 H   0  0  0  0  0  0  0  0  0  0  0  0
   57.7588   35.6420   44.4058 H   0  0  0  0  0  0  0  0  0  0  0  0
   59.8743   35.8111   45.7096 H   0  0  0  0  0  0  0  0  0  0  0  0
   60.8515   33.7887   46.7797 H   0  0  0  0  0  0  0  0  0  0  0  0
   60.9412   28.8895   46.6470 H   0  0  0  0  0  0  0  0  0  0  0  0
   59.8445   26.7563   47.1095 H   0  0  0  0  0  0  0  0  0  0  0  0
   58.9298   27.8872   48.1078 H   0  0  0  0  0  0  0  0  0  0  0  0
   57.1042   27.9841   46.5275 H   0  0  0  0  0  0  0  0  0  0  0  0
   59.2550   25.0927   46.5503 H   0  0  0  0  0  0  0  0  0  0  0  0
   58.3683   22.7844   46.8639 H   0  0  0  0  0  0  0  0  0  0  0  0
   60.5680   27.9435   44.4663 H   0  0  0  0  0  0  0  0  0  0  0  0
   58.9130   30.2240   44.5760 H   0  0  0  0  0  0  0  0  0  0  0  0
  1  2  1  0
  2  3  1  0
  3  4  2  0
  4  5  1  0
  5  6  2  0
  6  7  1  0
  7  8  2  0
  8  9  1  0
  9 10  2  0
  9 11  1  0
 11 12  1  0
 12 13  1  0
 13 14  1  0
 14 15  1  0
 15 16  1  0
 16 17  2  0
 17 18  1  0
 18 19  2  0
 18 20  1  0
 20 21  1  0
 21 22  2  0
 14 23  1  0
 23 24  1  0
 23 25  1  0
 23 26  1  0
 26 27  1  0
  8  3  1  0
 26 12  1  0
 21 15  1  0
  1 28  1  0
  1 29  1  0
  1 30  1  0
  4 31  1  0
  5 32  1  0
  6 33  1  0
  7 34  1  0
 12 35  1  1
 13 36  1  0
 13 37  1  0
 14 38  1  1
 16 39  1  0
 17 40  1  0
 26 41  1  6
 27 42  1  0
M  CHG  1  20  -1
M  END
>  <UniqueID>  (43) 
42

>  <SMILES>  (43) 
COc1ccccc1C(=O)O[C@H]1C[C@H](n2ccc(=O)[n-]c2=O)C(F)(F)C1O

>  <Energy>  (43) 
60.300603498847174

>  <Genealogy>  (43) 
COc1ccccc1C(=O)OC1CC(n2ccc(=O)[n-]c2=O)C(F)(F)C1O (protonated)
COc1ccccc1C(=O)O[C@H]1C[C@H](n2ccc(=O)[n-]c2=O)C(F)(F)C1O (chirality)
COc1ccccc1C(=O)O[C@H]1C[C@H](n2ccc(=O)[n-]c2=O)C(F)(F)C1O (3D coordinates assigned)
COc1ccccc1C(=O)O[C@H]1C[C@H](n2ccc(=O)[n-]c2=O)C(F)(F)C1O (nonaromatic ring conformer: 60.300603498847174 kcal/mol)

>  <smiles>  (43) 
COc1ccccc1C(=O)OC1CC(n2ccc(=O)[nH]c2=O)C(F)(F)C1O

>  <score_type>  (43) 
oracle

>  <origin>  (43) 
adg

>  <m_score__min__energy>  (43) 
-8.9700000000000006

>  <m_primary>  (43) 
energy

$$$$
43:0
     RDKit          3D

 49 51  0  0  0  0  0  0  0  0999 V2000
   57.3930   27.7110   45.5220 C   0  0  0  0  0  0  0  0  0  0  0  0
   57.4340   29.0690   44.8810 C   0  0  0  0  0  0  0  0  0  0  0  0
   56.6540   29.3340   43.7430 C   0  0  0  0  0  0  0  0  0  0  0  0
   56.6950   30.5910   43.1360 C   0  0  0  0  0  0  0  0  0  0  0  0
   57.5130   31.5930   43.6590 C   0  0  0  0  0  0  0  0  0  0  0  0
   58.2950   31.3430   44.7890 C   0  0  0  0  0  0  0  0  0  0  0  0
   58.2650   30.0770   45.4110 C   0  0  0  0  0  0  0  0  0  0  0  0
   59.0410   29.7860   46.5490 O   0  0  0  0  0  0  0  0  0  0  0  0
   58.5740   29.8330   47.8980 C   0  0  0  0  0  0  0  0  0  0  0  0
   59.3110   30.8850   48.6830 C   0  0  0  0  0  0  0  0  0  0  0  0
   58.6470   31.6930   49.3870 O   0  0  0  0  0  0  0  0  0  0  0  0
   60.7480   31.0000   48.6330 N   0  0  0  0  0  0  0  0  0  0  0  0
   61.5270   30.4160   47.5330 C   0  0  0  0  0  0  0  0  0  0  0  0
   62.7070   31.3230   47.1280 C   0  0  0  0  0  0  0  0  0  0  0  0
   63.2970   32.1090   48.2450 N   0  0  0  0  0  0  0  0  0  0  0  0
   62.8930   33.8100   48.1070 S   0  0  0  0  0  0  0  0  0  0  0  0
   63.8280   34.4970   47.1510 O   0  0  0  0  0  0  0  0  0  0  0  0
   62.9950   34.4830   49.4480 O   0  0  0  0  0  0  0  0  0  0  0  0
   61.2480   33.9660   47.4930 C   0  0  0  0  0  0  0  0  0  0  0  0
   61.0100   33.8760   46.1140 C   0  0  0  0  0  0  0  0  0  0  0  0
   59.7080   33.9820   45.6180 C   0  0  0  0  0  0  0  0  0  0  0  0
   58.6370   34.1800   46.4940 C   0  0  0  0  0  0  0  0  0  0  0  0
   58.8680   34.2660   47.8710 C   0  0  0  0  0  0  0  0  0  0  0  0
   60.1700   34.1570   48.3700 C   0  0  0  0  0  0  0  0  0  0  0  0
   62.9620   31.5780   49.5810 C   0  0  0  0  0  0  0  0  0  0  0  0
   61.4470   31.5240   49.8110 C   0  0  0  0  0  0  0  0  0  0  0  0
   57.3963   27.8219   46.6164 H   0  0  0  0  0  0  0  0  0  0  0  0
   56.4786   27.1855   45.2095 H   0  0  0  0  0  0  0  0  0  0  0  0
   58.2741   27.1313   45.2095 H   0  0  0  0  0  0  0  0  0  0  0  0
   56.0074   28.5470   43.3278 H   0  0  0  0  0  0  0  0  0  0  0  0
   56.0819   30.7913   42.2449 H   0  0  0  0  0  0  0  0  0  0  0  0
   57.5421   32.5828   43.1800 H   0  0  0  0  0  0  0  0  0  0  0  0
   58.9377   32.1374   45.1962 H   0  0  0  0  0  0  0  0  0  0  0  0
   57.4995   30.0687   47.8996 H   0  0  0  0  0  0  0  0  0  0  0  0
   58.7522   28.8540   48.3669 H   0  0  0  0  0  0  0  0  0  0  0  0
   61.9206   29.4401   47.8533 H   0  0  0  0  0  0  0  0  0  0  0  0
   60.8635   30.3059   46.6625 H   0  0  0  0  0  0  0  0  0  0  0  0
   63.4970   30.6877   46.7010 H   0  0  0  0  0  0  0  0  0  0  0  0
   62.3058   32.0541   46.4107 H   0  0  0  0  0  0  0  0  0  0  0  0
   64.3400   32.0580   48.1550 H   0  0  0  0  0  0  0  0  0  0  0  0
   61.8503   33.7216   45.4211 H   0  0  0  0  0  0  0  0  0  0  0  0
   59.5255   33.9095   44.5357 H   0  0  0  0  0  0  0  0  0  0  0  0
   57.6134   34.2681   46.1010 H   0  0  0  0  0  0  0  0  0  0  0  0
   58.0255   34.4194   48.5614 H   0  0  0  0  0  0  0  0  0  0  0  0
   60.3492   34.2212   49.4534 H   0  0  0  0  0  0  0  0  0  0  0  0
   63.3722   30.5615   49.6728 H   0  0  0  0  0  0  0  0  0  0  0  0
   63.3976   32.2507   50.3345 H   0  0  0  0  0  0  0  0  0  0  0  0
   61.2382   30.8713   50.6715 H   0  0  0  0  0  0  0  0  0  0  0  0
   61.0880   32.5461   50.0019 H   0  0  0  0  0  0  0  0  0  0  0  0
  1  2  1  0
  2  3  2  0
  3  4  1  0
  4  5  2  0
  5  6  1  0
  6  7  2  0
  7  8  1  0
  8  9  1  0
  9 10  1  0
 10 11  2  0
 10 12  1  0
 12 13  1  0
 13 14  1  0
 14 15  1  0
 15 16  1  0
 16 17  2  0
 16 18  2  0
 16 19  1  0
 19 20  2  0
 20 21  1  0
 21 22  2  0
 22 23  1  0
 23 24  2  0
 15 25  1  0
 25 26  1  0
  7  2  1  0
 26 12  1  0
 24 19  1  0
  1 27  1  0
  1 28  1  0
  1 29  1  0
  3 30  1  0
  4 31  1  0
  5 32  1  0
  6 33  1  0
  9 34  1  0
  9 35  1  0
 13 36  1  0
 13 37  1  0
 14 38  1  0
 14 39  1  0
 15 40  1  0
 20 41  1  0
 21 42  1  0
 22 43  1  0
 23 44  1  0
 24 45  1  0
 25 46  1  0
 25 47  1  0
 26 48  1  0
 26 49  1  0
M  CHG  1  15   1
M  END
>  <UniqueID>  (44) 
43

>  <SMILES>  (44) 
Cc1ccccc1OCC(=O)N1CC[NH+](S(=O)(=O)c2ccccc2)CC1

>  <Energy>  (44) 
57.26661240995216

>  <Genealogy>  (44) 
Cc1ccccc1OCC(=O)N1CC[NH+](S(=O)(=O)c2ccccc2)CC1 (protonated)
Cc1ccccc1OCC(=O)N1CC[NH+](S(=O)(=O)c2ccccc2)CC1 (3D coordinates assigned)
Cc1ccccc1OCC(=O)N1CC[NH+](S(=O)(=O)c2ccccc2)CC1 (nonaromatic ring conformer: 57.26661240995216 kcal/mol)

>  <smiles>  (44) 
Cc1ccccc1OCC(=O)N1CCN(S(=O)(=O)c2ccccc2)CC1

>  <score_type>  (44) 
oracle

>  <origin>  (44) 
adg

>  <m_score__min__energy>  (44) 
-7.0599999999999996

>  <m_primary>  (44) 
energy

$$$$
44:0
     RDKit          3D

 45 48  0  0  0  0  0  0  0  0999 V2000
   56.1922   31.3062   42.6422 H   0  0  0  0  0  0  0  0  0  0  0  0
   56.7030   30.7400   43.4350 C   0  0  0  0  0  0  0  0  0  0  0  0
   58.0420   31.0070   43.7330 C   0  0  0  0  0  0  0  0  0  0  0  0
   58.5849   31.7826   43.1729 H   0  0  0  0  0  0  0  0  0  0  0  0
   58.6930   30.2900   44.7420 C   0  0  0  0  0  0  0  0  0  0  0  0
   59.7487   30.4996   44.9690 H   0  0  0  0  0  0  0  0  0  0  0  0
   58.0040   29.3030   45.4670 C   0  0  0  0  0  0  0  0  0  0  0  0
   58.6980   28.5230   46.5510 C   0  0  0  0  0  0  0  0  0  0  0  0
   59.2921   27.7186   46.0928 H   0  0  0  0  0  0  0  0  0  0  0  0
   57.9374   28.1007   47.2242 H   0  0  0  0  0  0  0  0  0  0  0  0
   59.5830   29.3900   47.3280 N   0  0  0  0  0  0  0  0  0  0  0  0
   59.2380   30.0750   48.3810 C   0  0  0  0  0  0  0  0  0  0  0  0
   58.5380   29.5570   49.4190 N   0  0  0  0  0  0  0  0  0  0  0  0
   58.1760   28.5860   49.5510 H   0  0  0  0  0  0  0  0  0  0  0  0
   58.3910   30.5960   50.2540 C   0  0  0  0  0  0  0  0  0  0  0  0
   57.7500   30.6300   51.4770 C   0  0  0  0  0  0  0  0  0  0  0  0
   57.1950   29.6070   51.9570 O   0  0  0  0  0  0  0  0  0  0  0  0
   57.7340   31.8070   52.1530 N   0  0  0  0  0  0  0  0  0  0  0  0
   58.3330   32.9320   51.6540 C   0  0  0  0  0  0  0  0  0  0  0  0
   58.2880   33.9880   52.3420 O   0  0  0  0  0  0  0  0  0  0  0  0
   58.9740   32.9110   50.4270 N   0  0  0  0  0  0  0  0  0  0  0  0
   59.6460   34.1190   49.9270 C   0  0  0  0  0  0  0  0  0  0  0  0
   59.9851   34.7286   50.7775 H   0  0  0  0  0  0  0  0  0  0  0  0
   60.5128   33.8296   49.3147 H   0  0  0  0  0  0  0  0  0  0  0  0
   58.9430   34.7028   49.3147 H   0  0  0  0  0  0  0  0  0  0  0  0
   58.9840   31.7150   49.7410 C   0  0  0  0  0  0  0  0  0  0  0  0
   59.5350   31.3980   48.5330 N   0  0  0  0  0  0  0  0  0  0  0  0
   60.2340   32.2190   47.5310 C   0  0  0  0  0  0  0  0  0  0  0  0
   60.9045   32.9184   48.0518 H   0  0  0  0  0  0  0  0  0  0  0  0
   60.7956   31.5408   46.8718 H   0  0  0  0  0  0  0  0  0  0  0  0
   59.2760   33.0120   46.6720 C   0  0  0  0  0  0  0  0  0  0  0  0
   59.7860   33.8980   45.7050 C   0  0  0  0  0  0  0  0  0  0  0  0
   60.8734   34.0312   45.6055 H   0  0  0  0  0  0  0  0  0  0  0  0
   58.9200   34.6100   44.8700 C   0  0  0  0  0  0  0  0  0  0  0  0
   59.3269   35.3115   44.1268 H   0  0  0  0  0  0  0  0  0  0  0  0
   57.5390   34.4320   44.9780 C   0  0  0  0  0  0  0  0  0  0  0  0
   56.8586   34.9987   44.3255 H   0  0  0  0  0  0  0  0  0  0  0  0
   57.0220   33.5340   45.9150 C   0  0  0  0  0  0  0  0  0  0  0  0
   55.9345   33.3889   45.9940 H   0  0  0  0  0  0  0  0  0  0  0  0
   57.8840   32.8190   46.7530 C   0  0  0  0  0  0  0  0  0  0  0  0
   57.4721   32.1024   47.4788 H   0  0  0  0  0  0  0  0  0  0  0  0
   56.6600   29.0340   45.1540 C   0  0  0  0  0  0  0  0  0  0  0  0
   56.1150   28.2539   45.7058 H   0  0  0  0  0  0  0  0  0  0  0  0
   56.0130   29.7530   44.1450 C   0  0  0  0  0  0  0  0  0  0  0  0
   54.9595   29.5419   43.9093 H   0  0  0  0  0  0  0  0  0  0  0  0
  1  2  1  0
  2  3  2  0
  3  4  1  0
  3  5  1  0
  5  6  1  0
  5  7  2  0
  7  8  1  0
  8  9  1  0
  8 10  1  0
  8 11  1  0
 11 12  2  0
 12 13  1  0
 13 14  1  0
 13 15  1  0
 15 16  1  0
 16 17  2  0
 16 18  1  0
 18 19  1  0
 19 20  2  0
 19 21  1  0
 21 22  1  0
 22 23  1  0
 22 24  1  0
 22 25  1  0
 21 26  1  0
 26 27  1  0
 27 28  1  0
 28 29  1  0
 28 30  1  0
 28 31  1  0
 31 32  2  0
 32 33  1  0
 32 34  1  0
 34 35  1  0
 34 36  2  0
 36 37  1  0
 36 38  1  0
 38 39  1  0
 38 40  2  0
 40 41  1  0
  7 42  1  0
 42 43  1  0
 42 44  2  0
 44 45  1  0
 44  2  1  0
 27 12  1  0
 40 31  1  0
 26 15  2  0
M  CHG  1  18  -1
M  END
>  <UniqueID>  (45) 
44

>  <SMILES>  (45) 
Cn1c(=O)[n-]c(=O)c2[nH]/c(=N\Cc3ccccc3)n(Cc3ccccc3)c21

>  <Energy>  (45) 
99.59026060167663

>  <Genealogy>  (45) 
Cn1c(=O)[n-]c(=O)c2[nH]c(=NCc3ccccc3)n(Cc3ccccc3)c21 (protonated)
Cn1c(=O)[n-]c(=O)c2[nH]/c(=N\Cc3ccccc3)n(Cc3ccccc3)c21 (cis-trans isomerization)
Cn1c(=O)[n-]c(=O)c2[nH]/c(=N\Cc3ccccc3)n(Cc3ccccc3)c21 (3D coordinates assigned)
Cn1c(=O)[n-]c(=O)c2[nH]/c(=N\Cc3ccccc3)n(Cc3ccccc3)c21 (optimized conformer: 99.59026060167663 kcal/mol)

>  <smiles>  (45) 
Cn1c(=O)[nH]c(=O)c2[nH]c(=NCc3ccccc3)n(Cc3ccccc3)c21

>  <score_type>  (45) 
oracle

>  <origin>  (45) 
adg

>  <m_score__min__energy>  (45) 
-10.32

>  <m_primary>  (45) 
energy

$$$$
45:0
     RDKit          3D

 59 62  0  0  0  0  0  0  0  0999 V2000
   56.6930   30.5910   44.0700 C   0  0  0  0  0  0  0  0  0  0  0  0
   57.7570   31.5980   43.6350 C   0  0  0  0  0  0  0  0  0  0  0  0
   57.5860   32.8770   44.3560 N   0  0  0  0  0  0  0  0  0  0  0  0
   57.3360   32.6350   45.7940 C   0  0  0  0  0  0  0  0  0  0  0  0
   57.5390   33.9160   46.6150 C   0  0  0  0  0  0  0  0  0  0  0  0
   58.9220   34.4520   46.5010 N   0  0  0  0  0  0  0  0  0  0  0  0
   59.7170   34.2100   47.7210 C   0  0  0  0  0  0  0  0  0  0  0  0
   59.4290   32.8390   48.2740 C   0  0  0  0  0  0  0  0  0  0  0  0
   59.6920   31.7030   47.4940 C   0  0  0  0  0  0  0  0  0  0  0  0
   59.4340   30.4280   48.0010 C   0  0  0  0  0  0  0  0  0  0  0  0
   58.9200   30.2750   49.2910 C   0  0  0  0  0  0  0  0  0  0  0  0
   58.6610   31.4000   50.0940 C   0  0  0  0  0  0  0  0  0  0  0  0
   58.1180   31.2300   51.4640 C   0  0  0  0  0  0  0  0  0  0  0  0
   58.8940   30.9020   52.4030 O   0  0  0  0  0  0  0  0  0  0  0  0
   56.7310   31.4840   51.7420 N   0  0  0  0  0  0  0  0  0  0  0  0
   56.0350   30.9620   52.8870 C   0  0  0  0  0  0  0  0  0  0  0  0
   56.7230   30.5900   54.0570 C   0  0  0  0  0  0  0  0  0  0  0  0
   56.0280   30.0540   55.1420 C   0  0  0  0  0  0  0  0  0  0  0  0
   54.6440   29.8770   55.0740 C   0  0  0  0  0  0  0  0  0  0  0  0
   53.9430   30.2460   53.9140 C   0  0  0  0  0  0  0  0  0  0  0  0
   52.5270   30.0490   53.7970 N   0  0  0  0  0  0  0  0  0  0  0  0
   51.5890   30.9770   53.2330 C   0  0  0  0  0  0  0  0  0  0  0  0
   50.8160   31.6020   54.0050 O   0  0  0  0  0  0  0  0  0  0  0  0
   51.4630   31.1770   51.7770 C   0  0  0  0  0  0  0  0  0  0  0  0
   51.7060   30.2240   50.8000 C   0  0  0  0  0  0  0  0  0  0  0  0
   51.4280   30.8290   49.5950 C   0  0  0  0  0  0  0  0  0  0  0  0
   51.0230   32.1070   49.9050 C   0  0  0  0  0  0  0  0  0  0  0  0
   50.6410   33.0610   48.9720 O   0  0  0  0  0  0  0  0  0  0  0  0
   51.0330   32.3320   51.2320 N   0  0  0  0  0  0  0  0  0  0  0  0
   54.6470   30.7620   52.8190 C   0  0  0  0  0  0  0  0  0  0  0  0
   58.9110   32.6820   49.5710 C   0  0  0  0  0  0  0  0  0  0  0  0
   59.6460   33.9620   45.3070 C   0  0  0  0  0  0  0  0  0  0  0  0
   58.7040   33.8240   44.1020 C   0  0  0  0  0  0  0  0  0  0  0  0
   56.6521   30.5523   45.1686 H   0  0  0  0  0  0  0  0  0  0  0  0
   55.7131   30.9002   43.6773 H   0  0  0  0  0  0  0  0  0  0  0  0
   56.9479   29.5956   43.6773 H   0  0  0  0  0  0  0  0  0  0  0  0
   58.7540   31.1889   43.8554 H   0  0  0  0  0  0  0  0  0  0  0  0
   57.6522   31.7818   42.5555 H   0  0  0  0  0  0  0  0  0  0  0  0
   56.3013   32.2851   45.9246 H   0  0  0  0  0  0  0  0  0  0  0  0
   58.0491   31.8765   46.1491 H   0  0  0  0  0  0  0  0  0  0  0  0
   56.8337   34.6803   46.2566 H   0  0  0  0  0  0  0  0  0  0  0  0
   57.3628   33.6673   47.6719 H   0  0  0  0  0  0  0  0  0  0  0  0
   60.7869   34.2845   47.4767 H   0  0  0  0  0  0  0  0  0  0  0  0
   59.4476   34.9626   48.4767 H   0  0  0  0  0  0  0  0  0  0  0  0
   60.1027   31.8171   46.4800 H   0  0  0  0  0  0  0  0  0  0  0  0
   59.6361   29.5410   47.3827 H   0  0  0  0  0  0  0  0  0  0  0  0
   58.7164   29.2670   49.6815 H   0  0  0  0  0  0  0  0  0  0  0  0
   56.2280   32.1750   51.1390 H   0  0  0  0  0  0  0  0  0  0  0  0
   57.8134   30.7223   54.1165 H   0  0  0  0  0  0  0  0  0  0  0  0
   56.5723   29.7697   56.0546 H   0  0  0  0  0  0  0  0  0  0  0  0
   54.1024   29.4481   55.9300 H   0  0  0  0  0  0  0  0  0  0  0  0
   52.0516   29.1915   50.9562 H   0  0  0  0  0  0  0  0  0  0  0  0
   51.5121   30.3834   48.5928 H   0  0  0  0  0  0  0  0  0  0  0  0
   54.1062   31.0136   51.8947 H   0  0  0  0  0  0  0  0  0  0  0  0
   58.6988   33.5706   50.1836 H   0  0  0  0  0  0  0  0  0  0  0  0
   60.4468   34.6733   45.0564 H   0  0  0  0  0  0  0  0  0  0  0  0
   60.0642   32.9708   45.5366 H   0  0  0  0  0  0  0  0  0  0  0  0
   58.2822   34.8129   43.8695 H   0  0  0  0  0  0  0  0  0  0  0  0
   59.2931   33.4267   43.2623 H   0  0  0  0  0  0  0  0  0  0  0  0
  1  2  1  0
  2  3  1  0
  3  4  1  0
  4  5  1  0
  5  6  1  0
  6  7  1  0
  7  8  1  0
  8  9  2  0
  9 10  1  0
 10 11  2  0
 11 12  1  0
 12 13  1  0
 13 14  2  0
 13 15  1  0
 15 16  1  0
 16 17  2  0
 17 18  1  0
 18 19  2  0
 19 20  1  0
 20 21  1  0
 21 22  1  0
 22 23  2  0
 22 24  1  0
 24 25  2  0
 25 26  1  0
 26 27  2  0
 27 28  1  0
 27 29  1  0
 20 30  2  0
 12 31  2  0
  6 32  1  0
 32 33  1  0
 33  3  1  0
 31  8  1  0
 30 16  1  0
 29 24  1  0
  1 34  1  0
  1 35  1  0
  1 36  1  0
  2 37  1  0
  2 38  1  0
  4 39  1  0
  4 40  1  0
  5 41  1  0
  5 42  1  0
  7 43  1  0
  7 44  1  0
  9 45  1  0
 10 46  1  0
 11 47  1  0
 15 48  1  0
 17 49  1  0
 18 50  1  0
 19 51  1  0
 25 52  1  0
 26 53  1  0
 30 54  1  0
 31 55  1  0
 32 56  1  0
 32 57  1  0
 33 58  1  0
 33 59  1  0
M  CHG  3  21  -1  28  -1  29  -1
M  END
>  <UniqueID>  (46) 
45

>  <SMILES>  (46) 
CCN1CCN(Cc2cccc(C(=O)Nc3cccc([N-]C(=O)c4ccc([O-])[n-]4)c3)c2)CC1

>  <Energy>  (46) 
108.71196846919764

>  <Genealogy>  (46) 
CCN1CCN(Cc2cccc(C(=O)Nc3cccc([N-]C(=O)c4ccc([O-])[n-]4)c3)c2)CC1 (protonated)
CCN1CCN(Cc2cccc(C(=O)Nc3cccc([N-]C(=O)c4ccc([O-])[n-]4)c3)c2)CC1 (3D coordinates assigned)
CCN1CCN(Cc2cccc(C(=O)Nc3cccc([N-]C(=O)c4ccc([O-])[n-]4)c3)c2)CC1 (nonaromatic ring conformer: 108.71196846919764 kcal/mol)

>  <smiles>  (46) 
CCN1CCN(Cc2cccc(C(=O)Nc3cccc(NC(=O)c4ccc(O)[nH]4)c3)c2)CC1

>  <score_type>  (46) 
oracle

>  <origin>  (46) 
adg

>  <m_score__min__energy>  (46) 
-17.850000000000001

>  <m_primary>  (46) 
energy

$$$$
46:0
     RDKit          3D

 56 59  0  0  0  0  0  0  0  0999 V2000
   54.0780   30.0780   51.6320 C   0  0  0  0  0  0  0  0  0  0  0  0
   55.1080   31.0970   51.7970 N   0  0  0  0  0  0  0  0  0  0  0  0
   56.4970   30.7510   51.9140 C   0  0  0  0  0  0  0  0  0  0  0  0
   56.8270   29.5360   52.0020 O   0  0  0  0  0  0  0  0  0  0  0  0
   57.5510   31.7940   51.9530 C   0  0  0  0  0  0  0  0  0  0  0  0
   57.5790   32.7190   53.0100 C   0  0  0  0  0  0  0  0  0  0  0  0
   58.5550   33.7170   53.0540 C   0  0  0  0  0  0  0  0  0  0  0  0
   59.5260   33.7920   52.0540 C   0  0  0  0  0  0  0  0  0  0  0  0
   59.5430   32.8560   51.0140 C   0  0  0  0  0  0  0  0  0  0  0  0
   60.5530   32.9760   50.0010 N   0  0  0  0  0  0  0  0  0  0  0  0
   60.5290   33.8570   48.8690 C   0  0  0  0  0  0  0  0  0  0  0  0
   61.1640   34.9460   48.9030 O   0  0  0  0  0  0  0  0  0  0  0  0
   59.7150   33.5110   47.6800 C   0  0  0  0  0  0  0  0  0  0  0  0
   60.2360   33.6740   46.3840 C   0  0  0  0  0  0  0  0  0  0  0  0
   59.4770   33.3220   45.2630 C   0  0  0  0  0  0  0  0  0  0  0  0
   58.1890   32.7890   45.4190 C   0  0  0  0  0  0  0  0  0  0  0  0
   57.3930   32.3450   44.2170 C   0  0  0  0  0  0  0  0  0  0  0  0
   56.2830   31.4710   44.6010 N   0  0  0  0  0  0  0  0  0  0  0  0
   56.3380   30.0460   44.7770 C   0  0  0  0  0  0  0  0  0  0  0  0
   55.3000   29.3680   44.5540 O   0  0  0  0  0  0  0  0  0  0  0  0
   57.5830   29.3450   45.1430 C   0  0  0  0  0  0  0  0  0  0  0  0
   58.1810   28.4760   44.2210 C   0  0  0  0  0  0  0  0  0  0  0  0
   59.3940   27.8590   44.5260 C   0  0  0  0  0  0  0  0  0  0  0  0
   60.0150   28.0980   45.7530 C   0  0  0  0  0  0  0  0  0  0  0  0
   59.4200   28.9480   46.7020 C   0  0  0  0  0  0  0  0  0  0  0  0
   60.0920   29.2210   47.9970 C   0  0  0  0  0  0  0  0  0  0  0  0
   60.3920   28.2960   48.9870 C   0  0  0  0  0  0  0  0  0  0  0  0
   61.0280   28.9930   49.9930 C   0  0  0  0  0  0  0  0  0  0  0  0
   61.1250   30.2940   49.6640 N   0  0  0  0  0  0  0  0  0  0  0  0
   60.5610   30.4430   48.4530 C   0  0  0  0  0  0  0  0  0  0  0  0
   58.1890   29.5550   46.3910 C   0  0  0  0  0  0  0  0  0  0  0  0
   57.6540   32.6560   46.7090 C   0  0  0  0  0  0  0  0  0  0  0  0
   58.4120   33.0040   47.8290 C   0  0  0  0  0  0  0  0  0  0  0  0
   58.5440   31.8660   50.9560 C   0  0  0  0  0  0  0  0  0  0  0  0
   53.7356   29.7393   52.6209 H   0  0  0  0  0  0  0  0  0  0  0  0
   53.2291   30.5015   51.0753 H   0  0  0  0  0  0  0  0  0  0  0  0
   54.4924   29.2246   51.0753 H   0  0  0  0  0  0  0  0  0  0  0  0
   54.8060   32.0940   51.8760 H   0  0  0  0  0  0  0  0  0  0  0  0
   56.8261   32.6567   53.8095 H   0  0  0  0  0  0  0  0  0  0  0  0
   58.5585   34.4454   53.8783 H   0  0  0  0  0  0  0  0  0  0  0  0
   60.2816   34.5909   52.0837 H   0  0  0  0  0  0  0  0  0  0  0  0
   61.2489   34.0817   46.2507 H   0  0  0  0  0  0  0  0  0  0  0  0
   59.8922   33.4639   44.2543 H   0  0  0  0  0  0  0  0  0  0  0  0
   56.9893   33.2327   43.7080 H   0  0  0  0  0  0  0  0  0  0  0  0
   58.0614   31.7809   43.5499 H   0  0  0  0  0  0  0  0  0  0  0  0
   57.6930   28.2800   43.2549 H   0  0  0  0  0  0  0  0  0  0  0  0
   59.8629   27.1817   43.7971 H   0  0  0  0  0  0  0  0  0  0  0  0
   60.9781   27.6173   45.9795 H   0  0  0  0  0  0  0  0  0  0  0  0
   60.1670   27.2194   48.9723 H   0  0  0  0  0  0  0  0  0  0  0  0
   61.4015   28.5498   50.9280 H   0  0  0  0  0  0  0  0  0  0  0  0
   61.5610   31.0460   50.2420 H   0  0  0  0  0  0  0  0  0  0  0  0
   60.4832   31.3937   47.9051 H   0  0  0  0  0  0  0  0  0  0  0  0
   57.6971   30.2004   47.1336 H   0  0  0  0  0  0  0  0  0  0  0  0
   56.6303   32.2750   46.8392 H   0  0  0  0  0  0  0  0  0  0  0  0
   57.9864   32.8805   48.8358 H   0  0  0  0  0  0  0  0  0  0  0  0
   58.5385   31.1435   50.1265 H   0  0  0  0  0  0  0  0  0  0  0  0
  1  2  1  0
  2  3  1  0
  3  4  2  0
  3  5  1  0
  5  6  2  0
  6  7  1  0
  7  8  2  0
  8  9  1  0
  9 10  1  0
 10 11  1  0
 11 12  2  0
 11 13  1  0
 13 14  2  0
 14 15  1  0
 15 16  2  0
 16 17  1  0
 17 18  1  0
 18 19  1  0
 19 20  2  0
 19 21  1  0
 21 22  2  0
 22 23  1  0
 23 24  2  0
 24 25  1  0
 25 26  1  0
 26 27  1  0
 27 28  2  0
 28 29  1  0
 29 30  1  0
 25 31  2  0
 16 32  1  0
 32 33  2  0
  9 34  2  0
 34  5  1  0
 33 13  1  0
 31 21  1  0
 30 26  2  0
  1 35  1  0
  1 36  1  0
  1 37  1  0
  2 38  1  0
  6 39  1  0
  7 40  1  0
  8 41  1  0
 14 42  1  0
 15 43  1  0
 17 44  1  0
 17 45  1  0
 22 46  1  0
 23 47  1  0
 24 48  1  0
 27 49  1  0
 28 50  1  0
 29 51  1  0
 30 52  1  0
 31 53  1  0
 32 54  1  0
 33 55  1  0
 34 56  1  0
M  CHG  2  10  -1  18  -1
M  END
>  <UniqueID>  (47) 
46

>  <SMILES>  (47) 
CNC(=O)c1cccc([N-]C(=O)c2ccc(C[N-]C(=O)c3cccc(-c4cc[nH]c4)c3)cc2)c1

>  <Energy>  (47) 
93.82268942059305

>  <Genealogy>  (47) 
CNC(=O)c1cccc([N-]C(=O)c2ccc(C[N-]C(=O)c3cccc(-c4cc[nH]c4)c3)cc2)c1 (protonated)
CNC(=O)c1cccc([N-]C(=O)c2ccc(C[N-]C(=O)c3cccc(-c4cc[nH]c4)c3)cc2)c1 (3D coordinates assigned)
CNC(=O)c1cccc([N-]C(=O)c2ccc(C[N-]C(=O)c3cccc(-c4cc[nH]c4)c3)cc2)c1 (optimized conformer: 93.82268942059305 kcal/mol)

>  <smiles>  (47) 
CNC(=O)c1cccc(NC(=O)c2ccc(CNC(=O)c3cccc(-c4cc[nH]c4)c3)cc2)c1

>  <score_type>  (47) 
oracle

>  <origin>  (47) 
adg

>  <m_score__min__energy>  (47) 
-12.869999999999999

>  <m_primary>  (47) 
energy

$$$$
47:0
     RDKit          3D

 45 47  0  0  0  0  0  0  0  0999 V2000
   54.8740   26.3000   45.9960 O   0  0  0  0  0  0  0  0  0  0  0  0
   55.9350   26.9640   45.8490 C   0  0  0  0  0  0  0  0  0  0  0  0
   55.8880   28.2080   45.2300 O   0  0  0  0  0  0  0  0  0  0  0  0
   57.2430   26.4070   46.3160 C   0  0  0  0  0  0  0  0  0  0  0  0
   58.3470   27.3960   46.0700 C   0  0  0  0  0  0  0  0  0  0  0  0
   59.1560   27.2910   44.9280 C   0  0  0  0  0  0  0  0  0  0  0  0
   60.1630   28.2300   44.6910 C   0  0  0  0  0  0  0  0  0  0  0  0
   60.3590   29.2890   45.5820 C   0  0  0  0  0  0  0  0  0  0  0  0
   59.5490   29.4230   46.7160 C   0  0  0  0  0  0  0  0  0  0  0  0
   59.7640   30.5220   47.5620 O   0  0  0  0  0  0  0  0  0  0  0  0
   58.7750   31.4880   47.9210 C   0  0  0  0  0  0  0  0  0  0  0  0
   58.6300   32.5470   46.8520 C   0  0  0  0  0  0  0  0  0  0  0  0
   57.3450   32.9120   46.4120 C   0  0  0  0  0  0  0  0  0  0  0  0
   57.1830   33.8800   45.4220 C   0  0  0  0  0  0  0  0  0  0  0  0
   58.3000   34.4830   44.8460 C   0  0  0  0  0  0  0  0  0  0  0  0
   59.5830   34.1120   45.2510 C   0  0  0  0  0  0  0  0  0  0  0  0
   59.7650   33.1370   46.2510 C   0  0  0  0  0  0  0  0  0  0  0  0
   61.0460   32.7280   46.6650 O   0  0  0  0  0  0  0  0  0  0  0  0
   62.1920   33.5750   46.7830 C   0  0  0  0  0  0  0  0  0  0  0  0
   62.8400   33.4260   48.1410 C   0  0  0  0  0  0  0  0  0  0  0  0
   64.2100   33.1180   48.2070 C   0  0  0  0  0  0  0  0  0  0  0  0
   64.8550   33.0060   49.4400 C   0  0  0  0  0  0  0  0  0  0  0  0
   64.1430   33.1960   50.6240 C   0  0  0  0  0  0  0  0  0  0  0  0
   64.9550   33.0410   52.1720 Cl  0  0  0  0  0  0  0  0  0  0  0  0
   62.7850   33.5220   50.5760 C   0  0  0  0  0  0  0  0  0  0  0  0
   62.1290   33.6500   49.3450 C   0  0  0  0  0  0  0  0  0  0  0  0
   60.4290   34.1080   49.3650 Cl  0  0  0  0  0  0  0  0  0  0  0  0
   58.5460   28.4630   46.9610 C   0  0  0  0  0  0  0  0  0  0  0  0
   57.1821   26.1912   47.3929 H   0  0  0  0  0  0  0  0  0  0  0  0
   57.4586   25.4833   45.7589 H   0  0  0  0  0  0  0  0  0  0  0  0
   58.9967   26.4667   44.2172 H   0  0  0  0  0  0  0  0  0  0  0  0
   60.8030   28.1357   43.8013 H   0  0  0  0  0  0  0  0  0  0  0  0
   61.1558   30.0228   45.3907 H   0  0  0  0  0  0  0  0  0  0  0  0
   57.8090   30.9793   48.0552 H   0  0  0  0  0  0  0  0  0  0  0  0
   59.0895   31.9772   48.8547 H   0  0  0  0  0  0  0  0  0  0  0  0
   56.4602   32.4295   46.8528 H   0  0  0  0  0  0  0  0  0  0  0  0
   56.1730   34.1682   45.0951 H   0  0  0  0  0  0  0  0  0  0  0  0
   58.1700   35.2526   44.0709 H   0  0  0  0  0  0  0  0  0  0  0  0
   60.4599   34.5853   44.7851 H   0  0  0  0  0  0  0  0  0  0  0  0
   62.9210   33.3039   46.0051 H   0  0  0  0  0  0  0  0  0  0  0  0
   61.8690   34.6195   46.6621 H   0  0  0  0  0  0  0  0  0  0  0  0
   64.7791   32.9638   47.2784 H   0  0  0  0  0  0  0  0  0  0  0  0
   65.9281   32.7672   49.4778 H   0  0  0  0  0  0  0  0  0  0  0  0
   62.2275   33.6791   51.5111 H   0  0  0  0  0  0  0  0  0  0  0  0
   57.9143   28.5505   47.8572 H   0  0  0  0  0  0  0  0  0  0  0  0
  1  2  2  0
  2  3  1  0
  2  4  1  0
  4  5  1  0
  5  6  2  0
  6  7  1  0
  7  8  2  0
  8  9  1  0
  9 10  1  0
 10 11  1  0
 11 12  1  0
 12 13  2  0
 13 14  1  0
 14 15  2  0
 15 16  1  0
 16 17  2  0
 17 18  1  0
 18 19  1  0
 19 20  1  0
 20 21  2  0
 21 22  1  0
 22 23  2  0
 23 24  1  0
 23 25  1  0
 25 26  2  0
 26 27  1  0
  9 28  2  0
 28  5  1  0
 17 12  1  0
 26 20  1  0
  4 29  1  0
  4 30  1  0
  6 31  1  0
  7 32  1  0
  8 33  1  0
 11 34  1  0
 11 35  1  0
 13 36  1  0
 14 37  1  0
 15 38  1  0
 16 39  1  0
 19 40  1  0
 19 41  1  0
 21 42  1  0
 22 43  1  0
 25 44  1  0
 28 45  1  0
M  CHG  1   3  -1
M  END
>  <UniqueID>  (48) 
47

>  <SMILES>  (48) 
O=C([O-])Cc1cccc(OCc2ccccc2OCc2ccc(Cl)cc2Cl)c1

>  <Energy>  (48) 
44.89946309904216

>  <Genealogy>  (48) 
O=C([O-])Cc1cccc(OCc2ccccc2OCc2ccc(Cl)cc2Cl)c1 (protonated)
O=C([O-])Cc1cccc(OCc2ccccc2OCc2ccc(Cl)cc2Cl)c1 (3D coordinates assigned)
O=C([O-])Cc1cccc(OCc2ccccc2OCc2ccc(Cl)cc2Cl)c1 (optimized conformer: 44.89946309904216 kcal/mol)

>  <smiles>  (48) 
O=C(O)Cc1cccc(OCc2ccccc2OCc2ccc(Cl)cc2Cl)c1

>  <score_type>  (48) 
oracle

>  <origin>  (48) 
adg

>  <m_score__min__energy>  (48) 
-12.5

>  <m_primary>  (48) 
energy

$$$$
48:0
     RDKit          3D

 34 35  0  0  0  0  0  0  0  0999 V2000
   54.7860   26.3430   46.0230 N   0  0  0  0  0  0  0  0  0  0  0  0
   56.3320   25.6300   46.3200 S   0  0  0  0  0  0  0  0  0  0  0  0
   56.6770   24.6920   45.1970 O   0  0  0  0  0  0  0  0  0  0  0  0
   56.2840   24.8490   47.6030 O   0  0  0  0  0  0  0  0  0  0  0  0
   57.5510   26.8950   46.4340 C   0  0  0  0  0  0  0  0  0  0  0  0
   57.4620   28.0360   45.6270 C   0  0  0  0  0  0  0  0  0  0  0  0
   58.4380   29.0330   45.7080 C   0  0  0  0  0  0  0  0  0  0  0  0
   59.5080   28.9100   46.6060 C   0  0  0  0  0  0  0  0  0  0  0  0
   60.5120   29.9380   46.6520 N   0  0  0  0  0  0  0  0  0  0  0  0
   60.5870   30.9410   47.6830 C   0  0  0  0  0  0  0  0  0  0  0  0
   59.6830   31.0080   48.5610 O   0  0  0  0  0  0  0  0  0  0  0  0
   61.7090   31.9090   47.7350 C   0  0  0  0  0  0  0  0  0  0  0  0
   61.8320   32.9400   46.7850 C   0  0  0  0  0  0  0  0  0  0  0  0
   62.8970   33.8410   46.8540 C   0  0  0  0  0  0  0  0  0  0  0  0
   63.8450   33.7340   47.8740 C   0  0  0  0  0  0  0  0  0  0  0  0
   63.7250   32.7270   48.8410 C   0  0  0  0  0  0  0  0  0  0  0  0
   64.9220   32.5820   50.1240 S   0  0  0  0  0  0  0  0  0  0  0  0
   64.6200   33.7780   51.3330 N   0  0  0  0  0  0  0  0  0  0  0  0
   64.8450   31.2140   50.7440 O   0  0  0  0  0  0  0  0  0  0  0  0
   66.3000   32.7770   49.5560 O   0  0  0  0  0  0  0  0  0  0  0  0
   62.6600   31.8190   48.7670 C   0  0  0  0  0  0  0  0  0  0  0  0
   59.6120   27.7470   47.3910 C   0  0  0  0  0  0  0  0  0  0  0  0
   58.6360   26.7500   47.3080 C   0  0  0  0  0  0  0  0  0  0  0  0
   54.6530   27.0920   46.7390 H   0  0  0  0  0  0  0  0  0  0  0  0
   56.6210   28.1479   44.9269 H   0  0  0  0  0  0  0  0  0  0  0  0
   58.3663   29.9208   45.0625 H   0  0  0  0  0  0  0  0  0  0  0  0
   61.1860   29.9730   45.8560 H   0  0  0  0  0  0  0  0  0  0  0  0
   61.0850   33.0368   45.9834 H   0  0  0  0  0  0  0  0  0  0  0  0
   62.9895   34.6383   46.1018 H   0  0  0  0  0  0  0  0  0  0  0  0
   64.6866   34.4409   47.9183 H   0  0  0  0  0  0  0  0  0  0  0  0
   64.5310   33.2740   52.2440 H   0  0  0  0  0  0  0  0  0  0  0  0
   62.5670   31.0270   49.5247 H   0  0  0  0  0  0  0  0  0  0  0  0
   60.4656   27.6218   48.0734 H   0  0  0  0  0  0  0  0  0  0  0  0
   58.7203   25.8478   47.9316 H   0  0  0  0  0  0  0  0  0  0  0  0
  1  2  1  0
  2  3  2  0
  2  4  2  0
  2  5  1  0
  5  6  2  0
  6  7  1  0
  7  8  2  0
  8  9  1  0
  9 10  1  0
 10 11  2  0
 10 12  1  0
 12 13  2  0
 13 14  1  0
 14 15  2  0
 15 16  1  0
 16 17  1  0
 17 18  1  0
 17 19  2  0
 17 20  2  0
 16 21  2  0
  8 22  1  0
 22 23  2  0
 23  5  1  0
 21 12  1  0
  1 24  1  0
  6 25  1  0
  7 26  1  0
  9 27  1  0
 13 28  1  0
 14 29  1  0
 15 30  1  0
 18 31  1  0
 21 32  1  0
 22 33  1  0
 23 34  1  0
M  CHG  2   1  -1  18  -1
M  END
>  <UniqueID>  (49) 
48

>  <SMILES>  (49) 
[NH-]S(=O)(=O)c1ccc(NC(=O)c2cccc(S([NH-])(=O)=O)c2)cc1

>  <Energy>  (49) 
41.0780699517215

>  <Genealogy>  (49) 
[NH-]S(=O)(=O)c1ccc(NC(=O)c2cccc(S([NH-])(=O)=O)c2)cc1 (protonated)
[NH-]S(=O)(=O)c1ccc(NC(=O)c2cccc(S([NH-])(=O)=O)c2)cc1 (3D coordinates assigned)
[NH-]S(=O)(=O)c1ccc(NC(=O)c2cccc(S([NH-])(=O)=O)c2)cc1 (optimized conformer: 41.0780699517215 kcal/mol)

>  <smiles>  (49) 
NS(=O)(=O)c1ccc(NC(=O)c2cccc(S(N)(=O)=O)c2)cc1

>  <score_type>  (49) 
oracle

>  <origin>  (49) 
adg

>  <m_score__min__energy>  (49) 
-11

>  <m_primary>  (49) 
energy

$$$$
49:0
     RDKit          3D

 30 31  0  0  0  0  0  0  0  0999 V2000
   58.8840   24.7550   45.4140 N   0  0  0  0  0  0  0  0  0  0  0  0
   58.3620   23.1220   45.6340 S   0  0  0  0  0  0  0  0  0  0  0  0
   57.7250   22.9690   46.9860 O   0  0  0  0  0  0  0  0  0  0  0  0
   59.5540   22.2090   45.5420 O   0  0  0  0  0  0  0  0  0  0  0  0
   57.2020   22.6950   44.3860 C   0  0  0  0  0  0  0  0  0  0  0  0
   57.3160   21.6780   43.4660 C   0  0  0  0  0  0  0  0  0  0  0  0
   56.2140   21.6650   42.6900 N   0  0  0  0  0  0  0  0  0  0  0  0
   55.4030   22.6360   43.0850 N   0  0  0  0  0  0  0  0  0  0  0  0
   55.9800   23.2760   44.1210 C   0  0  0  0  0  0  0  0  0  0  0  0
   55.3580   24.4400   44.8310 C   0  0  0  0  0  0  0  0  0  0  0  0
   56.1210   24.7980   45.9810 O   0  0  0  0  0  0  0  0  0  0  0  0
   56.5090   26.1110   46.2680 C   0  0  0  0  0  0  0  0  0  0  0  0
   57.5230   26.3360   46.9830 O   0  0  0  0  0  0  0  0  0  0  0  0
   55.7660   27.1910   45.6930 N   0  0  0  0  0  0  0  0  0  0  0  0
   56.2910   28.4500   45.2490 C   0  0  0  0  0  0  0  0  0  0  0  0
   55.5220   29.3570   44.4930 C   0  0  0  0  0  0  0  0  0  0  0  0
   56.0810   30.5640   44.0620 C   0  0  0  0  0  0  0  0  0  0  0  0
   57.4110   30.8720   44.3680 C   0  0  0  0  0  0  0  0  0  0  0  0
   58.1100   32.3860   43.8240 Cl  0  0  0  0  0  0  0  0  0  0  0  0
   58.1860   29.9640   45.0980 C   0  0  0  0  0  0  0  0  0  0  0  0
   57.6300   28.7560   45.5290 C   0  0  0  0  0  0  0  0  0  0  0  0
   58.0470   25.3060   45.1190 H   0  0  0  0  0  0  0  0  0  0  0  0
   59.1680   25.1140   46.3530 H   0  0  0  0  0  0  0  0  0  0  0  0
   58.1680   20.9878   43.3782 H   0  0  0  0  0  0  0  0  0  0  0  0
   55.3143   25.2991   44.1454 H   0  0  0  0  0  0  0  0  0  0  0  0
   54.3456   24.1560   45.1540 H   0  0  0  0  0  0  0  0  0  0  0  0
   54.4790   29.1148   44.2412 H   0  0  0  0  0  0  0  0  0  0  0  0
   55.4735   31.2733   43.4808 H   0  0  0  0  0  0  0  0  0  0  0  0
   59.2341   30.2011   45.3330 H   0  0  0  0  0  0  0  0  0  0  0  0
   58.2476   28.0406   46.0918 H   0  0  0  0  0  0  0  0  0  0  0  0
  1  2  1  0
  2  3  2  0
  2  4  2  0
  2  5  1  0
  5  6  2  0
  6  7  1  0
  7  8  1  0
  8  9  2  0
  9 10  1  0
 10 11  1  0
 11 12  1  0
 12 13  2  0
 12 14  1  0
 14 15  1  0
 15 16  2  0
 16 17  1  0
 17 18  2  0
 18 19  1  0
 18 20  1  0
 20 21  2  0
  9  5  1  0
 21 15  1  0
  1 22  1  0
  1 23  1  0
  6 24  1  0
 10 25  1  0
 10 26  1  0
 16 27  1  0
 17 28  1  0
 20 29  1  0
 21 30  1  0
M  CHG  2   7  -1  14  -1
M  END
>  <UniqueID>  (50) 
49

>  <SMILES>  (50) 
NS(=O)(=O)c1c[n-]nc1COC(=O)[N-]c1ccc(Cl)cc1

>  <Energy>  (50) 
59.75632545720778

>  <Genealogy>  (50) 
NS(=O)(=O)c1c[n-]nc1COC(=O)[N-]c1ccc(Cl)cc1 (protonated)
NS(=O)(=O)c1c[n-]nc1COC(=O)[N-]c1ccc(Cl)cc1 (3D coordinates assigned)
NS(=O)(=O)c1c[n-]nc1COC(=O)[N-]c1ccc(Cl)cc1 (optimized conformer: 59.75632545720778 kcal/mol)

>  <smiles>  (50) 
NS(=O)(=O)c1c[nH]nc1COC(=O)Nc1ccc(Cl)cc1

>  <score_type>  (50) 
oracle

>  <origin>  (50) 
adg

>  <m_score__min__energy>  (50) 
-9.9000000000000004

>  <m_primary>  (50) 
energy

$$$$
50:0
     RDKit          3D

 38 40  0  0  0  0  0  0  0  0999 V2000
   59.6630   34.9900   46.6380 C   0  0  0  0  0  0  0  0  0  0  0  0
   59.0970   34.6960   45.2490 C   0  0  0  0  0  0  0  0  0  0  0  0
   57.7290   34.0050   45.3090 C   0  0  0  0  0  0  0  0  0  0  0  0
   57.8610   32.5180   45.4110 C   0  0  0  0  0  0  0  0  0  0  0  0
   56.8860   31.6550   45.0310 N   0  0  0  0  0  0  0  0  0  0  0  0
   57.2580   30.3850   45.1710 N   0  0  0  0  0  0  0  0  0  0  0  0
   56.4830   29.3130   44.8670 C   0  0  0  0  0  0  0  0  0  0  0  0
   55.3140   29.4680   44.4200 O   0  0  0  0  0  0  0  0  0  0  0  0
   57.0050   28.0260   45.0550 C   0  0  0  0  0  0  0  0  0  0  0  0
   58.3160   27.8920   45.5550 C   0  0  0  0  0  0  0  0  0  0  0  0
   58.9180   26.5320   45.7430 C   0  0  0  0  0  0  0  0  0  0  0  0
   58.0550   25.7100   46.5240 O   0  0  0  0  0  0  0  0  0  0  0  0
   56.8950   25.1100   46.0190 C   0  0  0  0  0  0  0  0  0  0  0  0
   55.7590   25.5370   46.3670 O   0  0  0  0  0  0  0  0  0  0  0  0
   57.0040   23.9770   45.0730 C   0  0  0  0  0  0  0  0  0  0  0  0
   56.1890   23.9280   43.9280 C   0  0  0  0  0  0  0  0  0  0  0  0
   56.2930   22.8590   43.0320 C   0  0  0  0  0  0  0  0  0  0  0  0
   57.2070   21.8310   43.2690 C   0  0  0  0  0  0  0  0  0  0  0  0
   58.0210   21.8700   44.4030 C   0  0  0  0  0  0  0  0  0  0  0  0
   57.9230   22.9350   45.3020 C   0  0  0  0  0  0  0  0  0  0  0  0
   59.0540   29.0040   45.8400 N   0  0  0  0  0  0  0  0  0  0  0  0
   58.5120   30.2290   45.6460 C   0  0  0  0  0  0  0  0  0  0  0  0
   59.2610   31.7060   45.9290 S   0  0  0  0  0  0  0  0  0  0  0  0
   58.9624   34.6261   47.4040 H   0  0  0  0  0  0  0  0  0  0  0  0
   60.6310   34.4807   46.7548 H   0  0  0  0  0  0  0  0  0  0  0  0
   59.8030   36.0748   46.7548 H   0  0  0  0  0  0  0  0  0  0  0  0
   58.9897   35.6450   44.7032 H   0  0  0  0  0  0  0  0  0  0  0  0
   59.7947   34.0147   44.7400 H   0  0  0  0  0  0  0  0  0  0  0  0
   57.1816   34.3749   46.1885 H   0  0  0  0  0  0  0  0  0  0  0  0
   57.1879   34.2371   44.3798 H   0  0  0  0  0  0  0  0  0  0  0  0
   56.4027   27.1369   44.8168 H   0  0  0  0  0  0  0  0  0  0  0  0
   59.0713   26.0644   44.7592 H   0  0  0  0  0  0  0  0  0  0  0  0
   59.8801   26.6370   46.2659 H   0  0  0  0  0  0  0  0  0  0  0  0
   55.4660   24.7345   43.7360 H   0  0  0  0  0  0  0  0  0  0  0  0
   55.6527   22.8283   42.1381 H   0  0  0  0  0  0  0  0  0  0  0  0
   57.2860   20.9910   42.5632 H   0  0  0  0  0  0  0  0  0  0  0  0
   58.7415   21.0599   44.5890 H   0  0  0  0  0  0  0  0  0  0  0  0
   58.5671   22.9596   46.1933 H   0  0  0  0  0  0  0  0  0  0  0  0
  1  2  1  0
  2  3  1  0
  3  4  1  0
  4  5  2  0
  5  6  1  0
  6  7  1  0
  7  8  2  0
  7  9  1  0
  9 10  2  0
 10 11  1  0
 11 12  1  0
 12 13  1  0
 13 14  2  0
 13 15  1  0
 15 16  2  0
 16 17  1  0
 17 18  2  0
 18 19  1  0
 19 20  2  0
 10 21  1  0
 21 22  2  0
 22 23  1  0
 23  4  1  0
 22  6  1  0
 20 15  1  0
  1 24  1  0
  1 25  1  0
  1 26  1  0
  2 27  1  0
  2 28  1  0
  3 29  1  0
  3 30  1  0
  9 31  1  0
 11 32  1  0
 11 33  1  0
 16 34  1  0
 17 35  1  0
 18 36  1  0
 19 37  1  0
 20 38  1  0
M  END
>  <UniqueID>  (51) 
50

>  <SMILES>  (51) 
CCCc1nn2c(=O)cc(COC(=O)c3ccccc3)nc2s1

>  <Energy>  (51) 
70.98791391608661

>  <Genealogy>  (51) 
CCCc1nn2c(=O)cc(COC(=O)c3ccccc3)nc2s1 (3D coordinates assigned)
CCCc1nn2c(=O)cc(COC(=O)c3ccccc3)nc2s1 (optimized conformer: 70.98791391608661 kcal/mol)

>  <smiles>  (51) 
CCCc1nn2c(=O)cc(COC(=O)c3ccccc3)nc2s1

>  <score_type>  (51) 
oracle

>  <origin>  (51) 
adg

>  <m_score__min__energy>  (51) 
-8.25

>  <m_primary>  (51) 
energy

$$$$
51:0
     RDKit          3D

 52 54  0  0  0  0  0  0  0  0999 V2000
   59.5190   26.7510   47.9510 N   0  0  0  0  0  0  0  0  0  0  0  0
   58.7590   27.8390   47.3370 C   0  0  2  0  0  0  0  0  0  0  0  0
   59.2490   28.0710   45.8940 C   0  0  0  0  0  0  0  0  0  0  0  0
   58.3390   29.0100   45.1350 C   0  0  0  0  0  0  0  0  0  0  0  0
   58.8810   30.1350   44.4900 C   0  0  0  0  0  0  0  0  0  0  0  0
   58.0570   30.9940   43.7580 C   0  0  0  0  0  0  0  0  0  0  0  0
   56.6870   30.7350   43.6580 C   0  0  0  0  0  0  0  0  0  0  0  0
   56.1400   29.6140   44.2880 C   0  0  0  0  0  0  0  0  0  0  0  0
   54.8100   29.3640   44.1850 F   0  0  0  0  0  0  0  0  0  0  0  0
   56.9590   28.7500   45.0240 C   0  0  0  0  0  0  0  0  0  0  0  0
   56.4070   27.6640   45.6230 F   0  0  0  0  0  0  0  0  0  0  0  0
   58.9170   29.0880   48.1610 C   0  0  0  0  0  0  0  0  0  0  0  0
   58.5350   30.1970   47.6990 O   0  0  0  0  0  0  0  0  0  0  0  0
   59.5280   29.0150   49.4530 N   0  0  0  0  0  0  0  0  0  0  0  0
   60.5600   29.9440   49.9080 C   0  0  1  0  0  0  0  0  0  0  0  0
   61.3260   30.5530   48.7470 C   0  0  0  0  0  0  0  0  0  0  0  0
   61.8140   31.8590   49.2060 N   0  0  0  0  0  0  0  0  0  0  0  0
   61.8390   33.0170   47.8990 S   0  0  0  0  0  0  0  0  0  0  0  0
   61.5690   32.3040   46.6030 O   0  0  0  0  0  0  0  0  0  0  0  0
   63.1840   33.6860   47.8240 O   0  0  0  0  0  0  0  0  0  0  0  0
   60.5720   34.2480   48.1650 C   0  0  0  0  0  0  0  0  0  0  0  0
   59.4960   34.1270   47.1220 C   0  0  0  0  0  0  0  0  0  0  0  0
   59.6500   34.7490   45.8720 C   0  0  0  0  0  0  0  0  0  0  0  0
   58.6640   34.6100   44.8910 C   0  0  0  0  0  0  0  0  0  0  0  0
   57.5230   33.8440   45.1470 C   0  0  0  0  0  0  0  0  0  0  0  0
   57.3690   33.2130   46.3850 C   0  0  0  0  0  0  0  0  0  0  0  0
   58.3530   33.3490   47.3690 C   0  0  0  0  0  0  0  0  0  0  0  0
   60.9300   32.2970   50.3000 C   0  0  0  0  0  0  0  0  0  0  0  0
   59.9650   31.1520   50.6200 C   0  0  1  0  0  0  0  0  0  0  0  0
   58.6610   31.4470   50.1750 O   0  0  0  0  0  0  0  0  0  0  0  0
   59.5450   26.9090   48.9860 H   0  0  0  0  0  0  0  0  0  0  0  0
   60.5120   26.8170   47.6270 H   0  0  0  0  0  0  0  0  0  0  0  0
   57.6926   27.5714   47.3015 H   0  0  0  0  0  0  0  0  0  0  0  0
   60.2597   28.5039   45.9267 H   0  0  0  0  0  0  0  0  0  0  0  0
   59.2501   27.1018   45.3738 H   0  0  0  0  0  0  0  0  0  0  0  0
   59.9593   30.3403   44.5618 H   0  0  0  0  0  0  0  0  0  0  0  0
   58.4871   31.8753   43.2597 H   0  0  0  0  0  0  0  0  0  0  0  0
   56.0395   31.4136   43.0834 H   0  0  0  0  0  0  0  0  0  0  0  0
   61.2011   29.3397   50.5666 H   0  0  0  0  0  0  0  0  0  0  0  0
   62.1725   29.9073   48.4703 H   0  0  0  0  0  0  0  0  0  0  0  0
   60.6842   30.6586   47.8599 H   0  0  0  0  0  0  0  0  0  0  0  0
   60.1290   34.1026   49.1613 H   0  0  0  0  0  0  0  0  0  0  0  0
   61.0257   35.2476   48.0951 H   0  0  0  0  0  0  0  0  0  0  0  0
   60.5494   35.3474   45.6645 H   0  0  0  0  0  0  0  0  0  0  0  0
   58.7861   35.1042   43.9159 H   0  0  0  0  0  0  0  0  0  0  0  0
   56.7468   33.7378   44.3748 H   0  0  0  0  0  0  0  0  0  0  0  0
   56.4721   32.6085   46.5853 H   0  0  0  0  0  0  0  0  0  0  0  0
   58.2316   32.8453   48.3393 H   0  0  0  0  0  0  0  0  0  0  0  0
   61.5298   32.5387   51.1898 H   0  0  0  0  0  0  0  0  0  0  0  0
   60.3696   33.1949   50.0005 H   0  0  0  0  0  0  0  0  0  0  0  0
   59.8611   30.9733   51.7004 H   0  0  0  0  0  0  0  0  0  0  0  0
   58.4750   30.8890   49.3740 H   0  0  0  0  0  0  0  0  0  0  0  0
  1  2  1  0
  2  3  1  0
  3  4  1  0
  4  5  2  0
  5  6  1  0
  6  7  2  0
  7  8  1  0
  8  9  1  0
  8 10  2  0
 10 11  1  0
  2 12  1  0
 12 13  2  0
 12 14  1  0
 14 15  1  0
 15 16  1  0
 16 17  1  0
 17 18  1  0
 18 19  2  0
 18 20  2  0
 18 21  1  0
 21 22  1  0
 22 23  2  0
 23 24  1  0
 24 25  2  0
 25 26  1  0
 26 27  2  0
 17 28  1  0
 28 29  1  0
 29 30  1  0
 10  4  1  0
 29 15  1  0
 27 22  1  0
  1 31  1  0
  1 32  1  0
  2 33  1  6
  3 34  1  0
  3 35  1  0
  5 36  1  0
  6 37  1  0
  7 38  1  0
 15 39  1  1
 16 40  1  0
 16 41  1  0
 21 42  1  0
 21 43  1  0
 23 44  1  0
 24 45  1  0
 25 46  1  0
 26 47  1  0
 27 48  1  0
 28 49  1  0
 28 50  1  0
 29 51  1  1
 30 52  1  0
M  CHG  1  14  -1
M  END
>  <UniqueID>  (52) 
51

>  <SMILES>  (52) 
N[C@H](Cc1cccc(F)c1F)C(=O)[N-][C@H]1CN(S(=O)(=O)Cc2ccccc2)CC1O

>  <Energy>  (52) 
46.64858830447207

>  <Genealogy>  (52) 
NC(Cc1cccc(F)c1F)C(=O)[N-]C1CN(S(=O)(=O)Cc2ccccc2)CC1O (protonated)
N[C@H](Cc1cccc(F)c1F)C(=O)[N-][C@H]1CN(S(=O)(=O)Cc2ccccc2)CC1O (chirality)
N[C@H](Cc1cccc(F)c1F)C(=O)[N-][C@H]1CN(S(=O)(=O)Cc2ccccc2)CC1O (3D coordinates assigned)
N[C@H](Cc1cccc(F)c1F)C(=O)[N-][C@H]1CN(S(=O)(=O)Cc2ccccc2)CC1O (nonaromatic ring conformer: 46.64858830447207 kcal/mol)

>  <smiles>  (52) 
NC(Cc1cccc(F)c1F)C(=O)NC1CN(S(=O)(=O)Cc2ccccc2)CC1O

>  <score_type>  (52) 
oracle

>  <origin>  (52) 
adg

>  <m_score__min__energy>  (52) 
-10.32

>  <m_primary>  (52) 
energy

$$$$
52:0
     RDKit          3D

 54 56  0  0  0  0  0  0  0  0999 V2000
   64.7230   32.8240   52.9060 C   0  0  0  0  0  0  0  0  0  0  0  0
   64.5800   33.5300   51.6270 N   0  0  0  0  0  0  0  0  0  0  0  0
   63.2790   34.1980   51.3420 C   0  0  0  0  0  0  0  0  0  0  0  0
   61.9890   33.5050   51.8500 C   0  0  0  0  0  0  0  0  0  0  0  0
   60.8820   33.4400   50.8250 C   0  0  0  0  0  0  0  0  0  0  0  0
   59.8480   32.4930   50.9570 C   0  0  0  0  0  0  0  0  0  0  0  0
   58.8690   32.3710   49.9650 C   0  0  0  0  0  0  0  0  0  0  0  0
   58.9080   33.1970   48.8370 C   0  0  0  0  0  0  0  0  0  0  0  0
   59.9380   34.1300   48.6900 C   0  0  0  0  0  0  0  0  0  0  0  0
   60.9280   34.2430   49.6710 C   0  0  0  0  0  0  0  0  0  0  0  0
   65.1290   32.5450   50.2900 S   0  0  0  0  0  0  0  0  0  0  0  0
   66.4410   33.0910   49.7950 O   0  0  0  0  0  0  0  0  0  0  0  0
   65.3630   31.1340   50.7550 O   0  0  0  0  0  0  0  0  0  0  0  0
   63.9690   32.5200   48.9610 C   0  0  0  0  0  0  0  0  0  0  0  0
   64.1420   33.3630   47.8530 C   0  0  0  0  0  0  0  0  0  0  0  0
   63.2450   33.3100   46.7830 C   0  0  0  0  0  0  0  0  0  0  0  0
   62.1690   32.4180   46.8140 C   0  0  0  0  0  0  0  0  0  0  0  0
   61.9860   31.5640   47.9120 C   0  0  0  0  0  0  0  0  0  0  0  0
   60.8390   30.6990   47.9490 N   0  0  0  0  0  0  0  0  0  0  0  0
   59.8130   30.7010   46.9410 C   0  0  0  0  0  0  0  0  0  0  0  0
   59.5650   31.7640   46.3090 O   0  0  0  0  0  0  0  0  0  0  0  0
   59.0220   29.4780   46.6530 C   0  0  0  0  0  0  0  0  0  0  0  0
   59.1710   28.3340   47.4610 C   0  0  0  0  0  0  0  0  0  0  0  0
   58.4100   27.1880   47.2180 C   0  0  0  0  0  0  0  0  0  0  0  0
   57.4840   27.1640   46.1670 C   0  0  0  0  0  0  0  0  0  0  0  0
   56.5190   25.7170   45.8890 S   0  0  0  0  0  0  0  0  0  0  0  0
   54.8390   26.1230   45.9770 N   0  0  0  0  0  0  0  0  0  0  0  0
   56.8110   25.1460   44.5270 O   0  0  0  0  0  0  0  0  0  0  0  0
   56.8460   24.6860   46.9360 O   0  0  0  0  0  0  0  0  0  0  0  0
   57.3350   28.2920   45.3520 C   0  0  0  0  0  0  0  0  0  0  0  0
   58.0940   29.4430   45.5940 C   0  0  0  0  0  0  0  0  0  0  0  0
   62.8920   31.6240   48.9870 C   0  0  0  0  0  0  0  0  0  0  0  0
   64.5793   33.5333   53.7344 H   0  0  0  0  0  0  0  0  0  0  0  0
   63.9681   32.0265   52.9710 H   0  0  0  0  0  0  0  0  0  0  0  0
   65.7287   32.3831   52.9710 H   0  0  0  0  0  0  0  0  0  0  0  0
   63.3162   35.1985   51.7977 H   0  0  0  0  0  0  0  0  0  0  0  0
   63.1913   34.1815   50.2456 H   0  0  0  0  0  0  0  0  0  0  0  0
   62.2434   32.4777   52.1499 H   0  0  0  0  0  0  0  0  0  0  0  0
   61.6117   34.1098   52.6878 H   0  0  0  0  0  0  0  0  0  0  0  0
   59.8099   31.8454   51.8453 H   0  0  0  0  0  0  0  0  0  0  0  0
   58.0679   31.6248   50.0723 H   0  0  0  0  0  0  0  0  0  0  0  0
   58.1282   33.1123   48.0658 H   0  0  0  0  0  0  0  0  0  0  0  0
   59.9700   34.7768   47.8008 H   0  0  0  0  0  0  0  0  0  0  0  0
   61.7479   34.9644   49.5395 H   0  0  0  0  0  0  0  0  0  0  0  0
   64.9862   34.0677   47.8265 H   0  0  0  0  0  0  0  0  0  0  0  0
   63.3857   33.9710   45.9151 H   0  0  0  0  0  0  0  0  0  0  0  0
   61.4615   32.3855   45.9723 H   0  0  0  0  0  0  0  0  0  0  0  0
   60.7140   30.0830   48.7850 H   0  0  0  0  0  0  0  0  0  0  0  0
   59.8931   28.3430   48.2908 H   0  0  0  0  0  0  0  0  0  0  0  0
   58.5384   26.3003   47.8548 H   0  0  0  0  0  0  0  0  0  0  0  0
   54.7770   27.0610   46.4310 H   0  0  0  0  0  0  0  0  0  0  0  0
   56.6184   28.2740   44.5177 H   0  0  0  0  0  0  0  0  0  0  0  0
   57.9647   30.3269   44.9522 H   0  0  0  0  0  0  0  0  0  0  0  0
   62.7537   30.9622   49.8547 H   0  0  0  0  0  0  0  0  0  0  0  0
  1  2  1  0
  2  3  1  0
  3  4  1  0
  4  5  1  0
  5  6  2  0
  6  7  1  0
  7  8  2  0
  8  9  1  0
  9 10  2  0
  2 11  1  0
 11 12  2  0
 11 13  2  0
 11 14  1  0
 14 15  2  0
 15 16  1  0
 16 17  2  0
 17 18  1  0
 18 19  1  0
 19 20  1  0
 20 21  2  0
 20 22  1  0
 22 23  2  0
 23 24  1  0
 24 25  2  0
 25 26  1  0
 26 27  1  0
 26 28  2  0
 26 29  2  0
 25 30  1  0
 30 31  2  0
 18 32  2  0
 10  5  1  0
 32 14  1  0
 31 22  1  0
  1 33  1  0
  1 34  1  0
  1 35  1  0
  3 36  1  0
  3 37  1  0
  4 38  1  0
  4 39  1  0
  6 40  1  0
  7 41  1  0
  8 42  1  0
  9 43  1  0
 10 44  1  0
 15 45  1  0
 16 46  1  0
 17 47  1  0
 19 48  1  0
 23 49  1  0
 24 50  1  0
 27 51  1  0
 30 52  1  0
 31 53  1  0
 32 54  1  0
M  CHG  1  27  -1
M  END
>  <UniqueID>  (53) 
52

>  <SMILES>  (53) 
CN(CCc1ccccc1)S(=O)(=O)c1cccc(NC(=O)c2ccc(S([NH-])(=O)=O)cc2)c1

>  <Energy>  (53) 
64.91216511806584

>  <Genealogy>  (53) 
CN(CCc1ccccc1)S(=O)(=O)c1cccc(NC(=O)c2ccc(S([NH-])(=O)=O)cc2)c1 (protonated)
CN(CCc1ccccc1)S(=O)(=O)c1cccc(NC(=O)c2ccc(S([NH-])(=O)=O)cc2)c1 (3D coordinates assigned)
CN(CCc1ccccc1)S(=O)(=O)c1cccc(NC(=O)c2ccc(S([NH-])(=O)=O)cc2)c1 (optimized conformer: 64.91216511806584 kcal/mol)

>  <smiles>  (53) 
CN(CCc1ccccc1)S(=O)(=O)c1cccc(NC(=O)c2ccc(S(N)(=O)=O)cc2)c1

>  <score_type>  (53) 
oracle

>  <origin>  (53) 
adg

>  <m_score__min__energy>  (53) 
-11.41

>  <m_primary>  (53) 
energy

$$$$
53:0
     RDKit          3D

 68 71  0  0  0  0  0  0  0  0999 V2000
   59.8320   32.8690   47.2240 H   0  0  0  0  0  0  0  0  0  0  0  0
   60.4000   33.4540   46.6600 O   0  0  0  0  0  0  0  0  0  0  0  0
   61.4620   33.8970   47.4660 C   0  0  1  0  0  0  0  0  0  0  0  0
   61.7396   34.9223   47.1802 H   0  0  0  0  0  0  0  0  0  0  0  0
   61.0300   33.9330   48.9460 C   0  0  0  0  0  0  0  0  0  0  0  0
   61.1347   34.9598   49.3264 H   0  0  0  0  0  0  0  0  0  0  0  0
   61.6713   33.2439   49.5150 H   0  0  0  0  0  0  0  0  0  0  0  0
   59.2700   29.3070   47.1890 N   0  0  0  0  0  0  0  0  0  0  0  0
   59.0620   30.1250   48.1760 C   0  0  0  0  0  0  0  0  0  0  0  0
   58.4270   29.6800   49.2890 N   0  0  0  0  0  0  0  0  0  0  0  0
   58.1930   30.5240   50.3310 C   0  0  0  0  0  0  0  0  0  0  0  0
   57.5900   30.1090   51.4030 N   0  0  0  0  0  0  0  0  0  0  0  0
   56.4710   30.8060   52.0350 C   0  0  0  0  0  0  0  0  0  0  0  0
   56.8128   31.2632   52.9753 H   0  0  0  0  0  0  0  0  0  0  0  0
   56.1013   31.5836   51.3504 H   0  0  0  0  0  0  0  0  0  0  0  0
   55.3360   29.8260   52.3340 C   0  0  0  0  0  0  0  0  0  0  0  0
   55.3788   28.9983   51.6107 H   0  0  0  0  0  0  0  0  0  0  0  0
   55.4624   29.4554   53.3619 H   0  0  0  0  0  0  0  0  0  0  0  0
   53.9890   30.4930   52.2350 C   0  0  0  0  0  0  0  0  0  0  0  0
   53.5360   31.0000   51.0040 C   0  0  0  0  0  0  0  0  0  0  0  0
   54.1612   30.8951   50.1050 H   0  0  0  0  0  0  0  0  0  0  0  0
   52.2940   31.6370   50.9180 C   0  0  0  0  0  0  0  0  0  0  0  0
   51.9423   32.0268   49.9514 H   0  0  0  0  0  0  0  0  0  0  0  0
   51.4990   31.7790   52.0590 C   0  0  0  0  0  0  0  0  0  0  0  0
   50.2910   32.3920   51.9730 F   0  0  0  0  0  0  0  0  0  0  0  0
   51.9480   31.2880   53.2900 C   0  0  0  0  0  0  0  0  0  0  0  0
   51.3234   31.4031   54.1881 H   0  0  0  0  0  0  0  0  0  0  0  0
   53.1900   30.6510   53.3800 C   0  0  0  0  0  0  0  0  0  0  0  0
   53.5426   30.2723   54.3507 H   0  0  0  0  0  0  0  0  0  0  0  0
   58.6020   31.8150   50.2530 N   0  0  0  0  0  0  0  0  0  0  0  0
   59.2440   32.2680   49.1470 C   0  0  0  0  0  0  0  0  0  0  0  0
   59.6370   33.5060   49.0970 N   0  0  0  0  0  0  0  0  0  0  0  0
   58.2300   28.8690   46.2600 C   0  0  0  0  0  0  0  0  0  0  0  0
   57.3165   28.6238   46.8215 H   0  0  0  0  0  0  0  0  0  0  0  0
   58.5764   27.9781   45.7157 H   0  0  0  0  0  0  0  0  0  0  0  0
   57.9350   29.9730   45.2790 C   0  0  0  0  0  0  0  0  0  0  0  0
   58.0040   31.3090   45.7140 C   0  0  0  0  0  0  0  0  0  0  0  0
   58.2655   31.5271   46.7600 H   0  0  0  0  0  0  0  0  0  0  0  0
   57.7440   32.3640   44.8320 C   0  0  0  0  0  0  0  0  0  0  0  0
   57.8440   34.0330   45.3870 S   0  0  0  0  0  0  0  0  0  0  0  0
   59.0360   34.7040   44.7630 O   0  0  0  0  0  0  0  0  0  0  0  0
   56.6050   34.7800   44.9840 O   0  0  0  0  0  0  0  0  0  0  0  0
   57.9960   34.0570   47.1080 N   0  0  0  0  0  0  0  0  0  0  0  0
   58.7780   34.7100   47.3390 H   0  0  0  0  0  0  0  0  0  0  0  0
   58.3070   33.1030   47.3990 H   0  0  0  0  0  0  0  0  0  0  0  0
   57.4320   32.0890   43.4970 C   0  0  0  0  0  0  0  0  0  0  0  0
   57.2332   32.9158   42.7993 H   0  0  0  0  0  0  0  0  0  0  0  0
   57.3720   30.7710   43.0470 C   0  0  0  0  0  0  0  0  0  0  0  0
   57.1245   30.5659   41.9950 H   0  0  0  0  0  0  0  0  0  0  0  0
   57.6240   29.7030   43.9220 C   0  0  0  0  0  0  0  0  0  0  0  0
   57.5740   28.3620   43.4110 N   0  0  0  0  0  0  0  0  0  0  0  0
   58.1780   28.0380   42.6260 H   0  0  0  0  0  0  0  0  0  0  0  0
   56.8910   27.6740   43.8010 H   0  0  0  0  0  0  0  0  0  0  0  0
   59.4690   31.4200   48.1090 N   0  0  0  0  0  0  0  0  0  0  0  0
   62.6920   32.9960   47.2480 C   0  0  0  0  0  0  0  0  0  0  0  0
   62.3869   32.1259   46.6482 H   0  0  0  0  0  0  0  0  0  0  0  0
   63.4555   33.6008   46.7368 H   0  0  0  0  0  0  0  0  0  0  0  0
   63.2990   32.5010   48.5390 C   0  0  0  0  0  0  0  0  0  0  0  0
   62.7190   31.4230   49.2280 C   0  0  0  0  0  0  0  0  0  0  0  0
   61.8272   30.9267   48.8176 H   0  0  0  0  0  0  0  0  0  0  0  0
   63.2710   30.9780   50.4340 C   0  0  0  0  0  0  0  0  0  0  0  0
   62.8145   30.1318   50.9684 H   0  0  0  0  0  0  0  0  0  0  0  0
   64.4020   31.6080   50.9600 C   0  0  0  0  0  0  0  0  0  0  0  0
   64.8365   31.2565   51.9075 H   0  0  0  0  0  0  0  0  0  0  0  0
   64.9810   32.6840   50.2830 C   0  0  0  0  0  0  0  0  0  0  0  0
   65.8700   33.1803   50.6994 H   0  0  0  0  0  0  0  0  0  0  0  0
   64.4330   33.1310   49.0780 C   0  0  0  0  0  0  0  0  0  0  0  0
   64.8914   33.9797   48.5492 H   0  0  0  0  0  0  0  0  0  0  0  0
  1  2  1  0
  2  3  1  0
  3  4  1  6
  3  5  1  0
  5  6  1  0
  5  7  1  0
  5  8  1  0
  8  9  2  0
  9 10  1  0
 10 11  1  0
 11 12  2  3
 12 13  1  0
 13 14  1  0
 13 15  1  0
 13 16  1  0
 16 17  1  0
 16 18  1  0
 16 19  1  0
 19 20  2  0
 20 21  1  0
 20 22  1  0
 22 23  1  0
 22 24  2  0
 24 25  1  0
 24 26  1  0
 26 27  1  0
 26 28  2  0
 28 29  1  0
 11 30  1  0
 30 31  1  0
 31 32  2  0
 32 33  1  0
 33 34  1  0
 33 35  1  0
 33 36  1  0
 36 37  2  0
 37 38  1  0
 37 39  1  0
 39 40  1  0
 40 41  2  0
 40 42  2  0
 40 43  1  0
 43 44  1  0
 43 45  1  0
 39 46  2  0
 46 47  1  0
 46 48  1  0
 48 49  1  0
 48 50  2  0
 50 51  1  0
 51 52  1  0
 51 53  1  0
 31 54  1  0
  3 55  1  0
 55 56  1  0
 55 57  1  0
 55 58  1  0
 58 59  2  0
 59 60  1  0
 59 61  1  0
 61 62  1  0
 61 63  2  0
 63 64  1  0
 63 65  1  0
 65 66  1  0
 65 67  2  0
 67 68  1  0
 54  9  1  0
 67 58  1  0
 28 19  1  0
 50 36  1  0
M  CHG  3  10  -1  30  -1  54  -1
M  END
>  <UniqueID>  (54) 
53

>  <SMILES>  (54) 
Nc1ccc(S(N)(=O)=O)cc1C/N=c1/[n-]c(=NCCc2ccc(F)cc2)[n-]/c(=N/C[C@H](O)Cc2ccccc2)[n-]1

>  <Energy>  (54) 
64.06030062863681

>  <Genealogy>  (54) 
Nc1ccc(S(N)(=O)=O)cc1CN=c1[n-]c(=NCCc2ccc(F)cc2)[n-]c(=NCC(O)Cc2ccccc2)[n-]1 (protonated)
Nc1ccc(S(N)(=O)=O)cc1CN=c1[n-]c(=NCCc2ccc(F)cc2)[n-]c(=NC[C@H](O)Cc2ccccc2)[n-]1 (chirality)
Nc1ccc(S(N)(=O)=O)cc1C/N=c1/[n-]c(=NCCc2ccc(F)cc2)[n-]/c(=N/C[C@H](O)Cc2ccccc2)[n-]1 (cis-trans isomerization)
Nc1ccc(S(N)(=O)=O)cc1C/N=c1/[n-]c(=NCCc2ccc(F)cc2)[n-]/c(=N/C[C@H](O)Cc2ccccc2)[n-]1 (3D coordinates assigned)
Nc1ccc(S(N)(=O)=O)cc1C/N=c1/[n-]c(=NCCc2ccc(F)cc2)[n-]/c(=N/C[C@H](O)Cc2ccccc2)[n-]1 (optimized conformer: 64.06030062863681 kcal/mol)

>  <smiles>  (54) 
Nc1ccc(S(N)(=O)=O)cc1CN=c1[nH]c(=NCCc2ccc(F)cc2)[nH]c(=NCC(O)Cc2ccccc2)[nH]1

>  <score_type>  (54) 
oracle

>  <origin>  (54) 
adg

>  <m_score__min__energy>  (54) 
-14.41

>  <m_primary>  (54) 
energy

$$$$
54:0
     RDKit          3D

 43 46  0  0  0  0  0  0  0  0999 V2000
   60.8299   31.3493   51.7886 H   0  0  0  0  0  0  0  0  0  0  0  0
   60.0240   30.9350   51.1650 C   0  0  0  0  0  0  0  0  0  0  0  0
   60.3710   30.2340   50.0740 C   0  0  0  0  0  0  0  0  0  0  0  0
   60.8420   28.8640   50.0520 C   0  0  0  0  0  0  0  0  0  0  0  0
   61.0760   28.1270   51.0470 O   0  0  0  0  0  0  0  0  0  0  0  0
   60.9590   28.4680   48.7350 O   0  0  0  0  0  0  0  0  0  0  0  0
   60.6340   29.5250   47.9140 N   0  0  0  0  0  0  0  0  0  0  0  0
   60.2960   30.5550   48.6320 C   0  0  0  0  0  0  0  0  0  0  0  0
   60.0840   31.8820   48.0230 C   0  0  0  0  0  0  0  0  0  0  0  0
   58.7950   32.4420   48.0080 C   0  0  0  0  0  0  0  0  0  0  0  0
   57.9558   31.8939   48.4610 H   0  0  0  0  0  0  0  0  0  0  0  0
   58.5730   33.6890   47.4220 C   0  0  0  0  0  0  0  0  0  0  0  0
   57.5585   34.1138   47.4009 H   0  0  0  0  0  0  0  0  0  0  0  0
   59.6370   34.3970   46.8630 C   0  0  0  0  0  0  0  0  0  0  0  0
   59.4599   35.3783   46.3986 H   0  0  0  0  0  0  0  0  0  0  0  0
   60.9270   33.8620   46.8920 C   0  0  0  0  0  0  0  0  0  0  0  0
   61.7633   34.4296   46.4579 H   0  0  0  0  0  0  0  0  0  0  0  0
   61.1650   32.6010   47.4730 C   0  0  0  0  0  0  0  0  0  0  0  0
   62.4480   32.0290   47.5050 O   0  0  0  0  0  0  0  0  0  0  0  0
   63.6620   32.7620   47.3750 C   0  0  0  0  0  0  0  0  0  0  0  0
   64.0556   32.9997   48.3743 H   0  0  0  0  0  0  0  0  0  0  0  0
   64.3983   32.1574   46.8251 H   0  0  0  0  0  0  0  0  0  0  0  0
   63.4698   33.6951   46.8251 H   0  0  0  0  0  0  0  0  0  0  0  0
   58.6380   31.1840   51.5790 C   0  0  0  0  0  0  0  0  0  0  0  0
   57.3710   30.1030   51.3720 S   0  0  0  0  0  0  0  0  0  0  0  0
   56.1610   31.1010   51.9960 C   0  0  0  0  0  0  0  0  0  0  0  0
   54.7280   30.7370   52.1350 C   0  0  0  0  0  0  0  0  0  0  0  0
   54.3480   29.5280   52.7400 C   0  0  0  0  0  0  0  0  0  0  0  0
   55.1190   28.8418   53.1204 H   0  0  0  0  0  0  0  0  0  0  0  0
   53.0000   29.1910   52.8620 C   0  0  0  0  0  0  0  0  0  0  0  0
   52.7165   28.2411   53.3389 H   0  0  0  0  0  0  0  0  0  0  0  0
   52.0070   30.0490   52.3840 C   0  0  0  0  0  0  0  0  0  0  0  0
   50.6750   29.6720   52.5280 O   0  0  0  0  0  0  0  0  0  0  0  0
   52.3620   31.2690   51.7690 C   0  0  0  0  0  0  0  0  0  0  0  0
   51.3370   32.2090   51.2460 C   0  0  0  0  0  0  0  0  0  0  0  0
   50.7250   32.9960   52.0150 O   0  0  0  0  0  0  0  0  0  0  0  0
   51.0350   32.2340   49.8890 O   0  0  0  0  0  0  0  0  0  0  0  0
   53.7260   31.5980   51.6500 C   0  0  0  0  0  0  0  0  0  0  0  0
   54.0134   32.5448   51.1694 H   0  0  0  0  0  0  0  0  0  0  0  0
   56.7500   32.3190   52.3460 C   0  0  0  0  0  0  0  0  0  0  0  0
   56.1850   33.1592   52.7758 H   0  0  0  0  0  0  0  0  0  0  0  0
   58.1270   32.3690   52.0980 C   0  0  0  0  0  0  0  0  0  0  0  0
   58.7442   33.2581   52.2943 H   0  0  0  0  0  0  0  0  0  0  0  0
  1  2  1  0
  2  3  2  0
  3  4  1  0
  4  5  2  0
  4  6  1  0
  6  7  1  0
  7  8  2  0
  8  9  1  0
  9 10  2  0
 10 11  1  0
 10 12  1  0
 12 13  1  0
 12 14  2  0
 14 15  1  0
 14 16  1  0
 16 17  1  0
 16 18  2  0
 18 19  1  0
 19 20  1  0
 20 21  1  0
 20 22  1  0
 20 23  1  0
  2 24  1  0
 24 25  1  0
 25 26  1  0
 26 27  1  0
 27 28  2  0
 28 29  1  0
 28 30  1  0
 30 31  1  0
 30 32  2  0
 32 33  1  0
 32 34  1  0
 34 35  1  0
 35 36  2  0
 35 37  1  0
 34 38  2  0
 38 39  1  0
 26 40  2  0
 40 41  1  0
 40 42  1  0
 42 43  1  0
  8  3  1  0
 18  9  1  0
 42 24  2  0
 38 27  1  0
M  CHG  2  33  -1  37  -1
M  END
>  <UniqueID>  (55) 
54

>  <SMILES>  (55) 
COc1ccccc1C1=NOC(=O)/C1=C/c1ccc(-c2ccc([O-])c(C(=O)[O-])c2)s1

>  <Energy>  (55) 
118.7513455520355

>  <Genealogy>  (55) 
COc1ccccc1C1=NOC(=O)C1=Cc1ccc(-c2ccc([O-])c(C(=O)[O-])c2)s1 (protonated)
COc1ccccc1C1=NOC(=O)/C1=C/c1ccc(-c2ccc([O-])c(C(=O)[O-])c2)s1 (cis-trans isomerization)
COc1ccccc1C1=NOC(=O)/C1=C/c1ccc(-c2ccc([O-])c(C(=O)[O-])c2)s1 (3D coordinates assigned)
COc1ccccc1C1=NOC(=O)/C1=C/c1ccc(-c2ccc([O-])c(C(=O)[O-])c2)s1 (nonaromatic ring conformer: 118.7513455520355 kcal/mol)

>  <smiles>  (55) 
COc1ccccc1C1=NOC(=O)C1=Cc1ccc(-c2ccc(O)c(C(=O)O)c2)s1

>  <score_type>  (55) 
oracle

>  <origin>  (55) 
adg

>  <m_score__min__energy>  (55) 
-13.5

>  <m_primary>  (55) 
energy

$$$$
55:0
     RDKit          3D

 51 55  0  0  0  0  0  0  0  0999 V2000
   57.0560   34.5360   44.8750 C   0  0  0  0  0  0  0  0  0  0  0  0
   58.1530   33.7290   45.3980 N   0  0  0  0  0  0  0  0  0  0  0  0
   59.2740   34.1930   46.0000 C   0  0  0  0  0  0  0  0  0  0  0  0
   60.0870   33.1320   46.3840 C   0  0  0  0  0  0  0  0  0  0  0  0
   61.3650   33.2500   47.1130 C   0  0  0  0  0  0  0  0  0  0  0  0
   62.3980   33.5920   46.4830 O   0  0  0  0  0  0  0  0  0  0  0  0
   61.4620   33.0080   48.5240 N   0  0  0  0  0  0  0  0  0  0  0  0
   60.4130   32.4980   49.3600 C   0  0  0  0  0  0  0  0  0  0  0  0
   59.6020   33.4130   50.0380 C   0  0  0  0  0  0  0  0  0  0  0  0
   58.6380   32.9760   50.9470 C   0  0  0  0  0  0  0  0  0  0  0  0
   58.4540   31.6020   51.1850 C   0  0  0  0  0  0  0  0  0  0  0  0
   57.4590   31.1140   52.1720 C   0  0  0  0  0  0  0  0  0  0  0  0
   57.4020   31.4100   53.5200 C   0  0  0  0  0  0  0  0  0  0  0  0
   56.3690   30.7510   54.0720 N   0  0  0  0  0  0  0  0  0  0  0  0
   55.8190   30.0820   53.0380 C   0  0  0  0  0  0  0  0  0  0  0  0
   54.6660   29.1460   53.1940 C   0  0  0  0  0  0  0  0  0  0  0  0
   53.4940   29.6910   52.5200 N   0  0  0  0  0  0  0  0  0  0  0  0
   53.2710   30.9910   52.2490 C   0  0  0  0  0  0  0  0  0  0  0  0
   52.0210   31.0940   51.6780 C   0  0  0  0  0  0  0  0  0  0  0  0
   51.3530   32.3190   51.2240 C   0  0  0  0  0  0  0  0  0  0  0  0
   51.4020   32.6590   50.0130 O   0  0  0  0  0  0  0  0  0  0  0  0
   50.6600   33.1110   52.1310 O   0  0  0  0  0  0  0  0  0  0  0  0
   51.5280   29.8020   51.6380 C   0  0  0  0  0  0  0  0  0  0  0  0
   52.4430   28.9650   52.1660 N   0  0  0  0  0  0  0  0  0  0  0  0
   56.4610   30.2650   51.8660 N   0  0  0  0  0  0  0  0  0  0  0  0
   59.2290   30.6810   50.4590 C   0  0  0  0  0  0  0  0  0  0  0  0
   60.1800   31.1140   49.5290 C   0  0  0  0  0  0  0  0  0  0  0  0
   60.8460   30.1500   48.7700 O   0  0  0  0  0  0  0  0  0  0  0  0
   59.4320   31.9840   45.9690 C   0  0  0  0  0  0  0  0  0  0  0  0
   59.8020   30.6380   46.0170 C   0  0  0  0  0  0  0  0  0  0  0  0
   58.9070   29.6890   45.4940 C   0  0  0  0  0  0  0  0  0  0  0  0
   57.6840   30.0990   44.9190 C   0  0  0  0  0  0  0  0  0  0  0  0
   57.3500   31.4630   44.8530 C   0  0  0  0  0  0  0  0  0  0  0  0
   58.2550   32.3850   45.3850 C   0  0  0  0  0  0  0  0  0  0  0  0
   56.4808   34.9592   45.7117 H   0  0  0  0  0  0  0  0  0  0  0  0
   57.4622   35.3521   44.2595 H   0  0  0  0  0  0  0  0  0  0  0  0
   56.3978   33.9052   44.2595 H   0  0  0  0  0  0  0  0  0  0  0  0
   59.5077   35.2556   46.1618 H   0  0  0  0  0  0  0  0  0  0  0  0
   59.7254   34.4902   49.8526 H   0  0  0  0  0  0  0  0  0  0  0  0
   58.0177   33.7109   51.4811 H   0  0  0  0  0  0  0  0  0  0  0  0
   58.0919   32.0783   54.0560 H   0  0  0  0  0  0  0  0  0  0  0  0
   54.9229   28.1727   52.7504 H   0  0  0  0  0  0  0  0  0  0  0  0
   54.4436   29.0182   54.2637 H   0  0  0  0  0  0  0  0  0  0  0  0
   53.9631   31.8225   52.4479 H   0  0  0  0  0  0  0  0  0  0  0  0
   50.5467   29.5054   51.2392 H   0  0  0  0  0  0  0  0  0  0  0  0
   59.0854   29.6031   50.6248 H   0  0  0  0  0  0  0  0  0  0  0  0
   61.5710   30.3820   48.1040 H   0  0  0  0  0  0  0  0  0  0  0  0
   60.7647   30.3301   46.4510 H   0  0  0  0  0  0  0  0  0  0  0  0
   59.1609   28.6194   45.5328 H   0  0  0  0  0  0  0  0  0  0  0  0
   56.9882   29.3462   44.5202 H   0  0  0  0  0  0  0  0  0  0  0  0
   56.4055   31.7941   44.3967 H   0  0  0  0  0  0  0  0  0  0  0  0
  1  2  1  0
  2  3  1  0
  3  4  2  0
  4  5  1  0
  5  6  2  0
  5  7  1  0
  7  8  1  0
  8  9  2  0
  9 10  1  0
 10 11  2  0
 11 12  1  0
 12 13  2  0
 13 14  1  0
 14 15  1  0
 15 16  1  0
 16 17  1  0
 17 18  1  0
 18 19  2  0
 19 20  1  0
 20 21  2  0
 20 22  1  0
 19 23  1  0
 23 24  2  0
 15 25  2  0
 11 26  1  0
 26 27  2  0
 27 28  1  0
  4 29  1  0
 29 30  2  0
 30 31  1  0
 31 32  2  0
 32 33  1  0
 33 34  2  0
 34  2  1  0
 27  8  1  0
 34 29  1  0
 25 12  1  0
 24 17  1  0
  1 35  1  0
  1 36  1  0
  1 37  1  0
  3 38  1  0
  9 39  1  0
 10 40  1  0
 13 41  1  0
 16 42  1  0
 16 43  1  0
 18 44  1  0
 23 45  1  0
 26 46  1  0
 28 47  1  0
 30 48  1  0
 31 49  1  0
 32 50  1  0
 33 51  1  0
M  CHG  3   7  -1  14  -1  22  -1
M  END
>  <UniqueID>  (56) 
55

>  <SMILES>  (56) 
Cn1cc(C(=O)[N-]c2ccc(-c3c[n-]c(Cn4cc(C(=O)[O-])cn4)n3)cc2O)c2ccccc21

>  <Energy>  (56) 
156.01979693634843

>  <Genealogy>  (56) 
Cn1cc(C(=O)[N-]c2ccc(-c3c[n-]c(Cn4cc(C(=O)[O-])cn4)n3)cc2O)c2ccccc21 (protonated)
Cn1cc(C(=O)[N-]c2ccc(-c3c[n-]c(Cn4cc(C(=O)[O-])cn4)n3)cc2O)c2ccccc21 (3D coordinates assigned)
Cn1cc(C(=O)[N-]c2ccc(-c3c[n-]c(Cn4cc(C(=O)[O-])cn4)n3)cc2O)c2ccccc21 (optimized conformer: 156.01979693634843 kcal/mol)

>  <smiles>  (56) 
Cn1cc(C(=O)Nc2ccc(-c3c[nH]c(Cn4cc(C(=O)O)cn4)n3)cc2O)c2ccccc21

>  <score_type>  (56) 
oracle

>  <origin>  (56) 
adg

>  <m_score__min__energy>  (56) 
-14.539999999999999

>  <m_primary>  (56) 
energy

$$$$
56:0
     RDKit          3D

 36 37  0  0  0  0  0  0  0  0999 V2000
   58.8994   20.9561   46.0263 H   0  0  0  0  0  0  0  0  0  0  0  0
   58.1510   21.5990   45.5400 C   0  0  0  0  0  0  0  0  0  0  0  0
   57.4620   22.5140   46.2730 N   0  0  0  0  0  0  0  0  0  0  0  0
   56.5260   23.3330   45.7090 C   0  0  0  0  0  0  0  0  0  0  0  0
   55.8700   24.2030   46.4220 N   0  0  0  0  0  0  0  0  0  0  0  0
   55.9600   25.6360   46.3430 C   0  0  0  0  0  0  0  0  0  0  0  0
   54.9650   26.3290   45.9990 O   0  0  0  0  0  0  0  0  0  0  0  0
   57.1700   26.3050   46.7160 N   0  0  0  0  0  0  0  0  0  0  0  0
   57.8270   27.3410   45.9730 C   0  0  0  0  0  0  0  0  0  0  0  0
   59.1800   27.1830   45.6480 C   0  0  0  0  0  0  0  0  0  0  0  0
   59.7117   26.2690   45.9512 H   0  0  0  0  0  0  0  0  0  0  0  0
   59.8590   28.1790   44.9410 C   0  0  0  0  0  0  0  0  0  0  0  0
   60.9184   28.0414   44.6787 H   0  0  0  0  0  0  0  0  0  0  0  0
   59.1940   29.3490   44.5670 C   0  0  0  0  0  0  0  0  0  0  0  0
   59.7288   30.1273   44.0029 H   0  0  0  0  0  0  0  0  0  0  0  0
   57.8490   29.5340   44.9080 C   0  0  0  0  0  0  0  0  0  0  0  0
   57.0150   31.0250   44.4620 S   0  0  0  0  0  0  0  0  0  0  0  0
   55.5330   30.7740   44.4440 O   0  0  0  0  0  0  0  0  0  0  0  0
   57.4340   31.4300   43.0760 O   0  0  0  0  0  0  0  0  0  0  0  0
   57.3710   32.3210   45.5790 N   0  0  0  0  0  0  0  0  0  0  0  0
   57.7840   33.5180   44.8360 C   0  0  0  0  0  0  0  0  0  0  0  0
   58.0583   34.3131   45.5449 H   0  0  0  0  0  0  0  0  0  0  0  0
   58.6506   33.2759   44.2032 H   0  0  0  0  0  0  0  0  0  0  0  0
   56.9525   33.8618   44.2032 H   0  0  0  0  0  0  0  0  0  0  0  0
   58.4350   31.9060   46.5020 C   0  0  0  0  0  0  0  0  0  0  0  0
   58.0934   32.0393   47.5391 H   0  0  0  0  0  0  0  0  0  0  0  0
   58.6780   30.8472   46.3292 H   0  0  0  0  0  0  0  0  0  0  0  0
   59.3307   32.5207   46.3292 H   0  0  0  0  0  0  0  0  0  0  0  0
   57.1700   28.5350   45.6200 C   0  0  0  0  0  0  0  0  0  0  0  0
   56.1180   28.6851   45.9044 H   0  0  0  0  0  0  0  0  0  0  0  0
   56.2600   23.2330   44.3380 C   0  0  0  0  0  0  0  0  0  0  0  0
   55.5077   23.8852   43.8703 H   0  0  0  0  0  0  0  0  0  0  0  0
   56.9570   22.2990   43.5690 C   0  0  0  0  0  0  0  0  0  0  0  0
   56.7558   22.2130   42.4910 H   0  0  0  0  0  0  0  0  0  0  0  0
   57.9090   21.4750   44.1700 C   0  0  0  0  0  0  0  0  0  0  0  0
   58.4626   20.7362   43.5718 H   0  0  0  0  0  0  0  0  0  0  0  0
  1  2  1  0
  2  3  1  0
  3  4  1  0
  4  5  2  0
  5  6  1  0
  6  7  2  0
  6  8  1  0
  8  9  1  0
  9 10  2  0
 10 11  1  0
 10 12  1  0
 12 13  1  0
 12 14  2  0
 14 15  1  0
 14 16  1  0
 16 17  1  0
 17 18  2  0
 17 19  2  0
 17 20  1  0
 20 21  1  0
 21 22  1  0
 21 23  1  0
 21 24  1  0
 20 25  1  0
 25 26  1  0
 25 27  1  0
 25 28  1  0
 16 29  2  0
 29 30  1  0
  4 31  1  0
 31 32  1  0
 31 33  2  0
 33 34  1  0
 33 35  1  0
 35 36  1  0
 35  2  2  0
 29  9  1  0
M  CHG  2   3  -1   8  -1
M  END
>  <UniqueID>  (57) 
56

>  <SMILES>  (57) 
CN(C)S(=O)(=O)c1cccc([N-]C(=O)/N=c2/cccc[n-]2)c1

>  <Energy>  (57) 
39.967267937217585

>  <Genealogy>  (57) 
CN(C)S(=O)(=O)c1cccc([N-]C(=O)N=c2cccc[n-]2)c1 (protonated)
CN(C)S(=O)(=O)c1cccc([N-]C(=O)/N=c2/cccc[n-]2)c1 (cis-trans isomerization)
CN(C)S(=O)(=O)c1cccc([N-]C(=O)/N=c2/cccc[n-]2)c1 (3D coordinates assigned)
CN(C)S(=O)(=O)c1cccc([N-]C(=O)/N=c2/cccc[n-]2)c1 (optimized conformer: 39.967267937217585 kcal/mol)

>  <smiles>  (57) 
CN(C)S(=O)(=O)c1cccc(NC(=O)N=c2cccc[nH]2)c1

>  <score_type>  (57) 
oracle

>  <origin>  (57) 
adg

>  <m_score__min__energy>  (57) 
-10.369999999999999

>  <m_primary>  (57) 
energy

$$$$
57:0
     RDKit          3D

 37 38  0  0  0  0  0  0  0  0999 V2000
   57.8380   34.1940   45.0680 C   0  0  0  0  0  0  0  0  0  0  0  0
   59.2110   34.8010   45.3000 C   0  0  0  0  0  0  0  0  0  0  0  0
   59.3040   35.2690   46.6410 O   0  0  0  0  0  0  0  0  0  0  0  0
   59.6750   34.4430   47.7060 C   0  0  0  0  0  0  0  0  0  0  0  0
   59.6490   34.8810   48.8890 O   0  0  0  0  0  0  0  0  0  0  0  0
   60.0950   33.0600   47.4280 C   0  0  0  0  0  0  0  0  0  0  0  0
   59.0360   31.7530   47.3670 S   0  0  0  0  0  0  0  0  0  0  0  0
   60.2580   30.6410   47.0290 C   0  0  0  0  0  0  0  0  0  0  0  0
   60.1040   29.3670   46.8130 N   0  0  0  0  0  0  0  0  0  0  0  0
   59.5080   28.7580   45.6570 C   0  0  0  0  0  0  0  0  0  0  0  0
   59.9910   27.6770   45.2300 O   0  0  0  0  0  0  0  0  0  0  0  0
   58.2800   29.3000   45.0320 C   0  0  0  0  0  0  0  0  0  0  0  0
   58.3640   30.5230   44.3430 C   0  0  0  0  0  0  0  0  0  0  0  0
   57.2310   31.0900   43.7610 C   0  0  0  0  0  0  0  0  0  0  0  0
   55.9970   30.4470   43.8610 C   0  0  0  0  0  0  0  0  0  0  0  0
   55.8950   29.2300   44.5380 C   0  0  0  0  0  0  0  0  0  0  0  0
   57.0280   28.6390   45.1220 C   0  0  0  0  0  0  0  0  0  0  0  0
   56.8520   27.0600   45.9050 S   0  0  0  0  0  0  0  0  0  0  0  0
   55.1760   26.6560   46.0210 N   0  0  0  0  0  0  0  0  0  0  0  0
   57.4630   27.0990   47.2790 O   0  0  0  0  0  0  0  0  0  0  0  0
   57.5570   26.0040   45.1010 O   0  0  0  0  0  0  0  0  0  0  0  0
   61.4630   31.2400   46.9430 N   0  0  0  0  0  0  0  0  0  0  0  0
   61.3880   32.5810   47.1690 C   0  0  0  0  0  0  0  0  0  0  0  0
   62.6150   33.4370   47.1260 C   0  0  0  0  0  0  0  0  0  0  0  0
   57.3617   33.9834   46.0369 H   0  0  0  0  0  0  0  0  0  0  0  0
   57.2159   34.9010   44.4995 H   0  0  0  0  0  0  0  0  0  0  0  0
   57.9422   33.2581   44.4995 H   0  0  0  0  0  0  0  0  0  0  0  0
   59.9835   34.0379   45.1238 H   0  0  0  0  0  0  0  0  0  0  0  0
   59.3610   35.6424   44.6075 H   0  0  0  0  0  0  0  0  0  0  0  0
   59.3330   31.0373   44.2624 H   0  0  0  0  0  0  0  0  0  0  0  0
   57.3102   32.0457   43.2222 H   0  0  0  0  0  0  0  0  0  0  0  0
   55.1034   30.8992   43.4060 H   0  0  0  0  0  0  0  0  0  0  0  0
   54.9185   28.7294   44.6148 H   0  0  0  0  0  0  0  0  0  0  0  0
   54.7790   26.7210   45.0560 H   0  0  0  0  0  0  0  0  0  0  0  0
   62.9400   33.6638   48.1521 H   0  0  0  0  0  0  0  0  0  0  0  0
   63.4173   32.9016   46.5971 H   0  0  0  0  0  0  0  0  0  0  0  0
   62.3895   34.3748   46.5971 H   0  0  0  0  0  0  0  0  0  0  0  0
  1  2  1  0
  2  3  1  0
  3  4  1  0
  4  5  2  0
  4  6  1  0
  6  7  1  0
  7  8  1  0
  8  9  2  3
  9 10  1  0
 10 11  2  0
 10 12  1  0
 12 13  2  0
 13 14  1  0
 14 15  2  0
 15 16  1  0
 16 17  2  0
 17 18  1  0
 18 19  1  0
 18 20  2  0
 18 21  2  0
  8 22  1  0
 22 23  1  0
 23 24  1  0
 23  6  2  0
 17 12  1  0
  1 25  1  0
  1 26  1  0
  1 27  1  0
  2 28  1  0
  2 29  1  0
 13 30  1  0
 14 31  1  0
 15 32  1  0
 16 33  1  0
 19 34  1  0
 24 35  1  0
 24 36  1  0
 24 37  1  0
M  CHG  2  19  -1  22  -1
M  END
>  <UniqueID>  (58) 
57

>  <SMILES>  (58) 
CCOC(=O)c1sc(=NC(=O)c2ccccc2S([NH-])(=O)=O)[n-]c1C

>  <Energy>  (58) 
72.82212648127467

>  <Genealogy>  (58) 
CCOC(=O)c1sc(=NC(=O)c2ccccc2S([NH-])(=O)=O)[n-]c1C (protonated)
CCOC(=O)c1sc(=NC(=O)c2ccccc2S([NH-])(=O)=O)[n-]c1C (3D coordinates assigned)
CCOC(=O)c1sc(=NC(=O)c2ccccc2S([NH-])(=O)=O)[n-]c1C (optimized conformer: 72.82212648127467 kcal/mol)

>  <smiles>  (58) 
CCOC(=O)c1sc(=NC(=O)c2ccccc2S(N)(=O)=O)[nH]c1C

>  <score_type>  (58) 
oracle

>  <origin>  (58) 
adg

>  <m_score__min__energy>  (58) 
-12.289999999999999

>  <m_primary>  (58) 
energy

$$$$
58:0
     RDKit          3D

 46 49  0  0  0  0  0  0  0  0999 V2000
   53.7700   24.6780   45.5410 C   0  0  0  0  0  0  0  0  0  0  0  0
   54.5240   25.8350   45.8910 O   0  0  0  0  0  0  0  0  0  0  0  0
   55.9190   25.8620   46.0380 C   0  0  0  0  0  0  0  0  0  0  0  0
   56.6410   24.7430   46.5020 C   0  0  0  0  0  0  0  0  0  0  0  0
   58.0360   24.7850   46.5800 C   0  0  0  0  0  0  0  0  0  0  0  0
   58.7240   25.9330   46.1850 C   0  0  0  0  0  0  0  0  0  0  0  0
   58.0190   27.0480   45.7310 C   0  0  0  0  0  0  0  0  0  0  0  0
   56.6200   27.0330   45.6890 C   0  0  0  0  0  0  0  0  0  0  0  0
   55.9330   28.2080   45.2470 N   0  0  0  0  0  0  0  0  0  0  0  0
   56.5290   29.4960   45.0310 C   0  0  0  0  0  0  0  0  0  0  0  0
   57.2420   29.9920   45.9430 O   0  0  0  0  0  0  0  0  0  0  0  0
   56.3120   30.2890   43.7670 C   0  0  0  0  0  0  0  0  0  0  0  0
   57.1370   31.4930   43.7480 N   0  0  0  0  0  0  0  0  0  0  0  0
   57.2380   32.4180   44.7220 C   0  0  0  0  0  0  0  0  0  0  0  0
   58.1180   33.3720   44.2540 C   0  0  0  0  0  0  0  0  0  0  0  0
   58.5230   34.6460   44.9280 C   0  0  0  0  0  0  0  0  0  0  0  0
   59.9290   34.6480   45.1660 O   0  0  0  0  0  0  0  0  0  0  0  0
   60.5440   34.3240   46.3860 C   0  0  0  0  0  0  0  0  0  0  0  0
   59.8920   34.4930   47.6410 C   0  0  0  0  0  0  0  0  0  0  0  0
   60.5500   34.1630   48.8410 C   0  0  0  0  0  0  0  0  0  0  0  0
   61.8490   33.6740   48.7580 C   0  0  0  0  0  0  0  0  0  0  0  0
   62.6390   33.3220   49.7420 O   0  0  0  0  0  0  0  0  0  0  0  0
   63.7820   32.9220   49.2120 C   0  0  0  0  0  0  0  0  0  0  0  0
   63.7340   33.0170   47.8250 C   0  0  0  0  0  0  0  0  0  0  0  0
   62.4770   33.5050   47.5560 C   0  0  0  0  0  0  0  0  0  0  0  0
   61.8560   33.8130   46.3490 C   0  0  0  0  0  0  0  0  0  0  0  0
   58.5140   32.9940   43.0240 N   0  0  0  0  0  0  0  0  0  0  0  0
   57.9140   31.8510   42.7370 N   0  0  0  0  0  0  0  0  0  0  0  0
   53.4368   24.1668   46.4562 H   0  0  0  0  0  0  0  0  0  0  0  0
   52.8930   24.9773   44.9483 H   0  0  0  0  0  0  0  0  0  0  0  0
   54.3980   23.9966   44.9483 H   0  0  0  0  0  0  0  0  0  0  0  0
   56.1034   23.8321   46.8042 H   0  0  0  0  0  0  0  0  0  0  0  0
   58.5920   23.9123   46.9531 H   0  0  0  0  0  0  0  0  0  0  0  0
   59.8227   25.9588   46.2316 H   0  0  0  0  0  0  0  0  0  0  0  0
   58.5660   27.9446   45.4040 H   0  0  0  0  0  0  0  0  0  0  0  0
   56.5729   29.6622   42.9015 H   0  0  0  0  0  0  0  0  0  0  0  0
   55.2553   30.5915   43.7240 H   0  0  0  0  0  0  0  0  0  0  0  0
   56.7230   32.4136   45.6940 H   0  0  0  0  0  0  0  0  0  0  0  0
   58.2618   35.4980   44.2831 H   0  0  0  0  0  0  0  0  0  0  0  0
   57.9946   34.7290   45.8892 H   0  0  0  0  0  0  0  0  0  0  0  0
   58.8647   34.8850   47.6729 H   0  0  0  0  0  0  0  0  0  0  0  0
   60.0521   34.2881   49.8139 H   0  0  0  0  0  0  0  0  0  0  0  0
   64.6490   32.5644   49.7868 H   0  0  0  0  0  0  0  0  0  0  0  0
   64.5245   32.7594   47.1048 H   0  0  0  0  0  0  0  0  0  0  0  0
   62.3761   33.6614   45.3916 H   0  0  0  0  0  0  0  0  0  0  0  0
   59.1670   33.5020   42.3880 H   0  0  0  0  0  0  0  0  0  0  0  0
  1  2  1  0
  2  3  1  0
  3  4  2  0
  4  5  1  0
  5  6  2  0
  6  7  1  0
  7  8  2  0
  8  9  1  0
  9 10  1  0
 10 11  2  0
 10 12  1  0
 12 13  1  0
 13 14  1  0
 14 15  2  0
 15 16  1  0
 16 17  1  0
 17 18  1  0
 18 19  2  0
 19 20  1  0
 20 21  2  0
 21 22  1  0
 22 23  1  0
 23 24  2  0
 24 25  1  0
 25 26  2  0
 15 27  1  0
 27 28  2  0
  8  3  1  0
 28 13  1  0
 26 18  1  0
 25 21  1  0
  1 29  1  0
  1 30  1  0
  1 31  1  0
  4 32  1  0
  5 33  1  0
  6 34  1  0
  7 35  1  0
 12 36  1  0
 12 37  1  0
 14 38  1  0
 16 39  1  0
 16 40  1  0
 19 41  1  0
 20 42  1  0
 23 43  1  0
 24 44  1  0
 26 45  1  0
 27 46  1  0
M  CHG  2   9  -1  27   1
M  END
>  <UniqueID>  (59) 
58

>  <SMILES>  (59) 
COc1ccccc1[N-]C(=O)Cn1cc(COc2ccc3occc3c2)[nH+]n1

>  <Energy>  (59) 
118.51618060385502

>  <Genealogy>  (59) 
COc1ccccc1[N-]C(=O)Cn1cc(COc2ccc3occc3c2)[nH+]n1 (protonated)
COc1ccccc1[N-]C(=O)Cn1cc(COc2ccc3occc3c2)[nH+]n1 (3D coordinates assigned)
COc1ccccc1[N-]C(=O)Cn1cc(COc2ccc3occc3c2)[nH+]n1 (optimized conformer: 118.51618060385502 kcal/mol)

>  <smiles>  (59) 
COc1ccccc1NC(=O)Cn1cc(COc2ccc3occc3c2)nn1

>  <score_type>  (59) 
oracle

>  <origin>  (59) 
adg

>  <m_score__min__energy>  (59) 
-10.31

>  <m_primary>  (59) 
energy

$$$$
59:0
     RDKit          3D

 56 59  0  0  0  0  0  0  0  0999 V2000
   50.6170   31.7040   48.5820 C   0  0  0  0  0  0  0  0  0  0  0  0
   50.9960   32.3380   49.8000 O   0  0  0  0  0  0  0  0  0  0  0  0
   51.5930   31.6760   50.8840 C   0  0  0  0  0  0  0  0  0  0  0  0
   51.2380   31.9440   52.2200 C   0  0  0  0  0  0  0  0  0  0  0  0
   51.8590   31.2550   53.2660 C   0  0  0  0  0  0  0  0  0  0  0  0
   52.8340   30.2810   52.9950 C   0  0  0  0  0  0  0  0  0  0  0  0
   53.5160   29.5530   54.1200 C   0  0  0  0  0  0  0  0  0  0  0  0
   54.6670   28.7520   53.5990 C   0  0  0  0  0  0  0  0  0  0  0  0
   54.4510   27.7760   52.8340 O   0  0  0  0  0  0  0  0  0  0  0  0
   56.0060   29.1530   53.9210 N   0  0  0  0  0  0  0  0  0  0  0  0
   56.8470   30.0210   53.1470 C   0  0  0  0  0  0  0  0  0  0  0  0
   56.3250   31.0750   52.3770 C   0  0  0  0  0  0  0  0  0  0  0  0
   57.1760   31.8780   51.6120 C   0  0  0  0  0  0  0  0  0  0  0  0
   58.5580   31.6310   51.5920 C   0  0  0  0  0  0  0  0  0  0  0  0
   59.4710   32.4820   50.8000 C   0  0  0  0  0  0  0  0  0  0  0  0
   59.3270   33.8150   50.6770 N   0  0  0  0  0  0  0  0  0  0  0  0
   60.3000   34.2680   49.9040 N   0  0  0  0  0  0  0  0  0  0  0  0
   61.0440   33.1940   49.5720 C   0  0  0  0  0  0  0  0  0  0  0  0
   62.5070   33.2940   48.5380 S   0  0  0  0  0  0  0  0  0  0  0  0
   61.7680   32.3950   47.1270 C   0  0  0  0  0  0  0  0  0  0  0  0
   60.4400   32.9980   46.7360 C   0  0  0  0  0  0  0  0  0  0  0  0
   60.4030   34.3500   46.3500 C   0  0  0  0  0  0  0  0  0  0  0  0
   59.2010   34.9440   45.9550 C   0  0  0  0  0  0  0  0  0  0  0  0
   58.0230   34.1960   45.9420 C   0  0  0  0  0  0  0  0  0  0  0  0
   58.0440   32.8520   46.3200 C   0  0  0  0  0  0  0  0  0  0  0  0
   59.2420   32.2440   46.7160 C   0  0  0  0  0  0  0  0  0  0  0  0
   59.1910   30.5420   47.1690 Cl  0  0  0  0  0  0  0  0  0  0  0  0
   60.5600   32.0590   50.1210 N   0  0  0  0  0  0  0  0  0  0  0  0
   61.1080   30.7090   50.0080 C   0  0  0  0  0  0  0  0  0  0  0  0
   59.0770   30.5780   52.3610 C   0  0  0  0  0  0  0  0  0  0  0  0
   58.2240   29.7720   53.1220 C   0  0  0  0  0  0  0  0  0  0  0  0
   53.1940   30.0220   51.6630 C   0  0  0  0  0  0  0  0  0  0  0  0
   52.5750   30.7150   50.6180 C   0  0  0  0  0  0  0  0  0  0  0  0
   50.0644   30.7797   48.8063 H   0  0  0  0  0  0  0  0  0  0  0  0
   49.9760   32.3822   47.9996 H   0  0  0  0  0  0  0  0  0  0  0  0
   51.5178   31.4605   47.9996 H   0  0  0  0  0  0  0  0  0  0  0  0
   50.4689   32.6986   52.4416 H   0  0  0  0  0  0  0  0  0  0  0  0
   51.5824   31.4770   54.3073 H   0  0  0  0  0  0  0  0  0  0  0  0
   53.8857   30.2843   54.8539 H   0  0  0  0  0  0  0  0  0  0  0  0
   52.7937   28.8733   54.5957 H   0  0  0  0  0  0  0  0  0  0  0  0
   55.2422   31.2687   52.3765 H   0  0  0  0  0  0  0  0  0  0  0  0
   56.7604   32.7083   51.0222 H   0  0  0  0  0  0  0  0  0  0  0  0
   58.5780   34.4100   51.0960 H   0  0  0  0  0  0  0  0  0  0  0  0
   62.4535   32.4476   46.2684 H   0  0  0  0  0  0  0  0  0  0  0  0
   61.6033   31.3492   47.4257 H   0  0  0  0  0  0  0  0  0  0  0  0
   61.3281   34.9451   46.3591 H   0  0  0  0  0  0  0  0  0  0  0  0
   59.1836   36.0019   45.6542 H   0  0  0  0  0  0  0  0  0  0  0  0
   57.0772   34.6655   45.6337 H   0  0  0  0  0  0  0  0  0  0  0  0
   57.1129   32.2665   46.3067 H   0  0  0  0  0  0  0  0  0  0  0  0
   61.2757   30.2960   51.0136 H   0  0  0  0  0  0  0  0  0  0  0  0
   60.3982   30.0696   49.4627 H   0  0  0  0  0  0  0  0  0  0  0  0
   62.0626   30.7452   49.4627 H   0  0  0  0  0  0  0  0  0  0  0  0
   60.1600   30.3856   52.3653 H   0  0  0  0  0  0  0  0  0  0  0  0
   58.6384   28.9364   53.7051 H   0  0  0  0  0  0  0  0  0  0  0  0
   53.9662   29.2708   51.4404 H   0  0  0  0  0  0  0  0  0  0  0  0
   52.8625   30.5029   49.5776 H   0  0  0  0  0  0  0  0  0  0  0  0
  1  2  1  0
  2  3  1  0
  3  4  2  0
  4  5  1  0
  5  6  2  0
  6  7  1  0
  7  8  1  0
  8  9  2  0
  8 10  1  0
 10 11  1  0
 11 12  2  0
 12 13  1  0
 13 14  2  0
 14 15  1  0
 15 16  2  0
 16 17  1  0
 17 18  2  0
 18 19  1  0
 19 20  1  0
 20 21  1  0
 21 22  2  0
 22 23  1  0
 23 24  2  0
 24 25  1  0
 25 26  2  0
 26 27  1  0
 18 28  1  0
 28 29  1  0
 14 30  1  0
 30 31  2  0
  6 32  1  0
 32 33  2  0
 33  3  1  0
 31 11  1  0
 28 15  1  0
 26 21  1  0
  1 34  1  0
  1 35  1  0
  1 36  1  0
  4 37  1  0
  5 38  1  0
  7 39  1  0
  7 40  1  0
 12 41  1  0
 13 42  1  0
 16 43  1  0
 20 44  1  0
 20 45  1  0
 22 46  1  0
 23 47  1  0
 24 48  1  0
 25 49  1  0
 29 50  1  0
 29 51  1  0
 29 52  1  0
 30 53  1  0
 31 54  1  0
 32 55  1  0
 33 56  1  0
M  CHG  2  10  -1  16   1
M  END
>  <UniqueID>  (60) 
59

>  <SMILES>  (60) 
COc1ccc(CC(=O)[N-]c2ccc(-c3[nH+]nc(SCc4ccccc4Cl)n3C)cc2)cc1

>  <Energy>  (60) 
97.35420276910205

>  <Genealogy>  (60) 
COc1ccc(CC(=O)[N-]c2ccc(-c3[nH+]nc(SCc4ccccc4Cl)n3C)cc2)cc1 (protonated)
COc1ccc(CC(=O)[N-]c2ccc(-c3[nH+]nc(SCc4ccccc4Cl)n3C)cc2)cc1 (3D coordinates assigned)
COc1ccc(CC(=O)[N-]c2ccc(-c3[nH+]nc(SCc4ccccc4Cl)n3C)cc2)cc1 (optimized conformer: 97.35420276910205 kcal/mol)

>  <smiles>  (60) 
COc1ccc(CC(=O)Nc2ccc(-c3nnc(SCc4ccccc4Cl)n3C)cc2)cc1

>  <score_type>  (60) 
oracle

>  <origin>  (60) 
adg

>  <m_score__min__energy>  (60) 
-9.3499999999999996

>  <m_primary>  (60) 
energy

$$$$
60:0
     RDKit          3D

 53 55  0  0  0  0  0  0  0  0999 V2000
   60.0340   34.1710   45.9030 C   0  0  0  0  0  0  0  0  0  0  0  0
   59.2240   32.9350   45.6090 C   0  0  0  0  0  0  0  0  0  0  0  0
   58.5020   32.8600   44.4160 C   0  0  0  0  0  0  0  0  0  0  0  0
   57.7860   31.7010   44.0690 C   0  0  0  0  0  0  0  0  0  0  0  0
   57.0940   31.6960   42.7290 C   0  0  0  0  0  0  0  0  0  0  0  0
   57.7790   30.5780   44.9510 C   0  0  0  0  0  0  0  0  0  0  0  0
   56.9840   29.0260   44.5110 S   0  0  0  0  0  0  0  0  0  0  0  0
   55.5370   28.9490   44.9070 O   0  0  0  0  0  0  0  0  0  0  0  0
   57.0430   28.8720   43.0180 O   0  0  0  0  0  0  0  0  0  0  0  0
   57.8300   27.6980   45.2400 N   0  0  0  0  0  0  0  0  0  0  0  0
   57.6210   26.3130   44.9400 C   0  0  0  0  0  0  0  0  0  0  0  0
   57.4060   25.3580   45.9440 C   0  0  0  0  0  0  0  0  0  0  0  0
   57.1980   24.0180   45.6180 C   0  0  0  0  0  0  0  0  0  0  0  0
   57.2010   23.6010   44.2700 C   0  0  0  0  0  0  0  0  0  0  0  0
   56.9870   22.1770   43.8950 C   0  0  0  0  0  0  0  0  0  0  0  0
   57.8620   21.1420   44.3600 N   0  0  0  0  0  0  0  0  0  0  0  0
   56.0310   21.8650   43.1210 O   0  0  0  0  0  0  0  0  0  0  0  0
   57.3880   24.5690   43.2680 C   0  0  0  0  0  0  0  0  0  0  0  0
   57.6060   25.9080   43.5990 C   0  0  0  0  0  0  0  0  0  0  0  0
   58.4800   30.6740   46.1930 C   0  0  0  0  0  0  0  0  0  0  0  0
   58.5170   29.5020   47.1570 C   0  0  0  0  0  0  0  0  0  0  0  0
   59.1730   31.8650   46.5240 C   0  0  0  0  0  0  0  0  0  0  0  0
   59.9030   31.9570   47.7540 N   0  0  0  0  0  0  0  0  0  0  0  0
   61.2920   30.9680   48.0810 S   0  0  0  0  0  0  0  0  0  0  0  0
   61.8650   30.4600   46.7960 O   0  0  0  0  0  0  0  0  0  0  0  0
   60.8520   29.7830   48.9000 O   0  0  0  0  0  0  0  0  0  0  0  0
   62.5180   31.8580   49.0020 C   0  0  0  0  0  0  0  0  0  0  0  0
   62.6900   31.5470   50.3620 C   0  0  0  0  0  0  0  0  0  0  0  0
   63.6960   32.1630   51.1090 C   0  0  0  0  0  0  0  0  0  0  0  0
   63.9140   31.7500   52.8010 Cl  0  0  0  0  0  0  0  0  0  0  0  0
   64.5370   33.1010   50.5060 C   0  0  0  0  0  0  0  0  0  0  0  0
   64.3500   33.4540   49.1710 C   0  0  0  0  0  0  0  0  0  0  0  0
   63.3470   32.8430   48.4120 C   0  0  0  0  0  0  0  0  0  0  0  0
   63.1910   33.3440   46.7380 Cl  0  0  0  0  0  0  0  0  0  0  0  0
   60.1202   34.3025   46.9917 H   0  0  0  0  0  0  0  0  0  0  0  0
   61.0378   34.0641   45.4660 H   0  0  0  0  0  0  0  0  0  0  0  0
   59.5354   35.0487   45.4660 H   0  0  0  0  0  0  0  0  0  0  0  0
   58.4934   33.7239   43.7351 H   0  0  0  0  0  0  0  0  0  0  0  0
   56.0043   31.6881   42.8791 H   0  0  0  0  0  0  0  0  0  0  0  0
   57.3800   32.5962   42.1653 H   0  0  0  0  0  0  0  0  0  0  0  0
   57.3930   30.8000   42.1653 H   0  0  0  0  0  0  0  0  0  0  0  0
   57.4013   25.6688   46.9992 H   0  0  0  0  0  0  0  0  0  0  0  0
   57.0305   23.2811   46.4173 H   0  0  0  0  0  0  0  0  0  0  0  0
   58.7650   21.3540   44.8270 H   0  0  0  0  0  0  0  0  0  0  0  0
   57.6500   20.1430   44.1360 H   0  0  0  0  0  0  0  0  0  0  0  0
   57.3623   24.2681   42.2103 H   0  0  0  0  0  0  0  0  0  0  0  0
   57.7669   26.6491   42.8022 H   0  0  0  0  0  0  0  0  0  0  0  0
   58.5052   29.8772   48.1910 H   0  0  0  0  0  0  0  0  0  0  0  0
   57.6386   28.8614   46.9893 H   0  0  0  0  0  0  0  0  0  0  0  0
   59.4340   28.9181   46.9893 H   0  0  0  0  0  0  0  0  0  0  0  0
   62.0266   30.8123   50.8417 H   0  0  0  0  0  0  0  0  0  0  0  0
   65.3494   33.5625   51.0866 H   0  0  0  0  0  0  0  0  0  0  0  0
   64.9950   34.2175   48.7117 H   0  0  0  0  0  0  0  0  0  0  0  0
  1  2  1  0
  2  3  2  0
  3  4  1  0
  4  5  1  0
  4  6  2  0
  6  7  1  0
  7  8  2  0
  7  9  2  0
  7 10  1  0
 10 11  1  0
 11 12  2  0
 12 13  1  0
 13 14  2  0
 14 15  1  0
 15 16  1  0
 15 17  2  0
 14 18  1  0
 18 19  2  0
  6 20  1  0
 20 21  1  0
 20 22  2  0
 22 23  1  0
 23 24  1  0
 24 25  2  0
 24 26  2  0
 24 27  1  0
 27 28  2  0
 28 29  1  0
 29 30  1  0
 29 31  2  0
 31 32  1  0
 32 33  2  0
 33 34  1  0
 22  2  1  0
 33 27  1  0
 19 11  1  0
  1 35  1  0
  1 36  1  0
  1 37  1  0
  3 38  1  0
  5 39  1  0
  5 40  1  0
  5 41  1  0
 12 42  1  0
 13 43  1  0
 16 44  1  0
 16 45  1  0
 18 46  1  0
 19 47  1  0
 21 48  1  0
 21 49  1  0
 21 50  1  0
 28 51  1  0
 31 52  1  0
 32 53  1  0
M  CHG  2  10  -1  23  -1
M  END
>  <UniqueID>  (61) 
60

>  <SMILES>  (61) 
Cc1cc(C)c(S(=O)(=O)[N-]c2ccc(C(N)=O)cc2)c(C)c1[N-]S(=O)(=O)c1cc(Cl)ccc1Cl

>  <Energy>  (61) 
75.89377106118606

>  <Genealogy>  (61) 
Cc1cc(C)c(S(=O)(=O)[N-]c2ccc(C(N)=O)cc2)c(C)c1[N-]S(=O)(=O)c1cc(Cl)ccc1Cl (protonated)
Cc1cc(C)c(S(=O)(=O)[N-]c2ccc(C(N)=O)cc2)c(C)c1[N-]S(=O)(=O)c1cc(Cl)ccc1Cl (3D coordinates assigned)
Cc1cc(C)c(S(=O)(=O)[N-]c2ccc(C(N)=O)cc2)c(C)c1[N-]S(=O)(=O)c1cc(Cl)ccc1Cl (optimized conformer: 75.89377106118606 kcal/mol)

>  <smiles>  (61) 
Cc1cc(C)c(S(=O)(=O)Nc2ccc(C(N)=O)cc2)c(C)c1NS(=O)(=O)c1cc(Cl)ccc1Cl

>  <score_type>  (61) 
oracle

>  <origin>  (61) 
adg

>  <m_score__min__energy>  (61) 
-13.27

>  <m_primary>  (61) 
energy

$$$$
61:0
     RDKit          3D

 45 46  0  0  0  0  0  0  0  0999 V2000
   55.8870   28.2720   45.2530 N   0  0  0  0  0  0  0  0  0  0  0  0
   56.4950   27.0790   45.8470 C   0  0  1  0  0  0  0  0  0  0  0  0
   55.5600   26.0330   45.8920 O   0  0  0  0  0  0  0  0  0  0  0  0
   57.7130   26.6460   45.0660 C   0  0  0  0  0  0  0  0  0  0  0  0
   57.6130   25.6430   44.3100 O   0  0  0  0  0  0  0  0  0  0  0  0
   59.0130   27.3610   45.1890 C   0  0  0  0  0  0  0  0  0  0  0  0
   59.9990   26.7580   45.6900 O   0  0  0  0  0  0  0  0  0  0  0  0
   59.1960   28.8100   44.7890 C   0  0  2  0  0  0  0  0  0  0  0  0
   60.5450   29.3660   45.2900 C   0  0  0  0  0  0  0  0  0  0  0  0
   60.4460   30.0760   46.6180 C   0  0  0  0  0  0  0  0  0  0  0  0
   61.0220   31.3460   46.7880 C   0  0  0  0  0  0  0  0  0  0  0  0
   60.9040   32.0150   48.0100 C   0  0  0  0  0  0  0  0  0  0  0  0
   60.2100   31.4240   49.0690 C   0  0  0  0  0  0  0  0  0  0  0  0
   59.6330   30.1610   48.9090 C   0  0  0  0  0  0  0  0  0  0  0  0
   58.9550   29.5900   49.9350 F   0  0  0  0  0  0  0  0  0  0  0  0
   59.7510   29.4870   47.6890 C   0  0  0  0  0  0  0  0  0  0  0  0
   58.0800   29.6290   45.2790 N   0  0  0  0  0  0  0  0  0  0  0  0
   57.1930   30.3760   43.9820 S   0  0  0  0  0  0  0  0  0  0  0  0
   55.8120   30.7070   44.4730 O   0  0  0  0  0  0  0  0  0  0  0  0
   57.0850   29.4200   42.8260 O   0  0  0  0  0  0  0  0  0  0  0  0
   58.0030   31.8760   43.4510 C   0  0  0  0  0  0  0  0  0  0  0  0
   58.2210   32.7950   44.6190 C   0  0  0  0  0  0  0  0  0  0  0  0
   57.6480   32.5010   45.8680 C   0  0  0  0  0  0  0  0  0  0  0  0
   57.8760   33.3410   46.9630 C   0  0  0  0  0  0  0  0  0  0  0  0
   58.6830   34.4740   46.8210 C   0  0  0  0  0  0  0  0  0  0  0  0
   59.2660   34.7670   45.5850 C   0  0  0  0  0  0  0  0  0  0  0  0
   59.0400   33.9300   44.4880 C   0  0  0  0  0  0  0  0  0  0  0  0
   56.0680   29.0890   45.8790 H   0  0  0  0  0  0  0  0  0  0  0  0
   56.3420   28.4730   44.3330 H   0  0  0  0  0  0  0  0  0  0  0  0
   56.8107   27.3289   46.8706 H   0  0  0  0  0  0  0  0  0  0  0  0
   55.5600   25.6170   44.9910 H   0  0  0  0  0  0  0  0  0  0  0  0
   59.2036   28.8561   43.6900 H   0  0  0  0  0  0  0  0  0  0  0  0
   61.2500   28.5281   45.3946 H   0  0  0  0  0  0  0  0  0  0  0  0
   60.8849   30.1065   44.5510 H   0  0  0  0  0  0  0  0  0  0  0  0
   61.5679   31.8158   45.9566 H   0  0  0  0  0  0  0  0  0  0  0  0
   61.3584   33.0085   48.1380 H   0  0  0  0  0  0  0  0  0  0  0  0
   60.1177   31.9529   50.0291 H   0  0  0  0  0  0  0  0  0  0  0  0
   59.2982   28.4920   47.5670 H   0  0  0  0  0  0  0  0  0  0  0  0
   58.9750   31.6236   43.0020 H   0  0  0  0  0  0  0  0  0  0  0  0
   57.3655   32.3833   42.7119 H   0  0  0  0  0  0  0  0  0  0  0  0
   57.0179   31.6070   45.9850 H   0  0  0  0  0  0  0  0  0  0  0  0
   57.4199   33.1100   47.9370 H   0  0  0  0  0  0  0  0  0  0  0  0
   58.8591   35.1350   47.6824 H   0  0  0  0  0  0  0  0  0  0  0  0
   59.9032   35.6569   45.4751 H   0  0  0  0  0  0  0  0  0  0  0  0
   59.5051   34.1607   43.5182 H   0  0  0  0  0  0  0  0  0  0  0  0
  1  2  1  0
  2  3  1  0
  2  4  1  0
  4  5  2  0
  4  6  1  0
  6  7  2  0
  6  8  1  0
  8  9  1  0
  9 10  1  0
 10 11  2  0
 11 12  1  0
 12 13  2  0
 13 14  1  0
 14 15  1  0
 14 16  2  0
  8 17  1  0
 17 18  1  0
 18 19  2  0
 18 20  2  0
 18 21  1  0
 21 22  1  0
 22 23  2  0
 23 24  1  0
 24 25  2  0
 25 26  1  0
 26 27  2  0
 16 10  1  0
 27 22  1  0
  1 28  1  0
  1 29  1  0
  2 30  1  1
  3 31  1  0
  8 32  1  6
  9 33  1  0
  9 34  1  0
 11 35  1  0
 12 36  1  0
 13 37  1  0
 16 38  1  0
 21 39  1  0
 21 40  1  0
 23 41  1  0
 24 42  1  0
 25 43  1  0
 26 44  1  0
 27 45  1  0
M  CHG  1  17  -1
M  END
>  <UniqueID>  (62) 
61

>  <SMILES>  (62) 
N[C@@H](O)C(=O)C(=O)[C@H](Cc1cccc(F)c1)[N-]S(=O)(=O)Cc1ccccc1

>  <Energy>  (62) 
37.63991947935327

>  <Genealogy>  (62) 
NC(O)C(=O)C(=O)C(Cc1cccc(F)c1)[N-]S(=O)(=O)Cc1ccccc1 (protonated)
N[C@@H](O)C(=O)C(=O)[C@H](Cc1cccc(F)c1)[N-]S(=O)(=O)Cc1ccccc1 (chirality)
N[C@@H](O)C(=O)C(=O)[C@H](Cc1cccc(F)c1)[N-]S(=O)(=O)Cc1ccccc1 (3D coordinates assigned)
N[C@@H](O)C(=O)C(=O)[C@H](Cc1cccc(F)c1)[N-]S(=O)(=O)Cc1ccccc1 (optimized conformer: 37.63991947935327 kcal/mol)

>  <smiles>  (62) 
NC(O)C(=O)C(=O)C(Cc1cccc(F)c1)NS(=O)(=O)Cc1ccccc1

>  <score_type>  (62) 
oracle

>  <origin>  (62) 
adg

>  <m_score__min__energy>  (62) 
-9.6099999999999994

>  <m_primary>  (62) 
energy

$$$$
62:0
     RDKit          3D

 43 45  0  0  0  0  0  0  0  0999 V2000
   50.6410   32.4640   49.3460 O   0  0  0  0  0  0  0  0  0  0  0  0
   51.0620   31.9610   50.4210 C   0  0  0  0  0  0  0  0  0  0  0  0
   51.0240   32.7090   51.5910 O   0  0  0  0  0  0  0  0  0  0  0  0
   51.6470   30.5860   50.4300 C   0  0  0  0  0  0  0  0  0  0  0  0
   52.6480   30.4560   51.5440 C   0  0  0  0  0  0  0  0  0  0  0  0
   52.2360   30.5460   52.8830 C   0  0  0  0  0  0  0  0  0  0  0  0
   53.1750   30.4680   53.9140 C   0  0  0  0  0  0  0  0  0  0  0  0
   54.5300   30.3000   53.6200 C   0  0  0  0  0  0  0  0  0  0  0  0
   54.9570   30.1950   52.2910 C   0  0  0  0  0  0  0  0  0  0  0  0
   56.3280   30.0400   52.0350 O   0  0  0  0  0  0  0  0  0  0  0  0
   57.2600   31.0830   51.9430 C   0  0  0  0  0  0  0  0  0  0  0  0
   57.4160   32.0340   52.9660 C   0  0  0  0  0  0  0  0  0  0  0  0
   58.3480   33.0640   52.8320 C   0  0  0  0  0  0  0  0  0  0  0  0
   59.1260   33.1620   51.6760 C   0  0  0  0  0  0  0  0  0  0  0  0
   58.9730   32.2270   50.6360 C   0  0  0  0  0  0  0  0  0  0  0  0
   59.7540   32.3010   49.4310 N   0  0  0  0  0  0  0  0  0  0  0  0
   60.0550   33.7780   48.5720 S   0  0  0  0  0  0  0  0  0  0  0  0
   61.5190   33.8670   48.2410 O   0  0  0  0  0  0  0  0  0  0  0  0
   59.6800   34.9430   49.4430 O   0  0  0  0  0  0  0  0  0  0  0  0
   59.0750   33.8260   47.1090 C   0  0  0  0  0  0  0  0  0  0  0  0
   59.5440   34.5120   45.9790 C   0  0  0  0  0  0  0  0  0  0  0  0
   58.7650   34.5690   44.8190 C   0  0  0  0  0  0  0  0  0  0  0  0
   57.5180   33.9400   44.7820 C   0  0  0  0  0  0  0  0  0  0  0  0
   57.0490   33.2500   45.9030 C   0  0  0  0  0  0  0  0  0  0  0  0
   57.8250   33.1910   47.0660 C   0  0  0  0  0  0  0  0  0  0  0  0
   58.0250   31.2010   50.7760 C   0  0  0  0  0  0  0  0  0  0  0  0
   54.0130   30.2980   51.2530 C   0  0  0  0  0  0  0  0  0  0  0  0
   50.8429   29.8498   50.5761 H   0  0  0  0  0  0  0  0  0  0  0  0
   52.1522   30.4041   49.4699 H   0  0  0  0  0  0  0  0  0  0  0  0
   51.1702   30.6784   53.1210 H   0  0  0  0  0  0  0  0  0  0  0  0
   52.8462   30.5391   54.9613 H   0  0  0  0  0  0  0  0  0  0  0  0
   55.2652   30.2500   54.4367 H   0  0  0  0  0  0  0  0  0  0  0  0
   56.8012   31.9662   53.8756 H   0  0  0  0  0  0  0  0  0  0  0  0
   58.4704   33.8011   53.6393 H   0  0  0  0  0  0  0  0  0  0  0  0
   59.8617   33.9740   51.5784 H   0  0  0  0  0  0  0  0  0  0  0  0
   60.2770   31.4530   49.1150 H   0  0  0  0  0  0  0  0  0  0  0  0
   60.5264   35.0061   46.0053 H   0  0  0  0  0  0  0  0  0  0  0  0
   59.1343   35.1095   43.9350 H   0  0  0  0  0  0  0  0  0  0  0  0
   56.9050   33.9880   43.8699 H   0  0  0  0  0  0  0  0  0  0  0  0
   56.0684   32.7525   45.8712 H   0  0  0  0  0  0  0  0  0  0  0  0
   57.4545   32.6464   47.9470 H   0  0  0  0  0  0  0  0  0  0  0  0
   57.8812   30.4799   49.9578 H   0  0  0  0  0  0  0  0  0  0  0  0
   54.3464   30.2545   50.2056 H   0  0  0  0  0  0  0  0  0  0  0  0
  1  2  2  0
  2  3  1  0
  2  4  1  0
  4  5  1  0
  5  6  2  0
  6  7  1  0
  7  8  2  0
  8  9  1  0
  9 10  1  0
 10 11  1  0
 11 12  2  0
 12 13  1  0
 13 14  2  0
 14 15  1  0
 15 16  1  0
 16 17  1  0
 17 18  2  0
 17 19  2  0
 17 20  1  0
 20 21  2  0
 21 22  1  0
 22 23  2  0
 23 24  1  0
 24 25  2  0
 15 26  2  0
  9 27  2  0
 27  5  1  0
 26 11  1  0
 25 20  1  0
  4 28  1  0
  4 29  1  0
  6 30  1  0
  7 31  1  0
  8 32  1  0
 12 33  1  0
 13 34  1  0
 14 35  1  0
 16 36  1  0
 21 37  1  0
 22 38  1  0
 23 39  1  0
 24 40  1  0
 25 41  1  0
 26 42  1  0
 27 43  1  0
M  CHG  1   3  -1
M  END
>  <UniqueID>  (63) 
62

>  <SMILES>  (63) 
O=C([O-])Cc1cccc(Oc2cccc(NS(=O)(=O)c3ccccc3)c2)c1

>  <Energy>  (63) 
52.91625545028989

>  <Genealogy>  (63) 
O=C([O-])Cc1cccc(Oc2cccc(NS(=O)(=O)c3ccccc3)c2)c1 (protonated)
O=C([O-])Cc1cccc(Oc2cccc(NS(=O)(=O)c3ccccc3)c2)c1 (3D coordinates assigned)
O=C([O-])Cc1cccc(Oc2cccc(NS(=O)(=O)c3ccccc3)c2)c1 (optimized conformer: 52.91625545028989 kcal/mol)

>  <smiles>  (63) 
O=C(O)Cc1cccc(Oc2cccc(NS(=O)(=O)c3ccccc3)c2)c1

>  <score_type>  (63) 
oracle

>  <origin>  (63) 
adg

>  <m_score__min__energy>  (63) 
-12.970000000000001

>  <m_primary>  (63) 
energy

$$$$
63:0
     RDKit          3D

 58 62  0  0  0  0  0  0  0  0999 V2000
   57.3320   20.1770   46.5300 C   0  0  0  0  0  0  0  0  0  0  0  0
   57.2560   21.3120   47.3880 O   0  0  0  0  0  0  0  0  0  0  0  0
   57.3810   22.6410   46.9560 C   0  0  0  0  0  0  0  0  0  0  0  0
   57.9770   22.9830   45.7280 C   0  0  0  0  0  0  0  0  0  0  0  0
   58.0770   24.3240   45.3430 C   0  0  0  0  0  0  0  0  0  0  0  0
   57.5850   25.3460   46.1720 C   0  0  0  0  0  0  0  0  0  0  0  0
   57.6940   26.7620   45.7530 C   0  0  0  0  0  0  0  0  0  0  0  0
   56.6590   27.4670   45.2300 N   0  0  0  0  0  0  0  0  0  0  0  0
   56.9920   28.7200   44.9300 N   0  0  0  0  0  0  0  0  0  0  0  0
   56.1450   29.6380   44.3960 C   0  0  0  0  0  0  0  0  0  0  0  0
   54.9470   29.3400   44.1430 O   0  0  0  0  0  0  0  0  0  0  0  0
   56.6260   30.9270   44.1310 C   0  0  0  0  0  0  0  0  0  0  0  0
   57.9720   31.2280   44.4270 C   0  0  0  0  0  0  0  0  0  0  0  0
   58.5160   32.6090   44.1780 C   0  0  0  0  0  0  0  0  0  0  0  0
   57.8370   33.6160   45.0250 N   0  0  0  0  0  0  0  0  0  0  0  0
   58.5120   34.9330   45.0350 C   0  0  0  0  0  0  0  0  0  0  0  0
   59.9080   34.8500   45.6650 C   0  0  0  0  0  0  0  0  0  0  0  0
   59.9140   33.9300   46.8090 N   0  0  0  0  0  0  0  0  0  0  0  0
   61.1600   33.6280   47.4630 C   0  0  0  0  0  0  0  0  0  0  0  0
   62.3390   33.4870   46.7120 C   0  0  0  0  0  0  0  0  0  0  0  0
   63.5500   33.1920   47.3460 C   0  0  0  0  0  0  0  0  0  0  0  0
   63.5990   33.0210   48.7370 C   0  0  0  0  0  0  0  0  0  0  0  0
   64.9060   32.7410   49.4180 C   0  0  0  0  0  0  0  0  0  0  0  0
   62.4260   33.1780   49.4910 C   0  0  0  0  0  0  0  0  0  0  0  0
   61.2160   33.4720   48.8580 C   0  0  0  0  0  0  0  0  0  0  0  0
   58.6420   33.5620   47.4410 C   0  0  0  0  0  0  0  0  0  0  0  0
   57.5940   33.1090   46.3990 C   0  0  0  0  0  0  0  0  0  0  0  0
   58.7800   30.2650   44.9660 N   0  0  0  0  0  0  0  0  0  0  0  0
   58.2750   29.0290   45.2060 C   0  0  0  0  0  0  0  0  0  0  0  0
   59.0980   27.7200   45.8590 S   0  0  0  0  0  0  0  0  0  0  0  0
   56.9910   24.9980   47.3990 C   0  0  0  0  0  0  0  0  0  0  0  0
   56.8930   23.6570   47.7840 C   0  0  0  0  0  0  0  0  0  0  0  0
   57.3933   19.2618   47.1372 H   0  0  0  0  0  0  0  0  0  0  0  0
   56.4346   20.1365   45.8952 H   0  0  0  0  0  0  0  0  0  0  0  0
   58.2268   20.2565   45.8952 H   0  0  0  0  0  0  0  0  0  0  0  0
   58.3656   22.1930   45.0685 H   0  0  0  0  0  0  0  0  0  0  0  0
   58.5455   24.5810   44.3815 H   0  0  0  0  0  0  0  0  0  0  0  0
   55.9644   31.6923   43.6989 H   0  0  0  0  0  0  0  0  0  0  0  0
   59.5922   32.6165   44.4055 H   0  0  0  0  0  0  0  0  0  0  0  0
   58.3392   32.8667   43.1233 H   0  0  0  0  0  0  0  0  0  0  0  0
   58.6088   35.2918   43.9997 H   0  0  0  0  0  0  0  0  0  0  0  0
   57.9047   35.6251   45.6368 H   0  0  0  0  0  0  0  0  0  0  0  0
   60.6227   34.4903   44.9101 H   0  0  0  0  0  0  0  0  0  0  0  0
   60.1934   35.8517   46.0188 H   0  0  0  0  0  0  0  0  0  0  0  0
   62.3093   33.6093   45.6192 H   0  0  0  0  0  0  0  0  0  0  0  0
   64.4694   33.0935   46.7502 H   0  0  0  0  0  0  0  0  0  0  0  0
   64.7651   32.7712   50.5085 H   0  0  0  0  0  0  0  0  0  0  0  0
   65.2675   31.7450   49.1224 H   0  0  0  0  0  0  0  0  0  0  0  0
   65.6438   33.5015   49.1224 H   0  0  0  0  0  0  0  0  0  0  0  0
   62.4595   33.0691   50.5851 H   0  0  0  0  0  0  0  0  0  0  0  0
   60.2997   33.5822   49.4566 H   0  0  0  0  0  0  0  0  0  0  0  0
   58.8206   32.7383   48.1478 H   0  0  0  0  0  0  0  0  0  0  0  0
   58.2482   34.4488   47.9592 H   0  0  0  0  0  0  0  0  0  0  0  0
   57.5952   32.0095   46.3653 H   0  0  0  0  0  0  0  0  0  0  0  0
   56.6291   33.5269   46.7219 H   0  0  0  0  0  0  0  0  0  0  0  0
   59.7780   30.4740   45.1950 H   0  0  0  0  0  0  0  0  0  0  0  0
   56.6010   25.7860   48.0600 H   0  0  0  0  0  0  0  0  0  0  0  0
   56.4278   23.3991   48.7469 H   0  0  0  0  0  0  0  0  0  0  0  0
  1  2  1  0
  2  3  1  0
  3  4  2  0
  4  5  1  0
  5  6  2  0
  6  7  1  0
  7  8  2  0
  8  9  1  0
  9 10  1  0
 10 11  2  0
 10 12  1  0
 12 13  2  0
 13 14  1  0
 14 15  1  0
 15 16  1  0
 16 17  1  0
 17 18  1  0
 18 19  1  0
 19 20  2  0
 20 21  1  0
 21 22  2  0
 22 23  1  0
 22 24  1  0
 24 25  2  0
 18 26  1  0
 26 27  1  0
 13 28  1  0
 28 29  2  0
 29 30  1  0
  6 31  1  0
 31 32  2  0
 32  3  1  0
 30  7  1  0
 29  9  1  0
 27 15  1  0
 25 19  1  0
  1 33  1  0
  1 34  1  0
  1 35  1  0
  4 36  1  0
  5 37  1  0
 12 38  1  0
 14 39  1  0
 14 40  1  0
 16 41  1  0
 16 42  1  0
 17 43  1  0
 17 44  1  0
 20 45  1  0
 21 46  1  0
 23 47  1  0
 23 48  1  0
 23 49  1  0
 24 50  1  0
 25 51  1  0
 26 52  1  0
 26 53  1  0
 27 54  1  0
 27 55  1  0
 28 56  1  0
 31 57  1  0
 32 58  1  0
M  CHG  1  28   1
M  END
>  <UniqueID>  (64) 
63

>  <SMILES>  (64) 
COc1ccc(-c2nn3c(=O)cc(CN4CCN(c5ccc(C)cc5)CC4)[nH+]c3s2)cc1

>  <Energy>  (64) 
112.77627655721724

>  <Genealogy>  (64) 
COc1ccc(-c2nn3c(=O)cc(CN4CCN(c5ccc(C)cc5)CC4)[nH+]c3s2)cc1 (protonated)
COc1ccc(-c2nn3c(=O)cc(CN4CCN(c5ccc(C)cc5)CC4)[nH+]c3s2)cc1 (3D coordinates assigned)
COc1ccc(-c2nn3c(=O)cc(CN4CCN(c5ccc(C)cc5)CC4)[nH+]c3s2)cc1 (nonaromatic ring conformer: 112.77627655721724 kcal/mol)

>  <smiles>  (64) 
COc1ccc(-c2nn3c(=O)cc(CN4CCN(c5ccc(C)cc5)CC4)nc3s2)cc1

>  <score_type>  (64) 
oracle

>  <origin>  (64) 
adg

>  <m_score__min__energy>  (64) 
-8.3499999999999996

>  <m_primary>  (64) 
energy

$$$$
64:0
     RDKit          3D

 62 66  0  0  0  0  0  0  0  0999 V2000
   62.0233   26.9412   52.9723 H   0  0  0  0  0  0  0  0  0  0  0  0
   61.5520   27.4980   52.1490 C   0  0  0  0  0  0  0  0  0  0  0  0
   61.2360   28.8030   52.3100 N   0  0  0  0  0  0  0  0  0  0  0  0
   60.6350   29.5250   51.3320 C   0  0  0  0  0  0  0  0  0  0  0  0
   60.3290   30.8670   51.5890 C   0  0  0  0  0  0  0  0  0  0  0  0
   60.6042   31.3148   52.5553 H   0  0  0  0  0  0  0  0  0  0  0  0
   59.6790   31.6380   50.6300 C   0  0  0  0  0  0  0  0  0  0  0  0
   59.2960   33.3170   50.9630 Cl  0  0  0  0  0  0  0  0  0  0  0  0
   59.3120   31.0660   49.4150 C   0  0  0  0  0  0  0  0  0  0  0  0
   58.7826   31.6715   48.6646 H   0  0  0  0  0  0  0  0  0  0  0  0
   59.6110   29.7280   49.1410 C   0  0  0  0  0  0  0  0  0  0  0  0
   59.2987   29.2906   48.1812 H   0  0  0  0  0  0  0  0  0  0  0  0
   60.3090   28.9250   50.0770 C   0  0  0  0  0  0  0  0  0  0  0  0
   60.6870   27.5500   49.8780 C   0  0  0  0  0  0  0  0  0  0  0  0
   60.5760   26.8620   48.7710 N   0  0  0  0  0  0  0  0  0  0  0  0
   59.4350   26.2830   48.0680 C   0  0  0  0  0  0  0  0  0  0  0  0
   58.5429   26.9016   48.2455 H   0  0  0  0  0  0  0  0  0  0  0  0
   59.2551   25.2635   48.4398 H   0  0  0  0  0  0  0  0  0  0  0  0
   59.7300   26.2330   46.5680 C   0  0  0  0  0  0  0  0  0  0  0  0
   59.4156   25.2554   46.1737 H   0  0  0  0  0  0  0  0  0  0  0  0
   60.8098   26.3835   46.4221 H   0  0  0  0  0  0  0  0  0  0  0  0
   58.9950   27.3200   45.8270 C   0  0  0  0  0  0  0  0  0  0  0  0
   59.7050   28.3140   45.1360 C   0  0  0  0  0  0  0  0  0  0  0  0
   60.8042   28.2818   45.1085 H   0  0  0  0  0  0  0  0  0  0  0  0
   59.0240   29.3440   44.4830 C   0  0  0  0  0  0  0  0  0  0  0  0
   59.5897   30.1165   43.9416 H   0  0  0  0  0  0  0  0  0  0  0  0
   57.6160   29.3990   44.5140 C   0  0  0  0  0  0  0  0  0  0  0  0
   56.8860   30.4130   43.8720 O   0  0  0  0  0  0  0  0  0  0  0  0
   56.3660   31.5830   44.5040 C   0  0  0  0  0  0  0  0  0  0  0  0
   55.8617   32.2053   43.7501 H   0  0  0  0  0  0  0  0  0  0  0  0
   55.6560   31.2738   45.2852 H   0  0  0  0  0  0  0  0  0  0  0  0
   57.4680   32.3830   45.1460 C   0  0  0  0  0  0  0  0  0  0  0  0
   58.2100   33.3070   44.3920 C   0  0  0  0  0  0  0  0  0  0  0  0
   57.9755   33.4588   43.3281 H   0  0  0  0  0  0  0  0  0  0  0  0
   59.2440   34.0340   44.9860 C   0  0  0  0  0  0  0  0  0  0  0  0
   59.8183   34.7572   44.3883 H   0  0  0  0  0  0  0  0  0  0  0  0
   59.5540   33.8460   46.3430 C   0  0  0  0  0  0  0  0  0  0  0  0
   60.7030   34.5900   46.9720 C   0  0  0  0  0  0  0  0  0  0  0  0
   60.7776   35.5864   46.5119 H   0  0  0  0  0  0  0  0  0  0  0  0
   60.5112   34.6692   48.0523 H   0  0  0  0  0  0  0  0  0  0  0  0
   62.0310   33.8500   46.7740 C   0  0  0  0  0  0  0  0  0  0  0  0
   61.9359   33.1636   45.9197 H   0  0  0  0  0  0  0  0  0  0  0  0
   62.8205   34.5928   46.5870 H   0  0  0  0  0  0  0  0  0  0  0  0
   62.3890   33.0810   47.9680 N   0  0  0  0  0  0  0  0  0  0  0  0
   62.7820   33.5720   49.1580 C   0  0  0  0  0  0  0  0  0  0  0  0
   62.8590   34.9280   49.4550 O   0  0  0  0  0  0  0  0  0  0  0  0
   63.1060   32.5520   50.0320 C   0  0  0  0  0  0  0  0  0  0  0  0
   63.4519   32.6558   51.0710 H   0  0  0  0  0  0  0  0  0  0  0  0
   62.9070   31.3740   49.3350 C   0  0  0  0  0  0  0  0  0  0  0  0
   63.0625   30.3510   49.7081 H   0  0  0  0  0  0  0  0  0  0  0  0
   62.4740   31.7410   48.0770 C   0  0  0  0  0  0  0  0  0  0  0  0
   62.1740   30.8540   47.0500 O   0  0  0  0  0  0  0  0  0  0  0  0
   58.8260   32.9080   47.0920 C   0  0  0  0  0  0  0  0  0  0  0  0
   59.0705   32.7453   48.1521 H   0  0  0  0  0  0  0  0  0  0  0  0
   57.7920   32.1800   46.4970 C   0  0  0  0  0  0  0  0  0  0  0  0
   57.2291   31.4442   47.0901 H   0  0  0  0  0  0  0  0  0  0  0  0
   56.9110   28.4110   45.2150 C   0  0  0  0  0  0  0  0  0  0  0  0
   55.5220   28.4510   45.2640 O   0  0  0  0  0  0  0  0  0  0  0  0
   57.5950   27.3810   45.8690 C   0  0  0  0  0  0  0  0  0  0  0  0
   57.0309   26.6140   46.4198 H   0  0  0  0  0  0  0  0  0  0  0  0
   61.2820   26.8600   50.9450 C   0  0  0  0  0  0  0  0  0  0  0  0
   61.5387   25.7970   50.8262 H   0  0  0  0  0  0  0  0  0  0  0  0
  1  2  1  0
  2  3  1  0
  3  4  1  0
  4  5  2  0
  5  6  1  0
  5  7  1  0
  7  8  1  0
  7  9  2  0
  9 10  1  0
  9 11  1  0
 11 12  1  0
 11 13  2  0
 13 14  1  0
 14 15  2  0
 15 16  1  0
 16 17  1  0
 16 18  1  0
 16 19  1  0
 19 20  1  0
 19 21  1  0
 19 22  1  0
 22 23  2  0
 23 24  1  0
 23 25  1  0
 25 26  1  0
 25 27  2  0
 27 28  1  0
 28 29  1  0
 29 30  1  0
 29 31  1  0
 29 32  1  0
 32 33  2  0
 33 34  1  0
 33 35  1  0
 35 36  1  0
 35 37  2  0
 37 38  1  0
 38 39  1  0
 38 40  1  0
 38 41  1  0
 41 42  1  0
 41 43  1  0
 41 44  1  0
 44 45  1  0
 45 46  1  0
 45 47  2  0
 47 48  1  0
 47 49  1  0
 49 50  1  0
 49 51  2  0
 51 52  1  0
 37 53  1  0
 53 54  1  0
 53 55  2  0
 55 56  1  0
 27 57  1  0
 57 58  1  0
 57 59  2  0
 59 60  1  0
 14 61  1  0
 61 62  1  0
 61  2  2  0
 13  4  1  0
 59 22  1  0
 55 32  1  0
 51 44  1  0
M  CHG  4   3  -1  46  -1  52  -1  58  -1
M  END
>  <UniqueID>  (65) 
64

>  <SMILES>  (65) 
[O-]c1cc(CC/N=c2/cc[n-]c3cc(Cl)ccc23)ccc1OCc1ccc(CCn2c([O-])ccc2[O-])cc1

>  <Energy>  (65) 
107.01349946290419

>  <Genealogy>  (65) 
[O-]c1cc(CCN=c2cc[n-]c3cc(Cl)ccc23)ccc1OCc1ccc(CCn2c([O-])ccc2[O-])cc1 (protonated)
[O-]c1cc(CC/N=c2/cc[n-]c3cc(Cl)ccc23)ccc1OCc1ccc(CCn2c([O-])ccc2[O-])cc1 (cis-trans isomerization)
[O-]c1cc(CC/N=c2/cc[n-]c3cc(Cl)ccc23)ccc1OCc1ccc(CCn2c([O-])ccc2[O-])cc1 (3D coordinates assigned)
[O-]c1cc(CC/N=c2/cc[n-]c3cc(Cl)ccc23)ccc1OCc1ccc(CCn2c([O-])ccc2[O-])cc1 (optimized conformer: 107.01349946290419 kcal/mol)

>  <smiles>  (65) 
Oc1cc(CCN=c2cc[nH]c3cc(Cl)ccc23)ccc1OCc1ccc(CCn2c(O)ccc2O)cc1

>  <score_type>  (65) 
oracle

>  <origin>  (65) 
adg

>  <m_score__min__energy>  (65) 
-17.239999999999998

>  <m_primary>  (65) 
energy

$$$$
65:0
     RDKit          3D

 35 36  0  0  0  0  0  0  0  0999 V2000
   57.8820   22.6100   45.6100 C   0  0  0  0  0  0  0  0  0  0  0  0
   57.7560   24.0890   45.8000 C   0  0  0  0  0  0  0  0  0  0  0  0
   56.4980   24.7020   45.7790 C   0  0  0  0  0  0  0  0  0  0  0  0
   56.4270   26.0810   45.9880 C   0  0  0  0  0  0  0  0  0  0  0  0
   55.3120   26.6660   45.9760 O   0  0  0  0  0  0  0  0  0  0  0  0
   57.5630   26.7930   46.2080 N   0  0  0  0  0  0  0  0  0  0  0  0
   58.7750   26.1820   46.2250 C   0  0  0  0  0  0  0  0  0  0  0  0
   60.2610   27.1410   46.5140 S   0  0  0  0  0  0  0  0  0  0  0  0
   59.9500   27.3870   48.3000 C   0  0  0  0  0  0  0  0  0  0  0  0
   60.1230   28.8200   48.6990 C   0  0  0  0  0  0  0  0  0  0  0  0
   60.0450   29.1380   49.9160 O   0  0  0  0  0  0  0  0  0  0  0  0
   60.4490   29.8020   47.7080 N   0  0  0  0  0  0  0  0  0  0  0  0
   59.5120   30.5420   46.9130 C   0  0  0  0  0  0  0  0  0  0  0  0
   59.5530   31.9410   46.9550 C   0  0  0  0  0  0  0  0  0  0  0  0
   58.6830   32.6980   46.1660 C   0  0  0  0  0  0  0  0  0  0  0  0
   57.7730   32.0630   45.3180 C   0  0  0  0  0  0  0  0  0  0  0  0
   57.7310   30.6650   45.2520 C   0  0  0  0  0  0  0  0  0  0  0  0
   56.5950   29.8770   44.1580 S   0  0  0  0  0  0  0  0  0  0  0  0
   57.1140   28.2590   43.8380 N   0  0  0  0  0  0  0  0  0  0  0  0
   56.5200   30.6250   42.8560 O   0  0  0  0  0  0  0  0  0  0  0  0
   55.2310   29.8560   44.7880 O   0  0  0  0  0  0  0  0  0  0  0  0
   58.6060   29.9060   46.0430 C   0  0  0  0  0  0  0  0  0  0  0  0
   58.8640   24.8400   46.0290 N   0  0  0  0  0  0  0  0  0  0  0  0
   57.9240   22.1164   46.5921 H   0  0  0  0  0  0  0  0  0  0  0  0
   57.0124   22.2370   45.0491 H   0  0  0  0  0  0  0  0  0  0  0  0
   58.8022   22.3895   45.0491 H   0  0  0  0  0  0  0  0  0  0  0  0
   55.5869   24.1117   45.6021 H   0  0  0  0  0  0  0  0  0  0  0  0
   58.9204   27.0748   48.5291 H   0  0  0  0  0  0  0  0  0  0  0  0
   60.6785   26.7838   48.8617 H   0  0  0  0  0  0  0  0  0  0  0  0
   60.2745   32.4472   47.6132 H   0  0  0  0  0  0  0  0  0  0  0  0
   58.7149   33.7965   46.2129 H   0  0  0  0  0  0  0  0  0  0  0  0
   57.0878   32.6624   44.7006 H   0  0  0  0  0  0  0  0  0  0  0  0
   56.7990   28.0170   42.8720 H   0  0  0  0  0  0  0  0  0  0  0  0
   56.5920   27.6340   44.4940 H   0  0  0  0  0  0  0  0  0  0  0  0
   58.5842   28.8078   45.9833 H   0  0  0  0  0  0  0  0  0  0  0  0
  1  2  1  0
  2  3  2  0
  3  4  1  0
  4  5  2  0
  4  6  1  0
  6  7  1  0
  7  8  1  0
  8  9  1  0
  9 10  1  0
 10 11  2  0
 10 12  1  0
 12 13  1  0
 13 14  2  0
 14 15  1  0
 15 16  2  0
 16 17  1  0
 17 18  1  0
 18 19  1  0
 18 20  2  0
 18 21  2  0
 17 22  2  0
  7 23  2  0
 23  2  1  0
 22 13  1  0
  1 24  1  0
  1 25  1  0
  1 26  1  0
  3 27  1  0
  9 28  1  0
  9 29  1  0
 14 30  1  0
 15 31  1  0
 16 32  1  0
 19 33  1  0
 19 34  1  0
 22 35  1  0
M  CHG  2   6  -1  12  -1
M  END
>  <UniqueID>  (66) 
65

>  <SMILES>  (66) 
Cc1cc(=O)[n-]c(SCC(=O)[N-]c2cccc(S(N)(=O)=O)c2)n1

>  <Energy>  (66) 
30.0377562867269

>  <Genealogy>  (66) 
Cc1cc(=O)[n-]c(SCC(=O)[N-]c2cccc(S(N)(=O)=O)c2)n1 (protonated)
Cc1cc(=O)[n-]c(SCC(=O)[N-]c2cccc(S(N)(=O)=O)c2)n1 (3D coordinates assigned)
Cc1cc(=O)[n-]c(SCC(=O)[N-]c2cccc(S(N)(=O)=O)c2)n1 (optimized conformer: 30.0377562867269 kcal/mol)

>  <smiles>  (66) 
Cc1cc(=O)[nH]c(SCC(=O)Nc2cccc(S(N)(=O)=O)c2)n1

>  <score_type>  (66) 
oracle

>  <origin>  (66) 
adg

>  <m_score__min__energy>  (66) 
-10.91

>  <m_primary>  (66) 
energy

$$$$
66:0
     RDKit          3D

 45 47  0  0  0  0  0  0  0  0999 V2000
   54.7100   26.3420   45.9900 N   0  0  0  0  0  0  0  0  0  0  0  0
   55.8260   25.0240   46.0540 S   0  0  0  0  0  0  0  0  0  0  0  0
   55.5270   24.1680   47.2530 O   0  0  0  0  0  0  0  0  0  0  0  0
   55.6800   24.1850   44.8150 O   0  0  0  0  0  0  0  0  0  0  0  0
   57.4690   25.6500   46.1650 C   0  0  0  0  0  0  0  0  0  0  0  0
   58.5630   24.7950   45.9770 C   0  0  0  0  0  0  0  0  0  0  0  0
   59.8640   25.2920   46.0720 C   0  0  0  0  0  0  0  0  0  0  0  0
   60.0810   26.6450   46.3440 C   0  0  0  0  0  0  0  0  0  0  0  0
   58.9940   27.5220   46.5110 C   0  0  0  0  0  0  0  0  0  0  0  0
   59.2450   28.9540   46.7980 C   0  0  0  0  0  0  0  0  0  0  0  0
   58.2870   29.6740   47.1920 O   0  0  0  0  0  0  0  0  0  0  0  0
   60.5540   29.5300   46.6260 N   0  0  0  0  0  0  0  0  0  0  0  0
   60.8790   30.8940   46.9440 C   0  0  0  0  0  0  0  0  0  0  0  0
   62.0910   31.2330   47.5710 C   0  0  0  0  0  0  0  0  0  0  0  0
   62.3930   32.5700   47.8430 C   0  0  0  0  0  0  0  0  0  0  0  0
   61.5010   33.5800   47.4770 C   0  0  0  0  0  0  0  0  0  0  0  0
   60.3040   33.2580   46.8260 C   0  0  0  0  0  0  0  0  0  0  0  0
   59.1860   34.5240   46.3300 S   0  0  0  0  0  0  0  0  0  0  0  0
   59.7840   35.3650   45.2370 O   0  0  0  0  0  0  0  0  0  0  0  0
   58.8940   35.4030   47.5130 O   0  0  0  0  0  0  0  0  0  0  0  0
   57.7030   33.8240   45.7640 N   0  0  0  0  0  0  0  0  0  0  0  0
   57.6310   32.8550   44.9020 C   0  0  0  0  0  0  0  0  0  0  0  0
   57.9440   32.9580   43.4540 C   0  0  0  0  0  0  0  0  0  0  0  0
   57.6250   31.5530   42.9210 C   0  0  0  0  0  0  0  0  0  0  0  0
   57.3130   30.6620   44.1370 C   0  0  0  0  0  0  0  0  0  0  0  0
   57.2630   31.5480   45.2810 N   0  0  0  0  0  0  0  0  0  0  0  0
   59.9990   31.9160   46.5590 C   0  0  0  0  0  0  0  0  0  0  0  0
   57.6860   27.0090   46.4290 C   0  0  0  0  0  0  0  0  0  0  0  0
   55.0540   27.0650   46.6600 H   0  0  0  0  0  0  0  0  0  0  0  0
   58.3965   23.7307   45.7543 H   0  0  0  0  0  0  0  0  0  0  0  0
   60.7208   24.6164   45.9323 H   0  0  0  0  0  0  0  0  0  0  0  0
   61.1090   27.0272   46.4282 H   0  0  0  0  0  0  0  0  0  0  0  0
   61.3110   28.9520   46.1980 H   0  0  0  0  0  0  0  0  0  0  0  0
   62.8041   30.4428   47.8485 H   0  0  0  0  0  0  0  0  0  0  0  0
   63.3362   32.8276   48.3469 H   0  0  0  0  0  0  0  0  0  0  0  0
   61.7391   34.6304   47.7005 H   0  0  0  0  0  0  0  0  0  0  0  0
   57.3128   33.7163   42.9677 H   0  0  0  0  0  0  0  0  0  0  0  0
   58.9819   33.2661   43.2595 H   0  0  0  0  0  0  0  0  0  0  0  0
   56.7538   31.5935   42.2506 H   0  0  0  0  0  0  0  0  0  0  0  0
   58.4753   31.1503   42.3511 H   0  0  0  0  0  0  0  0  0  0  0  0
   56.3449   30.1573   44.0023 H   0  0  0  0  0  0  0  0  0  0  0  0
   58.0745   29.8791   44.2678 H   0  0  0  0  0  0  0  0  0  0  0  0
   57.0550   31.2450   46.2590 H   0  0  0  0  0  0  0  0  0  0  0  0
   59.0612   31.6623   46.0430 H   0  0  0  0  0  0  0  0  0  0  0  0
   56.8268   27.6805   46.5734 H   0  0  0  0  0  0  0  0  0  0  0  0
  1  2  1  0
  2  3  2  0
  2  4  2  0
  2  5  1  0
  5  6  2  0
  6  7  1  0
  7  8  2  0
  8  9  1  0
  9 10  1  0
 10 11  2  0
 10 12  1  0
 12 13  1  0
 13 14  2  0
 14 15  1  0
 15 16  2  0
 16 17  1  0
 17 18  1  0
 18 19  2  0
 18 20  2  0
 18 21  1  0
 21 22  2  3
 22 23  1  0
 23 24  1  0
 24 25  1  0
 25 26  1  0
 17 27  2  0
  9 28  2  0
 28  5  1  0
 27 13  1  0
 26 22  1  0
  1 29  1  0
  6 30  1  0
  7 31  1  0
  8 32  1  0
 12 33  1  0
 14 34  1  0
 15 35  1  0
 16 36  1  0
 23 37  1  0
 23 38  1  0
 24 39  1  0
 24 40  1  0
 25 41  1  0
 25 42  1  0
 26 43  1  0
 27 44  1  0
 28 45  1  0
M  CHG  1   1  -1
M  END
>  <UniqueID>  (67) 
66

>  <SMILES>  (67) 
[NH-]S(=O)(=O)c1cccc(C(=O)Nc2cccc(S(=O)(=O)N=C3CCCN3)c2)c1

>  <Energy>  (67) 
60.901195739092735

>  <Genealogy>  (67) 
[NH-]S(=O)(=O)c1cccc(C(=O)Nc2cccc(S(=O)(=O)N=C3CCCN3)c2)c1 (protonated)
[NH-]S(=O)(=O)c1cccc(C(=O)Nc2cccc(S(=O)(=O)N=C3CCCN3)c2)c1 (3D coordinates assigned)
[NH-]S(=O)(=O)c1cccc(C(=O)Nc2cccc(S(=O)(=O)N=C3CCCN3)c2)c1 (nonaromatic ring conformer: 60.901195739092735 kcal/mol)

>  <smiles>  (67) 
NS(=O)(=O)c1cccc(C(=O)Nc2cccc(S(=O)(=O)N=C3CCCN3)c2)c1

>  <score_type>  (67) 
oracle

>  <origin>  (67) 
adg

>  <m_score__min__energy>  (67) 
-12.06

>  <m_primary>  (67) 
energy

$$$$
67:0
     RDKit          3D

 62 65  0  0  0  0  0  0  0  0999 V2000
   60.6970   29.3950   46.3930 C   0  0  0  0  0  0  0  0  0  0  0  0
   60.1600   28.2090   45.1200 S   0  0  0  0  0  0  0  0  0  0  0  0
   58.6910   29.1430   44.6860 C   0  0  0  0  0  0  0  0  0  0  0  0
   57.7790   28.6140   43.7660 C   0  0  0  0  0  0  0  0  0  0  0  0
   56.6290   29.3330   43.4330 C   0  0  0  0  0  0  0  0  0  0  0  0
   56.3890   30.5820   44.0140 C   0  0  0  0  0  0  0  0  0  0  0  0
   57.3050   31.1300   44.9190 C   0  0  0  0  0  0  0  0  0  0  0  0
   56.9950   32.3860   45.5340 N   0  0  0  0  0  0  0  0  0  0  0  0
   57.7540   33.5960   45.4140 C   0  0  0  0  0  0  0  0  0  0  0  0
   57.4920   34.4120   44.4890 O   0  0  0  0  0  0  0  0  0  0  0  0
   58.7710   33.9580   46.4750 C   0  0  2  0  0  0  0  0  0  0  0  0
   60.1770   34.1420   45.8680 C   0  0  0  0  0  0  0  0  0  0  0  0
   61.3200   33.8940   46.8780 C   0  0  0  0  0  0  0  0  0  0  0  0
   60.9230   34.2190   48.2730 N   0  0  2  0  0  0  0  0  0  0  0  0
   62.0650   34.1050   49.2450 C   0  0  0  0  0  0  0  0  0  0  0  0
   63.1610   33.1120   48.7200 C   0  0  0  0  0  0  0  0  0  0  0  0
   63.4810   31.9550   49.6710 C   0  0  0  0  0  0  0  0  0  0  0  0
   63.7330   32.4650   51.0240 N   0  0  0  0  0  0  0  0  0  0  0  0
   64.8960   32.0600   51.7720 C   0  0  0  0  0  0  0  0  0  0  0  0
   65.4010   32.8550   52.6110 O   0  0  0  0  0  0  0  0  0  0  0  0
   65.5050   30.7220   51.5990 C   0  0  0  0  0  0  0  0  0  0  0  0
   64.7850   29.5630   51.9530 C   0  0  0  0  0  0  0  0  0  0  0  0
   63.5380   29.6560   52.4790 F   0  0  0  0  0  0  0  0  0  0  0  0
   65.3590   28.2980   51.7840 C   0  0  0  0  0  0  0  0  0  0  0  0
   66.6460   28.1760   51.2550 C   0  0  0  0  0  0  0  0  0  0  0  0
   67.3600   29.3170   50.8860 C   0  0  0  0  0  0  0  0  0  0  0  0
   66.7940   30.5870   51.0500 C   0  0  0  0  0  0  0  0  0  0  0  0
   67.4900   31.6770   50.6360 F   0  0  0  0  0  0  0  0  0  0  0  0
   62.8220   33.4580   51.6020 C   0  0  0  0  0  0  0  0  0  0  0  0
   61.6190   33.7280   50.6890 C   0  0  0  0  0  0  0  0  0  0  0  0
   59.7890   33.3430   48.7130 C   0  0  0  0  0  0  0  0  0  0  0  0
   58.8340   32.9030   47.5840 C   0  0  0  0  0  0  0  0  0  0  0  0
   58.4590   30.4000   45.2590 C   0  0  0  0  0  0  0  0  0  0  0  0
   60.5061   28.9733   47.3909 H   0  0  0  0  0  0  0  0  0  0  0  0
   61.7729   29.5936   46.2786 H   0  0  0  0  0  0  0  0  0  0  0  0
   60.1365   30.3345   46.2786 H   0  0  0  0  0  0  0  0  0  0  0  0
   57.9676   27.6330   43.3056 H   0  0  0  0  0  0  0  0  0  0  0  0
   55.9105   28.9159   42.7121 H   0  0  0  0  0  0  0  0  0  0  0  0
   55.4745   31.1372   43.7581 H   0  0  0  0  0  0  0  0  0  0  0  0
   58.4399   34.9116   46.9121 H   0  0  0  0  0  0  0  0  0  0  0  0
   60.2910   33.4357   45.0324 H   0  0  0  0  0  0  0  0  0  0  0  0
   60.2546   35.1895   45.5413 H   0  0  0  0  0  0  0  0  0  0  0  0
   61.6094   32.8338   46.8308 H   0  0  0  0  0  0  0  0  0  0  0  0
   62.1577   34.5527   46.6053 H   0  0  0  0  0  0  0  0  0  0  0  0
   60.5980   35.2160   48.2800 H   0  0  0  0  0  0  0  0  0  0  0  0
   62.5027   35.1119   49.3128 H   0  0  0  0  0  0  0  0  0  0  0  0
   62.8109   32.6867   47.7679 H   0  0  0  0  0  0  0  0  0  0  0  0
   64.0873   33.6962   48.6169 H   0  0  0  0  0  0  0  0  0  0  0  0
   62.6285   31.2603   49.6976 H   0  0  0  0  0  0  0  0  0  0  0  0
   64.3800   31.4332   49.3112 H   0  0  0  0  0  0  0  0  0  0  0  0
   64.7952   27.3973   52.0685 H   0  0  0  0  0  0  0  0  0  0  0  0
   67.0968   27.1805   51.1292 H   0  0  0  0  0  0  0  0  0  0  0  0
   68.3713   29.2181   50.4647 H   0  0  0  0  0  0  0  0  0  0  0  0
   62.4572   33.0852   52.5705 H   0  0  0  0  0  0  0  0  0  0  0  0
   63.3765   34.4001   51.7241 H   0  0  0  0  0  0  0  0  0  0  0  0
   60.9950   32.8232   50.6446 H   0  0  0  0  0  0  0  0  0  0  0  0
   61.0553   34.5755   51.1061 H   0  0  0  0  0  0  0  0  0  0  0  0
   60.2140   32.4388   49.1732 H   0  0  0  0  0  0  0  0  0  0  0  0
   59.1869   33.9438   49.4105 H   0  0  0  0  0  0  0  0  0  0  0  0
   59.1935   31.9546   47.1581 H   0  0  0  0  0  0  0  0  0  0  0  0
   57.8261   32.7785   48.0066 H   0  0  0  0  0  0  0  0  0  0  0  0
   59.1807   30.8175   45.9765 H   0  0  0  0  0  0  0  0  0  0  0  0
  1  2  1  0
  2  3  1  0
  3  4  2  0
  4  5  1  0
  5  6  2  0
  6  7  1  0
  7  8  1  0
  8  9  1  0
  9 10  2  0
  9 11  1  0
 11 12  1  0
 12 13  1  0
 13 14  1  0
 14 15  1  0
 15 16  1  0
 16 17  1  0
 17 18  1  0
 18 19  1  0
 19 20  2  0
 19 21  1  0
 21 22  2  0
 22 23  1  0
 22 24  1  0
 24 25  2  0
 25 26  1  0
 26 27  2  0
 27 28  1  0
 18 29  1  0
 29 30  1  0
 14 31  1  0
 31 32  1  0
  7 33  2  0
 33  3  1  0
 32 11  1  0
 30 15  1  0
 27 21  1  0
  1 34  1  0
  1 35  1  0
  1 36  1  0
  4 37  1  0
  5 38  1  0
  6 39  1  0
 11 40  1  1
 12 41  1  0
 12 42  1  0
 13 43  1  0
 13 44  1  0
 14 45  1  6
 15 46  1  0
 16 47  1  0
 16 48  1  0
 17 49  1  0
 17 50  1  0
 24 51  1  0
 25 52  1  0
 26 53  1  0
 29 54  1  0
 29 55  1  0
 30 56  1  0
 30 57  1  0
 31 58  1  0
 31 59  1  0
 32 60  1  0
 32 61  1  0
 33 62  1  0
M  CHG  2   8  -1  14   1
M  END
>  <UniqueID>  (68) 
67

>  <SMILES>  (68) 
CSc1cccc([N-]C(=O)C2CC[NH+](C3CCN(C(=O)c4c(F)cccc4F)CC3)CC2)c1

>  <Energy>  (68) 
88.28114603756998

>  <Genealogy>  (68) 
CSc1cccc([N-]C(=O)C2CC[NH+](C3CCN(C(=O)c4c(F)cccc4F)CC3)CC2)c1 (protonated)
CSc1cccc([N-]C(=O)C2CC[NH+](C3CCN(C(=O)c4c(F)cccc4F)CC3)CC2)c1 (3D coordinates assigned)
CSc1cccc([N-]C(=O)C2CC[NH+](C3CCN(C(=O)c4c(F)cccc4F)CC3)CC2)c1 (nonaromatic ring conformer: 88.28114603756998 kcal/mol)

>  <smiles>  (68) 
CSc1cccc(NC(=O)C2CCN(C3CCN(C(=O)c4c(F)cccc4F)CC3)CC2)c1

>  <score_type>  (68) 
oracle

>  <origin>  (68) 
adg

>  <m_score__min__energy>  (68) 
-8.6899999999999995

>  <m_primary>  (68) 
energy

$$$$
68:0
     RDKit          3D

 54 57  0  0  0  0  0  0  0  0999 V2000
   60.4260   34.5040   48.0360 C   0  0  0  0  0  0  0  0  0  0  0  0
   59.7550   33.8210   46.9060 C   0  0  0  0  0  0  0  0  0  0  0  0
   59.2400   34.6010   45.8760 C   0  0  0  0  0  0  0  0  0  0  0  0
   58.6130   33.9760   44.8160 C   0  0  0  0  0  0  0  0  0  0  0  0
   58.4810   32.6180   44.7470 C   0  0  0  0  0  0  0  0  0  0  0  0
   57.7900   32.0370   43.5680 C   0  0  0  0  0  0  0  0  0  0  0  0
   58.9930   31.8280   45.7730 C   0  0  0  0  0  0  0  0  0  0  0  0
   58.8410   30.4190   45.6740 N   0  0  0  0  0  0  0  0  0  0  0  0
   59.9480   29.6020   45.2060 C   0  0  0  0  0  0  0  0  0  0  0  0
   60.2970   28.5830   46.2950 C   0  0  0  0  0  0  0  0  0  0  0  0
   59.0850   27.7960   46.5310 N   0  0  0  0  0  0  0  0  0  0  0  0
   59.2240   26.3990   46.5510 C   0  0  0  0  0  0  0  0  0  0  0  0
   60.3760   25.9180   46.3670 O   0  0  0  0  0  0  0  0  0  0  0  0
   58.0350   25.5230   46.7860 C   0  0  0  0  0  0  0  0  0  0  0  0
   57.7310   24.7290   45.6150 N   0  0  0  0  0  0  0  0  0  0  0  0
   57.6010   25.2830   44.3950 C   0  0  0  0  0  0  0  0  0  0  0  0
   57.7630   26.7380   44.2000 C   0  0  0  0  0  0  0  0  0  0  0  0
   57.3060   24.4430   43.3170 C   0  0  0  0  0  0  0  0  0  0  0  0
   57.1520   23.0770   43.4880 C   0  0  0  0  0  0  0  0  0  0  0  0
   56.8800   22.0430   42.6980 N   0  0  0  0  0  0  0  0  0  0  0  0
   56.8450   20.9120   43.3960 N   0  0  0  0  0  0  0  0  0  0  0  0
   57.1000   21.1940   44.6910 C   0  0  0  0  0  0  0  0  0  0  0  0
   57.1530   20.3970   45.6420 O   0  0  0  0  0  0  0  0  0  0  0  0
   57.2960   22.5590   44.7590 C   0  0  0  0  0  0  0  0  0  0  0  0
   57.5860   23.3910   45.8210 C   0  0  0  0  0  0  0  0  0  0  0  0
   57.7150   22.8980   46.9850 O   0  0  0  0  0  0  0  0  0  0  0  0
   57.8110   28.4310   46.7320 C   0  0  0  0  0  0  0  0  0  0  0  0
   57.6180   29.7210   46.0210 C   0  0  0  0  0  0  0  0  0  0  0  0
   59.6230   32.4440   46.8390 C   0  0  0  0  0  0  0  0  0  0  0  0
   60.0376   34.1087   48.9862 H   0  0  0  0  0  0  0  0  0  0  0  0
   61.5101   34.3259   47.9805 H   0  0  0  0  0  0  0  0  0  0  0  0
   60.2287   35.5847   47.9805 H   0  0  0  0  0  0  0  0  0  0  0  0
   59.3305   35.6969   45.9052 H   0  0  0  0  0  0  0  0  0  0  0  0
   58.2065   34.5920   44.0003 H   0  0  0  0  0  0  0  0  0  0  0  0
   56.9891   31.3636   43.9074 H   0  0  0  0  0  0  0  0  0  0  0  0
   57.3565   32.8459   42.9616 H   0  0  0  0  0  0  0  0  0  0  0  0
   58.5125   31.4711   42.9616 H   0  0  0  0  0  0  0  0  0  0  0  0
   59.6567   29.0754   44.2852 H   0  0  0  0  0  0  0  0  0  0  0  0
   60.8201   30.2373   44.9921 H   0  0  0  0  0  0  0  0  0  0  0  0
   61.1145   27.9296   45.9562 H   0  0  0  0  0  0  0  0  0  0  0  0
   60.6322   29.0833   47.2155 H   0  0  0  0  0  0  0  0  0  0  0  0
   58.2459   24.8506   47.6307 H   0  0  0  0  0  0  0  0  0  0  0  0
   57.1685   26.1635   47.0074 H   0  0  0  0  0  0  0  0  0  0  0  0
   57.8184   27.2353   45.1796 H   0  0  0  0  0  0  0  0  0  0  0  0
   58.6883   26.9318   43.6376 H   0  0  0  0  0  0  0  0  0  0  0  0
   56.9030   27.1306   43.6376 H   0  0  0  0  0  0  0  0  0  0  0  0
   57.1938   24.8759   42.3120 H   0  0  0  0  0  0  0  0  0  0  0  0
   56.7130   22.0870   41.6770 H   0  0  0  0  0  0  0  0  0  0  0  0
   56.6510   19.9660   42.9990 H   0  0  0  0  0  0  0  0  0  0  0  0
   57.0291   27.7364   46.3913 H   0  0  0  0  0  0  0  0  0  0  0  0
   57.7585   28.6677   47.8049 H   0  0  0  0  0  0  0  0  0  0  0  0
   57.0651   29.5190   45.0918 H   0  0  0  0  0  0  0  0  0  0  0  0
   57.0765   30.3778   46.7177 H   0  0  0  0  0  0  0  0  0  0  0  0
   60.0289   31.8255   47.6531 H   0  0  0  0  0  0  0  0  0  0  0  0
  1  2  1  0
  2  3  2  0
  3  4  1  0
  4  5  2  0
  5  6  1  0
  5  7  1  0
  7  8  1  0
  8  9  1  0
  9 10  1  0
 10 11  1  0
 11 12  1  0
 12 13  2  0
 12 14  1  0
 14 15  1  0
 15 16  1  0
 16 17  1  0
 16 18  2  0
 18 19  1  0
 19 20  1  0
 20 21  1  0
 21 22  1  0
 22 23  2  0
 22 24  1  0
 24 25  1  0
 25 26  2  0
 11 27  1  0
 27 28  1  0
  7 29  2  0
 29  2  1  0
 28  8  1  0
 25 15  1  0
 24 19  2  0
  1 30  1  0
  1 31  1  0
  1 32  1  0
  3 33  1  0
  4 34  1  0
  6 35  1  0
  6 36  1  0
  6 37  1  0
  9 38  1  0
  9 39  1  0
 10 40  1  0
 10 41  1  0
 14 42  1  0
 14 43  1  0
 17 44  1  0
 17 45  1  0
 17 46  1  0
 18 47  1  0
 20 48  1  0
 21 49  1  0
 27 50  1  0
 27 51  1  0
 28 52  1  0
 28 53  1  0
 29 54  1  0
M  END
>  <smiles>  (69) 
Cc1ccc(C)c(N2CCN(C(=O)Cn3c(C)cc4[nH][nH]c(=O)c4c3=O)CC2)c1

>  <score_type>  (69) 
oracle

>  <origin>  (69) 
adg

>  <m_score__min__energy>  (69) 
-8.6300000000000008

>  <m_primary>  (69) 
energy

$$$$
69:0
     RDKit          3D

 61 65  0  0  0  0  0  0  0  0999 V2000
   55.5120   28.9580   44.9280 N   0  0  0  0  0  0  0  0  0  0  0  0
   56.9570   29.4110   44.1000 S   0  0  0  0  0  0  0  0  0  0  0  0
   57.4580   28.2380   43.3070 O   0  0  0  0  0  0  0  0  0  0  0  0
   56.6660   30.5440   43.1570 O   0  0  0  0  0  0  0  0  0  0  0  0
   58.1710   29.9150   45.2690 C   0  0  0  0  0  0  0  0  0  0  0  0
   59.5420   29.6990   44.9930 C   0  0  0  0  0  0  0  0  0  0  0  0
   60.5300   30.1060   45.9080 C   0  0  0  0  0  0  0  0  0  0  0  0
   60.1120   30.7180   47.0960 C   0  0  0  0  0  0  0  0  0  0  0  0
   58.7900   30.9330   47.3550 C   0  0  0  0  0  0  0  0  0  0  0  0
   57.7860   30.5500   46.4680 C   0  0  0  0  0  0  0  0  0  0  0  0
   58.6370   31.5690   48.5250 N   0  0  0  0  0  0  0  0  0  0  0  0
   59.9110   31.7200   48.9700 C   0  0  0  0  0  0  0  0  0  0  0  0
   60.1400   32.3820   50.0710 N   0  0  0  0  0  0  0  0  0  0  0  0
   59.3240   32.5390   51.2340 C   0  0  0  0  0  0  0  0  0  0  0  0
   59.6500   33.3730   52.1220 O   0  0  0  0  0  0  0  0  0  0  0  0
   58.1940   31.6230   51.4760 C   0  0  0  0  0  0  0  0  0  0  0  0
   56.8970   32.0110   51.7360 C   0  0  0  0  0  0  0  0  0  0  0  0
   56.2100   30.8490   52.0160 C   0  0  0  0  0  0  0  0  0  0  0  0
   54.8630   30.7800   52.3510 O   0  0  0  0  0  0  0  0  0  0  0  0
   57.0030   29.7620   51.9350 N   0  0  0  0  0  0  0  0  0  0  0  0
   58.2190   30.2350   51.5930 C   0  0  0  0  0  0  0  0  0  0  0  0
   59.3670   29.3470   51.3430 C   0  0  0  0  0  0  0  0  0  0  0  0
   59.6280   28.8660   50.0500 C   0  0  0  0  0  0  0  0  0  0  0  0
   60.7260   28.0320   49.8180 C   0  0  0  0  0  0  0  0  0  0  0  0
   61.5590   27.6620   50.8780 C   0  0  0  0  0  0  0  0  0  0  0  0
   61.2880   28.1170   52.1720 C   0  0  0  0  0  0  0  0  0  0  0  0
   60.1910   28.9500   52.4080 C   0  0  0  0  0  0  0  0  0  0  0  0
   60.8540   31.2130   48.1080 N   0  0  0  0  0  0  0  0  0  0  0  0
   62.3240   31.2030   48.1700 C   0  0  0  0  0  0  0  0  0  0  0  0
   62.8900   32.6180   47.9890 C   0  0  0  0  0  0  0  0  0  0  0  0
   61.8100   33.5960   47.7860 N   0  0  0  0  0  0  0  0  0  0  0  0
   61.5350   33.8510   46.3610 C   0  0  0  0  0  0  0  0  0  0  0  0
   60.0560   33.9520   46.0770 C   0  0  0  0  0  0  0  0  0  0  0  0
   59.1430   34.0980   47.1350 C   0  0  0  0  0  0  0  0  0  0  0  0
   57.7720   34.1880   46.8770 C   0  0  0  0  0  0  0  0  0  0  0  0
   57.3020   34.1290   45.5640 C   0  0  0  0  0  0  0  0  0  0  0  0
   58.2010   33.9790   44.5060 C   0  0  0  0  0  0  0  0  0  0  0  0
   59.5740   33.8920   44.7590 C   0  0  0  0  0  0  0  0  0  0  0  0
   54.7380   29.5390   44.5350 H   0  0  0  0  0  0  0  0  0  0  0  0
   59.8380   29.2082   44.0541 H   0  0  0  0  0  0  0  0  0  0  0  0
   61.5979   29.9483   45.6967 H   0  0  0  0  0  0  0  0  0  0  0  0
   56.7262   30.7371   46.6958 H   0  0  0  0  0  0  0  0  0  0  0  0
   56.4942   33.0345   51.7228 H   0  0  0  0  0  0  0  0  0  0  0  0
   54.3450   29.9140   52.2460 H   0  0  0  0  0  0  0  0  0  0  0  0
   58.9666   29.1462   49.2169 H   0  0  0  0  0  0  0  0  0  0  0  0
   60.9344   27.6670   48.8015 H   0  0  0  0  0  0  0  0  0  0  0  0
   62.4277   27.0128   50.6940 H   0  0  0  0  0  0  0  0  0  0  0  0
   61.9398   27.8186   53.0063 H   0  0  0  0  0  0  0  0  0  0  0  0
   59.9729   29.2950   53.4295 H   0  0  0  0  0  0  0  0  0  0  0  0
   62.6405   30.8110   49.1478 H   0  0  0  0  0  0  0  0  0  0  0  0
   62.7054   30.5657   47.3586 H   0  0  0  0  0  0  0  0  0  0  0  0
   63.4614   32.8945   48.8874 H   0  0  0  0  0  0  0  0  0  0  0  0
   63.5400   32.6245   47.1016 H   0  0  0  0  0  0  0  0  0  0  0  0
   60.9390   33.2470   48.2520 H   0  0  0  0  0  0  0  0  0  0  0  0
   62.0173   34.7960   46.0703 H   0  0  0  0  0  0  0  0  0  0  0  0
   61.9338   33.0047   45.7825 H   0  0  0  0  0  0  0  0  0  0  0  0
   59.5088   34.1417   48.1715 H   0  0  0  0  0  0  0  0  0  0  0  0
   57.0628   34.3054   47.7096 H   0  0  0  0  0  0  0  0  0  0  0  0
   56.2230   34.2007   45.3626 H   0  0  0  0  0  0  0  0  0  0  0  0
   57.8289   33.9292   43.4721 H   0  0  0  0  0  0  0  0  0  0  0  0
   60.2790   33.7761   43.9226 H   0  0  0  0  0  0  0  0  0  0  0  0
  1  2  1  0
  2  3  2  0
  2  4  2  0
  2  5  1  0
  5  6  2  0
  6  7  1  0
  7  8  2  0
  8  9  1  0
  9 10  2  0
  9 11  1  0
 11 12  1  0
 12 13  2  3
 13 14  1  0
 14 15  2  0
 14 16  1  0
 16 17  1  0
 17 18  2  0
 18 19  1  0
 18 20  1  0
 20 21  1  0
 21 22  1  0
 22 23  2  0
 23 24  1  0
 24 25  2  0
 25 26  1  0
 26 27  2  0
 12 28  1  0
 28 29  1  0
 29 30  1  0
 30 31  1  0
 31 32  1  0
 32 33  1  0
 33 34  2  0
 34 35  1  0
 35 36  2  0
 36 37  1  0
 37 38  2  0
 10  5  1  0
 21 16  2  0
 27 22  1  0
 38 33  1  0
 28  8  1  0
  1 39  1  0
  6 40  1  0
  7 41  1  0
 10 42  1  0
 17 43  1  0
 19 44  1  0
 23 45  1  0
 24 46  1  0
 25 47  1  0
 26 48  1  0
 27 49  1  0
 29 50  1  0
 29 51  1  0
 30 52  1  0
 30 53  1  0
 31 54  1  0
 32 55  1  0
 32 56  1  0
 34 57  1  0
 35 58  1  0
 36 59  1  0
 37 60  1  0
 38 61  1  0
M  CHG  3   1  -1  11  -1  20  -1
M  END
>  <UniqueID>  (70) 
68

>  <SMILES>  (70) 
[NH-]S(=O)(=O)c1ccc2c(c1)[n-]c(=NC(=O)c1cc(O)[n-]c1-c1ccccc1)n2CCNCc1ccccc1

>  <Energy>  (70) 
147.10888674955558

>  <Genealogy>  (70) 
[NH-]S(=O)(=O)c1ccc2c(c1)[n-]c(=NC(=O)c1cc(O)[n-]c1-c1ccccc1)n2CCNCc1ccccc1 (protonated)
[NH-]S(=O)(=O)c1ccc2c(c1)[n-]c(=NC(=O)c1cc(O)[n-]c1-c1ccccc1)n2CCNCc1ccccc1 (3D coordinates assigned)
[NH-]S(=O)(=O)c1ccc2c(c1)[n-]c(=NC(=O)c1cc(O)[n-]c1-c1ccccc1)n2CCNCc1ccccc1 (optimized conformer: 147.10888674955558 kcal/mol)

>  <smiles>  (70) 
NS(=O)(=O)c1ccc2c(c1)[nH]c(=NC(=O)c1cc(O)[nH]c1-c1ccccc1)n2CCNCc1ccccc1

>  <score_type>  (70) 
oracle

>  <origin>  (70) 
adg

>  <m_score__min__energy>  (70) 
-14.23

>  <m_primary>  (70) 
energy

$$$$
70:0
     RDKit          3D

 43 45  0  0  0  0  0  0  0  0999 V2000
   61.8200   33.6730   47.6760 C   0  0  0  0  0  0  0  0  0  0  0  0
   60.4390   33.7820   47.0940 C   0  0  0  0  0  0  0  0  0  0  0  0
   60.1840   34.7680   46.1280 C   0  0  0  0  0  0  0  0  0  0  0  0
   58.9070   34.9120   45.5790 C   0  0  0  0  0  0  0  0  0  0  0  0
   57.8720   34.0690   45.9870 C   0  0  0  0  0  0  0  0  0  0  0  0
   58.1160   33.0710   46.9330 C   0  0  0  0  0  0  0  0  0  0  0  0
   59.3980   32.9000   47.4730 C   0  0  0  0  0  0  0  0  0  0  0  0
   59.6090   31.8530   48.4310 N   0  0  0  0  0  0  0  0  0  0  0  0
   59.5070   30.4550   48.1110 C   0  0  0  0  0  0  0  0  0  0  0  0
   59.6260   29.3670   49.3390 S   0  0  0  0  0  0  0  0  0  0  0  0
   59.1380   30.0300   46.7840 N   0  0  0  0  0  0  0  0  0  0  0  0
   58.9480   28.6590   46.4070 C   0  0  0  0  0  0  0  0  0  0  0  0
   60.0420   27.4460   46.8040 S   0  0  0  0  0  0  0  0  0  0  0  0
   59.1780   26.2100   46.0730 C   0  0  0  0  0  0  0  0  0  0  0  0
   58.0260   26.7240   45.4800 C   0  0  0  0  0  0  0  0  0  0  0  0
   57.8600   28.1140   45.7070 C   0  0  0  0  0  0  0  0  0  0  0  0
   56.6420   28.8840   45.3550 C   0  0  0  0  0  0  0  0  0  0  0  0
   55.5250   28.3150   45.2450 O   0  0  0  0  0  0  0  0  0  0  0  0
   56.7110   30.2560   45.1590 O   0  0  0  0  0  0  0  0  0  0  0  0
   57.0210   25.8140   44.8090 C   0  0  0  0  0  0  0  0  0  0  0  0
   57.6030   24.4220   44.5020 C   0  0  0  0  0  0  0  0  0  0  0  0
   58.4070   23.8650   45.6940 C   0  0  1  0  0  0  0  0  0  0  0  0
   58.8770   22.4340   45.4110 C   0  0  0  0  0  0  0  0  0  0  0  0
   59.6110   24.7780   45.9980 C   0  0  0  0  0  0  0  0  0  0  0  0
   61.7565   33.6780   48.7742 H   0  0  0  0  0  0  0  0  0  0  0  0
   62.2866   32.7352   47.3400 H   0  0  0  0  0  0  0  0  0  0  0  0
   62.4279   34.5260   47.3400 H   0  0  0  0  0  0  0  0  0  0  0  0
   60.9965   35.4332   45.8003 H   0  0  0  0  0  0  0  0  0  0  0  0
   58.7174   35.6901   44.8249 H   0  0  0  0  0  0  0  0  0  0  0  0
   56.8642   34.1907   45.5634 H   0  0  0  0  0  0  0  0  0  0  0  0
   57.2954   32.4139   47.2569 H   0  0  0  0  0  0  0  0  0  0  0  0
   59.6420   32.1290   49.4380 H   0  0  0  0  0  0  0  0  0  0  0  0
   58.7470   30.7420   46.1290 H   0  0  0  0  0  0  0  0  0  0  0  0
   56.1529   25.6951   45.4740 H   0  0  0  0  0  0  0  0  0  0  0  0
   56.7357   26.2766   43.8527 H   0  0  0  0  0  0  0  0  0  0  0  0
   56.7767   23.7320   44.2757 H   0  0  0  0  0  0  0  0  0  0  0  0
   58.2838   24.5165   43.6432 H   0  0  0  0  0  0  0  0  0  0  0  0
   57.7501   23.8420   46.5760 H   0  0  0  0  0  0  0  0  0  0  0  0
   59.0492   21.9097   46.3625 H   0  0  0  0  0  0  0  0  0  0  0  0
   58.1063   21.9023   44.8337 H   0  0  0  0  0  0  0  0  0  0  0  0
   59.8129   22.4629   44.8337 H   0  0  0  0  0  0  0  0  0  0  0  0
   60.0549   24.4832   46.9603 H   0  0  0  0  0  0  0  0  0  0  0  0
   60.3506   24.6719   45.1907 H   0  0  0  0  0  0  0  0  0  0  0  0
  1  2  1  0
  2  3  2  0
  3  4  1  0
  4  5  2  0
  5  6  1  0
  6  7  2  0
  7  8  1  0
  8  9  1  0
  9 10  2  0
  9 11  1  0
 11 12  1  0
 12 13  1  0
 13 14  1  0
 14 15  2  0
 15 16  1  0
 16 17  1  0
 17 18  2  0
 17 19  1  0
 15 20  1  0
 20 21  1  0
 21 22  1  0
 22 23  1  0
 22 24  1  0
  7  2  1  0
 16 12  2  0
 24 14  1  0
  1 25  1  0
  1 26  1  0
  1 27  1  0
  3 28  1  0
  4 29  1  0
  5 30  1  0
  6 31  1  0
  8 32  1  0
 11 33  1  0
 20 34  1  0
 20 35  1  0
 21 36  1  0
 21 37  1  0
 22 38  1  1
 23 39  1  0
 23 40  1  0
 23 41  1  0
 24 42  1  0
 24 43  1  0
M  CHG  1  19  -1
M  END
>  <UniqueID>  (71) 
69

>  <SMILES>  (71) 
Cc1ccccc1NC(=S)Nc1sc2c(c1C(=O)[O-])CC[C@@H](C)C2

>  <Energy>  (71) 
82.78378705933252

>  <Genealogy>  (71) 
Cc1ccccc1NC(=S)Nc1sc2c(c1C(=O)[O-])CCC(C)C2 (protonated)
Cc1ccccc1NC(=S)Nc1sc2c(c1C(=O)[O-])CC[C@@H](C)C2 (chirality)
Cc1ccccc1NC(=S)Nc1sc2c(c1C(=O)[O-])CC[C@@H](C)C2 (3D coordinates assigned)
Cc1ccccc1NC(=S)Nc1sc2c(c1C(=O)[O-])CC[C@@H](C)C2 (nonaromatic ring conformer: 82.78378705933252 kcal/mol)

>  <smiles>  (71) 
Cc1ccccc1NC(=S)Nc1sc2c(c1C(=O)O)CCC(C)C2

>  <score_type>  (71) 
oracle

>  <origin>  (71) 
adg

>  <m_score__min__energy>  (71) 
-10.359999999999999

>  <m_primary>  (71) 
energy

$$$$
71:0
     RDKit          3D

 46 49  0  0  0  0  0  0  0  0999 V2000
   59.5810   29.3280   50.4320 N   0  0  0  0  0  0  0  0  0  0  0  0
   60.7720   29.3070   49.6470 C   0  0  0  0  0  0  0  0  0  0  0  0
   61.8400   29.7730   50.1270 O   0  0  0  0  0  0  0  0  0  0  0  0
   60.7500   28.7780   48.2420 C   0  0  0  0  0  0  0  0  0  0  0  0
   59.8320   29.5890   47.3680 C   0  0  0  0  0  0  0  0  0  0  0  0
   59.9790   30.9220   46.9600 C   0  0  0  0  0  0  0  0  0  0  0  0
   61.0670   31.8440   47.3420 C   0  0  0  0  0  0  0  0  0  0  0  0
   62.4090   31.4900   47.1190 C   0  0  0  0  0  0  0  0  0  0  0  0
   63.4390   32.3580   47.4890 C   0  0  0  0  0  0  0  0  0  0  0  0
   63.1400   33.5810   48.0930 C   0  0  0  0  0  0  0  0  0  0  0  0
   61.8110   33.9370   48.3320 C   0  0  0  0  0  0  0  0  0  0  0  0
   60.7740   33.0720   47.9630 C   0  0  0  0  0  0  0  0  0  0  0  0
   59.4900   33.4440   48.1880 F   0  0  0  0  0  0  0  0  0  0  0  0
   58.9750   31.2720   46.1200 N   0  0  0  0  0  0  0  0  0  0  0  0
   58.1930   30.1870   46.0020 C   0  0  0  0  0  0  0  0  0  0  0  0
   57.0320   30.0660   45.2440 C   0  0  0  0  0  0  0  0  0  0  0  0
   56.3600   28.8310   45.2500 C   0  0  0  0  0  0  0  0  0  0  0  0
   55.1750   28.7090   44.5310 O   0  0  0  0  0  0  0  0  0  0  0  0
   56.8740   27.7340   45.9960 C   0  0  0  0  0  0  0  0  0  0  0  0
   56.1990   26.4170   45.9930 C   0  0  0  0  0  0  0  0  0  0  0  0
   54.9420   26.3700   45.9210 O   0  0  0  0  0  0  0  0  0  0  0  0
   56.9310   25.1840   46.0390 N   0  0  0  0  0  0  0  0  0  0  0  0
   56.8970   24.1410   45.0530 C   0  0  0  0  0  0  0  0  0  0  0  0
   57.9150   23.1790   45.0520 C   0  0  0  0  0  0  0  0  0  0  0  0
   57.9200   22.1560   44.0980 C   0  0  0  0  0  0  0  0  0  0  0  0
   56.9120   22.0950   43.1320 C   0  0  0  0  0  0  0  0  0  0  0  0
   55.9060   23.0640   43.1110 C   0  0  0  0  0  0  0  0  0  0  0  0
   55.8990   24.0890   44.0620 C   0  0  0  0  0  0  0  0  0  0  0  0
   58.0460   27.9030   46.7680 C   0  0  0  0  0  0  0  0  0  0  0  0
   58.6800   29.1450   46.7450 C   0  0  0  0  0  0  0  0  0  0  0  0
   59.5980   29.7050   51.4050 H   0  0  0  0  0  0  0  0  0  0  0  0
   58.6790   28.9670   50.0490 H   0  0  0  0  0  0  0  0  0  0  0  0
   61.7681   28.8186   47.8276 H   0  0  0  0  0  0  0  0  0  0  0  0
   60.3814   27.7419   48.2663 H   0  0  0  0  0  0  0  0  0  0  0  0
   62.6494   30.5242   46.6506 H   0  0  0  0  0  0  0  0  0  0  0  0
   64.4866   32.0779   47.3044 H   0  0  0  0  0  0  0  0  0  0  0  0
   63.9522   34.2647   48.3808 H   0  0  0  0  0  0  0  0  0  0  0  0
   61.5784   34.8994   48.8113 H   0  0  0  0  0  0  0  0  0  0  0  0
   58.8300   32.2020   45.6650 H   0  0  0  0  0  0  0  0  0  0  0  0
   56.6504   30.9138   44.6560 H   0  0  0  0  0  0  0  0  0  0  0  0
   58.7149   23.2282   45.8055 H   0  0  0  0  0  0  0  0  0  0  0  0
   58.7180   21.3990   44.1082 H   0  0  0  0  0  0  0  0  0  0  0  0
   56.9107   21.2843   42.3885 H   0  0  0  0  0  0  0  0  0  0  0  0
   55.1179   23.0206   42.3449 H   0  0  0  0  0  0  0  0  0  0  0  0
   55.1115   24.8566   44.0355 H   0  0  0  0  0  0  0  0  0  0  0  0
   58.4478   27.0758   47.3716 H   0  0  0  0  0  0  0  0  0  0  0  0
  1  2  1  0
  2  3  2  0
  2  4  1  0
  4  5  1  0
  5  6  2  0
  6  7  1  0
  7  8  2  0
  8  9  1  0
  9 10  2  0
 10 11  1  0
 11 12  2  0
 12 13  1  0
  6 14  1  0
 14 15  1  0
 15 16  2  0
 16 17  1  0
 17 18  1  0
 17 19  2  0
 19 20  1  0
 20 21  2  0
 20 22  1  0
 22 23  1  0
 23 24  2  0
 24 25  1  0
 25 26  2  0
 26 27  1  0
 27 28  2  0
 19 29  1  0
 29 30  2  0
 30  5  1  0
 12  7  1  0
 30 15  1  0
 28 23  1  0
  1 31  1  0
  1 32  1  0
  4 33  1  0
  4 34  1  0
  8 35  1  0
  9 36  1  0
 10 37  1  0
 11 38  1  0
 14 39  1  0
 16 40  1  0
 24 41  1  0
 25 42  1  0
 26 43  1  0
 27 44  1  0
 28 45  1  0
 29 46  1  0
M  CHG  2  18  -1  22  -1
M  END
>  <UniqueID>  (72) 
70

>  <SMILES>  (72) 
NC(=O)Cc1c(-c2ccccc2F)[nH]c2cc([O-])c(C(=O)[N-]c3ccccc3)cc12

>  <Energy>  (72) 
94.24927198516039

>  <Genealogy>  (72) 
NC(=O)Cc1c(-c2ccccc2F)[nH]c2cc([O-])c(C(=O)[N-]c3ccccc3)cc12 (protonated)
NC(=O)Cc1c(-c2ccccc2F)[nH]c2cc([O-])c(C(=O)[N-]c3ccccc3)cc12 (3D coordinates assigned)
NC(=O)Cc1c(-c2ccccc2F)[nH]c2cc([O-])c(C(=O)[N-]c3ccccc3)cc12 (optimized conformer: 94.24927198516039 kcal/mol)

>  <smiles>  (72) 
NC(=O)Cc1c(-c2ccccc2F)[nH]c2cc(O)c(C(=O)Nc3ccccc3)cc12

>  <score_type>  (72) 
oracle

>  <origin>  (72) 
adg

>  <m_score__min__energy>  (72) 
-12.35

>  <m_primary>  (72) 
energy

$$$$
72:0
     RDKit          3D

 79 84  0  0  1  0  0  0  0  0999 V2000
   56.4310   29.7150   42.8170 N   0  0  0  0  0  0  0  0  0  0  0  0
   56.3660   30.0290   44.2140 C   0  0  0  0  0  0  0  0  0  0  0  0
   55.5320   29.3770   44.8810 O   0  0  0  0  0  0  0  0  0  0  0  0
   57.2510   31.0500   44.7360 C   0  0  0  0  0  0  0  0  0  0  0  0
   57.0390   32.3810   44.3540 C   0  0  0  0  0  0  0  0  0  0  0  0
   57.8200   33.4140   44.8200 C   0  0  0  0  0  0  0  0  0  0  0  0
   58.8420   33.1110   45.6920 C   0  0  0  0  0  0  0  0  0  0  0  0
   59.6400   34.1970   46.1690 N   0  0  0  0  0  0  0  0  0  0  0  0
   60.6650   33.9510   46.9500 C   0  0  0  0  0  0  0  0  0  0  0  0
   61.8920   33.7890   46.3870 N   0  0  0  0  0  0  0  0  0  0  0  0
   62.9920   33.5350   47.1220 C   0  0  0  0  0  0  0  0  0  0  0  0
   62.8230   33.4440   48.4980 C   0  0  0  0  0  0  0  0  0  0  0  0
   63.8990   33.1860   49.3170 F   0  0  0  0  0  0  0  0  0  0  0  0
   61.5590   33.6130   49.0610 C   0  0  0  0  0  0  0  0  0  0  0  0
   61.4450   33.5240   50.3260 N   0  0  0  0  0  0  0  0  0  0  0  0
   60.2930   32.9540   50.9330 C   0  0  0  0  0  0  0  0  0  0  0  0
   59.5450   33.7640   51.7610 C   0  0  0  0  0  0  0  0  0  0  0  0
   58.4130   33.2780   52.3820 C   0  0  0  0  0  0  0  0  0  0  0  0
   57.9790   31.9570   52.2000 C   0  0  0  0  0  0  0  0  0  0  0  0
   56.8030   31.4830   52.8360 N   0  0  0  0  0  0  0  0  0  0  0  0
   56.6980   31.2060   54.2570 C   0  0  0  0  0  0  0  0  0  0  0  0
   56.4330   29.7310   54.5020 C   0  0  0  0  0  0  0  0  0  0  0  0
   55.9580   29.0440   53.2540 C   0  0  0  0  0  0  0  0  0  0  0  0
   55.4830   27.7250   53.4910 N   0  0  0  0  0  0  0  0  0  0  0  0
   56.0850   26.9940   54.5460 C   0  0  0  0  0  0  0  0  0  0  0  0
   55.7960   25.5210   54.3470 C   0  0  0  0  0  0  0  0  0  0  0  0
   54.4890   25.2360   54.0470 O   0  0  0  0  0  0  0  0  0  0  0  0
   53.6600   26.3310   54.2400 C   0  0  0  0  0  0  0  0  0  0  0  0
   54.0790   27.5390   53.4300 C   0  0  0  0  0  0  0  0  0  0  0  0
   54.9650   29.9060   52.4980 C   0  0  0  0  0  0  0  0  0  0  0  0
   55.5720   31.2140   52.0660 C   0  0  0  0  0  0  0  0  0  0  0  0
   58.7410   31.1680   51.3700 C   0  0  0  0  0  0  0  0  0  0  0  0
   59.8920   31.6500   50.7360 C   0  0  0  0  0  0  0  0  0  0  0  0
   60.4940   33.8650   48.2830 N   0  0  0  0  0  0  0  0  0  0  0  0
   59.0540   31.8080   46.0700 C   0  0  0  0  0  0  0  0  0  0  0  0
   58.2660   30.7470   45.6010 C   0  0  0  0  0  0  0  0  0  0  0  0
   58.6280   29.4650   46.0460 N   0  0  0  0  0  0  0  0  0  0  0  0
   59.0360   28.3690   45.1480 C   0  0  0  0  0  0  0  0  0  0  0  0
   60.3030   27.8060   45.8370 C   0  0  0  0  0  0  0  0  0  0  0  0
   59.8530   27.0460   46.9050 O   0  0  0  0  0  0  0  0  0  0  0  0
   58.7770   27.5890   47.5640 C   0  0  0  0  0  0  0  0  0  0  0  0
   58.6550   29.0850   47.4690 C   0  0  0  0  0  0  0  0  0  0  0  0
   55.5590   29.7210   42.2480 H   0  0  0  0  0  0  0  0  0  0  0  0
   57.3820   29.4950   42.4510 H   0  0  0  0  0  0  0  0  0  0  0  0
   56.2192   32.6086   43.6568 H   0  0  0  0  0  0  0  0  0  0  0  0
   57.6334   34.4513   44.5052 H   0  0  0  0  0  0  0  0  0  0  0  0
   61.9810   33.8640   45.3370 H   0  0  0  0  0  0  0  0  0  0  0  0
   63.9790   33.4055   46.6540 H   0  0  0  0  0  0  0  0  0  0  0  0
   59.8535   34.8066   51.9278 H   0  0  0  0  0  0  0  0  0  0  0  0
   57.8348   33.9452   53.0381 H   0  0  0  0  0  0  0  0  0  0  0  0
   57.6395   31.4898   54.7500 H   0  0  0  0  0  0  0  0  0  0  0  0
   55.8595   31.7873   54.6680 H   0  0  0  0  0  0  0  0  0  0  0  0
   57.3631   29.2521   54.8421 H   0  0  0  0  0  0  0  0  0  0  0  0
   55.6463   29.6432   55.2658 H   0  0  0  0  0  0  0  0  0  0  0  0
   56.8352   28.9160   52.6027 H   0  0  0  0  0  0  0  0  0  0  0  0
   57.1721   27.1616   54.5384 H   0  0  0  0  0  0  0  0  0  0  0  0
   55.6771   27.3275   55.5116 H   0  0  0  0  0  0  0  0  0  0  0  0
   56.4259   25.1551   53.5228 H   0  0  0  0  0  0  0  0  0  0  0  0
   56.0134   25.0261   55.3050 H   0  0  0  0  0  0  0  0  0  0  0  0
   52.6366   26.0516   53.9492 H   0  0  0  0  0  0  0  0  0  0  0  0
   53.7232   26.6088   55.3025 H   0  0  0  0  0  0  0  0  0  0  0  0
   53.7802   27.3913   52.3817 H   0  0  0  0  0  0  0  0  0  0  0  0
   53.5873   28.4303   53.8470 H   0  0  0  0  0  0  0  0  0  0  0  0
   54.6264   29.3591   51.6056 H   0  0  0  0  0  0  0  0  0  0  0  0
   54.1233   30.1265   53.1710 H   0  0  0  0  0  0  0  0  0  0  0  0
   55.8168   31.1649   50.9947 H   0  0  0  0  0  0  0  0  0  0  0  0
   54.8497   32.0232   52.2491 H   0  0  0  0  0  0  0  0  0  0  0  0
   58.4361   30.1250   51.1991 H   0  0  0  0  0  0  0  0  0  0  0  0
   60.4767   30.9880   50.0804 H   0  0  0  0  0  0  0  0  0  0  0  0
   59.5400   33.9910   48.7320 H   0  0  0  0  0  0  0  0  0  0  0  0
   59.8747   31.5877   46.7685 H   0  0  0  0  0  0  0  0  0  0  0  0
   58.2504   27.6022   45.0781 H   0  0  0  0  0  0  0  0  0  0  0  0
   59.2160   28.7002   44.1146 H   0  0  0  0  0  0  0  0  0  0  0  0
   60.8727   27.1791   45.1353 H   0  0  0  0  0  0  0  0  0  0  0  0
   60.9716   28.6131   46.1710 H   0  0  0  0  0  0  0  0  0  0  0  0
   57.8620   27.1458   47.1441 H   0  0  0  0  0  0  0  0  0  0  0  0
   58.9265   27.3625   48.6300 H   0  0  0  0  0  0  0  0  0  0  0  0
   57.7257   29.4128   47.9578 H   0  0  0  0  0  0  0  0  0  0  0  0
   59.5092   29.5642   47.9698 H   0  0  0  0  0  0  0  0  0  0  0  0
  1  2  1  0
  2  3  2  0
  2  4  1  0
  4  5  2  0
  5  6  1  0
  6  7  2  0
  7  8  1  0
  8  9  2  0
  9 10  1  0
 10 11  1  0
 11 12  2  0
 12 13  1  0
 12 14  1  0
 14 15  2  0
 15 16  1  0
 16 17  2  0
 17 18  1  0
 18 19  2  0
 19 20  1  0
 20 21  1  0
 21 22  1  0
 22 23  1  0
 23 24  1  0
 24 25  1  0
 25 26  1  0
 26 27  1  0
 27 28  1  0
 28 29  1  0
 23 30  1  0
 30 31  1  0
 19 32  1  0
 32 33  2  0
 14 34  1  0
  7 35  1  0
 35 36  2  0
 36 37  1  0
 37 38  1  0
 38 39  1  0
 39 40  1  0
 40 41  1  0
 41 42  1  0
 36  4  1  0
 42 37  1  0
 34  9  1  0
 33 16  1  0
 31 20  1  0
 29 24  1  0
  1 43  1  0
  1 44  1  0
  5 45  1  0
  6 46  1  0
 10 47  1  0
 11 48  1  0
 17 49  1  0
 18 50  1  0
 21 51  1  0
 21 52  1  0
 22 53  1  0
 22 54  1  0
 23 55  1  0
 25 56  1  0
 25 57  1  0
 26 58  1  0
 26 59  1  0
 28 60  1  0
 28 61  1  0
 29 62  1  0
 29 63  1  0
 30 64  1  0
 30 65  1  0
 31 66  1  0
 31 67  1  0
 32 68  1  0
 33 69  1  0
 34 70  1  0
 35 71  1  0
 38 72  1  0
 38 73  1  0
 39 74  1  0
 39 75  1  0
 41 76  1  0
 41 77  1  0
 42 78  1  0
 42 79  1  0
M  END
>  <smiles>  (73) 
NC(=O)c1ccc(N=c2[nH]cc(F)c(=Nc3ccc(N4CCC(N5CCOCC5)CC4)cc3)[nH]2)cc1N1CCOCC1

>  <score_type>  (73) 
oracle

>  <origin>  (73) 
adg

>  <m_score__min__energy>  (73) 
-10.18

>  <m_primary>  (73) 
energy

$$$$
73:0
     RDKit          3D

 56 59  0  0  0  0  0  0  0  0999 V2000
   62.1840   33.0470   52.1760 N   0  0  0  0  0  0  0  0  0  0  0  0
   63.4970   33.4790   51.1350 S   0  0  0  0  0  0  0  0  0  0  0  0
   63.7570   34.9540   51.2910 O   0  0  0  0  0  0  0  0  0  0  0  0
   64.7310   32.7200   51.5420 O   0  0  0  0  0  0  0  0  0  0  0  0
   63.1040   33.1090   49.4480 C   0  0  0  0  0  0  0  0  0  0  0  0
   63.3810   34.0700   48.4600 C   0  0  0  0  0  0  0  0  0  0  0  0
   63.0550   33.8300   47.1220 C   0  0  0  0  0  0  0  0  0  0  0  0
   62.4520   32.6260   46.7550 C   0  0  0  0  0  0  0  0  0  0  0  0
   62.1870   31.6560   47.7210 C   0  0  0  0  0  0  0  0  0  0  0  0
   62.5110   31.8800   49.0680 C   0  0  0  0  0  0  0  0  0  0  0  0
   62.1890   30.8270   50.0560 C   0  0  0  0  0  0  0  0  0  0  0  0
   63.2110   30.2780   50.8440 C   0  0  0  0  0  0  0  0  0  0  0  0
   62.9180   29.2930   51.7890 C   0  0  0  0  0  0  0  0  0  0  0  0
   61.6020   28.8560   51.9570 C   0  0  0  0  0  0  0  0  0  0  0  0
   60.5780   29.3890   51.1720 C   0  0  0  0  0  0  0  0  0  0  0  0
   60.8660   30.3620   50.1980 C   0  0  0  0  0  0  0  0  0  0  0  0
   59.8440   30.9200   49.3610 N   0  0  0  0  0  0  0  0  0  0  0  0
   59.0900   32.4720   49.5410 S   0  0  0  0  0  0  0  0  0  0  0  0
   59.8790   33.2960   50.5220 O   0  0  0  0  0  0  0  0  0  0  0  0
   57.6700   32.3340   50.0160 O   0  0  0  0  0  0  0  0  0  0  0  0
   59.0670   33.2380   47.9590 C   0  0  0  0  0  0  0  0  0  0  0  0
   59.6920   34.4720   47.7470 C   0  0  0  0  0  0  0  0  0  0  0  0
   59.6750   35.0550   46.4770 C   0  0  0  0  0  0  0  0  0  0  0  0
   59.0210   34.4220   45.4190 C   0  0  0  0  0  0  0  0  0  0  0  0
   58.3720   33.1930   45.6250 C   0  0  0  0  0  0  0  0  0  0  0  0
   57.6910   32.5130   44.5070 C   0  0  0  0  0  0  0  0  0  0  0  0
   58.0790   32.7200   43.3300 O   0  0  0  0  0  0  0  0  0  0  0  0
   56.5870   31.6280   44.7280 N   0  0  0  0  0  0  0  0  0  0  0  0
   56.6890   29.9130   44.4980 S   0  0  0  0  0  0  0  0  0  0  0  0
   55.3740   29.2920   44.8780 O   0  0  0  0  0  0  0  0  0  0  0  0
   56.9540   29.6330   43.0460 O   0  0  0  0  0  0  0  0  0  0  0  0
   57.9880   29.2260   45.4640 C   0  0  0  0  0  0  0  0  0  0  0  0
   59.2800   29.7630   45.3860 C   0  0  0  0  0  0  0  0  0  0  0  0
   60.3130   29.2180   46.1520 C   0  0  0  0  0  0  0  0  0  0  0  0
   60.0670   28.1190   46.9810 C   0  0  0  0  0  0  0  0  0  0  0  0
   61.0740   27.5840   47.7100 F   0  0  0  0  0  0  0  0  0  0  0  0
   58.7840   27.5690   47.0470 C   0  0  0  0  0  0  0  0  0  0  0  0
   58.5450   26.4980   47.8410 F   0  0  0  0  0  0  0  0  0  0  0  0
   57.7460   28.1220   46.2920 C   0  0  0  0  0  0  0  0  0  0  0  0
   58.4060   32.6050   46.8990 C   0  0  0  0  0  0  0  0  0  0  0  0
   61.4090   33.7210   51.9810 H   0  0  0  0  0  0  0  0  0  0  0  0
   63.8588   35.0197   48.7425 H   0  0  0  0  0  0  0  0  0  0  0  0
   63.2738   34.5905   46.3580 H   0  0  0  0  0  0  0  0  0  0  0  0
   62.1858   32.4423   45.7036 H   0  0  0  0  0  0  0  0  0  0  0  0
   61.7193   30.7056   47.4243 H   0  0  0  0  0  0  0  0  0  0  0  0
   64.2472   30.6247   50.7170 H   0  0  0  0  0  0  0  0  0  0  0  0
   63.7234   28.8611   52.4012 H   0  0  0  0  0  0  0  0  0  0  0  0
   61.3716   28.0888   52.7109 H   0  0  0  0  0  0  0  0  0  0  0  0
   59.5425   29.0469   51.3157 H   0  0  0  0  0  0  0  0  0  0  0  0
   60.1967   34.9832   48.5801 H   0  0  0  0  0  0  0  0  0  0  0  0
   60.1798   36.0180   46.3104 H   0  0  0  0  0  0  0  0  0  0  0  0
   59.0136   34.8862   44.4218 H   0  0  0  0  0  0  0  0  0  0  0  0
   59.4810   30.6153   44.7203 H   0  0  0  0  0  0  0  0  0  0  0  0
   61.3217   29.6540   46.1031 H   0  0  0  0  0  0  0  0  0  0  0  0
   56.7362   27.6893   46.3480 H   0  0  0  0  0  0  0  0  0  0  0  0
   57.9089   31.6381   47.0664 H   0  0  0  0  0  0  0  0  0  0  0  0
  1  2  1  0
  2  3  2  0
  2  4  2  0
  2  5  1  0
  5  6  2  0
  6  7  1  0
  7  8  2  0
  8  9  1  0
  9 10  2  0
 10 11  1  0
 11 12  2  0
 12 13  1  0
 13 14  2  0
 14 15  1  0
 15 16  2  0
 16 17  1  0
 17 18  1  0
 18 19  2  0
 18 20  2  0
 18 21  1  0
 21 22  2  0
 22 23  1  0
 23 24  2  0
 24 25  1  0
 25 26  1  0
 26 27  2  0
 26 28  1  0
 28 29  1  0
 29 30  2  0
 29 31  2  0
 29 32  1  0
 32 33  2  0
 33 34  1  0
 34 35  2  0
 35 36  1  0
 35 37  1  0
 37 38  1  0
 37 39  2  0
 25 40  2  0
 10  5  1  0
 16 11  1  0
 40 21  1  0
 39 32  1  0
  1 41  1  0
  6 42  1  0
  7 43  1  0
  8 44  1  0
  9 45  1  0
 12 46  1  0
 13 47  1  0
 14 48  1  0
 15 49  1  0
 22 50  1  0
 23 51  1  0
 24 52  1  0
 33 53  1  0
 34 54  1  0
 39 55  1  0
 40 56  1  0
M  CHG  3   1  -1  17  -1  28  -1
M  END
>  <UniqueID>  (74) 
71

>  <SMILES>  (74) 
[NH-]S(=O)(=O)c1ccccc1-c1ccccc1[N-]S(=O)(=O)c1cccc(C(=O)[N-]S(=O)(=O)c2ccc(F)c(F)c2)c1

>  <Energy>  (74) 
76.24887184799054

>  <Genealogy>  (74) 
[NH-]S(=O)(=O)c1ccccc1-c1ccccc1[N-]S(=O)(=O)c1cccc(C(=O)[N-]S(=O)(=O)c2ccc(F)c(F)c2)c1 (protonated)
[NH-]S(=O)(=O)c1ccccc1-c1ccccc1[N-]S(=O)(=O)c1cccc(C(=O)[N-]S(=O)(=O)c2ccc(F)c(F)c2)c1 (3D coordinates assigned)
[NH-]S(=O)(=O)c1ccccc1-c1ccccc1[N-]S(=O)(=O)c1cccc(C(=O)[N-]S(=O)(=O)c2ccc(F)c(F)c2)c1 (optimized conformer: 76.24887184799054 kcal/mol)

>  <smiles>  (74) 
NS(=O)(=O)c1ccccc1-c1ccccc1NS(=O)(=O)c1cccc(C(=O)NS(=O)(=O)c2ccc(F)c(F)c2)c1

>  <score_type>  (74) 
oracle

>  <origin>  (74) 
adg

>  <m_score__min__energy>  (74) 
-15.91

>  <m_primary>  (74) 
energy

$$$$
74:0
     RDKit          3D

 56 58  0  0  0  0  0  0  0  0999 V2000
   54.4300   29.6180   52.3550 C   0  0  0  0  0  0  0  0  0  0  0  0
   55.8460   29.6630   52.2310 O   0  0  0  0  0  0  0  0  0  0  0  0
   56.5500   30.8510   52.0030 C   0  0  0  0  0  0  0  0  0  0  0  0
   56.0550   31.9560   52.3590 O   0  0  0  0  0  0  0  0  0  0  0  0
   57.8730   30.8090   51.3390 C   0  0  0  0  0  0  0  0  0  0  0  0
   58.5540   29.5890   51.1960 C   0  0  0  0  0  0  0  0  0  0  0  0
   59.8040   29.5440   50.5730 C   0  0  0  0  0  0  0  0  0  0  0  0
   60.3980   30.7190   50.0810 C   0  0  0  0  0  0  0  0  0  0  0  0
   61.6930   30.6770   49.4480 N   0  0  0  0  0  0  0  0  0  0  0  0
   61.8390   31.7710   48.5170 C   0  0  0  0  0  0  0  0  0  0  0  0
   62.8220   32.7550   48.7360 C   0  0  0  0  0  0  0  0  0  0  0  0
   63.0000   33.7960   47.8220 C   0  0  0  0  0  0  0  0  0  0  0  0
   62.2020   33.8690   46.6790 C   0  0  0  0  0  0  0  0  0  0  0  0
   61.2170   32.9060   46.4520 C   0  0  0  0  0  0  0  0  0  0  0  0
   61.0260   31.8600   47.3640 C   0  0  0  0  0  0  0  0  0  0  0  0
   60.0150   30.9250   47.1390 O   0  0  0  0  0  0  0  0  0  0  0  0
   60.3750   29.2960   46.7780 S   0  0  0  0  0  0  0  0  0  0  0  0
   61.3300   29.2380   45.6190 O   0  0  0  0  0  0  0  0  0  0  0  0
   61.0110   28.6260   47.9640 O   0  0  0  0  0  0  0  0  0  0  0  0
   58.8770   28.4860   46.3470 C   0  0  0  0  0  0  0  0  0  0  0  0
   58.5890   27.2080   46.8420 C   0  0  0  0  0  0  0  0  0  0  0  0
   57.3490   26.6210   46.5820 C   0  0  0  0  0  0  0  0  0  0  0  0
   56.3780   27.3130   45.8490 C   0  0  0  0  0  0  0  0  0  0  0  0
   55.1410   26.7140   45.6280 O   0  0  0  0  0  0  0  0  0  0  0  0
   56.6560   28.6040   45.3550 C   0  0  0  0  0  0  0  0  0  0  0  0
   55.6150   29.4150   44.6210 C   0  0  0  0  0  0  0  0  0  0  0  0
   56.1420   29.8770   43.3190 N   0  0  0  0  0  0  0  0  0  0  0  0
   56.9200   31.1140   43.4980 C   0  0  0  0  0  0  0  0  0  0  0  0
   56.9880   28.8460   42.6970 C   0  0  0  0  0  0  0  0  0  0  0  0
   57.9150   29.1740   45.5980 C   0  0  0  0  0  0  0  0  0  0  0  0
   59.7170   31.9390   50.2230 C   0  0  0  0  0  0  0  0  0  0  0  0
   58.4640   31.9840   50.8420 C   0  0  0  0  0  0  0  0  0  0  0  0
   54.1553   29.6093   53.4201 H   0  0  0  0  0  0  0  0  0  0  0  0
   53.9912   30.5027   51.8704 H   0  0  0  0  0  0  0  0  0  0  0  0
   54.0482   28.7073   51.8704 H   0  0  0  0  0  0  0  0  0  0  0  0
   58.1001   28.6623   51.5771 H   0  0  0  0  0  0  0  0  0  0  0  0
   60.3269   28.5821   50.4669 H   0  0  0  0  0  0  0  0  0  0  0  0
   62.4320   30.7180   50.1880 H   0  0  0  0  0  0  0  0  0  0  0  0
   61.8320   29.7730   48.9440 H   0  0  0  0  0  0  0  0  0  0  0  0
   63.4549   32.7035   49.6342 H   0  0  0  0  0  0  0  0  0  0  0  0
   63.7705   34.5598   48.0032 H   0  0  0  0  0  0  0  0  0  0  0  0
   62.3493   34.6856   45.9569 H   0  0  0  0  0  0  0  0  0  0  0  0
   60.5875   32.9690   45.5521 H   0  0  0  0  0  0  0  0  0  0  0  0
   59.3400   26.6664   47.4359 H   0  0  0  0  0  0  0  0  0  0  0  0
   57.1340   25.6089   46.9554 H   0  0  0  0  0  0  0  0  0  0  0  0
   54.7246   28.7920   44.4507 H   0  0  0  0  0  0  0  0  0  0  0  0
   55.3528   30.2925   45.2303 H   0  0  0  0  0  0  0  0  0  0  0  0
   57.0466   31.3153   44.5720 H   0  0  0  0  0  0  0  0  0  0  0  0
   57.9076   30.9973   43.0279 H   0  0  0  0  0  0  0  0  0  0  0  0
   56.3871   31.9536   43.0279 H   0  0  0  0  0  0  0  0  0  0  0  0
   57.4769   28.2502   43.4819 H   0  0  0  0  0  0  0  0  0  0  0  0
   56.3654   28.1888   42.0721 H   0  0  0  0  0  0  0  0  0  0  0  0
   57.7541   29.3283   42.0721 H   0  0  0  0  0  0  0  0  0  0  0  0
   58.1483   30.1710   45.1961 H   0  0  0  0  0  0  0  0  0  0  0  0
   60.1726   32.8659   49.8445 H   0  0  0  0  0  0  0  0  0  0  0  0
   57.9374   32.9447   50.9407 H   0  0  0  0  0  0  0  0  0  0  0  0
  1  2  1  0
  2  3  1  0
  3  4  2  0
  3  5  1  0
  5  6  2  0
  6  7  1  0
  7  8  2  0
  8  9  1  0
  9 10  1  0
 10 11  2  0
 11 12  1  0
 12 13  2  0
 13 14  1  0
 14 15  2  0
 15 16  1  0
 16 17  1  0
 17 18  2  0
 17 19  2  0
 17 20  1  0
 20 21  2  0
 21 22  1  0
 22 23  2  0
 23 24  1  0
 23 25  1  0
 25 26  1  0
 26 27  1  0
 27 28  1  0
 27 29  1  0
 25 30  2  0
  8 31  1  0
 31 32  2  0
 32  5  1  0
 15 10  1  0
 30 20  1  0
  1 33  1  0
  1 34  1  0
  1 35  1  0
  6 36  1  0
  7 37  1  0
  9 38  1  0
  9 39  1  0
 11 40  1  0
 12 41  1  0
 13 42  1  0
 14 43  1  0
 21 44  1  0
 22 45  1  0
 26 46  1  0
 26 47  1  0
 28 48  1  0
 28 49  1  0
 28 50  1  0
 29 51  1  0
 29 52  1  0
 29 53  1  0
 30 54  1  0
 31 55  1  0
 32 56  1  0
M  CHG  2   9   1  24  -1
M  END
>  <UniqueID>  (75) 
72

>  <SMILES>  (75) 
COC(=O)c1ccc([NH2+]c2ccccc2OS(=O)(=O)c2ccc([O-])c(CN(C)C)c2)cc1

>  <Energy>  (75) 
61.53647000605027

>  <Genealogy>  (75) 
COC(=O)c1ccc([NH2+]c2ccccc2OS(=O)(=O)c2ccc([O-])c(CN(C)C)c2)cc1 (protonated)
COC(=O)c1ccc([NH2+]c2ccccc2OS(=O)(=O)c2ccc([O-])c(CN(C)C)c2)cc1 (3D coordinates assigned)
COC(=O)c1ccc([NH2+]c2ccccc2OS(=O)(=O)c2ccc([O-])c(CN(C)C)c2)cc1 (optimized conformer: 61.53647000605027 kcal/mol)

>  <smiles>  (75) 
COC(=O)c1ccc(Nc2ccccc2OS(=O)(=O)c2ccc(O)c(CN(C)C)c2)cc1

>  <score_type>  (75) 
oracle

>  <origin>  (75) 
adg

>  <m_score__min__energy>  (75) 
-9.1899999999999995

>  <m_primary>  (75) 
energy

$$$$
75:0
     RDKit          3D

 33 34  0  0  0  0  0  0  0  0999 V2000
   57.1960   26.6250   47.0160 O   0  0  0  0  0  0  0  0  0  0  0  0
   56.4970   27.0560   46.0620 C   0  0  0  0  0  0  0  0  0  0  0  0
   55.1500   26.7220   45.9890 O   0  0  0  0  0  0  0  0  0  0  0  0
   57.1200   27.8890   44.9880 C   0  0  0  0  0  0  0  0  0  0  0  0
   56.4320   29.2250   44.8850 C   0  0  0  0  0  0  0  0  0  0  0  0
   55.2270   29.3270   45.2380 O   0  0  0  0  0  0  0  0  0  0  0  0
   57.1180   30.3970   44.4260 N   0  0  0  0  0  0  0  0  0  0  0  0
   57.5090   31.5200   45.2290 C   0  0  0  0  0  0  0  0  0  0  0  0
   57.0120   32.7880   44.9090 C   0  0  0  0  0  0  0  0  0  0  0  0
   57.3780   33.9010   45.6700 C   0  0  0  0  0  0  0  0  0  0  0  0
   58.2550   33.7580   46.7480 C   0  0  0  0  0  0  0  0  0  0  0  0
   58.7940   32.4980   47.0600 C   0  0  0  0  0  0  0  0  0  0  0  0
   59.6760   32.3400   48.1900 N   0  0  0  0  0  0  0  0  0  0  0  0
   61.0440   32.5080   47.7620 C   0  0  0  0  0  0  0  0  0  0  0  0
   61.4210   33.6560   47.0400 C   0  0  0  0  0  0  0  0  0  0  0  0
   62.7510   33.8460   46.6540 C   0  0  0  0  0  0  0  0  0  0  0  0
   63.7190   32.8970   46.9890 C   0  0  0  0  0  0  0  0  0  0  0  0
   63.3600   31.7570   47.7100 C   0  0  0  0  0  0  0  0  0  0  0  0
   62.0310   31.5580   48.0980 C   0  0  0  0  0  0  0  0  0  0  0  0
   61.7080   30.4410   48.7980 F   0  0  0  0  0  0  0  0  0  0  0  0
   58.4240   31.3840   46.2870 C   0  0  0  0  0  0  0  0  0  0  0  0
   58.1826   28.0472   45.2242 H   0  0  0  0  0  0  0  0  0  0  0  0
   57.0171   27.3629   44.0275 H   0  0  0  0  0  0  0  0  0  0  0  0
   56.3300   32.9092   44.0545 H   0  0  0  0  0  0  0  0  0  0  0  0
   56.9743   34.8931   45.4196 H   0  0  0  0  0  0  0  0  0  0  0  0
   58.5247   34.6349   47.3549 H   0  0  0  0  0  0  0  0  0  0  0  0
   59.4360   33.0340   48.9350 H   0  0  0  0  0  0  0  0  0  0  0  0
   59.5510   31.3920   48.6160 H   0  0  0  0  0  0  0  0  0  0  0  0
   60.6634   34.4092   46.7776 H   0  0  0  0  0  0  0  0  0  0  0  0
   63.0353   34.7440   46.0858 H   0  0  0  0  0  0  0  0  0  0  0  0
   64.7652   33.0479   46.6845 H   0  0  0  0  0  0  0  0  0  0  0  0
   64.1252   31.0122   47.9741 H   0  0  0  0  0  0  0  0  0  0  0  0
   58.8544   30.3970   46.5121 H   0  0  0  0  0  0  0  0  0  0  0  0
  1  2  2  0
  2  3  1  0
  2  4  1  0
  4  5  1  0
  5  6  2  0
  5  7  1  0
  7  8  1  0
  8  9  2  0
  9 10  1  0
 10 11  2  0
 11 12  1  0
 12 13  1  0
 13 14  1  0
 14 15  2  0
 15 16  1  0
 16 17  2  0
 17 18  1  0
 18 19  2  0
 19 20  1  0
 12 21  2  0
 21  8  1  0
 19 14  1  0
  4 22  1  0
  4 23  1  0
  9 24  1  0
 10 25  1  0
 11 26  1  0
 13 27  1  0
 13 28  1  0
 15 29  1  0
 16 30  1  0
 17 31  1  0
 18 32  1  0
 21 33  1  0
M  CHG  3   3  -1   7  -1  13   1
M  END
>  <UniqueID>  (76) 
73

>  <SMILES>  (76) 
O=C([O-])CC(=O)[N-]c1cccc([NH2+]c2ccccc2F)c1

>  <Energy>  (76) 
38.42395388554633

>  <Genealogy>  (76) 
O=C([O-])CC(=O)[N-]c1cccc([NH2+]c2ccccc2F)c1 (protonated)
O=C([O-])CC(=O)[N-]c1cccc([NH2+]c2ccccc2F)c1 (3D coordinates assigned)
O=C([O-])CC(=O)[N-]c1cccc([NH2+]c2ccccc2F)c1 (optimized conformer: 38.42395388554633 kcal/mol)

>  <smiles>  (76) 
O=C(O)CC(=O)Nc1cccc(Nc2ccccc2F)c1

>  <score_type>  (76) 
oracle

>  <origin>  (76) 
adg

>  <m_score__min__energy>  (76) 
-10.050000000000001

>  <m_primary>  (76) 
energy

$$$$
76:0
     RDKit          3D

 42 44  0  0  0  0  0  0  0  0999 V2000
   57.9300   28.2040   44.0200 C   0  0  0  0  0  0  0  0  0  0  0  0
   57.0400   29.7050   44.3610 S   0  0  0  0  0  0  0  0  0  0  0  0
   57.0140   30.5770   43.1380 O   0  0  0  0  0  0  0  0  0  0  0  0
   55.6290   29.3620   44.7440 O   0  0  0  0  0  0  0  0  0  0  0  0
   57.8090   30.5510   45.6660 N   0  0  0  0  0  0  0  0  0  0  0  0
   58.5100   29.9830   46.6730 C   0  0  0  0  0  0  0  0  0  0  0  0
   59.0070   30.9600   47.5270 C   0  0  0  0  0  0  0  0  0  0  0  0
   58.5820   32.1680   47.0000 C   0  0  0  0  0  0  0  0  0  0  0  0
   58.7940   33.4880   47.4270 C   0  0  0  0  0  0  0  0  0  0  0  0
   59.6060   33.8290   48.6520 C   0  0  0  0  0  0  0  0  0  0  0  0
   61.0310   33.9810   48.2940 N   0  0  0  0  0  0  0  0  0  0  0  0
   61.2250   33.9670   46.8250 C   0  0  0  0  0  0  0  0  0  0  0  0
   62.5520   33.2750   46.4310 C   0  0  0  0  0  0  0  0  0  0  0  0
   63.8110   33.9380   47.0330 C   0  0  0  0  0  0  0  0  0  0  0  0
   64.2360   33.4040   48.3470 N   0  0  0  0  0  0  0  0  0  0  0  0
   63.2300   33.4430   49.4220 C   0  0  0  0  0  0  0  0  0  0  0  0
   61.8420   32.9480   48.9740 C   0  0  0  0  0  0  0  0  0  0  0  0
   58.2370   34.5200   46.6410 C   0  0  0  0  0  0  0  0  0  0  0  0
   57.4940   34.2220   45.4810 C   0  0  0  0  0  0  0  0  0  0  0  0
   57.2980   32.8900   45.0820 C   0  0  0  0  0  0  0  0  0  0  0  0
   57.8580   31.8810   45.8670 C   0  0  0  0  0  0  0  0  0  0  0  0
   58.2150   27.7234   44.9675 H   0  0  0  0  0  0  0  0  0  0  0  0
   57.2903   27.5219   43.4408 H   0  0  0  0  0  0  0  0  0  0  0  0
   58.8354   28.4381   43.4408 H   0  0  0  0  0  0  0  0  0  0  0  0
   58.6649   28.9012   46.7984 H   0  0  0  0  0  0  0  0  0  0  0  0
   59.6119   30.8060   48.4328 H   0  0  0  0  0  0  0  0  0  0  0  0
   59.2368   34.7719   49.0816 H   0  0  0  0  0  0  0  0  0  0  0  0
   59.5054   33.0165   49.3866 H   0  0  0  0  0  0  0  0  0  0  0  0
   60.3883   33.4252   46.3598 H   0  0  0  0  0  0  0  0  0  0  0  0
   61.2632   35.0086   46.4736 H   0  0  0  0  0  0  0  0  0  0  0  0
   62.5129   32.2310   46.7754 H   0  0  0  0  0  0  0  0  0  0  0  0
   62.6412   33.3581   45.3378 H   0  0  0  0  0  0  0  0  0  0  0  0
   64.6408   33.7992   46.3244 H   0  0  0  0  0  0  0  0  0  0  0  0
   63.5500   34.9932   47.2016 H   0  0  0  0  0  0  0  0  0  0  0  0
   64.5060   32.4010   48.2160 H   0  0  0  0  0  0  0  0  0  0  0  0
   63.5777   32.8066   50.2491 H   0  0  0  0  0  0  0  0  0  0  0  0
   63.1189   34.4940   49.7270 H   0  0  0  0  0  0  0  0  0  0  0  0
   61.9813   32.1049   48.2814 H   0  0  0  0  0  0  0  0  0  0  0  0
   61.2956   32.6593   49.8840 H   0  0  0  0  0  0  0  0  0  0  0  0
   58.3846   35.5690   46.9374 H   0  0  0  0  0  0  0  0  0  0  0  0
   57.0642   35.0394   44.8834 H   0  0  0  0  0  0  0  0  0  0  0  0
   56.7202   32.6490   44.1775 H   0  0  0  0  0  0  0  0  0  0  0  0
  1  2  1  0
  2  3  2  0
  2  4  2  0
  2  5  1  0
  5  6  1  0
  6  7  2  0
  7  8  1  0
  8  9  2  0
  9 10  1  0
 10 11  1  0
 11 12  1  0
 12 13  1  0
 13 14  1  0
 14 15  1  0
 15 16  1  0
 16 17  1  0
  9 18  1  0
 18 19  2  0
 19 20  1  0
 20 21  2  0
 21  5  1  0
 21  8  1  0
 17 11  1  0
  1 22  1  0
  1 23  1  0
  1 24  1  0
  6 25  1  0
  7 26  1  0
 10 27  1  0
 10 28  1  0
 12 29  1  0
 12 30  1  0
 13 31  1  0
 13 32  1  0
 14 33  1  0
 14 34  1  0
 15 35  1  0
 16 36  1  0
 16 37  1  0
 17 38  1  0
 17 39  1  0
 18 40  1  0
 19 41  1  0
 20 42  1  0
M  END
>  <UniqueID>  (77) 
74

>  <SMILES>  (77) 
CS(=O)(=O)n1ccc2c(CN3CCCNCC3)cccc21

>  <Energy>  (77) 
87.66437425255762

>  <Genealogy>  (77) 
CS(=O)(=O)n1ccc2c(CN3CCCNCC3)cccc21 (3D coordinates assigned)
CS(=O)(=O)n1ccc2c(CN3CCCNCC3)cccc21 (nonaromatic ring conformer: 87.66437425255762 kcal/mol)

>  <smiles>  (77) 
CS(=O)(=O)n1ccc2c(CN3CCCNCC3)cccc21

>  <score_type>  (77) 
oracle

>  <origin>  (77) 
adg

>  <m_score__min__energy>  (77) 
-6.5199999999999996

>  <m_primary>  (77) 
energy

$$$$
77:0
     RDKit          3D

 36 38  0  0  0  0  0  0  0  0999 V2000
   58.4010   34.5480   45.6570 C   0  0  0  0  0  0  0  0  0  0  0  0
   57.5020   34.1350   44.4980 C   0  0  0  0  0  0  0  0  0  0  0  0
   58.1170   33.1030   43.7290 O   0  0  0  0  0  0  0  0  0  0  0  0
   57.4710   31.9090   43.3820 C   0  0  0  0  0  0  0  0  0  0  0  0
   57.1080   31.7030   42.1910 O   0  0  0  0  0  0  0  0  0  0  0  0
   57.1480   30.8940   44.4570 C   0  0  1  0  0  0  0  0  0  0  0  0
   57.0210   31.5350   45.7050 O   0  0  0  0  0  0  0  0  0  0  0  0
   55.8000   30.2390   44.1190 C   0  0  0  0  0  0  0  0  0  0  0  0
   55.5580   29.1350   44.9850 O   0  0  0  0  0  0  0  0  0  0  0  0
   56.5300   28.1530   45.1970 C   0  0  0  0  0  0  0  0  0  0  0  0
   57.8770   28.4160   44.8800 C   0  0  0  0  0  0  0  0  0  0  0  0
   58.8280   27.3670   44.9820 C   0  0  0  0  0  0  0  0  0  0  0  0
   60.1420   27.5100   44.5220 O   0  0  0  0  0  0  0  0  0  0  0  0
   58.4430   26.1260   45.5340 C   0  0  0  0  0  0  0  0  0  0  0  0
   59.3820   25.0870   45.6990 C   0  0  0  0  0  0  0  0  0  0  0  0
   58.9950   23.8610   46.2430 C   0  0  0  0  0  0  0  0  0  0  0  0
   57.6710   23.6480   46.6250 C   0  0  0  0  0  0  0  0  0  0  0  0
   57.2930   22.4250   47.1660 O   0  0  0  0  0  0  0  0  0  0  0  0
   56.7230   24.6620   46.4630 C   0  0  0  0  0  0  0  0  0  0  0  0
   57.0960   25.9050   45.9170 C   0  0  0  0  0  0  0  0  0  0  0  0
   56.1460   26.9200   45.7280 C   0  0  0  0  0  0  0  0  0  0  0  0
   54.8090   26.7120   46.0600 O   0  0  0  0  0  0  0  0  0  0  0  0
   58.2320   29.8300   44.5520 C   0  0  0  0  0  0  0  0  0  0  0  0
   59.4370   30.1970   44.5090 O   0  0  0  0  0  0  0  0  0  0  0  0
   57.9005   34.3181   46.6092 H   0  0  0  0  0  0  0  0  0  0  0  0
   59.3506   33.9959   45.5992 H   0  0  0  0  0  0  0  0  0  0  0  0
   58.6008   35.6282   45.5992 H   0  0  0  0  0  0  0  0  0  0  0  0
   56.5447   33.7676   44.8961 H   0  0  0  0  0  0  0  0  0  0  0  0
   57.3346   35.0082   43.8503 H   0  0  0  0  0  0  0  0  0  0  0  0
   57.5490   32.3770   45.6720 H   0  0  0  0  0  0  0  0  0  0  0  0
   54.9957   30.9794   44.2410 H   0  0  0  0  0  0  0  0  0  0  0  0
   55.8263   29.8803   43.0795 H   0  0  0  0  0  0  0  0  0  0  0  0
   60.5660   28.3990   44.2980 H   0  0  0  0  0  0  0  0  0  0  0  0
   60.4279   25.2438   45.3966 H   0  0  0  0  0  0  0  0  0  0  0  0
   59.7376   23.0596   46.3708 H   0  0  0  0  0  0  0  0  0  0  0  0
   55.6793   24.4880   46.7638 H   0  0  0  0  0  0  0  0  0  0  0  0
  1  2  1  0
  2  3  1  0
  3  4  1  0
  4  5  2  0
  4  6  1  0
  6  7  1  1
  6  8  1  0
  8  9  1  0
  9 10  1  0
 10 11  2  0
 11 12  1  0
 12 13  1  0
 12 14  2  0
 14 15  1  0
 15 16  2  0
 16 17  1  0
 17 18  1  0
 17 19  2  0
 19 20  1  0
 20 21  2  0
 21 22  1  0
 11 23  1  0
 23 24  2  0
 23  6  1  0
 21 10  1  0
 20 14  1  0
  1 25  1  0
  1 26  1  0
  1 27  1  0
  2 28  1  0
  2 29  1  0
  7 30  1  0
  8 31  1  0
  8 32  1  0
 13 33  1  0
 15 34  1  0
 16 35  1  0
 19 36  1  0
M  CHG  2  18  -1  22  -1
M  END
>  <UniqueID>  (78) 
75

>  <SMILES>  (78) 
CCOC(=O)[C@@]1(O)COc2c(c(O)c3ccc([O-])cc3c2[O-])C1=O

>  <Energy>  (78) 
49.31694492149001

>  <Genealogy>  (78) 
CCOC(=O)C1(O)COc2c(c(O)c3ccc([O-])cc3c2[O-])C1=O (protonated)
CCOC(=O)[C@@]1(O)COc2c(c(O)c3ccc([O-])cc3c2[O-])C1=O (chirality)
CCOC(=O)[C@@]1(O)COc2c(c(O)c3ccc([O-])cc3c2[O-])C1=O (3D coordinates assigned)
CCOC(=O)[C@@]1(O)COc2c(c(O)c3ccc([O-])cc3c2[O-])C1=O (nonaromatic ring conformer: 49.31694492149001 kcal/mol)

>  <smiles>  (78) 
CCOC(=O)C1(O)COc2c(c(O)c3ccc(O)cc3c2O)C1=O

>  <score_type>  (78) 
oracle

>  <origin>  (78) 
adg

>  <m_score__min__energy>  (78) 
-11.51

>  <m_primary>  (78) 
energy

$$$$
78:0
     RDKit          3D

 26 27  0  0  0  0  0  0  0  0999 V2000
   56.6413   20.4422   48.6454 H   0  0  0  0  0  0  0  0  0  0  0  0
   57.0230   20.9120   47.7270 C   0  0  0  0  0  0  0  0  0  0  0  0
   55.7460   29.1890   45.1510 N   0  0  0  0  0  0  0  0  0  0  0  0
   56.8700   28.4470   45.2650 C   0  0  0  0  0  0  0  0  0  0  0  0
   56.9440   27.2920   45.8570 N   0  0  0  0  0  0  0  0  0  0  0  0
   56.5560   24.8110   45.2440 C   0  0  0  0  0  0  0  0  0  0  0  0
   55.6896   24.1814   44.9933 H   0  0  0  0  0  0  0  0  0  0  0  0
   57.1934   24.9555   44.3592 H   0  0  0  0  0  0  0  0  0  0  0  0
   56.0690   26.1570   45.7130 C   0  0  0  0  0  0  0  0  0  0  0  0
   54.8510   26.3100   45.9940 O   0  0  0  0  0  0  0  0  0  0  0  0
   57.3430   24.1510   46.2860 N   0  0  0  0  0  0  0  0  0  0  0  0
   57.4160   22.8630   46.4360 C   0  0  0  0  0  0  0  0  0  0  0  0
   56.9490   22.2590   47.5640 N   0  0  0  0  0  0  0  0  0  0  0  0
   55.9390   30.3310   44.4930 N   0  0  0  0  0  0  0  0  0  0  0  0
   57.2190   30.5060   44.0940 C   0  0  0  0  0  0  0  0  0  0  0  0
   57.6770   31.6690   43.2820 C   0  0  0  0  0  0  0  0  0  0  0  0
   57.9967   32.4808   43.9519 H   0  0  0  0  0  0  0  0  0  0  0  0
   58.5218   31.3632   42.6474 H   0  0  0  0  0  0  0  0  0  0  0  0
   56.8505   32.0214   42.6474 H   0  0  0  0  0  0  0  0  0  0  0  0
   58.1850   29.1960   44.5310 S   0  0  0  0  0  0  0  0  0  0  0  0
   57.9820   22.0760   45.4270 C   0  0  0  0  0  0  0  0  0  0  0  0
   58.3641   22.5450   44.5083 H   0  0  0  0  0  0  0  0  0  0  0  0
   58.0570   20.7270   45.5890 N   0  0  0  0  0  0  0  0  0  0  0  0
   58.4790   20.1420   44.8350 H   0  0  0  0  0  0  0  0  0  0  0  0
   57.5880   20.1300   46.7180 C   0  0  0  0  0  0  0  0  0  0  0  0
   57.6536   19.0382   46.8350 H   0  0  0  0  0  0  0  0  0  0  0  0
  1  2  1  0
  2  3  1  0
  3  4  1  0
  4  5  2  0
  5  6  1  0
  6  7  1  0
  6  8  1  0
  6  9  1  0
  9 10  2  0
  9 11  1  0
 11 12  2  0
 12 13  1  0
 13 14  1  0
 14 15  2  0
 15 16  1  0
 16 17  1  0
 16 18  1  0
 16 19  1  0
 15 20  1  0
  4 21  1  0
 21 22  1  0
 21 23  2  0
 23 24  1  0
 23 25  1  0
 25 26  1  0
 25  2  2  0
 20 12  1  0
M  CHG  3   3  -1  13  -1  23   1
M  END
>  <UniqueID>  (79) 
76

>  <SMILES>  (79) 
Cc1n[n-]/c(=N\C(=O)C/N=c2/c[nH+]cc[n-]2)s1

>  <Energy>  (79) 
62.81530173004163

>  <Genealogy>  (79) 
Cc1n[n-]c(=NC(=O)CN=c2c[nH+]cc[n-]2)s1 (protonated)
Cc1n[n-]/c(=N\C(=O)C/N=c2/c[nH+]cc[n-]2)s1 (cis-trans isomerization)
Cc1n[n-]/c(=N\C(=O)C/N=c2/c[nH+]cc[n-]2)s1 (3D coordinates assigned)
Cc1n[n-]/c(=N\C(=O)C/N=c2/c[nH+]cc[n-]2)s1 (optimized conformer: 62.81530173004163 kcal/mol)

>  <smiles>  (79) 
Cc1n[nH]c(=NC(=O)CN=c2cncc[nH]2)s1

>  <score_type>  (79) 
oracle

>  <origin>  (79) 
adg

>  <m_score__min__energy>  (79) 
-9.1099999999999994

>  <m_primary>  (79) 
energy

$$$$
79:0
     RDKit          3D

 50 52  0  0  0  0  0  0  0  0999 V2000
   57.0660   20.8800   42.9930 C   0  0  0  0  0  0  0  0  0  0  0  0
   57.2310   22.1650   43.7480 C   0  0  0  0  0  0  0  0  0  0  0  0
   56.4580   23.2860   43.4090 C   0  0  0  0  0  0  0  0  0  0  0  0
   56.6350   24.4950   44.0860 C   0  0  0  0  0  0  0  0  0  0  0  0
   57.5980   24.6050   45.1020 C   0  0  0  0  0  0  0  0  0  0  0  0
   57.7860   25.8490   45.8050 N   0  0  0  0  0  0  0  0  0  0  0  0
   58.9440   25.9970   46.7040 C   0  0  0  0  0  0  0  0  0  0  0  0
   59.4800   27.4090   46.6850 C   0  0  0  0  0  0  0  0  0  0  0  0
   59.1370   28.3100   47.7090 C   0  0  0  0  0  0  0  0  0  0  0  0
   59.5860   29.6350   47.6610 C   0  0  0  0  0  0  0  0  0  0  0  0
   60.3690   30.0730   46.5920 C   0  0  0  0  0  0  0  0  0  0  0  0
   60.7040   29.1880   45.5660 C   0  0  0  0  0  0  0  0  0  0  0  0
   60.2560   27.8640   45.6060 C   0  0  0  0  0  0  0  0  0  0  0  0
   56.8430   26.9240   45.5800 C   0  0  0  0  0  0  0  0  0  0  0  0
   55.6520   26.7920   45.9760 O   0  0  0  0  0  0  0  0  0  0  0  0
   57.2020   28.1770   44.8270 C   0  0  0  0  0  0  0  0  0  0  0  0
   55.8080   29.3560   44.8290 S   0  0  0  0  0  0  0  0  0  0  0  0
   56.8070   30.7620   44.3510 C   0  0  0  0  0  0  0  0  0  0  0  0
   57.0240   31.0190   43.0360 N   0  0  0  0  0  0  0  0  0  0  0  0
   57.7630   32.0900   42.6430 C   0  0  0  0  0  0  0  0  0  0  0  0
   57.9450   32.3680   41.1850 C   0  0  0  0  0  0  0  0  0  0  0  0
   58.2890   32.9580   43.6070 C   0  0  0  0  0  0  0  0  0  0  0  0
   58.0470   32.6850   44.9590 C   0  0  0  0  0  0  0  0  0  0  0  0
   58.6100   33.5770   46.0270 C   0  0  0  0  0  0  0  0  0  0  0  0
   58.6660   34.8870   45.5860 F   0  0  0  0  0  0  0  0  0  0  0  0
   59.8900   33.1680   46.3570 F   0  0  0  0  0  0  0  0  0  0  0  0
   57.8080   33.5140   47.1510 F   0  0  0  0  0  0  0  0  0  0  0  0
   57.3160   31.5900   45.3000 N   0  0  0  0  0  0  0  0  0  0  0  0
   58.3740   23.4860   45.4350 C   0  0  0  0  0  0  0  0  0  0  0  0
   58.2000   22.2770   44.7560 C   0  0  0  0  0  0  0  0  0  0  0  0
   56.9592   20.0479   43.7044 H   0  0  0  0  0  0  0  0  0  0  0  0
   56.1681   20.9391   42.3604 H   0  0  0  0  0  0  0  0  0  0  0  0
   57.9497   20.7104   42.3604 H   0  0  0  0  0  0  0  0  0  0  0  0
   55.7093   23.2124   42.6065 H   0  0  0  0  0  0  0  0  0  0  0  0
   56.0167   25.3655   43.8218 H   0  0  0  0  0  0  0  0  0  0  0  0
   58.6355   25.7452   47.7294 H   0  0  0  0  0  0  0  0  0  0  0  0
   59.7393   25.3203   46.3581 H   0  0  0  0  0  0  0  0  0  0  0  0
   58.5139   27.9724   48.5503 H   0  0  0  0  0  0  0  0  0  0  0  0
   59.3208   30.3333   48.4685 H   0  0  0  0  0  0  0  0  0  0  0  0
   60.7217   31.1144   46.5581 H   0  0  0  0  0  0  0  0  0  0  0  0
   61.3220   29.5329   44.7239 H   0  0  0  0  0  0  0  0  0  0  0  0
   60.5127   27.1749   44.7880 H   0  0  0  0  0  0  0  0  0  0  0  0
   58.0735   28.6480   45.3052 H   0  0  0  0  0  0  0  0  0  0  0  0
   57.4353   27.9084   43.7861 H   0  0  0  0  0  0  0  0  0  0  0  0
   58.5435   33.2822   41.0579 H   0  0  0  0  0  0  0  0  0  0  0  0
   58.4641   31.5212   40.7123 H   0  0  0  0  0  0  0  0  0  0  0  0
   56.9613   32.5051   40.7123 H   0  0  0  0  0  0  0  0  0  0  0  0
   58.8802   33.8364   43.3087 H   0  0  0  0  0  0  0  0  0  0  0  0
   59.1245   23.5600   46.2357 H   0  0  0  0  0  0  0  0  0  0  0  0
   58.8256   21.4095   45.0131 H   0  0  0  0  0  0  0  0  0  0  0  0
  1  2  1  0
  2  3  2  0
  3  4  1  0
  4  5  2  0
  5  6  1  0
  6  7  1  0
  7  8  1  0
  8  9  2  0
  9 10  1  0
 10 11  2  0
 11 12  1  0
 12 13  2  0
  6 14  1  0
 14 15  2  0
 14 16  1  0
 16 17  1  0
 17 18  1  0
 18 19  2  0
 19 20  1  0
 20 21  1  0
 20 22  2  0
 22 23  1  0
 23 24  1  0
 24 25  1  0
 24 26  1  0
 24 27  1  0
 23 28  2  0
  5 29  1  0
 29 30  2  0
 30  2  1  0
 13  8  1  0
 28 18  1  0
  1 31  1  0
  1 32  1  0
  1 33  1  0
  3 34  1  0
  4 35  1  0
  7 36  1  0
  7 37  1  0
  9 38  1  0
 10 39  1  0
 11 40  1  0
 12 41  1  0
 13 42  1  0
 16 43  1  0
 16 44  1  0
 21 45  1  0
 21 46  1  0
 21 47  1  0
 22 48  1  0
 29 49  1  0
 30 50  1  0
M  END
>  <UniqueID>  (80) 
77

>  <SMILES>  (80) 
Cc1ccc(N(Cc2ccccc2)C(=O)CSc2nc(C)cc(C(F)(F)F)n2)cc1

>  <Energy>  (80) 
46.53023050249013

>  <Genealogy>  (80) 
Cc1ccc(N(Cc2ccccc2)C(=O)CSc2nc(C)cc(C(F)(F)F)n2)cc1 (3D coordinates assigned)
Cc1ccc(N(Cc2ccccc2)C(=O)CSc2nc(C)cc(C(F)(F)F)n2)cc1 (optimized conformer: 46.53023050249013 kcal/mol)

>  <smiles>  (80) 
Cc1ccc(N(Cc2ccccc2)C(=O)CSc2nc(C)cc(C(F)(F)F)n2)cc1

>  <score_type>  (80) 
oracle

>  <origin>  (80) 
adg

>  <m_score__min__energy>  (80) 
-8.8300000000000001

>  <m_primary>  (80) 
energy

$$$$
80:0
     RDKit          3D

 45 47  0  0  0  0  0  0  0  0999 V2000
   55.1180   29.6980   43.6700 C   0  0  0  0  0  0  0  0  0  0  0  0
   55.6860   29.1760   44.9040 N   0  0  0  0  0  0  0  0  0  0  0  0
   57.0090   29.5060   45.3390 C   0  0  0  0  0  0  0  0  0  0  0  0
   57.3930   30.7080   45.3030 O   0  0  0  0  0  0  0  0  0  0  0  0
   57.9150   28.4610   45.8740 C   0  0  0  0  0  0  0  0  0  0  0  0
   58.0160   27.2360   45.1840 C   0  0  0  0  0  0  0  0  0  0  0  0
   58.8590   26.2250   45.6440 C   0  0  0  0  0  0  0  0  0  0  0  0
   59.6020   26.4100   46.8080 C   0  0  0  0  0  0  0  0  0  0  0  0
   59.5070   27.6090   47.5140 C   0  0  0  0  0  0  0  0  0  0  0  0
   58.6810   28.6540   47.0520 C   0  0  0  0  0  0  0  0  0  0  0  0
   58.5160   29.8540   47.8260 N   0  0  0  0  0  0  0  0  0  0  0  0
   59.5520   30.5990   48.4770 C   0  0  0  0  0  0  0  0  0  0  0  0
   60.7140   30.1250   48.5690 O   0  0  0  0  0  0  0  0  0  0  0  0
   59.2940   31.9090   49.0020 N   0  0  0  0  0  0  0  0  0  0  0  0
   59.8140   33.1840   48.4940 C   0  0  0  0  0  0  0  0  0  0  0  0
   61.3310   33.1910   48.3700 C   0  0  0  0  0  0  0  0  0  0  0  0
   62.0090   32.6050   47.2810 C   0  0  0  0  0  0  0  0  0  0  0  0
   63.4060   32.6300   47.2200 C   0  0  0  0  0  0  0  0  0  0  0  0
   64.1420   33.2520   48.2320 C   0  0  0  0  0  0  0  0  0  0  0  0
   63.4840   33.8430   49.3110 C   0  0  0  0  0  0  0  0  0  0  0  0
   62.0880   33.8100   49.3830 C   0  0  0  0  0  0  0  0  0  0  0  0
   59.0850   33.6200   47.2310 C   0  0  0  0  0  0  0  0  0  0  0  0
   57.7620   33.1840   47.0270 C   0  0  0  0  0  0  0  0  0  0  0  0
   57.0770   33.5190   45.8550 C   0  0  0  0  0  0  0  0  0  0  0  0
   57.7050   34.2840   44.8690 C   0  0  0  0  0  0  0  0  0  0  0  0
   59.0190   34.7180   45.0550 C   0  0  0  0  0  0  0  0  0  0  0  0
   59.7070   34.3920   46.2270 C   0  0  0  0  0  0  0  0  0  0  0  0
   54.3274   30.4246   43.9088 H   0  0  0  0  0  0  0  0  0  0  0  0
   55.9064   30.1933   43.0842 H   0  0  0  0  0  0  0  0  0  0  0  0
   54.6909   28.8707   43.0842 H   0  0  0  0  0  0  0  0  0  0  0  0
   57.4227   27.0757   44.2717 H   0  0  0  0  0  0  0  0  0  0  0  0
   58.9375   25.2798   45.0869 H   0  0  0  0  0  0  0  0  0  0  0  0
   60.2640   25.6098   47.1704 H   0  0  0  0  0  0  0  0  0  0  0  0
   60.0830   27.7409   48.4418 H   0  0  0  0  0  0  0  0  0  0  0  0
   59.5960   33.9547   49.2480 H   0  0  0  0  0  0  0  0  0  0  0  0
   61.4353   32.1252   46.4744 H   0  0  0  0  0  0  0  0  0  0  0  0
   63.9267   32.1589   46.3733 H   0  0  0  0  0  0  0  0  0  0  0  0
   65.2404   33.2757   48.1779 H   0  0  0  0  0  0  0  0  0  0  0  0
   64.0638   34.3353   50.1056 H   0  0  0  0  0  0  0  0  0  0  0  0
   61.5760   34.2723   50.2398 H   0  0  0  0  0  0  0  0  0  0  0  0
   57.2634   32.5751   47.7955 H   0  0  0  0  0  0  0  0  0  0  0  0
   56.0410   33.1794   45.7089 H   0  0  0  0  0  0  0  0  0  0  0  0
   57.1647   34.5442   43.9468 H   0  0  0  0  0  0  0  0  0  0  0  0
   59.5139   35.3180   44.2771 H   0  0  0  0  0  0  0  0  0  0  0  0
   60.7410   34.7398   46.3678 H   0  0  0  0  0  0  0  0  0  0  0  0
  1  2  1  0
  2  3  1  0
  3  4  2  0
  3  5  1  0
  5  6  2  0
  6  7  1  0
  7  8  2  0
  8  9  1  0
  9 10  2  0
 10 11  1  0
 11 12  1  0
 12 13  2  0
 12 14  1  0
 14 15  1  0
 15 16  1  0
 16 17  2  0
 17 18  1  0
 18 19  2  0
 19 20  1  0
 20 21  2  0
 15 22  1  0
 22 23  2  0
 23 24  1  0
 24 25  2  0
 25 26  1  0
 26 27  2  0
 10  5  1  0
 21 16  1  0
 27 22  1  0
  1 28  1  0
  1 29  1  0
  1 30  1  0
  6 31  1  0
  7 32  1  0
  8 33  1  0
  9 34  1  0
 15 35  1  0
 17 36  1  0
 18 37  1  0
 19 38  1  0
 20 39  1  0
 21 40  1  0
 23 41  1  0
 24 42  1  0
 25 43  1  0
 26 44  1  0
 27 45  1  0
M  CHG  3   2  -1  11  -1  14  -1
M  END
>  <UniqueID>  (81) 
78

>  <SMILES>  (81) 
C[N-]C(=O)c1ccccc1[N-]C(=O)[N-]C(c1ccccc1)c1ccccc1

>  <Energy>  (81) 
53.63008761268106

>  <Genealogy>  (81) 
C[N-]C(=O)c1ccccc1[N-]C(=O)[N-]C(c1ccccc1)c1ccccc1 (protonated)
C[N-]C(=O)c1ccccc1[N-]C(=O)[N-]C(c1ccccc1)c1ccccc1 (3D coordinates assigned)
C[N-]C(=O)c1ccccc1[N-]C(=O)[N-]C(c1ccccc1)c1ccccc1 (optimized conformer: 53.63008761268106 kcal/mol)

>  <smiles>  (81) 
CNC(=O)c1ccccc1NC(=O)NC(c1ccccc1)c1ccccc1

>  <score_type>  (81) 
oracle

>  <origin>  (81) 
adg

>  <m_score__min__energy>  (81) 
-13.41

>  <m_primary>  (81) 
energy

$$$$
81:0
     RDKit          3D

 37 38  0  0  1  0  0  0  0  0999 V2000
   59.2890   34.9370   45.5290 C   0  0  0  0  0  0  0  0  0  0  0  0
   59.5410   35.3140   46.8770 O   0  0  0  0  0  0  0  0  0  0  0  0
   59.6350   34.3150   47.8110 C   0  0  0  0  0  0  0  0  0  0  0  0
   59.7960   32.9800   47.5180 C   0  0  0  0  0  0  0  0  0  0  0  0
   59.8830   32.0260   48.5050 C   0  0  0  0  0  0  0  0  0  0  0  0
   60.0370   30.7670   48.2890 N   0  0  0  0  0  0  0  0  0  0  0  0
   60.6940   30.3130   47.0710 C   0  0  0  0  0  0  0  0  0  0  0  0
   61.8850   30.5170   46.8300 O   0  0  0  0  0  0  0  0  0  0  0  0
   59.7710   29.5890   46.1690 C   0  0  0  0  0  0  0  0  0  0  0  0
   60.1110   28.2710   45.9060 C   0  0  0  0  0  0  0  0  0  0  0  0
   59.2520   27.5340   45.0900 C   0  0  0  0  0  0  0  0  0  0  0  0
   58.1090   28.1040   44.5690 C   0  0  0  0  0  0  0  0  0  0  0  0
   57.8070   29.4310   44.8580 C   0  0  0  0  0  0  0  0  0  0  0  0
   56.3300   30.0710   44.1970 S   0  0  0  0  0  0  0  0  0  0  0  0
   56.2690   30.0040   42.4740 N   0  0  0  0  0  0  0  0  0  0  0  0
   55.1730   29.3590   44.8270 O   0  0  0  0  0  0  0  0  0  0  0  0
   56.2840   31.5600   44.5340 O   0  0  0  0  0  0  0  0  0  0  0  0
   58.6510   30.1740   45.6650 C   0  0  0  0  0  0  0  0  0  0  0  0
   59.8080   32.4110   49.7930 N   0  0  0  0  0  0  0  0  0  0  0  0
   59.6500   33.7170   50.0960 C   0  0  0  0  0  0  0  0  0  0  0  0
   59.5670   34.1800   51.4020 O   0  0  0  0  0  0  0  0  0  0  0  0
   58.6300   33.5890   52.2910 C   0  0  0  0  0  0  0  0  0  0  0  0
   59.5630   34.6730   49.1260 N   0  0  0  0  0  0  0  0  0  0  0  0
   58.6778   34.0226   45.5121 H   0  0  0  0  0  0  0  0  0  0  0  0
   58.7505   35.7475   45.0161 H   0  0  0  0  0  0  0  0  0  0  0  0
   60.2438   34.7493   45.0161 H   0  0  0  0  0  0  0  0  0  0  0  0
   59.8568   32.6672   46.4652 H   0  0  0  0  0  0  0  0  0  0  0  0
   61.0240   27.8229   46.3250 H   0  0  0  0  0  0  0  0  0  0  0  0
   59.4893   26.4850   44.8592 H   0  0  0  0  0  0  0  0  0  0  0  0
   57.4393   27.5120   43.9279 H   0  0  0  0  0  0  0  0  0  0  0  0
   57.1950   29.6500   42.1370 H   0  0  0  0  0  0  0  0  0  0  0  0
   55.5360   29.3050   42.2040 H   0  0  0  0  0  0  0  0  0  0  0  0
   58.4191   31.2242   45.8959 H   0  0  0  0  0  0  0  0  0  0  0  0
   58.9371   33.7827   53.3293 H   0  0  0  0  0  0  0  0  0  0  0  0
   57.6345   34.0230   52.1161 H   0  0  0  0  0  0  0  0  0  0  0  0
   58.5928   32.5036   52.1161 H   0  0  0  0  0  0  0  0  0  0  0  0
   59.4420   35.6590   49.3700 H   0  0  0  0  0  0  0  0  0  0  0  0
  1  2  1  0
  2  3  1  0
  3  4  2  0
  4  5  1  0
  5  6  2  0
  6  7  1  0
  7  8  2  0
  7  9  1  0
  9 10  2  0
 10 11  1  0
 11 12  2  0
 12 13  1  0
 13 14  1  0
 14 15  1  0
 14 16  2  0
 14 17  2  0
 13 18  2  0
  5 19  1  0
 19 20  2  0
 20 21  1  0
 21 22  1  0
 20 23  1  0
 23  3  1  0
 18  9  1  0
  1 24  1  0
  1 25  1  0
  1 26  1  0
  4 27  1  0
 10 28  1  0
 11 29  1  0
 12 30  1  0
 15 31  1  0
 15 32  1  0
 18 33  1  0
 22 34  1  0
 22 35  1  0
 22 36  1  0
 23 37  1  0
M  END
>  <smiles>  (82) 
COc1cc(=NC(=O)c2cccc(S(N)(=O)=O)c2)nc(OC)[nH]1

>  <score_type>  (82) 
oracle

>  <origin>  (82) 
adg

>  <m_score__min__energy>  (82) 
-8.4800000000000004

>  <m_primary>  (82) 
energy

$$$$
82:0
     RDKit          3D

 66 70  0  0  0  0  0  0  0  0999 V2000
   57.3850   31.6340   44.1570 C   0  0  0  0  0  0  0  0  0  0  0  0
   58.2470   31.0380   45.2330 C   0  0  0  0  0  0  0  0  0  0  0  0
   58.2870   31.6160   46.5130 C   0  0  0  0  0  0  0  0  0  0  0  0
   59.1490   31.1070   47.4950 C   0  0  0  0  0  0  0  0  0  0  0  0
   59.9990   30.0280   47.2010 C   0  0  0  0  0  0  0  0  0  0  0  0
   60.9320   29.5220   48.1710 N   0  0  0  0  0  0  0  0  0  0  0  0
   60.7600   28.2600   48.8230 C   0  0  0  0  0  0  0  0  0  0  0  0
   60.2060   27.3000   48.2220 O   0  0  0  0  0  0  0  0  0  0  0  0
   61.2350   28.1060   50.1630 N   0  0  0  0  0  0  0  0  0  0  0  0
   60.5410   28.4060   51.3850 C   0  0  0  0  0  0  0  0  0  0  0  0
   61.0540   28.0650   52.6520 C   0  0  0  0  0  0  0  0  0  0  0  0
   60.3210   28.3490   53.8080 C   0  0  0  0  0  0  0  0  0  0  0  0
   59.0540   28.9230   53.7120 C   0  0  0  0  0  0  0  0  0  0  0  0
   58.4980   29.1860   52.4530 C   0  0  0  0  0  0  0  0  0  0  0  0
   57.1630   29.7950   52.3530 C   0  0  0  0  0  0  0  0  0  0  0  0
   56.0950   28.9760   52.5450 N   0  0  0  0  0  0  0  0  0  0  0  0
   54.8200   29.4310   52.4770 C   0  0  0  0  0  0  0  0  0  0  0  0
   54.5890   30.7720   52.2030 C   0  0  0  0  0  0  0  0  0  0  0  0
   55.6420   31.6010   52.0070 N   0  0  0  0  0  0  0  0  0  0  0  0
   56.9350   31.1710   52.0670 C   0  0  0  0  0  0  0  0  0  0  0  0
   58.0180   32.2230   51.8470 C   0  0  0  0  0  0  0  0  0  0  0  0
   58.9390   32.3890   53.0670 C   0  0  0  0  0  0  0  0  0  0  0  0
   60.1120   33.3000   52.6950 C   0  0  0  0  0  0  0  0  0  0  0  0
   60.9820   32.6670   51.6860 N   0  0  0  0  0  0  0  0  0  0  0  0
   61.9950   33.8630   50.9180 S   0  0  0  0  0  0  0  0  0  0  0  0
   63.5560   33.8180   51.5240 O   0  0  0  0  0  0  0  0  0  0  0  0
   62.0120   33.7530   49.1640 C   0  0  0  0  0  0  0  0  0  0  0  0
   63.1080   33.1710   48.5180 C   0  0  0  0  0  0  0  0  0  0  0  0
   63.1290   33.0760   47.1230 C   0  0  0  0  0  0  0  0  0  0  0  0
   62.0500   33.5520   46.3710 C   0  0  0  0  0  0  0  0  0  0  0  0
   60.9460   34.1210   47.0140 C   0  0  0  0  0  0  0  0  0  0  0  0
   59.5730   34.6860   46.0770 Cl  0  0  0  0  0  0  0  0  0  0  0  0
   60.9280   34.2210   48.4100 C   0  0  0  0  0  0  0  0  0  0  0  0
   60.3000   31.7990   50.6970 C   0  0  0  0  0  0  0  0  0  0  0  0
   58.7950   32.0990   50.5130 C   0  0  0  0  0  0  0  0  0  0  0  0
   59.2680   28.9790   51.3000 C   0  0  0  0  0  0  0  0  0  0  0  0
   59.9370   29.4360   45.9290 C   0  0  0  0  0  0  0  0  0  0  0  0
   59.0810   29.9470   44.9460 C   0  0  0  0  0  0  0  0  0  0  0  0
   56.5635   32.2020   44.6179 H   0  0  0  0  0  0  0  0  0  0  0  0
   57.9909   32.3070   43.5325 H   0  0  0  0  0  0  0  0  0  0  0  0
   56.9693   30.8295   43.5325 H   0  0  0  0  0  0  0  0  0  0  0  0
   57.6381   32.4731   46.7463 H   0  0  0  0  0  0  0  0  0  0  0  0
   59.1596   31.5546   48.4998 H   0  0  0  0  0  0  0  0  0  0  0  0
   61.5360   30.2210   48.6600 H   0  0  0  0  0  0  0  0  0  0  0  0
   62.0348   27.5735   52.7320 H   0  0  0  0  0  0  0  0  0  0  0  0
   60.7452   28.1189   54.7965 H   0  0  0  0  0  0  0  0  0  0  0  0
   58.4910   29.1693   54.6244 H   0  0  0  0  0  0  0  0  0  0  0  0
   53.9761   28.7439   52.6375 H   0  0  0  0  0  0  0  0  0  0  0  0
   53.5605   31.1578   52.1456 H   0  0  0  0  0  0  0  0  0  0  0  0
   57.4612   33.1654   51.7383 H   0  0  0  0  0  0  0  0  0  0  0  0
   58.3731   32.8386   53.8962 H   0  0  0  0  0  0  0  0  0  0  0  0
   59.3205   31.4051   53.3774 H   0  0  0  0  0  0  0  0  0  0  0  0
   59.7184   34.2431   52.2880 H   0  0  0  0  0  0  0  0  0  0  0  0
   60.7083   33.4862   53.6004 H   0  0  0  0  0  0  0  0  0  0  0  0
   63.5290   33.1410   52.2410 H   0  0  0  0  0  0  0  0  0  0  0  0
   63.9538   32.7879   49.1078 H   0  0  0  0  0  0  0  0  0  0  0  0
   63.9955   32.6262   46.6162 H   0  0  0  0  0  0  0  0  0  0  0  0
   62.0697   33.4788   45.2736 H   0  0  0  0  0  0  0  0  0  0  0  0
   60.0601   34.6684   48.9166 H   0  0  0  0  0  0  0  0  0  0  0  0
   60.7978   31.9286   49.7247 H   0  0  0  0  0  0  0  0  0  0  0  0
   60.3699   30.7708   51.0815 H   0  0  0  0  0  0  0  0  0  0  0  0
   58.6943   33.0463   49.9629 H   0  0  0  0  0  0  0  0  0  0  0  0
   58.3619   31.2485   49.9662 H   0  0  0  0  0  0  0  0  0  0  0  0
   58.8668   29.2703   50.3181 H   0  0  0  0  0  0  0  0  0  0  0  0
   60.5667   28.5629   45.7030 H   0  0  0  0  0  0  0  0  0  0  0  0
   59.0623   29.4914   43.9450 H   0  0  0  0  0  0  0  0  0  0  0  0
  1  2  1  0
  2  3  2  0
  3  4  1  0
  4  5  2  0
  5  6  1  0
  6  7  1  0
  7  8  2  0
  7  9  1  0
  9 10  1  0
 10 11  2  0
 11 12  1  0
 12 13  2  0
 13 14  1  0
 14 15  1  0
 15 16  2  0
 16 17  1  0
 17 18  2  0
 18 19  1  0
 19 20  2  0
 20 21  1  0
 21 22  1  0
 22 23  1  0
 23 24  1  0
 24 25  1  0
 25 26  1  1
 25 27  1  0
 27 28  2  0
 28 29  1  0
 29 30  2  0
 30 31  1  0
 31 32  1  0
 31 33  2  0
 24 34  1  0
 34 35  1  0
 14 36  2  0
  5 37  1  0
 37 38  2  0
 38  2  1  0
 36 10  1  0
 20 15  1  0
 35 21  1  0
 33 27  1  0
  1 39  1  0
  1 40  1  0
  1 41  1  0
  3 42  1  0
  4 43  1  0
  6 44  1  0
 11 45  1  0
 12 46  1  0
 13 47  1  0
 17 48  1  0
 18 49  1  0
 21 50  1  0
 22 51  1  0
 22 52  1  0
 23 53  1  0
 23 54  1  0
 26 55  1  0
 28 56  1  0
 29 57  1  0
 30 58  1  0
 33 59  1  0
 34 60  1  0
 34 61  1  0
 35 62  1  0
 35 63  1  0
 36 64  1  0
 37 65  1  0
 38 66  1  0
M  CHG  2   9  -1  25   1
M  END
>  <UniqueID>  (83) 
79

>  <SMILES>  (83) 
Cc1ccc(NC(=O)[N-]c2cccc(-c3nccnc3C3CCN([S@@+](O)c4cccc(Cl)c4)CC3)c2)cc1

>  <Energy>  (83) 
98.76882761049978

>  <Genealogy>  (83) 
Cc1ccc(NC(=O)[N-]c2cccc(-c3nccnc3C3CCN([S+](O)c4cccc(Cl)c4)CC3)c2)cc1 (protonated)
Cc1ccc(NC(=O)[N-]c2cccc(-c3nccnc3C3CCN([S@@+](O)c4cccc(Cl)c4)CC3)c2)cc1 (chirality)
Cc1ccc(NC(=O)[N-]c2cccc(-c3nccnc3C3CCN([S@@+](O)c4cccc(Cl)c4)CC3)c2)cc1 (3D coordinates assigned)
Cc1ccc(NC(=O)[N-]c2cccc(-c3nccnc3C3CCN([S@@+](O)c4cccc(Cl)c4)CC3)c2)cc1 (nonaromatic ring conformer: 98.76882761049978 kcal/mol)

>  <smiles>  (83) 
Cc1ccc(NC(=O)Nc2cccc(-c3nccnc3C3CCN([S+]([O-])c4cccc(Cl)c4)CC3)c2)cc1

>  <score_type>  (83) 
oracle

>  <origin>  (83) 
adg

>  <m_score__min__energy>  (83) 
-11.130000000000001

>  <m_primary>  (83) 
energy

$$$$
83:0
     RDKit          3D

 64 67  0  0  0  0  0  0  0  0999 V2000
   58.0390   26.7120   46.5690 C   0  0  0  0  0  0  0  0  0  0  0  0
   59.2720   26.5520   47.4520 C   0  0  0  0  0  0  0  0  0  0  0  0
   59.5170   27.8020   48.2560 C   0  0  0  0  0  0  0  0  0  0  0  0
   58.5400   28.8070   48.3200 C   0  0  0  0  0  0  0  0  0  0  0  0
   58.7930   29.9920   49.0120 C   0  0  0  0  0  0  0  0  0  0  0  0
   60.0350   30.2020   49.6370 C   0  0  0  0  0  0  0  0  0  0  0  0
   60.3140   31.4670   50.3570 C   0  0  0  0  0  0  0  0  0  0  0  0
   59.5910   31.8040   51.3340 O   0  0  0  0  0  0  0  0  0  0  0  0
   61.3990   32.3740   49.9310 C   0  0  0  0  0  0  0  0  0  0  0  0
   61.1860   33.4790   49.1100 C   0  0  0  0  0  0  0  0  0  0  0  0
   59.9320   33.7920   48.4910 N   0  0  0  0  0  0  0  0  0  0  0  0
   59.6430   33.6410   47.0980 C   0  0  0  0  0  0  0  0  0  0  0  0
   59.7270   34.6550   46.3560 O   0  0  0  0  0  0  0  0  0  0  0  0
   59.3250   32.3190   46.5020 C   0  0  0  0  0  0  0  0  0  0  0  0
   60.3280   31.3370   46.4460 C   0  0  0  0  0  0  0  0  0  0  0  0
   60.0830   30.1080   45.8400 C   0  0  0  0  0  0  0  0  0  0  0  0
   58.8350   29.8370   45.2870 C   0  0  0  0  0  0  0  0  0  0  0  0
   57.8060   30.7970   45.3330 C   0  0  0  0  0  0  0  0  0  0  0  0
   56.5340   30.5210   44.8120 O   0  0  0  0  0  0  0  0  0  0  0  0
   56.2750   30.0950   43.4770 C   0  0  0  0  0  0  0  0  0  0  0  0
   58.0560   32.0560   45.9390 C   0  0  0  0  0  0  0  0  0  0  0  0
   57.0680   33.0520   46.0290 O   0  0  0  0  0  0  0  0  0  0  0  0
   57.0170   34.2200   45.2100 C   0  0  0  0  0  0  0  0  0  0  0  0
   62.6690   34.2050   48.7480 S   0  0  0  0  0  0  0  0  0  0  0  0
   63.5890   33.1300   49.6580 C   0  0  0  0  0  0  0  0  0  0  0  0
   62.7570   32.1990   50.2630 C   0  0  0  0  0  0  0  0  0  0  0  0
   63.3190   31.0900   51.1100 C   0  0  0  0  0  0  0  0  0  0  0  0
   64.7770   31.3910   51.5180 C   0  0  0  0  0  0  0  0  0  0  0  0
   65.5730   31.8670   50.3580 N   0  0  2  0  0  0  0  0  0  0  0  0
   67.0120   31.9740   50.6980 C   0  0  0  0  0  0  0  0  0  0  0  0
   67.5550   33.3960   50.5020 C   0  0  0  0  0  0  0  0  0  0  0  0
   65.0680   33.1800   49.8810 C   0  0  0  0  0  0  0  0  0  0  0  0
   61.0090   29.1900   49.5810 C   0  0  0  0  0  0  0  0  0  0  0  0
   60.7520   28.0030   48.8890 C   0  0  0  0  0  0  0  0  0  0  0  0
   57.1470   26.8277   47.2022 H   0  0  0  0  0  0  0  0  0  0  0  0
   58.1559   27.6025   45.9339 H   0  0  0  0  0  0  0  0  0  0  0  0
   57.9247   25.8212   45.9339 H   0  0  0  0  0  0  0  0  0  0  0  0
   59.1176   25.7060   48.1379 H   0  0  0  0  0  0  0  0  0  0  0  0
   60.1456   26.3679   46.8095 H   0  0  0  0  0  0  0  0  0  0  0  0
   57.5701   28.6601   47.8223 H   0  0  0  0  0  0  0  0  0  0  0  0
   58.0151   30.7676   49.0690 H   0  0  0  0  0  0  0  0  0  0  0  0
   61.3158   31.5411   46.8849 H   0  0  0  0  0  0  0  0  0  0  0  0
   60.8780   29.3489   45.7981 H   0  0  0  0  0  0  0  0  0  0  0  0
   58.6507   28.8634   44.8093 H   0  0  0  0  0  0  0  0  0  0  0  0
   55.7036   29.1552   43.4963 H   0  0  0  0  0  0  0  0  0  0  0  0
   55.6933   30.8671   42.9521 H   0  0  0  0  0  0  0  0  0  0  0  0
   57.2282   29.9339   42.9521 H   0  0  0  0  0  0  0  0  0  0  0  0
   56.9779   35.1145   45.8490 H   0  0  0  0  0  0  0  0  0  0  0  0
   57.9142   34.2620   44.5749 H   0  0  0  0  0  0  0  0  0  0  0  0
   56.1196   34.1836   44.5749 H   0  0  0  0  0  0  0  0  0  0  0  0
   62.7060   30.9841   52.0172 H   0  0  0  0  0  0  0  0  0  0  0  0
   63.3038   30.1591   50.5242 H   0  0  0  0  0  0  0  0  0  0  0  0
   64.7784   32.1678   52.2968 H   0  0  0  0  0  0  0  0  0  0  0  0
   65.2316   30.4628   51.8945 H   0  0  0  0  0  0  0  0  0  0  0  0
   65.4640   31.1840   49.5700 H   0  0  0  0  0  0  0  0  0  0  0  0
   67.1487   31.6856   51.7507 H   0  0  0  0  0  0  0  0  0  0  0  0
   67.5670   31.3068   50.0221 H   0  0  0  0  0  0  0  0  0  0  0  0
   67.7320   33.8595   51.4838 H   0  0  0  0  0  0  0  0  0  0  0  0
   68.5002   33.3535   49.9409 H   0  0  0  0  0  0  0  0  0  0  0  0
   66.8221   33.9943   49.9409 H   0  0  0  0  0  0  0  0  0  0  0  0
   65.2935   33.9488   50.6347 H   0  0  0  0  0  0  0  0  0  0  0  0
   65.5608   33.4228   48.9280 H   0  0  0  0  0  0  0  0  0  0  0  0
   61.9770   29.3327   50.0836 H   0  0  0  0  0  0  0  0  0  0  0  0
   61.5241   27.2210   48.8406 H   0  0  0  0  0  0  0  0  0  0  0  0
  1  2  1  0
  2  3  1  0
  3  4  2  0
  4  5  1  0
  5  6  2  0
  6  7  1  0
  7  8  2  0
  7  9  1  0
  9 10  2  0
 10 11  1  0
 11 12  1  0
 12 13  2  0
 12 14  1  0
 14 15  2  0
 15 16  1  0
 16 17  2  0
 17 18  1  0
 18 19  1  0
 19 20  1  0
 18 21  2  0
 21 22  1  0
 22 23  1  0
 10 24  1  0
 24 25  1  0
 25 26  2  0
 26 27  1  0
 27 28  1  0
 28 29  1  0
 29 30  1  0
 30 31  1  0
 29 32  1  0
  6 33  1  0
 33 34  2  0
 34  3  1  0
 26  9  1  0
 21 14  1  0
 32 25  1  0
  1 35  1  0
  1 36  1  0
  1 37  1  0
  2 38  1  0
  2 39  1  0
  4 40  1  0
  5 41  1  0
 15 42  1  0
 16 43  1  0
 17 44  1  0
 20 45  1  0
 20 46  1  0
 20 47  1  0
 23 48  1  0
 23 49  1  0
 23 50  1  0
 27 51  1  0
 27 52  1  0
 28 53  1  0
 28 54  1  0
 29 55  1  6
 30 56  1  0
 30 57  1  0
 31 58  1  0
 31 59  1  0
 31 60  1  0
 32 61  1  0
 32 62  1  0
 33 63  1  0
 34 64  1  0
M  CHG  2  11  -1  29   1
M  END
>  <UniqueID>  (84) 
80

>  <SMILES>  (84) 
CCc1ccc(C(=O)c2c([N-]C(=O)c3cccc(OC)c3OC)sc3c2CC[N@H+](CC)C3)cc1

>  <Energy>  (84) 
111.31842508682071

>  <Genealogy>  (84) 
CCc1ccc(C(=O)c2c([N-]C(=O)c3cccc(OC)c3OC)sc3c2CC[NH+](CC)C3)cc1 (protonated)
CCc1ccc(C(=O)c2c([N-]C(=O)c3cccc(OC)c3OC)sc3c2CC[N@H+](CC)C3)cc1 (chirality)
CCc1ccc(C(=O)c2c([N-]C(=O)c3cccc(OC)c3OC)sc3c2CC[N@H+](CC)C3)cc1 (3D coordinates assigned)
CCc1ccc(C(=O)c2c([N-]C(=O)c3cccc(OC)c3OC)sc3c2CC[N@H+](CC)C3)cc1 (nonaromatic ring conformer: 111.31842508682071 kcal/mol)

>  <smiles>  (84) 
CCc1ccc(C(=O)c2c(NC(=O)c3cccc(OC)c3OC)sc3c2CCN(CC)C3)cc1

>  <score_type>  (84) 
oracle

>  <origin>  (84) 
adg

>  <m_score__min__energy>  (84) 
-8.1999999999999993

>  <m_primary>  (84) 
energy

$$$$
84:0
     RDKit          3D

 45 47  0  0  0  0  0  0  0  0999 V2000
   59.6690   33.8520   49.9440 C   0  0  0  0  0  0  0  0  0  0  0  0
   60.7160   33.8430   48.8630 C   0  0  0  0  0  0  0  0  0  0  0  0
   62.0440   33.5210   49.1950 C   0  0  0  0  0  0  0  0  0  0  0  0
   63.0330   33.4870   48.2120 C   0  0  0  0  0  0  0  0  0  0  0  0
   62.7130   33.7840   46.8880 C   0  0  0  0  0  0  0  0  0  0  0  0
   63.6770   33.7550   45.9340 F   0  0  0  0  0  0  0  0  0  0  0  0
   61.4010   34.1170   46.5420 C   0  0  0  0  0  0  0  0  0  0  0  0
   60.3870   34.1480   47.5190 C   0  0  0  0  0  0  0  0  0  0  0  0
   59.0380   34.4950   47.1530 N   0  0  0  0  0  0  0  0  0  0  0  0
   58.3370   34.0570   45.6270 S   0  0  0  0  0  0  0  0  0  0  0  0
   59.0820   34.7560   44.5240 O   0  0  0  0  0  0  0  0  0  0  0  0
   56.8980   34.4890   45.5980 O   0  0  0  0  0  0  0  0  0  0  0  0
   58.4050   32.3100   45.4200 C   0  0  0  0  0  0  0  0  0  0  0  0
   57.7030   31.7090   44.3690 C   0  0  0  0  0  0  0  0  0  0  0  0
   57.7240   30.3200   44.2110 C   0  0  0  0  0  0  0  0  0  0  0  0
   58.4540   29.5160   45.1010 C   0  0  0  0  0  0  0  0  0  0  0  0
   58.4790   28.0880   44.9450 N   0  0  0  0  0  0  0  0  0  0  0  0
   58.6640   27.4740   43.6280 C   0  0  0  0  0  0  0  0  0  0  0  0
   57.7880   26.2140   43.4390 C   0  0  0  0  0  0  0  0  0  0  0  0
   57.5200   25.3690   44.7070 C   0  0  0  0  0  0  0  0  0  0  0  0
   58.6510   25.4150   45.7340 C   0  0  0  0  0  0  0  0  0  0  0  0
   58.8000   27.0850   46.3190 S   0  0  0  0  0  0  0  0  0  0  0  0
   60.1870   27.3360   46.8370 O   0  0  0  0  0  0  0  0  0  0  0  0
   57.7890   27.3290   47.4040 O   0  0  0  0  0  0  0  0  0  0  0  0
   59.1610   30.1240   46.1510 C   0  0  0  0  0  0  0  0  0  0  0  0
   59.1370   31.5130   46.3090 C   0  0  0  0  0  0  0  0  0  0  0  0
   60.1588   33.8478   50.9289 H   0  0  0  0  0  0  0  0  0  0  0  0
   59.0492   34.7555   49.8466 H   0  0  0  0  0  0  0  0  0  0  0  0
   59.0337   32.9593   49.8466 H   0  0  0  0  0  0  0  0  0  0  0  0
   62.3052   33.2939   50.2391 H   0  0  0  0  0  0  0  0  0  0  0  0
   64.0668   33.2255   48.4818 H   0  0  0  0  0  0  0  0  0  0  0  0
   61.1576   34.3573   45.4965 H   0  0  0  0  0  0  0  0  0  0  0  0
   58.3970   34.9220   47.8570 H   0  0  0  0  0  0  0  0  0  0  0  0
   57.1324   32.3319   43.6644 H   0  0  0  0  0  0  0  0  0  0  0  0
   57.1658   29.8547   43.3852 H   0  0  0  0  0  0  0  0  0  0  0  0
   58.3975   28.2093   42.8545 H   0  0  0  0  0  0  0  0  0  0  0  0
   59.7170   27.1670   43.5451 H   0  0  0  0  0  0  0  0  0  0  0  0
   56.8153   26.5387   43.0409 H   0  0  0  0  0  0  0  0  0  0  0  0
   58.3587   25.5584   42.7648 H   0  0  0  0  0  0  0  0  0  0  0  0
   56.6029   25.7437   45.1851 H   0  0  0  0  0  0  0  0  0  0  0  0
   57.4293   24.3228   44.3795 H   0  0  0  0  0  0  0  0  0  0  0  0
   58.4182   24.7451   46.5748 H   0  0  0  0  0  0  0  0  0  0  0  0
   59.5953   25.0871   45.2749 H   0  0  0  0  0  0  0  0  0  0  0  0
   59.7371   29.5037   46.8534 H   0  0  0  0  0  0  0  0  0  0  0  0
   59.6945   31.9810   47.1337 H   0  0  0  0  0  0  0  0  0  0  0  0
  1  2  1  0
  2  3  2  0
  3  4  1  0
  4  5  2  0
  5  6  1  0
  5  7  1  0
  7  8  2  0
  8  9  1  0
  9 10  1  0
 10 11  2  0
 10 12  2  0
 10 13  1  0
 13 14  2  0
 14 15  1  0
 15 16  2  0
 16 17  1  0
 17 18  1  0
 18 19  1  0
 19 20  1  0
 20 21  1  0
 21 22  1  0
 22 23  2  0
 22 24  2  0
 16 25  1  0
 25 26  2  0
  8  2  1  0
 26 13  1  0
 22 17  1  0
  1 27  1  0
  1 28  1  0
  1 29  1  0
  3 30  1  0
  4 31  1  0
  7 32  1  0
  9 33  1  0
 14 34  1  0
 15 35  1  0
 18 36  1  0
 18 37  1  0
 19 38  1  0
 19 39  1  0
 20 40  1  0
 20 41  1  0
 21 42  1  0
 21 43  1  0
 25 44  1  0
 26 45  1  0
M  END
>  <UniqueID>  (85) 
81

>  <SMILES>  (85) 
Cc1ccc(F)cc1NS(=O)(=O)c1ccc(N2CCCCS2(=O)=O)cc1

>  <Energy>  (85) 
55.9266822033371

>  <Genealogy>  (85) 
Cc1ccc(F)cc1NS(=O)(=O)c1ccc(N2CCCCS2(=O)=O)cc1 (3D coordinates assigned)
Cc1ccc(F)cc1NS(=O)(=O)c1ccc(N2CCCCS2(=O)=O)cc1 (nonaromatic ring conformer: 55.9266822033371 kcal/mol)

>  <smiles>  (85) 
Cc1ccc(F)cc1NS(=O)(=O)c1ccc(N2CCCCS2(=O)=O)cc1

>  <score_type>  (85) 
oracle

>  <origin>  (85) 
adg

>  <m_score__min__energy>  (85) 
-9.2599999999999998

>  <m_primary>  (85) 
energy

$$$$
85:0
     RDKit          3D

 61 64  0  0  0  0  0  0  0  0999 V2000
   64.2520   31.9820   49.8610 C   0  0  0  0  0  0  0  0  0  0  0  0
   63.5320   32.5250   48.6550 C   0  0  0  0  0  0  0  0  0  0  0  0
   64.1300   33.5620   47.9150 C   0  0  0  0  0  0  0  0  0  0  0  0
   63.5030   34.0800   46.7800 C   0  0  0  0  0  0  0  0  0  0  0  0
   62.2740   33.5690   46.3680 C   0  0  0  0  0  0  0  0  0  0  0  0
   61.6660   32.5390   47.0850 C   0  0  0  0  0  0  0  0  0  0  0  0
   62.2810   32.0000   48.2320 C   0  0  0  0  0  0  0  0  0  0  0  0
   61.5980   30.8580   48.9570 C   0  0  0  0  0  0  0  0  0  0  0  0
   60.4750   31.3540   49.8520 C   0  0  0  0  0  0  0  0  0  0  0  0
   60.7710   32.3310   50.8230 C   0  0  0  0  0  0  0  0  0  0  0  0
   59.7680   32.8550   51.6380 C   0  0  0  0  0  0  0  0  0  0  0  0
   58.4550   32.4050   51.5070 C   0  0  0  0  0  0  0  0  0  0  0  0
   58.1430   31.4200   50.5710 C   0  0  0  0  0  0  0  0  0  0  0  0
   59.1420   30.8720   49.7510 C   0  0  0  0  0  0  0  0  0  0  0  0
   58.7650   29.7890   48.8210 C   0  0  0  0  0  0  0  0  0  0  0  0
   58.8630   28.5880   49.1960 O   0  0  0  0  0  0  0  0  0  0  0  0
   58.2390   30.1040   47.5230 N   0  0  0  0  0  0  0  0  0  0  0  0
   58.1610   29.1610   46.4390 C   0  0  0  0  0  0  0  0  0  0  0  0
   57.7680   27.8310   46.6710 C   0  0  0  0  0  0  0  0  0  0  0  0
   57.7420   26.8980   45.6250 C   0  0  0  0  0  0  0  0  0  0  0  0
   57.3590   25.4680   45.8990 C   0  0  0  0  0  0  0  0  0  0  0  0
   55.9290   25.3830   46.3300 C   0  0  0  0  0  0  0  0  0  0  0  0
   55.5230   24.3860   46.9870 O   0  0  0  0  0  0  0  0  0  0  0  0
   55.0420   26.4000   46.0090 O   0  0  0  0  0  0  0  0  0  0  0  0
   58.1360   27.2920   44.3420 C   0  0  0  0  0  0  0  0  0  0  0  0
   58.5380   28.6080   44.1010 C   0  0  0  0  0  0  0  0  0  0  0  0
   58.5590   29.5520   45.1460 C   0  0  0  0  0  0  0  0  0  0  0  0
   58.9560   30.8850   44.9390 O   0  0  0  0  0  0  0  0  0  0  0  0
   58.0770   31.9990   44.7890 C   0  0  0  0  0  0  0  0  0  0  0  0
   58.5650   33.1710   45.6000 C   0  0  0  0  0  0  0  0  0  0  0  0
   58.4700   33.1620   47.0020 C   0  0  0  0  0  0  0  0  0  0  0  0
   58.9270   34.2550   47.7450 C   0  0  0  0  0  0  0  0  0  0  0  0
   59.4930   35.3570   47.0940 C   0  0  0  0  0  0  0  0  0  0  0  0
   59.6000   35.3680   45.7010 C   0  0  0  0  0  0  0  0  0  0  0  0
   59.1380   34.2790   44.9540 C   0  0  0  0  0  0  0  0  0  0  0  0
   63.7642   32.3499   50.7757 H   0  0  0  0  0  0  0  0  0  0  0  0
   64.2181   30.8827   49.8441 H   0  0  0  0  0  0  0  0  0  0  0  0
   65.2997   32.3168   49.8441 H   0  0  0  0  0  0  0  0  0  0  0  0
   65.1011   33.9685   48.2339 H   0  0  0  0  0  0  0  0  0  0  0  0
   63.9795   34.8918   46.2109 H   0  0  0  0  0  0  0  0  0  0  0  0
   61.7816   33.9795   45.4741 H   0  0  0  0  0  0  0  0  0  0  0  0
   60.6955   32.1431   46.7512 H   0  0  0  0  0  0  0  0  0  0  0  0
   61.1811   30.1622   48.2139 H   0  0  0  0  0  0  0  0  0  0  0  0
   62.3454   30.3568   49.5895 H   0  0  0  0  0  0  0  0  0  0  0  0
   61.8060   32.6848   50.9397 H   0  0  0  0  0  0  0  0  0  0  0  0
   60.0131   33.6243   52.3851 H   0  0  0  0  0  0  0  0  0  0  0  0
   57.6637   32.8279   52.1434 H   0  0  0  0  0  0  0  0  0  0  0  0
   57.1050   31.0692   50.4742 H   0  0  0  0  0  0  0  0  0  0  0  0
   57.9080   31.0810   47.3510 H   0  0  0  0  0  0  0  0  0  0  0  0
   57.4776   27.5190   47.6851 H   0  0  0  0  0  0  0  0  0  0  0  0
   57.4972   24.8742   44.9834 H   0  0  0  0  0  0  0  0  0  0  0  0
   57.9976   25.0763   46.7044 H   0  0  0  0  0  0  0  0  0  0  0  0
   58.1293   26.5622   43.5190 H   0  0  0  0  0  0  0  0  0  0  0  0
   58.8405   28.9093   43.0872 H   0  0  0  0  0  0  0  0  0  0  0  0
   58.0346   32.2860   43.7279 H   0  0  0  0  0  0  0  0  0  0  0  0
   57.0766   31.7125   45.1454 H   0  0  0  0  0  0  0  0  0  0  0  0
   58.0349   32.2926   47.5166 H   0  0  0  0  0  0  0  0  0  0  0  0
   58.8416   34.2486   48.8417 H   0  0  0  0  0  0  0  0  0  0  0  0
   59.8540   36.2153   47.6796 H   0  0  0  0  0  0  0  0  0  0  0  0
   60.0479   36.2337   45.1911 H   0  0  0  0  0  0  0  0  0  0  0  0
   59.2237   34.2904   43.8574 H   0  0  0  0  0  0  0  0  0  0  0  0
  1  2  1  0
  2  3  2  0
  3  4  1  0
  4  5  2  0
  5  6  1  0
  6  7  2  0
  7  8  1  0
  8  9  1  0
  9 10  2  0
 10 11  1  0
 11 12  2  0
 12 13  1  0
 13 14  2  0
 14 15  1  0
 15 16  2  0
 15 17  1  0
 17 18  1  0
 18 19  2  0
 19 20  1  0
 20 21  1  0
 21 22  1  0
 22 23  2  0
 22 24  1  0
 20 25  2  0
 25 26  1  0
 26 27  2  0
 27 28  1  0
 28 29  1  0
 29 30  1  0
 30 31  2  0
 31 32  1  0
 32 33  2  0
 33 34  1  0
 34 35  2  0
  7  2  1  0
 14  9  1  0
 27 18  1  0
 35 30  1  0
  1 36  1  0
  1 37  1  0
  1 38  1  0
  3 39  1  0
  4 40  1  0
  5 41  1  0
  6 42  1  0
  8 43  1  0
  8 44  1  0
 10 45  1  0
 11 46  1  0
 12 47  1  0
 13 48  1  0
 17 49  1  0
 19 50  1  0
 21 51  1  0
 21 52  1  0
 25 53  1  0
 26 54  1  0
 29 55  1  0
 29 56  1  0
 31 57  1  0
 32 58  1  0
 33 59  1  0
 34 60  1  0
 35 61  1  0
M  CHG  1  24  -1
M  END
>  <UniqueID>  (86) 
82

>  <SMILES>  (86) 
Cc1ccccc1Cc1ccccc1C(=O)Nc1cc(CC(=O)[O-])ccc1OCc1ccccc1

>  <Energy>  (86) 
73.77222400335954

>  <Genealogy>  (86) 
Cc1ccccc1Cc1ccccc1C(=O)Nc1cc(CC(=O)[O-])ccc1OCc1ccccc1 (protonated)
Cc1ccccc1Cc1ccccc1C(=O)Nc1cc(CC(=O)[O-])ccc1OCc1ccccc1 (3D coordinates assigned)
Cc1ccccc1Cc1ccccc1C(=O)Nc1cc(CC(=O)[O-])ccc1OCc1ccccc1 (optimized conformer: 73.77222400335954 kcal/mol)

>  <smiles>  (86) 
Cc1ccccc1Cc1ccccc1C(=O)Nc1cc(CC(=O)O)ccc1OCc1ccccc1

>  <score_type>  (86) 
oracle

>  <origin>  (86) 
adg

>  <m_score__min__energy>  (86) 
-12.720000000000001

>  <m_primary>  (86) 
energy

$$$$
86:0
     RDKit          3D

 28 29  0  0  0  0  0  0  0  0999 V2000
   63.8730   32.9610   46.8870 N   0  0  0  0  0  0  0  0  0  0  0  0
   62.7360   32.1280   47.1290 C   0  0  0  0  0  0  0  0  0  0  0  0
   62.9020   30.8830   47.2220 O   0  0  0  0  0  0  0  0  0  0  0  0
   61.3790   32.7140   47.2620 C   0  0  0  0  0  0  0  0  0  0  0  0
   61.2470   34.0360   47.7290 C   0  0  0  0  0  0  0  0  0  0  0  0
   59.9850   34.6120   47.8920 C   0  0  0  0  0  0  0  0  0  0  0  0
   58.8370   33.8800   47.5940 C   0  0  0  0  0  0  0  0  0  0  0  0
   58.9470   32.5700   47.1270 C   0  0  0  0  0  0  0  0  0  0  0  0
   60.2080   31.9740   46.9580 C   0  0  0  0  0  0  0  0  0  0  0  0
   60.2830   30.6220   46.4820 N   0  0  0  0  0  0  0  0  0  0  0  0
   59.1240   29.8030   46.2410 C   0  0  0  0  0  0  0  0  0  0  0  0
   58.0630   30.2530   45.4340 C   0  0  0  0  0  0  0  0  0  0  0  0
   56.9420   29.4460   45.2240 C   0  0  0  0  0  0  0  0  0  0  0  0
   55.5200   30.0870   44.1150 Br  0  0  0  0  0  0  0  0  0  0  0  0
   56.8620   28.1850   45.8280 C   0  0  0  0  0  0  0  0  0  0  0  0
   55.7460   27.3810   45.6200 O   0  0  0  0  0  0  0  0  0  0  0  0
   57.9080   27.7350   46.6460 C   0  0  0  0  0  0  0  0  0  0  0  0
   57.8200   26.0190   47.4870 Br  0  0  0  0  0  0  0  0  0  0  0  0
   59.0300   28.5440   46.8530 C   0  0  0  0  0  0  0  0  0  0  0  0
   63.7980   34.0020   46.9070 H   0  0  0  0  0  0  0  0  0  0  0  0
   64.8150   32.5320   46.7490 H   0  0  0  0  0  0  0  0  0  0  0  0
   62.1473   34.6212   47.9679 H   0  0  0  0  0  0  0  0  0  0  0  0
   59.8970   35.6461   48.2565 H   0  0  0  0  0  0  0  0  0  0  0  0
   57.8444   34.3351   47.7270 H   0  0  0  0  0  0  0  0  0  0  0  0
   58.0379   31.9983   46.8889 H   0  0  0  0  0  0  0  0  0  0  0  0
   61.2200   30.2550   46.2030 H   0  0  0  0  0  0  0  0  0  0  0  0
   58.1164   31.2467   44.9653 H   0  0  0  0  0  0  0  0  0  0  0  0
   59.8455   28.1902   47.5010 H   0  0  0  0  0  0  0  0  0  0  0  0
  1  2  1  0
  2  3  2  0
  2  4  1  0
  4  5  2  0
  5  6  1  0
  6  7  2  0
  7  8  1  0
  8  9  2  0
  9 10  1  0
 10 11  1  0
 11 12  2  0
 12 13  1  0
 13 14  1  0
 13 15  2  0
 15 16  1  0
 15 17  1  0
 17 18  1  0
 17 19  2  0
  9  4  1  0
 19 11  1  0
  1 20  1  0
  1 21  1  0
  5 22  1  0
  6 23  1  0
  7 24  1  0
  8 25  1  0
 10 26  1  0
 12 27  1  0
 19 28  1  0
M  CHG  1  16  -1
M  END
>  <UniqueID>  (87) 
83

>  <SMILES>  (87) 
NC(=O)c1ccccc1Nc1cc(Br)c([O-])c(Br)c1

>  <Energy>  (87) 
39.8110442661476

>  <Genealogy>  (87) 
NC(=O)c1ccccc1Nc1cc(Br)c([O-])c(Br)c1 (protonated)
NC(=O)c1ccccc1Nc1cc(Br)c([O-])c(Br)c1 (3D coordinates assigned)
NC(=O)c1ccccc1Nc1cc(Br)c([O-])c(Br)c1 (optimized conformer: 39.8110442661476 kcal/mol)

>  <smiles>  (87) 
NC(=O)c1ccccc1Nc1cc(Br)c(O)c(Br)c1

>  <score_type>  (87) 
oracle

>  <origin>  (87) 
adg

>  <m_score__min__energy>  (87) 
-9.5399999999999991

>  <m_primary>  (87) 
energy

$$$$
87:0
     RDKit          3D

 31 33  0  0  0  0  0  0  0  0999 V2000
   56.6196   30.8513   42.0411 H   0  0  0  0  0  0  0  0  0  0  0  0
   56.8240   30.6070   43.0940 C   0  0  0  0  0  0  0  0  0  0  0  0
   56.5570   29.3550   43.4990 C   0  0  0  0  0  0  0  0  0  0  0  0
   55.6711   28.8610   43.0734 H   0  0  0  0  0  0  0  0  0  0  0  0
   57.3640   28.5900   44.4740 C   0  0  0  0  0  0  0  0  0  0  0  0
   57.4310   29.0210   45.8110 C   0  0  0  0  0  0  0  0  0  0  0  0
   56.8564   29.9035   46.1288 H   0  0  0  0  0  0  0  0  0  0  0  0
   58.2200   28.3390   46.7380 C   0  0  0  0  0  0  0  0  0  0  0  0
   58.2523   28.6754   47.7848 H   0  0  0  0  0  0  0  0  0  0  0  0
   58.9680   27.2310   46.3390 C   0  0  0  0  0  0  0  0  0  0  0  0
   59.5874   26.6933   47.0719 H   0  0  0  0  0  0  0  0  0  0  0  0
   58.9310   26.8040   45.0100 C   0  0  0  0  0  0  0  0  0  0  0  0
   59.5303   25.9356   44.6992 H   0  0  0  0  0  0  0  0  0  0  0  0
   58.1340   27.4750   44.0660 C   0  0  0  0  0  0  0  0  0  0  0  0
   58.1180   26.9990   42.6370 C   0  0  0  0  0  0  0  0  0  0  0  0
   58.0811   25.8998   42.6171 H   0  0  0  0  0  0  0  0  0  0  0  0
   57.2330   27.4050   42.1252 H   0  0  0  0  0  0  0  0  0  0  0  0
   59.0283   27.3446   42.1252 H   0  0  0  0  0  0  0  0  0  0  0  0
   57.3690   31.6820   43.9450 C   0  0  0  0  0  0  0  0  0  0  0  0
   58.3090   32.5750   43.5310 N   0  0  0  0  0  0  0  0  0  0  0  0
   58.5230   33.3080   44.6300 C   0  0  0  0  0  0  0  0  0  0  0  0
   59.3960   34.3830   44.7830 C   0  0  0  0  0  0  0  0  0  0  0  0
   60.0156   34.7371   43.9459 H   0  0  0  0  0  0  0  0  0  0  0  0
   59.4570   35.0000   46.0470 C   0  0  0  0  0  0  0  0  0  0  0  0
   60.1329   35.8529   46.2076 H   0  0  0  0  0  0  0  0  0  0  0  0
   58.6540   34.5290   47.1110 C   0  0  0  0  0  0  0  0  0  0  0  0
   58.7090   35.0176   48.0950 H   0  0  0  0  0  0  0  0  0  0  0  0
   57.7840   33.4380   46.9190 C   0  0  0  0  0  0  0  0  0  0  0  0
   57.1541   33.0597   47.7376 H   0  0  0  0  0  0  0  0  0  0  0  0
   57.7510   32.8560   45.6540 C   0  0  0  0  0  0  0  0  0  0  0  0
   57.0090   31.8140   45.2500 N   0  0  0  0  0  0  0  0  0  0  0  0
  1  2  1  0
  2  3  2  0
  3  4  1  0
  3  5  1  0
  5  6  2  0
  6  7  1  0
  6  8  1  0
  8  9  1  0
  8 10  2  0
 10 11  1  0
 10 12  1  0
 12 13  1  0
 12 14  2  0
 14 15  1  0
 15 16  1  0
 15 17  1  0
 15 18  1  0
  2 19  1  0
 19 20  2  0
 20 21  1  0
 21 22  2  0
 22 23  1  0
 22 24  1  0
 24 25  1  0
 24 26  2  0
 26 27  1  0
 26 28  1  0
 28 29  1  0
 28 30  2  0
 30 31  1  0
 14  5  1  0
 31 19  1  0
 30 21  1  0
M  CHG  1  31  -1
M  END
>  <UniqueID>  (88) 
84

>  <SMILES>  (88) 
Cc1ccccc1/C=C\c1nc2ccccc2[n-]1

>  <Energy>  (88) 
75.99282813957254

>  <Genealogy>  (88) 
Cc1ccccc1C=Cc1nc2ccccc2[n-]1 (protonated)
Cc1ccccc1/C=C\c1nc2ccccc2[n-]1 (cis-trans isomerization)
Cc1ccccc1/C=C\c1nc2ccccc2[n-]1 (3D coordinates assigned)
Cc1ccccc1/C=C\c1nc2ccccc2[n-]1 (optimized conformer: 75.99282813957254 kcal/mol)

>  <smiles>  (88) 
Cc1ccccc1C=Cc1nc2ccccc2[nH]1

>  <score_type>  (88) 
oracle

>  <origin>  (88) 
adg

>  <m_score__min__energy>  (88) 
-8.1500000000000004

>  <m_primary>  (88) 
energy

$$$$
88:0
     RDKit          3D

 49 52  0  0  0  0  0  0  0  0999 V2000
   58.2600   33.1430   47.9250 N   0  0  0  0  0  0  0  0  0  0  0  0
   59.2790   34.1280   46.9370 S   0  0  0  0  0  0  0  0  0  0  0  0
   58.8940   35.5710   47.0970 O   0  0  0  0  0  0  0  0  0  0  0  0
   59.1030   33.7390   45.4960 O   0  0  0  0  0  0  0  0  0  0  0  0
   60.9580   33.9030   47.4160 C   0  0  0  0  0  0  0  0  0  0  0  0
   61.9110   33.5010   46.4700 C   0  0  0  0  0  0  0  0  0  0  0  0
   63.2490   33.3490   46.8430 C   0  0  0  0  0  0  0  0  0  0  0  0
   63.6400   33.5910   48.1620 C   0  0  0  0  0  0  0  0  0  0  0  0
   62.6960   33.9720   49.1220 C   0  0  0  0  0  0  0  0  0  0  0  0
   63.1350   34.2430   50.4600 N   0  0  0  0  0  0  0  0  0  0  0  0
   63.5980   33.2780   51.4140 C   0  0  0  0  0  0  0  0  0  0  0  0
   64.8320   33.2080   51.6560 O   0  0  0  0  0  0  0  0  0  0  0  0
   62.6600   32.3130   52.0870 C   0  0  0  0  0  0  0  0  0  0  0  0
   61.7190   31.7050   51.0830 C   0  0  0  0  0  0  0  0  0  0  0  0
   60.3440   31.9790   51.1490 C   0  0  0  0  0  0  0  0  0  0  0  0
   59.4700   31.4400   50.2000 C   0  0  0  0  0  0  0  0  0  0  0  0
   59.9660   30.6450   49.1520 C   0  0  0  0  0  0  0  0  0  0  0  0
   59.0910   30.0460   48.1840 N   0  0  0  0  0  0  0  0  0  0  0  0
   59.2540   30.0520   46.8930 C   0  0  0  0  0  0  0  0  0  0  0  0
   58.6510   31.0550   46.0960 N   0  0  0  0  0  0  0  0  0  0  0  0
   58.6900   30.7610   44.6740 C   0  0  2  0  0  0  0  0  0  0  0  0
   57.3710   31.1340   43.9890 C   0  0  0  0  0  0  0  0  0  0  0  0
   56.4060   29.6570   43.9460 S   0  0  0  0  0  0  0  0  0  0  0  0
   55.9450   29.3430   42.5500 O   0  0  0  0  0  0  0  0  0  0  0  0
   55.2370   29.7380   44.8860 O   0  0  0  0  0  0  0  0  0  0  0  0
   57.6050   28.4910   44.5070 C   0  0  0  0  0  0  0  0  0  0  0  0
   58.9440   29.2410   44.5340 C   0  0  2  0  0  0  0  0  0  0  0  0
   59.9520   28.6940   45.9620 S   0  0  0  0  0  0  0  0  0  0  0  0
   61.3330   30.3540   49.1000 C   0  0  0  0  0  0  0  0  0  0  0  0
   62.2090   30.8920   50.0490 C   0  0  0  0  0  0  0  0  0  0  0  0
   61.3560   34.1540   48.7370 C   0  0  0  0  0  0  0  0  0  0  0  0
   58.6800   32.1860   47.9370 H   0  0  0  0  0  0  0  0  0  0  0  0
   61.6049   33.3048   45.4318 H   0  0  0  0  0  0  0  0  0  0  0  0
   63.9953   33.0384   46.0970 H   0  0  0  0  0  0  0  0  0  0  0  0
   64.6966   33.4814   48.4478 H   0  0  0  0  0  0  0  0  0  0  0  0
   63.2450   31.5135   52.5651 H   0  0  0  0  0  0  0  0  0  0  0  0
   62.0722   32.8563   52.8416 H   0  0  0  0  0  0  0  0  0  0  0  0
   59.9520   32.6211   51.9515 H   0  0  0  0  0  0  0  0  0  0  0  0
   58.3906   31.6387   50.2737 H   0  0  0  0  0  0  0  0  0  0  0  0
   58.3190   31.9650   46.4870 H   0  0  0  0  0  0  0  0  0  0  0  0
   59.4834   31.3493   44.1899 H   0  0  0  0  0  0  0  0  0  0  0  0
   56.8498   31.9138   44.5636 H   0  0  0  0  0  0  0  0  0  0  0  0
   57.5421   31.5314   42.9777 H   0  0  0  0  0  0  0  0  0  0  0  0
   57.3473   28.1325   45.5145 H   0  0  0  0  0  0  0  0  0  0  0  0
   57.6495   27.6106   43.8491 H   0  0  0  0  0  0  0  0  0  0  0  0
   59.4784   29.0266   43.5967 H   0  0  0  0  0  0  0  0  0  0  0  0
   61.7220   29.6977   48.3076 H   0  0  0  0  0  0  0  0  0  0  0  0
   63.2859   30.6770   49.9846 H   0  0  0  0  0  0  0  0  0  0  0  0
   60.6160   34.4951   49.4759 H   0  0  0  0  0  0  0  0  0  0  0  0
  1  2  1  0
  2  3  2  0
  2  4  2  0
  2  5  1  0
  5  6  2  0
  6  7  1  0
  7  8  2  0
  8  9  1  0
  9 10  1  0
 10 11  1  0
 11 12  2  0
 11 13  1  0
 13 14  1  0
 14 15  2  0
 15 16  1  0
 16 17  2  0
 17 18  1  0
 18 19  2  3
 19 20  1  0
 20 21  1  0
 21 22  1  0
 22 23  1  0
 23 24  2  0
 23 25  2  0
 23 26  1  0
 26 27  1  0
 27 28  1  0
 17 29  1  0
 29 30  2  0
  9 31  2  0
 31  5  1  0
 30 14  1  0
 28 19  1  0
 27 21  1  0
  1 32  1  0
  6 33  1  0
  7 34  1  0
  8 35  1  0
 13 36  1  0
 13 37  1  0
 15 38  1  0
 16 39  1  0
 20 40  1  0
 21 41  1  6
 22 42  1  0
 22 43  1  0
 26 44  1  0
 26 45  1  0
 27 46  1  6
 29 47  1  0
 30 48  1  0
 31 49  1  0
M  CHG  2   1  -1  10  -1
M  END
>  <UniqueID>  (89) 
85

>  <SMILES>  (89) 
[NH-]S(=O)(=O)c1cccc([N-]C(=O)Cc2ccc(N=C3N[C@@H]4CS(=O)(=O)C[C@@H]4S3)cc2)c1

>  <Energy>  (89) 
67.34209465970501

>  <Genealogy>  (89) 
[NH-]S(=O)(=O)c1cccc([N-]C(=O)Cc2ccc(N=C3NC4CS(=O)(=O)CC4S3)cc2)c1 (protonated)
[NH-]S(=O)(=O)c1cccc([N-]C(=O)Cc2ccc(N=C3N[C@@H]4CS(=O)(=O)C[C@@H]4S3)cc2)c1 (chirality)
[NH-]S(=O)(=O)c1cccc([N-]C(=O)Cc2ccc(N=C3N[C@@H]4CS(=O)(=O)C[C@@H]4S3)cc2)c1 (3D coordinates assigned)
[NH-]S(=O)(=O)c1cccc([N-]C(=O)Cc2ccc(N=C3N[C@@H]4CS(=O)(=O)C[C@@H]4S3)cc2)c1 (nonaromatic ring conformer: 67.34209465970501 kcal/mol)

>  <smiles>  (89) 
NS(=O)(=O)c1cccc(NC(=O)Cc2ccc(N=C3NC4CS(=O)(=O)CC4S3)cc2)c1

>  <score_type>  (89) 
oracle

>  <origin>  (89) 
adg

>  <m_score__min__energy>  (89) 
-14.07

>  <m_primary>  (89) 
energy

$$$$
89:0
     RDKit          3D

 48 51  0  0  0  0  0  0  0  0999 V2000
   62.5800   34.9520   49.4130 O   0  0  0  0  0  0  0  0  0  0  0  0
   61.8940   33.9050   49.2790 C   0  0  0  0  0  0  0  0  0  0  0  0
   62.5620   32.6400   49.2400 N   0  0  0  0  0  0  0  0  0  0  0  0
   61.9480   31.3730   48.9680 C   0  0  0  0  0  0  0  0  0  0  0  0
   61.5450   30.5160   50.0050 C   0  0  0  0  0  0  0  0  0  0  0  0
   60.9290   29.2990   49.7110 C   0  0  0  0  0  0  0  0  0  0  0  0
   60.6930   28.9360   48.3830 C   0  0  0  0  0  0  0  0  0  0  0  0
   61.0650   29.7940   47.3350 C   0  0  0  0  0  0  0  0  0  0  0  0
   60.7650   29.4150   45.9060 C   0  0  0  0  0  0  0  0  0  0  0  0
   59.2730   29.2290   45.7040 C   0  0  0  0  0  0  0  0  0  0  0  0
   58.5580   30.3090   45.1560 C   0  0  0  0  0  0  0  0  0  0  0  0
   57.1960   30.2100   44.8900 C   0  0  0  0  0  0  0  0  0  0  0  0
   56.5090   29.0300   45.1580 C   0  0  0  0  0  0  0  0  0  0  0  0
   55.1470   28.9660   44.8780 O   0  0  0  0  0  0  0  0  0  0  0  0
   57.1870   27.9260   45.7030 C   0  0  0  0  0  0  0  0  0  0  0  0
   56.4930   26.7310   45.9740 C   0  0  0  0  0  0  0  0  0  0  0  0
   57.1580   25.6330   46.5160 C   0  0  0  0  0  0  0  0  0  0  0  0
   58.5190   25.7090   46.7960 C   0  0  0  0  0  0  0  0  0  0  0  0
   59.2280   26.8830   46.5350 C   0  0  0  0  0  0  0  0  0  0  0  0
   58.5830   28.0140   45.9830 C   0  0  0  0  0  0  0  0  0  0  0  0
   61.6830   31.0180   47.6400 C   0  0  0  0  0  0  0  0  0  0  0  0
   60.4640   33.9810   49.1920 N   0  0  0  0  0  0  0  0  0  0  0  0
   59.6910   33.9400   47.9800 C   0  0  0  0  0  0  0  0  0  0  0  0
   59.8980   34.8950   46.9670 C   0  0  0  0  0  0  0  0  0  0  0  0
   59.1010   34.9040   45.8210 C   0  0  0  0  0  0  0  0  0  0  0  0
   58.0720   33.9760   45.6760 C   0  0  0  0  0  0  0  0  0  0  0  0
   57.2840   33.9940   44.5270 O   0  0  0  0  0  0  0  0  0  0  0  0
   57.8360   33.0350   46.6860 C   0  0  0  0  0  0  0  0  0  0  0  0
   58.6370   33.0030   47.8430 C   0  0  0  0  0  0  0  0  0  0  0  0
   58.3830   32.0060   48.8510 N   0  0  0  0  0  0  0  0  0  0  0  0
   57.9360   32.3410   49.9680 O   0  0  0  0  0  0  0  0  0  0  0  0
   58.5010   30.6670   48.5630 O   0  0  0  0  0  0  0  0  0  0  0  0
   61.7155   30.8051   51.0525 H   0  0  0  0  0  0  0  0  0  0  0  0
   60.6288   28.6244   50.5263 H   0  0  0  0  0  0  0  0  0  0  0  0
   60.2130   27.9725   48.1566 H   0  0  0  0  0  0  0  0  0  0  0  0
   61.1235   30.2119   45.2379 H   0  0  0  0  0  0  0  0  0  0  0  0
   61.2744   28.4675   45.6764 H   0  0  0  0  0  0  0  0  0  0  0  0
   59.0850   31.2486   44.9338 H   0  0  0  0  0  0  0  0  0  0  0  0
   56.6585   31.0705   44.4649 H   0  0  0  0  0  0  0  0  0  0  0  0
   55.4169   26.6638   45.7560 H   0  0  0  0  0  0  0  0  0  0  0  0
   56.6060   24.7043   46.7229 H   0  0  0  0  0  0  0  0  0  0  0  0
   59.0388   24.8397   47.2251 H   0  0  0  0  0  0  0  0  0  0  0  0
   60.3034   26.9289   46.7619 H   0  0  0  0  0  0  0  0  0  0  0  0
   61.9616   31.7046   46.8270 H   0  0  0  0  0  0  0  0  0  0  0  0
   60.6969   35.6427   47.0796 H   0  0  0  0  0  0  0  0  0  0  0  0
   59.2859   35.6459   45.0302 H   0  0  0  0  0  0  0  0  0  0  0  0
   56.3710   33.5590   44.5040 H   0  0  0  0  0  0  0  0  0  0  0  0
   57.0146   32.3120   46.5738 H   0  0  0  0  0  0  0  0  0  0  0  0
  1  2  2  0
  2  3  1  0
  3  4  1  0
  4  5  2  0
  5  6  1  0
  6  7  2  0
  7  8  1  0
  8  9  1  0
  9 10  1  0
 10 11  2  0
 11 12  1  0
 12 13  2  0
 13 14  1  0
 13 15  1  0
 15 16  2  0
 16 17  1  0
 17 18  2  0
 18 19  1  0
 19 20  2  0
  8 21  2  0
  2 22  1  0
 22 23  1  0
 23 24  2  0
 24 25  1  0
 25 26  2  0
 26 27  1  0
 26 28  1  0
 28 29  2  0
 29 30  1  0
 30 31  2  0
 30 32  1  0
 21  4  1  0
 29 23  1  0
 20 10  1  0
 20 15  1  0
  5 33  1  0
  6 34  1  0
  7 35  1  0
  9 36  1  0
  9 37  1  0
 11 38  1  0
 12 39  1  0
 16 40  1  0
 17 41  1  0
 18 42  1  0
 19 43  1  0
 21 44  1  0
 24 45  1  0
 25 46  1  0
 27 47  1  0
 28 48  1  0
M  CHG  5   3  -1  14  -1  22  -1  30   1  32  -1
M  END
>  <UniqueID>  (90) 
86

>  <SMILES>  (90) 
O=C([N-]c1cccc(Cc2ccc([O-])c3ccccc23)c1)[N-]c1ccc(O)cc1[N+](=O)[O-]

>  <Energy>  (90) 
70.44509854770826

>  <Genealogy>  (90) 
O=C([N-]c1cccc(Cc2ccc([O-])c3ccccc23)c1)[N-]c1ccc(O)cc1[N+](=O)[O-] (protonated)
O=C([N-]c1cccc(Cc2ccc([O-])c3ccccc23)c1)[N-]c1ccc(O)cc1[N+](=O)[O-] (3D coordinates assigned)
O=C([N-]c1cccc(Cc2ccc([O-])c3ccccc23)c1)[N-]c1ccc(O)cc1[N+](=O)[O-] (optimized conformer: 70.44509854770826 kcal/mol)

>  <smiles>  (90) 
O=C(Nc1cccc(Cc2ccc(O)c3ccccc23)c1)Nc1ccc(O)cc1[N+](=O)[O-]

>  <score_type>  (90) 
oracle

>  <origin>  (90) 
adg

>  <m_score__min__energy>  (90) 
-14.640000000000001

>  <m_primary>  (90) 
energy

$$$$
90:0
     RDKit          3D

 28 29  0  0  0  0  0  0  0  0999 V2000
   57.7780   31.1380   43.0990 O   0  0  0  0  0  0  0  0  0  0  0  0
   56.8220   30.9200   43.8900 C   0  0  0  0  0  0  0  0  0  0  0  0
   55.9520   29.7140   43.6410 C   0  0  0  0  0  0  0  0  0  0  0  0
   55.6910   28.9600   44.8690 N   0  0  0  0  0  0  0  0  0  0  0  0
   57.0070   27.8910   45.2680 S   0  0  0  0  0  0  0  0  0  0  0  0
   56.5690   26.9550   46.3580 O   0  0  0  0  0  0  0  0  0  0  0  0
   57.4060   27.0810   44.0650 O   0  0  0  0  0  0  0  0  0  0  0  0
   58.3690   28.8430   45.8520 C   0  0  0  0  0  0  0  0  0  0  0  0
   58.2670   29.6010   47.0280 C   0  0  0  0  0  0  0  0  0  0  0  0
   59.3710   30.3230   47.4940 C   0  0  0  0  0  0  0  0  0  0  0  0
   60.5790   30.2870   46.7920 C   0  0  0  0  0  0  0  0  0  0  0  0
   60.6850   29.5340   45.6190 C   0  0  0  0  0  0  0  0  0  0  0  0
   59.5810   28.8150   45.1480 C   0  0  0  0  0  0  0  0  0  0  0  0
   56.6430   31.8150   45.0010 N   0  0  0  0  0  0  0  0  0  0  0  0
   57.4690   32.7050   45.4660 C   0  0  0  0  0  0  0  0  0  0  0  0
   57.6680   32.9630   46.7770 N   0  0  0  0  0  0  0  0  0  0  0  0
   58.5900   33.9460   46.9580 C   0  0  0  0  0  0  0  0  0  0  0  0
   59.1260   34.4750   45.7880 C   0  0  0  0  0  0  0  0  0  0  0  0
   58.4160   33.6820   44.4850 S   0  0  0  0  0  0  0  0  0  0  0  0
   54.9927   30.0495   43.2201 H   0  0  0  0  0  0  0  0  0  0  0  0
   56.4840   29.0509   42.9430 H   0  0  0  0  0  0  0  0  0  0  0  0
   57.3183   29.6277   47.5841 H   0  0  0  0  0  0  0  0  0  0  0  0
   59.2882   30.9199   48.4143 H   0  0  0  0  0  0  0  0  0  0  0  0
   61.4471   30.8517   47.1628 H   0  0  0  0  0  0  0  0  0  0  0  0
   61.6358   29.5068   45.0666 H   0  0  0  0  0  0  0  0  0  0  0  0
   59.6643   28.2261   44.2227 H   0  0  0  0  0  0  0  0  0  0  0  0
   58.8901   34.2972   47.9563 H   0  0  0  0  0  0  0  0  0  0  0  0
   59.8816   35.2720   45.7258 H   0  0  0  0  0  0  0  0  0  0  0  0
  1  2  2  0
  2  3  1  0
  3  4  1  0
  4  5  1  0
  5  6  2  0
  5  7  2  0
  5  8  1  0
  8  9  2  0
  9 10  1  0
 10 11  2  0
 11 12  1  0
 12 13  2  0
  2 14  1  0
 14 15  2  3
 15 16  1  0
 16 17  1  0
 17 18  2  0
 18 19  1  0
 13  8  1  0
 19 15  1  0
  3 20  1  0
  3 21  1  0
  9 22  1  0
 10 23  1  0
 11 24  1  0
 12 25  1  0
 13 26  1  0
 17 27  1  0
 18 28  1  0
M  CHG  2   4  -1  16  -1
M  END
>  <UniqueID>  (91) 
87

>  <SMILES>  (91) 
O=C(C[N-]S(=O)(=O)c1ccccc1)N=c1[n-]ccs1

>  <Energy>  (91) 
59.6276959449069

>  <Genealogy>  (91) 
O=C(C[N-]S(=O)(=O)c1ccccc1)N=c1[n-]ccs1 (protonated)
O=C(C[N-]S(=O)(=O)c1ccccc1)N=c1[n-]ccs1 (3D coordinates assigned)
O=C(C[N-]S(=O)(=O)c1ccccc1)N=c1[n-]ccs1 (optimized conformer: 59.6276959449069 kcal/mol)

>  <smiles>  (91) 
O=C(CNS(=O)(=O)c1ccccc1)N=c1[nH]ccs1

>  <score_type>  (91) 
oracle

>  <origin>  (91) 
adg

>  <m_score__min__energy>  (91) 
-10.75

>  <m_primary>  (91) 
energy

$$$$
91:0
     RDKit          3D

 62 65  0  0  0  0  0  0  0  0999 V2000
   57.8700   32.7480   42.8890 O   0  0  0  0  0  0  0  0  0  0  0  0
   58.1330   32.2470   44.0160 C   0  0  0  0  0  0  0  0  0  0  0  0
   59.0300   32.9400   44.8990 N   0  0  0  0  0  0  0  0  0  0  0  0
   59.2810   34.3720   44.7370 C   0  0  0  0  0  0  0  0  0  0  0  0
   59.8960   34.9710   46.0200 C   0  0  0  0  0  0  0  0  0  0  0  0
   59.0250   34.8910   47.2160 N   0  0  0  0  0  0  0  0  0  0  0  0
   59.7330   34.4940   48.4400 C   0  0  0  0  0  0  0  0  0  0  0  0
   59.3700   33.0480   48.7520 C   0  0  0  0  0  0  0  0  0  0  0  0
   58.1980   32.7050   47.8480 C   0  0  0  0  0  0  0  0  0  0  0  0
   57.8880   33.9740   47.0650 C   0  0  0  0  0  0  0  0  0  0  0  0
   57.4960   30.9650   44.4100 C   0  0  0  0  0  0  0  0  0  0  0  0
   56.3510   30.5080   43.7330 C   0  0  0  0  0  0  0  0  0  0  0  0
   55.7040   29.3400   44.1380 C   0  0  0  0  0  0  0  0  0  0  0  0
   56.1900   28.6090   45.2230 C   0  0  0  0  0  0  0  0  0  0  0  0
   55.5350   27.4490   45.6200 O   0  0  0  0  0  0  0  0  0  0  0  0
   57.3400   29.0360   45.9010 C   0  0  0  0  0  0  0  0  0  0  0  0
   57.8180   28.2790   47.0170 N   0  0  0  0  0  0  0  0  0  0  0  0
   59.4610   27.7440   47.1520 S   0  0  0  0  0  0  0  0  0  0  0  0
   59.5500   26.4760   47.9540 O   0  0  0  0  0  0  0  0  0  0  0  0
   60.0000   27.4700   45.7750 O   0  0  0  0  0  0  0  0  0  0  0  0
   60.4000   29.0220   47.9130 C   0  0  0  0  0  0  0  0  0  0  0  0
   60.6600   28.9830   49.2890 C   0  0  0  0  0  0  0  0  0  0  0  0
   61.4720   29.9550   49.8810 C   0  0  0  0  0  0  0  0  0  0  0  0
   62.0440   30.9760   49.1030 C   0  0  0  0  0  0  0  0  0  0  0  0
   62.9370   31.9850   49.7270 C   0  0  0  0  0  0  0  0  0  0  0  0
   62.4490   33.2560   50.0760 C   0  0  0  0  0  0  0  0  0  0  0  0
   63.2890   34.1970   50.6760 C   0  0  0  0  0  0  0  0  0  0  0  0
   64.6280   33.8860   50.9270 C   0  0  0  0  0  0  0  0  0  0  0  0
   65.1390   32.6310   50.5680 C   0  0  0  0  0  0  0  0  0  0  0  0
   66.5740   32.2840   50.8590 C   0  0  0  0  0  0  0  0  0  0  0  0
   66.8210   30.9420   50.5390 O   0  0  0  0  0  0  0  0  0  0  0  0
   64.2880   31.6800   49.9820 C   0  0  0  0  0  0  0  0  0  0  0  0
   61.7740   31.0140   47.7220 C   0  0  0  0  0  0  0  0  0  0  0  0
   60.9610   30.0410   47.1330 C   0  0  0  0  0  0  0  0  0  0  0  0
   57.9830   30.2190   45.5010 C   0  0  0  0  0  0  0  0  0  0  0  0
   59.4890   32.4210   45.6800 H   0  0  0  0  0  0  0  0  0  0  0  0
   59.9774   34.5232   43.8990 H   0  0  0  0  0  0  0  0  0  0  0  0
   58.3243   34.8765   44.5367 H   0  0  0  0  0  0  0  0  0  0  0  0
   60.8290   34.4307   46.2381 H   0  0  0  0  0  0  0  0  0  0  0  0
   60.0543   36.0410   45.8201 H   0  0  0  0  0  0  0  0  0  0  0  0
   60.8188   34.5806   48.2868 H   0  0  0  0  0  0  0  0  0  0  0  0
   59.4426   35.1475   49.2758 H   0  0  0  0  0  0  0  0  0  0  0  0
   60.2225   32.3859   48.5401 H   0  0  0  0  0  0  0  0  0  0  0  0
   59.1113   32.9179   49.8132 H   0  0  0  0  0  0  0  0  0  0  0  0
   58.4701   31.8892   47.1621 H   0  0  0  0  0  0  0  0  0  0  0  0
   57.3270   32.3659   48.4279 H   0  0  0  0  0  0  0  0  0  0  0  0
   57.7436   33.7306   46.0020 H   0  0  0  0  0  0  0  0  0  0  0  0
   56.9676   34.4415   47.4449 H   0  0  0  0  0  0  0  0  0  0  0  0
   55.9618   31.0770   42.8758 H   0  0  0  0  0  0  0  0  0  0  0  0
   54.8085   28.9944   43.6007 H   0  0  0  0  0  0  0  0  0  0  0  0
   60.2234   28.1841   49.9064 H   0  0  0  0  0  0  0  0  0  0  0  0
   61.6645   29.9203   50.9635 H   0  0  0  0  0  0  0  0  0  0  0  0
   61.3981   33.5115   49.8752 H   0  0  0  0  0  0  0  0  0  0  0  0
   62.8951   35.1863   50.9519 H   0  0  0  0  0  0  0  0  0  0  0  0
   65.2827   34.6279   51.4075 H   0  0  0  0  0  0  0  0  0  0  0  0
   67.2328   32.9282   50.2582 H   0  0  0  0  0  0  0  0  0  0  0  0
   66.7715   32.4403   51.9298 H   0  0  0  0  0  0  0  0  0  0  0  0
   67.2940   30.5460   51.3180 H   0  0  0  0  0  0  0  0  0  0  0  0
   64.6807   30.6866   49.7194 H   0  0  0  0  0  0  0  0  0  0  0  0
   62.2053   31.8141   47.1025 H   0  0  0  0  0  0  0  0  0  0  0  0
   60.7610   30.0760   46.0519 H   0  0  0  0  0  0  0  0  0  0  0  0
   58.8744   30.5658   46.0443 H   0  0  0  0  0  0  0  0  0  0  0  0
  1  2  2  0
  2  3  1  0
  3  4  1  0
  4  5  1  0
  5  6  1  0
  6  7  1  0
  7  8  1  0
  8  9  1  0
  9 10  1  0
  2 11  1  0
 11 12  2  0
 12 13  1  0
 13 14  2  0
 14 15  1  0
 14 16  1  0
 16 17  1  0
 17 18  1  0
 18 19  2  0
 18 20  2  0
 18 21  1  0
 21 22  2  0
 22 23  1  0
 23 24  2  0
 24 25  1  0
 25 26  2  0
 26 27  1  0
 27 28  2  0
 28 29  1  0
 29 30  1  0
 30 31  1  0
 29 32  2  0
 24 33  1  0
 33 34  2  0
 16 35  2  0
 10  6  1  0
 35 11  1  0
 34 21  1  0
 32 25  1  0
  3 36  1  0
  4 37  1  0
  4 38  1  0
  5 39  1  0
  5 40  1  0
  7 41  1  0
  7 42  1  0
  8 43  1  0
  8 44  1  0
  9 45  1  0
  9 46  1  0
 10 47  1  0
 10 48  1  0
 12 49  1  0
 13 50  1  0
 22 51  1  0
 23 52  1  0
 26 53  1  0
 27 54  1  0
 28 55  1  0
 30 56  1  0
 30 57  1  0
 31 58  1  0
 32 59  1  0
 33 60  1  0
 34 61  1  0
 35 62  1  0
M  CHG  2  15  -1  17  -1
M  END
>  <UniqueID>  (92) 
88

>  <SMILES>  (92) 
O=C(NCCN1CCCC1)c1ccc([O-])c([N-]S(=O)(=O)c2ccc(-c3cccc(CO)c3)cc2)c1

>  <Energy>  (92) 
82.53757008107938

>  <Genealogy>  (92) 
O=C(NCCN1CCCC1)c1ccc([O-])c([N-]S(=O)(=O)c2ccc(-c3cccc(CO)c3)cc2)c1 (protonated)
O=C(NCCN1CCCC1)c1ccc([O-])c([N-]S(=O)(=O)c2ccc(-c3cccc(CO)c3)cc2)c1 (3D coordinates assigned)
O=C(NCCN1CCCC1)c1ccc([O-])c([N-]S(=O)(=O)c2ccc(-c3cccc(CO)c3)cc2)c1 (nonaromatic ring conformer: 82.53757008107938 kcal/mol)

>  <smiles>  (92) 
O=C(NCCN1CCCC1)c1ccc(O)c(NS(=O)(=O)c2ccc(-c3cccc(CO)c3)cc2)c1

>  <score_type>  (92) 
oracle

>  <origin>  (92) 
adg

>  <m_score__min__energy>  (92) 
-13.220000000000001

>  <m_primary>  (92) 
energy

$$$$
92:0
     RDKit          3D

 45 47  0  0  0  0  0  0  0  0999 V2000
   58.8050   29.3690   44.1310 O   0  0  0  0  0  0  0  0  0  0  0  0
   57.9100   29.2720   45.0150 C   0  0  0  0  0  0  0  0  0  0  0  0
   57.0290   30.3730   45.2600 N   0  0  0  0  0  0  0  0  0  0  0  0
   56.9440   31.5220   44.3650 C   0  0  0  0  0  0  0  0  0  0  0  0
   57.6470   32.7100   44.9620 C   0  0  0  0  0  0  0  0  0  0  0  0
   57.4630   33.0420   46.3170 C   0  0  0  0  0  0  0  0  0  0  0  0
   58.1780   34.0980   46.8880 C   0  0  0  0  0  0  0  0  0  0  0  0
   59.0950   34.8190   46.1200 C   0  0  0  0  0  0  0  0  0  0  0  0
   59.2920   34.4900   44.7760 C   0  0  0  0  0  0  0  0  0  0  0  0
   58.5710   33.4410   44.1970 C   0  0  0  0  0  0  0  0  0  0  0  0
   57.8250   28.0470   45.8430 C   0  0  0  0  0  0  0  0  0  0  0  0
   56.7470   27.1700   45.6210 C   0  0  0  0  0  0  0  0  0  0  0  0
   56.6610   25.9560   46.3040 C   0  0  0  0  0  0  0  0  0  0  0  0
   57.6480   25.6020   47.2220 C   0  0  0  0  0  0  0  0  0  0  0  0
   58.7140   26.4670   47.4730 C   0  0  0  0  0  0  0  0  0  0  0  0
   58.8140   27.7000   46.8020 C   0  0  0  0  0  0  0  0  0  0  0  0
   59.9000   28.6270   47.1970 C   0  0  0  0  0  0  0  0  0  0  0  0
   60.7900   28.2400   48.0030 O   0  0  0  0  0  0  0  0  0  0  0  0
   59.9680   29.9450   46.6320 N   0  0  0  0  0  0  0  0  0  0  0  0
   61.0980   30.8460   46.8480 C   0  0  0  0  0  0  0  0  0  0  0  0
   60.7390   31.8930   47.8720 C   0  0  0  0  0  0  0  0  0  0  0  0
   59.6440   31.6550   48.7220 C   0  0  0  0  0  0  0  0  0  0  0  0
   59.2640   32.6040   49.6750 C   0  0  0  0  0  0  0  0  0  0  0  0
   59.9680   33.8020   49.7880 C   0  0  0  0  0  0  0  0  0  0  0  0
   61.0640   34.0480   48.9580 C   0  0  0  0  0  0  0  0  0  0  0  0
   61.4670   33.0970   48.0130 C   0  0  0  0  0  0  0  0  0  0  0  0
   62.8820   33.4640   47.0330 Cl  0  0  0  0  0  0  0  0  0  0  0  0
   57.4156   31.2678   43.4043 H   0  0  0  0  0  0  0  0  0  0  0  0
   55.8846   31.7759   44.2129 H   0  0  0  0  0  0  0  0  0  0  0  0
   56.7528   32.4674   46.9297 H   0  0  0  0  0  0  0  0  0  0  0  0
   58.0184   34.3618   47.9439 H   0  0  0  0  0  0  0  0  0  0  0  0
   59.6621   35.6457   46.5728 H   0  0  0  0  0  0  0  0  0  0  0  0
   60.0157   35.0574   44.1724 H   0  0  0  0  0  0  0  0  0  0  0  0
   58.7280   33.1872   43.1383 H   0  0  0  0  0  0  0  0  0  0  0  0
   55.9626   27.4447   44.9004 H   0  0  0  0  0  0  0  0  0  0  0  0
   55.8144   25.2788   46.1178 H   0  0  0  0  0  0  0  0  0  0  0  0
   57.5867   24.6388   47.7498 H   0  0  0  0  0  0  0  0  0  0  0  0
   59.4851   26.1817   48.2038 H   0  0  0  0  0  0  0  0  0  0  0  0
   59.1490   30.3090   46.0920 H   0  0  0  0  0  0  0  0  0  0  0  0
   61.9613   30.2668   47.2074 H   0  0  0  0  0  0  0  0  0  0  0  0
   61.3486   31.3424   45.8989 H   0  0  0  0  0  0  0  0  0  0  0  0
   59.0817   30.7135   48.6359 H   0  0  0  0  0  0  0  0  0  0  0  0
   58.4082   32.4054   50.3369 H   0  0  0  0  0  0  0  0  0  0  0  0
   59.6604   34.5531   50.5305 H   0  0  0  0  0  0  0  0  0  0  0  0
   61.6146   34.9960   49.0475 H   0  0  0  0  0  0  0  0  0  0  0  0
  1  2  2  0
  2  3  1  0
  3  4  1  0
  4  5  1  0
  5  6  2  0
  6  7  1  0
  7  8  2  0
  8  9  1  0
  9 10  2  0
  2 11  1  0
 11 12  2  0
 12 13  1  0
 13 14  2  0
 14 15  1  0
 15 16  2  0
 16 17  1  0
 17 18  2  0
 17 19  1  0
 19 20  1  0
 20 21  1  0
 21 22  2  0
 22 23  1  0
 23 24  2  0
 24 25  1  0
 25 26  2  0
 26 27  1  0
 10  5  1  0
 16 11  1  0
 26 21  1  0
  4 28  1  0
  4 29  1  0
  6 30  1  0
  7 31  1  0
  8 32  1  0
  9 33  1  0
 10 34  1  0
 12 35  1  0
 13 36  1  0
 14 37  1  0
 15 38  1  0
 19 39  1  0
 20 40  1  0
 20 41  1  0
 22 42  1  0
 23 43  1  0
 24 44  1  0
 25 45  1  0
M  CHG  1   3  -1
M  END
>  <UniqueID>  (93) 
89

>  <SMILES>  (93) 
O=C([N-]Cc1ccccc1)c1ccccc1C(=O)NCc1ccccc1Cl

>  <Energy>  (93) 
50.435990941832884

>  <Genealogy>  (93) 
O=C([N-]Cc1ccccc1)c1ccccc1C(=O)NCc1ccccc1Cl (protonated)
O=C([N-]Cc1ccccc1)c1ccccc1C(=O)NCc1ccccc1Cl (3D coordinates assigned)
O=C([N-]Cc1ccccc1)c1ccccc1C(=O)NCc1ccccc1Cl (optimized conformer: 50.435990941832884 kcal/mol)

>  <smiles>  (93) 
O=C(NCc1ccccc1)c1ccccc1C(=O)NCc1ccccc1Cl

>  <score_type>  (93) 
oracle

>  <origin>  (93) 
adg

>  <m_score__min__energy>  (93) 
-10.01

>  <m_primary>  (93) 
energy

$$$$
93:0
     RDKit          3D

 44 46  0  0  0  0  0  0  0  0999 V2000
   55.3505   29.3016   44.5912 H   0  0  0  0  0  0  0  0  0  0  0  0
   56.0210   30.0360   44.1210 C   0  0  0  0  0  0  0  0  0  0  0  0
   56.6760   30.9880   44.8380 N   0  0  0  0  0  0  0  0  0  0  0  0
   57.4410   31.7730   44.0490 C   0  0  0  0  0  0  0  0  0  0  0  0
   58.1400   32.7580   44.5310 N   0  0  0  0  0  0  0  0  0  0  0  0
   58.2680   33.1430   45.9100 C   0  0  0  0  0  0  0  0  0  0  0  0
   57.3890   33.8440   46.4800 O   0  0  0  0  0  0  0  0  0  0  0  0
   59.4670   32.6950   46.6850 C   0  0  0  0  0  0  0  0  0  0  0  0
   60.0682   33.5740   46.9604 H   0  0  0  0  0  0  0  0  0  0  0  0
   60.0576   32.0101   46.0588 H   0  0  0  0  0  0  0  0  0  0  0  0
   58.9620   31.8160   48.2010 S   0  0  0  0  0  0  0  0  0  0  0  0
   58.8230   30.2200   47.4000 C   0  0  0  0  0  0  0  0  0  0  0  0
   58.7510   29.0730   48.0580 O   0  0  0  0  0  0  0  0  0  0  0  0
   58.6470   28.1450   47.1390 C   0  0  0  0  0  0  0  0  0  0  0  0
   58.5360   26.7670   47.2980 C   0  0  0  0  0  0  0  0  0  0  0  0
   58.5304   26.3105   48.2988 H   0  0  0  0  0  0  0  0  0  0  0  0
   58.4310   25.9740   46.1370 C   0  0  0  0  0  0  0  0  0  0  0  0
   58.3160   24.5540   46.2920 N   0  0  0  0  0  0  0  0  0  0  0  0
   56.8500   23.7030   46.6560 S   0  0  0  0  0  0  0  0  0  0  0  0
   57.0210   22.9640   47.9530 O   0  0  0  0  0  0  0  0  0  0  0  0
   55.7100   24.6730   46.7830 O   0  0  0  0  0  0  0  0  0  0  0  0
   56.5140   22.4980   45.3680 C   0  0  0  0  0  0  0  0  0  0  0  0
   55.4241   22.4497   45.2272 H   0  0  0  0  0  0  0  0  0  0  0  0
   56.9627   21.5560   45.7162 H   0  0  0  0  0  0  0  0  0  0  0  0
   57.1580   22.7860   43.9910 C   0  0  0  0  0  0  0  0  0  0  0  0
   58.2267   22.9356   44.2044 H   0  0  0  0  0  0  0  0  0  0  0  0
   57.0480   21.6020   43.0200 C   0  0  0  0  0  0  0  0  0  0  0  0
   56.9610   20.6661   43.5914 H   0  0  0  0  0  0  0  0  0  0  0  0
   56.1578   21.7289   42.3864 H   0  0  0  0  0  0  0  0  0  0  0  0
   57.9464   21.5627   42.3864 H   0  0  0  0  0  0  0  0  0  0  0  0
   56.6430   24.0770   43.3440 C   0  0  0  0  0  0  0  0  0  0  0  0
   56.3577   24.7923   44.1295 H   0  0  0  0  0  0  0  0  0  0  0  0
   57.4351   24.5153   42.7192 H   0  0  0  0  0  0  0  0  0  0  0  0
   55.7667   23.8497   42.7192 H   0  0  0  0  0  0  0  0  0  0  0  0
   58.4410   26.5950   44.8550 C   0  0  0  0  0  0  0  0  0  0  0  0
   58.3589   25.9761   43.9493 H   0  0  0  0  0  0  0  0  0  0  0  0
   58.5550   27.9930   44.7360 C   0  0  0  0  0  0  0  0  0  0  0  0
   58.5624   28.4829   43.7511 H   0  0  0  0  0  0  0  0  0  0  0  0
   58.6580   28.7320   45.9100 C   0  0  0  0  0  0  0  0  0  0  0  0
   58.7730   30.0600   46.0560 N   0  0  0  0  0  0  0  0  0  0  0  0
   58.8040   30.7940   45.3140 H   0  0  0  0  0  0  0  0  0  0  0  0
   57.3260   31.3160   42.4290 S   0  0  0  0  0  0  0  0  0  0  0  0
   56.2590   30.0570   42.7520 C   0  0  0  0  0  0  0  0  0  0  0  0
   55.8255   29.3705   42.0098 H   0  0  0  0  0  0  0  0  0  0  0  0
  1  2  1  0
  2  3  1  0
  3  4  1  0
  4  5  2  0
  5  6  1  0
  6  7  2  0
  6  8  1  0
  8  9  1  0
  8 10  1  0
  8 11  1  0
 11 12  1  0
 12 13  1  0
 13 14  1  0
 14 15  2  0
 15 16  1  0
 15 17  1  0
 17 18  1  0
 18 19  1  0
 19 20  2  0
 19 21  2  0
 19 22  1  0
 22 23  1  0
 22 24  1  0
 22 25  1  0
 25 26  1  0
 25 27  1  0
 27 28  1  0
 27 29  1  0
 27 30  1  0
 25 31  1  0
 31 32  1  0
 31 33  1  0
 31 34  1  0
 17 35  2  0
 35 36  1  0
 35 37  1  0
 37 38  1  0
 37 39  2  0
 39 40  1  0
 40 41  1  0
  4 42  1  0
 42 43  1  0
 43 44  1  0
 43  2  2  0
 40 12  2  0
 39 14  1  0
M  CHG  3   3  -1  18  -1  40   1
M  END
>  <UniqueID>  (94) 
90

>  <SMILES>  (94) 
CC(C)CS(=O)(=O)[N-]c1ccc2[nH+]c(SCC(=O)/N=c3/[n-]ccs3)oc2c1

>  <Energy>  (94) 
109.52269985879846

>  <Genealogy>  (94) 
CC(C)CS(=O)(=O)[N-]c1ccc2[nH+]c(SCC(=O)N=c3[n-]ccs3)oc2c1 (protonated)
CC(C)CS(=O)(=O)[N-]c1ccc2[nH+]c(SCC(=O)/N=c3/[n-]ccs3)oc2c1 (cis-trans isomerization)
CC(C)CS(=O)(=O)[N-]c1ccc2[nH+]c(SCC(=O)/N=c3/[n-]ccs3)oc2c1 (3D coordinates assigned)
CC(C)CS(=O)(=O)[N-]c1ccc2[nH+]c(SCC(=O)/N=c3/[n-]ccs3)oc2c1 (optimized conformer: 109.52269985879846 kcal/mol)

>  <smiles>  (94) 
CC(C)CS(=O)(=O)Nc1ccc2nc(SCC(=O)N=c3[nH]ccs3)oc2c1

>  <score_type>  (94) 
oracle

>  <origin>  (94) 
adg

>  <m_score__min__energy>  (94) 
-9.5099999999999998

>  <m_primary>  (94) 
energy

$$$$
94:0
     RDKit          3D

 50 52  0  0  0  0  0  0  0  0999 V2000
   50.6820   32.6910   52.3650 C   0  0  0  0  0  0  0  0  0  0  0  0
   51.0250   32.3430   50.9940 N   0  0  0  0  0  0  0  0  0  0  0  0
   51.6840   31.1200   50.6490 C   0  0  0  0  0  0  0  0  0  0  0  0
   51.4280   30.5540   49.5520 O   0  0  0  0  0  0  0  0  0  0  0  0
   52.6870   30.5280   51.5550 C   0  0  0  0  0  0  0  0  0  0  0  0
   53.9330   31.1430   51.7670 C   0  0  0  0  0  0  0  0  0  0  0  0
   54.8860   30.5120   52.5840 C   0  0  0  0  0  0  0  0  0  0  0  0
   56.1600   31.0600   52.7820 O   0  0  0  0  0  0  0  0  0  0  0  0
   57.3430   30.5090   52.2730 C   0  0  0  0  0  0  0  0  0  0  0  0
   57.9880   29.5000   52.9950 C   0  0  0  0  0  0  0  0  0  0  0  0
   59.1670   28.9300   52.5090 C   0  0  0  0  0  0  0  0  0  0  0  0
   59.7270   29.3910   51.3150 C   0  0  0  0  0  0  0  0  0  0  0  0
   59.1230   30.4390   50.6080 C   0  0  0  0  0  0  0  0  0  0  0  0
   59.7340   30.9250   49.4030 N   0  0  0  0  0  0  0  0  0  0  0  0
   59.7020   32.3040   48.9980 C   0  0  0  0  0  0  0  0  0  0  0  0
   59.3720   33.2000   49.8190 O   0  0  0  0  0  0  0  0  0  0  0  0
   60.1270   32.6870   47.6860 N   0  0  0  0  0  0  0  0  0  0  0  0
   59.2400   33.0020   46.6050 C   0  0  0  0  0  0  0  0  0  0  0  0
   59.3570   34.2440   45.9730 C   0  0  0  0  0  0  0  0  0  0  0  0
   58.5130   34.5750   44.9130 C   0  0  0  0  0  0  0  0  0  0  0  0
   57.5410   33.6690   44.4840 C   0  0  0  0  0  0  0  0  0  0  0  0
   57.3880   32.4290   45.1170 C   0  0  0  0  0  0  0  0  0  0  0  0
   56.3640   31.5520   44.6230 N   0  0  0  0  0  0  0  0  0  0  0  0
   56.5230   29.8850   44.1660 S   0  0  0  0  0  0  0  0  0  0  0  0
   58.1970   29.3220   44.4100 C   0  0  0  0  0  0  0  0  0  0  0  0
   55.5560   29.0400   44.9460 O   0  0  0  0  0  0  0  0  0  0  0  0
   56.1960   29.7610   42.7050 O   0  0  0  0  0  0  0  0  0  0  0  0
   58.2280   32.1070   46.2070 C   0  0  0  0  0  0  0  0  0  0  0  0
   58.0310   30.9820   46.9330 F   0  0  0  0  0  0  0  0  0  0  0  0
   57.9130   30.9790   51.0780 C   0  0  0  0  0  0  0  0  0  0  0  0
   54.5760   29.2860   53.1760 C   0  0  0  0  0  0  0  0  0  0  0  0
   53.3180   28.7190   52.9670 C   0  0  0  0  0  0  0  0  0  0  0  0
   52.4150   29.3430   52.1670 N   0  0  0  0  0  0  0  0  0  0  0  0
   51.2813   32.0829   53.0586 H   0  0  0  0  0  0  0  0  0  0  0  0
   50.8924   33.7570   52.5363 H   0  0  0  0  0  0  0  0  0  0  0  0
   49.6130   32.4961   52.5363 H   0  0  0  0  0  0  0  0  0  0  0  0
   54.1603   32.1111   51.2967 H   0  0  0  0  0  0  0  0  0  0  0  0
   57.5652   29.1537   53.9496 H   0  0  0  0  0  0  0  0  0  0  0  0
   59.6550   28.1173   53.0670 H   0  0  0  0  0  0  0  0  0  0  0  0
   60.6470   28.9287   50.9279 H   0  0  0  0  0  0  0  0  0  0  0  0
   60.3440   30.2690   48.8630 H   0  0  0  0  0  0  0  0  0  0  0  0
   60.1174   34.9625   46.3131 H   0  0  0  0  0  0  0  0  0  0  0  0
   58.6132   35.5505   44.4146 H   0  0  0  0  0  0  0  0  0  0  0  0
   56.8878   33.9322   43.6390 H   0  0  0  0  0  0  0  0  0  0  0  0
   58.4067   29.2515   45.4875 H   0  0  0  0  0  0  0  0  0  0  0  0
   58.3222   28.3323   43.9465 H   0  0  0  0  0  0  0  0  0  0  0  0
   58.8948   30.0349   43.9465 H   0  0  0  0  0  0  0  0  0  0  0  0
   57.4100   31.7735   50.5072 H   0  0  0  0  0  0  0  0  0  0  0  0
   55.3184   28.7705   53.8030 H   0  0  0  0  0  0  0  0  0  0  0  0
   53.0576   27.7659   53.4506 H   0  0  0  0  0  0  0  0  0  0  0  0
  1  2  1  0
  2  3  1  0
  3  4  2  0
  3  5  1  0
  5  6  2  0
  6  7  1  0
  7  8  1  0
  8  9  1  0
  9 10  2  0
 10 11  1  0
 11 12  2  0
 12 13  1  0
 13 14  1  0
 14 15  1  0
 15 16  2  0
 15 17  1  0
 17 18  1  0
 18 19  2  0
 19 20  1  0
 20 21  2  0
 21 22  1  0
 22 23  1  0
 23 24  1  0
 24 25  1  0
 24 26  2  0
 24 27  2  0
 22 28  2  0
 28 29  1  0
 13 30  2  0
  7 31  2  0
 31 32  1  0
 32 33  2  0
 33  5  1  0
 30  9  1  0
 28 18  1  0
  1 34  1  0
  1 35  1  0
  1 36  1  0
  6 37  1  0
 10 38  1  0
 11 39  1  0
 12 40  1  0
 14 41  1  0
 19 42  1  0
 20 43  1  0
 21 44  1  0
 25 45  1  0
 25 46  1  0
 25 47  1  0
 30 48  1  0
 31 49  1  0
 32 50  1  0
M  CHG  3   2  -1  17  -1  23  -1
M  END
>  <UniqueID>  (95) 
91

>  <SMILES>  (95) 
C[N-]C(=O)c1cc(Oc2cccc(NC(=O)[N-]c3cccc([N-]S(C)(=O)=O)c3F)c2)ccn1

>  <Energy>  (95) 
64.10902845449354

>  <Genealogy>  (95) 
C[N-]C(=O)c1cc(Oc2cccc(NC(=O)[N-]c3cccc([N-]S(C)(=O)=O)c3F)c2)ccn1 (protonated)
C[N-]C(=O)c1cc(Oc2cccc(NC(=O)[N-]c3cccc([N-]S(C)(=O)=O)c3F)c2)ccn1 (3D coordinates assigned)
C[N-]C(=O)c1cc(Oc2cccc(NC(=O)[N-]c3cccc([N-]S(C)(=O)=O)c3F)c2)ccn1 (optimized conformer: 64.10902845449354 kcal/mol)

>  <smiles>  (95) 
CNC(=O)c1cc(Oc2cccc(NC(=O)Nc3cccc(NS(C)(=O)=O)c3F)c2)ccn1

>  <score_type>  (95) 
oracle

>  <origin>  (95) 
adg

>  <m_score__min__energy>  (95) 
-15.199999999999999

>  <m_primary>  (95) 
energy

$$$$
