0:0
     RDKit          3D

 30 31  0  0  0  0  0  0  0  0999 V2000
   65.0650   32.3350   50.0820 C   0  0  0  0  0  0  0  0  0  0  0  0
   64.8690   33.2680   49.0250 O   0  0  0  0  0  0  0  0  0  0  0  0
   63.6270   33.5460   48.4340 C   0  0  0  0  0  0  0  0  0  0  0  0
   62.5650   33.9260   49.2640 C   0  0  0  0  0  0  0  0  0  0  0  0
   61.3080   34.2100   48.7240 C   0  0  0  0  0  0  0  0  0  0  0  0
   61.0900   34.1120   47.3460 C   0  0  0  0  0  0  0  0  0  0  0  0
   59.8140   34.4120   46.8440 O   0  0  0  0  0  0  0  0  0  0  0  0
   59.0020   33.5140   46.1350 C   0  0  0  0  0  0  0  0  0  0  0  0
   58.5710   33.8720   44.8550 C   0  0  0  0  0  0  0  0  0  0  0  0
   57.7650   33.0080   44.1100 C   0  0  0  0  0  0  0  0  0  0  0  0
   57.3620   31.7710   44.6420 C   0  0  0  0  0  0  0  0  0  0  0  0
   56.5320   30.8790   43.8760 N   0  0  0  0  0  0  0  0  0  0  0  0
   56.6740   30.7800   42.6400 O   0  0  0  0  0  0  0  0  0  0  0  0
   55.5670   30.1160   44.4950 O   0  0  0  0  0  0  0  0  0  0  0  0
   57.7740   31.4220   45.9410 C   0  0  0  0  0  0  0  0  0  0  0  0
   58.5830   32.2870   46.6910 C   0  0  0  0  0  0  0  0  0  0  0  0
   58.9270   31.9230   48.0440 C   0  0  0  0  0  0  0  0  0  0  0  0
   59.2030   31.6330   49.1290 N   0  0  0  0  0  0  0  0  0  0  0  0
   62.1570   33.7460   46.5060 C   0  0  0  0  0  0  0  0  0  0  0  0
   63.4140   33.4600   47.0450 C   0  0  0  0  0  0  0  0  0  0  0  0
   64.9572   32.8483   51.0489 H   0  0  0  0  0  0  0  0  0  0  0  0
   64.3157   31.5332   50.0070 H   0  0  0  0  0  0  0  0  0  0  0  0
   66.0736   31.9025   50.0070 H   0  0  0  0  0  0  0  0  0  0  0  0
   62.7217   34.0015   50.3502 H   0  0  0  0  0  0  0  0  0  0  0  0
   60.4843   34.5127   49.3872 H   0  0  0  0  0  0  0  0  0  0  0  0
   58.8688   34.8421   44.4305 H   0  0  0  0  0  0  0  0  0  0  0  0
   57.4431   33.2980   43.0989 H   0  0  0  0  0  0  0  0  0  0  0  0
   57.4582   30.4607   46.3726 H   0  0  0  0  0  0  0  0  0  0  0  0
   62.0011   33.6846   45.4188 H   0  0  0  0  0  0  0  0  0  0  0  0
   64.2406   33.1664   46.3813 H   0  0  0  0  0  0  0  0  0  0  0  0
  1  2  1  0
  2  3  1  0
  3  4  2  0
  4  5  1  0
  5  6  2  0
  6  7  1  0
  7  8  1  0
  8  9  2  0
  9 10  1  0
 10 11  2  0
 11 12  1  0
 12 13  2  0
 12 14  1  0
 11 15  1  0
 15 16  2  0
 16 17  1  0
 17 18  3  0
  6 19  1  0
 19 20  2  0
 20  3  1  0
 16  8  1  0
  1 21  1  0
  1 22  1  0
  1 23  1  0
  4 24  1  0
  5 25  1  0
  9 26  1  0
 10 27  1  0
 15 28  1  0
 19 29  1  0
 20 30  1  0
M  CHG  2  12   1  14  -1
M  END
>  <UniqueID>  (1) 
1

>  <SMILES>  (1) 
COc1ccc(Oc2ccc([N+](=O)[O-])cc2C#N)cc1

>  <Energy>  (1) 
39.024606583829524

>  <Genealogy>  (1) 
COc1ccc(Oc2ccc([N+](=O)[O-])cc2C#N)cc1 (3D coordinates assigned)
COc1ccc(Oc2ccc([N+](=O)[O-])cc2C#N)cc1 (optimized conformer: 39.024606583829524 kcal/mol)

>  <smiles>  (1) 
COc1ccc(Oc2ccc([N+](=O)[O-])cc2C#N)cc1

>  <score_type>  (1) 
oracle

>  <origin>  (1) 
adg

>  <m_score__min__energy>  (1) 
-6.3099999999999996

>  <m_primary>  (1) 
energy

$$$$
1:0
     RDKit          3D

 43 46  0  0  0  0  0  0  0  0999 V2000
   58.9080   28.9110   46.7260 N   0  0  0  0  0  0  0  0  0  0  0  0
   57.9250   29.2060   45.9330 C   0  0  0  0  0  0  0  0  0  0  0  0
   57.0300   28.2870   45.4110 C   0  0  0  0  0  0  0  0  0  0  0  0
   57.0120   26.8110   45.5540 C   0  0  0  0  0  0  0  0  0  0  0  0
   58.1440   26.0390   45.2340 C   0  0  0  0  0  0  0  0  0  0  0  0
   58.1130   24.6480   45.3670 C   0  0  0  0  0  0  0  0  0  0  0  0
   56.9530   24.0070   45.8140 C   0  0  0  0  0  0  0  0  0  0  0  0
   56.9270   22.2550   45.9960 S   0  0  0  0  0  0  0  0  0  0  0  0
   57.3720   21.8360   47.6120 N   0  0  0  0  0  0  0  0  0  0  0  0
   57.8930   21.6290   45.0290 O   0  0  0  0  0  0  0  0  0  0  0  0
   55.5480   21.7310   45.7060 O   0  0  0  0  0  0  0  0  0  0  0  0
   55.8220   24.7680   46.1330 C   0  0  0  0  0  0  0  0  0  0  0  0
   55.8490   26.1590   45.9990 C   0  0  0  0  0  0  0  0  0  0  0  0
   56.1020   29.0690   44.7420 C   0  0  0  0  0  0  0  0  0  0  0  0
   56.4400   30.3700   44.8500 N   0  0  0  0  0  0  0  0  0  0  0  0
   57.5490   30.4560   45.5700 N   0  0  0  0  0  0  0  0  0  0  0  0
   58.1800   31.7160   45.8530 C   0  0  0  0  0  0  0  0  0  0  0  0
   59.3970   31.8470   46.4240 N   0  0  0  0  0  0  0  0  0  0  0  0
   59.7840   33.1490   46.5300 C   0  0  0  0  0  0  0  0  0  0  0  0
   61.0870   33.5180   47.1460 C   0  0  0  0  0  0  0  0  0  0  0  0
   62.1760   33.8510   46.3210 C   0  0  0  0  0  0  0  0  0  0  0  0
   63.4120   34.1860   46.8780 C   0  0  0  0  0  0  0  0  0  0  0  0
   63.5760   34.2110   48.2630 C   0  0  0  0  0  0  0  0  0  0  0  0
   62.4950   33.9190   49.1100 C   0  0  0  0  0  0  0  0  0  0  0  0
   62.6790   33.9030   50.6080 C   0  0  0  0  0  0  0  0  0  0  0  0
   63.4030   35.0060   51.0260 F   0  0  0  0  0  0  0  0  0  0  0  0
   63.3590   32.7550   50.9710 F   0  0  0  0  0  0  0  0  0  0  0  0
   61.4530   33.9230   51.2500 F   0  0  0  0  0  0  0  0  0  0  0  0
   61.2590   33.5520   48.5450 C   0  0  0  0  0  0  0  0  0  0  0  0
   58.8580   34.0680   46.0230 C   0  0  0  0  0  0  0  0  0  0  0  0
   57.5380   33.2090   45.4310 S   0  0  0  0  0  0  0  0  0  0  0  0
   59.6160   29.5960   47.0660 H   0  0  0  0  0  0  0  0  0  0  0  0
   59.0594   26.5335   44.8768 H   0  0  0  0  0  0  0  0  0  0  0  0
   59.0053   24.0545   45.1189 H   0  0  0  0  0  0  0  0  0  0  0  0
   57.7930   20.8810   47.5740 H   0  0  0  0  0  0  0  0  0  0  0  0
   54.9089   24.2694   46.4904 H   0  0  0  0  0  0  0  0  0  0  0  0
   54.9529   26.7482   46.2438 H   0  0  0  0  0  0  0  0  0  0  0  0
   55.2222   28.6862   44.2039 H   0  0  0  0  0  0  0  0  0  0  0  0
   62.0533   33.8476   45.2279 H   0  0  0  0  0  0  0  0  0  0  0  0
   64.2600   34.4312   46.2217 H   0  0  0  0  0  0  0  0  0  0  0  0
   64.5569   34.4607   48.6936 H   0  0  0  0  0  0  0  0  0  0  0  0
   60.4175   33.2887   49.2027 H   0  0  0  0  0  0  0  0  0  0  0  0
   58.9733   35.1619   46.0133 H   0  0  0  0  0  0  0  0  0  0  0  0
  1  2  2  3
  2  3  1  0
  3  4  1  0
  4  5  2  0
  5  6  1  0
  6  7  2  0
  7  8  1  0
  8  9  1  0
  8 10  2  0
  8 11  2  0
  7 12  1  0
 12 13  2  0
  3 14  2  0
 14 15  1  0
 15 16  1  0
 16 17  1  0
 17 18  2  0
 18 19  1  0
 19 20  1  0
 20 21  2  0
 21 22  1  0
 22 23  2  0
 23 24  1  0
 24 25  1  0
 25 26  1  0
 25 27  1  0
 25 28  1  0
 24 29  2  0
 19 30  2  0
 30 31  1  0
 16  2  1  0
 31 17  1  0
 13  4  1  0
 29 20  1  0
  1 32  1  0
  5 33  1  0
  6 34  1  0
  9 35  1  0
 12 36  1  0
 13 37  1  0
 14 38  1  0
 21 39  1  0
 22 40  1  0
 23 41  1  0
 29 42  1  0
 30 43  1  0
M  CHG  2   9  -1  15  -1
M  END
>  <UniqueID>  (2) 
2

>  <SMILES>  (2) 
N=c1c(-c2ccc(S([NH-])(=O)=O)cc2)c[n-]n1-c1nc(-c2cccc(C(F)(F)F)c2)cs1

>  <Energy>  (2) 
119.59650876962233

>  <Genealogy>  (2) 
N=c1c(-c2ccc(S([NH-])(=O)=O)cc2)c[n-]n1-c1nc(-c2cccc(C(F)(F)F)c2)cs1 (protonated)
N=c1c(-c2ccc(S([NH-])(=O)=O)cc2)c[n-]n1-c1nc(-c2cccc(C(F)(F)F)c2)cs1 (3D coordinates assigned)
N=c1c(-c2ccc(S([NH-])(=O)=O)cc2)c[n-]n1-c1nc(-c2cccc(C(F)(F)F)c2)cs1 (optimized conformer: 119.59650876962233 kcal/mol)

>  <smiles>  (2) 
N=c1c(-c2ccc(S(N)(=O)=O)cc2)c[nH]n1-c1nc(-c2cccc(C(F)(F)F)c2)cs1

>  <score_type>  (2) 
oracle

>  <origin>  (2) 
adg

>  <m_score__min__energy>  (2) 
-10.619999999999999

>  <m_primary>  (2) 
energy

$$$$
2:0
     RDKit          3D

 39 41  0  0  1  0  0  0  0  0999 V2000
   56.4760   30.9350   44.5960 O   0  0  0  0  0  0  0  0  0  0  0  0
   57.6320   31.1200   44.9740 C   0  0  0  0  0  0  0  0  0  0  0  0
   58.4840   29.9500   45.0350 N   0  0  0  0  0  0  0  0  0  0  0  0
   58.0150   28.8010   45.3990 C   0  0  0  0  0  0  0  0  0  0  0  0
   58.5510   27.9330   46.3250 C   0  0  0  0  0  0  0  0  0  0  0  0
   57.6880   26.8560   46.3550 C   0  0  0  0  0  0  0  0  0  0  0  0
   57.8070   25.6390   47.1920 C   0  0  0  0  0  0  0  0  0  0  0  0
   56.4990   25.0160   47.1920 N   0  0  0  0  0  0  0  0  0  0  0  0
   56.0060   24.4430   46.1420 C   0  0  0  0  0  0  0  0  0  0  0  0
   54.6840   24.6870   45.9180 N   0  0  0  0  0  0  0  0  0  0  0  0
   54.0380   24.1520   44.8590 C   0  0  0  0  0  0  0  0  0  0  0  0
   54.7790   23.3460   44.0140 C   0  0  0  0  0  0  0  0  0  0  0  0
   56.1350   23.0920   44.2390 C   0  0  0  0  0  0  0  0  0  0  0  0
   56.7290   23.6610   45.3250 N   0  0  0  0  0  0  0  0  0  0  0  0
   56.6670   27.0710   45.4760 N   0  0  0  0  0  0  0  0  0  0  0  0
   56.8830   28.2470   44.9110 N   0  0  0  0  0  0  0  0  0  0  0  0
   58.2280   32.3840   45.3670 C   0  0  0  0  0  0  0  0  0  0  0  0
   58.0150   33.5190   44.5780 C   0  0  0  0  0  0  0  0  0  0  0  0
   58.5480   34.7430   44.8700 C   0  0  0  0  0  0  0  0  0  0  0  0
   59.3340   34.8840   45.9880 C   0  0  0  0  0  0  0  0  0  0  0  0
   59.5550   33.7960   46.7690 C   0  0  0  0  0  0  0  0  0  0  0  0
   59.0240   32.5280   46.4970 C   0  0  0  0  0  0  0  0  0  0  0  0
   59.3000   31.4010   47.4030 C   0  0  0  0  0  0  0  0  0  0  0  0
   58.1970   30.6280   47.6990 F   0  0  0  0  0  0  0  0  0  0  0  0
   59.7340   31.9150   48.6130 F   0  0  0  0  0  0  0  0  0  0  0  0
   60.3390   30.6040   46.9380 F   0  0  0  0  0  0  0  0  0  0  0  0
   59.4699   28.0691   46.9142 H   0  0  0  0  0  0  0  0  0  0  0  0
   58.5548   24.9546   46.7649 H   0  0  0  0  0  0  0  0  0  0  0  0
   58.1320   25.8864   48.2134 H   0  0  0  0  0  0  0  0  0  0  0  0
   52.9711   24.3485   44.6771 H   0  0  0  0  0  0  0  0  0  0  0  0
   54.2877   22.8923   43.1407 H   0  0  0  0  0  0  0  0  0  0  0  0
   56.7085   22.4483   43.5558 H   0  0  0  0  0  0  0  0  0  0  0  0
   57.7570   23.4950   45.5310 H   0  0  0  0  0  0  0  0  0  0  0  0
   55.8560   26.4080   45.2890 H   0  0  0  0  0  0  0  0  0  0  0  0
   56.2840   28.7020   44.1930 H   0  0  0  0  0  0  0  0  0  0  0  0
   57.3883   33.4218   43.6792 H   0  0  0  0  0  0  0  0  0  0  0  0
   58.3499   35.6058   44.2171 H   0  0  0  0  0  0  0  0  0  0  0  0
   59.7751   35.8584   46.2449 H   0  0  0  0  0  0  0  0  0  0  0  0
   60.1845   33.9160   47.6631 H   0  0  0  0  0  0  0  0  0  0  0  0
  1  2  2  0
  2  3  1  0
  3  4  2  0
  4  5  1  0
  5  6  2  0
  6  7  1  0
  7  8  1  0
  8  9  2  3
  9 10  1  0
 10 11  2  0
 11 12  1  0
 12 13  2  0
 13 14  1  0
  6 15  1  0
 15 16  1  0
  2 17  1  0
 17 18  2  0
 18 19  1  0
 19 20  2  0
 20 21  1  0
 21 22  2  0
 22 23  1  0
 23 24  1  0
 23 25  1  0
 23 26  1  0
 16  4  1  0
 22 17  1  0
 14  9  1  0
  5 27  1  0
  7 28  1  0
  7 29  1  0
 11 30  1  0
 12 31  1  0
 13 32  1  0
 14 33  1  0
 15 34  1  0
 16 35  1  0
 18 36  1  0
 19 37  1  0
 20 38  1  0
 21 39  1  0
M  END
>  <smiles>  (3) 
O=C(N=c1cc(CN=c2nccc[nH]2)[nH][nH]1)c1ccccc1C(F)(F)F

>  <score_type>  (3) 
oracle

>  <origin>  (3) 
adg

>  <m_score__min__energy>  (3) 
-7.5300000000000002

>  <m_primary>  (3) 
energy

$$$$
3:0
     RDKit          3D

 53 56  0  0  0  0  0  0  0  0999 V2000
   58.2850   26.4610   44.6130 C   0  0  0  0  0  0  0  0  0  0  0  0
   58.8000   27.5270   45.5330 C   0  0  0  0  0  0  0  0  0  0  0  0
   58.8490   28.8780   45.1050 C   0  0  0  0  0  0  0  0  0  0  0  0
   59.3650   29.8790   45.9470 C   0  0  0  0  0  0  0  0  0  0  0  0
   59.8470   29.4950   47.2000 C   0  0  0  0  0  0  0  0  0  0  0  0
   59.7950   28.1910   47.6200 C   0  0  0  0  0  0  0  0  0  0  0  0
   60.2870   28.1440   48.9100 C   0  0  0  0  0  0  0  0  0  0  0  0
   60.6230   29.4560   49.2270 C   0  0  0  0  0  0  0  0  0  0  0  0
   60.3610   30.2680   48.1750 N   0  0  0  0  0  0  0  0  0  0  0  0
   60.5660   31.6610   48.1380 N   0  0  0  0  0  0  0  0  0  0  0  0
   61.7670   32.2120   47.5150 C   0  0  0  0  0  0  0  0  0  0  0  0
   61.3800   33.4120   46.6500 C   0  0  0  0  0  0  0  0  0  0  0  0
   60.5330   34.3960   47.3680 N   0  0  0  0  0  0  0  0  0  0  0  0
   59.5170   35.0390   46.5080 C   0  0  0  0  0  0  0  0  0  0  0  0
   59.1680   34.2200   45.2520 C   0  0  0  0  0  0  0  0  0  0  0  0
   58.0480   33.3080   45.5400 N   0  0  0  0  0  0  0  0  0  0  0  0
   57.3310   33.4660   46.8090 C   0  0  0  0  0  0  0  0  0  0  0  0
   57.5850   32.3790   44.5250 C   0  0  0  0  0  0  0  0  0  0  0  0
   57.9460   32.5240   43.1690 C   0  0  0  0  0  0  0  0  0  0  0  0
   57.4650   31.6110   42.2260 C   0  0  0  0  0  0  0  0  0  0  0  0
   56.6320   30.5630   42.6260 C   0  0  0  0  0  0  0  0  0  0  0  0
   56.2870   30.4450   43.9730 C   0  0  0  0  0  0  0  0  0  0  0  0
   56.7640   31.3410   44.8770 N   0  0  0  0  0  0  0  0  0  0  0  0
   60.0600   34.0240   48.7230 C   0  0  0  0  0  0  0  0  0  0  0  0
   59.6350   32.5490   48.8390 C   0  0  0  0  0  0  0  0  0  0  0  0
   59.2890   27.1770   46.8110 C   0  0  0  0  0  0  0  0  0  0  0  0
   57.8822   25.6273   45.2069 H   0  0  0  0  0  0  0  0  0  0  0  0
   57.4888   26.8775   43.9786 H   0  0  0  0  0  0  0  0  0  0  0  0
   59.1062   26.0961   43.9786 H   0  0  0  0  0  0  0  0  0  0  0  0
   58.4796   29.1457   44.1041 H   0  0  0  0  0  0  0  0  0  0  0  0
   59.3882   30.9316   45.6286 H   0  0  0  0  0  0  0  0  0  0  0  0
   60.3911   27.2563   49.5512 H   0  0  0  0  0  0  0  0  0  0  0  0
   61.0400   29.7856   50.1901 H   0  0  0  0  0  0  0  0  0  0  0  0
   62.4719   32.5335   48.2958 H   0  0  0  0  0  0  0  0  0  0  0  0
   62.2438   31.4437   46.8886 H   0  0  0  0  0  0  0  0  0  0  0  0
   62.2997   33.9167   46.3193 H   0  0  0  0  0  0  0  0  0  0  0  0
   60.7930   33.0301   45.8017 H   0  0  0  0  0  0  0  0  0  0  0  0
   58.5994   35.1791   47.0983 H   0  0  0  0  0  0  0  0  0  0  0  0
   59.9417   35.9936   46.1640 H   0  0  0  0  0  0  0  0  0  0  0  0
   58.8812   34.9037   44.4394 H   0  0  0  0  0  0  0  0  0  0  0  0
   60.0459   33.6296   44.9507 H   0  0  0  0  0  0  0  0  0  0  0  0
   58.0283   33.3123   47.6457 H   0  0  0  0  0  0  0  0  0  0  0  0
   56.9066   34.4792   46.8667 H   0  0  0  0  0  0  0  0  0  0  0  0
   56.5201   32.7250   46.8667 H   0  0  0  0  0  0  0  0  0  0  0  0
   58.6016   33.3499   42.8558 H   0  0  0  0  0  0  0  0  0  0  0  0
   57.7428   31.7179   41.1670 H   0  0  0  0  0  0  0  0  0  0  0  0
   56.2530   29.8402   41.8885 H   0  0  0  0  0  0  0  0  0  0  0  0
   55.6294   29.6273   44.3030 H   0  0  0  0  0  0  0  0  0  0  0  0
   60.8737   34.2097   49.4395 H   0  0  0  0  0  0  0  0  0  0  0  0
   59.1708   34.6357   48.9357 H   0  0  0  0  0  0  0  0  0  0  0  0
   59.6068   32.2685   49.9023 H   0  0  0  0  0  0  0  0  0  0  0  0
   58.6428   32.4402   48.3767 H   0  0  0  0  0  0  0  0  0  0  0  0
   59.2706   26.1331   47.1573 H   0  0  0  0  0  0  0  0  0  0  0  0
  1  2  1  0
  2  3  2  0
  3  4  1  0
  4  5  2  0
  5  6  1  0
  6  7  1  0
  7  8  2  0
  8  9  1  0
  9 10  1  0
 10 11  1  0
 11 12  1  0
 12 13  1  0
 13 14  1  0
 14 15  1  0
 15 16  1  0
 16 17  1  0
 16 18  1  0
 18 19  2  0
 19 20  1  0
 20 21  2  0
 21 22  1  0
 22 23  2  0
 13 24  1  0
 24 25  1  0
  6 26  2  0
 26  2  1  0
  9  5  1  0
 25 10  1  0
 23 18  1  0
  1 27  1  0
  1 28  1  0
  1 29  1  0
  3 30  1  0
  4 31  1  0
  7 32  1  0
  8 33  1  0
 11 34  1  0
 11 35  1  0
 12 36  1  0
 12 37  1  0
 14 38  1  0
 14 39  1  0
 15 40  1  0
 15 41  1  0
 17 42  1  0
 17 43  1  0
 17 44  1  0
 19 45  1  0
 20 46  1  0
 21 47  1  0
 22 48  1  0
 24 49  1  0
 24 50  1  0
 25 51  1  0
 25 52  1  0
 26 53  1  0
M  END
>  <UniqueID>  (4) 
3

>  <SMILES>  (4) 
Cc1ccc2c(ccn2N2CCN(CCN(C)c3ccccn3)CC2)c1

>  <Energy>  (4) 
102.67266811771677

>  <Genealogy>  (4) 
Cc1ccc2c(ccn2N2CCN(CCN(C)c3ccccn3)CC2)c1 (3D coordinates assigned)
Cc1ccc2c(ccn2N2CCN(CCN(C)c3ccccn3)CC2)c1 (nonaromatic ring conformer: 102.67266811771677 kcal/mol)

>  <smiles>  (4) 
Cc1ccc2c(ccn2N2CCN(CCN(C)c3ccccn3)CC2)c1

>  <score_type>  (4) 
oracle

>  <origin>  (4) 
adg

>  <m_score__min__energy>  (4) 
-8.0899999999999999

>  <m_primary>  (4) 
energy

$$$$
4:0
     RDKit          3D

 44 46  0  0  0  0  0  0  0  0999 V2000
   54.7500   26.6960   47.1320 H   0  0  0  0  0  0  0  0  0  0  0  0
   55.0830   26.5970   46.1810 O   0  0  0  0  0  0  0  0  0  0  0  0
   56.3720   26.1790   45.9420 N   0  0  0  0  0  0  0  0  0  0  0  0
   57.2060   26.8570   45.2120 C   0  0  0  0  0  0  0  0  0  0  0  0
   57.5560   28.2650   45.5300 C   0  0  0  0  0  0  0  0  0  0  0  0
   56.7040   29.3140   45.1540 C   0  0  0  0  0  0  0  0  0  0  0  0
   55.7752   29.0956   44.6066 H   0  0  0  0  0  0  0  0  0  0  0  0
   57.0210   30.5990   45.4630 N   0  0  0  0  0  0  0  0  0  0  0  0
   58.1570   30.9250   46.1400 C   0  0  0  0  0  0  0  0  0  0  0  0
   58.4250   32.3030   46.4590 N   0  0  0  0  0  0  0  0  0  0  0  0
   58.0570   33.3920   45.5480 C   0  0  0  0  0  0  0  0  0  0  0  0
   57.7804   32.9687   44.5711 H   0  0  0  0  0  0  0  0  0  0  0  0
   57.2071   33.9427   45.9774 H   0  0  0  0  0  0  0  0  0  0  0  0
   59.2390   34.3650   45.3630 C   0  0  0  0  0  0  0  0  0  0  0  0
   59.8249   34.0358   44.4922 H   0  0  0  0  0  0  0  0  0  0  0  0
   58.8074   35.3679   45.2288 H   0  0  0  0  0  0  0  0  0  0  0  0
   60.1500   34.4420   46.5380 N   0  0  0  0  0  0  0  0  0  0  0  0
   61.3900   33.6620   46.3430 C   0  0  0  0  0  0  0  0  0  0  0  0
   61.1456   32.7072   45.8546 H   0  0  0  0  0  0  0  0  0  0  0  0
   62.0822   34.2398   45.7129 H   0  0  0  0  0  0  0  0  0  0  0  0
   62.0440   33.3890   47.6660 C   0  0  0  0  0  0  0  0  0  0  0  0
   62.2190   34.4120   48.5490 N   0  0  0  0  0  0  0  0  0  0  0  0
   62.8140   34.2240   49.7570 C   0  0  0  0  0  0  0  0  0  0  0  0
   62.9378   35.0724   50.4462 H   0  0  0  0  0  0  0  0  0  0  0  0
   63.2680   32.9560   50.1240 C   0  0  0  0  0  0  0  0  0  0  0  0
   63.7498   32.7990   51.1003 H   0  0  0  0  0  0  0  0  0  0  0  0
   63.1040   31.8900   49.2390 C   0  0  0  0  0  0  0  0  0  0  0  0
   63.4572   30.8854   49.5149 H   0  0  0  0  0  0  0  0  0  0  0  0
   62.4900   32.1010   48.0010 C   0  0  0  0  0  0  0  0  0  0  0  0
   62.3578   31.2664   47.2968 H   0  0  0  0  0  0  0  0  0  0  0  0
   59.4710   34.0930   47.8050 C   0  0  0  0  0  0  0  0  0  0  0  0
   60.1844   34.2031   48.6350 H   0  0  0  0  0  0  0  0  0  0  0  0
   58.6127   34.7687   47.9343 H   0  0  0  0  0  0  0  0  0  0  0  0
   58.9480   32.6470   47.7840 C   0  0  0  0  0  0  0  0  0  0  0  0
   59.7709   31.9620   48.0361 H   0  0  0  0  0  0  0  0  0  0  0  0
   58.1350   32.5549   48.5192 H   0  0  0  0  0  0  0  0  0  0  0  0
   59.0180   29.9010   46.5630 C   0  0  0  0  0  0  0  0  0  0  0  0
   59.9266   30.1433   47.1338 H   0  0  0  0  0  0  0  0  0  0  0  0
   58.7160   28.5740   46.2560 C   0  0  0  0  0  0  0  0  0  0  0  0
   59.3890   27.7681   46.5840 H   0  0  0  0  0  0  0  0  0  0  0  0
   57.8980   26.1550   44.0830 C   0  0  0  0  0  0  0  0  0  0  0  0
   58.6157   25.4269   44.4889 H   0  0  0  0  0  0  0  0  0  0  0  0
   57.1535   25.6309   43.4657 H   0  0  0  0  0  0  0  0  0  0  0  0
   58.4327   26.8920   43.4657 H   0  0  0  0  0  0  0  0  0  0  0  0
  1  2  1  0
  2  3  1  0
  3  4  2  0
  4  5  1  0
  5  6  2  0
  6  7  1  0
  6  8  1  0
  8  9  2  0
  9 10  1  0
 10 11  1  0
 11 12  1  0
 11 13  1  0
 11 14  1  0
 14 15  1  0
 14 16  1  0
 14 17  1  0
 17 18  1  0
 18 19  1  0
 18 20  1  0
 18 21  1  0
 21 22  2  0
 22 23  1  0
 23 24  1  0
 23 25  2  0
 25 26  1  0
 25 27  1  0
 27 28  1  0
 27 29  2  0
 29 30  1  0
 17 31  1  0
 31 32  1  0
 31 33  1  0
 31 34  1  0
 34 35  1  0
 34 36  1  0
  9 37  1  0
 37 38  1  0
 37 39  2  0
 39 40  1  0
  4 41  1  0
 41 42  1  0
 41 43  1  0
 41 44  1  0
 39  5  1  0
 34 10  1  0
 29 21  1  0
M  END
>  <UniqueID>  (5) 
4

>  <SMILES>  (5) 
C/C(=N/O)c1ccc(N2CCN(Cc3ccccn3)CC2)nc1

>  <Energy>  (5) 
60.6302033314609

>  <Genealogy>  (5) 
C/C(=N/O)c1ccc(N2CCN(Cc3ccccn3)CC2)nc1 (cis-trans isomerization)
C/C(=N/O)c1ccc(N2CCN(Cc3ccccn3)CC2)nc1 (3D coordinates assigned)
C/C(=N/O)c1ccc(N2CCN(Cc3ccccn3)CC2)nc1 (nonaromatic ring conformer: 60.6302033314609 kcal/mol)

>  <smiles>  (5) 
CC(=NO)c1ccc(N2CCN(Cc3ccccn3)CC2)nc1

>  <score_type>  (5) 
oracle

>  <origin>  (5) 
adg

>  <m_score__min__energy>  (5) 
-8.9199999999999999

>  <m_primary>  (5) 
energy

$$$$
5:0
     RDKit          3D

 38 40  0  0  0  0  0  0  0  0999 V2000
   63.7680   32.5200   47.1100 C   0  0  0  0  0  0  0  0  0  0  0  0
   63.7300   33.8240   47.6090 C   0  0  0  0  0  0  0  0  0  0  0  0
   62.7280   34.2030   48.5070 C   0  0  0  0  0  0  0  0  0  0  0  0
   61.7600   33.2720   48.9200 C   0  0  0  0  0  0  0  0  0  0  0  0
   60.6560   33.6890   49.8570 C   0  0  0  0  0  0  0  0  0  0  0  0
   59.7160   34.5910   49.1760 N   0  0  0  0  0  0  0  0  0  0  0  0
   59.2600   33.9930   47.9480 C   0  0  0  0  0  0  0  0  0  0  0  0
   59.6070   34.5490   46.7070 C   0  0  0  0  0  0  0  0  0  0  0  0
   59.1830   33.9420   45.5230 C   0  0  0  0  0  0  0  0  0  0  0  0
   58.4140   32.7680   45.5810 C   0  0  0  0  0  0  0  0  0  0  0  0
   57.9580   32.1110   44.3840 N   0  0  0  0  0  0  0  0  0  0  0  0
   58.1390   32.6530   43.0580 C   0  0  0  0  0  0  0  0  0  0  0  0
   57.3870   31.6940   42.1520 C   0  0  0  0  0  0  0  0  0  0  0  0
   57.0850   30.4840   42.9270 N   0  0  0  0  0  0  0  0  0  0  0  0
   57.2690   30.8350   44.3380 C   0  0  0  0  0  0  0  0  0  0  0  0
   58.1010   32.2390   46.7970 N   0  0  0  0  0  0  0  0  0  0  0  0
   58.5020   32.8120   47.9630 C   0  0  0  0  0  0  0  0  0  0  0  0
   61.7940   31.9670   48.4020 C   0  0  0  0  0  0  0  0  0  0  0  0
   62.7980   31.5920   47.5050 C   0  0  0  0  0  0  0  0  0  0  0  0
   64.5600   32.2227   46.4069 H   0  0  0  0  0  0  0  0  0  0  0  0
   64.4902   34.5543   47.2947 H   0  0  0  0  0  0  0  0  0  0  0  0
   62.6972   35.2332   48.8915 H   0  0  0  0  0  0  0  0  0  0  0  0
   60.1153   32.7946   50.2001 H   0  0  0  0  0  0  0  0  0  0  0  0
   61.0979   34.2173   50.7147 H   0  0  0  0  0  0  0  0  0  0  0  0
   60.1880   35.5030   48.9690 H   0  0  0  0  0  0  0  0  0  0  0  0
   58.8980   34.7850   49.8000 H   0  0  0  0  0  0  0  0  0  0  0  0
   60.2145   35.4652   46.6669 H   0  0  0  0  0  0  0  0  0  0  0  0
   59.4498   34.3808   44.5502 H   0  0  0  0  0  0  0  0  0  0  0  0
   57.7151   33.6658   42.9903 H   0  0  0  0  0  0  0  0  0  0  0  0
   59.2003   32.7439   42.7835 H   0  0  0  0  0  0  0  0  0  0  0  0
   56.4521   32.1604   41.8078 H   0  0  0  0  0  0  0  0  0  0  0  0
   57.9955   31.4427   41.2708 H   0  0  0  0  0  0  0  0  0  0  0  0
   57.7990   29.7590   42.6790 H   0  0  0  0  0  0  0  0  0  0  0  0
   56.2911   30.9181   44.8349 H   0  0  0  0  0  0  0  0  0  0  0  0
   57.8530   30.0606   44.8568 H   0  0  0  0  0  0  0  0  0  0  0  0
   58.2310   32.3477   48.9227 H   0  0  0  0  0  0  0  0  0  0  0  0
   61.0278   31.2375   48.7033 H   0  0  0  0  0  0  0  0  0  0  0  0
   62.8257   30.5661   47.1090 H   0  0  0  0  0  0  0  0  0  0  0  0
  1  2  2  0
  2  3  1  0
  3  4  2  0
  4  5  1  0
  5  6  1  0
  6  7  1  0
  7  8  2  0
  8  9  1  0
  9 10  2  0
 10 11  1  0
 11 12  1  0
 12 13  1  0
 13 14  1  0
 14 15  1  0
 10 16  1  0
 16 17  2  0
  4 18  1  0
 18 19  2  0
 19  1  1  0
 17  7  1  0
 15 11  1  0
  1 20  1  0
  2 21  1  0
  3 22  1  0
  5 23  1  0
  5 24  1  0
  6 25  1  0
  6 26  1  0
  8 27  1  0
  9 28  1  0
 12 29  1  0
 12 30  1  0
 13 31  1  0
 13 32  1  0
 14 33  1  0
 15 34  1  0
 15 35  1  0
 17 36  1  0
 18 37  1  0
 19 38  1  0
M  CHG  1   6   1
M  END
>  <UniqueID>  (6) 
5

>  <SMILES>  (6) 
c1ccc(C[NH2+]c2ccc(N3CCNC3)nc2)cc1

>  <Energy>  (6) 
40.26218740867555

>  <Genealogy>  (6) 
c1ccc(C[NH2+]c2ccc(N3CCNC3)nc2)cc1 (protonated)
c1ccc(C[NH2+]c2ccc(N3CCNC3)nc2)cc1 (3D coordinates assigned)
c1ccc(C[NH2+]c2ccc(N3CCNC3)nc2)cc1 (nonaromatic ring conformer: 40.26218740867555 kcal/mol)

>  <smiles>  (6) 
c1ccc(CNc2ccc(N3CCNC3)nc2)cc1

>  <score_type>  (6) 
oracle

>  <origin>  (6) 
adg

>  <m_score__min__energy>  (6) 
-5.4500000000000002

>  <m_primary>  (6) 
energy

$$$$
6:0
     RDKit          3D

 58 62  0  0  0  0  0  0  0  0999 V2000
   59.2619   26.3554   43.5707 H   0  0  0  0  0  0  0  0  0  0  0  0
   58.9260   27.0530   44.3520 C   0  0  0  0  0  0  0  0  0  0  0  0
   57.8730   27.9300   44.0930 C   0  0  0  0  0  0  0  0  0  0  0  0
   57.3893   27.9265   43.1051 H   0  0  0  0  0  0  0  0  0  0  0  0
   57.4250   28.8200   45.0880 C   0  0  0  0  0  0  0  0  0  0  0  0
   56.3310   29.7770   44.8050 C   0  0  0  0  0  0  0  0  0  0  0  0
   55.1300   29.3940   44.8770 O   0  0  0  0  0  0  0  0  0  0  0  0
   56.6410   31.1400   44.4680 N   0  0  0  0  0  0  0  0  0  0  0  0
   57.4320   31.9350   45.1270 C   0  0  0  0  0  0  0  0  0  0  0  0
   58.7110   31.6280   45.4650 N   0  0  0  0  0  0  0  0  0  0  0  0
   59.2880   32.6620   46.1280 C   0  0  0  0  0  0  0  0  0  0  0  0
   60.6010   32.6590   46.6010 C   0  0  0  0  0  0  0  0  0  0  0  0
   61.2464   31.7798   46.4577 H   0  0  0  0  0  0  0  0  0  0  0  0
   61.0830   33.8010   47.2640 C   0  0  0  0  0  0  0  0  0  0  0  0
   62.1157   33.8184   47.6424 H   0  0  0  0  0  0  0  0  0  0  0  0
   60.2500   34.9250   47.4470 C   0  0  0  0  0  0  0  0  0  0  0  0
   60.6357   35.8123   47.9703 H   0  0  0  0  0  0  0  0  0  0  0  0
   58.9320   34.9170   46.9650 C   0  0  0  0  0  0  0  0  0  0  0  0
   58.2754   35.7892   47.0994 H   0  0  0  0  0  0  0  0  0  0  0  0
   58.4790   33.7740   46.3120 C   0  0  0  0  0  0  0  0  0  0  0  0
   56.9720   33.4820   45.6310 S   0  0  0  0  0  0  0  0  0  0  0  0
   58.0520   28.8050   46.3480 C   0  0  0  0  0  0  0  0  0  0  0  0
   57.7056   29.4889   47.1369 H   0  0  0  0  0  0  0  0  0  0  0  0
   59.1160   27.9250   46.6080 C   0  0  0  0  0  0  0  0  0  0  0  0
   59.8310   27.9740   47.9330 C   0  0  0  0  0  0  0  0  0  0  0  0
   60.7268   27.3373   47.8860 H   0  0  0  0  0  0  0  0  0  0  0  0
   59.1529   27.6118   48.7197 H   0  0  0  0  0  0  0  0  0  0  0  0
   60.2330   29.3570   48.2450 N   0  0  0  0  0  0  0  0  0  0  0  0
   60.3150   29.9110   47.3610 H   0  0  0  0  0  0  0  0  0  0  0  0
   61.1690   29.3420   48.7100 H   0  0  0  0  0  0  0  0  0  0  0  0
   59.2860   30.0200   49.1570 C   0  0  0  0  0  0  0  0  0  0  0  0
   59.0739   29.3453   49.9995 H   0  0  0  0  0  0  0  0  0  0  0  0
   58.3727   30.2488   48.5882 H   0  0  0  0  0  0  0  0  0  0  0  0
   59.8330   31.3200   49.7000 C   0  0  0  0  0  0  0  0  0  0  0  0
   58.9670   32.2720   50.2590 C   0  0  0  0  0  0  0  0  0  0  0  0
   57.8837   32.0823   50.2807 H   0  0  0  0  0  0  0  0  0  0  0  0
   59.4770   33.4600   50.7880 C   0  0  0  0  0  0  0  0  0  0  0  0
   58.7947   34.2019   51.2285 H   0  0  0  0  0  0  0  0  0  0  0  0
   60.8510   33.7080   50.7590 C   0  0  0  0  0  0  0  0  0  0  0  0
   61.2461   34.6457   51.1768 H   0  0  0  0  0  0  0  0  0  0  0  0
   61.7310   32.7680   50.2000 C   0  0  0  0  0  0  0  0  0  0  0  0
   63.1860   33.0340   50.1530 C   0  0  0  0  0  0  0  0  0  0  0  0
   64.0700   32.8010   49.1120 C   0  0  0  0  0  0  0  0  0  0  0  0
   63.7590   32.2120   47.7730 C   0  0  0  0  0  0  0  0  0  0  0  0
   63.2492   31.2465   47.9066 H   0  0  0  0  0  0  0  0  0  0  0  0
   63.1053   32.8975   47.2138 H   0  0  0  0  0  0  0  0  0  0  0  0
   64.6938   32.0588   47.2138 H   0  0  0  0  0  0  0  0  0  0  0  0
   65.3080   33.1790   49.4850 N   0  0  0  0  0  0  0  0  0  0  0  0
   65.2190   33.6410   50.6990 O   0  0  0  0  0  0  0  0  0  0  0  0
   63.9870   33.5760   51.1440 C   0  0  0  0  0  0  0  0  0  0  0  0
   63.5710   34.0280   52.5060 C   0  0  0  0  0  0  0  0  0  0  0  0
   64.1091   33.4433   53.2666 H   0  0  0  0  0  0  0  0  0  0  0  0
   63.8097   35.0950   52.6270 H   0  0  0  0  0  0  0  0  0  0  0  0
   62.4879   33.8785   52.6270 H   0  0  0  0  0  0  0  0  0  0  0  0
   61.2140   31.5710   49.6770 C   0  0  0  0  0  0  0  0  0  0  0  0
   61.8970   30.8242   49.2459 H   0  0  0  0  0  0  0  0  0  0  0  0
   59.5560   27.0560   45.5980 C   0  0  0  0  0  0  0  0  0  0  0  0
   60.3991   26.3756   45.7883 H   0  0  0  0  0  0  0  0  0  0  0  0
  1  2  1  0
  2  3  2  0
  3  4  1  0
  3  5  1  0
  5  6  1  0
  6  7  2  0
  6  8  1  0
  8  9  2  0
  9 10  1  0
 10 11  1  0
 11 12  2  0
 12 13  1  0
 12 14  1  0
 14 15  1  0
 14 16  2  0
 16 17  1  0
 16 18  1  0
 18 19  1  0
 18 20  2  0
 20 21  1  0
  5 22  2  0
 22 23  1  0
 22 24  1  0
 24 25  1  0
 25 26  1  0
 25 27  1  0
 25 28  1  0
 28 29  1  0
 28 30  1  0
 28 31  1  0
 31 32  1  0
 31 33  1  0
 31 34  1  0
 34 35  2  0
 35 36  1  0
 35 37  1  0
 37 38  1  0
 37 39  2  0
 39 40  1  0
 39 41  1  0
 41 42  1  0
 42 43  1  0
 43 44  1  0
 44 45  1  0
 44 46  1  0
 44 47  1  0
 43 48  2  0
 48 49  1  0
 49 50  1  0
 50 51  1  0
 51 52  1  0
 51 53  1  0
 51 54  1  0
 41 55  2  0
 55 56  1  0
 24 57  2  0
 57 58  1  0
 57  2  1  0
 21  9  1  0
 55 34  1  0
 20 11  1  0
 50 42  2  0
M  CHG  2  10  -1  28   1
M  END
>  <UniqueID>  (7) 
6

>  <SMILES>  (7) 
Cc1noc(C)c1-c1cccc(C[NH2+]Cc2cccc(C(=O)/N=c3\[n-]c4ccccc4s3)c2)c1

>  <Energy>  (7) 
134.5218277579356

>  <Genealogy>  (7) 
Cc1noc(C)c1-c1cccc(C[NH2+]Cc2cccc(C(=O)N=c3[n-]c4ccccc4s3)c2)c1 (protonated)
Cc1noc(C)c1-c1cccc(C[NH2+]Cc2cccc(C(=O)/N=c3\[n-]c4ccccc4s3)c2)c1 (cis-trans isomerization)
Cc1noc(C)c1-c1cccc(C[NH2+]Cc2cccc(C(=O)/N=c3\[n-]c4ccccc4s3)c2)c1 (3D coordinates assigned)
Cc1noc(C)c1-c1cccc(C[NH2+]Cc2cccc(C(=O)/N=c3\[n-]c4ccccc4s3)c2)c1 (optimized conformer: 134.5218277579356 kcal/mol)

>  <smiles>  (7) 
Cc1noc(C)c1-c1cccc(CNCc2cccc(C(=O)N=c3[nH]c4ccccc4s3)c2)c1

>  <score_type>  (7) 
oracle

>  <origin>  (7) 
adg

>  <m_score__min__energy>  (7) 
-10.09

>  <m_primary>  (7) 
energy

$$$$
7:0
     RDKit          3D

 47 50  0  0  0  0  0  0  0  0999 V2000
   59.8815   28.3577   43.9687 H   0  0  0  0  0  0  0  0  0  0  0  0
   59.1560   28.5840   44.7640 C   0  0  0  0  0  0  0  0  0  0  0  0
   57.8940   28.3730   44.5550 N   0  0  0  0  0  0  0  0  0  0  0  0
   56.8250   29.6590   44.1050 S   0  0  0  0  0  0  0  0  0  0  0  0
   55.5400   29.5230   44.8710 O   0  0  0  0  0  0  0  0  0  0  0  0
   56.5370   29.5640   42.6310 O   0  0  0  0  0  0  0  0  0  0  0  0
   57.5650   31.2120   44.4830 C   0  0  0  0  0  0  0  0  0  0  0  0
   57.9290   32.0890   43.4530 C   0  0  0  0  0  0  0  0  0  0  0  0
   57.7450   31.8113   42.4047 H   0  0  0  0  0  0  0  0  0  0  0  0
   58.5250   33.3150   43.7550 C   0  0  0  0  0  0  0  0  0  0  0  0
   58.8084   34.0024   42.9444 H   0  0  0  0  0  0  0  0  0  0  0  0
   58.7620   33.6700   45.0860 C   0  0  0  0  0  0  0  0  0  0  0  0
   59.2341   34.6362   45.3177 H   0  0  0  0  0  0  0  0  0  0  0  0
   58.4030   32.8050   46.1260 C   0  0  0  0  0  0  0  0  0  0  0  0
   58.6810   33.1980   47.4770 N   0  0  0  0  0  0  0  0  0  0  0  0
   59.7320   34.4970   47.9430 S   0  0  0  0  0  0  0  0  0  0  0  0
   59.4410   34.8970   49.3630 O   0  0  0  0  0  0  0  0  0  0  0  0
   59.5080   35.6640   47.0210 O   0  0  0  0  0  0  0  0  0  0  0  0
   61.4150   33.9830   47.8300 C   0  0  0  0  0  0  0  0  0  0  0  0
   62.0360   33.8380   46.5770 C   0  0  0  0  0  0  0  0  0  0  0  0
   61.4661   34.0517   45.6607 H   0  0  0  0  0  0  0  0  0  0  0  0
   63.3740   33.4240   46.4800 C   0  0  0  0  0  0  0  0  0  0  0  0
   63.8419   33.3195   45.4900 H   0  0  0  0  0  0  0  0  0  0  0  0
   64.1180   33.1430   47.6320 C   0  0  0  0  0  0  0  0  0  0  0  0
   65.1669   32.8215   47.5516 H   0  0  0  0  0  0  0  0  0  0  0  0
   63.5150   33.2750   48.8830 C   0  0  0  0  0  0  0  0  0  0  0  0
   64.1690   33.0160   50.0430 N   0  0  0  0  0  0  0  0  0  0  0  0
   62.9680   33.3390   51.1340 S   0  0  0  0  0  0  0  0  0  0  0  0
   61.6500   33.7930   50.2430 N   0  0  0  0  0  0  0  0  0  0  0  0
   62.1580   33.6950   48.9860 C   0  0  0  0  0  0  0  0  0  0  0  0
   57.7890   31.5770   45.8180 C   0  0  0  0  0  0  0  0  0  0  0  0
   57.4831   30.8997   46.6290 H   0  0  0  0  0  0  0  0  0  0  0  0
   59.6350   29.1230   46.0520 C   0  0  0  0  0  0  0  0  0  0  0  0
   60.7460   29.9830   46.1200 C   0  0  0  0  0  0  0  0  0  0  0  0
   61.2658   30.2795   45.1970 H   0  0  0  0  0  0  0  0  0  0  0  0
   61.1930   30.4630   47.3550 C   0  0  0  0  0  0  0  0  0  0  0  0
   62.0628   31.1349   47.3986 H   0  0  0  0  0  0  0  0  0  0  0  0
   60.5360   30.0910   48.5420 C   0  0  0  0  0  0  0  0  0  0  0  0
   60.9500   30.5430   49.8050 O   0  0  0  0  0  0  0  0  0  0  0  0
   60.0800   31.1050   50.7820 C   0  0  0  0  0  0  0  0  0  0  0  0
   60.4537   30.8636   51.7880 H   0  0  0  0  0  0  0  0  0  0  0  0
   60.0444   32.1972   50.6564 H   0  0  0  0  0  0  0  0  0  0  0  0
   59.0697   30.6884   50.6564 H   0  0  0  0  0  0  0  0  0  0  0  0
   59.4300   29.2370   48.4710 C   0  0  0  0  0  0  0  0  0  0  0  0
   58.9081   28.9428   49.3935 H   0  0  0  0  0  0  0  0  0  0  0  0
   58.9830   28.7550   47.2390 C   0  0  0  0  0  0  0  0  0  0  0  0
   58.1137   28.0821   47.1986 H   0  0  0  0  0  0  0  0  0  0  0  0
  1  2  1  0
  2  3  2  0
  3  4  1  0
  4  5  2  0
  4  6  2  0
  4  7  1  0
  7  8  2  0
  8  9  1  0
  8 10  1  0
 10 11  1  0
 10 12  2  0
 12 13  1  0
 12 14  1  0
 14 15  1  0
 15 16  1  0
 16 17  2  0
 16 18  2  0
 16 19  1  0
 19 20  2  0
 20 21  1  0
 20 22  1  0
 22 23  1  0
 22 24  2  0
 24 25  1  0
 24 26  1  0
 26 27  2  0
 27 28  1  0
 28 29  1  0
 29 30  2  0
 14 31  2  0
 31 32  1  0
  2 33  1  0
 33 34  2  0
 34 35  1  0
 34 36  1  0
 36 37  1  0
 36 38  2  0
 38 39  1  0
 39 40  1  0
 40 41  1  0
 40 42  1  0
 40 43  1  0
 38 44  1  0
 44 45  1  0
 44 46  2  0
 46 47  1  0
 31  7  1  0
 46 33  1  0
 30 19  1  0
 30 26  1  0
M  CHG  1  15  -1
M  END
>  <UniqueID>  (8) 
7

>  <SMILES>  (8) 
COc1ccc(/C=N/S(=O)(=O)c2cccc([N-]S(=O)(=O)c3cccc4nsnc34)c2)cc1

>  <Energy>  (8) 
94.26423766284259

>  <Genealogy>  (8) 
COc1ccc(C=NS(=O)(=O)c2cccc([N-]S(=O)(=O)c3cccc4nsnc34)c2)cc1 (protonated)
COc1ccc(/C=N/S(=O)(=O)c2cccc([N-]S(=O)(=O)c3cccc4nsnc34)c2)cc1 (cis-trans isomerization)
COc1ccc(/C=N/S(=O)(=O)c2cccc([N-]S(=O)(=O)c3cccc4nsnc34)c2)cc1 (3D coordinates assigned)
COc1ccc(/C=N/S(=O)(=O)c2cccc([N-]S(=O)(=O)c3cccc4nsnc34)c2)cc1 (optimized conformer: 94.26423766284259 kcal/mol)

>  <smiles>  (8) 
COc1ccc(C=NS(=O)(=O)c2cccc(NS(=O)(=O)c3cccc4nsnc34)c2)cc1

>  <score_type>  (8) 
oracle

>  <origin>  (8) 
adg

>  <m_score__min__energy>  (8) 
-12.390000000000001

>  <m_primary>  (8) 
energy

$$$$
8:0
     RDKit          3D

 74 76  0  0  0  0  0  0  0  0999 V2000
   63.7070   33.7720   50.6260 C   0  0  0  0  0  0  0  0  0  0  0  0
   62.5670   34.0460   49.6480 C   0  0  0  0  0  0  0  0  0  0  0  0
   62.6820   33.1710   48.4590 N   0  0  0  0  0  0  0  0  0  0  0  0
   63.7700   33.6250   47.5510 C   0  0  0  0  0  0  0  0  0  0  0  0
   63.2160   33.8480   46.1480 C   0  0  0  0  0  0  0  0  0  0  0  0
   62.8690   31.7620   48.8780 C   0  0  0  0  0  0  0  0  0  0  0  0
   61.6930   30.9150   48.4670 C   0  0  0  0  0  0  0  0  0  0  0  0
   60.9740   30.1750   49.4200 C   0  0  0  0  0  0  0  0  0  0  0  0
   59.8880   29.3890   49.0270 C   0  0  0  0  0  0  0  0  0  0  0  0
   59.5080   29.3210   47.6740 C   0  0  0  0  0  0  0  0  0  0  0  0
   58.3690   28.4780   47.2550 C   0  0  0  0  0  0  0  0  0  0  0  0
   58.1640   27.3750   47.8320 O   0  0  0  0  0  0  0  0  0  0  0  0
   57.5040   28.9170   46.1980 N   0  0  0  0  0  0  0  0  0  0  0  0
   57.4050   28.3910   44.8310 C   0  0  2  0  0  0  0  0  0  0  0  0
   58.2470   27.1100   44.6180 C   0  0  0  0  0  0  0  0  0  0  0  0
   57.3950   25.8660   44.7100 C   0  0  0  0  0  0  0  0  0  0  0  0
   57.3830   24.9270   43.6640 C   0  0  0  0  0  0  0  0  0  0  0  0
   56.6410   23.7460   43.7840 C   0  0  0  0  0  0  0  0  0  0  0  0
   55.8970   23.5010   44.9400 C   0  0  0  0  0  0  0  0  0  0  0  0
   55.8920   24.4360   45.9790 C   0  0  0  0  0  0  0  0  0  0  0  0
   56.6360   25.6150   45.8650 C   0  0  0  0  0  0  0  0  0  0  0  0
   57.6190   29.4930   43.7500 C   0  0  2  0  0  0  0  0  0  0  0  0
   58.9000   30.0560   43.8980 O   0  0  0  0  0  0  0  0  0  0  0  0
   56.5870   30.6400   43.7460 C   0  0  0  0  0  0  0  0  0  0  0  0
   56.7750   31.5600   44.8770 N   0  0  0  0  0  0  0  0  0  0  0  0
   57.4320   32.8270   44.5020 C   0  0  0  0  0  0  0  0  0  0  0  0
   58.1970   33.3630   45.6830 C   0  0  0  0  0  0  0  0  0  0  0  0
   59.0680   34.4520   45.5170 C   0  0  0  0  0  0  0  0  0  0  0  0
   59.8060   34.9350   46.6000 C   0  0  0  0  0  0  0  0  0  0  0  0
   59.6870   34.3330   47.8550 C   0  0  0  0  0  0  0  0  0  0  0  0
   58.8250   33.2440   48.0410 C   0  0  0  0  0  0  0  0  0  0  0  0
   58.7490   32.6650   49.3160 O   0  0  0  0  0  0  0  0  0  0  0  0
   59.3650   33.2080   50.4830 C   0  0  0  0  0  0  0  0  0  0  0  0
   58.0720   32.7670   46.9500 C   0  0  0  0  0  0  0  0  0  0  0  0
   60.2330   30.0620   46.7230 C   0  0  0  0  0  0  0  0  0  0  0  0
   61.3130   30.8550   47.1190 C   0  0  0  0  0  0  0  0  0  0  0  0
   63.3349   33.8614   51.6573 H   0  0  0  0  0  0  0  0  0  0  0  0
   64.0938   32.7553   50.4627 H   0  0  0  0  0  0  0  0  0  0  0  0
   64.5136   34.5018   50.4627 H   0  0  0  0  0  0  0  0  0  0  0  0
   61.6066   33.8526   50.1482 H   0  0  0  0  0  0  0  0  0  0  0  0
   62.6211   35.0957   49.3237 H   0  0  0  0  0  0  0  0  0  0  0  0
   64.1923   34.5672   47.9304 H   0  0  0  0  0  0  0  0  0  0  0  0
   64.5544   32.8548   47.5124 H   0  0  0  0  0  0  0  0  0  0  0  0
   62.1976   34.2579   46.2168 H   0  0  0  0  0  0  0  0  0  0  0  0
   63.8608   34.5566   45.6075 H   0  0  0  0  0  0  0  0  0  0  0  0
   63.1900   32.8903   45.6075 H   0  0  0  0  0  0  0  0  0  0  0  0
   63.7803   31.3648   48.4071 H   0  0  0  0  0  0  0  0  0  0  0  0
   62.9564   31.7314   49.9741 H   0  0  0  0  0  0  0  0  0  0  0  0
   61.2670   30.2145   50.4795 H   0  0  0  0  0  0  0  0  0  0  0  0
   59.3257   28.8189   49.7811 H   0  0  0  0  0  0  0  0  0  0  0  0
   56.3649   28.0608   44.6922 H   0  0  0  0  0  0  0  0  0  0  0  0
   58.7141   27.1506   43.6229 H   0  0  0  0  0  0  0  0  0  0  0  0
   59.0114   27.0641   45.4077 H   0  0  0  0  0  0  0  0  0  0  0  0
   57.9591   25.1210   42.7472 H   0  0  0  0  0  0  0  0  0  0  0  0
   56.6440   23.0100   42.9665 H   0  0  0  0  0  0  0  0  0  0  0  0
   55.3149   22.5723   45.0330 H   0  0  0  0  0  0  0  0  0  0  0  0
   55.3022   24.2444   46.8875 H   0  0  0  0  0  0  0  0  0  0  0  0
   56.6267   26.3493   46.6840 H   0  0  0  0  0  0  0  0  0  0  0  0
   57.4935   28.9678   42.7917 H   0  0  0  0  0  0  0  0  0  0  0  0
   58.8310   30.7490   44.6100 H   0  0  0  0  0  0  0  0  0  0  0  0
   56.6898   31.2058   42.8083 H   0  0  0  0  0  0  0  0  0  0  0  0
   55.5857   30.1937   43.8366 H   0  0  0  0  0  0  0  0  0  0  0  0
   57.3800   31.0740   45.5800 H   0  0  0  0  0  0  0  0  0  0  0  0
   58.1249   32.6478   43.6667 H   0  0  0  0  0  0  0  0  0  0  0  0
   56.6703   33.5588   44.1951 H   0  0  0  0  0  0  0  0  0  0  0  0
   59.1695   34.9266   44.5299 H   0  0  0  0  0  0  0  0  0  0  0  0
   60.4826   35.7916   46.4644 H   0  0  0  0  0  0  0  0  0  0  0  0
   60.2738   34.7164   48.7027 H   0  0  0  0  0  0  0  0  0  0  0  0
   58.8870   32.7867   51.3797 H   0  0  0  0  0  0  0  0  0  0  0  0
   60.4353   32.9542   50.4845 H   0  0  0  0  0  0  0  0  0  0  0  0
   59.2475   34.3017   50.4845 H   0  0  0  0  0  0  0  0  0  0  0  0
   57.3815   31.9224   47.0906 H   0  0  0  0  0  0  0  0  0  0  0  0
   59.9480   30.0168   45.6615 H   0  0  0  0  0  0  0  0  0  0  0  0
   61.8687   31.4360   46.3682 H   0  0  0  0  0  0  0  0  0  0  0  0
  1  2  1  0
  2  3  1  0
  3  4  1  0
  4  5  1  0
  3  6  1  0
  6  7  1  0
  7  8  2  0
  8  9  1  0
  9 10  2  0
 10 11  1  0
 11 12  2  0
 11 13  1  0
 13 14  1  0
 14 15  1  0
 15 16  1  0
 16 17  2  0
 17 18  1  0
 18 19  2  0
 19 20  1  0
 20 21  2  0
 14 22  1  0
 22 23  1  0
 22 24  1  0
 24 25  1  0
 25 26  1  0
 26 27  1  0
 27 28  2  0
 28 29  1  0
 29 30  2  0
 30 31  1  0
 31 32  1  0
 32 33  1  0
 31 34  2  0
 10 35  1  0
 35 36  2  0
 36  7  1  0
 21 16  1  0
 34 27  1  0
  1 37  1  0
  1 38  1  0
  1 39  1  0
  2 40  1  0
  2 41  1  0
  4 42  1  0
  4 43  1  0
  5 44  1  0
  5 45  1  0
  5 46  1  0
  6 47  1  0
  6 48  1  0
  8 49  1  0
  9 50  1  0
 14 51  1  6
 15 52  1  0
 15 53  1  0
 17 54  1  0
 18 55  1  0
 19 56  1  0
 20 57  1  0
 21 58  1  0
 22 59  1  6
 23 60  1  0
 24 61  1  0
 24 62  1  0
 25 63  1  0
 26 64  1  0
 26 65  1  0
 28 66  1  0
 29 67  1  0
 30 68  1  0
 33 69  1  0
 33 70  1  0
 33 71  1  0
 34 72  1  0
 35 73  1  0
 36 74  1  0
M  CHG  1  13  -1
M  END
>  <UniqueID>  (9) 
8

>  <SMILES>  (9) 
CCN(CC)Cc1ccc(C(=O)[N-][C@H](Cc2ccccc2)[C@H](O)CNCc2cccc(OC)c2)cc1

>  <Energy>  (9) 
72.17155741256168

>  <Genealogy>  (9) 
CCN(CC)Cc1ccc(C(=O)[N-]C(Cc2ccccc2)C(O)CNCc2cccc(OC)c2)cc1 (protonated)
CCN(CC)Cc1ccc(C(=O)[N-][C@H](Cc2ccccc2)[C@H](O)CNCc2cccc(OC)c2)cc1 (chirality)
CCN(CC)Cc1ccc(C(=O)[N-][C@H](Cc2ccccc2)[C@H](O)CNCc2cccc(OC)c2)cc1 (3D coordinates assigned)
CCN(CC)Cc1ccc(C(=O)[N-][C@H](Cc2ccccc2)[C@H](O)CNCc2cccc(OC)c2)cc1 (optimized conformer: 72.17155741256168 kcal/mol)

>  <smiles>  (9) 
CCN(CC)Cc1ccc(C(=O)NC(Cc2ccccc2)C(O)CNCc2cccc(OC)c2)cc1

>  <score_type>  (9) 
oracle

>  <origin>  (9) 
adg

>  <m_score__min__energy>  (9) 
-11.109999999999999

>  <m_primary>  (9) 
energy

$$$$
9:0
     RDKit          3D

 54 56  0  0  0  0  0  0  0  0999 V2000
   56.2620   19.9890   44.0550 C   0  0  0  0  0  0  0  0  0  0  0  0
   56.8820   21.0650   43.1480 C   0  0  0  0  0  0  0  0  0  0  0  0
   58.1580   21.6150   43.7850 C   0  0  0  0  0  0  0  0  0  0  0  0
   55.9510   22.1840   42.9120 N   0  0  0  0  0  0  0  0  0  0  0  0
   55.6890   23.1250   44.3520 S   0  0  0  0  0  0  0  0  0  0  0  0
   55.9980   22.2890   45.5630 O   0  0  0  0  0  0  0  0  0  0  0  0
   54.2450   23.5350   44.4170 O   0  0  0  0  0  0  0  0  0  0  0  0
   56.6940   24.5710   44.3440 C   0  0  0  0  0  0  0  0  0  0  0  0
   57.0390   25.1880   45.5540 C   0  0  0  0  0  0  0  0  0  0  0  0
   57.8090   26.3550   45.5550 C   0  0  0  0  0  0  0  0  0  0  0  0
   58.2270   26.9310   44.3410 C   0  0  0  0  0  0  0  0  0  0  0  0
   59.0370   28.1170   44.2950 N   0  0  0  0  0  0  0  0  0  0  0  0
   58.7990   29.2410   44.9070 C   0  0  0  0  0  0  0  0  0  0  0  0
   59.6690   29.8690   45.7210 N   0  0  0  0  0  0  0  0  0  0  0  0
   59.0600   30.9490   46.1880 N   0  0  0  0  0  0  0  0  0  0  0  0
   59.6800   31.8610   47.1590 C   0  0  1  0  0  0  0  0  0  0  0  0
   60.8050   32.7080   46.4960 C   0  0  0  0  0  0  0  0  0  0  0  0
   60.6530   34.2170   46.7180 C   0  0  0  0  0  0  0  0  0  0  0  0
   59.2460   34.6920   46.3460 C   0  0  0  0  0  0  0  0  0  0  0  0
   58.1170   33.9140   47.0600 C   0  0  0  0  0  0  0  0  0  0  0  0
   58.5900   32.6950   47.8850 C   0  0  2  0  0  0  0  0  0  0  0  0
   59.0570   33.1250   49.2170 C   0  0  0  0  0  0  0  0  0  0  0  0
   59.4220   33.4630   50.2610 N   0  0  0  0  0  0  0  0  0  0  0  0
   57.7980   31.0090   45.7030 C   0  0  0  0  0  0  0  0  0  0  0  0
   57.5980   29.9240   44.8730 C   0  0  0  0  0  0  0  0  0  0  0  0
   56.3680   29.5840   44.1400 C   0  0  0  0  0  0  0  0  0  0  0  0
   55.1680   29.2970   44.8550 N   0  0  0  0  0  0  0  0  0  0  0  0
   56.3670   29.5450   42.8810 O   0  0  0  0  0  0  0  0  0  0  0  0
   57.9030   26.2930   43.1360 C   0  0  0  0  0  0  0  0  0  0  0  0
   57.1330   25.1280   43.1350 C   0  0  0  0  0  0  0  0  0  0  0  0
   56.4196   20.2624   45.1088 H   0  0  0  0  0  0  0  0  0  0  0  0
   55.1833   19.9158   43.8525 H   0  0  0  0  0  0  0  0  0  0  0  0
   56.7397   19.0190   43.8525 H   0  0  0  0  0  0  0  0  0  0  0  0
   57.1096   20.5876   42.1835 H   0  0  0  0  0  0  0  0  0  0  0  0
   58.0672   21.5759   44.8805 H   0  0  0  0  0  0  0  0  0  0  0  0
   59.0180   21.0077   43.4664 H   0  0  0  0  0  0  0  0  0  0  0  0
   58.3070   22.6573   43.4664 H   0  0  0  0  0  0  0  0  0  0  0  0
   56.3100   22.8250   42.1670 H   0  0  0  0  0  0  0  0  0  0  0  0
   56.7028   24.7525   46.5065 H   0  0  0  0  0  0  0  0  0  0  0  0
   58.0894   26.8251   46.5092 H   0  0  0  0  0  0  0  0  0  0  0  0
   60.1874   31.2785   47.9421 H   0  0  0  0  0  0  0  0  0  0  0  0
   61.7712   32.3910   46.9155 H   0  0  0  0  0  0  0  0  0  0  0  0
   60.7408   32.5348   45.4116 H   0  0  0  0  0  0  0  0  0  0  0  0
   60.8400   34.4444   47.7779 H   0  0  0  0  0  0  0  0  0  0  0  0
   61.3780   34.7385   46.0758 H   0  0  0  0  0  0  0  0  0  0  0  0
   59.1569   35.7555   46.6126 H   0  0  0  0  0  0  0  0  0  0  0  0
   59.1232   34.5174   45.2669 H   0  0  0  0  0  0  0  0  0  0  0  0
   57.6007   34.6076   47.7399 H   0  0  0  0  0  0  0  0  0  0  0  0
   57.4657   33.5171   46.2674 H   0  0  0  0  0  0  0  0  0  0  0  0
   57.7202   32.0325   48.0052 H   0  0  0  0  0  0  0  0  0  0  0  0
   57.0574   31.7896   45.9313 H   0  0  0  0  0  0  0  0  0  0  0  0
   55.1620   28.6030   45.6360 H   0  0  0  0  0  0  0  0  0  0  0  0
   58.2580   26.7132   42.1834 H   0  0  0  0  0  0  0  0  0  0  0  0
   56.8700   24.6457   42.1820 H   0  0  0  0  0  0  0  0  0  0  0  0
  1  2  1  0
  2  3  1  0
  2  4  1  0
  4  5  1  0
  5  6  2  0
  5  7  2  0
  5  8  1  0
  8  9  2  0
  9 10  1  0
 10 11  2  0
 11 12  1  0
 12 13  2  3
 13 14  1  0
 14 15  1  0
 15 16  1  0
 16 17  1  0
 17 18  1  0
 18 19  1  0
 19 20  1  0
 20 21  1  0
 21 22  1  0
 22 23  3  0
 15 24  1  0
 24 25  2  0
 25 26  1  0
 26 27  1  0
 26 28  2  0
 11 29  1  0
 29 30  2  0
 30  8  1  0
 25 13  1  0
 21 16  1  0
  1 31  1  0
  1 32  1  0
  1 33  1  0
  2 34  1  0
  3 35  1  0
  3 36  1  0
  3 37  1  0
  4 38  1  0
  9 39  1  0
 10 40  1  0
 16 41  1  1
 17 42  1  0
 17 43  1  0
 18 44  1  0
 18 45  1  0
 19 46  1  0
 19 47  1  0
 20 48  1  0
 20 49  1  0
 21 50  1  1
 24 51  1  0
 27 52  1  0
 29 53  1  0
 30 54  1  0
M  CHG  2  14  -1  27  -1
M  END
>  <UniqueID>  (10) 
9

>  <SMILES>  (10) 
CC(C)NS(=O)(=O)c1ccc(N=c2[n-]n([C@H]3CCCC[C@@H]3C#N)cc2C([NH-])=O)cc1

>  <Energy>  (10) 
91.28150466037458

>  <Genealogy>  (10) 
CC(C)NS(=O)(=O)c1ccc(N=c2[n-]n(C3CCCCC3C#N)cc2C([NH-])=O)cc1 (protonated)
CC(C)NS(=O)(=O)c1ccc(N=c2[n-]n([C@H]3CCCC[C@@H]3C#N)cc2C([NH-])=O)cc1 (chirality)
CC(C)NS(=O)(=O)c1ccc(N=c2[n-]n([C@H]3CCCC[C@@H]3C#N)cc2C([NH-])=O)cc1 (3D coordinates assigned)
CC(C)NS(=O)(=O)c1ccc(N=c2[n-]n([C@H]3CCCC[C@@H]3C#N)cc2C([NH-])=O)cc1 (nonaromatic ring conformer: 91.28150466037458 kcal/mol)

>  <smiles>  (10) 
CC(C)NS(=O)(=O)c1ccc(N=c2[nH]n(C3CCCCC3C#N)cc2C(N)=O)cc1

>  <score_type>  (10) 
oracle

>  <origin>  (10) 
adg

>  <m_score__min__energy>  (10) 
-13.09

>  <m_primary>  (10) 
energy

$$$$
10:0
     RDKit          3D

 33 35  0  0  0  0  0  0  0  0999 V2000
   57.9230   32.4110   41.2120 C   0  0  0  0  0  0  0  0  0  0  0  0
   57.3860   31.5450   42.3090 C   0  0  0  0  0  0  0  0  0  0  0  0
   56.6250   30.5860   42.0110 O   0  0  0  0  0  0  0  0  0  0  0  0
   57.6890   31.8320   43.7320 C   0  0  0  0  0  0  0  0  0  0  0  0
   57.6670   33.1630   44.1870 C   0  0  0  0  0  0  0  0  0  0  0  0
   57.8750   33.4580   45.5350 C   0  0  0  0  0  0  0  0  0  0  0  0
   58.1000   32.4290   46.4550 C   0  0  0  0  0  0  0  0  0  0  0  0
   58.2950   32.7130   47.8050 O   0  0  0  0  0  0  0  0  0  0  0  0
   58.1370   31.1040   46.0160 C   0  0  0  0  0  0  0  0  0  0  0  0
   57.9610   30.7930   44.6600 C   0  0  0  0  0  0  0  0  0  0  0  0
   58.0780   29.4230   44.2530 N   0  0  0  0  0  0  0  0  0  0  0  0
   57.4460   28.3280   44.9360 C   0  0  0  0  0  0  0  0  0  0  0  0
   56.0950   28.2300   45.2240 C   0  0  0  0  0  0  0  0  0  0  0  0
   55.1430   29.1860   44.8950 O   0  0  0  0  0  0  0  0  0  0  0  0
   55.7940   27.0760   45.8610 N   0  0  0  0  0  0  0  0  0  0  0  0
   56.9800   26.4460   45.9810 C   0  0  0  0  0  0  0  0  0  0  0  0
   57.1990   25.2110   46.5890 C   0  0  0  0  0  0  0  0  0  0  0  0
   58.5170   24.7250   46.6460 C   0  0  0  0  0  0  0  0  0  0  0  0
   59.5810   25.4810   46.1110 C   0  0  0  0  0  0  0  0  0  0  0  0
   59.3380   26.7270   45.5060 C   0  0  0  0  0  0  0  0  0  0  0  0
   58.0150   27.1750   45.4410 C   0  0  0  0  0  0  0  0  0  0  0  0
   58.4549   33.2689   41.6492 H   0  0  0  0  0  0  0  0  0  0  0  0
   58.6176   31.8269   40.5904 H   0  0  0  0  0  0  0  0  0  0  0  0
   57.0910   32.7735   40.5904 H   0  0  0  0  0  0  0  0  0  0  0  0
   57.4840   33.9795   43.4730 H   0  0  0  0  0  0  0  0  0  0  0  0
   57.8619   34.5040   45.8753 H   0  0  0  0  0  0  0  0  0  0  0  0
   59.0880   32.3420   48.3150 H   0  0  0  0  0  0  0  0  0  0  0  0
   58.3061   30.2951   46.7420 H   0  0  0  0  0  0  0  0  0  0  0  0
   58.6030   29.2150   43.3740 H   0  0  0  0  0  0  0  0  0  0  0  0
   56.3643   24.6330   47.0122 H   0  0  0  0  0  0  0  0  0  0  0  0
   58.7198   23.7489   47.1108 H   0  0  0  0  0  0  0  0  0  0  0  0
   60.6087   25.0929   46.1675 H   0  0  0  0  0  0  0  0  0  0  0  0
   60.1622   27.3298   45.0970 H   0  0  0  0  0  0  0  0  0  0  0  0
  1  2  1  0
  2  3  2  0
  2  4  1  0
  4  5  2  0
  5  6  1  0
  6  7  2  0
  7  8  1  0
  7  9  1  0
  9 10  2  0
 10 11  1  0
 11 12  1  0
 12 13  2  0
 13 14  1  0
 13 15  1  0
 15 16  1  0
 16 17  2  0
 17 18  1  0
 18 19  2  0
 19 20  1  0
 20 21  2  0
 10  4  1  0
 21 12  1  0
 21 16  1  0
  1 22  1  0
  1 23  1  0
  1 24  1  0
  5 25  1  0
  6 26  1  0
  8 27  1  0
  9 28  1  0
 11 29  1  0
 17 30  1  0
 18 31  1  0
 19 32  1  0
 20 33  1  0
M  CHG  2  14  -1  15  -1
M  END
>  <UniqueID>  (11) 
10

>  <SMILES>  (11) 
CC(=O)c1ccc(O)cc1Nc1c([O-])[n-]c2ccccc12

>  <Energy>  (11) 
78.23377445509037

>  <Genealogy>  (11) 
CC(=O)c1ccc(O)cc1Nc1c([O-])[n-]c2ccccc12 (protonated)
CC(=O)c1ccc(O)cc1Nc1c([O-])[n-]c2ccccc12 (3D coordinates assigned)
CC(=O)c1ccc(O)cc1Nc1c([O-])[n-]c2ccccc12 (optimized conformer: 78.23377445509037 kcal/mol)

>  <smiles>  (11) 
CC(=O)c1ccc(O)cc1Nc1c(O)[nH]c2ccccc12

>  <score_type>  (11) 
oracle

>  <origin>  (11) 
adg

>  <m_score__min__energy>  (11) 
-12.49

>  <m_primary>  (11) 
energy

$$$$
11:0
     RDKit          3D

 38 41  0  0  0  0  0  0  0  0999 V2000
   57.4210   20.7370   46.0690 C   0  0  0  0  0  0  0  0  0  0  0  0
   57.3370   21.8380   46.9680 O   0  0  0  0  0  0  0  0  0  0  0  0
   57.4590   23.1820   46.5870 C   0  0  0  0  0  0  0  0  0  0  0  0
   58.3810   23.6110   45.6150 C   0  0  0  0  0  0  0  0  0  0  0  0
   58.4660   24.9630   45.2680 C   0  0  0  0  0  0  0  0  0  0  0  0
   57.6320   25.9120   45.8860 C   0  0  0  0  0  0  0  0  0  0  0  0
   57.7010   27.3510   45.5390 C   0  0  0  0  0  0  0  0  0  0  0  0
   57.1770   27.9070   44.4130 N   0  0  0  0  0  0  0  0  0  0  0  0
   57.4820   29.2080   44.5350 C   0  0  0  0  0  0  0  0  0  0  0  0
   57.1900   30.2520   43.6640 C   0  0  0  0  0  0  0  0  0  0  0  0
   57.6260   31.5410   44.0250 C   0  0  0  0  0  0  0  0  0  0  0  0
   58.3390   31.7580   45.2390 C   0  0  0  0  0  0  0  0  0  0  0  0
   58.7950   33.1220   45.6090 C   0  0  0  0  0  0  0  0  0  0  0  0
   59.1740   33.4230   46.9290 C   0  0  0  0  0  0  0  0  0  0  0  0
   59.6000   34.7100   47.2610 C   0  0  0  0  0  0  0  0  0  0  0  0
   59.6460   35.6920   46.2730 C   0  0  0  0  0  0  0  0  0  0  0  0
   59.2800   35.3930   44.9990 N   0  0  0  0  0  0  0  0  0  0  0  0
   58.8600   34.1480   44.6480 C   0  0  0  0  0  0  0  0  0  0  0  0
   58.6090   30.6580   46.0910 C   0  0  0  0  0  0  0  0  0  0  0  0
   58.1610   29.4030   45.6970 C   0  0  0  0  0  0  0  0  0  0  0  0
   58.2930   28.2530   46.3100 O   0  0  0  0  0  0  0  0  0  0  0  0
   56.7140   25.4780   46.8570 C   0  0  0  0  0  0  0  0  0  0  0  0
   56.6310   24.1260   47.2020 C   0  0  0  0  0  0  0  0  0  0  0  0
   57.4924   19.8006   46.6417 H   0  0  0  0  0  0  0  0  0  0  0  0
   56.5222   20.7116   45.4354 H   0  0  0  0  0  0  0  0  0  0  0  0
   58.3133   20.8482   45.4354 H   0  0  0  0  0  0  0  0  0  0  0  0
   59.0391   22.8785   45.1249 H   0  0  0  0  0  0  0  0  0  0  0  0
   59.1904   25.2866   44.5061 H   0  0  0  0  0  0  0  0  0  0  0  0
   56.6600   27.4540   43.6280 H   0  0  0  0  0  0  0  0  0  0  0  0
   56.6390   30.0772   42.7281 H   0  0  0  0  0  0  0  0  0  0  0  0
   57.4133   32.3917   43.3609 H   0  0  0  0  0  0  0  0  0  0  0  0
   59.1347   32.6418   47.7025 H   0  0  0  0  0  0  0  0  0  0  0  0
   59.8968   34.9472   48.2933 H   0  0  0  0  0  0  0  0  0  0  0  0
   59.9788   36.7098   46.5247 H   0  0  0  0  0  0  0  0  0  0  0  0
   58.5695   33.9419   43.6073 H   0  0  0  0  0  0  0  0  0  0  0  0
   59.1565   30.7936   47.0354 H   0  0  0  0  0  0  0  0  0  0  0  0
   56.0552   26.2082   47.3498 H   0  0  0  0  0  0  0  0  0  0  0  0
   55.9075   23.8017   47.9645 H   0  0  0  0  0  0  0  0  0  0  0  0
  1  2  1  0
  2  3  1  0
  3  4  2  0
  4  5  1  0
  5  6  2  0
  6  7  1  0
  7  8  2  0
  8  9  1  0
  9 10  2  0
 10 11  1  0
 11 12  2  0
 12 13  1  0
 13 14  2  0
 14 15  1  0
 15 16  2  0
 16 17  1  0
 17 18  2  0
 12 19  1  0
 19 20  2  0
 20 21  1  0
  6 22  1  0
 22 23  2  0
 23  3  1  0
 21  7  1  0
 20  9  1  0
 18 13  1  0
  1 24  1  0
  1 25  1  0
  1 26  1  0
  4 27  1  0
  5 28  1  0
  8 29  1  0
 10 30  1  0
 11 31  1  0
 14 32  1  0
 15 33  1  0
 16 34  1  0
 18 35  1  0
 19 36  1  0
 22 37  1  0
 23 38  1  0
M  CHG  1   8   1
M  END
>  <UniqueID>  (12) 
11

>  <SMILES>  (12) 
COc1ccc(-c2[nH+]c3ccc(-c4cccnc4)cc3o2)cc1

>  <Energy>  (12) 
88.30045924928407

>  <Genealogy>  (12) 
COc1ccc(-c2[nH+]c3ccc(-c4cccnc4)cc3o2)cc1 (protonated)
COc1ccc(-c2[nH+]c3ccc(-c4cccnc4)cc3o2)cc1 (3D coordinates assigned)
COc1ccc(-c2[nH+]c3ccc(-c4cccnc4)cc3o2)cc1 (optimized conformer: 88.30045924928407 kcal/mol)

>  <smiles>  (12) 
COc1ccc(-c2nc3ccc(-c4cccnc4)cc3o2)cc1

>  <score_type>  (12) 
oracle

>  <origin>  (12) 
adg

>  <m_score__min__energy>  (12) 
-6

>  <m_primary>  (12) 
energy

$$$$
12:0
     RDKit          3D

 49 52  0  0  1  0  0  0  0  0999 V2000
   55.9510   30.3480   44.5800 O   0  0  0  0  0  0  0  0  0  0  0  0
   57.1620   30.6130   44.4630 C   0  0  0  0  0  0  0  0  0  0  0  0
   57.7630   31.7280   43.7250 C   0  0  0  0  0  0  0  0  0  0  0  0
   57.4540   33.1030   44.1970 C   0  0  0  0  0  0  0  0  0  0  0  0
   58.1330   33.5310   45.4290 C   0  0  0  0  0  0  0  0  0  0  0  0
   57.8990   33.0280   46.6850 C   0  0  0  0  0  0  0  0  0  0  0  0
   58.5990   33.4750   47.8060 C   0  0  0  0  0  0  0  0  0  0  0  0
   59.5640   34.4550   47.6770 C   0  0  0  0  0  0  0  0  0  0  0  0
   59.8100   34.9710   46.4140 C   0  0  0  0  0  0  0  0  0  0  0  0
   59.1090   34.5250   45.2930 C   0  0  0  0  0  0  0  0  0  0  0  0
   58.0720   29.7130   45.1340 N   0  0  0  0  0  0  0  0  0  0  0  0
   59.2360   29.0980   44.5010 C   0  0  0  0  0  0  0  0  0  0  0  0
   59.3050   27.7140   45.1310 C   0  0  0  0  0  0  0  0  0  0  0  0
   58.3300   27.7600   46.2790 C   0  0  0  0  0  0  0  0  0  0  0  0
   58.0590   29.2370   46.4790 C   0  0  1  0  0  0  0  0  0  0  0  0
   59.1190   29.7870   47.3280 C   0  0  0  0  0  0  0  0  0  0  0  0
   60.1020   30.6710   47.0230 N   0  0  0  0  0  0  0  0  0  0  0  0
   60.8630   30.9020   48.1090 C   0  0  0  0  0  0  0  0  0  0  0  0
   62.0190   31.7930   48.1790 C   0  0  0  0  0  0  0  0  0  0  0  0
   62.2790   32.6440   47.1260 C   0  0  0  0  0  0  0  0  0  0  0  0
   63.3870   33.4910   47.2090 C   0  0  0  0  0  0  0  0  0  0  0  0
   64.1990   33.4620   48.3340 C   0  0  0  0  0  0  0  0  0  0  0  0
   63.9260   32.6040   49.3810 C   0  0  0  0  0  0  0  0  0  0  0  0
   62.8270   31.7660   49.2980 C   0  0  0  0  0  0  0  0  0  0  0  0
   60.3470   30.1400   49.1360 C   0  0  0  0  0  0  0  0  0  0  0  0
   59.2930   29.4800   48.6250 N   0  0  0  0  0  0  0  0  0  0  0  0
   58.8549   31.6018   43.7671 H   0  0  0  0  0  0  0  0  0  0  0  0
   57.3239   31.6696   42.7181 H   0  0  0  0  0  0  0  0  0  0  0  0
   57.7349   33.8041   43.3973 H   0  0  0  0  0  0  0  0  0  0  0  0
   56.3805   33.0992   44.4369 H   0  0  0  0  0  0  0  0  0  0  0  0
   57.1347   32.2471   46.8115 H   0  0  0  0  0  0  0  0  0  0  0  0
   58.3819   33.0459   48.7953 H   0  0  0  0  0  0  0  0  0  0  0  0
   60.1224   34.8163   48.5531 H   0  0  0  0  0  0  0  0  0  0  0  0
   60.5763   35.7508   46.2927 H   0  0  0  0  0  0  0  0  0  0  0  0
   59.3232   34.9543   44.3031 H   0  0  0  0  0  0  0  0  0  0  0  0
   59.0973   29.0261   43.4121 H   0  0  0  0  0  0  0  0  0  0  0  0
   60.1577   29.6794   44.6508 H   0  0  0  0  0  0  0  0  0  0  0  0
   59.0103   26.9429   44.4039 H   0  0  0  0  0  0  0  0  0  0  0  0
   60.3228   27.4609   45.4627 H   0  0  0  0  0  0  0  0  0  0  0  0
   57.4033   27.2244   46.0252 H   0  0  0  0  0  0  0  0  0  0  0  0
   58.7244   27.2779   47.1857 H   0  0  0  0  0  0  0  0  0  0  0  0
   57.1228   29.5102   46.9877 H   0  0  0  0  0  0  0  0  0  0  0  0
   61.6280   32.6559   46.2394 H   0  0  0  0  0  0  0  0  0  0  0  0
   63.6156   34.1805   46.3830 H   0  0  0  0  0  0  0  0  0  0  0  0
   65.0706   34.1305   48.3924 H   0  0  0  0  0  0  0  0  0  0  0  0
   64.5737   32.5865   50.2700 H   0  0  0  0  0  0  0  0  0  0  0  0
   62.5974   31.0778   50.1248 H   0  0  0  0  0  0  0  0  0  0  0  0
   60.7230   30.0834   50.1682 H   0  0  0  0  0  0  0  0  0  0  0  0
   58.7130   28.8320   49.1790 H   0  0  0  0  0  0  0  0  0  0  0  0
  1  2  2  0
  2  3  1  0
  3  4  1  0
  4  5  1  0
  5  6  2  0
  6  7  1  0
  7  8  2  0
  8  9  1  0
  9 10  2  0
  2 11  1  0
 11 12  1  0
 12 13  1  0
 13 14  1  0
 14 15  1  0
 15 16  1  0
 16 17  2  0
 17 18  1  0
 18 19  1  0
 19 20  2  0
 20 21  1  0
 21 22  2  0
 22 23  1  0
 23 24  2  0
 18 25  2  0
 25 26  1  0
 10  5  1  0
 15 11  1  0
 26 16  1  0
 24 19  1  0
  3 27  1  0
  3 28  1  0
  4 29  1  0
  4 30  1  0
  6 31  1  0
  7 32  1  0
  8 33  1  0
  9 34  1  0
 10 35  1  0
 12 36  1  0
 12 37  1  0
 13 38  1  0
 13 39  1  0
 14 40  1  0
 14 41  1  0
 15 42  1  1
 20 43  1  0
 21 44  1  0
 22 45  1  0
 23 46  1  0
 24 47  1  0
 25 48  1  0
 26 49  1  0
M  END
>  <smiles>  (13) 
O=C(CCc1ccccc1)N1CCCC1c1nc(-c2ccccc2)c[nH]1

>  <score_type>  (13) 
oracle

>  <origin>  (13) 
adg

>  <m_score__min__energy>  (13) 
-9.0600000000000005

>  <m_primary>  (13) 
energy

$$$$
13:0
     RDKit          3D

 27 28  0  0  0  0  0  0  0  0999 V2000
   55.5420   29.1770   44.8920 O   0  0  0  0  0  0  0  0  0  0  0  0
   56.5810   29.8910   44.9170 C   0  0  0  0  0  0  0  0  0  0  0  0
   56.5270   31.2620   44.5040 N   0  0  0  0  0  0  0  0  0  0  0  0
   57.3610   32.3300   44.9780 C   0  0  0  0  0  0  0  0  0  0  0  0
   57.3830   32.7130   46.3330 C   0  0  0  0  0  0  0  0  0  0  0  0
   58.1910   33.7730   46.7530 C   0  0  0  0  0  0  0  0  0  0  0  0
   58.9730   34.4670   45.8260 C   0  0  0  0  0  0  0  0  0  0  0  0
   59.7560   35.4970   46.2350 F   0  0  0  0  0  0  0  0  0  0  0  0
   58.9390   34.1080   44.4760 C   0  0  0  0  0  0  0  0  0  0  0  0
   58.1310   33.0490   44.0510 C   0  0  0  0  0  0  0  0  0  0  0  0
   58.1050   32.7130   42.7370 F   0  0  0  0  0  0  0  0  0  0  0  0
   57.8070   29.3700   45.4490 N   0  0  0  0  0  0  0  0  0  0  0  0
   58.0440   27.9790   45.7250 C   0  0  0  0  0  0  0  0  0  0  0  0
   59.3470   27.4440   45.7380 C   0  0  0  0  0  0  0  0  0  0  0  0
   59.5510   26.0930   46.0340 C   0  0  0  0  0  0  0  0  0  0  0  0
   58.4630   25.2680   46.3310 C   0  0  0  0  0  0  0  0  0  0  0  0
   57.1690   25.7950   46.3440 C   0  0  0  0  0  0  0  0  0  0  0  0
   56.1150   24.9980   46.6430 F   0  0  0  0  0  0  0  0  0  0  0  0
   56.9610   27.1470   46.0490 C   0  0  0  0  0  0  0  0  0  0  0  0
   56.7614   32.1754   47.0641 H   0  0  0  0  0  0  0  0  0  0  0  0
   58.2114   34.0613   47.8143 H   0  0  0  0  0  0  0  0  0  0  0  0
   59.5493   34.6598   43.7459 H   0  0  0  0  0  0  0  0  0  0  0  0
   58.5420   30.0610   45.7220 H   0  0  0  0  0  0  0  0  0  0  0  0
   60.2074   28.0918   45.5144 H   0  0  0  0  0  0  0  0  0  0  0  0
   60.5700   25.6786   46.0331 H   0  0  0  0  0  0  0  0  0  0  0  0
   58.6253   24.2033   46.5547 H   0  0  0  0  0  0  0  0  0  0  0  0
   55.9419   27.5605   46.0712 H   0  0  0  0  0  0  0  0  0  0  0  0
  1  2  2  0
  2  3  1  0
  3  4  1  0
  4  5  2  0
  5  6  1  0
  6  7  2  0
  7  8  1  0
  7  9  1  0
  9 10  2  0
 10 11  1  0
  2 12  1  0
 12 13  1  0
 13 14  2  0
 14 15  1  0
 15 16  2  0
 16 17  1  0
 17 18  1  0
 17 19  2  0
 10  4  1  0
 19 13  1  0
  5 20  1  0
  6 21  1  0
  9 22  1  0
 12 23  1  0
 14 24  1  0
 15 25  1  0
 16 26  1  0
 19 27  1  0
M  CHG  1   3  -1
M  END
>  <UniqueID>  (14) 
12

>  <SMILES>  (14) 
O=C([N-]c1ccc(F)cc1F)Nc1cccc(F)c1

>  <Energy>  (14) 
34.658036123108

>  <Genealogy>  (14) 
O=C([N-]c1ccc(F)cc1F)Nc1cccc(F)c1 (protonated)
O=C([N-]c1ccc(F)cc1F)Nc1cccc(F)c1 (3D coordinates assigned)
O=C([N-]c1ccc(F)cc1F)Nc1cccc(F)c1 (optimized conformer: 34.658036123108 kcal/mol)

>  <smiles>  (14) 
O=C(Nc1cccc(F)c1)Nc1ccc(F)cc1F

>  <score_type>  (14) 
oracle

>  <origin>  (14) 
adg

>  <m_score__min__energy>  (14) 
-7.8399999999999999

>  <m_primary>  (14) 
energy

$$$$
14:0
     RDKit          3D

 32 34  0  0  0  0  0  0  0  0999 V2000
   58.5753   24.0077   46.1956 H   0  0  0  0  0  0  0  0  0  0  0  0
   57.7320   24.7110   46.1310 C   0  0  0  0  0  0  0  0  0  0  0  0
   56.4270   24.2310   46.0440 C   0  0  0  0  0  0  0  0  0  0  0  0
   56.2328   23.1484   46.0299 H   0  0  0  0  0  0  0  0  0  0  0  0
   55.3690   25.1380   45.9750 C   0  0  0  0  0  0  0  0  0  0  0  0
   54.3347   24.7684   45.9154 H   0  0  0  0  0  0  0  0  0  0  0  0
   55.6100   26.4790   45.9810 N   0  0  0  0  0  0  0  0  0  0  0  0
   54.7780   27.1060   45.9880 H   0  0  0  0  0  0  0  0  0  0  0  0
   56.8880   26.9760   46.0390 C   0  0  0  0  0  0  0  0  0  0  0  0
   57.1410   28.2570   46.0440 N   0  0  0  0  0  0  0  0  0  0  0  0
   56.5210   29.2810   45.2560 C   0  0  0  0  0  0  0  0  0  0  0  0
   55.3570   29.0880   44.8170 O   0  0  0  0  0  0  0  0  0  0  0  0
   57.1450   30.5650   45.1090 N   0  0  0  0  0  0  0  0  0  0  0  0
   58.3360   31.0210   45.7720 C   0  0  0  0  0  0  0  0  0  0  0  0
   59.1320   30.1350   46.5210 C   0  0  0  0  0  0  0  0  0  0  0  0
   58.8519   29.0733   46.5864 H   0  0  0  0  0  0  0  0  0  0  0  0
   60.2740   30.5910   47.1820 C   0  0  0  0  0  0  0  0  0  0  0  0
   60.8936   29.8843   47.7536 H   0  0  0  0  0  0  0  0  0  0  0  0
   60.6340   31.9370   47.1220 C   0  0  0  0  0  0  0  0  0  0  0  0
   61.5402   32.2861   47.6387 H   0  0  0  0  0  0  0  0  0  0  0  0
   59.8440   32.8460   46.4050 C   0  0  0  0  0  0  0  0  0  0  0  0
   60.1980   34.2040   46.3560 C   0  0  0  0  0  0  0  0  0  0  0  0
   61.1002   34.5549   46.8784 H   0  0  0  0  0  0  0  0  0  0  0  0
   59.4080   35.1100   45.6460 C   0  0  0  0  0  0  0  0  0  0  0  0
   59.6895   36.1728   45.6110 H   0  0  0  0  0  0  0  0  0  0  0  0
   58.2630   34.6720   44.9810 C   0  0  0  0  0  0  0  0  0  0  0  0
   57.6436   35.3916   44.4255 H   0  0  0  0  0  0  0  0  0  0  0  0
   57.8990   33.3240   45.0170 C   0  0  0  0  0  0  0  0  0  0  0  0
   56.9957   32.9872   44.4872 H   0  0  0  0  0  0  0  0  0  0  0  0
   58.6820   32.3930   45.7280 C   0  0  0  0  0  0  0  0  0  0  0  0
   57.9660   26.0860   46.1360 C   0  0  0  0  0  0  0  0  0  0  0  0
   58.9935   26.4705   46.2158 H   0  0  0  0  0  0  0  0  0  0  0  0
  1  2  1  0
  2  3  1  0
  3  4  1  0
  3  5  2  0
  5  6  1  0
  5  7  1  0
  7  8  1  0
  7  9  1  0
  9 10  2  0
 10 11  1  0
 11 12  2  0
 11 13  1  0
 13 14  1  0
 14 15  2  0
 15 16  1  0
 15 17  1  0
 17 18  1  0
 17 19  2  0
 19 20  1  0
 19 21  1  0
 21 22  2  0
 22 23  1  0
 22 24  1  0
 24 25  1  0
 24 26  2  0
 26 27  1  0
 26 28  1  0
 28 29  1  0
 28 30  2  0
  9 31  1  0
 31 32  1  0
 31  2  2  0
 30 14  1  0
 30 21  1  0
M  CHG  1  13  -1
M  END
>  <UniqueID>  (15) 
13

>  <SMILES>  (15) 
O=C(/N=c1/cccc[nH]1)[N-]c1cccc2ccccc12

>  <Energy>  (15) 
49.84929707431154

>  <Genealogy>  (15) 
O=C(N=c1cccc[nH]1)[N-]c1cccc2ccccc12 (protonated)
O=C(/N=c1/cccc[nH]1)[N-]c1cccc2ccccc12 (cis-trans isomerization)
O=C(/N=c1/cccc[nH]1)[N-]c1cccc2ccccc12 (3D coordinates assigned)
O=C(/N=c1/cccc[nH]1)[N-]c1cccc2ccccc12 (optimized conformer: 49.84929707431154 kcal/mol)

>  <smiles>  (15) 
O=C(N=c1cccc[nH]1)Nc1cccc2ccccc12

>  <score_type>  (15) 
oracle

>  <origin>  (15) 
adg

>  <m_score__min__energy>  (15) 
-9.4600000000000009

>  <m_primary>  (15) 
energy

$$$$
15:0
     RDKit          3D

 46 49  0  0  0  0  0  0  0  0999 V2000
   56.5399   20.8953   43.3241 H   0  0  0  0  0  0  0  0  0  0  0  0
   56.8300   21.8890   43.6960 C   0  0  0  0  0  0  0  0  0  0  0  0
   56.2740   23.0370   43.1280 C   0  0  0  0  0  0  0  0  0  0  0  0
   55.5480   22.9463   42.3066 H   0  0  0  0  0  0  0  0  0  0  0  0
   56.6380   24.3020   43.6010 C   0  0  0  0  0  0  0  0  0  0  0  0
   56.2001   25.2026   43.1458 H   0  0  0  0  0  0  0  0  0  0  0  0
   57.5630   24.4300   44.6580 C   0  0  0  0  0  0  0  0  0  0  0  0
   57.9710   25.7630   45.1710 C   0  0  0  0  0  0  0  0  0  0  0  0
   57.1940   26.8510   44.8850 N   0  0  0  0  0  0  0  0  0  0  0  0
   57.5560   28.0740   45.3380 C   0  0  0  0  0  0  0  0  0  0  0  0
   58.6720   28.2740   46.0860 C   0  0  0  0  0  0  0  0  0  0  0  0
   59.5180   27.2150   46.4190 C   0  0  0  0  0  0  0  0  0  0  0  0
   60.5840   27.4410   47.1340 N   0  0  0  0  0  0  0  0  0  0  0  0
   60.7590   27.1980   48.5660 C   0  0  0  0  0  0  0  0  0  0  0  0
   61.8310   27.0823   48.7837 H   0  0  0  0  0  0  0  0  0  0  0  0
   60.2119   26.2831   48.8376 H   0  0  0  0  0  0  0  0  0  0  0  0
   60.2050   28.3600   49.3850 C   0  0  0  0  0  0  0  0  0  0  0  0
   60.3114   28.1367   50.4568 H   0  0  0  0  0  0  0  0  0  0  0  0
   60.7628   29.2770   49.1443 H   0  0  0  0  0  0  0  0  0  0  0  0
   59.1414   28.5040   49.1443 H   0  0  0  0  0  0  0  0  0  0  0  0
   59.1580   25.9300   45.9360 C   0  0  0  0  0  0  0  0  0  0  0  0
   59.7979   25.0622   46.1537 H   0  0  0  0  0  0  0  0  0  0  0  0
   58.7060   29.6980   46.4030 C   0  0  0  0  0  0  0  0  0  0  0  0
   59.5760   30.2400   47.1380 O   0  0  0  0  0  0  0  0  0  0  0  0
   57.6020   30.4250   45.8170 N   0  0  1  0  0  0  0  0  0  0  0  0
   57.0230   30.8640   46.5700 H   0  0  0  0  0  0  0  0  0  0  0  0
   58.1020   31.4080   44.8350 C   0  0  0  0  0  0  0  0  0  0  0  0
   58.9676   30.9787   44.3092 H   0  0  0  0  0  0  0  0  0  0  0  0
   57.2880   31.6356   44.1310 H   0  0  0  0  0  0  0  0  0  0  0  0
   58.5230   32.6950   45.5020 C   0  0  0  0  0  0  0  0  0  0  0  0
   58.9510   33.7920   44.7350 C   0  0  0  0  0  0  0  0  0  0  0  0
   58.9929   33.7105   43.6388 H   0  0  0  0  0  0  0  0  0  0  0  0
   59.3240   34.9870   45.3590 C   0  0  0  0  0  0  0  0  0  0  0  0
   59.6592   35.8421   44.7536 H   0  0  0  0  0  0  0  0  0  0  0  0
   59.2710   35.0950   46.7510 C   0  0  0  0  0  0  0  0  0  0  0  0
   59.5656   36.0349   47.2407 H   0  0  0  0  0  0  0  0  0  0  0  0
   58.8440   34.0100   47.5220 C   0  0  0  0  0  0  0  0  0  0  0  0
   58.8021   34.0969   48.6178 H   0  0  0  0  0  0  0  0  0  0  0  0
   58.4700   32.8140   46.9010 C   0  0  0  0  0  0  0  0  0  0  0  0
   58.1328   31.9627   47.5106 H   0  0  0  0  0  0  0  0  0  0  0  0
   56.8820   29.3470   45.1790 C   0  0  0  0  0  0  0  0  0  0  0  0
   55.7660   29.4920   44.6110 O   0  0  0  0  0  0  0  0  0  0  0  0
   58.1240   23.2640   45.2130 C   0  0  0  0  0  0  0  0  0  0  0  0
   58.8585   23.3463   46.0277 H   0  0  0  0  0  0  0  0  0  0  0  0
   57.7550   22.0030   44.7370 C   0  0  0  0  0  0  0  0  0  0  0  0
   58.1937   21.0982   45.1828 H   0  0  0  0  0  0  0  0  0  0  0  0
  1  2  1  0
  2  3  2  0
  3  4  1  0
  3  5  1  0
  5  6  1  0
  5  7  2  0
  7  8  1  0
  8  9  1  0
  9 10  1  0
 10 11  2  0
 11 12  1  0
 12 13  2  0
 13 14  1  0
 14 15  1  0
 14 16  1  0
 14 17  1  0
 17 18  1  0
 17 19  1  0
 17 20  1  0
 12 21  1  0
 21 22  1  0
 11 23  1  0
 23 24  2  0
 23 25  1  0
 25 26  1  1
 25 27  1  0
 27 28  1  0
 27 29  1  0
 27 30  1  0
 30 31  2  0
 31 32  1  0
 31 33  1  0
 33 34  1  0
 33 35  2  0
 35 36  1  0
 35 37  1  0
 37 38  1  0
 37 39  2  0
 39 40  1  0
 25 41  1  0
 41 42  2  0
  7 43  1  0
 43 44  1  0
 43 45  2  0
 45 46  1  0
 45  2  1  0
 21  8  2  0
 39 30  1  0
 41 10  1  0
M  CHG  2   9  -1  25   1
M  END
>  <UniqueID>  (16) 
14

>  <SMILES>  (16) 
CC/N=c1\cc(-c2ccccc2)[n-]c2c1C(=O)[N@@H+](Cc1ccccc1)C2=O

>  <Energy>  (16) 
81.5778493385059

>  <Genealogy>  (16) 
CCN=c1cc(-c2ccccc2)[n-]c2c1C(=O)[NH+](Cc1ccccc1)C2=O (protonated)
CCN=c1cc(-c2ccccc2)[n-]c2c1C(=O)[N@@H+](Cc1ccccc1)C2=O (chirality)
CC/N=c1\cc(-c2ccccc2)[n-]c2c1C(=O)[N@@H+](Cc1ccccc1)C2=O (cis-trans isomerization)
CC/N=c1\cc(-c2ccccc2)[n-]c2c1C(=O)[N@@H+](Cc1ccccc1)C2=O (3D coordinates assigned)
CC/N=c1\cc(-c2ccccc2)[n-]c2c1C(=O)[N@@H+](Cc1ccccc1)C2=O (nonaromatic ring conformer: 81.5778493385059 kcal/mol)

>  <smiles>  (16) 
CCN=c1cc(-c2ccccc2)[nH]c2c1C(=O)N(Cc1ccccc1)C2=O

>  <score_type>  (16) 
oracle

>  <origin>  (16) 
adg

>  <m_score__min__energy>  (16) 
-7.8099999999999996

>  <m_primary>  (16) 
energy

$$$$
16:0
     RDKit          3D

 33 35  0  0  0  0  0  0  0  0999 V2000
   59.6470   35.4850   45.9680 C   0  0  0  0  0  0  0  0  0  0  0  0
   58.6130   34.7660   45.3040 O   0  0  0  0  0  0  0  0  0  0  0  0
   58.5150   33.3670   45.2730 C   0  0  0  0  0  0  0  0  0  0  0  0
   57.8610   32.6780   44.2350 C   0  0  0  0  0  0  0  0  0  0  0  0
   57.7890   31.2810   44.2510 C   0  0  0  0  0  0  0  0  0  0  0  0
   58.3660   30.5440   45.3010 C   0  0  0  0  0  0  0  0  0  0  0  0
   58.2970   29.0590   45.3240 C   0  0  0  0  0  0  0  0  0  0  0  0
   58.5150   28.1930   44.2500 C   0  0  0  0  0  0  0  0  0  0  0  0
   58.3570   26.8400   44.5760 C   0  0  0  0  0  0  0  0  0  0  0  0
   58.0510   26.6220   45.9120 C   0  0  0  0  0  0  0  0  0  0  0  0
   57.6720   25.3190   46.4840 C   0  0  0  0  0  0  0  0  0  0  0  0
   56.4690   24.7200   46.3460 C   0  0  0  0  0  0  0  0  0  0  0  0
   55.2210   25.4440   45.9710 C   0  0  0  0  0  0  0  0  0  0  0  0
   55.1610   26.7010   45.9930 O   0  0  0  0  0  0  0  0  0  0  0  0
   54.0360   24.7090   45.6570 N   0  0  0  0  0  0  0  0  0  0  0  0
   53.9810   23.2920   45.8170 C   0  0  0  0  0  0  0  0  0  0  0  0
   52.9290   22.6680   45.5240 O   0  0  0  0  0  0  0  0  0  0  0  0
   55.1110   22.5870   46.3250 N   0  0  0  0  0  0  0  0  0  0  0  0
   56.3380   23.2640   46.6140 C   0  0  0  0  0  0  0  0  0  0  0  0
   57.3040   22.6010   47.0770 O   0  0  0  0  0  0  0  0  0  0  0  0
   57.8990   28.1190   46.6680 S   0  0  0  0  0  0  0  0  0  0  0  0
   59.0230   31.2410   46.3320 C   0  0  0  0  0  0  0  0  0  0  0  0
   59.0920   32.6360   46.3150 C   0  0  0  0  0  0  0  0  0  0  0  0
   59.5162   35.3940   47.0564 H   0  0  0  0  0  0  0  0  0  0  0  0
   60.6246   35.0708   45.6803 H   0  0  0  0  0  0  0  0  0  0  0  0
   59.5991   36.5456   45.6803 H   0  0  0  0  0  0  0  0  0  0  0  0
   57.4043   33.2404   43.4072 H   0  0  0  0  0  0  0  0  0  0  0  0
   57.2757   30.7532   43.4337 H   0  0  0  0  0  0  0  0  0  0  0  0
   58.7855   28.5411   43.2422 H   0  0  0  0  0  0  0  0  0  0  0  0
   58.4652   26.0273   43.8426 H   0  0  0  0  0  0  0  0  0  0  0  0
   58.4335   24.7881   47.0741 H   0  0  0  0  0  0  0  0  0  0  0  0
   59.4863   30.6823   47.1586 H   0  0  0  0  0  0  0  0  0  0  0  0
   59.6062   33.1651   47.1309 H   0  0  0  0  0  0  0  0  0  0  0  0
  1  2  1  0
  2  3  1  0
  3  4  2  0
  4  5  1  0
  5  6  2  0
  6  7  1  0
  7  8  2  0
  8  9  1  0
  9 10  2  0
 10 11  1  0
 11 12  2  3
 12 13  1  0
 13 14  2  0
 13 15  1  0
 15 16  1  0
 16 17  2  0
 16 18  1  0
 18 19  1  0
 19 20  2  0
 10 21  1  0
  6 22  1  0
 22 23  2  0
 23  3  1  0
 21  7  1  0
 19 12  1  0
  1 24  1  0
  1 25  1  0
  1 26  1  0
  4 27  1  0
  5 28  1  0
  8 29  1  0
  9 30  1  0
 11 31  1  0
 22 32  1  0
 23 33  1  0
M  CHG  2  15  -1  18  -1
M  END
>  <UniqueID>  (17) 
15

>  <SMILES>  (17) 
COc1ccc(-c2ccc(C=C3C(=O)[N-]C(=O)[N-]C3=O)s2)cc1

>  <Energy>  (17) 
71.19554102019215

>  <Genealogy>  (17) 
COc1ccc(-c2ccc(C=C3C(=O)[N-]C(=O)[N-]C3=O)s2)cc1 (protonated)
COc1ccc(-c2ccc(C=C3C(=O)[N-]C(=O)[N-]C3=O)s2)cc1 (3D coordinates assigned)
COc1ccc(-c2ccc(C=C3C(=O)[N-]C(=O)[N-]C3=O)s2)cc1 (nonaromatic ring conformer: 71.19554102019215 kcal/mol)

>  <smiles>  (17) 
COc1ccc(-c2ccc(C=C3C(=O)NC(=O)NC3=O)s2)cc1

>  <score_type>  (17) 
oracle

>  <origin>  (17) 
adg

>  <m_score__min__energy>  (17) 
-11.56

>  <m_primary>  (17) 
energy

$$$$
17:0
     RDKit          3D

 29 30  0  0  0  0  0  0  0  0999 V2000
   60.7632   34.5549   48.6602 H   0  0  0  0  0  0  0  0  0  0  0  0
   60.0220   34.2700   47.8990 C   0  0  0  0  0  0  0  0  0  0  0  0
   59.1240   33.2320   48.1540 C   0  0  0  0  0  0  0  0  0  0  0  0
   59.1579   32.7001   49.1162 H   0  0  0  0  0  0  0  0  0  0  0  0
   58.1820   32.8680   47.1880 C   0  0  0  0  0  0  0  0  0  0  0  0
   57.4756   32.0503   47.3939 H   0  0  0  0  0  0  0  0  0  0  0  0
   58.1320   33.5400   45.9560 C   0  0  0  0  0  0  0  0  0  0  0  0
   57.0890   33.1570   44.9380 C   0  0  0  0  0  0  0  0  0  0  0  0
   56.6515   34.0710   44.5100 H   0  0  0  0  0  0  0  0  0  0  0  0
   56.3148   32.5568   45.4384 H   0  0  0  0  0  0  0  0  0  0  0  0
   57.8210   32.1590   43.5940 S   0  0  0  0  0  0  0  0  0  0  0  0
   57.3590   30.5800   44.3040 C   0  0  0  0  0  0  0  0  0  0  0  0
   58.3830   29.5770   45.1860 S   0  0  0  0  0  0  0  0  0  0  0  0
   57.1800   28.4120   45.4210 C   0  0  0  0  0  0  0  0  0  0  0  0
   57.3020   27.2880   46.0690 N   0  0  0  0  0  0  0  0  0  0  0  0
   56.3760   26.1900   46.0990 C   0  0  0  0  0  0  0  0  0  0  0  0
   55.1350   26.3710   45.9870 O   0  0  0  0  0  0  0  0  0  0  0  0
   56.8940   24.8090   46.3270 C   0  0  0  0  0  0  0  0  0  0  0  0
   56.9656   24.6181   47.4079 H   0  0  0  0  0  0  0  0  0  0  0  0
   56.2081   24.0801   45.8706 H   0  0  0  0  0  0  0  0  0  0  0  0
   57.8900   24.7110   45.8706 H   0  0  0  0  0  0  0  0  0  0  0  0
   56.0170   28.7830   44.8420 N   0  0  0  0  0  0  0  0  0  0  0  0
   55.1440   28.2110   44.8650 H   0  0  0  0  0  0  0  0  0  0  0  0
   56.1060   29.9890   44.2210 C   0  0  0  0  0  0  0  0  0  0  0  0
   55.2584   30.4560   43.6980 H   0  0  0  0  0  0  0  0  0  0  0  0
   59.0410   34.5880   45.7060 C   0  0  0  0  0  0  0  0  0  0  0  0
   59.0130   35.2680   44.5320 F   0  0  0  0  0  0  0  0  0  0  0  0
   59.9800   34.9470   46.6780 C   0  0  0  0  0  0  0  0  0  0  0  0
   60.6880   35.7653   46.4804 H   0  0  0  0  0  0  0  0  0  0  0  0
  1  2  1  0
  2  3  2  0
  3  4  1  0
  3  5  1  0
  5  6  1  0
  5  7  2  0
  7  8  1  0
  8  9  1  0
  8 10  1  0
  8 11  1  0
 11 12  1  0
 12 13  1  0
 13 14  1  0
 14 15  2  0
 15 16  1  0
 16 17  2  0
 16 18  1  0
 18 19  1  0
 18 20  1  0
 18 21  1  0
 14 22  1  0
 22 23  1  0
 22 24  1  0
 24 25  1  0
  7 26  1  0
 26 27  1  0
 26 28  2  0
 28 29  1  0
 28  2  1  0
 24 12  2  0
M  END
>  <UniqueID>  (18) 
16

>  <SMILES>  (18) 
CC(=O)/N=c1/[nH]cc(SCc2ccccc2F)s1

>  <Energy>  (18) 
56.677463455999266

>  <Genealogy>  (18) 
CC(=O)/N=c1/[nH]cc(SCc2ccccc2F)s1 (cis-trans isomerization)
CC(=O)/N=c1/[nH]cc(SCc2ccccc2F)s1 (3D coordinates assigned)
CC(=O)/N=c1/[nH]cc(SCc2ccccc2F)s1 (optimized conformer: 56.677463455999266 kcal/mol)

>  <smiles>  (18) 
CC(=O)N=c1[nH]cc(SCc2ccccc2F)s1

>  <score_type>  (18) 
oracle

>  <origin>  (18) 
adg

>  <m_score__min__energy>  (18) 
-7.7999999999999998

>  <m_primary>  (18) 
energy

$$$$
18:0
     RDKit          3D

 35 37  0  0  0  0  0  0  0  0999 V2000
   59.2560   33.1150   50.8810 C   0  0  0  0  0  0  0  0  0  0  0  0
   59.6150   34.2160   50.0520 O   0  0  0  0  0  0  0  0  0  0  0  0
   60.0070   34.1090   48.7060 C   0  0  0  0  0  0  0  0  0  0  0  0
   59.0870   34.2540   47.6510 C   0  0  0  0  0  0  0  0  0  0  0  0
   59.4880   34.1500   46.3480 N   0  0  0  0  0  0  0  0  0  0  0  0
   58.4950   34.2680   45.2720 C   0  0  0  0  0  0  0  0  0  0  0  0
   58.1180   32.9030   44.7650 C   0  0  0  0  0  0  0  0  0  0  0  0
   57.7830   32.7170   43.4140 C   0  0  0  0  0  0  0  0  0  0  0  0
   57.3930   31.4560   42.9520 C   0  0  0  0  0  0  0  0  0  0  0  0
   57.3230   30.3760   43.8380 C   0  0  0  0  0  0  0  0  0  0  0  0
   56.9430   29.1540   43.3890 F   0  0  0  0  0  0  0  0  0  0  0  0
   57.6430   30.5570   45.1860 C   0  0  0  0  0  0  0  0  0  0  0  0
   58.0330   31.8170   45.6510 C   0  0  0  0  0  0  0  0  0  0  0  0
   60.7910   33.8830   46.0370 C   0  0  0  0  0  0  0  0  0  0  0  0
   61.7480   33.7300   47.0450 C   0  0  0  0  0  0  0  0  0  0  0  0
   63.0880   33.4620   46.7260 C   0  0  0  0  0  0  0  0  0  0  0  0
   64.0340   33.3110   47.7430 C   0  0  0  0  0  0  0  0  0  0  0  0
   63.6510   33.4260   49.0800 C   0  0  0  0  0  0  0  0  0  0  0  0
   62.3190   33.6920   49.4100 C   0  0  0  0  0  0  0  0  0  0  0  0
   61.3530   33.8460   48.3980 C   0  0  0  0  0  0  0  0  0  0  0  0
   59.3507   33.4055   51.9377 H   0  0  0  0  0  0  0  0  0  0  0  0
   58.2161   32.8230   50.6728 H   0  0  0  0  0  0  0  0  0  0  0  0
   59.9239   32.2661   50.6728 H   0  0  0  0  0  0  0  0  0  0  0  0
   58.0294   34.4540   47.8781 H   0  0  0  0  0  0  0  0  0  0  0  0
   57.5976   34.7731   45.6588 H   0  0  0  0  0  0  0  0  0  0  0  0
   58.9266   34.8524   44.4461 H   0  0  0  0  0  0  0  0  0  0  0  0
   57.8275   33.5664   42.7165 H   0  0  0  0  0  0  0  0  0  0  0  0
   57.1410   31.3134   41.8908 H   0  0  0  0  0  0  0  0  0  0  0  0
   57.5881   29.7073   45.8824 H   0  0  0  0  0  0  0  0  0  0  0  0
   58.2741   31.9578   46.7150 H   0  0  0  0  0  0  0  0  0  0  0  0
   61.0905   33.7874   44.9829 H   0  0  0  0  0  0  0  0  0  0  0  0
   63.3941   33.3707   45.6734 H   0  0  0  0  0  0  0  0  0  0  0  0
   65.0835   33.1009   47.4892 H   0  0  0  0  0  0  0  0  0  0  0  0
   64.3999   33.3069   49.8769 H   0  0  0  0  0  0  0  0  0  0  0  0
   62.0242   33.7814   50.4660 H   0  0  0  0  0  0  0  0  0  0  0  0
  1  2  1  0
  2  3  1  0
  3  4  2  0
  4  5  1  0
  5  6  1  0
  6  7  1  0
  7  8  2  0
  8  9  1  0
  9 10  2  0
 10 11  1  0
 10 12  1  0
 12 13  2  0
  5 14  2  0
 14 15  1  0
 15 16  2  0
 16 17  1  0
 17 18  2  0
 18 19  1  0
 19 20  2  0
 20  3  1  0
 13  7  1  0
 20 15  1  0
  1 21  1  0
  1 22  1  0
  1 23  1  0
  4 24  1  0
  6 25  1  0
  6 26  1  0
  8 27  1  0
  9 28  1  0
 12 29  1  0
 13 30  1  0
 14 31  1  0
 16 32  1  0
 17 33  1  0
 18 34  1  0
 19 35  1  0
M  CHG  1   5   1
M  END
>  <UniqueID>  (19) 
17

>  <SMILES>  (19) 
COc1c[n+](Cc2ccc(F)cc2)cc2ccccc12

>  <Energy>  (19) 
40.330575258120916

>  <Genealogy>  (19) 
COc1c[n+](Cc2ccc(F)cc2)cc2ccccc12 (3D coordinates assigned)
COc1c[n+](Cc2ccc(F)cc2)cc2ccccc12 (optimized conformer: 40.330575258120916 kcal/mol)

>  <smiles>  (19) 
COc1c[n+](Cc2ccc(F)cc2)cc2ccccc12

>  <score_type>  (19) 
oracle

>  <origin>  (19) 
adg

>  <m_score__min__energy>  (19) 
-5.3799999999999999

>  <m_primary>  (19) 
energy

$$$$
19:0
     RDKit          3D

 46 48  0  0  0  0  0  0  0  0999 V2000
   57.0680   27.0040   43.3260 H   0  0  0  0  0  0  0  0  0  0  0  0
   57.6650   26.6680   44.1140 N   0  0  0  0  0  0  0  0  0  0  0  0
   57.3630   26.8670   45.3600 C   0  0  0  0  0  0  0  0  0  0  0  0
   58.4100   27.2220   46.3530 C   0  0  0  0  0  0  0  0  0  0  0  0
   59.6450   26.5500   46.3670 C   0  0  0  0  0  0  0  0  0  0  0  0
   59.8407   25.7498   45.6381 H   0  0  0  0  0  0  0  0  0  0  0  0
   60.6240   26.8930   47.3010 C   0  0  0  0  0  0  0  0  0  0  0  0
   61.5904   26.3676   47.2999 H   0  0  0  0  0  0  0  0  0  0  0  0
   60.3810   27.9010   48.2370 C   0  0  0  0  0  0  0  0  0  0  0  0
   61.1597   28.1741   48.9644 H   0  0  0  0  0  0  0  0  0  0  0  0
   59.1430   28.5670   48.2510 C   0  0  0  0  0  0  0  0  0  0  0  0
   58.8600   29.5930   49.1650 O   0  0  0  0  0  0  0  0  0  0  0  0
   59.0840   30.9590   48.9440 C   0  0  0  0  0  0  0  0  0  0  0  0
   58.5380   31.5940   47.8710 N   0  0  0  0  0  0  0  0  0  0  0  0
   58.7540   32.9110   47.6170 C   0  0  0  0  0  0  0  0  0  0  0  0
   58.1350   33.4910   46.5010 O   0  0  0  0  0  0  0  0  0  0  0  0
   57.9680   32.8680   45.2550 C   0  0  0  0  0  0  0  0  0  0  0  0
   58.5310   33.4690   44.1260 C   0  0  0  0  0  0  0  0  0  0  0  0
   59.0960   34.4071   44.2298 H   0  0  0  0  0  0  0  0  0  0  0  0
   58.3800   32.8850   42.8670 C   0  0  0  0  0  0  0  0  0  0  0  0
   58.8331   33.3603   41.9845 H   0  0  0  0  0  0  0  0  0  0  0  0
   57.6560   31.7000   42.7240 C   0  0  0  0  0  0  0  0  0  0  0  0
   57.5479   31.2416   41.7299 H   0  0  0  0  0  0  0  0  0  0  0  0
   57.0640   31.0890   43.8440 C   0  0  0  0  0  0  0  0  0  0  0  0
   56.2920   29.8290   43.7060 C   0  0  0  0  0  0  0  0  0  0  0  0
   56.4580   29.0550   42.6780 N   0  0  0  0  0  0  0  0  0  0  0  0
   56.6680   28.0350   42.7630 H   0  0  0  0  0  0  0  0  0  0  0  0
   55.3410   29.4550   44.7050 N   0  0  0  0  0  0  0  0  0  0  0  0
   54.7670   28.5900   44.5900 H   0  0  0  0  0  0  0  0  0  0  0  0
   55.2400   30.0020   45.5890 H   0  0  0  0  0  0  0  0  0  0  0  0
   57.2210   31.6860   45.1080 C   0  0  0  0  0  0  0  0  0  0  0  0
   56.7546   31.2234   45.9903 H   0  0  0  0  0  0  0  0  0  0  0  0
   59.5510   33.6640   48.4980 C   0  0  0  0  0  0  0  0  0  0  0  0
   59.6980   35.0020   48.3180 F   0  0  0  0  0  0  0  0  0  0  0  0
   60.1620   33.0290   49.5920 C   0  0  0  0  0  0  0  0  0  0  0  0
   61.0000   33.8200   50.5570 C   0  0  0  0  0  0  0  0  0  0  0  0
   60.7202   33.5559   51.5875 H   0  0  0  0  0  0  0  0  0  0  0  0
   62.0630   33.5884   50.3949 H   0  0  0  0  0  0  0  0  0  0  0  0
   60.8300   34.8946   50.3949 H   0  0  0  0  0  0  0  0  0  0  0  0
   59.9150   31.6660   49.8170 C   0  0  0  0  0  0  0  0  0  0  0  0
   60.4630   31.0290   50.8850 F   0  0  0  0  0  0  0  0  0  0  0  0
   58.1720   28.2330   47.3000 C   0  0  0  0  0  0  0  0  0  0  0  0
   57.2110   28.7682   47.2936 H   0  0  0  0  0  0  0  0  0  0  0  0
   55.9970   26.7490   45.7660 N   0  0  0  0  0  0  0  0  0  0  0  0
   55.2540   26.5430   45.0610 H   0  0  0  0  0  0  0  0  0  0  0  0
   55.7230   26.8120   46.7710 H   0  0  0  0  0  0  0  0  0  0  0  0
  1  2  1  0
  2  3  2  0
  3  4  1  0
  4  5  2  0
  5  6  1  0
  5  7  1  0
  7  8  1  0
  7  9  2  0
  9 10  1  0
  9 11  1  0
 11 12  1  0
 12 13  1  0
 13 14  2  0
 14 15  1  0
 15 16  1  0
 16 17  1  0
 17 18  2  0
 18 19  1  0
 18 20  1  0
 20 21  1  0
 20 22  2  0
 22 23  1  0
 22 24  1  0
 24 25  1  0
 25 26  2  0
 26 27  1  0
 25 28  1  0
 28 29  1  0
 28 30  1  0
 24 31  2  0
 31 32  1  0
 15 33  2  0
 33 34  1  0
 33 35  1  0
 35 36  1  0
 36 37  1  0
 36 38  1  0
 36 39  1  0
 35 40  2  0
 40 41  1  0
 11 42  2  0
 42 43  1  0
  3 44  1  0
 44 45  1  0
 44 46  1  0
 42  4  1  0
 40 13  1  0
 31 17  1  0
M  END
>  <UniqueID>  (20) 
18

>  <SMILES>  (20) 
[H]/N=C(/N)c1cccc(Oc2nc(Oc3cccc(/C(N)=N\[H])c3)c(F)c(C)c2F)c1

>  <Energy>  (20) 
66.3905988701417

>  <Genealogy>  (20) 
[H]/N=C(/N)c1cccc(Oc2nc(Oc3cccc(/C(N)=N\[H])c3)c(F)c(C)c2F)c1 (cis-trans isomerization)
[H]/N=C(/N)c1cccc(Oc2nc(Oc3cccc(/C(N)=N\[H])c3)c(F)c(C)c2F)c1 (3D coordinates assigned)
[H]/N=C(/N)c1cccc(Oc2nc(Oc3cccc(/C(N)=N\[H])c3)c(F)c(C)c2F)c1 (optimized conformer: 66.3905988701417 kcal/mol)

>  <smiles>  (20) 
Cc1c(F)c(Oc2cccc(C(=N)N)c2)nc(Oc2cccc(C(=N)N)c2)c1F

>  <score_type>  (20) 
oracle

>  <origin>  (20) 
adg

>  <m_score__min__energy>  (20) 
-8.8300000000000001

>  <m_primary>  (20) 
energy

$$$$
20:0
     RDKit          3D

 39 40  0  0  0  0  0  0  0  0999 V2000
   55.4870   24.4910   45.8730 C   0  0  0  0  0  0  0  0  0  0  0  0
   55.8640   25.6330   46.6340 O   0  0  0  0  0  0  0  0  0  0  0  0
   57.0110   26.4040   46.3930 C   0  0  0  0  0  0  0  0  0  0  0  0
   58.1070   26.4190   47.2710 C   0  0  0  0  0  0  0  0  0  0  0  0
   59.2240   27.2100   46.9920 C   0  0  0  0  0  0  0  0  0  0  0  0
   59.2700   27.9970   45.8260 C   0  0  0  0  0  0  0  0  0  0  0  0
   60.3730   28.8140   45.5290 O   0  0  0  0  0  0  0  0  0  0  0  0
   60.7740   29.9440   46.2990 C   0  0  0  0  0  0  0  0  0  0  0  0
   58.1790   27.9730   44.9310 C   0  0  0  0  0  0  0  0  0  0  0  0
   58.1830   28.7880   43.7390 N   0  0  0  0  0  0  0  0  0  0  0  0
   56.8300   29.2930   43.4700 C   0  0  0  0  0  0  0  0  0  0  0  0
   56.6650   30.6720   44.0330 C   0  0  0  0  0  0  0  0  0  0  0  0
   55.5560   31.0190   44.5190 O   0  0  0  0  0  0  0  0  0  0  0  0
   57.7740   31.5800   44.0030 N   0  0  0  0  0  0  0  0  0  0  0  0
   58.1800   32.4640   45.0580 C   0  0  0  0  0  0  0  0  0  0  0  0
   58.5340   33.8040   44.8120 C   0  0  0  0  0  0  0  0  0  0  0  0
   58.9010   34.6410   45.8700 C   0  0  0  0  0  0  0  0  0  0  0  0
   58.9060   34.1560   47.1800 C   0  0  0  0  0  0  0  0  0  0  0  0
   59.2600   34.9730   48.2030 F   0  0  0  0  0  0  0  0  0  0  0  0
   58.5320   32.8330   47.4370 C   0  0  0  0  0  0  0  0  0  0  0  0
   58.5250   32.3650   48.7090 F   0  0  0  0  0  0  0  0  0  0  0  0
   58.1620   31.9920   46.3810 C   0  0  0  0  0  0  0  0  0  0  0  0
   57.7970   30.7110   46.6390 F   0  0  0  0  0  0  0  0  0  0  0  0
   57.0540   27.1820   45.2330 C   0  0  0  0  0  0  0  0  0  0  0  0
   55.2160   23.6702   46.5533 H   0  0  0  0  0  0  0  0  0  0  0  0
   54.6239   24.7416   45.2387 H   0  0  0  0  0  0  0  0  0  0  0  0
   56.3297   24.1785   45.2387 H   0  0  0  0  0  0  0  0  0  0  0  0
   58.0857   25.8046   48.1832 H   0  0  0  0  0  0  0  0  0  0  0  0
   60.0747   27.2179   47.6893 H   0  0  0  0  0  0  0  0  0  0  0  0
   60.6898   29.7066   47.3698 H   0  0  0  0  0  0  0  0  0  0  0  0
   61.8173   30.1985   46.0608 H   0  0  0  0  0  0  0  0  0  0  0  0
   60.1245   30.7992   46.0608 H   0  0  0  0  0  0  0  0  0  0  0  0
   58.5130   28.2200   42.9220 H   0  0  0  0  0  0  0  0  0  0  0  0
   58.8480   29.5890   43.8530 H   0  0  0  0  0  0  0  0  0  0  0  0
   56.6639   29.3231   42.3830 H   0  0  0  0  0  0  0  0  0  0  0  0
   56.0983   28.6236   43.9460 H   0  0  0  0  0  0  0  0  0  0  0  0
   58.5218   34.1940   43.7835 H   0  0  0  0  0  0  0  0  0  0  0  0
   59.1866   35.6843   45.6703 H   0  0  0  0  0  0  0  0  0  0  0  0
   56.1956   27.1764   44.5451 H   0  0  0  0  0  0  0  0  0  0  0  0
  1  2  1  0
  2  3  1  0
  3  4  2  0
  4  5  1  0
  5  6  2  0
  6  7  1  0
  7  8  1  0
  6  9  1  0
  9 10  1  0
 10 11  1  0
 11 12  1  0
 12 13  2  0
 12 14  1  0
 14 15  1  0
 15 16  2  0
 16 17  1  0
 17 18  2  0
 18 19  1  0
 18 20  1  0
 20 21  1  0
 20 22  2  0
 22 23  1  0
  9 24  2  0
 24  3  1  0
 22 15  1  0
  1 25  1  0
  1 26  1  0
  1 27  1  0
  4 28  1  0
  5 29  1  0
  8 30  1  0
  8 31  1  0
  8 32  1  0
 10 33  1  0
 10 34  1  0
 11 35  1  0
 11 36  1  0
 16 37  1  0
 17 38  1  0
 24 39  1  0
M  CHG  2  10   1  14  -1
M  END
>  <UniqueID>  (21) 
19

>  <SMILES>  (21) 
COc1ccc(OC)c([NH2+]CC(=O)[N-]c2ccc(F)c(F)c2F)c1

>  <Energy>  (21) 
41.8604379640811

>  <Genealogy>  (21) 
COc1ccc(OC)c([NH2+]CC(=O)[N-]c2ccc(F)c(F)c2F)c1 (protonated)
COc1ccc(OC)c([NH2+]CC(=O)[N-]c2ccc(F)c(F)c2F)c1 (3D coordinates assigned)
COc1ccc(OC)c([NH2+]CC(=O)[N-]c2ccc(F)c(F)c2F)c1 (optimized conformer: 41.8604379640811 kcal/mol)

>  <smiles>  (21) 
COc1ccc(OC)c(NCC(=O)Nc2ccc(F)c(F)c2F)c1

>  <score_type>  (21) 
oracle

>  <origin>  (21) 
adg

>  <m_score__min__energy>  (21) 
-6.8799999999999999

>  <m_primary>  (21) 
energy

$$$$
21:0
     RDKit          3D

 38 41  0  0  0  0  0  0  0  0999 V2000
   58.8230   34.0780   44.1970 O   0  0  0  0  0  0  0  0  0  0  0  0
   58.8160   33.0120   44.8620 C   0  0  0  0  0  0  0  0  0  0  0  0
   59.5290   32.9170   46.1720 C   0  0  0  0  0  0  0  0  0  0  0  0
   60.2700   34.0380   46.7570 N   0  0  0  0  0  0  0  0  0  0  0  0
   59.6510   34.5690   48.0040 C   0  0  0  0  0  0  0  0  0  0  0  0
   60.2770   34.0650   49.3090 C   0  0  0  0  0  0  0  0  0  0  0  0
   61.7910   34.1920   49.2730 C   0  0  0  0  0  0  0  0  0  0  0  0
   62.3510   33.3920   48.1060 C   0  0  0  0  0  0  0  0  0  0  0  0
   61.7480   33.8450   46.7670 C   0  0  0  0  0  0  0  0  0  0  0  0
   59.4890   31.7310   46.8240 C   0  0  0  0  0  0  0  0  0  0  0  0
   58.7640   30.5560   46.2920 C   0  0  0  0  0  0  0  0  0  0  0  0
   58.7530   29.3540   47.0150 C   0  0  0  0  0  0  0  0  0  0  0  0
   58.0710   28.2390   46.5210 C   0  0  0  0  0  0  0  0  0  0  0  0
   57.3920   28.3100   45.3030 C   0  0  0  0  0  0  0  0  0  0  0  0
   57.3910   29.5030   44.5650 C   0  0  0  0  0  0  0  0  0  0  0  0
   56.7140   29.5860   43.3400 C   0  0  0  0  0  0  0  0  0  0  0  0
   56.7200   30.7800   42.6150 C   0  0  0  0  0  0  0  0  0  0  0  0
   57.4010   31.8980   43.1020 C   0  0  0  0  0  0  0  0  0  0  0  0
   58.0860   31.8360   44.3290 C   0  0  0  0  0  0  0  0  0  0  0  0
   58.0820   30.6360   45.0630 C   0  0  0  0  0  0  0  0  0  0  0  0
   60.1530   34.8380   46.0870 H   0  0  0  0  0  0  0  0  0  0  0  0
   59.7371   35.6655   47.9865 H   0  0  0  0  0  0  0  0  0  0  0  0
   58.6113   34.2099   48.0056 H   0  0  0  0  0  0  0  0  0  0  0  0
   59.8863   34.6593   50.1481 H   0  0  0  0  0  0  0  0  0  0  0  0
   60.0178   33.0033   49.4342 H   0  0  0  0  0  0  0  0  0  0  0  0
   62.0654   35.2506   49.1544 H   0  0  0  0  0  0  0  0  0  0  0  0
   62.2092   33.8022   50.2127 H   0  0  0  0  0  0  0  0  0  0  0  0
   63.4419   33.5288   48.0705 H   0  0  0  0  0  0  0  0  0  0  0  0
   62.0920   32.3339   48.2590 H   0  0  0  0  0  0  0  0  0  0  0  0
   62.2158   34.8018   46.4920 H   0  0  0  0  0  0  0  0  0  0  0  0
   61.9492   33.0300   46.0561 H   0  0  0  0  0  0  0  0  0  0  0  0
   60.0153   31.6375   47.7854 H   0  0  0  0  0  0  0  0  0  0  0  0
   59.2841   29.2888   47.9761 H   0  0  0  0  0  0  0  0  0  0  0  0
   58.0690   27.3004   47.0946 H   0  0  0  0  0  0  0  0  0  0  0  0
   56.8565   27.4282   44.9212 H   0  0  0  0  0  0  0  0  0  0  0  0
   56.1771   28.7091   42.9491 H   0  0  0  0  0  0  0  0  0  0  0  0
   56.1856   30.8401   41.6554 H   0  0  0  0  0  0  0  0  0  0  0  0
   57.4017   32.8329   42.5223 H   0  0  0  0  0  0  0  0  0  0  0  0
  1  2  2  0
  2  3  1  0
  3  4  1  0
  4  5  1  0
  5  6  1  0
  6  7  1  0
  7  8  1  0
  8  9  1  0
  3 10  2  0
 10 11  1  0
 11 12  1  0
 12 13  2  0
 13 14  1  0
 14 15  2  0
 15 16  1  0
 16 17  2  0
 17 18  1  0
 18 19  2  0
 19 20  1  0
 19  2  1  0
  9  4  1  0
 20 11  2  0
 20 15  1  0
  4 21  1  0
  5 22  1  0
  5 23  1  0
  6 24  1  0
  6 25  1  0
  7 26  1  0
  7 27  1  0
  8 28  1  0
  8 29  1  0
  9 30  1  0
  9 31  1  0
 10 32  1  0
 12 33  1  0
 13 34  1  0
 14 35  1  0
 16 36  1  0
 17 37  1  0
 18 38  1  0
M  CHG  1   4   1
M  END
>  <UniqueID>  (22) 
20

>  <SMILES>  (22) 
O=C1C([NH+]2CCCCC2)=Cc2cccc3cccc1c23

>  <Energy>  (22) 
61.19465279591739

>  <Genealogy>  (22) 
O=C1C([NH+]2CCCCC2)=Cc2cccc3cccc1c23 (protonated)
O=C1C([NH+]2CCCCC2)=Cc2cccc3cccc1c23 (3D coordinates assigned)
O=C1C([NH+]2CCCCC2)=Cc2cccc3cccc1c23 (nonaromatic ring conformer: 61.19465279591739 kcal/mol)

>  <smiles>  (22) 
O=C1C(N2CCCCC2)=Cc2cccc3cccc1c23

>  <score_type>  (22) 
oracle

>  <origin>  (22) 
adg

>  <m_score__min__energy>  (22) 
-6.1699999999999999

>  <m_primary>  (22) 
energy

$$$$
22:0
     RDKit          3D

 40 42  0  0  0  0  0  0  0  0999 V2000
   55.2170   26.7380   46.0720 O   0  0  0  0  0  0  0  0  0  0  0  0
   55.1070   25.3700   45.8420 C   0  0  0  0  0  0  0  0  0  0  0  0
   53.9430   24.8680   45.2480 C   0  0  0  0  0  0  0  0  0  0  0  0
   53.8120   23.4990   45.0070 C   0  0  0  0  0  0  0  0  0  0  0  0
   54.8440   22.6250   45.3560 C   0  0  0  0  0  0  0  0  0  0  0  0
   56.0090   23.1180   45.9500 C   0  0  0  0  0  0  0  0  0  0  0  0
   56.1510   24.4950   46.2010 C   0  0  0  0  0  0  0  0  0  0  0  0
   57.4300   25.0220   46.8170 C   0  0  0  0  0  0  0  0  0  0  0  0
   57.6470   26.4540   46.5010 N   0  0  0  0  0  0  0  0  0  0  0  0
   58.6240   27.0380   47.4460 C   0  0  0  0  0  0  0  0  0  0  0  0
   58.6500   28.5630   47.2950 C   0  0  0  0  0  0  0  0  0  0  0  0
   58.5730   28.9450   45.8830 N   0  0  0  0  0  0  0  0  0  0  0  0
   58.3380   30.3170   45.5380 C   0  0  0  0  0  0  0  0  0  0  0  0
   59.2100   31.3050   46.0180 C   0  0  0  0  0  0  0  0  0  0  0  0
   58.9950   32.6500   45.7030 C   0  0  0  0  0  0  0  0  0  0  0  0
   57.9080   33.0160   44.9050 C   0  0  0  0  0  0  0  0  0  0  0  0
   57.0370   32.0370   44.4170 C   0  0  0  0  0  0  0  0  0  0  0  0
   57.2460   30.6880   44.7280 C   0  0  0  0  0  0  0  0  0  0  0  0
   56.1550   29.4840   44.0580 Cl  0  0  0  0  0  0  0  0  0  0  0  0
   58.8480   27.9560   44.8360 C   0  0  0  0  0  0  0  0  0  0  0  0
   58.0860   26.6360   45.0900 C   0  0  0  0  0  0  0  0  0  0  0  0
   53.1292   25.5541   44.9703 H   0  0  0  0  0  0  0  0  0  0  0  0
   52.8950   23.1084   44.5417 H   0  0  0  0  0  0  0  0  0  0  0  0
   54.7397   21.5471   45.1631 H   0  0  0  0  0  0  0  0  0  0  0  0
   56.8192   22.4258   46.2227 H   0  0  0  0  0  0  0  0  0  0  0  0
   57.3738   24.9034   47.9091 H   0  0  0  0  0  0  0  0  0  0  0  0
   58.2709   24.4495   46.3985 H   0  0  0  0  0  0  0  0  0  0  0  0
   56.7360   26.9560   46.6320 H   0  0  0  0  0  0  0  0  0  0  0  0
   58.3356   26.7785   48.4753 H   0  0  0  0  0  0  0  0  0  0  0  0
   59.6241   26.6357   47.2269 H   0  0  0  0  0  0  0  0  0  0  0  0
   57.7926   28.9938   47.8329 H   0  0  0  0  0  0  0  0  0  0  0  0
   59.5934   28.9437   47.7134 H   0  0  0  0  0  0  0  0  0  0  0  0
   60.0674   31.0202   46.6455 H   0  0  0  0  0  0  0  0  0  0  0  0
   59.6818   33.4204   46.0835 H   0  0  0  0  0  0  0  0  0  0  0  0
   57.7374   34.0748   44.6605 H   0  0  0  0  0  0  0  0  0  0  0  0
   56.1841   32.3279   43.7862 H   0  0  0  0  0  0  0  0  0  0  0  0
   58.5362   28.3676   43.8647 H   0  0  0  0  0  0  0  0  0  0  0  0
   59.9263   27.7386   44.8411 H   0  0  0  0  0  0  0  0  0  0  0  0
   57.1947   26.6212   44.4455 H   0  0  0  0  0  0  0  0  0  0  0  0
   58.7841   25.8163   44.8648 H   0  0  0  0  0  0  0  0  0  0  0  0
  1  2  1  0
  2  3  2  0
  3  4  1  0
  4  5  2  0
  5  6  1  0
  6  7  2  0
  7  8  1  0
  8  9  1  0
  9 10  1  0
 10 11  1  0
 11 12  1  0
 12 13  1  0
 13 14  2  0
 14 15  1  0
 15 16  2  0
 16 17  1  0
 17 18  2  0
 18 19  1  0
 12 20  1  0
 20 21  1  0
  7  2  1  0
 21  9  1  0
 18 13  1  0
  3 22  1  0
  4 23  1  0
  5 24  1  0
  6 25  1  0
  8 26  1  0
  8 27  1  0
  9 28  1  0
 10 29  1  0
 10 30  1  0
 11 31  1  0
 11 32  1  0
 14 33  1  0
 15 34  1  0
 16 35  1  0
 17 36  1  0
 20 37  1  0
 20 38  1  0
 21 39  1  0
 21 40  1  0
M  CHG  2   1  -1   9   1
M  END
>  <UniqueID>  (23) 
21

>  <SMILES>  (23) 
[O-]c1ccccc1C[NH+]1CCN(c2ccccc2Cl)CC1

>  <Energy>  (23) 
54.65454814524673

>  <Genealogy>  (23) 
[O-]c1ccccc1C[NH+]1CCN(c2ccccc2Cl)CC1 (protonated)
[O-]c1ccccc1C[NH+]1CCN(c2ccccc2Cl)CC1 (3D coordinates assigned)
[O-]c1ccccc1C[NH+]1CCN(c2ccccc2Cl)CC1 (nonaromatic ring conformer: 54.65454814524673 kcal/mol)

>  <smiles>  (23) 
Oc1ccccc1CN1CCN(c2ccccc2Cl)CC1

>  <score_type>  (23) 
oracle

>  <origin>  (23) 
adg

>  <m_score__min__energy>  (23) 
-8.2699999999999996

>  <m_primary>  (23) 
energy

$$$$
23:0
     RDKit          3D

 43 47  0  0  0  0  0  0  0  0999 V2000
   57.7730   32.2020   47.3350 O   0  0  0  0  0  0  0  0  0  0  0  0
   58.1440   32.8510   46.3180 C   0  0  0  0  0  0  0  0  0  0  0  0
   57.8390   32.3670   45.0350 C   0  0  0  0  0  0  0  0  0  0  0  0
   57.0110   31.2520   44.8460 O   0  0  0  0  0  0  0  0  0  0  0  0
   57.3380   29.9460   45.2470 C   0  0  0  0  0  0  0  0  0  0  0  0
   58.6700   29.6690   45.6360 C   0  0  0  0  0  0  0  0  0  0  0  0
   59.0440   28.3770   46.0520 C   0  0  0  0  0  0  0  0  0  0  0  0
   58.0640   27.3890   46.0570 C   0  0  0  0  0  0  0  0  0  0  0  0
   58.1930   26.1040   46.4140 N   0  0  0  0  0  0  0  0  0  0  0  0
   56.9410   25.6140   46.2200 C   0  0  0  0  0  0  0  0  0  0  0  0
   56.0450   26.5280   45.7600 N   0  0  0  0  0  0  0  0  0  0  0  0
   56.7860   27.6410   45.6690 C   0  0  0  0  0  0  0  0  0  0  0  0
   56.3780   28.9020   45.2460 C   0  0  0  0  0  0  0  0  0  0  0  0
   58.3870   33.0140   43.9260 C   0  0  0  0  0  0  0  0  0  0  0  0
   58.0820   32.4300   42.2980 Cl  0  0  0  0  0  0  0  0  0  0  0  0
   59.1600   34.1550   44.1210 C   0  0  0  0  0  0  0  0  0  0  0  0
   59.3540   34.6290   45.3780 N   0  0  0  0  0  0  0  0  0  0  0  0
   58.8470   34.0190   46.4550 N   0  0  0  0  0  0  0  0  0  0  0  0
   59.0740   34.6290   47.7730 C   0  0  0  0  0  0  0  0  0  0  0  0
   60.0800   33.8300   48.5840 C   0  0  0  0  0  0  0  0  0  0  0  0
   59.6950   33.3710   49.8570 C   0  0  0  0  0  0  0  0  0  0  0  0
   60.6040   32.7220   50.6910 C   0  0  0  0  0  0  0  0  0  0  0  0
   61.9170   32.5190   50.2750 C   0  0  0  0  0  0  0  0  0  0  0  0
   62.3310   32.9450   49.0070 C   0  0  0  0  0  0  0  0  0  0  0  0
   63.6570   32.7330   48.5970 C   0  0  0  0  0  0  0  0  0  0  0  0
   64.0760   33.1450   47.3330 C   0  0  0  0  0  0  0  0  0  0  0  0
   63.1780   33.7640   46.4660 C   0  0  0  0  0  0  0  0  0  0  0  0
   61.8550   33.9860   46.8580 C   0  0  0  0  0  0  0  0  0  0  0  0
   61.4110   33.5940   48.1390 C   0  0  0  0  0  0  0  0  0  0  0  0
   59.4215   30.4719   45.6131 H   0  0  0  0  0  0  0  0  0  0  0  0
   60.0759   28.1560   46.3625 H   0  0  0  0  0  0  0  0  0  0  0  0
   56.6741   24.5655   46.4184 H   0  0  0  0  0  0  0  0  0  0  0  0
   55.3430   29.0837   44.9209 H   0  0  0  0  0  0  0  0  0  0  0  0
   59.6116   34.6702   43.2604 H   0  0  0  0  0  0  0  0  0  0  0  0
   59.4563   35.6510   47.6340 H   0  0  0  0  0  0  0  0  0  0  0  0
   58.1192   34.6422   48.3191 H   0  0  0  0  0  0  0  0  0  0  0  0
   58.6612   33.5266   50.1993 H   0  0  0  0  0  0  0  0  0  0  0  0
   60.2826   32.3688   51.6819 H   0  0  0  0  0  0  0  0  0  0  0  0
   62.6328   32.0214   50.9458 H   0  0  0  0  0  0  0  0  0  0  0  0
   64.3681   32.2398   49.2760 H   0  0  0  0  0  0  0  0  0  0  0  0
   65.1175   32.9811   47.0194 H   0  0  0  0  0  0  0  0  0  0  0  0
   63.5124   34.0799   45.4668 H   0  0  0  0  0  0  0  0  0  0  0  0
   61.1539   34.4703   46.1623 H   0  0  0  0  0  0  0  0  0  0  0  0
  1  2  2  0
  2  3  1  0
  3  4  1  0
  4  5  1  0
  5  6  2  0
  6  7  1  0
  7  8  2  0
  8  9  1  0
  9 10  1  0
 10 11  2  0
 11 12  1  0
 12 13  2  0
  3 14  2  0
 14 15  1  0
 14 16  1  0
 16 17  2  0
 17 18  1  0
 18 19  1  0
 19 20  1  0
 20 21  2  0
 21 22  1  0
 22 23  2  0
 23 24  1  0
 24 25  2  0
 25 26  1  0
 26 27  2  0
 27 28  1  0
 28 29  2  0
 18  2  1  0
 29 20  1  0
 13  5  1  0
 29 24  1  0
 12  8  1  0
  6 30  1  0
  7 31  1  0
 10 32  1  0
 13 33  1  0
 16 34  1  0
 19 35  1  0
 19 36  1  0
 21 37  1  0
 22 38  1  0
 23 39  1  0
 25 40  1  0
 26 41  1  0
 27 42  1  0
 28 43  1  0
M  CHG  1   9  -1
M  END
>  <UniqueID>  (24) 
22

>  <SMILES>  (24) 
O=c1c(Oc2ccc3[n-]cnc3c2)c(Cl)cnn1Cc1cccc2ccccc12

>  <Energy>  (24) 
99.06497520395386

>  <Genealogy>  (24) 
O=c1c(Oc2ccc3[n-]cnc3c2)c(Cl)cnn1Cc1cccc2ccccc12 (protonated)
O=c1c(Oc2ccc3[n-]cnc3c2)c(Cl)cnn1Cc1cccc2ccccc12 (3D coordinates assigned)
O=c1c(Oc2ccc3[n-]cnc3c2)c(Cl)cnn1Cc1cccc2ccccc12 (optimized conformer: 99.06497520395386 kcal/mol)

>  <smiles>  (24) 
O=c1c(Oc2ccc3[nH]cnc3c2)c(Cl)cnn1Cc1cccc2ccccc12

>  <score_type>  (24) 
oracle

>  <origin>  (24) 
adg

>  <m_score__min__energy>  (24) 
-10.630000000000001

>  <m_primary>  (24) 
energy

$$$$
24:0
     RDKit          3D

 41 43  0  0  0  0  0  0  0  0999 V2000
   57.3970   31.9840   41.7190 C   0  0  0  0  0  0  0  0  0  0  0  0
   57.7700   32.0890   43.1670 C   0  0  0  0  0  0  0  0  0  0  0  0
   58.4370   33.2040   43.5540 N   0  0  0  0  0  0  0  0  0  0  0  0
   58.7860   33.4300   44.8420 C   0  0  0  0  0  0  0  0  0  0  0  0
   59.4820   34.6010   45.1620 C   0  0  0  0  0  0  0  0  0  0  0  0
   59.8410   34.8490   46.4840 C   0  0  0  0  0  0  0  0  0  0  0  0
   59.5020   33.9300   47.4720 C   0  0  0  0  0  0  0  0  0  0  0  0
   58.8050   32.7700   47.1250 C   0  0  0  0  0  0  0  0  0  0  0  0
   58.4530   32.5240   45.8200 N   0  0  0  0  0  0  0  0  0  0  0  0
   57.7700   31.3810   45.4810 C   0  0  0  0  0  0  0  0  0  0  0  0
   57.4490   30.5510   46.3770 O   0  0  0  0  0  0  0  0  0  0  0  0
   57.4260   31.1150   44.1350 C   0  0  0  0  0  0  0  0  0  0  0  0
   56.5650   29.5950   43.7280 S   0  0  0  0  0  0  0  0  0  0  0  0
   55.2280   29.6100   44.4170 O   0  0  0  0  0  0  0  0  0  0  0  0
   56.2850   29.5260   42.2530 O   0  0  0  0  0  0  0  0  0  0  0  0
   57.4200   28.1460   44.2340 N   0  0  0  0  0  0  0  0  0  0  0  0
   57.0480   27.7650   45.6180 C   0  0  0  0  0  0  0  0  0  0  0  0
   58.1090   26.8560   46.2560 C   0  0  0  0  0  0  0  0  0  0  0  0
   59.4330   27.5230   46.3400 N   0  0  0  0  0  0  0  0  0  0  0  0
   59.6830   28.0520   47.6910 C   0  0  0  0  0  0  0  0  0  0  0  0
   59.6270   28.5890   45.3270 C   0  0  0  0  0  0  0  0  0  0  0  0
   58.8870   28.2530   44.0260 C   0  0  0  0  0  0  0  0  0  0  0  0
   56.3414   31.6868   41.6329 H   0  0  0  0  0  0  0  0  0  0  0  0
   57.5446   32.9586   41.2307 H   0  0  0  0  0  0  0  0  0  0  0  0
   58.0313   31.2295   41.2307 H   0  0  0  0  0  0  0  0  0  0  0  0
   59.7440   35.3216   44.3733 H   0  0  0  0  0  0  0  0  0  0  0  0
   60.3893   35.7659   46.7458 H   0  0  0  0  0  0  0  0  0  0  0  0
   59.7810   34.1156   48.5197 H   0  0  0  0  0  0  0  0  0  0  0  0
   58.5347   32.0446   47.9064 H   0  0  0  0  0  0  0  0  0  0  0  0
   57.0800   27.3830   43.6010 H   0  0  0  0  0  0  0  0  0  0  0  0
   56.9469   28.6769   46.2248 H   0  0  0  0  0  0  0  0  0  0  0  0
   56.0976   27.2124   45.5802 H   0  0  0  0  0  0  0  0  0  0  0  0
   57.7820   26.5861   47.2710 H   0  0  0  0  0  0  0  0  0  0  0  0
   58.2173   25.9629   45.6230 H   0  0  0  0  0  0  0  0  0  0  0  0
   59.3386   27.3233   48.4396 H   0  0  0  0  0  0  0  0  0  0  0  0
   60.7606   28.2302   47.8214 H   0  0  0  0  0  0  0  0  0  0  0  0
   59.1365   28.9977   47.8214 H   0  0  0  0  0  0  0  0  0  0  0  0
   59.2405   29.5386   45.7256 H   0  0  0  0  0  0  0  0  0  0  0  0
   60.7016   28.6720   45.1073 H   0  0  0  0  0  0  0  0  0  0  0  0
   59.0847   29.0459   43.2896 H   0  0  0  0  0  0  0  0  0  0  0  0
   59.2522   27.2790   43.6683 H   0  0  0  0  0  0  0  0  0  0  0  0
  1  2  1  0
  2  3  1  0
  3  4  2  0
  4  5  1  0
  5  6  2  0
  6  7  1  0
  7  8  2  0
  8  9  1  0
  9 10  1  0
 10 11  2  0
 10 12  1  0
 12 13  1  0
 13 14  2  0
 13 15  2  0
 13 16  1  0
 16 17  1  0
 17 18  1  0
 18 19  1  0
 19 20  1  0
 19 21  1  0
 21 22  1  0
 12  2  2  0
 22 16  1  0
  9  4  1  0
  1 23  1  0
  1 24  1  0
  1 25  1  0
  5 26  1  0
  6 27  1  0
  7 28  1  0
  8 29  1  0
 16 30  1  0
 17 31  1  0
 17 32  1  0
 18 33  1  0
 18 34  1  0
 20 35  1  0
 20 36  1  0
 20 37  1  0
 21 38  1  0
 21 39  1  0
 22 40  1  0
 22 41  1  0
M  CHG  1  16   1
M  END
>  <UniqueID>  (25) 
23

>  <SMILES>  (25) 
Cc1nc2ccccn2c(=O)c1S(=O)(=O)[NH+]1CCN(C)CC1

>  <Energy>  (25) 
63.52374490623365

>  <Genealogy>  (25) 
Cc1nc2ccccn2c(=O)c1S(=O)(=O)[NH+]1CCN(C)CC1 (protonated)
Cc1nc2ccccn2c(=O)c1S(=O)(=O)[NH+]1CCN(C)CC1 (3D coordinates assigned)
Cc1nc2ccccn2c(=O)c1S(=O)(=O)[NH+]1CCN(C)CC1 (nonaromatic ring conformer: 63.52374490623365 kcal/mol)

>  <smiles>  (25) 
Cc1nc2ccccn2c(=O)c1S(=O)(=O)N1CCN(C)CC1

>  <score_type>  (25) 
oracle

>  <origin>  (25) 
adg

>  <m_score__min__energy>  (25) 
-7.3200000000000003

>  <m_primary>  (25) 
energy

$$$$
25:0
     RDKit          3D

 57 61  0  0  0  0  0  0  0  0999 V2000
   60.3530   23.0810   45.1890 O   0  0  0  0  0  0  0  0  0  0  0  0
   59.3080   23.6100   45.6600 C   0  0  0  0  0  0  0  0  0  0  0  0
   58.1590   22.8280   45.7680 O   0  0  0  0  0  0  0  0  0  0  0  0
   56.9360   23.1450   45.1020 C   0  0  0  0  0  0  0  0  0  0  0  0
   56.0640   24.2290   45.8380 C   0  0  0  0  0  0  0  0  0  0  0  0
   54.6760   24.4220   45.1280 C   0  0  0  0  0  0  0  0  0  0  0  0
   53.5230   23.5620   45.6900 C   0  0  0  0  0  0  0  0  0  0  0  0
   54.0080   22.2270   46.2520 C   0  0  0  0  0  0  0  0  0  0  0  0
   55.0280   22.4210   47.3890 C   0  0  0  0  0  0  0  0  0  0  0  0
   55.8090   23.7510   47.3000 C   0  0  0  0  0  0  0  0  0  0  0  0
   56.8450   25.5800   45.9180 C   0  0  0  0  0  0  0  0  0  0  0  0
   58.1440   25.5810   46.7590 C   0  0  0  0  0  0  0  0  0  0  0  0
   59.3210   24.9790   46.1110 N   0  0  0  0  0  0  0  0  0  0  0  0
   60.6030   25.6900   46.2570 C   0  0  0  0  0  0  0  0  0  0  0  0
   60.3760   27.1750   46.2790 C   0  0  0  0  0  0  0  0  0  0  0  0
   60.2370   27.8940   45.0820 C   0  0  0  0  0  0  0  0  0  0  0  0
   60.0510   29.2780   45.1080 C   0  0  0  0  0  0  0  0  0  0  0  0
   60.0470   29.9700   46.3300 C   0  0  0  0  0  0  0  0  0  0  0  0
   59.8290   31.4370   46.3670 C   0  0  0  0  0  0  0  0  0  0  0  0
   60.8710   32.2420   46.8690 C   0  0  0  0  0  0  0  0  0  0  0  0
   60.7060   33.6200   47.0120 C   0  0  0  0  0  0  0  0  0  0  0  0
   59.4960   34.2170   46.6600 C   0  0  0  0  0  0  0  0  0  0  0  0
   58.4520   33.4410   46.1530 C   0  0  0  0  0  0  0  0  0  0  0  0
   58.6000   32.0500   45.9890 C   0  0  0  0  0  0  0  0  0  0  0  0
   57.4630   31.2900   45.4090 C   0  0  0  0  0  0  0  0  0  0  0  0
   57.1930   30.0020   45.6970 N   0  0  0  0  0  0  0  0  0  0  0  0
   56.1170   29.7140   44.9850 N   0  0  0  0  0  0  0  0  0  0  0  0
   55.7350   30.7800   44.3000 N   0  0  0  0  0  0  0  0  0  0  0  0
   56.5520   31.7870   44.5520 N   0  0  0  0  0  0  0  0  0  0  0  0
   60.1750   29.2470   47.5280 C   0  0  0  0  0  0  0  0  0  0  0  0
   60.3320   27.8590   47.5030 C   0  0  0  0  0  0  0  0  0  0  0  0
   57.1777   23.5208   44.0968 H   0  0  0  0  0  0  0  0  0  0  0  0
   56.3394   22.2211   45.0790 H   0  0  0  0  0  0  0  0  0  0  0  0
   54.3892   25.4796   45.2238 H   0  0  0  0  0  0  0  0  0  0  0  0
   54.8187   24.0971   44.0868 H   0  0  0  0  0  0  0  0  0  0  0  0
   53.0244   24.1229   46.4943 H   0  0  0  0  0  0  0  0  0  0  0  0
   52.8339   23.3445   44.8607 H   0  0  0  0  0  0  0  0  0  0  0  0
   53.1433   21.6693   46.6409 H   0  0  0  0  0  0  0  0  0  0  0  0
   54.5028   21.6741   45.4399 H   0  0  0  0  0  0  0  0  0  0  0  0
   54.4887   22.3980   48.3475 H   0  0  0  0  0  0  0  0  0  0  0  0
   55.7645   21.6085   47.3033 H   0  0  0  0  0  0  0  0  0  0  0  0
   55.2334   24.5280   47.8244 H   0  0  0  0  0  0  0  0  0  0  0  0
   56.7936   23.5780   47.7590 H   0  0  0  0  0  0  0  0  0  0  0  0
   57.1117   25.8725   44.8917 H   0  0  0  0  0  0  0  0  0  0  0  0
   56.1666   26.2770   46.4317 H   0  0  0  0  0  0  0  0  0  0  0  0
   58.3888   26.6254   47.0026 H   0  0  0  0  0  0  0  0  0  0  0  0
   57.9330   24.9569   47.6399 H   0  0  0  0  0  0  0  0  0  0  0  0
   61.0835   25.3824   47.1975 H   0  0  0  0  0  0  0  0  0  0  0  0
   61.2503   25.4395   45.4036 H   0  0  0  0  0  0  0  0  0  0  0  0
   60.2747   27.3649   44.1183 H   0  0  0  0  0  0  0  0  0  0  0  0
   59.9069   29.8287   44.1667 H   0  0  0  0  0  0  0  0  0  0  0  0
   61.8273   31.7777   47.1519 H   0  0  0  0  0  0  0  0  0  0  0  0
   61.5301   34.2353   47.4023 H   0  0  0  0  0  0  0  0  0  0  0  0
   59.3637   35.3022   46.7821 H   0  0  0  0  0  0  0  0  0  0  0  0
   57.5017   33.9221   45.8781 H   0  0  0  0  0  0  0  0  0  0  0  0
   60.1514   29.7771   48.4915 H   0  0  0  0  0  0  0  0  0  0  0  0
   60.4214   27.3005   48.4464 H   0  0  0  0  0  0  0  0  0  0  0  0
  1  2  2  0
  2  3  1  0
  3  4  1  0
  4  5  1  0
  5  6  1  0
  6  7  1  0
  7  8  1  0
  8  9  1  0
  9 10  1  0
  5 11  1  0
 11 12  1  0
 12 13  1  0
 13 14  1  0
 14 15  1  0
 15 16  2  0
 16 17  1  0
 17 18  2  0
 18 19  1  0
 19 20  2  0
 20 21  1  0
 21 22  2  0
 22 23  1  0
 23 24  2  0
 24 25  1  0
 25 26  1  0
 26 27  2  0
 27 28  1  0
 28 29  1  0
 18 30  1  0
 30 31  2  0
 13  2  1  0
 31 15  1  0
 10  5  1  0
 24 19  1  0
 29 25  2  0
  4 32  1  0
  4 33  1  0
  6 34  1  0
  6 35  1  0
  7 36  1  0
  7 37  1  0
  8 38  1  0
  8 39  1  0
  9 40  1  0
  9 41  1  0
 10 42  1  0
 10 43  1  0
 11 44  1  0
 11 45  1  0
 12 46  1  0
 12 47  1  0
 14 48  1  0
 14 49  1  0
 16 50  1  0
 17 51  1  0
 20 52  1  0
 21 53  1  0
 22 54  1  0
 23 55  1  0
 30 56  1  0
 31 57  1  0
M  CHG  1  28  -1
M  END
>  <UniqueID>  (26) 
24

>  <SMILES>  (26) 
O=C1OCC2(CCCCC2)CCN1Cc1ccc(-c2ccccc2-c2nn[n-]n2)cc1

>  <Energy>  (26) 
127.38421011635896

>  <Genealogy>  (26) 
O=C1OCC2(CCCCC2)CCN1Cc1ccc(-c2ccccc2-c2nn[n-]n2)cc1 (protonated)
O=C1OCC2(CCCCC2)CCN1Cc1ccc(-c2ccccc2-c2nn[n-]n2)cc1 (3D coordinates assigned)
O=C1OCC2(CCCCC2)CCN1Cc1ccc(-c2ccccc2-c2nn[n-]n2)cc1 (nonaromatic ring conformer: 127.38421011635896 kcal/mol)

>  <smiles>  (26) 
O=C1OCC2(CCCCC2)CCN1Cc1ccc(-c2ccccc2-c2nn[nH]n2)cc1

>  <score_type>  (26) 
oracle

>  <origin>  (26) 
adg

>  <m_score__min__energy>  (26) 
-9.0500000000000007

>  <m_primary>  (26) 
energy

$$$$
26:0
     RDKit          3D

 52 55  0  0  0  0  0  0  0  0999 V2000
   56.3100   29.3280   42.2650 C   0  0  0  0  0  0  0  0  0  0  0  0
   56.8870   30.4550   43.0680 C   0  0  0  0  0  0  0  0  0  0  0  0
   56.9830   30.3550   44.4650 C   0  0  0  0  0  0  0  0  0  0  0  0
   57.5500   31.3940   45.2080 C   0  0  0  0  0  0  0  0  0  0  0  0
   58.0450   32.5350   44.5620 C   0  0  0  0  0  0  0  0  0  0  0  0
   58.7400   33.8650   45.4860 S   0  0  0  0  0  0  0  0  0  0  0  0
   59.6330   34.6960   44.6030 O   0  0  0  0  0  0  0  0  0  0  0  0
   57.6220   34.7350   45.9940 O   0  0  0  0  0  0  0  0  0  0  0  0
   59.6550   33.2190   46.8250 N   0  0  0  0  0  0  0  0  0  0  0  0
   60.7230   34.1590   47.2140 C   0  0  0  0  0  0  0  0  0  0  0  0
   61.6730   33.4920   48.2220 C   0  0  0  0  0  0  0  0  0  0  0  0
   60.9430   32.5340   49.0550 N   0  0  0  0  0  0  0  0  0  0  0  0
   61.6470   31.4390   49.6600 C   0  0  0  0  0  0  0  0  0  0  0  0
   62.7190   31.6540   50.2880 O   0  0  0  0  0  0  0  0  0  0  0  0
   61.1540   30.0640   49.4980 C   0  0  0  0  0  0  0  0  0  0  0  0
   61.3600   29.0120   50.3690 C   0  0  0  0  0  0  0  0  0  0  0  0
   60.7390   27.9230   49.7940 C   0  0  0  0  0  0  0  0  0  0  0  0
   60.1980   28.3790   48.6010 C   0  0  0  0  0  0  0  0  0  0  0  0
   59.4490   27.5910   47.5960 C   0  0  0  0  0  0  0  0  0  0  0  0
   59.9860   26.3770   47.1300 C   0  0  0  0  0  0  0  0  0  0  0  0
   59.2830   25.5990   46.2040 C   0  0  0  0  0  0  0  0  0  0  0  0
   58.0400   26.0250   45.7320 C   0  0  0  0  0  0  0  0  0  0  0  0
   57.5020   27.2360   46.1780 C   0  0  0  0  0  0  0  0  0  0  0  0
   58.2020   28.0160   47.1030 C   0  0  0  0  0  0  0  0  0  0  0  0
   60.4630   29.6570   48.4620 O   0  0  0  0  0  0  0  0  0  0  0  0
   59.5100   32.7290   49.2920 C   0  0  0  0  0  0  0  0  0  0  0  0
   58.7520   32.9270   47.9600 C   0  0  0  0  0  0  0  0  0  0  0  0
   57.9640   32.6290   43.1660 C   0  0  0  0  0  0  0  0  0  0  0  0
   57.3950   31.5920   42.4220 C   0  0  0  0  0  0  0  0  0  0  0  0
   55.9158   28.5580   42.9444 H   0  0  0  0  0  0  0  0  0  0  0  0
   55.4960   29.7089   41.6307 H   0  0  0  0  0  0  0  0  0  0  0  0
   57.0949   28.8903   41.6307 H   0  0  0  0  0  0  0  0  0  0  0  0
   56.6105   29.4554   44.9768 H   0  0  0  0  0  0  0  0  0  0  0  0
   57.6080   31.3160   46.3037 H   0  0  0  0  0  0  0  0  0  0  0  0
   60.0880   32.3220   46.4970 H   0  0  0  0  0  0  0  0  0  0  0  0
   61.2910   34.4546   46.3196 H   0  0  0  0  0  0  0  0  0  0  0  0
   60.2694   35.0463   47.6798 H   0  0  0  0  0  0  0  0  0  0  0  0
   62.4688   32.9645   47.6757 H   0  0  0  0  0  0  0  0  0  0  0  0
   62.1086   34.2678   48.8688 H   0  0  0  0  0  0  0  0  0  0  0  0
   61.9062   29.0375   51.3235 H   0  0  0  0  0  0  0  0  0  0  0  0
   60.6840   26.9017   50.1988 H   0  0  0  0  0  0  0  0  0  0  0  0
   60.9659   26.0371   47.4965 H   0  0  0  0  0  0  0  0  0  0  0  0
   59.7102   24.6502   45.8472 H   0  0  0  0  0  0  0  0  0  0  0  0
   57.4845   25.4085   45.0100 H   0  0  0  0  0  0  0  0  0  0  0  0
   56.5262   27.5755   45.8004 H   0  0  0  0  0  0  0  0  0  0  0  0
   57.7746   28.9691   47.4479 H   0  0  0  0  0  0  0  0  0  0  0  0
   59.1068   31.8450   49.8077 H   0  0  0  0  0  0  0  0  0  0  0  0
   59.3755   33.6292   49.9097 H   0  0  0  0  0  0  0  0  0  0  0  0
   58.1905   32.0082   47.7351 H   0  0  0  0  0  0  0  0  0  0  0  0
   58.0848   33.7927   48.0839 H   0  0  0  0  0  0  0  0  0  0  0  0
   58.3499   33.5228   42.6539 H   0  0  0  0  0  0  0  0  0  0  0  0
   57.3452   31.6675   41.3257 H   0  0  0  0  0  0  0  0  0  0  0  0
  1  2  1  0
  2  3  2  0
  3  4  1  0
  4  5  2  0
  5  6  1  0
  6  7  2  0
  6  8  2  0
  6  9  1  0
  9 10  1  0
 10 11  1  0
 11 12  1  0
 12 13  1  0
 13 14  2  0
 13 15  1  0
 15 16  2  0
 16 17  1  0
 17 18  2  0
 18 19  1  0
 19 20  2  0
 20 21  1  0
 21 22  2  0
 22 23  1  0
 23 24  2  0
 18 25  1  0
 12 26  1  0
 26 27  1  0
  5 28  1  0
 28 29  2  0
 29  2  1  0
 27  9  1  0
 25 15  1  0
 24 19  1  0
  1 30  1  0
  1 31  1  0
  1 32  1  0
  3 33  1  0
  4 34  1  0
  9 35  1  0
 10 36  1  0
 10 37  1  0
 11 38  1  0
 11 39  1  0
 16 40  1  0
 17 41  1  0
 20 42  1  0
 21 43  1  0
 22 44  1  0
 23 45  1  0
 24 46  1  0
 26 47  1  0
 26 48  1  0
 27 49  1  0
 27 50  1  0
 28 51  1  0
 29 52  1  0
M  CHG  1   9   1
M  END
>  <UniqueID>  (27) 
25

>  <SMILES>  (27) 
Cc1ccc(S(=O)(=O)[NH+]2CCN(C(=O)c3ccc(-c4ccccc4)o3)CC2)cc1

>  <Energy>  (27) 
87.4862271893504

>  <Genealogy>  (27) 
Cc1ccc(S(=O)(=O)[NH+]2CCN(C(=O)c3ccc(-c4ccccc4)o3)CC2)cc1 (protonated)
Cc1ccc(S(=O)(=O)[NH+]2CCN(C(=O)c3ccc(-c4ccccc4)o3)CC2)cc1 (3D coordinates assigned)
Cc1ccc(S(=O)(=O)[NH+]2CCN(C(=O)c3ccc(-c4ccccc4)o3)CC2)cc1 (nonaromatic ring conformer: 87.4862271893504 kcal/mol)

>  <smiles>  (27) 
Cc1ccc(S(=O)(=O)N2CCN(C(=O)c3ccc(-c4ccccc4)o3)CC2)cc1

>  <score_type>  (27) 
oracle

>  <origin>  (27) 
adg

>  <m_score__min__energy>  (27) 
-7.6399999999999997

>  <m_primary>  (27) 
energy

$$$$
27:0
     RDKit          3D

 48 51  0  0  0  0  0  0  0  0999 V2000
   56.6060   29.7910   42.5990 O   0  0  0  0  0  0  0  0  0  0  0  0
   56.6450   29.5000   44.0740 S   0  0  0  0  0  0  0  0  0  0  0  0
   55.2320   29.4100   44.5810 O   0  0  0  0  0  0  0  0  0  0  0  0
   57.4650   30.8090   44.9200 C   0  0  0  0  0  0  0  0  0  0  0  0
   57.8870   30.6430   46.2620 C   0  0  0  0  0  0  0  0  0  0  0  0
   58.5210   31.6930   46.9490 C   0  0  0  0  0  0  0  0  0  0  0  0
   58.7150   32.8980   46.2680 C   0  0  0  0  0  0  0  0  0  0  0  0
   58.3010   33.0600   44.9720 C   0  0  0  0  0  0  0  0  0  0  0  0
   58.6350   34.3390   44.5820 C   0  0  0  0  0  0  0  0  0  0  0  0
   59.2560   34.9090   45.6870 C   0  0  0  0  0  0  0  0  0  0  0  0
   59.2950   34.0300   46.7180 N   0  0  0  0  0  0  0  0  0  0  0  0
   59.9350   34.2580   48.0140 C   0  0  0  0  0  0  0  0  0  0  0  0
   61.3790   33.8410   47.9610 C   0  0  0  0  0  0  0  0  0  0  0  0
   62.0570   33.5040   49.1450 C   0  0  0  0  0  0  0  0  0  0  0  0
   63.4080   33.1430   49.1050 C   0  0  0  0  0  0  0  0  0  0  0  0
   64.0910   33.1200   47.8860 C   0  0  0  0  0  0  0  0  0  0  0  0
   63.4250   33.4570   46.7050 C   0  0  0  0  0  0  0  0  0  0  0  0
   62.0750   33.8180   46.7400 C   0  0  0  0  0  0  0  0  0  0  0  0
   57.6710   32.0390   44.2640 C   0  0  0  0  0  0  0  0  0  0  0  0
   57.4740   27.9880   44.3650 N   0  0  0  0  0  0  0  0  0  0  0  0
   57.3220   27.6020   45.7900 C   0  0  0  0  0  0  0  0  0  0  0  0
   58.3920   26.5920   46.2180 C   0  0  0  0  0  0  0  0  0  0  0  0
   59.8020   27.1950   46.0960 C   0  0  0  0  0  0  0  0  0  0  0  0
   59.8810   28.3110   45.0390 C   0  0  0  0  0  0  0  0  0  0  0  0
   58.8860   28.0620   43.8960 C   0  0  0  0  0  0  0  0  0  0  0  0
   57.7170   29.6831   46.7716 H   0  0  0  0  0  0  0  0  0  0  0  0
   58.8540   31.5700   47.9901 H   0  0  0  0  0  0  0  0  0  0  0  0
   58.4496   34.8085   43.6047 H   0  0  0  0  0  0  0  0  0  0  0  0
   59.6598   35.9316   45.7202 H   0  0  0  0  0  0  0  0  0  0  0  0
   59.8746   35.3271   48.2660 H   0  0  0  0  0  0  0  0  0  0  0  0
   59.4172   33.6617   48.7797 H   0  0  0  0  0  0  0  0  0  0  0  0
   61.5234   33.5242   50.1067 H   0  0  0  0  0  0  0  0  0  0  0  0
   63.9333   32.8769   50.0341 H   0  0  0  0  0  0  0  0  0  0  0  0
   65.1534   32.8364   47.8563 H   0  0  0  0  0  0  0  0  0  0  0  0
   63.9638   33.4382   45.7462 H   0  0  0  0  0  0  0  0  0  0  0  0
   61.5552   34.0852   45.8081 H   0  0  0  0  0  0  0  0  0  0  0  0
   57.3442   32.1884   43.2243 H   0  0  0  0  0  0  0  0  0  0  0  0
   56.9830   27.2680   43.7840 H   0  0  0  0  0  0  0  0  0  0  0  0
   57.4108   28.5027   46.4152 H   0  0  0  0  0  0  0  0  0  0  0  0
   56.3354   27.1321   45.9159 H   0  0  0  0  0  0  0  0  0  0  0  0
   58.2144   26.3019   47.2641 H   0  0  0  0  0  0  0  0  0  0  0  0
   58.3286   25.7145   45.5578 H   0  0  0  0  0  0  0  0  0  0  0  0
   60.0917   27.6129   47.0714 H   0  0  0  0  0  0  0  0  0  0  0  0
   60.4817   26.3897   45.7806 H   0  0  0  0  0  0  0  0  0  0  0  0
   59.6468   29.2743   45.5156 H   0  0  0  0  0  0  0  0  0  0  0  0
   60.8980   28.3238   44.6201 H   0  0  0  0  0  0  0  0  0  0  0  0
   58.9724   28.8836   43.1697 H   0  0  0  0  0  0  0  0  0  0  0  0
   59.1363   27.0904   43.4451 H   0  0  0  0  0  0  0  0  0  0  0  0
  1  2  2  0
  2  3  2  0
  2  4  1  0
  4  5  2  0
  5  6  1  0
  6  7  2  0
  7  8  1  0
  8  9  1  0
  9 10  2  0
 10 11  1  0
 11 12  1  0
 12 13  1  0
 13 14  2  0
 14 15  1  0
 15 16  2  0
 16 17  1  0
 17 18  2  0
  8 19  2  0
  2 20  1  0
 20 21  1  0
 21 22  1  0
 22 23  1  0
 23 24  1  0
 24 25  1  0
 19  4  1  0
 25 20  1  0
 11  7  1  0
 18 13  1  0
  5 26  1  0
  6 27  1  0
  9 28  1  0
 10 29  1  0
 12 30  1  0
 12 31  1  0
 14 32  1  0
 15 33  1  0
 16 34  1  0
 17 35  1  0
 18 36  1  0
 19 37  1  0
 20 38  1  0
 21 39  1  0
 21 40  1  0
 22 41  1  0
 22 42  1  0
 23 43  1  0
 23 44  1  0
 24 45  1  0
 24 46  1  0
 25 47  1  0
 25 48  1  0
M  CHG  1  20   1
M  END
>  <UniqueID>  (28) 
26

>  <SMILES>  (28) 
O=S(=O)(c1ccc2c(ccn2Cc2ccccc2)c1)[NH+]1CCCCC1

>  <Energy>  (28) 
87.50070924625147

>  <Genealogy>  (28) 
O=S(=O)(c1ccc2c(ccn2Cc2ccccc2)c1)[NH+]1CCCCC1 (protonated)
O=S(=O)(c1ccc2c(ccn2Cc2ccccc2)c1)[NH+]1CCCCC1 (3D coordinates assigned)
O=S(=O)(c1ccc2c(ccn2Cc2ccccc2)c1)[NH+]1CCCCC1 (nonaromatic ring conformer: 87.50070924625147 kcal/mol)

>  <smiles>  (28) 
O=S(=O)(c1ccc2c(ccn2Cc2ccccc2)c1)N1CCCCC1

>  <score_type>  (28) 
oracle

>  <origin>  (28) 
adg

>  <m_score__min__energy>  (28) 
-8.7300000000000004

>  <m_primary>  (28) 
energy

$$$$
28:0
     RDKit          3D

 29 31  0  0  0  0  0  0  0  0999 V2000
   57.3230   31.6290   41.6930 C   0  0  0  0  0  0  0  0  0  0  0  0
   57.3890   31.7350   43.1810 C   0  0  0  0  0  0  0  0  0  0  0  0
   58.0630   32.6990   43.8380 N   0  0  0  0  0  0  0  0  0  0  0  0
   57.8340   32.4070   45.1370 C   0  0  0  0  0  0  0  0  0  0  0  0
   58.3740   33.1850   46.2630 C   0  0  0  0  0  0  0  0  0  0  0  0
   58.5440   34.5660   46.2840 C   0  0  0  0  0  0  0  0  0  0  0  0
   59.0620   34.9610   47.4690 N   0  0  0  0  0  0  0  0  0  0  0  0
   59.2210   33.8440   48.1970 C   0  0  0  0  0  0  0  0  0  0  0  0
   59.7260   33.7500   49.4940 C   0  0  0  0  0  0  0  0  0  0  0  0
   59.8100   32.4740   50.0780 C   0  0  0  0  0  0  0  0  0  0  0  0
   59.3900   31.3320   49.3620 C   0  0  0  0  0  0  0  0  0  0  0  0
   58.8840   31.4540   48.0550 C   0  0  0  0  0  0  0  0  0  0  0  0
   58.8130   32.7340   47.4980 C   0  0  0  0  0  0  0  0  0  0  0  0
   57.0730   31.3450   45.2950 O   0  0  0  0  0  0  0  0  0  0  0  0
   56.7740   30.9090   44.0980 C   0  0  0  0  0  0  0  0  0  0  0  0
   55.9400   29.6970   43.8220 C   0  0  0  0  0  0  0  0  0  0  0  0
   55.2020   29.3530   44.9620 O   0  0  0  0  0  0  0  0  0  0  0  0
   56.7606   30.7257   41.4143 H   0  0  0  0  0  0  0  0  0  0  0  0
   56.8175   32.5163   41.2843 H   0  0  0  0  0  0  0  0  0  0  0  0
   58.3424   31.5669   41.2843 H   0  0  0  0  0  0  0  0  0  0  0  0
   58.2923   35.2416   45.4532 H   0  0  0  0  0  0  0  0  0  0  0  0
   59.2910   35.9390   47.7560 H   0  0  0  0  0  0  0  0  0  0  0  0
   60.0486   34.6469   50.0430 H   0  0  0  0  0  0  0  0  0  0  0  0
   60.2052   32.3647   51.0987 H   0  0  0  0  0  0  0  0  0  0  0  0
   59.4590   30.3388   49.8298 H   0  0  0  0  0  0  0  0  0  0  0  0
   58.5546   30.5700   47.4893 H   0  0  0  0  0  0  0  0  0  0  0  0
   55.2501   29.9109   42.9924 H   0  0  0  0  0  0  0  0  0  0  0  0
   56.5995   28.8589   43.5525 H   0  0  0  0  0  0  0  0  0  0  0  0
   55.3370   30.0840   45.6200 H   0  0  0  0  0  0  0  0  0  0  0  0
  1  2  1  0
  2  3  1  0
  3  4  2  0
  4  5  1  0
  5  6  2  0
  6  7  1  0
  7  8  1  0
  8  9  2  0
  9 10  1  0
 10 11  2  0
 11 12  1  0
 12 13  2  0
  4 14  1  0
 14 15  1  0
 15 16  1  0
 16 17  1  0
 15  2  2  0
 13  5  1  0
 13  8  1  0
  1 18  1  0
  1 19  1  0
  1 20  1  0
  6 21  1  0
  7 22  1  0
  9 23  1  0
 10 24  1  0
 11 25  1  0
 12 26  1  0
 16 27  1  0
 16 28  1  0
 17 29  1  0
M  END
>  <UniqueID>  (29) 
27

>  <SMILES>  (29) 
Cc1nc(-c2c[nH]c3ccccc23)oc1CO

>  <Energy>  (29) 
91.69553540441078

>  <Genealogy>  (29) 
Cc1nc(-c2c[nH]c3ccccc23)oc1CO (3D coordinates assigned)
Cc1nc(-c2c[nH]c3ccccc23)oc1CO (optimized conformer: 91.69553540441078 kcal/mol)

>  <smiles>  (29) 
Cc1nc(-c2c[nH]c3ccccc23)oc1CO

>  <score_type>  (29) 
oracle

>  <origin>  (29) 
adg

>  <m_score__min__energy>  (29) 
-7.3899999999999997

>  <m_primary>  (29) 
energy

$$$$
29:0
     RDKit          3D

 45 47  0  0  0  0  0  0  0  0999 V2000
   58.1520   32.0500   47.6610 O   0  0  0  0  0  0  0  0  0  0  0  0
   58.9130   32.2140   46.6660 C   0  0  0  0  0  0  0  0  0  0  0  0
   59.9870   31.1690   46.3870 C   0  0  0  0  0  0  0  0  0  0  0  0
   59.4300   29.9440   45.6190 C   0  0  0  0  0  0  0  0  0  0  0  0
   58.5750   28.9930   46.4840 C   0  0  0  0  0  0  0  0  0  0  0  0
   58.9840   28.9700   47.9690 C   0  0  0  0  0  0  0  0  0  0  0  0
   60.4590   29.3310   48.1580 C   0  0  0  0  0  0  0  0  0  0  0  0
   60.7360   30.7700   47.6920 C   0  0  0  0  0  0  0  0  0  0  0  0
   58.7910   33.4240   45.8710 N   0  0  0  0  0  0  0  0  0  0  0  0
   57.7750   33.5540   44.8130 C   0  0  0  0  0  0  0  0  0  0  0  0
   57.3540   32.2090   44.2990 C   0  0  0  0  0  0  0  0  0  0  0  0
   57.6300   31.7170   43.0390 C   0  0  0  0  0  0  0  0  0  0  0  0
   57.0470   30.4680   42.9950 C   0  0  0  0  0  0  0  0  0  0  0  0
   56.4580   30.2750   44.2290 C   0  0  0  0  0  0  0  0  0  0  0  0
   56.6580   31.3300   44.9840 O   0  0  0  0  0  0  0  0  0  0  0  0
   59.6590   34.5830   46.1470 C   0  0  0  0  0  0  0  0  0  0  0  0
   60.8330   34.1690   46.9970 C   0  0  0  0  0  0  0  0  0  0  0  0
   62.0480   33.8080   46.3870 C   0  0  0  0  0  0  0  0  0  0  0  0
   63.1600   33.4810   47.1690 C   0  0  0  0  0  0  0  0  0  0  0  0
   63.0700   33.5120   48.5620 C   0  0  0  0  0  0  0  0  0  0  0  0
   61.8690   33.8720   49.1760 C   0  0  0  0  0  0  0  0  0  0  0  0
   60.7520   34.2060   48.4010 C   0  0  0  0  0  0  0  0  0  0  0  0
   59.5990   34.5580   49.0200 F   0  0  0  0  0  0  0  0  0  0  0  0
   60.7290   31.6290   45.7178 H   0  0  0  0  0  0  0  0  0  0  0  0
   58.8072   30.3103   44.7896 H   0  0  0  0  0  0  0  0  0  0  0  0
   60.2988   29.3641   45.2741 H   0  0  0  0  0  0  0  0  0  0  0  0
   57.5248   29.3135   46.4180 H   0  0  0  0  0  0  0  0  0  0  0  0
   58.7292   27.9767   46.0925 H   0  0  0  0  0  0  0  0  0  0  0  0
   58.3666   29.6951   48.5196 H   0  0  0  0  0  0  0  0  0  0  0  0
   58.8302   27.9497   48.3502 H   0  0  0  0  0  0  0  0  0  0  0  0
   60.7181   29.2413   49.2233 H   0  0  0  0  0  0  0  0  0  0  0  0
   61.0693   28.6427   47.5548 H   0  0  0  0  0  0  0  0  0  0  0  0
   60.4266   31.4582   48.4924 H   0  0  0  0  0  0  0  0  0  0  0  0
   61.8121   30.8315   47.4724 H   0  0  0  0  0  0  0  0  0  0  0  0
   56.8957   34.0736   45.2214 H   0  0  0  0  0  0  0  0  0  0  0  0
   58.2100   34.1255   43.9798 H   0  0  0  0  0  0  0  0  0  0  0  0
   58.1958   32.2162   42.2386 H   0  0  0  0  0  0  0  0  0  0  0  0
   57.0505   29.7667   42.1476 H   0  0  0  0  0  0  0  0  0  0  0  0
   55.9051   29.3740   44.5331 H   0  0  0  0  0  0  0  0  0  0  0  0
   60.0274   34.9947   45.1958 H   0  0  0  0  0  0  0  0  0  0  0  0
   59.0773   35.3439   46.6879 H   0  0  0  0  0  0  0  0  0  0  0  0
   62.1236   33.7828   45.2899 H   0  0  0  0  0  0  0  0  0  0  0  0
   64.1072   33.1989   46.6860 H   0  0  0  0  0  0  0  0  0  0  0  0
   63.9454   33.2528   49.1756 H   0  0  0  0  0  0  0  0  0  0  0  0
   61.8001   33.8933   50.2736 H   0  0  0  0  0  0  0  0  0  0  0  0
  1  2  2  0
  2  3  1  0
  3  4  1  0
  4  5  1  0
  5  6  1  0
  6  7  1  0
  7  8  1  0
  2  9  1  0
  9 10  1  0
 10 11  1  0
 11 12  2  0
 12 13  1  0
 13 14  2  0
 14 15  1  0
  9 16  1  0
 16 17  1  0
 17 18  2  0
 18 19  1  0
 19 20  2  0
 20 21  1  0
 21 22  2  0
 22 23  1  0
  8  3  1  0
 15 11  1  0
 22 17  1  0
  3 24  1  0
  4 25  1  0
  4 26  1  0
  5 27  1  0
  5 28  1  0
  6 29  1  0
  6 30  1  0
  7 31  1  0
  7 32  1  0
  8 33  1  0
  8 34  1  0
 10 35  1  0
 10 36  1  0
 12 37  1  0
 13 38  1  0
 14 39  1  0
 16 40  1  0
 16 41  1  0
 18 42  1  0
 19 43  1  0
 20 44  1  0
 21 45  1  0
M  END
>  <UniqueID>  (30) 
28

>  <SMILES>  (30) 
O=C(C1CCCCC1)N(Cc1ccco1)Cc1ccccc1F

>  <Energy>  (30) 
73.35065265229723

>  <Genealogy>  (30) 
O=C(C1CCCCC1)N(Cc1ccco1)Cc1ccccc1F (3D coordinates assigned)
O=C(C1CCCCC1)N(Cc1ccco1)Cc1ccccc1F (nonaromatic ring conformer: 73.35065265229723 kcal/mol)

>  <smiles>  (30) 
O=C(C1CCCCC1)N(Cc1ccco1)Cc1ccccc1F

>  <score_type>  (30) 
oracle

>  <origin>  (30) 
adg

>  <m_score__min__energy>  (30) 
-7.4000000000000004

>  <m_primary>  (30) 
energy

$$$$
30:0
     RDKit          3D

 38 41  0  0  0  0  0  0  0  0999 V2000
   59.4180   33.4320   50.1160 O   0  0  0  0  0  0  0  0  0  0  0  0
   59.1310   32.2310   49.8590 C   0  0  0  0  0  0  0  0  0  0  0  0
   58.4710   31.4590   50.8010 C   0  0  0  0  0  0  0  0  0  0  0  0
   58.0510   31.7930   52.0290 N   0  0  0  0  0  0  0  0  0  0  0  0
   57.4820   30.6360   52.4640 C   0  0  0  0  0  0  0  0  0  0  0  0
   57.5280   29.6120   51.5680 N   0  0  0  0  0  0  0  0  0  0  0  0
   58.1630   30.1790   50.5350 C   0  0  0  0  0  0  0  0  0  0  0  0
   58.4670   29.5950   49.3570 N   0  0  0  0  0  0  0  0  0  0  0  0
   59.1230   30.3270   48.4020 C   0  0  0  0  0  0  0  0  0  0  0  0
   59.3990   29.7090   47.1320 N   0  0  0  0  0  0  0  0  0  0  0  0
   58.5620   29.8790   45.9740 C   0  0  0  0  0  0  0  0  0  0  0  0
   58.9980   30.6150   44.8570 C   0  0  0  0  0  0  0  0  0  0  0  0
   58.1580   30.7840   43.7520 C   0  0  0  0  0  0  0  0  0  0  0  0
   56.8750   30.2320   43.7550 C   0  0  0  0  0  0  0  0  0  0  0  0
   56.4250   29.5140   44.8690 C   0  0  0  0  0  0  0  0  0  0  0  0
   55.1460   28.9720   44.8750 O   0  0  0  0  0  0  0  0  0  0  0  0
   57.2630   29.3440   45.9760 C   0  0  0  0  0  0  0  0  0  0  0  0
   59.4630   31.6540   48.6500 N   0  0  0  0  0  0  0  0  0  0  0  0
   60.1990   32.4610   47.6550 C   0  0  0  0  0  0  0  0  0  0  0  0
   59.2530   33.1500   46.6990 C   0  0  0  0  0  0  0  0  0  0  0  0
   59.7410   33.9890   45.6810 C   0  0  0  0  0  0  0  0  0  0  0  0
   58.8550   34.6400   44.8170 C   0  0  0  0  0  0  0  0  0  0  0  0
   57.4770   34.4670   44.9650 C   0  0  0  0  0  0  0  0  0  0  0  0
   56.9820   33.6450   45.9810 C   0  0  0  0  0  0  0  0  0  0  0  0
   57.8650   32.9920   46.8470 C   0  0  0  0  0  0  0  0  0  0  0  0
   57.0224   30.5362   53.4584 H   0  0  0  0  0  0  0  0  0  0  0  0
   60.3140   29.2230   47.0020 H   0  0  0  0  0  0  0  0  0  0  0  0
   60.0042   31.0595   44.8529 H   0  0  0  0  0  0  0  0  0  0  0  0
   58.5085   31.3530   42.8783 H   0  0  0  0  0  0  0  0  0  0  0  0
   56.2184   30.3615   42.8820 H   0  0  0  0  0  0  0  0  0  0  0  0
   56.9025   28.7878   46.8539 H   0  0  0  0  0  0  0  0  0  0  0  0
   60.7945   33.2220   48.1806 H   0  0  0  0  0  0  0  0  0  0  0  0
   60.8497   31.7893   47.0759 H   0  0  0  0  0  0  0  0  0  0  0  0
   60.8251   34.1338   45.5639 H   0  0  0  0  0  0  0  0  0  0  0  0
   59.2441   35.2897   44.0192 H   0  0  0  0  0  0  0  0  0  0  0  0
   56.7818   34.9774   44.2823 H   0  0  0  0  0  0  0  0  0  0  0  0
   55.8966   33.5114   46.0997 H   0  0  0  0  0  0  0  0  0  0  0  0
   57.4702   32.3508   47.6489 H   0  0  0  0  0  0  0  0  0  0  0  0
  1  2  2  0
  2  3  1  0
  3  4  1  0
  4  5  2  0
  5  6  1  0
  6  7  1  0
  7  8  1  0
  8  9  2  0
  9 10  1  0
 10 11  1  0
 11 12  2  0
 12 13  1  0
 13 14  2  0
 14 15  1  0
 15 16  1  0
 15 17  2  0
  9 18  1  0
 18 19  1  0
 19 20  1  0
 20 21  2  0
 21 22  1  0
 22 23  2  0
 23 24  1  0
 24 25  2  0
 18  2  1  0
 25 20  1  0
  7  3  2  0
 17 11  1  0
  5 26  1  0
 10 27  1  0
 12 28  1  0
 13 29  1  0
 14 30  1  0
 17 31  1  0
 19 32  1  0
 19 33  1  0
 21 34  1  0
 22 35  1  0
 23 36  1  0
 24 37  1  0
 25 38  1  0
M  CHG  2   6  -1  16  -1
M  END
>  <UniqueID>  (31) 
29

>  <SMILES>  (31) 
O=c1c2nc[n-]c2nc(Nc2cccc([O-])c2)n1Cc1ccccc1

>  <Energy>  (31) 
89.8018656860553

>  <Genealogy>  (31) 
O=c1c2nc[n-]c2nc(Nc2cccc([O-])c2)n1Cc1ccccc1 (protonated)
O=c1c2nc[n-]c2nc(Nc2cccc([O-])c2)n1Cc1ccccc1 (3D coordinates assigned)
O=c1c2nc[n-]c2nc(Nc2cccc([O-])c2)n1Cc1ccccc1 (optimized conformer: 89.8018656860553 kcal/mol)

>  <smiles>  (31) 
O=c1c2nc[nH]c2nc(Nc2cccc(O)c2)n1Cc1ccccc1

>  <score_type>  (31) 
oracle

>  <origin>  (31) 
adg

>  <m_score__min__energy>  (31) 
-12.220000000000001

>  <m_primary>  (31) 
energy

$$$$
31:0
     RDKit          3D

 56 60  0  0  0  0  0  0  0  0999 V2000
   55.5590   23.6580   45.6880 C   0  0  0  0  0  0  0  0  0  0  0  0
   56.0500   24.4050   46.7970 O   0  0  0  0  0  0  0  0  0  0  0  0
   56.8070   25.5810   46.6890 C   0  0  0  0  0  0  0  0  0  0  0  0
   58.1090   25.7000   47.2510 C   0  0  0  0  0  0  0  0  0  0  0  0
   58.8430   26.9060   47.1250 C   0  0  0  0  0  0  0  0  0  0  0  0
   60.1260   27.0970   47.6600 O   0  0  0  0  0  0  0  0  0  0  0  0
   60.4230   27.3830   49.0260 C   0  0  0  0  0  0  0  0  0  0  0  0
   60.6640   28.8910   49.2690 C   0  0  0  0  0  0  0  0  0  0  0  0
   60.1480   29.8340   48.2330 N   0  0  1  0  0  0  0  0  0  0  0  0
   59.1780   30.8370   48.7300 C   0  0  0  0  0  0  0  0  0  0  0  0
   59.8250   32.0030   49.4880 C   0  0  0  0  0  0  0  0  0  0  0  0
   61.1220   32.4600   48.8750 C   0  0  0  0  0  0  0  0  0  0  0  0
   61.7110   33.6470   49.3380 C   0  0  0  0  0  0  0  0  0  0  0  0
   62.9350   34.0780   48.8230 C   0  0  0  0  0  0  0  0  0  0  0  0
   63.5850   33.3240   47.8450 C   0  0  0  0  0  0  0  0  0  0  0  0
   63.0170   32.1330   47.3860 C   0  0  0  0  0  0  0  0  0  0  0  0
   61.7940   31.6830   47.9080 C   0  0  0  0  0  0  0  0  0  0  0  0
   61.1690   30.4310   47.3440 C   0  0  0  0  0  0  0  0  0  0  0  0
   58.2420   27.9500   46.4260 C   0  0  0  0  0  0  0  0  0  0  0  0
   58.7370   29.1380   46.1840 O   0  0  0  0  0  0  0  0  0  0  0  0
   57.8380   29.8200   45.4960 C   0  0  0  0  0  0  0  0  0  0  0  0
   58.0520   31.2130   45.0410 C   0  0  0  0  0  0  0  0  0  0  0  0
   57.9040   31.5250   43.6780 C   0  0  0  0  0  0  0  0  0  0  0  0
   58.1060   32.8320   43.2230 C   0  0  0  0  0  0  0  0  0  0  0  0
   58.4550   33.8410   44.1240 C   0  0  0  0  0  0  0  0  0  0  0  0
   58.6030   33.5440   45.4810 C   0  0  0  0  0  0  0  0  0  0  0  0
   58.9420   34.5240   46.3560 F   0  0  0  0  0  0  0  0  0  0  0  0
   58.4040   32.2370   45.9410 C   0  0  0  0  0  0  0  0  0  0  0  0
   56.7020   29.0360   45.2800 C   0  0  0  0  0  0  0  0  0  0  0  0
   56.9920   27.8380   45.8880 C   0  0  0  0  0  0  0  0  0  0  0  0
   56.2430   26.6710   45.9980 C   0  0  0  0  0  0  0  0  0  0  0  0
   54.9891   22.7910   46.0534 H   0  0  0  0  0  0  0  0  0  0  0  0
   54.9038   24.2964   45.0771 H   0  0  0  0  0  0  0  0  0  0  0  0
   56.4049   23.3098   45.0771 H   0  0  0  0  0  0  0  0  0  0  0  0
   58.5501   24.8476   47.7885 H   0  0  0  0  0  0  0  0  0  0  0  0
   59.5775   27.0548   49.6484 H   0  0  0  0  0  0  0  0  0  0  0  0
   61.3467   26.8470   49.2897 H   0  0  0  0  0  0  0  0  0  0  0  0
   60.1867   29.1539   50.2246 H   0  0  0  0  0  0  0  0  0  0  0  0
   61.7570   29.0132   49.2484 H   0  0  0  0  0  0  0  0  0  0  0  0
   59.5760   29.2210   47.6020 H   0  0  0  0  0  0  0  0  0  0  0  0
   58.6297   31.2455   47.8683 H   0  0  0  0  0  0  0  0  0  0  0  0
   58.5188   30.3190   49.4422 H   0  0  0  0  0  0  0  0  0  0  0  0
   59.1228   32.8497   49.4929 H   0  0  0  0  0  0  0  0  0  0  0  0
   60.0502   31.6481   50.5045 H   0  0  0  0  0  0  0  0  0  0  0  0
   61.2045   34.2420   50.1123 H   0  0  0  0  0  0  0  0  0  0  0  0
   63.3871   35.0120   49.1882 H   0  0  0  0  0  0  0  0  0  0  0  0
   64.5460   33.6679   47.4349 H   0  0  0  0  0  0  0  0  0  0  0  0
   63.5308   31.5447   46.6115 H   0  0  0  0  0  0  0  0  0  0  0  0
   60.6931   30.6804   46.3841 H   0  0  0  0  0  0  0  0  0  0  0  0
   61.9733   29.6895   47.2281 H   0  0  0  0  0  0  0  0  0  0  0  0
   57.6273   30.7352   42.9642 H   0  0  0  0  0  0  0  0  0  0  0  0
   57.9899   33.0658   42.1544 H   0  0  0  0  0  0  0  0  0  0  0  0
   58.6132   34.8687   43.7651 H   0  0  0  0  0  0  0  0  0  0  0  0
   58.5232   32.0089   47.0105 H   0  0  0  0  0  0  0  0  0  0  0  0
   55.7827   29.3147   44.7441 H   0  0  0  0  0  0  0  0  0  0  0  0
   55.2376   26.6014   45.5573 H   0  0  0  0  0  0  0  0  0  0  0  0
  1  2  1  0
  2  3  1  0
  3  4  2  0
  4  5  1  0
  5  6  1  0
  6  7  1  0
  7  8  1  0
  8  9  1  0
  9 10  1  0
 10 11  1  0
 11 12  1  0
 12 13  2  0
 13 14  1  0
 14 15  2  0
 15 16  1  0
 16 17  2  0
 17 18  1  0
  5 19  2  0
 19 20  1  0
 20 21  1  0
 21 22  1  0
 22 23  2  0
 23 24  1  0
 24 25  2  0
 25 26  1  0
 26 27  1  0
 26 28  2  0
 21 29  2  0
 29 30  1  0
 30 31  2  0
 31  3  1  0
 18  9  1  0
 30 19  1  0
 17 12  1  0
 28 22  1  0
  1 32  1  0
  1 33  1  0
  1 34  1  0
  4 35  1  0
  7 36  1  0
  7 37  1  0
  8 38  1  0
  8 39  1  0
  9 40  1  6
 10 41  1  0
 10 42  1  0
 11 43  1  0
 11 44  1  0
 13 45  1  0
 14 46  1  0
 15 47  1  0
 16 48  1  0
 18 49  1  0
 18 50  1  0
 23 51  1  0
 24 52  1  0
 25 53  1  0
 28 54  1  0
 29 55  1  0
 31 56  1  0
M  CHG  1   9   1
M  END
>  <UniqueID>  (32) 
30

>  <SMILES>  (32) 
COc1cc(OCC[N@H+]2CCc3ccccc3C2)c2oc(-c3cccc(F)c3)cc2c1

>  <Energy>  (32) 
106.25716456970665

>  <Genealogy>  (32) 
COc1cc(OCC[NH+]2CCc3ccccc3C2)c2oc(-c3cccc(F)c3)cc2c1 (protonated)
COc1cc(OCC[N@H+]2CCc3ccccc3C2)c2oc(-c3cccc(F)c3)cc2c1 (chirality)
COc1cc(OCC[N@H+]2CCc3ccccc3C2)c2oc(-c3cccc(F)c3)cc2c1 (3D coordinates assigned)
COc1cc(OCC[N@H+]2CCc3ccccc3C2)c2oc(-c3cccc(F)c3)cc2c1 (nonaromatic ring conformer: 106.25716456970665 kcal/mol)

>  <smiles>  (32) 
COc1cc(OCCN2CCc3ccccc3C2)c2oc(-c3cccc(F)c3)cc2c1

>  <score_type>  (32) 
oracle

>  <origin>  (32) 
adg

>  <m_score__min__energy>  (32) 
-6.6600000000000001

>  <m_primary>  (32) 
energy

$$$$
32:0
     RDKit          3D

 29 30  0  0  0  0  0  0  0  0999 V2000
   58.7658   32.0107   42.3083 H   0  0  0  0  0  0  0  0  0  0  0  0
   58.1540   32.1190   43.2160 C   0  0  0  0  0  0  0  0  0  0  0  0
   57.9770   33.2990   43.7340 N   0  0  0  0  0  0  0  0  0  0  0  0
   58.4520   33.7550   45.0120 C   0  0  0  0  0  0  0  0  0  0  0  0
   59.3030   34.8710   45.1580 C   0  0  0  0  0  0  0  0  0  0  0  0
   59.6372   35.4264   44.2693 H   0  0  0  0  0  0  0  0  0  0  0  0
   59.7230   35.2730   46.4320 C   0  0  0  0  0  0  0  0  0  0  0  0
   60.3914   36.1398   46.5407 H   0  0  0  0  0  0  0  0  0  0  0  0
   59.2960   34.5770   47.5650 C   0  0  0  0  0  0  0  0  0  0  0  0
   59.6312   34.8926   48.5640 H   0  0  0  0  0  0  0  0  0  0  0  0
   58.4430   33.4800   47.4280 C   0  0  0  0  0  0  0  0  0  0  0  0
   58.1033   32.9342   48.3206 H   0  0  0  0  0  0  0  0  0  0  0  0
   58.0200   33.0740   46.1600 C   0  0  0  0  0  0  0  0  0  0  0  0
   57.3425   32.2131   46.0608 H   0  0  0  0  0  0  0  0  0  0  0  0
   57.5440   30.9230   43.8310 C   0  0  0  0  0  0  0  0  0  0  0  0
   56.1630   30.6720   43.7360 C   0  0  0  0  0  0  0  0  0  0  0  0
   55.5152   31.3769   43.1943 H   0  0  0  0  0  0  0  0  0  0  0  0
   55.6090   29.5320   44.3260 C   0  0  0  0  0  0  0  0  0  0  0  0
   54.5280   29.3447   44.2457 H   0  0  0  0  0  0  0  0  0  0  0  0
   56.4270   28.6230   45.0220 C   0  0  0  0  0  0  0  0  0  0  0  0
   55.9190   27.4650   45.6300 O   0  0  0  0  0  0  0  0  0  0  0  0
   56.7060   26.3320   45.9840 C   0  0  0  0  0  0  0  0  0  0  0  0
   56.7616   26.2520   47.0797 H   0  0  0  0  0  0  0  0  0  0  0  0
   56.2445   25.4221   45.5729 H   0  0  0  0  0  0  0  0  0  0  0  0
   57.7198   26.4468   45.5729 H   0  0  0  0  0  0  0  0  0  0  0  0
   57.8010   28.8740   45.1150 C   0  0  0  0  0  0  0  0  0  0  0  0
   58.4491   28.1691   45.6563 H   0  0  0  0  0  0  0  0  0  0  0  0
   58.3560   30.0140   44.5250 C   0  0  0  0  0  0  0  0  0  0  0  0
   59.4373   30.1992   44.6058 H   0  0  0  0  0  0  0  0  0  0  0  0
  1  2  1  0
  2  3  2  0
  3  4  1  0
  4  5  2  0
  5  6  1  0
  5  7  1  0
  7  8  1  0
  7  9  2  0
  9 10  1  0
  9 11  1  0
 11 12  1  0
 11 13  2  0
 13 14  1  0
  2 15  1  0
 15 16  2  0
 16 17  1  0
 16 18  1  0
 18 19  1  0
 18 20  2  0
 20 21  1  0
 21 22  1  0
 22 23  1  0
 22 24  1  0
 22 25  1  0
 20 26  1  0
 26 27  1  0
 26 28  2  0
 28 29  1  0
 13  4  1  0
 28 15  1  0
M  END
>  <UniqueID>  (33) 
31

>  <SMILES>  (33) 
COc1ccc(/C=N/c2ccccc2)cc1

>  <Energy>  (33) 
31.720466642259918

>  <Genealogy>  (33) 
COc1ccc(/C=N/c2ccccc2)cc1 (cis-trans isomerization)
COc1ccc(/C=N/c2ccccc2)cc1 (3D coordinates assigned)
COc1ccc(/C=N/c2ccccc2)cc1 (optimized conformer: 31.720466642259918 kcal/mol)

>  <smiles>  (33) 
COc1ccc(C=Nc2ccccc2)cc1

>  <score_type>  (33) 
oracle

>  <origin>  (33) 
adg

>  <m_score__min__energy>  (33) 
-6.3600000000000003

>  <m_primary>  (33) 
energy

$$$$
33:0
     RDKit          3D

 43 45  0  0  0  0  0  0  0  0999 V2000
   57.8020   21.7340   43.9810 C   0  0  0  0  0  0  0  0  0  0  0  0
   56.8050   22.8160   43.6850 C   0  0  0  0  0  0  0  0  0  0  0  0
   55.7900   22.5250   42.9950 O   0  0  0  0  0  0  0  0  0  0  0  0
   56.9880   24.2080   44.1760 C   0  0  0  0  0  0  0  0  0  0  0  0
   57.6040   25.1920   43.3780 C   0  0  0  0  0  0  0  0  0  0  0  0
   57.7730   26.4930   43.8600 C   0  0  0  0  0  0  0  0  0  0  0  0
   57.3150   26.8470   45.1310 C   0  0  0  0  0  0  0  0  0  0  0  0
   57.5380   28.1840   45.6000 N   0  0  0  0  0  0  0  0  0  0  0  0
   56.7710   29.3430   45.2460 C   0  0  0  0  0  0  0  0  0  0  0  0
   55.5770   29.2150   44.8600 O   0  0  0  0  0  0  0  0  0  0  0  0
   57.3950   30.6850   45.2850 C   0  0  0  0  0  0  0  0  0  0  0  0
   57.3390   31.5370   44.1700 C   0  0  0  0  0  0  0  0  0  0  0  0
   57.9460   32.7920   44.2170 C   0  0  0  0  0  0  0  0  0  0  0  0
   58.5950   33.1980   45.3840 C   0  0  0  0  0  0  0  0  0  0  0  0
   59.3860   34.8100   45.4520 S   0  0  0  0  0  0  0  0  0  0  0  0
   60.9850   34.1790   46.0740 C   0  0  0  0  0  0  0  0  0  0  0  0
   60.9640   34.0150   47.5670 C   0  0  0  0  0  0  0  0  0  0  0  0
   59.8690   34.1330   48.1780 O   0  0  0  0  0  0  0  0  0  0  0  0
   62.1930   33.7410   48.3330 C   0  0  0  0  0  0  0  0  0  0  0  0
   62.4830   34.1650   49.6270 C   0  0  0  0  0  0  0  0  0  0  0  0
   63.7360   33.7360   50.0820 C   0  0  0  0  0  0  0  0  0  0  0  0
   64.4360   32.9760   49.1550 C   0  0  0  0  0  0  0  0  0  0  0  0
   63.4950   32.8370   47.7690 S   0  0  0  0  0  0  0  0  0  0  0  0
   58.6440   32.3670   46.4610 N   0  0  0  0  0  0  0  0  0  0  0  0
   58.0650   31.1350   46.4360 C   0  0  0  0  0  0  0  0  0  0  0  0
   56.7150   25.8690   45.9400 C   0  0  0  0  0  0  0  0  0  0  0  0
   56.5500   24.5640   45.4660 C   0  0  0  0  0  0  0  0  0  0  0  0
   57.9070   21.6201   45.0700 H   0  0  0  0  0  0  0  0  0  0  0  0
   57.4544   20.7858   43.5450 H   0  0  0  0  0  0  0  0  0  0  0  0
   58.7754   22.0030   43.5450 H   0  0  0  0  0  0  0  0  0  0  0  0
   57.9547   24.9344   42.3677 H   0  0  0  0  0  0  0  0  0  0  0  0
   58.2718   27.2458   43.2319 H   0  0  0  0  0  0  0  0  0  0  0  0
   56.8155   31.2141   43.2580 H   0  0  0  0  0  0  0  0  0  0  0  0
   57.9134   33.4566   43.3411 H   0  0  0  0  0  0  0  0  0  0  0  0
   61.1903   33.2034   45.6093 H   0  0  0  0  0  0  0  0  0  0  0  0
   61.7691   34.9060   45.8158 H   0  0  0  0  0  0  0  0  0  0  0  0
   61.7965   34.7759   50.2316 H   0  0  0  0  0  0  0  0  0  0  0  0
   64.1287   33.9785   51.0805 H   0  0  0  0  0  0  0  0  0  0  0  0
   65.4350   32.5396   49.3021 H   0  0  0  0  0  0  0  0  0  0  0  0
   59.1320   32.6780   47.3310 H   0  0  0  0  0  0  0  0  0  0  0  0
   58.1219   30.4870   47.3230 H   0  0  0  0  0  0  0  0  0  0  0  0
   56.3729   26.1308   46.9521 H   0  0  0  0  0  0  0  0  0  0  0  0
   56.0733   23.8079   46.1072 H   0  0  0  0  0  0  0  0  0  0  0  0
  1  2  1  0
  2  3  2  0
  2  4  1  0
  4  5  2  0
  5  6  1  0
  6  7  2  0
  7  8  1  0
  8  9  1  0
  9 10  2  0
  9 11  1  0
 11 12  2  0
 12 13  1  0
 13 14  2  0
 14 15  1  0
 15 16  1  0
 16 17  1  0
 17 18  2  0
 17 19  1  0
 19 20  2  0
 20 21  1  0
 21 22  2  0
 22 23  1  0
 14 24  1  0
 24 25  2  0
  7 26  1  0
 26 27  2  0
 27  4  1  0
 25 11  1  0
 23 19  1  0
  1 28  1  0
  1 29  1  0
  1 30  1  0
  5 31  1  0
  6 32  1  0
 12 33  1  0
 13 34  1  0
 16 35  1  0
 16 36  1  0
 20 37  1  0
 21 38  1  0
 22 39  1  0
 24 40  1  0
 25 41  1  0
 26 42  1  0
 27 43  1  0
M  CHG  2   8  -1  24   1
M  END
>  <UniqueID>  (34) 
32

>  <SMILES>  (34) 
CC(=O)c1ccc([N-]C(=O)c2ccc(SCC(=O)c3cccs3)[nH+]c2)cc1

>  <Energy>  (34) 
70.73824572120907

>  <Genealogy>  (34) 
CC(=O)c1ccc([N-]C(=O)c2ccc(SCC(=O)c3cccs3)[nH+]c2)cc1 (protonated)
CC(=O)c1ccc([N-]C(=O)c2ccc(SCC(=O)c3cccs3)[nH+]c2)cc1 (3D coordinates assigned)
CC(=O)c1ccc([N-]C(=O)c2ccc(SCC(=O)c3cccs3)[nH+]c2)cc1 (optimized conformer: 70.73824572120907 kcal/mol)

>  <smiles>  (34) 
CC(=O)c1ccc(NC(=O)c2ccc(SCC(=O)c3cccs3)nc2)cc1

>  <score_type>  (34) 
oracle

>  <origin>  (34) 
adg

>  <m_score__min__energy>  (34) 
-8.8100000000000005

>  <m_primary>  (34) 
energy

$$$$
34:0
     RDKit          3D

 32 33  0  0  0  0  0  0  0  0999 V2000
   58.9880   35.2810   44.8700 C   0  0  0  0  0  0  0  0  0  0  0  0
   58.7090   33.8980   45.2810 N   0  0  0  0  0  0  0  0  0  0  0  0
   57.9990   33.0820   44.4510 C   0  0  0  0  0  0  0  0  0  0  0  0
   57.7180   31.7650   44.8180 C   0  0  0  0  0  0  0  0  0  0  0  0
   56.9300   30.8710   43.9350 C   0  0  0  0  0  0  0  0  0  0  0  0
   55.7150   30.4960   44.2010 N   0  0  0  0  0  0  0  0  0  0  0  0
   55.4120   29.6080   45.2090 O   0  0  0  0  0  0  0  0  0  0  0  0
   58.1370   31.3270   46.0810 C   0  0  0  0  0  0  0  0  0  0  0  0
   57.8710   30.1470   46.4440 O   0  0  0  0  0  0  0  0  0  0  0  0
   58.8350   32.1660   46.9130 N   0  0  0  0  0  0  0  0  0  0  0  0
   59.3150   31.6840   48.2250 C   0  0  0  0  0  0  0  0  0  0  0  0
   60.7830   31.9800   48.3920 C   0  0  0  0  0  0  0  0  0  0  0  0
   61.2320   32.7730   49.4630 C   0  0  0  0  0  0  0  0  0  0  0  0
   62.5920   33.0720   49.5970 C   0  0  0  0  0  0  0  0  0  0  0  0
   63.5120   32.5880   48.6640 C   0  0  0  0  0  0  0  0  0  0  0  0
   64.8290   32.8800   48.7960 F   0  0  0  0  0  0  0  0  0  0  0  0
   63.0740   31.8020   47.5950 C   0  0  0  0  0  0  0  0  0  0  0  0
   61.7150   31.5000   47.4570 C   0  0  0  0  0  0  0  0  0  0  0  0
   59.1210   33.4470   46.5060 C   0  0  0  0  0  0  0  0  0  0  0  0
   59.7640   34.2230   47.2690 O   0  0  0  0  0  0  0  0  0  0  0  0
   59.1150   35.9104   45.7632 H   0  0  0  0  0  0  0  0  0  0  0  0
   59.9093   35.3063   44.2696 H   0  0  0  0  0  0  0  0  0  0  0  0
   58.1485   35.6615   44.2696 H   0  0  0  0  0  0  0  0  0  0  0  0
   57.6442   33.4652   43.4829 H   0  0  0  0  0  0  0  0  0  0  0  0
   57.3979   30.5072   43.0083 H   0  0  0  0  0  0  0  0  0  0  0  0
   55.8310   29.7180   46.1240 H   0  0  0  0  0  0  0  0  0  0  0  0
   58.7511   32.1877   49.0239 H   0  0  0  0  0  0  0  0  0  0  0  0
   59.1632   30.5960   48.2812 H   0  0  0  0  0  0  0  0  0  0  0  0
   60.5110   33.1597   50.1983 H   0  0  0  0  0  0  0  0  0  0  0  0
   62.9377   33.6897   50.4390 H   0  0  0  0  0  0  0  0  0  0  0  0
   63.7988   31.4201   46.8609 H   0  0  0  0  0  0  0  0  0  0  0  0
   61.3745   30.8835   46.6120 H   0  0  0  0  0  0  0  0  0  0  0  0
  1  2  1  0
  2  3  1  0
  3  4  2  0
  4  5  1  0
  5  6  2  3
  6  7  1  0
  4  8  1  0
  8  9  2  0
  8 10  1  0
 10 11  1  0
 11 12  1  0
 12 13  2  0
 13 14  1  0
 14 15  2  0
 15 16  1  0
 15 17  1  0
 17 18  2  0
 10 19  1  0
 19 20  2  0
 19  2  1  0
 18 12  1  0
  1 21  1  0
  1 22  1  0
  1 23  1  0
  3 24  1  0
  5 25  1  0
  7 26  1  0
 11 27  1  0
 11 28  1  0
 13 29  1  0
 14 30  1  0
 17 31  1  0
 18 32  1  0
M  END
>  <UniqueID>  (35) 
33

>  <SMILES>  (35) 
Cn1cc(C=NO)c(=O)n(Cc2ccc(F)cc2)c1=O

>  <Energy>  (35) 
42.56046281328267

>  <Genealogy>  (35) 
Cn1cc(C=NO)c(=O)n(Cc2ccc(F)cc2)c1=O (3D coordinates assigned)
Cn1cc(C=NO)c(=O)n(Cc2ccc(F)cc2)c1=O (optimized conformer: 42.56046281328267 kcal/mol)

>  <smiles>  (35) 
Cn1cc(C=NO)c(=O)n(Cc2ccc(F)cc2)c1=O

>  <score_type>  (35) 
oracle

>  <origin>  (35) 
adg

>  <m_score__min__energy>  (35) 
-7.71

>  <m_primary>  (35) 
energy

$$$$
35:0
     RDKit          3D

 47 49  0  0  0  0  0  0  0  0999 V2000
   64.3300   34.4390   52.5120 C   0  0  0  0  0  0  0  0  0  0  0  0
   64.1800   34.5830   51.1040 O   0  0  0  0  0  0  0  0  0  0  0  0
   63.3600   33.7700   50.3050 C   0  0  0  0  0  0  0  0  0  0  0  0
   61.9570   33.8640   50.3370 C   0  0  0  0  0  0  0  0  0  0  0  0
   61.1730   33.0400   49.5270 C   0  0  0  0  0  0  0  0  0  0  0  0
   61.7730   32.1050   48.6680 C   0  0  0  0  0  0  0  0  0  0  0  0
   60.9610   31.2200   47.7990 C   0  0  0  0  0  0  0  0  0  0  0  0
   60.1230   31.6170   46.7540 C   0  0  0  0  0  0  0  0  0  0  0  0
   59.6020   30.4410   46.2660 C   0  0  0  0  0  0  0  0  0  0  0  0
   58.7100   30.2070   45.2240 C   0  0  0  0  0  0  0  0  0  0  0  0
   58.3460   28.8700   44.9530 C   0  0  0  0  0  0  0  0  0  0  0  0
   57.4120   28.5610   43.8130 C   0  0  0  0  0  0  0  0  0  0  0  0
   56.7800   29.8490   43.2740 C   0  0  0  0  0  0  0  0  0  0  0  0
   55.6030   30.2920   44.1460 C   0  0  0  0  0  0  0  0  0  0  0  0
   55.3240   29.3170   45.1130 O   0  0  0  0  0  0  0  0  0  0  0  0
   58.9050   27.8160   45.7210 C   0  0  0  0  0  0  0  0  0  0  0  0
   59.8110   28.0900   46.7750 C   0  0  0  0  0  0  0  0  0  0  0  0
   60.3900   27.0910   47.5700 O   0  0  0  0  0  0  0  0  0  0  0  0
   60.4650   27.1460   48.9900 C   0  0  0  0  0  0  0  0  0  0  0  0
   60.1310   29.4260   47.0120 C   0  0  0  0  0  0  0  0  0  0  0  0
   60.9400   29.9030   47.9240 O   0  0  0  0  0  0  0  0  0  0  0  0
   63.1750   32.0130   48.6360 C   0  0  0  0  0  0  0  0  0  0  0  0
   63.9710   32.8410   49.4500 C   0  0  0  0  0  0  0  0  0  0  0  0
   65.3740   32.7700   49.4400 O   0  0  0  0  0  0  0  0  0  0  0  0
   66.1610   32.1980   50.4810 C   0  0  0  0  0  0  0  0  0  0  0  0
   63.6285   35.1124   53.0262 H   0  0  0  0  0  0  0  0  0  0  0  0
   64.1167   33.3987   52.7990 H   0  0  0  0  0  0  0  0  0  0  0  0
   65.3607   34.6946   52.7990 H   0  0  0  0  0  0  0  0  0  0  0  0
   61.4738   34.5921   51.0051 H   0  0  0  0  0  0  0  0  0  0  0  0
   60.0768   33.1239   49.5620 H   0  0  0  0  0  0  0  0  0  0  0  0
   59.9245   32.6397   46.4009 H   0  0  0  0  0  0  0  0  0  0  0  0
   58.3012   31.0377   44.6300 H   0  0  0  0  0  0  0  0  0  0  0  0
   57.9753   28.0689   43.0064 H   0  0  0  0  0  0  0  0  0  0  0  0
   56.6135   27.8975   44.1766 H   0  0  0  0  0  0  0  0  0  0  0  0
   57.5393   30.6449   43.2640 H   0  0  0  0  0  0  0  0  0  0  0  0
   56.4082   29.6566   42.2568 H   0  0  0  0  0  0  0  0  0  0  0  0
   55.8573   31.2380   44.6465 H   0  0  0  0  0  0  0  0  0  0  0  0
   54.7166   30.4306   43.5095 H   0  0  0  0  0  0  0  0  0  0  0  0
   55.5650   29.7120   45.9920 H   0  0  0  0  0  0  0  0  0  0  0  0
   58.6318   26.7746   45.4955 H   0  0  0  0  0  0  0  0  0  0  0  0
   59.6498   26.5482   49.4237 H   0  0  0  0  0  0  0  0  0  0  0  0
   61.4327   26.7419   49.3220 H   0  0  0  0  0  0  0  0  0  0  0  0
   60.3705   28.1904   49.3220 H   0  0  0  0  0  0  0  0  0  0  0  0
   63.6564   31.2849   47.9666 H   0  0  0  0  0  0  0  0  0  0  0  0
   65.7506   32.4963   51.4570 H   0  0  0  0  0  0  0  0  0  0  0  0
   66.1419   31.1015   50.3948 H   0  0  0  0  0  0  0  0  0  0  0  0
   67.1980   32.5546   50.3948 H   0  0  0  0  0  0  0  0  0  0  0  0
  1  2  1  0
  2  3  1  0
  3  4  2  0
  4  5  1  0
  5  6  2  0
  6  7  1  0
  7  8  2  0
  8  9  1  0
  9 10  2  0
 10 11  1  0
 11 12  1  0
 12 13  1  0
 13 14  1  0
 14 15  1  0
 11 16  2  0
 16 17  1  0
 17 18  1  0
 18 19  1  0
 17 20  2  0
 20 21  1  0
  6 22  1  0
 22 23  2  0
 23 24  1  0
 24 25  1  0
 23  3  1  0
 21  7  1  0
 20  9  1  0
  1 26  1  0
  1 27  1  0
  1 28  1  0
  4 29  1  0
  5 30  1  0
  8 31  1  0
 10 32  1  0
 12 33  1  0
 12 34  1  0
 13 35  1  0
 13 36  1  0
 14 37  1  0
 14 38  1  0
 15 39  1  0
 16 40  1  0
 19 41  1  0
 19 42  1  0
 19 43  1  0
 22 44  1  0
 25 45  1  0
 25 46  1  0
 25 47  1  0
M  END
>  <UniqueID>  (36) 
34

>  <SMILES>  (36) 
COc1ccc(-c2cc3cc(CCCO)cc(OC)c3o2)cc1OC

>  <Energy>  (36) 
76.07482196457465

>  <Genealogy>  (36) 
COc1ccc(-c2cc3cc(CCCO)cc(OC)c3o2)cc1OC (3D coordinates assigned)
COc1ccc(-c2cc3cc(CCCO)cc(OC)c3o2)cc1OC (optimized conformer: 76.07482196457465 kcal/mol)

>  <smiles>  (36) 
COc1ccc(-c2cc3cc(CCCO)cc(OC)c3o2)cc1OC

>  <score_type>  (36) 
oracle

>  <origin>  (36) 
adg

>  <m_score__min__energy>  (36) 
-7.3799999999999999

>  <m_primary>  (36) 
energy

$$$$
36:0
     RDKit          3D

 47 50  0  0  0  0  0  0  0  0999 V2000
   59.8450   33.5720   50.3100 C   0  0  0  0  0  0  0  0  0  0  0  0
   60.3590   32.7020   49.3070 O   0  0  0  0  0  0  0  0  0  0  0  0
   61.3880   33.0360   48.4130 C   0  0  0  0  0  0  0  0  0  0  0  0
   62.7460   32.9690   48.7820 C   0  0  0  0  0  0  0  0  0  0  0  0
   63.7470   33.2880   47.8600 C   0  0  0  0  0  0  0  0  0  0  0  0
   63.4060   33.6770   46.5650 C   0  0  0  0  0  0  0  0  0  0  0  0
   62.0650   33.7500   46.1860 C   0  0  0  0  0  0  0  0  0  0  0  0
   61.0500   33.4360   47.1030 C   0  0  0  0  0  0  0  0  0  0  0  0
   59.6740   33.5300   46.6980 N   0  0  0  0  0  0  0  0  0  0  0  0
   59.2040   34.6850   45.9280 C   0  0  0  0  0  0  0  0  0  0  0  0
   58.2690   34.2480   44.7810 C   0  0  0  0  0  0  0  0  0  0  0  0
   57.5470   32.9720   45.0310 N   0  0  0  0  0  0  0  0  0  0  0  0
   58.1640   31.8240   44.3300 C   0  0  0  0  0  0  0  0  0  0  0  0
   57.4040   30.5650   44.6250 C   0  0  0  0  0  0  0  0  0  0  0  0
   56.0920   30.2910   44.2530 C   0  0  0  0  0  0  0  0  0  0  0  0
   55.7370   29.0490   44.6540 N   0  0  0  0  0  0  0  0  0  0  0  0
   56.8140   28.5360   45.2730 C   0  0  0  0  0  0  0  0  0  0  0  0
   56.9340   27.2720   45.8480 C   0  0  0  0  0  0  0  0  0  0  0  0
   58.1660   26.9310   46.4370 C   0  0  0  0  0  0  0  0  0  0  0  0
   59.2370   27.8500   46.4360 C   0  0  0  0  0  0  0  0  0  0  0  0
   59.0890   29.1200   45.8490 C   0  0  0  0  0  0  0  0  0  0  0  0
   57.8550   29.4300   45.2730 C   0  0  0  0  0  0  0  0  0  0  0  0
   57.3590   32.7020   46.4710 C   0  0  0  0  0  0  0  0  0  0  0  0
   58.7070   32.5440   47.1890 C   0  0  0  0  0  0  0  0  0  0  0  0
   60.0843   33.1670   51.3044 H   0  0  0  0  0  0  0  0  0  0  0  0
   60.3001   34.5674   50.2003 H   0  0  0  0  0  0  0  0  0  0  0  0
   58.7535   33.6537   50.2003 H   0  0  0  0  0  0  0  0  0  0  0  0
   63.0204   32.6636   49.8025 H   0  0  0  0  0  0  0  0  0  0  0  0
   64.8049   33.2321   48.1563 H   0  0  0  0  0  0  0  0  0  0  0  0
   64.1955   33.9268   45.8409 H   0  0  0  0  0  0  0  0  0  0  0  0
   61.8019   34.0554   45.1625 H   0  0  0  0  0  0  0  0  0  0  0  0
   58.6566   35.3642   46.5981 H   0  0  0  0  0  0  0  0  0  0  0  0
   60.0775   35.1914   45.4915 H   0  0  0  0  0  0  0  0  0  0  0  0
   57.5228   35.0408   44.6241 H   0  0  0  0  0  0  0  0  0  0  0  0
   58.9075   34.0809   43.9010 H   0  0  0  0  0  0  0  0  0  0  0  0
   58.1504   32.0107   43.2460 H   0  0  0  0  0  0  0  0  0  0  0  0
   59.2006   31.7065   44.6789 H   0  0  0  0  0  0  0  0  0  0  0  0
   55.4357   30.9864   43.7093 H   0  0  0  0  0  0  0  0  0  0  0  0
   54.8130   28.5850   44.5060 H   0  0  0  0  0  0  0  0  0  0  0  0
   56.0926   26.5635   45.8417 H   0  0  0  0  0  0  0  0  0  0  0  0
   58.2949   25.9420   46.9010 H   0  0  0  0  0  0  0  0  0  0  0  0
   60.1955   27.5710   46.8980 H   0  0  0  0  0  0  0  0  0  0  0  0
   59.9170   29.8442   45.8439 H   0  0  0  0  0  0  0  0  0  0  0  0
   56.8077   33.5394   46.9237 H   0  0  0  0  0  0  0  0  0  0  0  0
   56.7962   31.7629   46.5779 H   0  0  0  0  0  0  0  0  0  0  0  0
   58.5599   32.6894   48.2694 H   0  0  0  0  0  0  0  0  0  0  0  0
   59.0980   31.5354   46.9895 H   0  0  0  0  0  0  0  0  0  0  0  0
  1  2  1  0
  2  3  1  0
  3  4  2  0
  4  5  1  0
  5  6  2  0
  6  7  1  0
  7  8  2  0
  8  9  1  0
  9 10  1  0
 10 11  1  0
 11 12  1  0
 12 13  1  0
 13 14  1  0
 14 15  2  0
 15 16  1  0
 16 17  1  0
 17 18  2  0
 18 19  1  0
 19 20  2  0
 20 21  1  0
 21 22  2  0
 12 23  1  0
 23 24  1  0
  8  3  1  0
 24  9  1  0
 22 14  1  0
 22 17  1  0
  1 25  1  0
  1 26  1  0
  1 27  1  0
  4 28  1  0
  5 29  1  0
  6 30  1  0
  7 31  1  0
 10 32  1  0
 10 33  1  0
 11 34  1  0
 11 35  1  0
 13 36  1  0
 13 37  1  0
 15 38  1  0
 16 39  1  0
 18 40  1  0
 19 41  1  0
 20 42  1  0
 21 43  1  0
 23 44  1  0
 23 45  1  0
 24 46  1  0
 24 47  1  0
M  END
>  <UniqueID>  (37) 
35

>  <SMILES>  (37) 
COc1ccccc1N1CCN(Cc2c[nH]c3ccccc23)CC1

>  <Energy>  (37) 
94.36161036609163

>  <Genealogy>  (37) 
COc1ccccc1N1CCN(Cc2c[nH]c3ccccc23)CC1 (3D coordinates assigned)
COc1ccccc1N1CCN(Cc2c[nH]c3ccccc23)CC1 (nonaromatic ring conformer: 94.36161036609163 kcal/mol)

>  <smiles>  (37) 
COc1ccccc1N1CCN(Cc2c[nH]c3ccccc23)CC1

>  <score_type>  (37) 
oracle

>  <origin>  (37) 
adg

>  <m_score__min__energy>  (37) 
-8.4000000000000004

>  <m_primary>  (37) 
energy

$$$$
37:0
     RDKit          3D

 38 42  0  0  0  0  0  0  0  0999 V2000
   58.7170   31.2860   49.4900 O   0  0  0  0  0  0  0  0  0  0  0  0
   58.8650   30.4920   48.5240 C   0  0  0  0  0  0  0  0  0  0  0  0
   58.6340   29.0890   48.6430 N   0  0  0  0  0  0  0  0  0  0  0  0
   59.0100   28.5700   47.3740 C   0  0  0  0  0  0  0  0  0  0  0  0
   59.0130   27.2210   47.0230 C   0  0  0  0  0  0  0  0  0  0  0  0
   59.4780   26.8620   45.7480 C   0  0  0  0  0  0  0  0  0  0  0  0
   59.9440   27.8470   44.8570 C   0  0  0  0  0  0  0  0  0  0  0  0
   59.9400   29.2000   45.2300 C   0  0  0  0  0  0  0  0  0  0  0  0
   59.4420   29.5430   46.4930 C   0  0  0  0  0  0  0  0  0  0  0  0
   59.3460   30.8880   47.1530 C   0  0  2  0  0  0  0  0  0  0  0  0
   60.6260   31.6420   47.1420 C   0  0  0  0  0  0  0  0  0  0  0  0
   61.9590   31.6480   47.5040 C   0  0  0  0  0  0  0  0  0  0  0  0
   62.6800   32.8140   47.1490 C   0  0  0  0  0  0  0  0  0  0  0  0
   62.0560   33.9070   46.4690 C   0  0  0  0  0  0  0  0  0  0  0  0
   60.6860   33.8770   46.1110 C   0  0  0  0  0  0  0  0  0  0  0  0
   60.0050   32.7230   46.4510 C   0  0  0  0  0  0  0  0  0  0  0  0
   58.6710   32.0150   46.4610 C   0  0  2  0  0  0  0  0  0  0  0  0
   57.7770   32.7380   47.2730 O   0  0  0  0  0  0  0  0  0  0  0  0
   58.0660   31.7140   45.0880 C   0  0  0  0  0  0  0  0  0  0  0  0
   57.1610   30.6530   44.8730 C   0  0  0  0  0  0  0  0  0  0  0  0
   56.6420   30.4110   43.5980 C   0  0  0  0  0  0  0  0  0  0  0  0
   57.0230   31.2110   42.5200 C   0  0  0  0  0  0  0  0  0  0  0  0
   57.9310   32.2530   42.7130 C   0  0  0  0  0  0  0  0  0  0  0  0
   58.4560   32.4990   43.9840 C   0  0  0  0  0  0  0  0  0  0  0  0
   58.6591   26.4552   47.7289 H   0  0  0  0  0  0  0  0  0  0  0  0
   59.4782   25.8050   45.4435 H   0  0  0  0  0  0  0  0  0  0  0  0
   60.3133   27.5547   43.8629 H   0  0  0  0  0  0  0  0  0  0  0  0
   60.3194   29.9733   44.5458 H   0  0  0  0  0  0  0  0  0  0  0  0
   62.4284   30.8048   48.0319 H   0  0  0  0  0  0  0  0  0  0  0  0
   63.7482   32.8810   47.4029 H   0  0  0  0  0  0  0  0  0  0  0  0
   62.6559   34.7940   46.2176 H   0  0  0  0  0  0  0  0  0  0  0  0
   60.1961   34.7167   45.5963 H   0  0  0  0  0  0  0  0  0  0  0  0
   58.0700   32.6220   48.2140 H   0  0  0  0  0  0  0  0  0  0  0  0
   56.8617   30.0116   45.7150 H   0  0  0  0  0  0  0  0  0  0  0  0
   55.9303   29.5866   43.4437 H   0  0  0  0  0  0  0  0  0  0  0  0
   56.6081   31.0205   41.5192 H   0  0  0  0  0  0  0  0  0  0  0  0
   58.2339   32.8818   41.8628 H   0  0  0  0  0  0  0  0  0  0  0  0
   59.1814   33.3139   44.1248 H   0  0  0  0  0  0  0  0  0  0  0  0
  1  2  2  0
  2  3  1  0
  3  4  1  0
  4  5  2  0
  5  6  1  0
  6  7  2  0
  7  8  1  0
  8  9  2  0
  9 10  1  0
 10 11  1  0
 11 12  2  0
 12 13  1  0
 13 14  2  0
 14 15  1  0
 15 16  2  0
 16 17  1  0
 17 18  1  1
 17 19  1  0
 19 20  2  0
 20 21  1  0
 21 22  2  0
 22 23  1  0
 23 24  2  0
 10  2  1  1
 16 11  1  0
 24 19  1  0
  9  4  1  0
 17 10  1  0
  5 25  1  0
  6 26  1  0
  7 27  1  0
  8 28  1  0
 12 29  1  0
 13 30  1  0
 14 31  1  0
 15 32  1  0
 18 33  1  0
 20 34  1  0
 21 35  1  0
 22 36  1  0
 23 37  1  0
 24 38  1  0
M  CHG  1   3  -1
M  END
>  <UniqueID>  (38) 
36

>  <SMILES>  (38) 
O=C1[N-]c2ccccc2[C@]12c1ccccc1[C@@]2(O)c1ccccc1

>  <Energy>  (38) 
126.50368096560881

>  <Genealogy>  (38) 
O=C1[N-]c2ccccc2C12c1ccccc1C2(O)c1ccccc1 (protonated)
O=C1[N-]c2ccccc2[C@]12c1ccccc1[C@@]2(O)c1ccccc1 (chirality)
O=C1[N-]c2ccccc2[C@]12c1ccccc1[C@@]2(O)c1ccccc1 (3D coordinates assigned)
O=C1[N-]c2ccccc2[C@]12c1ccccc1[C@@]2(O)c1ccccc1 (nonaromatic ring conformer: 126.50368096560881 kcal/mol)

>  <smiles>  (38) 
O=C1Nc2ccccc2C12c1ccccc1C2(O)c1ccccc1

>  <score_type>  (38) 
oracle

>  <origin>  (38) 
adg

>  <m_score__min__energy>  (38) 
-8.6699999999999999

>  <m_primary>  (38) 
energy

$$$$
38:0
     RDKit          3D

 31 32  0  0  0  0  0  0  0  0999 V2000
   59.1800   33.8840   44.5190 C   0  0  0  0  0  0  0  0  0  0  0  0
   57.9070   33.1950   44.7490 N   0  0  0  0  0  0  0  0  0  0  0  0
   56.7670   33.9190   45.3210 C   0  0  0  0  0  0  0  0  0  0  0  0
   57.7800   31.8000   44.4090 C   0  0  0  0  0  0  0  0  0  0  0  0
   56.9600   31.3240   43.4410 N   0  0  0  0  0  0  0  0  0  0  0  0
   57.0310   29.9710   43.3120 C   0  0  0  0  0  0  0  0  0  0  0  0
   56.2780   29.2860   42.3050 N   0  0  0  0  0  0  0  0  0  0  0  0
   57.9200   29.3420   44.1960 C   0  0  0  0  0  0  0  0  0  0  0  0
   58.1890   27.8960   44.3500 C   0  0  0  0  0  0  0  0  0  0  0  0
   57.8800   27.0900   43.4330 O   0  0  0  0  0  0  0  0  0  0  0  0
   58.7690   27.3670   45.6020 C   0  0  0  0  0  0  0  0  0  0  0  0
   57.9880   26.5830   46.4800 C   0  0  0  0  0  0  0  0  0  0  0  0
   56.2880   26.2460   46.1620 Cl  0  0  0  0  0  0  0  0  0  0  0  0
   58.5520   26.0830   47.6600 C   0  0  0  0  0  0  0  0  0  0  0  0
   59.8820   26.3580   47.9770 C   0  0  0  0  0  0  0  0  0  0  0  0
   60.6590   27.1380   47.1210 C   0  0  0  0  0  0  0  0  0  0  0  0
   60.1120   27.6460   45.9370 C   0  0  0  0  0  0  0  0  0  0  0  0
   61.1510   28.5950   44.8770 Cl  0  0  0  0  0  0  0  0  0  0  0  0
   58.6250   30.5440   45.1470 S   0  0  0  0  0  0  0  0  0  0  0  0
   59.6416   34.1338   45.4857 H   0  0  0  0  0  0  0  0  0  0  0  0
   59.8544   33.2278   43.9493 H   0  0  0  0  0  0  0  0  0  0  0  0
   58.9994   34.8075   43.9493 H   0  0  0  0  0  0  0  0  0  0  0  0
   56.8234   33.8832   46.4190 H   0  0  0  0  0  0  0  0  0  0  0  0
   56.7928   34.9666   44.9865 H   0  0  0  0  0  0  0  0  0  0  0  0
   55.8298   33.4503   44.9865 H   0  0  0  0  0  0  0  0  0  0  0  0
   56.3470   31.9190   42.8430 H   0  0  0  0  0  0  0  0  0  0  0  0
   55.6020   29.7800   41.6860 H   0  0  0  0  0  0  0  0  0  0  0  0
   56.3380   28.2470   42.2280 H   0  0  0  0  0  0  0  0  0  0  0  0
   57.9428   25.4700   48.3406 H   0  0  0  0  0  0  0  0  0  0  0  0
   60.3191   25.9588   48.9042 H   0  0  0  0  0  0  0  0  0  0  0  0
   61.7064   27.3550   47.3775 H   0  0  0  0  0  0  0  0  0  0  0  0
  1  2  1  0
  2  3  1  0
  2  4  1  0
  4  5  2  0
  5  6  1  0
  6  7  1  0
  6  8  2  0
  8  9  1  0
  9 10  2  0
  9 11  1  0
 11 12  2  0
 12 13  1  0
 12 14  1  0
 14 15  2  0
 15 16  1  0
 16 17  2  0
 17 18  1  0
  8 19  1  0
 19  4  1  0
 17 11  1  0
  1 20  1  0
  1 21  1  0
  1 22  1  0
  3 23  1  0
  3 24  1  0
  3 25  1  0
  5 26  1  0
  7 27  1  0
  7 28  1  0
 14 29  1  0
 15 30  1  0
 16 31  1  0
M  CHG  1   5   1
M  END
>  <UniqueID>  (39) 
37

>  <SMILES>  (39) 
CN(C)c1[nH+]c(N)c(C(=O)c2c(Cl)cccc2Cl)s1

>  <Energy>  (39) 
67.72706165052931

>  <Genealogy>  (39) 
CN(C)c1[nH+]c(N)c(C(=O)c2c(Cl)cccc2Cl)s1 (protonated)
CN(C)c1[nH+]c(N)c(C(=O)c2c(Cl)cccc2Cl)s1 (3D coordinates assigned)
CN(C)c1[nH+]c(N)c(C(=O)c2c(Cl)cccc2Cl)s1 (optimized conformer: 67.72706165052931 kcal/mol)

>  <smiles>  (39) 
CN(C)c1nc(N)c(C(=O)c2c(Cl)cccc2Cl)s1

>  <score_type>  (39) 
oracle

>  <origin>  (39) 
adg

>  <m_score__min__energy>  (39) 
-4.8899999999999997

>  <m_primary>  (39) 
energy

$$$$
39:0
     RDKit          3D

 45 47  0  0  0  0  0  0  0  0999 V2000
   55.4060   29.3150   44.8800 O   0  0  0  0  0  0  0  0  0  0  0  0
   56.6270   29.3440   44.5590 C   0  0  0  0  0  0  0  0  0  0  0  0
   57.2600   30.6690   44.2940 C   0  0  0  0  0  0  0  0  0  0  0  0
   57.3850   31.1260   42.9660 C   0  0  0  0  0  0  0  0  0  0  0  0
   57.9770   32.3620   42.6890 C   0  0  0  0  0  0  0  0  0  0  0  0
   58.4570   33.1580   43.7310 C   0  0  0  0  0  0  0  0  0  0  0  0
   58.3480   32.7180   45.0510 C   0  0  0  0  0  0  0  0  0  0  0  0
   57.7550   31.4830   45.3350 C   0  0  0  0  0  0  0  0  0  0  0  0
   57.3690   28.0970   44.4340 N   0  0  0  0  0  0  0  0  0  0  0  0
   58.8080   28.3180   44.1160 C   0  0  0  0  0  0  0  0  0  0  0  0
   59.7220   28.3200   45.3580 C   0  0  0  0  0  0  0  0  0  0  0  0
   58.9650   28.7610   46.5370 N   0  0  0  0  0  0  0  0  0  0  0  0
   59.8140   29.1420   47.6870 C   0  0  0  0  0  0  0  0  0  0  0  0
   60.0540   30.6340   47.8090 C   0  0  0  0  0  0  0  0  0  0  0  0
   59.0440   31.4790   48.2940 C   0  0  0  0  0  0  0  0  0  0  0  0
   59.2620   32.8540   48.3920 C   0  0  0  0  0  0  0  0  0  0  0  0
   60.4950   33.3980   48.0260 C   0  0  0  0  0  0  0  0  0  0  0  0
   61.5340   32.5650   47.5780 C   0  0  0  0  0  0  0  0  0  0  0  0
   62.8520   33.1530   47.1390 C   0  0  0  0  0  0  0  0  0  0  0  0
   63.3250   33.9970   48.1280 F   0  0  0  0  0  0  0  0  0  0  0  0
   62.6980   33.8720   45.9670 F   0  0  0  0  0  0  0  0  0  0  0  0
   63.7850   32.1550   46.9140 F   0  0  0  0  0  0  0  0  0  0  0  0
   61.2990   31.1840   47.4570 C   0  0  0  0  0  0  0  0  0  0  0  0
   57.8920   27.8090   46.8860 C   0  0  0  0  0  0  0  0  0  0  0  0
   57.1840   27.2480   45.6320 C   0  0  0  0  0  0  0  0  0  0  0  0
   57.0128   30.5034   42.1390 H   0  0  0  0  0  0  0  0  0  0  0  0
   58.0648   32.7079   41.6485 H   0  0  0  0  0  0  0  0  0  0  0  0
   58.9207   34.1311   43.5117 H   0  0  0  0  0  0  0  0  0  0  0  0
   58.7296   33.3443   45.8708 H   0  0  0  0  0  0  0  0  0  0  0  0
   57.6740   31.1438   46.3783 H   0  0  0  0  0  0  0  0  0  0  0  0
   56.9810   27.5750   43.6150 H   0  0  0  0  0  0  0  0  0  0  0  0
   59.1417   27.5169   43.4401 H   0  0  0  0  0  0  0  0  0  0  0  0
   58.8872   29.3140   43.6559 H   0  0  0  0  0  0  0  0  0  0  0  0
   60.1051   27.3033   45.5302 H   0  0  0  0  0  0  0  0  0  0  0  0
   60.5612   29.0106   45.1881 H   0  0  0  0  0  0  0  0  0  0  0  0
   59.3245   28.7939   48.6086 H   0  0  0  0  0  0  0  0  0  0  0  0
   60.7963   28.6738   47.5262 H   0  0  0  0  0  0  0  0  0  0  0  0
   58.0756   31.0554   48.5985 H   0  0  0  0  0  0  0  0  0  0  0  0
   58.4599   33.5114   48.7587 H   0  0  0  0  0  0  0  0  0  0  0  0
   60.6537   34.4847   48.0888 H   0  0  0  0  0  0  0  0  0  0  0  0
   62.0979   30.5269   47.0829 H   0  0  0  0  0  0  0  0  0  0  0  0
   58.3295   26.9725   47.4507 H   0  0  0  0  0  0  0  0  0  0  0  0
   57.1434   28.3466   47.4864 H   0  0  0  0  0  0  0  0  0  0  0  0
   57.5894   26.2479   45.4187 H   0  0  0  0  0  0  0  0  0  0  0  0
   56.1062   27.2168   45.8495 H   0  0  0  0  0  0  0  0  0  0  0  0
  1  2  2  0
  2  3  1  0
  3  4  2  0
  4  5  1  0
  5  6  2  0
  6  7  1  0
  7  8  2  0
  2  9  1  0
  9 10  1  0
 10 11  1  0
 11 12  1  0
 12 13  1  0
 13 14  1  0
 14 15  2  0
 15 16  1  0
 16 17  2  0
 17 18  1  0
 18 19  1  0
 19 20  1  0
 19 21  1  0
 19 22  1  0
 18 23  2  0
 12 24  1  0
 24 25  1  0
  8  3  1  0
 25  9  1  0
 23 14  1  0
  4 26  1  0
  5 27  1  0
  6 28  1  0
  7 29  1  0
  8 30  1  0
  9 31  1  0
 10 32  1  0
 10 33  1  0
 11 34  1  0
 11 35  1  0
 13 36  1  0
 13 37  1  0
 15 38  1  0
 16 39  1  0
 17 40  1  0
 23 41  1  0
 24 42  1  0
 24 43  1  0
 25 44  1  0
 25 45  1  0
M  CHG  1   9   1
M  END
>  <UniqueID>  (40) 
38

>  <SMILES>  (40) 
O=C(c1ccccc1)[NH+]1CCN(Cc2cccc(C(F)(F)F)c2)CC1

>  <Energy>  (40) 
65.81832504237993

>  <Genealogy>  (40) 
O=C(c1ccccc1)[NH+]1CCN(Cc2cccc(C(F)(F)F)c2)CC1 (protonated)
O=C(c1ccccc1)[NH+]1CCN(Cc2cccc(C(F)(F)F)c2)CC1 (3D coordinates assigned)
O=C(c1ccccc1)[NH+]1CCN(Cc2cccc(C(F)(F)F)c2)CC1 (nonaromatic ring conformer: 65.81832504237993 kcal/mol)

>  <smiles>  (40) 
O=C(c1ccccc1)N1CCN(Cc2cccc(C(F)(F)F)c2)CC1

>  <score_type>  (40) 
oracle

>  <origin>  (40) 
adg

>  <m_score__min__energy>  (40) 
-6.5300000000000002

>  <m_primary>  (40) 
energy

$$$$
40:0
     RDKit          3D

 50 53  0  0  0  0  0  0  0  0999 V2000
   60.6360   27.5580   49.2970 C   0  0  0  0  0  0  0  0  0  0  0  0
   60.1770   26.7350   48.2270 O   0  0  0  0  0  0  0  0  0  0  0  0
   59.4720   27.2110   47.1110 C   0  0  0  0  0  0  0  0  0  0  0  0
   58.0750   27.3920   47.1190 C   0  0  0  0  0  0  0  0  0  0  0  0
   57.4230   27.8940   45.9890 C   0  0  0  0  0  0  0  0  0  0  0  0
   58.1580   28.2390   44.8420 C   0  0  0  0  0  0  0  0  0  0  0  0
   57.5200   28.7800   43.6790 N   0  0  0  0  0  0  0  0  0  0  0  0
   57.0560   30.1320   43.5150 C   0  0  0  0  0  0  0  0  0  0  0  0
   56.2300   30.3840   42.5980 O   0  0  0  0  0  0  0  0  0  0  0  0
   57.5290   31.2300   44.3790 C   0  0  0  0  0  0  0  0  0  0  0  0
   58.4940   32.1650   44.0400 C   0  0  0  0  0  0  0  0  0  0  0  0
   58.5500   33.0020   45.1360 C   0  0  0  0  0  0  0  0  0  0  0  0
   57.6680   32.5700   46.0560 N   0  0  0  0  0  0  0  0  0  0  0  0
   57.0470   31.4910   45.6100 N   0  0  0  0  0  0  0  0  0  0  0  0
   57.3480   33.2250   47.3220 C   0  0  0  0  0  0  0  0  0  0  0  0
   58.6110   33.4200   48.1670 C   0  0  0  0  0  0  0  0  0  0  0  0
   59.5170   34.6090   47.7500 C   0  0  0  0  0  0  0  0  0  0  0  0
   60.1750   34.4270   46.4430 N   0  0  0  0  0  0  0  0  0  0  0  0
   61.6360   34.2660   46.3680 C   0  0  0  0  0  0  0  0  0  0  0  0
   62.1230   33.2450   47.3670 C   0  0  0  0  0  0  0  0  0  0  0  0
   63.2030   33.5410   48.2200 C   0  0  0  0  0  0  0  0  0  0  0  0
   63.6380   32.6040   49.1610 C   0  0  0  0  0  0  0  0  0  0  0  0
   63.0010   31.3650   49.2610 C   0  0  0  0  0  0  0  0  0  0  0  0
   61.9320   31.0580   48.4130 C   0  0  0  0  0  0  0  0  0  0  0  0
   61.4960   31.9910   47.4680 C   0  0  0  0  0  0  0  0  0  0  0  0
   59.3640   34.2190   45.2680 C   0  0  0  0  0  0  0  0  0  0  0  0
   59.3340   35.0900   44.3500 O   0  0  0  0  0  0  0  0  0  0  0  0
   59.5400   28.0150   44.8180 C   0  0  0  0  0  0  0  0  0  0  0  0
   60.1930   27.5100   45.9460 C   0  0  0  0  0  0  0  0  0  0  0  0
   60.3749   27.0899   50.2576 H   0  0  0  0  0  0  0  0  0  0  0  0
   61.7280   27.6720   49.2295 H   0  0  0  0  0  0  0  0  0  0  0  0
   60.1592   28.5470   49.2295 H   0  0  0  0  0  0  0  0  0  0  0  0
   57.4948   27.1373   48.0182 H   0  0  0  0  0  0  0  0  0  0  0  0
   56.3302   28.0195   45.9976 H   0  0  0  0  0  0  0  0  0  0  0  0
   59.0803   32.2260   43.1113 H   0  0  0  0  0  0  0  0  0  0  0  0
   56.8964   34.2067   47.1163 H   0  0  0  0  0  0  0  0  0  0  0  0
   56.6444   32.5898   47.8801 H   0  0  0  0  0  0  0  0  0  0  0  0
   58.2996   33.5806   49.2097 H   0  0  0  0  0  0  0  0  0  0  0  0
   59.2160   32.5132   48.0195 H   0  0  0  0  0  0  0  0  0  0  0  0
   58.8977   35.5169   47.7029 H   0  0  0  0  0  0  0  0  0  0  0  0
   60.3156   34.6822   48.5029 H   0  0  0  0  0  0  0  0  0  0  0  0
   61.9094   33.9359   45.3549 H   0  0  0  0  0  0  0  0  0  0  0  0
   62.1060   35.2331   46.6000 H   0  0  0  0  0  0  0  0  0  0  0  0
   63.7075   34.5156   48.1454 H   0  0  0  0  0  0  0  0  0  0  0  0
   64.4830   32.8424   49.8237 H   0  0  0  0  0  0  0  0  0  0  0  0
   63.3401   30.6308   50.0066 H   0  0  0  0  0  0  0  0  0  0  0  0
   61.4335   30.0805   48.4899 H   0  0  0  0  0  0  0  0  0  0  0  0
   60.6581   31.7427   46.8000 H   0  0  0  0  0  0  0  0  0  0  0  0
   60.1147   28.2376   43.9069 H   0  0  0  0  0  0  0  0  0  0  0  0
   61.2804   27.3459   45.9196 H   0  0  0  0  0  0  0  0  0  0  0  0
  1  2  1  0
  2  3  1  0
  3  4  2  0
  4  5  1  0
  5  6  2  0
  6  7  1  0
  7  8  1  0
  8  9  2  0
  8 10  1  0
 10 11  1  0
 11 12  2  0
 12 13  1  0
 13 14  1  0
 13 15  1  0
 15 16  1  0
 16 17  1  0
 17 18  1  0
 18 19  1  0
 19 20  1  0
 20 21  2  0
 21 22  1  0
 22 23  2  0
 23 24  1  0
 24 25  2  0
 18 26  1  0
 26 27  2  0
  6 28  1  0
 28 29  2  0
 29  3  1  0
 14 10  2  0
 25 20  1  0
 26 12  1  0
  1 30  1  0
  1 31  1  0
  1 32  1  0
  4 33  1  0
  5 34  1  0
 11 35  1  0
 15 36  1  0
 15 37  1  0
 16 38  1  0
 16 39  1  0
 17 40  1  0
 17 41  1  0
 19 42  1  0
 19 43  1  0
 21 44  1  0
 22 45  1  0
 23 46  1  0
 24 47  1  0
 25 48  1  0
 28 49  1  0
 29 50  1  0
M  CHG  1   7  -1
M  END
>  <UniqueID>  (41) 
39

>  <SMILES>  (41) 
COc1ccc([N-]C(=O)c2cc3n(n2)CCCN(Cc2ccccc2)C3=O)cc1

>  <Energy>  (41) 
92.8274834321736

>  <Genealogy>  (41) 
COc1ccc([N-]C(=O)c2cc3n(n2)CCCN(Cc2ccccc2)C3=O)cc1 (protonated)
COc1ccc([N-]C(=O)c2cc3n(n2)CCCN(Cc2ccccc2)C3=O)cc1 (3D coordinates assigned)
COc1ccc([N-]C(=O)c2cc3n(n2)CCCN(Cc2ccccc2)C3=O)cc1 (nonaromatic ring conformer: 92.8274834321736 kcal/mol)

>  <smiles>  (41) 
COc1ccc(NC(=O)c2cc3n(n2)CCCN(Cc2ccccc2)C3=O)cc1

>  <score_type>  (41) 
oracle

>  <origin>  (41) 
adg

>  <m_score__min__energy>  (41) 
-7.8899999999999997

>  <m_primary>  (41) 
energy

$$$$
41:0
     RDKit          3D

 41 42  0  0  0  0  0  0  0  0999 V2000
   66.8700   32.6950   50.6300 C   0  0  0  0  0  0  0  0  0  0  0  0
   65.7270   33.4880   50.9350 O   0  0  0  0  0  0  0  0  0  0  0  0
   64.5380   33.4840   50.1900 C   0  0  0  0  0  0  0  0  0  0  0  0
   63.3890   34.1830   50.6000 C   0  0  0  0  0  0  0  0  0  0  0  0
   62.2270   34.1480   49.8230 C   0  0  0  0  0  0  0  0  0  0  0  0
   62.1910   33.4150   48.6230 C   0  0  0  0  0  0  0  0  0  0  0  0
   60.9570   33.3780   47.7970 C   0  0  0  0  0  0  0  0  0  0  0  0
   60.3870   34.5670   47.3090 C   0  0  0  0  0  0  0  0  0  0  0  0
   59.2280   34.5310   46.5290 C   0  0  0  0  0  0  0  0  0  0  0  0
   58.6190   33.3020   46.2140 C   0  0  0  0  0  0  0  0  0  0  0  0
   57.4580   33.2020   45.4300 O   0  0  0  0  0  0  0  0  0  0  0  0
   57.3940   32.7590   44.0720 C   0  0  0  0  0  0  0  0  0  0  0  0
   57.6370   31.2490   43.9800 C   0  0  0  0  0  0  0  0  0  0  0  0
   56.7140   30.5090   44.8680 N   0  0  0  0  0  0  0  0  0  0  0  0
   57.3850   29.3440   45.4730 C   0  0  0  0  0  0  0  0  0  0  0  0
   55.5240   30.0610   44.1270 C   0  0  0  0  0  0  0  0  0  0  0  0
   59.1790   32.1200   46.7110 C   0  0  0  0  0  0  0  0  0  0  0  0
   60.3380   32.1530   47.4920 C   0  0  0  0  0  0  0  0  0  0  0  0
   63.3430   32.7180   48.2190 C   0  0  0  0  0  0  0  0  0  0  0  0
   64.5040   32.7540   48.9970 C   0  0  0  0  0  0  0  0  0  0  0  0
   67.3468   32.3642   51.5645 H   0  0  0  0  0  0  0  0  0  0  0  0
   66.5611   31.8162   50.0450 H   0  0  0  0  0  0  0  0  0  0  0  0
   67.5850   33.2921   50.0450 H   0  0  0  0  0  0  0  0  0  0  0  0
   63.4043   34.7601   51.5364 H   0  0  0  0  0  0  0  0  0  0  0  0
   61.3335   34.6983   50.1529 H   0  0  0  0  0  0  0  0  0  0  0  0
   60.8572   35.5335   47.5431 H   0  0  0  0  0  0  0  0  0  0  0  0
   58.7890   35.4692   46.1589 H   0  0  0  0  0  0  0  0  0  0  0  0
   56.3988   32.9896   43.6640 H   0  0  0  0  0  0  0  0  0  0  0  0
   58.1740   33.2773   43.4950 H   0  0  0  0  0  0  0  0  0  0  0  0
   57.4776   30.9215   42.9421 H   0  0  0  0  0  0  0  0  0  0  0  0
   58.6699   31.0402   44.2954 H   0  0  0  0  0  0  0  0  0  0  0  0
   57.3395   29.4231   46.5692 H   0  0  0  0  0  0  0  0  0  0  0  0
   56.8798   28.4216   45.1506 H   0  0  0  0  0  0  0  0  0  0  0  0
   58.4364   29.3181   45.1506 H   0  0  0  0  0  0  0  0  0  0  0  0
   54.7388   29.7654   44.8384 H   0  0  0  0  0  0  0  0  0  0  0  0
   55.1554   30.8819   43.4944 H   0  0  0  0  0  0  0  0  0  0  0  0
   55.7883   29.2008   43.4944 H   0  0  0  0  0  0  0  0  0  0  0  0
   58.7024   31.1548   46.4848 H   0  0  0  0  0  0  0  0  0  0  0  0
   60.7686   31.2142   47.8705 H   0  0  0  0  0  0  0  0  0  0  0  0
   63.3308   32.1397   47.2834 H   0  0  0  0  0  0  0  0  0  0  0  0
   65.3981   32.2039   48.6685 H   0  0  0  0  0  0  0  0  0  0  0  0
  1  2  1  0
  2  3  1  0
  3  4  2  0
  4  5  1  0
  5  6  2  0
  6  7  1  0
  7  8  2  0
  8  9  1  0
  9 10  2  0
 10 11  1  0
 11 12  1  0
 12 13  1  0
 13 14  1  0
 14 15  1  0
 14 16  1  0
 10 17  1  0
 17 18  2  0
  6 19  1  0
 19 20  2  0
 20  3  1  0
 18  7  1  0
  1 21  1  0
  1 22  1  0
  1 23  1  0
  4 24  1  0
  5 25  1  0
  8 26  1  0
  9 27  1  0
 12 28  1  0
 12 29  1  0
 13 30  1  0
 13 31  1  0
 15 32  1  0
 15 33  1  0
 15 34  1  0
 16 35  1  0
 16 36  1  0
 16 37  1  0
 17 38  1  0
 18 39  1  0
 19 40  1  0
 20 41  1  0
M  END
>  <UniqueID>  (42) 
40

>  <SMILES>  (42) 
COc1ccc(-c2ccc(OCCN(C)C)cc2)cc1

>  <Energy>  (42) 
45.59255032011528

>  <Genealogy>  (42) 
COc1ccc(-c2ccc(OCCN(C)C)cc2)cc1 (3D coordinates assigned)
COc1ccc(-c2ccc(OCCN(C)C)cc2)cc1 (optimized conformer: 45.59255032011528 kcal/mol)

>  <smiles>  (42) 
COc1ccc(-c2ccc(OCCN(C)C)cc2)cc1

>  <score_type>  (42) 
oracle

>  <origin>  (42) 
adg

>  <m_score__min__energy>  (42) 
-5.9900000000000002

>  <m_primary>  (42) 
energy

$$$$
42:0
     RDKit          3D

 41 44  0  0  1  0  0  0  0  0999 V2000
   62.6420   32.6560   51.3800 F   0  0  0  0  0  0  0  0  0  0  0  0
   63.5470   33.4800   50.7350 C   0  0  0  0  0  0  0  0  0  0  0  0
   63.4320   34.7670   51.2190 F   0  0  0  0  0  0  0  0  0  0  0  0
   64.8490   33.0850   50.9290 F   0  0  0  0  0  0  0  0  0  0  0  0
   63.2020   33.4750   49.2900 C   0  0  0  0  0  0  0  0  0  0  0  0
   64.1460   33.1110   48.3390 C   0  0  0  0  0  0  0  0  0  0  0  0
   63.8600   33.0950   46.9870 C   0  0  0  0  0  0  0  0  0  0  0  0
   62.5930   33.4550   46.5710 C   0  0  0  0  0  0  0  0  0  0  0  0
   61.6400   33.8190   47.4850 C   0  0  0  0  0  0  0  0  0  0  0  0
   60.3780   34.1750   47.0500 C   0  0  0  0  0  0  0  0  0  0  0  0
   60.0440   34.1840   45.8260 N   0  0  0  0  0  0  0  0  0  0  0  0
   58.9590   34.9320   45.2360 C   0  0  0  0  0  0  0  0  0  0  0  0
   57.7740   34.0200   44.9620 C   0  0  0  0  0  0  0  0  0  0  0  0
   57.7050   32.8850   45.8280 N   0  0  0  0  0  0  0  0  0  0  0  0
   58.1850   31.7170   45.6070 C   0  0  0  0  0  0  0  0  0  0  0  0
   59.4460   31.3730   46.0030 N   0  0  0  0  0  0  0  0  0  0  0  0
   59.9110   30.1270   45.7490 C   0  0  0  0  0  0  0  0  0  0  0  0
   59.1360   29.2090   45.1000 N   0  0  0  0  0  0  0  0  0  0  0  0
   57.8790   29.5470   44.7030 C   0  0  0  0  0  0  0  0  0  0  0  0
   56.9190   28.8270   44.0490 N   0  0  0  0  0  0  0  0  0  0  0  0
   55.8570   29.6750   43.9150 C   0  0  0  0  0  0  0  0  0  0  0  0
   56.1690   30.8600   44.4690 N   0  0  0  0  0  0  0  0  0  0  0  0
   57.3940   30.8130   44.9560 C   0  0  0  0  0  0  0  0  0  0  0  0
   59.4490   34.5340   47.9890 C   0  0  0  0  0  0  0  0  0  0  0  0
   59.7830   34.5320   49.3190 C   0  0  0  0  0  0  0  0  0  0  0  0
   61.0250   34.1810   49.7340 N   0  0  0  0  0  0  0  0  0  0  0  0
   61.9540   33.8260   48.8360 C   0  0  0  0  0  0  0  0  0  0  0  0
   65.1547   32.8260   48.6727 H   0  0  0  0  0  0  0  0  0  0  0  0
   64.6272   32.8010   46.2556 H   0  0  0  0  0  0  0  0  0  0  0  0
   62.3478   33.4493   45.4987 H   0  0  0  0  0  0  0  0  0  0  0  0
   58.6502   35.7295   45.9279 H   0  0  0  0  0  0  0  0  0  0  0  0
   59.3012   35.3676   44.2857 H   0  0  0  0  0  0  0  0  0  0  0  0
   56.8508   34.6055   45.0839 H   0  0  0  0  0  0  0  0  0  0  0  0
   57.8972   33.6345   43.9392 H   0  0  0  0  0  0  0  0  0  0  0  0
   60.0230   32.0860   46.4970 H   0  0  0  0  0  0  0  0  0  0  0  0
   60.9263   29.8506   46.0696 H   0  0  0  0  0  0  0  0  0  0  0  0
   56.9830   27.8310   43.7190 H   0  0  0  0  0  0  0  0  0  0  0  0
   54.9002   29.4284   43.4316 H   0  0  0  0  0  0  0  0  0  0  0  0
   58.4349   34.8240   47.6768 H   0  0  0  0  0  0  0  0  0  0  0  0
   59.0276   34.8212   50.0645 H   0  0  0  0  0  0  0  0  0  0  0  0
   61.1850   34.2110   50.7640 H   0  0  0  0  0  0  0  0  0  0  0  0
  1  2  1  0
  2  3  1  0
  2  4  1  0
  2  5  1  0
  5  6  2  0
  6  7  1  0
  7  8  2  0
  8  9  1  0
  9 10  1  0
 10 11  2  0
 11 12  1  0
 12 13  1  0
 13 14  1  0
 14 15  2  0
 15 16  1  0
 16 17  1  0
 17 18  2  0
 18 19  1  0
 19 20  1  0
 20 21  1  0
 21 22  2  0
 22 23  1  0
 10 24  1  0
 24 25  2  0
 25 26  1  0
 26 27  1  0
 27  5  1  0
 27  9  2  0
 23 15  1  0
 23 19  2  0
  6 28  1  0
  7 29  1  0
  8 30  1  0
 12 31  1  0
 12 32  1  0
 13 33  1  0
 13 34  1  0
 16 35  1  0
 17 36  1  0
 20 37  1  0
 21 38  1  0
 24 39  1  0
 25 40  1  0
 26 41  1  0
M  END
>  <smiles>  (43) 
FC(F)(F)c1cccc2c(=NCCN=c3[nH]cnc4[nH]cnc34)cc[nH]c12

>  <score_type>  (43) 
oracle

>  <origin>  (43) 
adg

>  <m_score__min__energy>  (43) 
-7.6799999999999997

>  <m_primary>  (43) 
energy

$$$$
43:0
     RDKit          3D

 52 55  0  0  0  0  0  0  0  0999 V2000
   56.2530   30.4730   44.3910 O   0  0  0  0  0  0  0  0  0  0  0  0
   57.3740   30.5030   44.9710 C   0  0  0  0  0  0  0  0  0  0  0  0
   58.0170   29.1700   45.3170 C   0  0  0  0  0  0  0  0  0  0  0  0
   59.3940   28.9440   44.6190 C   0  0  0  0  0  0  0  0  0  0  0  0
   60.5730   28.7120   45.5740 C   0  0  0  0  0  0  0  0  0  0  0  0
   60.2140   27.3650   46.6840 S   0  0  0  0  0  0  0  0  0  0  0  0
   61.1130   27.4440   47.8830 O   0  0  0  0  0  0  0  0  0  0  0  0
   60.4270   26.0530   45.9810 O   0  0  0  0  0  0  0  0  0  0  0  0
   58.5090   27.5110   47.1890 C   0  0  0  0  0  0  0  0  0  0  0  0
   57.9790   28.9030   46.8420 C   0  0  0  0  0  0  0  0  0  0  0  0
   57.9580   31.7890   45.2780 N   0  0  0  0  0  0  0  0  0  0  0  0
   57.4040   33.0950   44.9580 C   0  0  0  0  0  0  0  0  0  0  0  0
   58.5180   34.0880   45.2570 C   0  0  0  0  0  0  0  0  0  0  0  0
   59.4360   33.3920   46.2870 C   0  0  1  0  0  0  0  0  0  0  0  0
   60.9350   33.8290   46.1350 C   0  0  0  0  0  0  0  0  0  0  0  0
   61.9530   33.1060   47.0520 C   0  0  0  0  0  0  0  0  0  0  0  0
   62.1080   33.7540   48.4260 C   0  0  0  0  0  0  0  0  0  0  0  0
   60.8700   33.6250   49.1940 N   0  0  0  0  0  0  0  0  0  0  0  0
   60.8260   32.9070   50.4430 C   0  0  0  0  0  0  0  0  0  0  0  0
   59.7080   32.3180   50.9230 N   0  0  0  0  0  0  0  0  0  0  0  0
   59.8850   31.7400   52.1110 N   0  0  0  0  0  0  0  0  0  0  0  0
   61.1430   31.8630   52.5910 C   0  0  0  0  0  0  0  0  0  0  0  0
   62.1120   32.7270   51.5200 S   0  0  0  0  0  0  0  0  0  0  0  0
   59.7070   34.3850   48.7390 C   0  0  0  0  0  0  0  0  0  0  0  0
   58.8580   33.5800   47.7460 C   0  0  0  0  0  0  0  0  0  0  0  0
   59.2790   31.9030   45.8820 C   0  0  0  0  0  0  0  0  0  0  0  0
   57.3985   28.3740   44.8766 H   0  0  0  0  0  0  0  0  0  0  0  0
   59.3053   28.0635   43.9656 H   0  0  0  0  0  0  0  0  0  0  0  0
   59.6183   29.8717   44.0721 H   0  0  0  0  0  0  0  0  0  0  0  0
   61.4721   28.4698   44.9884 H   0  0  0  0  0  0  0  0  0  0  0  0
   60.7416   29.6257   46.1629 H   0  0  0  0  0  0  0  0  0  0  0  0
   57.9080   26.7517   46.6671 H   0  0  0  0  0  0  0  0  0  0  0  0
   58.4397   27.3585   48.2762 H   0  0  0  0  0  0  0  0  0  0  0  0
   56.9394   28.9855   47.1920 H   0  0  0  0  0  0  0  0  0  0  0  0
   58.6227   29.6463   47.3351 H   0  0  0  0  0  0  0  0  0  0  0  0
   57.1195   33.1433   43.8965 H   0  0  0  0  0  0  0  0  0  0  0  0
   56.4961   33.3094   45.5409 H   0  0  0  0  0  0  0  0  0  0  0  0
   59.0790   34.3220   44.3402 H   0  0  0  0  0  0  0  0  0  0  0  0
   58.1209   35.0377   45.6447 H   0  0  0  0  0  0  0  0  0  0  0  0
   61.2339   33.6469   45.0922 H   0  0  0  0  0  0  0  0  0  0  0  0
   60.9660   34.8866   46.4360 H   0  0  0  0  0  0  0  0  0  0  0  0
   61.6174   32.0680   47.1932 H   0  0  0  0  0  0  0  0  0  0  0  0
   62.9327   33.1658   46.5554 H   0  0  0  0  0  0  0  0  0  0  0  0
   62.9253   33.2582   48.9703 H   0  0  0  0  0  0  0  0  0  0  0  0
   62.3352   34.8220   48.2928 H   0  0  0  0  0  0  0  0  0  0  0  0
   61.4869   31.4534   53.5522 H   0  0  0  0  0  0  0  0  0  0  0  0
   59.0872   34.6443   49.6100 H   0  0  0  0  0  0  0  0  0  0  0  0
   60.0666   35.2905   48.2284 H   0  0  0  0  0  0  0  0  0  0  0  0
   58.7091   32.5779   48.1745 H   0  0  0  0  0  0  0  0  0  0  0  0
   57.9404   34.1718   47.6131 H   0  0  0  0  0  0  0  0  0  0  0  0
   60.0565   31.6199   45.1572 H   0  0  0  0  0  0  0  0  0  0  0  0
   59.3844   31.2357   46.7501 H   0  0  0  0  0  0  0  0  0  0  0  0
  1  2  2  0
  2  3  1  0
  3  4  1  0
  4  5  1  0
  5  6  1  0
  6  7  2  0
  6  8  2  0
  6  9  1  0
  9 10  1  0
  2 11  1  0
 11 12  1  0
 12 13  1  0
 14 13  1  6
 14 15  1  0
 15 16  1  0
 16 17  1  0
 17 18  1  0
 18 19  1  0
 19 20  2  0
 20 21  1  0
 21 22  2  0
 22 23  1  0
 18 24  1  0
 24 25  1  0
 14 26  1  0
 10  3  1  0
 26 11  1  0
 25 14  1  0
 23 19  1  0
  3 27  1  0
  4 28  1  0
  4 29  1  0
  5 30  1  0
  5 31  1  0
  9 32  1  0
  9 33  1  0
 10 34  1  0
 10 35  1  0
 12 36  1  0
 12 37  1  0
 13 38  1  0
 13 39  1  0
 15 40  1  0
 15 41  1  0
 16 42  1  0
 16 43  1  0
 17 44  1  0
 17 45  1  0
 22 46  1  0
 24 47  1  0
 24 48  1  0
 25 49  1  0
 25 50  1  0
 26 51  1  0
 26 52  1  0
M  END
>  <UniqueID>  (44) 
41

>  <SMILES>  (44) 
O=C(C1CCS(=O)(=O)CC1)N1CC[C@]2(CCCN(c3nncs3)CC2)C1

>  <Energy>  (44) 
95.9660944604387

>  <Genealogy>  (44) 
O=C(C1CCS(=O)(=O)CC1)N1CC[C@]2(CCCN(c3nncs3)CC2)C1 (chirality)
O=C(C1CCS(=O)(=O)CC1)N1CC[C@]2(CCCN(c3nncs3)CC2)C1 (3D coordinates assigned)
O=C(C1CCS(=O)(=O)CC1)N1CC[C@]2(CCCN(c3nncs3)CC2)C1 (nonaromatic ring conformer: 95.9660944604387 kcal/mol)

>  <smiles>  (44) 
O=C(C1CCS(=O)(=O)CC1)N1CCC2(CCCN(c3nncs3)CC2)C1

>  <score_type>  (44) 
oracle

>  <origin>  (44) 
adg

>  <m_score__min__energy>  (44) 
-7.3600000000000003

>  <m_primary>  (44) 
energy

$$$$
44:0
     RDKit          3D

 53 57  0  0  0  0  0  0  0  0999 V2000
   57.4300   32.0860   41.8710 C   0  0  0  0  0  0  0  0  0  0  0  0
   57.8940   32.2350   43.2890 C   0  0  0  0  0  0  0  0  0  0  0  0
   57.6680   31.2100   44.2190 C   0  0  0  0  0  0  0  0  0  0  0  0
   58.0680   31.3650   45.5500 C   0  0  0  0  0  0  0  0  0  0  0  0
   58.6880   32.5490   45.9670 C   0  0  0  0  0  0  0  0  0  0  0  0
   59.1600   32.7400   47.6530 S   0  0  0  0  0  0  0  0  0  0  0  0
   57.9550   33.0640   48.4930 O   0  0  0  0  0  0  0  0  0  0  0  0
   60.1410   33.8760   47.7600 O   0  0  0  0  0  0  0  0  0  0  0  0
   59.9000   31.2680   48.2210 N   0  0  0  0  0  0  0  0  0  0  0  0
   60.6810   30.5970   47.1290 C   0  0  0  0  0  0  0  0  0  0  0  0
   60.5790   29.0510   47.2480 C   0  0  1  0  0  0  0  0  0  0  0  0
   60.6350   28.6920   48.6690 N   0  0  0  0  0  0  0  0  0  0  0  0
   59.1820   28.9010   48.6770 C   0  0  1  0  0  0  0  0  0  0  0  0
   58.9080   30.4080   48.9470 C   0  0  0  0  0  0  0  0  0  0  0  0
   59.0920   28.7100   47.1630 C   0  0  2  0  0  0  0  0  0  0  0  0
   58.8230   27.2870   46.6970 C   0  0  0  0  0  0  0  0  0  0  0  0
   57.4920   26.8810   46.5110 C   0  0  0  0  0  0  0  0  0  0  0  0
   57.1930   25.5910   46.0660 C   0  0  0  0  0  0  0  0  0  0  0  0
   58.2200   24.6760   45.7840 C   0  0  0  0  0  0  0  0  0  0  0  0
   57.9040   23.3040   45.3080 C   0  0  0  0  0  0  0  0  0  0  0  0
   56.9390   22.5240   45.9670 C   0  0  0  0  0  0  0  0  0  0  0  0
   56.6560   21.2360   45.5050 C   0  0  0  0  0  0  0  0  0  0  0  0
   57.3080   20.7390   44.4200 N   0  0  0  0  0  0  0  0  0  0  0  0
   58.2460   21.4720   43.7610 C   0  0  0  0  0  0  0  0  0  0  0  0
   58.5600   22.7620   44.1910 C   0  0  0  0  0  0  0  0  0  0  0  0
   59.5550   25.0820   45.9560 C   0  0  0  0  0  0  0  0  0  0  0  0
   59.8540   26.3720   46.4040 C   0  0  0  0  0  0  0  0  0  0  0  0
   58.8920   33.5850   45.0450 C   0  0  0  0  0  0  0  0  0  0  0  0
   58.4940   33.4310   43.7140 C   0  0  0  0  0  0  0  0  0  0  0  0
   56.3827   31.7497   41.8613 H   0  0  0  0  0  0  0  0  0  0  0  0
   57.5088   33.0546   41.3557 H   0  0  0  0  0  0  0  0  0  0  0  0
   58.0580   31.3444   41.3557 H   0  0  0  0  0  0  0  0  0  0  0  0
   57.1741   30.2803   43.9002 H   0  0  0  0  0  0  0  0  0  0  0  0
   57.8948   30.5535   46.2721 H   0  0  0  0  0  0  0  0  0  0  0  0
   61.7369   30.8957   47.2049 H   0  0  0  0  0  0  0  0  0  0  0  0
   60.2652   30.9042   46.1581 H   0  0  0  0  0  0  0  0  0  0  0  0
   61.3053   28.6107   46.5490 H   0  0  0  0  0  0  0  0  0  0  0  0
   61.1620   29.3830   49.2570 H   0  0  0  0  0  0  0  0  0  0  0  0
   58.5522   28.3156   49.3631 H   0  0  0  0  0  0  0  0  0  0  0  0
   58.9858   30.6009   50.0272 H   0  0  0  0  0  0  0  0  0  0  0  0
   57.8981   30.6530   48.5862 H   0  0  0  0  0  0  0  0  0  0  0  0
   58.3537   29.2170   46.5244 H   0  0  0  0  0  0  0  0  0  0  0  0
   56.6746   27.5873   46.7182 H   0  0  0  0  0  0  0  0  0  0  0  0
   56.1433   25.2893   45.9353 H   0  0  0  0  0  0  0  0  0  0  0  0
   56.4085   22.9256   46.8430 H   0  0  0  0  0  0  0  0  0  0  0  0
   55.9031   20.6219   46.0208 H   0  0  0  0  0  0  0  0  0  0  0  0
   57.0860   19.7750   44.0860 H   0  0  0  0  0  0  0  0  0  0  0  0
   58.7588   21.0461   42.8860 H   0  0  0  0  0  0  0  0  0  0  0  0
   59.3189   23.3523   43.6566 H   0  0  0  0  0  0  0  0  0  0  0  0
   60.3714   24.3784   45.7361 H   0  0  0  0  0  0  0  0  0  0  0  0
   60.9038   26.6757   46.5290 H   0  0  0  0  0  0  0  0  0  0  0  0
   59.3669   34.5224   45.3701 H   0  0  0  0  0  0  0  0  0  0  0  0
   58.6515   34.2500   42.9968 H   0  0  0  0  0  0  0  0  0  0  0  0
  1  2  1  0
  2  3  2  0
  3  4  1  0
  4  5  2  0
  5  6  1  0
  6  7  2  0
  6  8  2  0
  6  9  1  0
  9 10  1  0
 10 11  1  0
 11 12  1  0
 12 13  1  0
 13 14  1  0
 13 15  1  0
 15 16  1  0
 16 17  2  0
 17 18  1  0
 18 19  2  0
 19 20  1  0
 20 21  2  0
 21 22  1  0
 22 23  2  0
 23 24  1  0
 24 25  2  0
 19 26  1  0
 26 27  2  0
  5 28  1  0
 28 29  2  0
 29  2  1  0
 14  9  1  0
 27 16  1  0
 15 11  1  0
 25 20  1  0
  1 30  1  0
  1 31  1  0
  1 32  1  0
  3 33  1  0
  4 34  1  0
 10 35  1  0
 10 36  1  0
 11 37  1  6
 12 38  1  0
 13 39  1  1
 14 40  1  0
 14 41  1  0
 15 42  1  6
 17 43  1  0
 18 44  1  0
 21 45  1  0
 22 46  1  0
 23 47  1  0
 24 48  1  0
 25 49  1  0
 26 50  1  0
 27 51  1  0
 28 52  1  0
 29 53  1  0
M  CHG  1  23   1
M  END
>  <UniqueID>  (45) 
42

>  <SMILES>  (45) 
Cc1ccc(S(=O)(=O)N2C[C@@H]3N[C@H](C2)C3c2ccc(-c3cc[nH+]cc3)cc2)cc1

>  <Energy>  (45) 
166.58072125995307

>  <Genealogy>  (45) 
Cc1ccc(S(=O)(=O)N2CC3NC(C2)C3c2ccc(-c3cc[nH+]cc3)cc2)cc1 (protonated)
Cc1ccc(S(=O)(=O)N2C[C@@H]3N[C@H](C2)C3c2ccc(-c3cc[nH+]cc3)cc2)cc1 (chirality)
Cc1ccc(S(=O)(=O)N2C[C@@H]3N[C@H](C2)C3c2ccc(-c3cc[nH+]cc3)cc2)cc1 (3D coordinates assigned)
Cc1ccc(S(=O)(=O)N2C[C@@H]3N[C@H](C2)C3c2ccc(-c3cc[nH+]cc3)cc2)cc1 (nonaromatic ring conformer: 166.58072125995307 kcal/mol)

>  <smiles>  (45) 
Cc1ccc(S(=O)(=O)N2CC3NC(C2)C3c2ccc(-c3ccncc3)cc2)cc1

>  <score_type>  (45) 
oracle

>  <origin>  (45) 
adg

>  <m_score__min__energy>  (45) 
-8.6500000000000004

>  <m_primary>  (45) 
energy

$$$$
45:0
     RDKit          3D

 16 17  0  0  0  0  0  0  0  0999 V2000
   59.0030   25.3940   46.5690 O   0  0  0  0  0  0  0  0  0  0  0  0
   58.2130   26.2830   46.1530 C   0  0  0  0  0  0  0  0  0  0  0  0
   56.8760   26.1640   46.3800 N   0  0  0  0  0  0  0  0  0  0  0  0
   56.0110   27.0870   45.9530 N   0  0  0  0  0  0  0  0  0  0  0  0
   56.4240   28.1860   45.2730 C   0  0  0  0  0  0  0  0  0  0  0  0
   55.5160   29.1080   44.8530 N   0  0  0  0  0  0  0  0  0  0  0  0
   55.8930   30.2190   44.1690 C   0  0  0  0  0  0  0  0  0  0  0  0
   57.2430   30.4430   43.8790 C   0  0  0  0  0  0  0  0  0  0  0  0
   57.7760   32.0040   42.9180 Br  0  0  0  0  0  0  0  0  0  0  0  0
   58.1970   29.5120   44.3000 C   0  0  0  0  0  0  0  0  0  0  0  0
   57.7940   28.3670   45.0050 C   0  0  0  0  0  0  0  0  0  0  0  0
   58.7010   27.3960   45.4550 C   0  0  0  0  0  0  0  0  0  0  0  0
   59.9380   27.5150   45.2390 O   0  0  0  0  0  0  0  0  0  0  0  0
   56.5110   25.3340   46.9000 H   0  0  0  0  0  0  0  0  0  0  0  0
   55.1342   30.9452   43.8419 H   0  0  0  0  0  0  0  0  0  0  0  0
   59.2620   29.6764   44.0791 H   0  0  0  0  0  0  0  0  0  0  0  0
  1  2  2  0
  2  3  1  0
  3  4  1  0
  4  5  1  0
  5  6  2  0
  6  7  1  0
  7  8  2  0
  8  9  1  0
  8 10  1  0
 10 11  2  0
 11 12  1  0
 12 13  2  0
 12  2  1  0
 11  5  1  0
  3 14  1  0
  7 15  1  0
 10 16  1  0
M  CHG  1   4  -1
M  END
>  <UniqueID>  (46) 
43

>  <SMILES>  (46) 
O=c1[nH][n-]c2ncc(Br)cc2c1=O

>  <Energy>  (46) 
22.623352726492072

>  <Genealogy>  (46) 
O=c1[nH][n-]c2ncc(Br)cc2c1=O (protonated)
O=c1[nH][n-]c2ncc(Br)cc2c1=O (3D coordinates assigned)
O=c1[nH][n-]c2ncc(Br)cc2c1=O (optimized conformer: 22.623352726492072 kcal/mol)

>  <smiles>  (46) 
O=c1[nH][nH]c2ncc(Br)cc2c1=O

>  <score_type>  (46) 
oracle

>  <origin>  (46) 
adg

>  <m_score__min__energy>  (46) 
-7.4100000000000001

>  <m_primary>  (46) 
energy

$$$$
46:0
     RDKit          3D

 41 43  0  0  0  0  0  0  0  0999 V2000
   63.1830   33.5020   46.7960 C   0  0  0  0  0  0  0  0  0  0  0  0
   61.7540   33.5100   47.2640 C   0  0  0  0  0  0  0  0  0  0  0  0
   60.7290   33.1130   46.3890 C   0  0  0  0  0  0  0  0  0  0  0  0
   59.3880   33.1070   46.8110 C   0  0  0  0  0  0  0  0  0  0  0  0
   58.3460   32.7140   45.9590 O   0  0  0  0  0  0  0  0  0  0  0  0
   58.0840   31.3930   45.5650 C   0  0  0  0  0  0  0  0  0  0  0  0
   57.4030   31.0980   44.3720 C   0  0  0  0  0  0  0  0  0  0  0  0
   57.1630   29.7720   44.0060 C   0  0  0  0  0  0  0  0  0  0  0  0
   57.5970   28.7170   44.8280 C   0  0  0  0  0  0  0  0  0  0  0  0
   57.3960   27.3410   44.4600 N   0  0  0  0  0  0  0  0  0  0  0  0
   56.9520   26.1070   45.5960 S   0  0  0  0  0  0  0  0  0  0  0  0
   57.8330   26.2060   46.8090 O   0  0  0  0  0  0  0  0  0  0  0  0
   55.5220   26.3200   46.0100 O   0  0  0  0  0  0  0  0  0  0  0  0
   57.1800   24.5190   44.8600 C   0  0  0  0  0  0  0  0  0  0  0  0
   56.2260   24.0470   43.9470 C   0  0  0  0  0  0  0  0  0  0  0  0
   56.3620   22.7790   43.3750 C   0  0  0  0  0  0  0  0  0  0  0  0
   57.4540   21.9740   43.7090 C   0  0  0  0  0  0  0  0  0  0  0  0
   58.4140   22.4390   44.6130 C   0  0  0  0  0  0  0  0  0  0  0  0
   58.2850   23.7080   45.1860 C   0  0  0  0  0  0  0  0  0  0  0  0
   59.2360   24.1390   46.0520 F   0  0  0  0  0  0  0  0  0  0  0  0
   58.2380   29.0180   46.0390 C   0  0  0  0  0  0  0  0  0  0  0  0
   58.4750   30.3460   46.4050 C   0  0  0  0  0  0  0  0  0  0  0  0
   59.0820   33.4610   48.1290 C   0  0  0  0  0  0  0  0  0  0  0  0
   60.0930   33.8490   49.0090 C   0  0  0  0  0  0  0  0  0  0  0  0
   61.4270   33.8790   48.5860 C   0  0  0  0  0  0  0  0  0  0  0  0
   62.6640   34.3700   49.7380 Cl  0  0  0  0  0  0  0  0  0  0  0  0
   63.8542   33.4982   47.6675 H   0  0  0  0  0  0  0  0  0  0  0  0
   63.3650   32.6028   46.1891 H   0  0  0  0  0  0  0  0  0  0  0  0
   63.3751   34.3991   46.1891 H   0  0  0  0  0  0  0  0  0  0  0  0
   60.9783   32.8037   45.3632 H   0  0  0  0  0  0  0  0  0  0  0  0
   57.0571   31.9159   43.7229 H   0  0  0  0  0  0  0  0  0  0  0  0
   56.6311   29.5514   43.0688 H   0  0  0  0  0  0  0  0  0  0  0  0
   57.3760   27.0840   43.4470 H   0  0  0  0  0  0  0  0  0  0  0  0
   55.3658   24.6783   43.6795 H   0  0  0  0  0  0  0  0  0  0  0  0
   55.6086   22.4145   42.6612 H   0  0  0  0  0  0  0  0  0  0  0  0
   57.5585   20.9748   43.2610 H   0  0  0  0  0  0  0  0  0  0  0  0
   59.2736   21.8044   44.8743 H   0  0  0  0  0  0  0  0  0  0  0  0
   58.5565   28.2029   46.7055 H   0  0  0  0  0  0  0  0  0  0  0  0
   58.9725   30.5689   47.3604 H   0  0  0  0  0  0  0  0  0  0  0  0
   58.0379   33.4334   48.4740 H   0  0  0  0  0  0  0  0  0  0  0  0
   59.8402   34.1330   50.0412 H   0  0  0  0  0  0  0  0  0  0  0  0
  1  2  1  0
  2  3  2  0
  3  4  1  0
  4  5  1  0
  5  6  1  0
  6  7  2  0
  7  8  1  0
  8  9  2  0
  9 10  1  0
 10 11  1  0
 11 12  2  0
 11 13  2  0
 11 14  1  0
 14 15  2  0
 15 16  1  0
 16 17  2  0
 17 18  1  0
 18 19  2  0
 19 20  1  0
  9 21  1  0
 21 22  2  0
  4 23  2  0
 23 24  1  0
 24 25  2  0
 25 26  1  0
 25  2  1  0
 22  6  1  0
 19 14  1  0
  1 27  1  0
  1 28  1  0
  1 29  1  0
  3 30  1  0
  7 31  1  0
  8 32  1  0
 10 33  1  0
 15 34  1  0
 16 35  1  0
 17 36  1  0
 18 37  1  0
 21 38  1  0
 22 39  1  0
 23 40  1  0
 24 41  1  0
M  END
>  <UniqueID>  (47) 
44

>  <SMILES>  (47) 
Cc1cc(Oc2ccc(NS(=O)(=O)c3ccccc3F)cc2)ccc1Cl

>  <Energy>  (47) 
53.75388402276208

>  <Genealogy>  (47) 
Cc1cc(Oc2ccc(NS(=O)(=O)c3ccccc3F)cc2)ccc1Cl (3D coordinates assigned)
Cc1cc(Oc2ccc(NS(=O)(=O)c3ccccc3F)cc2)ccc1Cl (optimized conformer: 53.75388402276208 kcal/mol)

>  <smiles>  (47) 
Cc1cc(Oc2ccc(NS(=O)(=O)c3ccccc3F)cc2)ccc1Cl

>  <score_type>  (47) 
oracle

>  <origin>  (47) 
adg

>  <m_score__min__energy>  (47) 
-9.3699999999999992

>  <m_primary>  (47) 
energy

$$$$
47:0
     RDKit          3D

 36 37  0  0  0  0  0  0  0  0999 V2000
   59.4680   29.5130   49.6150 C   0  0  0  0  0  0  0  0  0  0  0  0
   59.2270   28.5000   48.6430 O   0  0  0  0  0  0  0  0  0  0  0  0
   59.2660   28.7080   47.2570 C   0  0  0  0  0  0  0  0  0  0  0  0
   60.4020   28.4070   46.4800 C   0  0  0  0  0  0  0  0  0  0  0  0
   60.3920   28.6350   45.1020 C   0  0  0  0  0  0  0  0  0  0  0  0
   59.2530   29.1600   44.4850 C   0  0  0  0  0  0  0  0  0  0  0  0
   58.1160   29.4580   45.2460 C   0  0  0  0  0  0  0  0  0  0  0  0
   56.6810   30.1080   44.4600 S   0  0  0  0  0  0  0  0  0  0  0  0
   55.4800   29.3550   44.9590 O   0  0  0  0  0  0  0  0  0  0  0  0
   56.7820   29.9280   42.9690 O   0  0  0  0  0  0  0  0  0  0  0  0
   56.4970   31.7950   44.8630 N   0  0  0  0  0  0  0  0  0  0  0  0
   57.7350   32.3980   45.3690 C   0  0  0  0  0  0  0  0  0  0  0  0
   57.4910   33.1290   46.7040 C   0  0  0  0  0  0  0  0  0  0  0  0
   58.7870   33.7470   47.2700 C   0  0  0  0  0  0  0  0  0  0  0  0
   59.8230   34.1050   46.1880 C   0  0  0  0  0  0  0  0  0  0  0  0
   59.1460   34.5160   44.8800 C   0  0  0  0  0  0  0  0  0  0  0  0
   58.2760   33.3810   44.3020 C   0  0  0  0  0  0  0  0  0  0  0  0
   58.1300   29.2350   46.6300 C   0  0  0  0  0  0  0  0  0  0  0  0
   59.3662   29.0853   50.6233 H   0  0  0  0  0  0  0  0  0  0  0  0
   60.4857   29.9101   49.4861 H   0  0  0  0  0  0  0  0  0  0  0  0
   58.7382   30.3259   49.4861 H   0  0  0  0  0  0  0  0  0  0  0  0
   61.3000   27.9910   46.9602 H   0  0  0  0  0  0  0  0  0  0  0  0
   61.2829   28.4008   44.5008 H   0  0  0  0  0  0  0  0  0  0  0  0
   59.2498   29.3394   43.3997 H   0  0  0  0  0  0  0  0  0  0  0  0
   58.4750   31.6067   45.5594 H   0  0  0  0  0  0  0  0  0  0  0  0
   56.7568   33.9316   46.5404 H   0  0  0  0  0  0  0  0  0  0  0  0
   57.1198   32.3925   47.4318 H   0  0  0  0  0  0  0  0  0  0  0  0
   58.5246   34.6644   47.8174 H   0  0  0  0  0  0  0  0  0  0  0  0
   59.2484   32.9893   47.9204 H   0  0  0  0  0  0  0  0  0  0  0  0
   60.4422   34.9399   46.5480 H   0  0  0  0  0  0  0  0  0  0  0  0
   60.4406   33.2159   45.9931 H   0  0  0  0  0  0  0  0  0  0  0  0
   58.5081   35.3919   45.0695 H   0  0  0  0  0  0  0  0  0  0  0  0
   59.9326   34.7497   44.1475 H   0  0  0  0  0  0  0  0  0  0  0  0
   57.4188   33.8328   43.7814 H   0  0  0  0  0  0  0  0  0  0  0  0
   58.9203   32.7971   43.6282 H   0  0  0  0  0  0  0  0  0  0  0  0
   57.2398   29.4764   47.2295 H   0  0  0  0  0  0  0  0  0  0  0  0
  1  2  1  0
  2  3  1  0
  3  4  2  0
  4  5  1  0
  5  6  2  0
  6  7  1  0
  7  8  1  0
  8  9  2  0
  8 10  2  0
  8 11  1  0
 11 12  1  0
 12 13  1  0
 13 14  1  0
 14 15  1  0
 15 16  1  0
 16 17  1  0
  7 18  2  0
 18  3  1  0
 17 12  1  0
  1 19  1  0
  1 20  1  0
  1 21  1  0
  4 22  1  0
  5 23  1  0
  6 24  1  0
 12 25  1  0
 13 26  1  0
 13 27  1  0
 14 28  1  0
 14 29  1  0
 15 30  1  0
 15 31  1  0
 16 32  1  0
 16 33  1  0
 17 34  1  0
 17 35  1  0
 18 36  1  0
M  CHG  1  11  -1
M  END
>  <UniqueID>  (48) 
45

>  <SMILES>  (48) 
COc1cccc(S(=O)(=O)[N-]C2CCCCC2)c1

>  <Energy>  (48) 
36.303913353171076

>  <Genealogy>  (48) 
COc1cccc(S(=O)(=O)[N-]C2CCCCC2)c1 (protonated)
COc1cccc(S(=O)(=O)[N-]C2CCCCC2)c1 (3D coordinates assigned)
COc1cccc(S(=O)(=O)[N-]C2CCCCC2)c1 (nonaromatic ring conformer: 36.303913353171076 kcal/mol)

>  <smiles>  (48) 
COc1cccc(S(=O)(=O)NC2CCCCC2)c1

>  <score_type>  (48) 
oracle

>  <origin>  (48) 
adg

>  <m_score__min__energy>  (48) 
-8.4499999999999993

>  <m_primary>  (48) 
energy

$$$$
48:0
     RDKit          3D

 27 29  0  0  0  0  0  0  0  0999 V2000
   55.1460   29.7220   43.8240 O   0  0  0  0  0  0  0  0  0  0  0  0
   56.0990   30.2000   44.4920 C   0  0  0  0  0  0  0  0  0  0  0  0
   56.9120   29.3540   45.2500 C   0  0  0  0  0  0  0  0  0  0  0  0
   57.9770   29.8950   45.9810 C   0  0  0  0  0  0  0  0  0  0  0  0
   58.8550   28.9740   46.7400 C   0  0  0  0  0  0  0  0  0  0  0  0
   59.5530   27.9500   46.0800 C   0  0  0  0  0  0  0  0  0  0  0  0
   60.3640   27.0710   46.8030 C   0  0  0  0  0  0  0  0  0  0  0  0
   60.4740   27.2000   48.1910 C   0  0  0  0  0  0  0  0  0  0  0  0
   61.2590   26.3460   48.8910 F   0  0  0  0  0  0  0  0  0  0  0  0
   59.7700   28.2090   48.8570 C   0  0  0  0  0  0  0  0  0  0  0  0
   58.9590   29.0910   48.1370 C   0  0  0  0  0  0  0  0  0  0  0  0
   58.1820   31.2940   45.9490 C   0  0  0  0  0  0  0  0  0  0  0  0
   59.1900   31.9370   46.6970 C   0  0  0  0  0  0  0  0  0  0  0  0
   59.3470   33.3250   46.6220 C   0  0  0  0  0  0  0  0  0  0  0  0
   60.6090   34.1160   47.5500 Cl  0  0  0  0  0  0  0  0  0  0  0  0
   58.4980   34.0860   45.8140 C   0  0  0  0  0  0  0  0  0  0  0  0
   57.4820   33.4650   45.0840 C   0  0  0  0  0  0  0  0  0  0  0  0
   57.3130   32.0780   45.1520 C   0  0  0  0  0  0  0  0  0  0  0  0
   56.3270   31.5080   44.4670 O   0  0  0  0  0  0  0  0  0  0  0  0
   56.7173   28.2716   45.2726 H   0  0  0  0  0  0  0  0  0  0  0  0
   59.4611   27.8392   44.9895 H   0  0  0  0  0  0  0  0  0  0  0  0
   60.9164   26.2767   46.2796 H   0  0  0  0  0  0  0  0  0  0  0  0
   59.8548   28.3085   49.9492 H   0  0  0  0  0  0  0  0  0  0  0  0
   58.4009   29.8784   48.6648 H   0  0  0  0  0  0  0  0  0  0  0  0
   59.8555   31.3446   47.3421 H   0  0  0  0  0  0  0  0  0  0  0  0
   58.6301   35.1763   45.7528 H   0  0  0  0  0  0  0  0  0  0  0  0
   56.8125   34.0686   44.4535 H   0  0  0  0  0  0  0  0  0  0  0  0
  1  2  2  0
  2  3  1  0
  3  4  2  0
  4  5  1  0
  5  6  2  0
  6  7  1  0
  7  8  2  0
  8  9  1  0
  8 10  1  0
 10 11  2  0
  4 12  1  0
 12 13  2  0
 13 14  1  0
 14 15  1  0
 14 16  2  0
 16 17  1  0
 17 18  2  0
 18 19  1  0
 19  2  1  0
 11  5  1  0
 18 12  1  0
  3 20  1  0
  6 21  1  0
  7 22  1  0
 10 23  1  0
 11 24  1  0
 13 25  1  0
 16 26  1  0
 17 27  1  0
M  END
>  <UniqueID>  (49) 
46

>  <SMILES>  (49) 
O=c1cc(-c2ccc(F)cc2)c2cc(Cl)ccc2o1

>  <Energy>  (49) 
42.459699228758005

>  <Genealogy>  (49) 
O=c1cc(-c2ccc(F)cc2)c2cc(Cl)ccc2o1 (3D coordinates assigned)
O=c1cc(-c2ccc(F)cc2)c2cc(Cl)ccc2o1 (optimized conformer: 42.459699228758005 kcal/mol)

>  <smiles>  (49) 
O=c1cc(-c2ccc(F)cc2)c2cc(Cl)ccc2o1

>  <score_type>  (49) 
oracle

>  <origin>  (49) 
adg

>  <m_score__min__energy>  (49) 
-6.8799999999999999

>  <m_primary>  (49) 
energy

$$$$
49:0
     RDKit          3D

 60 64  0  0  0  0  0  0  0  0999 V2000
   55.1110   29.8940   53.5620 C   0  0  0  0  0  0  0  0  0  0  0  0
   56.2340   30.2680   52.6400 C   0  0  0  0  0  0  0  0  0  0  0  0
   57.3060   29.3850   52.4210 C   0  0  0  0  0  0  0  0  0  0  0  0
   58.3890   29.7780   51.6240 C   0  0  0  0  0  0  0  0  0  0  0  0
   58.4170   31.0580   51.0380 C   0  0  0  0  0  0  0  0  0  0  0  0
   59.5280   31.4840   50.2230 N   0  0  0  0  0  0  0  0  0  0  0  0
   59.8390   30.7390   49.1630 N   0  0  0  0  0  0  0  0  0  0  0  0
   60.8370   31.0520   48.2980 C   0  0  0  0  0  0  0  0  0  0  0  0
   61.0400   30.1180   47.1240 C   0  0  0  0  0  0  0  0  0  0  0  0
   60.3430   28.8360   47.3180 N   0  0  0  0  0  0  0  0  0  0  0  0
   59.4220   28.5560   46.2420 C   0  0  0  0  0  0  0  0  0  0  0  0
   59.2290   27.2390   45.7910 C   0  0  0  0  0  0  0  0  0  0  0  0
   58.3070   26.9710   44.7740 C   0  0  0  0  0  0  0  0  0  0  0  0
   57.5770   28.0110   44.1930 C   0  0  0  0  0  0  0  0  0  0  0  0
   57.7810   29.3340   44.6120 C   0  0  0  0  0  0  0  0  0  0  0  0
   56.8510   30.6580   43.9110 S   0  0  0  0  0  0  0  0  0  0  0  0
   57.5560   31.2370   42.7170 O   0  0  0  0  0  0  0  0  0  0  0  0
   55.5220   30.1280   43.4540 O   0  0  0  0  0  0  0  0  0  0  0  0
   56.5790   31.8960   45.0940 N   0  0  0  0  0  0  0  0  0  0  0  0
   57.5620   32.8360   45.5590 C   0  0  0  0  0  0  0  0  0  0  0  0
   57.7820   32.9400   46.9410 C   0  0  0  0  0  0  0  0  0  0  0  0
   58.7430   33.8260   47.4410 C   0  0  0  0  0  0  0  0  0  0  0  0
   59.4940   34.6100   46.5630 C   0  0  0  0  0  0  0  0  0  0  0  0
   59.2610   34.5360   45.1850 C   0  0  0  0  0  0  0  0  0  0  0  0
   58.2980   33.6590   44.6800 C   0  0  0  0  0  0  0  0  0  0  0  0
   58.7050   29.6010   45.6300 C   0  0  0  0  0  0  0  0  0  0  0  0
   61.5710   32.2410   48.5050 C   0  0  0  0  0  0  0  0  0  0  0  0
   62.5780   32.6850   47.6190 C   0  0  0  0  0  0  0  0  0  0  0  0
   63.2950   33.8490   47.8900 C   0  0  0  0  0  0  0  0  0  0  0  0
   63.0210   34.5940   49.0340 C   0  0  0  0  0  0  0  0  0  0  0  0
   62.0070   34.2000   49.8950 C   0  0  0  0  0  0  0  0  0  0  0  0
   61.2660   33.0290   49.6420 C   0  0  0  0  0  0  0  0  0  0  0  0
   60.2170   32.6360   50.4880 C   0  0  0  0  0  0  0  0  0  0  0  0
   59.8940   33.3590   51.4720 O   0  0  0  0  0  0  0  0  0  0  0  0
   57.3290   31.9230   51.2350 C   0  0  0  0  0  0  0  0  0  0  0  0
   56.2540   31.5380   52.0430 C   0  0  0  0  0  0  0  0  0  0  0  0
   55.4412   30.0040   54.6055 H   0  0  0  0  0  0  0  0  0  0  0  0
   54.2504   30.5540   53.3782 H   0  0  0  0  0  0  0  0  0  0  0  0
   54.8180   28.8498   53.3782 H   0  0  0  0  0  0  0  0  0  0  0  0
   57.2943   28.3837   52.8763 H   0  0  0  0  0  0  0  0  0  0  0  0
   59.2235   29.0816   51.4548 H   0  0  0  0  0  0  0  0  0  0  0  0
   60.6522   30.6000   46.2144 H   0  0  0  0  0  0  0  0  0  0  0  0
   62.1167   29.9114   47.0338 H   0  0  0  0  0  0  0  0  0  0  0  0
   61.0580   28.0720   47.3750 H   0  0  0  0  0  0  0  0  0  0  0  0
   59.8390   28.8500   48.2340 H   0  0  0  0  0  0  0  0  0  0  0  0
   59.8051   26.4161   46.2394 H   0  0  0  0  0  0  0  0  0  0  0  0
   58.1560   25.9371   44.4301 H   0  0  0  0  0  0  0  0  0  0  0  0
   56.8409   27.7919   43.4055 H   0  0  0  0  0  0  0  0  0  0  0  0
   57.1953   32.3211   47.6358 H   0  0  0  0  0  0  0  0  0  0  0  0
   58.9067   33.9048   48.5259 H   0  0  0  0  0  0  0  0  0  0  0  0
   60.2687   35.2858   46.9543 H   0  0  0  0  0  0  0  0  0  0  0  0
   59.8384   35.1709   44.4969 H   0  0  0  0  0  0  0  0  0  0  0  0
   58.1133   33.6099   43.5967 H   0  0  0  0  0  0  0  0  0  0  0  0
   58.8721   30.6386   45.9547 H   0  0  0  0  0  0  0  0  0  0  0  0
   62.7977   32.1078   46.7087 H   0  0  0  0  0  0  0  0  0  0  0  0
   64.0816   34.1809   47.1964 H   0  0  0  0  0  0  0  0  0  0  0  0
   63.6096   35.4965   49.2555 H   0  0  0  0  0  0  0  0  0  0  0  0
   61.7796   34.8076   50.7833 H   0  0  0  0  0  0  0  0  0  0  0  0
   57.3218   32.9105   50.7505 H   0  0  0  0  0  0  0  0  0  0  0  0
   55.4195   32.2346   52.2114 H   0  0  0  0  0  0  0  0  0  0  0  0
  1  2  1  0
  2  3  2  0
  3  4  1  0
  4  5  2  0
  5  6  1  0
  6  7  1  0
  7  8  2  0
  8  9  1  0
  9 10  1  0
 10 11  1  0
 11 12  2  0
 12 13  1  0
 13 14  2  0
 14 15  1  0
 15 16  1  0
 16 17  2  0
 16 18  2  0
 16 19  1  0
 19 20  1  0
 20 21  2  0
 21 22  1  0
 22 23  2  0
 23 24  1  0
 24 25  2  0
 15 26  2  0
  8 27  1  0
 27 28  2  0
 28 29  1  0
 29 30  2  0
 30 31  1  0
 31 32  2  0
 32 33  1  0
 33 34  2  0
  5 35  1  0
 35 36  2  0
 36  2  1  0
 33  6  1  0
 26 11  1  0
 32 27  1  0
 25 20  1  0
  1 37  1  0
  1 38  1  0
  1 39  1  0
  3 40  1  0
  4 41  1  0
  9 42  1  0
  9 43  1  0
 10 44  1  0
 10 45  1  0
 12 46  1  0
 13 47  1  0
 14 48  1  0
 21 49  1  0
 22 50  1  0
 23 51  1  0
 24 52  1  0
 25 53  1  0
 26 54  1  0
 28 55  1  0
 29 56  1  0
 30 57  1  0
 31 58  1  0
 35 59  1  0
 36 60  1  0
M  CHG  2  10   1  19  -1
M  END
>  <UniqueID>  (50) 
47

>  <SMILES>  (50) 
Cc1ccc(-n2nc(C[NH2+]c3cccc(S(=O)(=O)[N-]c4ccccc4)c3)c3ccccc3c2=O)cc1

>  <Energy>  (50) 
79.98211452337496

>  <Genealogy>  (50) 
Cc1ccc(-n2nc(C[NH2+]c3cccc(S(=O)(=O)[N-]c4ccccc4)c3)c3ccccc3c2=O)cc1 (protonated)
Cc1ccc(-n2nc(C[NH2+]c3cccc(S(=O)(=O)[N-]c4ccccc4)c3)c3ccccc3c2=O)cc1 (3D coordinates assigned)
Cc1ccc(-n2nc(C[NH2+]c3cccc(S(=O)(=O)[N-]c4ccccc4)c3)c3ccccc3c2=O)cc1 (optimized conformer: 79.98211452337496 kcal/mol)

>  <smiles>  (50) 
Cc1ccc(-n2nc(CNc3cccc(S(=O)(=O)Nc4ccccc4)c3)c3ccccc3c2=O)cc1

>  <score_type>  (50) 
oracle

>  <origin>  (50) 
adg

>  <m_score__min__energy>  (50) 
-11.220000000000001

>  <m_primary>  (50) 
energy

$$$$
50:0
     RDKit          3D

 28 30  0  0  0  0  0  0  0  0999 V2000
   55.2710   29.7170   44.6810 O   0  0  0  0  0  0  0  0  0  0  0  0
   56.1320   30.4600   44.1420 C   0  0  0  0  0  0  0  0  0  0  0  0
   57.3830   30.8090   44.8410 C   0  0  0  0  0  0  0  0  0  0  0  0
   58.2890   29.9210   45.4380 C   0  0  0  0  0  0  0  0  0  0  0  0
   58.2390   28.4440   45.3990 C   0  0  0  0  0  0  0  0  0  0  0  0
   58.2080   27.7770   44.1630 C   0  0  0  0  0  0  0  0  0  0  0  0
   58.1400   26.3810   44.1150 C   0  0  0  0  0  0  0  0  0  0  0  0
   58.0900   25.6420   45.3000 C   0  0  0  0  0  0  0  0  0  0  0  0
   58.1010   26.2970   46.5340 C   0  0  0  0  0  0  0  0  0  0  0  0
   58.1700   27.6930   46.5850 C   0  0  0  0  0  0  0  0  0  0  0  0
   59.2680   30.6040   46.0780 N   0  0  0  0  0  0  0  0  0  0  0  0
   59.0030   31.9060   45.8850 C   0  0  0  0  0  0  0  0  0  0  0  0
   59.7400   32.9900   46.3630 C   0  0  0  0  0  0  0  0  0  0  0  0
   59.2800   34.2830   46.0610 C   0  0  0  0  0  0  0  0  0  0  0  0
   58.1060   34.4630   45.3000 C   0  0  0  0  0  0  0  0  0  0  0  0
   57.3810   33.3520   44.8310 C   0  0  0  0  0  0  0  0  0  0  0  0
   57.8640   32.0760   45.1380 C   0  0  0  0  0  0  0  0  0  0  0  0
   55.9484   30.8559   43.1323 H   0  0  0  0  0  0  0  0  0  0  0  0
   58.2374   28.3558   43.2281 H   0  0  0  0  0  0  0  0  0  0  0  0
   58.1259   25.8644   43.1440 H   0  0  0  0  0  0  0  0  0  0  0  0
   58.0419   24.5437   45.2612 H   0  0  0  0  0  0  0  0  0  0  0  0
   58.0554   25.7145   47.4660 H   0  0  0  0  0  0  0  0  0  0  0  0
   58.1703   28.2057   47.5582 H   0  0  0  0  0  0  0  0  0  0  0  0
   60.0780   30.2020   46.6020 H   0  0  0  0  0  0  0  0  0  0  0  0
   60.6527   32.8372   46.9577 H   0  0  0  0  0  0  0  0  0  0  0  0
   59.8387   35.1599   46.4201 H   0  0  0  0  0  0  0  0  0  0  0  0
   57.7545   35.4799   45.0714 H   0  0  0  0  0  0  0  0  0  0  0  0
   56.4621   33.4832   44.2407 H   0  0  0  0  0  0  0  0  0  0  0  0
  1  2  2  0
  2  3  1  0
  3  4  2  0
  4  5  1  0
  5  6  2  0
  6  7  1  0
  7  8  2  0
  8  9  1  0
  9 10  2  0
  4 11  1  0
 11 12  1  0
 12 13  2  0
 13 14  1  0
 14 15  2  0
 15 16  1  0
 16 17  2  0
 17  3  1  0
 10  5  1  0
 17 12  1  0
  2 18  1  0
  6 19  1  0
  7 20  1  0
  8 21  1  0
  9 22  1  0
 10 23  1  0
 11 24  1  0
 13 25  1  0
 14 26  1  0
 15 27  1  0
 16 28  1  0
M  END
>  <UniqueID>  (51) 
48

>  <SMILES>  (51) 
O=Cc1c(-c2ccccc2)[nH]c2ccccc12

>  <Energy>  (51) 
69.4303006734487

>  <Genealogy>  (51) 
O=Cc1c(-c2ccccc2)[nH]c2ccccc12 (3D coordinates assigned)
O=Cc1c(-c2ccccc2)[nH]c2ccccc12 (optimized conformer: 69.4303006734487 kcal/mol)

>  <smiles>  (51) 
O=Cc1c(-c2ccccc2)[nH]c2ccccc12

>  <score_type>  (51) 
oracle

>  <origin>  (51) 
adg

>  <m_score__min__energy>  (51) 
-6.7300000000000004

>  <m_primary>  (51) 
energy

$$$$
51:0
     RDKit          3D

 50 52  0  0  0  0  0  0  0  0999 V2000
   55.4970   30.0400   44.3600 C   0  0  0  0  0  0  0  0  0  0  0  0
   56.9380   30.1290   44.0750 N   0  0  0  0  0  0  0  0  0  0  0  0
   57.4100   28.8450   43.5250 C   0  0  0  0  0  0  0  0  0  0  0  0
   57.2170   31.2370   43.1360 C   0  0  0  0  0  0  0  0  0  0  0  0
   58.0430   32.3310   43.8210 C   0  0  0  0  0  0  0  0  0  0  0  0
   58.6780   31.8100   45.0360 N   0  0  0  0  0  0  0  0  0  0  0  0
   59.2550   33.1290   46.0120 S   0  0  0  0  0  0  0  0  0  0  0  0
   59.2970   34.3820   45.1810 O   0  0  0  0  0  0  0  0  0  0  0  0
   58.3080   33.3550   47.1560 O   0  0  0  0  0  0  0  0  0  0  0  0
   60.8700   32.7720   46.6530 C   0  0  0  0  0  0  0  0  0  0  0  0
   61.7970   33.8220   46.7660 C   0  0  0  0  0  0  0  0  0  0  0  0
   63.0890   33.5850   47.2360 C   0  0  0  0  0  0  0  0  0  0  0  0
   63.4740   32.2960   47.6010 C   0  0  0  0  0  0  0  0  0  0  0  0
   62.5660   31.2410   47.5020 C   0  0  0  0  0  0  0  0  0  0  0  0
   61.2590   31.4630   47.0360 C   0  0  0  0  0  0  0  0  0  0  0  0
   60.3370   30.3090   46.9590 C   0  0  0  0  0  0  0  0  0  0  0  0
   59.2880   30.1790   47.8800 C   0  0  0  0  0  0  0  0  0  0  0  0
   58.4160   29.0910   47.8090 C   0  0  0  0  0  0  0  0  0  0  0  0
   58.5860   28.1030   46.8240 C   0  0  0  0  0  0  0  0  0  0  0  0
   57.6510   26.9550   46.7590 C   0  0  0  0  0  0  0  0  0  0  0  0
   57.9530   25.7320   47.3760 C   0  0  0  0  0  0  0  0  0  0  0  0
   57.0840   24.6920   47.2930 N   0  0  0  0  0  0  0  0  0  0  0  0
   55.9110   24.8120   46.6160 C   0  0  0  0  0  0  0  0  0  0  0  0
   55.0930   23.8120   46.5480 N   0  0  0  0  0  0  0  0  0  0  0  0
   55.5970   25.9830   46.0060 N   0  0  0  0  0  0  0  0  0  0  0  0
   56.4390   27.0480   46.0600 C   0  0  0  0  0  0  0  0  0  0  0  0
   59.6640   28.2150   45.9230 C   0  0  0  0  0  0  0  0  0  0  0  0
   59.8990   27.2470   45.0000 F   0  0  0  0  0  0  0  0  0  0  0  0
   60.5360   29.3060   45.9980 C   0  0  0  0  0  0  0  0  0  0  0  0
   61.5830   29.3830   45.1380 F   0  0  0  0  0  0  0  0  0  0  0  0
   55.3384   30.0302   45.4485 H   0  0  0  0  0  0  0  0  0  0  0  0
   54.9824   30.9081   43.9223 H   0  0  0  0  0  0  0  0  0  0  0  0
   55.0931   29.1152   43.9223 H   0  0  0  0  0  0  0  0  0  0  0  0
   57.6609   28.1626   44.3505 H   0  0  0  0  0  0  0  0  0  0  0  0
   56.6176   28.3974   42.9071 H   0  0  0  0  0  0  0  0  0  0  0  0
   58.3036   29.0171   42.9071 H   0  0  0  0  0  0  0  0  0  0  0  0
   57.7779   30.8473   42.2738 H   0  0  0  0  0  0  0  0  0  0  0  0
   56.2614   31.6697   42.8049 H   0  0  0  0  0  0  0  0  0  0  0  0
   58.8214   32.6840   43.1285 H   0  0  0  0  0  0  0  0  0  0  0  0
   57.3757   33.1610   44.0962 H   0  0  0  0  0  0  0  0  0  0  0  0
   57.9480   31.3210   45.6030 H   0  0  0  0  0  0  0  0  0  0  0  0
   61.5007   34.8422   46.4807 H   0  0  0  0  0  0  0  0  0  0  0  0
   63.8047   34.4163   47.3186 H   0  0  0  0  0  0  0  0  0  0  0  0
   64.4944   32.1103   47.9674 H   0  0  0  0  0  0  0  0  0  0  0  0
   62.8762   30.2261   47.7914 H   0  0  0  0  0  0  0  0  0  0  0  0
   59.1511   30.9389   48.6634 H   0  0  0  0  0  0  0  0  0  0  0  0
   57.5893   29.0064   48.5297 H   0  0  0  0  0  0  0  0  0  0  0  0
   58.8968   25.6151   47.9288 H   0  0  0  0  0  0  0  0  0  0  0  0
   54.0640   23.9550   46.4400 H   0  0  0  0  0  0  0  0  0  0  0  0
   56.1689   27.9864   45.5536 H   0  0  0  0  0  0  0  0  0  0  0  0
  1  2  1  0
  2  3  1  0
  2  4  1  0
  4  5  1  0
  5  6  1  0
  6  7  1  0
  7  8  2  0
  7  9  2  0
  7 10  1  0
 10 11  2  0
 11 12  1  0
 12 13  2  0
 13 14  1  0
 14 15  2  0
 15 16  1  0
 16 17  2  0
 17 18  1  0
 18 19  2  0
 19 20  1  0
 20 21  1  0
 21 22  2  0
 22 23  1  0
 23 24  2  3
 23 25  1  0
 25 26  1  0
 19 27  1  0
 27 28  1  0
 27 29  2  0
 29 30  1  0
 15 10  1  0
 29 16  1  0
 26 20  2  0
  1 31  1  0
  1 32  1  0
  1 33  1  0
  3 34  1  0
  3 35  1  0
  3 36  1  0
  4 37  1  0
  4 38  1  0
  5 39  1  0
  5 40  1  0
  6 41  1  0
 11 42  1  0
 12 43  1  0
 13 44  1  0
 14 45  1  0
 17 46  1  0
 18 47  1  0
 21 48  1  0
 24 49  1  0
 26 50  1  0
M  CHG  1  25  -1
M  END
>  <UniqueID>  (52) 
49

>  <SMILES>  (52) 
CN(C)CCNS(=O)(=O)c1ccccc1-c1ccc(-c2cnc(=N)[n-]c2)c(F)c1F

>  <Energy>  (52) 
61.29201690801101

>  <Genealogy>  (52) 
CN(C)CCNS(=O)(=O)c1ccccc1-c1ccc(-c2cnc(=N)[n-]c2)c(F)c1F (protonated)
CN(C)CCNS(=O)(=O)c1ccccc1-c1ccc(-c2cnc(=N)[n-]c2)c(F)c1F (3D coordinates assigned)
CN(C)CCNS(=O)(=O)c1ccccc1-c1ccc(-c2cnc(=N)[n-]c2)c(F)c1F (optimized conformer: 61.29201690801101 kcal/mol)

>  <smiles>  (52) 
CN(C)CCNS(=O)(=O)c1ccccc1-c1ccc(-c2cnc(=N)[nH]c2)c(F)c1F

>  <score_type>  (52) 
oracle

>  <origin>  (52) 
adg

>  <m_score__min__energy>  (52) 
-9.4000000000000004

>  <m_primary>  (52) 
energy

$$$$
52:0
     RDKit          3D

 51 55  0  0  0  0  0  0  0  0999 V2000
   57.2680   24.3810   46.7280 C   0  0  0  0  0  0  0  0  0  0  0  0
   57.6890   25.7690   46.6060 N   0  0  0  0  0  0  0  0  0  0  0  0
   57.4130   26.5870   45.5750 C   0  0  0  0  0  0  0  0  0  0  0  0
   57.8900   27.8460   45.8800 C   0  0  0  0  0  0  0  0  0  0  0  0
   57.6960   29.0640   45.0650 C   0  0  0  0  0  0  0  0  0  0  0  0
   56.4450   29.3330   44.4900 C   0  0  0  0  0  0  0  0  0  0  0  0
   56.2680   30.4930   43.7310 C   0  0  0  0  0  0  0  0  0  0  0  0
   57.3000   31.3610   43.5620 N   0  0  0  0  0  0  0  0  0  0  0  0
   58.5190   31.1340   44.1190 C   0  0  0  0  0  0  0  0  0  0  0  0
   58.7370   29.9880   44.8860 C   0  0  0  0  0  0  0  0  0  0  0  0
   58.4600   27.7110   47.1460 C   0  0  0  0  0  0  0  0  0  0  0  0
   59.1710   28.7350   47.9390 C   0  0  0  0  0  0  0  0  0  0  0  0
   58.5500   29.2980   49.0650 C   0  0  0  0  0  0  0  0  0  0  0  0
   59.2110   30.2660   49.8270 C   0  0  0  0  0  0  0  0  0  0  0  0
   60.5070   30.6750   49.4900 C   0  0  0  0  0  0  0  0  0  0  0  0
   61.1210   31.6530   50.2890 O   0  0  0  0  0  0  0  0  0  0  0  0
   61.6810   32.8760   49.8090 C   0  0  0  0  0  0  0  0  0  0  0  0
   61.0170   33.2940   48.5230 C   0  0  0  0  0  0  0  0  0  0  0  0
   61.7800   33.8290   47.4750 C   0  0  0  0  0  0  0  0  0  0  0  0
   61.1540   34.2090   46.2890 C   0  0  0  0  0  0  0  0  0  0  0  0
   59.7720   34.0480   46.1480 C   0  0  0  0  0  0  0  0  0  0  0  0
   59.1160   34.4220   44.9640 C   0  0  0  0  0  0  0  0  0  0  0  0
   57.7350   34.2460   44.8460 C   0  0  0  0  0  0  0  0  0  0  0  0
   57.0020   33.6970   45.9030 C   0  0  0  0  0  0  0  0  0  0  0  0
   57.6460   33.3220   47.0850 C   0  0  0  0  0  0  0  0  0  0  0  0
   59.0330   33.4930   47.2180 C   0  0  0  0  0  0  0  0  0  0  0  0
   59.6710   33.1300   48.3690 N   0  0  0  0  0  0  0  0  0  0  0  0
   61.1390   30.0960   48.3740 C   0  0  0  0  0  0  0  0  0  0  0  0
   60.4790   29.1280   47.6120 C   0  0  0  0  0  0  0  0  0  0  0  0
   58.3060   26.4380   47.5670 N   0  0  0  0  0  0  0  0  0  0  0  0
   57.1872   24.1145   47.7922 H   0  0  0  0  0  0  0  0  0  0  0  0
   56.2899   24.2505   46.2420 H   0  0  0  0  0  0  0  0  0  0  0  0
   58.0088   23.7291   46.2420 H   0  0  0  0  0  0  0  0  0  0  0  0
   56.8956   26.3017   44.6472 H   0  0  0  0  0  0  0  0  0  0  0  0
   55.6078   28.6346   44.6358 H   0  0  0  0  0  0  0  0  0  0  0  0
   55.2919   30.7038   43.2697 H   0  0  0  0  0  0  0  0  0  0  0  0
   59.3355   31.8548   43.9651 H   0  0  0  0  0  0  0  0  0  0  0  0
   59.7195   29.8103   45.3476 H   0  0  0  0  0  0  0  0  0  0  0  0
   57.5375   28.9757   49.3494 H   0  0  0  0  0  0  0  0  0  0  0  0
   58.7085   30.7102   50.6989 H   0  0  0  0  0  0  0  0  0  0  0  0
   61.5336   33.6621   50.5642 H   0  0  0  0  0  0  0  0  0  0  0  0
   62.7544   32.7252   49.6214 H   0  0  0  0  0  0  0  0  0  0  0  0
   62.8676   33.9482   47.5884 H   0  0  0  0  0  0  0  0  0  0  0  0
   61.7460   34.6348   45.4654 H   0  0  0  0  0  0  0  0  0  0  0  0
   59.6891   34.8533   44.1300 H   0  0  0  0  0  0  0  0  0  0  0  0
   57.2224   34.5403   43.9183 H   0  0  0  0  0  0  0  0  0  0  0  0
   55.9151   33.5600   45.8036 H   0  0  0  0  0  0  0  0  0  0  0  0
   57.0645   32.8916   47.9136 H   0  0  0  0  0  0  0  0  0  0  0  0
   59.1170   32.7150   49.1540 H   0  0  0  0  0  0  0  0  0  0  0  0
   62.1579   30.4069   48.0999 H   0  0  0  0  0  0  0  0  0  0  0  0
   60.9875   28.6709   46.7503 H   0  0  0  0  0  0  0  0  0  0  0  0
  1  2  1  0
  2  3  1  0
  3  4  2  0
  4  5  1  0
  5  6  2  0
  6  7  1  0
  7  8  2  0
  8  9  1  0
  9 10  2  0
  4 11  1  0
 11 12  1  0
 12 13  2  0
 13 14  1  0
 14 15  2  0
 15 16  1  0
 16 17  1  0
 17 18  1  0
 18 19  2  0
 19 20  1  0
 20 21  2  0
 21 22  1  0
 22 23  2  0
 23 24  1  0
 24 25  2  0
 25 26  1  0
 26 27  2  0
 15 28  1  0
 28 29  2  0
 11 30  2  0
 30  2  1  0
 10  5  1  0
 29 12  1  0
 27 18  1  0
 26 21  1  0
  1 31  1  0
  1 32  1  0
  1 33  1  0
  3 34  1  0
  6 35  1  0
  7 36  1  0
  9 37  1  0
 10 38  1  0
 13 39  1  0
 14 40  1  0
 17 41  1  0
 17 42  1  0
 19 43  1  0
 20 44  1  0
 22 45  1  0
 23 46  1  0
 24 47  1  0
 25 48  1  0
 27 49  1  0
 28 50  1  0
 29 51  1  0
M  CHG  1  27   1
M  END
>  <UniqueID>  (53) 
50

>  <SMILES>  (53) 
Cn1cc(-c2ccncc2)c(-c2ccc(OCc3ccc4ccccc4[nH+]3)cc2)n1

>  <Energy>  (53) 
97.850254406376

>  <Genealogy>  (53) 
Cn1cc(-c2ccncc2)c(-c2ccc(OCc3ccc4ccccc4[nH+]3)cc2)n1 (protonated)
Cn1cc(-c2ccncc2)c(-c2ccc(OCc3ccc4ccccc4[nH+]3)cc2)n1 (3D coordinates assigned)
Cn1cc(-c2ccncc2)c(-c2ccc(OCc3ccc4ccccc4[nH+]3)cc2)n1 (optimized conformer: 97.850254406376 kcal/mol)

>  <smiles>  (53) 
Cn1cc(-c2ccncc2)c(-c2ccc(OCc3ccc4ccccc4n3)cc2)n1

>  <score_type>  (53) 
oracle

>  <origin>  (53) 
adg

>  <m_score__min__energy>  (53) 
-6.7999999999999998

>  <m_primary>  (53) 
energy

$$$$
53:0
     RDKit          3D

 69 73  0  0  1  0  0  0  0  0999 V2000
   59.0630   33.3540   51.4070 C   0  0  0  0  0  0  0  0  0  0  0  0
   58.1250   32.3860   51.1590 C   0  0  0  0  0  0  0  0  0  0  0  0
   58.4900   31.2020   50.5480 C   0  0  0  0  0  0  0  0  0  0  0  0
   59.7820   30.9190   50.1560 C   0  0  0  0  0  0  0  0  0  0  0  0
   60.1730   29.6440   49.4970 C   0  0  0  0  0  0  0  0  0  0  0  0
   59.1760   29.1280   48.6070 N   0  0  0  0  0  0  0  0  0  0  0  0
   59.4110   28.2790   47.7000 C   0  0  0  0  0  0  0  0  0  0  0  0
   60.1920   27.2170   47.8890 N   0  0  0  0  0  0  0  0  0  0  0  0
   60.4080   26.3460   46.8910 C   0  0  0  0  0  0  0  0  0  0  0  0
   59.8640   26.4830   45.6600 N   0  0  0  0  0  0  0  0  0  0  0  0
   59.0690   27.5490   45.4420 C   0  0  0  0  0  0  0  0  0  0  0  0
   58.4970   27.7120   44.1860 C   0  0  0  0  0  0  0  0  0  0  0  0
   57.6890   28.8080   43.9880 C   0  0  0  0  0  0  0  0  0  0  0  0
   57.4410   29.7290   44.9850 C   0  0  0  0  0  0  0  0  0  0  0  0
   56.6200   30.8440   44.7860 O   0  0  0  0  0  0  0  0  0  0  0  0
   57.2750   32.0250   44.3610 C   0  0  0  0  0  0  0  0  0  0  0  0
   56.8760   33.2110   45.2460 C   0  0  0  0  0  0  0  0  0  0  0  0
   58.0570   33.9270   45.7670 C   0  0  0  0  0  0  0  0  0  0  0  0
   58.6890   33.4410   46.9150 N   0  0  0  0  0  0  0  0  0  0  0  0
   59.2400   34.4180   47.7870 C   0  0  0  0  0  0  0  0  0  0  0  0
   60.7210   34.5890   47.7390 C   0  0  0  0  0  0  0  0  0  0  0  0
   61.3530   33.6060   46.8080 C   0  0  0  0  0  0  0  0  0  0  0  0
   62.8630   33.6110   46.9180 C   0  0  0  0  0  0  0  0  0  0  0  0
   63.3310   33.2600   48.2610 C   0  0  0  0  0  0  0  0  0  0  0  0
   63.7860   31.9890   48.5940 C   0  0  0  0  0  0  0  0  0  0  0  0
   64.2160   31.7160   49.8840 C   0  0  0  0  0  0  0  0  0  0  0  0
   64.2110   32.6720   50.8720 C   0  0  0  0  0  0  0  0  0  0  0  0
   63.7580   33.9380   50.5410 C   0  0  0  0  0  0  0  0  0  0  0  0
   63.3320   34.2100   49.2630 C   0  0  0  0  0  0  0  0  0  0  0  0
   60.8280   32.2350   47.2190 C   0  0  0  0  0  0  0  0  0  0  0  0
   59.3490   32.1920   46.9030 C   0  0  0  0  0  0  0  0  0  0  0  0
   58.0260   29.5310   46.2160 C   0  0  0  0  0  0  0  0  0  0  0  0
   58.8400   28.4530   46.4620 C   0  0  0  0  0  0  0  0  0  0  0  0
   60.7210   31.9240   50.4210 C   0  0  0  0  0  0  0  0  0  0  0  0
   60.3670   33.1090   51.0310 C   0  0  0  0  0  0  0  0  0  0  0  0
   58.7833   34.3005   51.8927 H   0  0  0  0  0  0  0  0  0  0  0  0
   57.0767   32.5526   51.4478 H   0  0  0  0  0  0  0  0  0  0  0  0
   57.7113   30.4470   50.3649 H   0  0  0  0  0  0  0  0  0  0  0  0
   61.0949   29.8180   48.9228 H   0  0  0  0  0  0  0  0  0  0  0  0
   60.3103   28.8984   50.2940 H   0  0  0  0  0  0  0  0  0  0  0  0
   60.6230   27.0760   48.8030 H   0  0  0  0  0  0  0  0  0  0  0  0
   61.0581   25.4797   47.0831 H   0  0  0  0  0  0  0  0  0  0  0  0
   58.6838   26.9896   43.3778 H   0  0  0  0  0  0  0  0  0  0  0  0
   57.2251   28.9549   43.0015 H   0  0  0  0  0  0  0  0  0  0  0  0
   58.3633   31.8773   44.4234 H   0  0  0  0  0  0  0  0  0  0  0  0
   56.9793   32.2410   43.3237 H   0  0  0  0  0  0  0  0  0  0  0  0
   56.2689   33.9102   44.6522 H   0  0  0  0  0  0  0  0  0  0  0  0
   56.3060   32.8222   46.1027 H   0  0  0  0  0  0  0  0  0  0  0  0
   58.8088   33.9368   44.9641 H   0  0  0  0  0  0  0  0  0  0  0  0
   57.6589   34.9044   46.0772 H   0  0  0  0  0  0  0  0  0  0  0  0
   58.7828   35.3866   47.5362 H   0  0  0  0  0  0  0  0  0  0  0  0
   59.0196   34.0603   48.8036 H   0  0  0  0  0  0  0  0  0  0  0  0
   60.9527   35.6078   47.3951 H   0  0  0  0  0  0  0  0  0  0  0  0
   61.1224   34.4173   48.7487 H   0  0  0  0  0  0  0  0  0  0  0  0
   61.1051   33.8626   45.7675 H   0  0  0  0  0  0  0  0  0  0  0  0
   63.2709   32.8830   46.2013 H   0  0  0  0  0  0  0  0  0  0  0  0
   63.2096   34.6321   46.7006 H   0  0  0  0  0  0  0  0  0  0  0  0
   63.8050   31.1967   47.8311 H   0  0  0  0  0  0  0  0  0  0  0  0
   64.5721   30.7033   50.1240 H   0  0  0  0  0  0  0  0  0  0  0  0
   64.5551   32.4392   51.8905 H   0  0  0  0  0  0  0  0  0  0  0  0
   63.7390   34.7296   51.3045 H   0  0  0  0  0  0  0  0  0  0  0  0
   62.9778   35.2248   49.0291 H   0  0  0  0  0  0  0  0  0  0  0  0
   61.3537   31.4491   46.6568 H   0  0  0  0  0  0  0  0  0  0  0  0
   60.9965   32.0653   48.2927 H   0  0  0  0  0  0  0  0  0  0  0  0
   59.2289   31.7546   45.9009 H   0  0  0  0  0  0  0  0  0  0  0  0
   58.8857   31.5974   47.7041 H   0  0  0  0  0  0  0  0  0  0  0  0
   57.8363   30.2547   47.0224 H   0  0  0  0  0  0  0  0  0  0  0  0
   61.7708   31.7634   50.1343 H   0  0  0  0  0  0  0  0  0  0  0  0
   61.1372   33.8711   51.2207 H   0  0  0  0  0  0  0  0  0  0  0  0
  1  2  2  0
  2  3  1  0
  3  4  2  0
  4  5  1  0
  5  6  1  0
  6  7  2  0
  7  8  1  0
  8  9  1  0
  9 10  2  0
 10 11  1  0
 11 12  2  0
 12 13  1  0
 13 14  2  0
 14 15  1  0
 15 16  1  0
 16 17  1  0
 17 18  1  0
 18 19  1  0
 19 20  1  0
 20 21  1  0
 21 22  1  0
 22 23  1  0
 23 24  1  0
 24 25  2  0
 25 26  1  0
 26 27  2  0
 27 28  1  0
 28 29  2  0
 22 30  1  0
 30 31  1  0
 14 32  1  0
 32 33  2  0
  4 34  1  0
 34 35  2  0
 35  1  1  0
 33  7  1  0
 33 11  1  0
 31 19  1  0
 29 24  1  0
  1 36  1  0
  2 37  1  0
  3 38  1  0
  5 39  1  0
  5 40  1  0
  8 41  1  0
  9 42  1  0
 12 43  1  0
 13 44  1  0
 16 45  1  0
 16 46  1  0
 17 47  1  0
 17 48  1  0
 18 49  1  0
 18 50  1  0
 20 51  1  0
 20 52  1  0
 21 53  1  0
 21 54  1  0
 22 55  1  0
 23 56  1  0
 23 57  1  0
 25 58  1  0
 26 59  1  0
 27 60  1  0
 28 61  1  0
 29 62  1  0
 30 63  1  0
 30 64  1  0
 31 65  1  0
 31 66  1  0
 32 67  1  0
 34 68  1  0
 35 69  1  0
M  END
>  <smiles>  (54) 
c1ccc(CN=c2[nH]cnc3ccc(OCCCN4CCC(Cc5ccccc5)CC4)cc23)cc1

>  <score_type>  (54) 
oracle

>  <origin>  (54) 
adg

>  <m_score__min__energy>  (54) 
-9.9700000000000006

>  <m_primary>  (54) 
energy

$$$$
54:0
     RDKit          3D

 46 50  0  0  0  0  0  0  0  0999 V2000
   56.3211   30.5214   42.0784 H   0  0  0  0  0  0  0  0  0  0  0  0
   56.7340   30.2320   43.0560 C   0  0  0  0  0  0  0  0  0  0  0  0
   56.6670   28.9750   43.3970 N   0  0  0  0  0  0  0  0  0  0  0  0
   57.7600   28.0500   43.3930 C   0  0  0  0  0  0  0  0  0  0  0  0
   57.8350   27.1800   42.4810 O   0  0  0  0  0  0  0  0  0  0  0  0
   58.8180   28.1260   44.4620 C   0  0  0  0  0  0  0  0  0  0  0  0
   59.6360   27.4399   44.1973 H   0  0  0  0  0  0  0  0  0  0  0  0
   59.1637   29.1689   44.5146 H   0  0  0  0  0  0  0  0  0  0  0  0
   58.2850   27.7430   45.8490 C   0  0  0  0  0  0  0  0  0  0  0  0
   57.2134   27.9866   45.8981 H   0  0  0  0  0  0  0  0  0  0  0  0
   58.4533   26.6656   45.9938 H   0  0  0  0  0  0  0  0  0  0  0  0
   59.0000   28.4770   46.9440 C   0  0  0  0  0  0  0  0  0  0  0  0
   59.0370   29.8180   47.0510 N   0  0  0  0  0  0  0  0  0  0  0  0
   59.8050   30.0180   48.1470 C   0  0  0  0  0  0  0  0  0  0  0  0
   60.1310   31.3650   48.6810 C   0  0  0  0  0  0  0  0  0  0  0  0
   59.2490   31.9780   49.5890 C   0  0  0  0  0  0  0  0  0  0  0  0
   58.3244   31.4591   49.8820 H   0  0  0  0  0  0  0  0  0  0  0  0
   59.5320   33.2380   50.1240 C   0  0  0  0  0  0  0  0  0  0  0  0
   58.8313   33.7017   50.8339 H   0  0  0  0  0  0  0  0  0  0  0  0
   60.7000   33.9100   49.7610 C   0  0  0  0  0  0  0  0  0  0  0  0
   60.9157   34.9029   50.1824 H   0  0  0  0  0  0  0  0  0  0  0  0
   61.5970   33.3230   48.8620 C   0  0  0  0  0  0  0  0  0  0  0  0
   62.7860   33.9750   48.5040 C   0  0  0  0  0  0  0  0  0  0  0  0
   63.0112   34.9723   48.9097 H   0  0  0  0  0  0  0  0  0  0  0  0
   63.6830   33.3560   47.6320 C   0  0  0  0  0  0  0  0  0  0  0  0
   64.6186   33.8601   47.3483 H   0  0  0  0  0  0  0  0  0  0  0  0
   63.3820   32.0910   47.1230 C   0  0  0  0  0  0  0  0  0  0  0  0
   64.0847   31.5942   46.4379 H   0  0  0  0  0  0  0  0  0  0  0  0
   62.2220   31.4710   47.4720 N   0  0  0  0  0  0  0  0  0  0  0  0
   61.3190   32.0450   48.3180 C   0  0  0  0  0  0  0  0  0  0  0  0
   60.2240   28.8880   48.6820 O   0  0  0  0  0  0  0  0  0  0  0  0
   59.7450   27.9100   47.9550 C   0  0  0  0  0  0  0  0  0  0  0  0
   59.9073   26.8347   48.1207 H   0  0  0  0  0  0  0  0  0  0  0  0
   57.3280   31.2940   43.8960 C   0  0  0  0  0  0  0  0  0  0  0  0
   57.0350   31.4060   45.2210 N   0  0  0  0  0  0  0  0  0  0  0  0
   57.7180   32.5030   45.5810 C   0  0  0  0  0  0  0  0  0  0  0  0
   57.7810   33.0960   46.8420 C   0  0  0  0  0  0  0  0  0  0  0  0
   57.2350   32.6727   47.6980 H   0  0  0  0  0  0  0  0  0  0  0  0
   58.5690   34.2570   46.9810 C   0  0  0  0  0  0  0  0  0  0  0  0
   58.6465   34.7510   47.9608 H   0  0  0  0  0  0  0  0  0  0  0  0
   59.2600   34.7900   45.8690 C   0  0  0  0  0  0  0  0  0  0  0  0
   59.8761   35.6934   45.9886 H   0  0  0  0  0  0  0  0  0  0  0  0
   59.1630   34.1690   44.6080 C   0  0  0  0  0  0  0  0  0  0  0  0
   59.6877   34.5763   43.7312 H   0  0  0  0  0  0  0  0  0  0  0  0
   58.3780   33.0190   44.5100 C   0  0  0  0  0  0  0  0  0  0  0  0
   58.1400   32.2760   43.4200 N   0  0  0  0  0  0  0  0  0  0  0  0
  1  2  1  0
  2  3  2  0
  3  4  1  0
  4  5  2  0
  4  6  1  0
  6  7  1  0
  6  8  1  0
  6  9  1  0
  9 10  1  0
  9 11  1  0
  9 12  1  0
 12 13  1  0
 13 14  2  0
 14 15  1  0
 15 16  2  0
 16 17  1  0
 16 18  1  0
 18 19  1  0
 18 20  2  0
 20 21  1  0
 20 22  1  0
 22 23  2  0
 23 24  1  0
 23 25  1  0
 25 26  1  0
 25 27  2  0
 27 28  1  0
 27 29  1  0
 29 30  2  0
 14 31  1  0
 31 32  1  0
 32 33  1  0
  2 34  1  0
 34 35  2  0
 35 36  1  0
 36 37  2  0
 37 38  1  0
 37 39  1  0
 39 40  1  0
 39 41  2  0
 41 42  1  0
 41 43  1  0
 43 44  1  0
 43 45  2  0
 45 46  1  0
 32 12  2  0
 46 34  1  0
 30 15  1  0
 45 36  1  0
 30 22  1  0
M  CHG  1  46  -1
M  END
>  <UniqueID>  (55) 
51

>  <SMILES>  (55) 
O=C(CCc1coc(-c2cccc3cccnc23)n1)/N=C\c1nc2ccccc2[n-]1

>  <Energy>  (55) 
129.18947348203764

>  <Genealogy>  (55) 
O=C(CCc1coc(-c2cccc3cccnc23)n1)N=Cc1nc2ccccc2[n-]1 (protonated)
O=C(CCc1coc(-c2cccc3cccnc23)n1)/N=C\c1nc2ccccc2[n-]1 (cis-trans isomerization)
O=C(CCc1coc(-c2cccc3cccnc23)n1)/N=C\c1nc2ccccc2[n-]1 (3D coordinates assigned)
O=C(CCc1coc(-c2cccc3cccnc23)n1)/N=C\c1nc2ccccc2[n-]1 (optimized conformer: 129.18947348203764 kcal/mol)

>  <smiles>  (55) 
O=C(CCc1coc(-c2cccc3cccnc23)n1)N=Cc1nc2ccccc2[nH]1

>  <score_type>  (55) 
oracle

>  <origin>  (55) 
adg

>  <m_score__min__energy>  (55) 
-10.26

>  <m_primary>  (55) 
energy

$$$$
55:0
     RDKit          3D

 26 26  0  0  0  0  0  0  0  0999 V2000
   58.1500   27.4790   43.6420 C   0  0  0  0  0  0  0  0  0  0  0  0
   57.5430   28.2450   44.8170 C   0  0  0  0  0  0  0  0  0  0  0  0
   56.5890   29.3600   44.3410 C   0  0  1  0  0  0  0  0  0  0  0  0
   55.3880   29.3690   45.0730 O   0  0  0  0  0  0  0  0  0  0  0  0
   57.2570   30.7200   44.4010 C   0  0  0  0  0  0  0  0  0  0  0  0
   57.7190   31.2460   45.6220 C   0  0  0  0  0  0  0  0  0  0  0  0
   58.3380   32.4980   45.6650 C   0  0  0  0  0  0  0  0  0  0  0  0
   58.5140   33.2460   44.4970 C   0  0  0  0  0  0  0  0  0  0  0  0
   59.1430   34.4970   44.5940 O   0  0  0  0  0  0  0  0  0  0  0  0
   59.5800   35.0840   45.8160 C   0  0  0  0  0  0  0  0  0  0  0  0
   58.0580   32.7240   43.2730 C   0  0  0  0  0  0  0  0  0  0  0  0
   57.4360   31.4720   43.2280 C   0  0  0  0  0  0  0  0  0  0  0  0
   58.7908   26.6703   44.0233 H   0  0  0  0  0  0  0  0  0  0  0  0
   57.3441   27.0499   43.0285 H   0  0  0  0  0  0  0  0  0  0  0  0
   58.7520   28.1655   43.0285 H   0  0  0  0  0  0  0  0  0  0  0  0
   56.9814   27.5413   45.4490 H   0  0  0  0  0  0  0  0  0  0  0  0
   58.3632   28.7136   45.3806 H   0  0  0  0  0  0  0  0  0  0  0  0
   56.3413   29.1419   43.2917 H   0  0  0  0  0  0  0  0  0  0  0  0
   55.5820   29.7160   45.9820 H   0  0  0  0  0  0  0  0  0  0  0  0
   57.5919   30.6675   46.5489 H   0  0  0  0  0  0  0  0  0  0  0  0
   58.6902   32.8989   46.6269 H   0  0  0  0  0  0  0  0  0  0  0  0
   59.1612   34.5214   46.6634 H   0  0  0  0  0  0  0  0  0  0  0  0
   60.6786   35.0556   45.8642 H   0  0  0  0  0  0  0  0  0  0  0  0
   59.2377   36.1283   45.8642 H   0  0  0  0  0  0  0  0  0  0  0  0
   58.1911   33.3029   42.3472 H   0  0  0  0  0  0  0  0  0  0  0  0
   57.0838   31.0726   42.2655 H   0  0  0  0  0  0  0  0  0  0  0  0
  1  2  1  0
  2  3  1  0
  3  4  1  0
  3  5  1  0
  5  6  2  0
  6  7  1  0
  7  8  2  0
  8  9  1  0
  9 10  1  0
  8 11  1  0
 11 12  2  0
 12  5  1  0
  1 13  1  0
  1 14  1  0
  1 15  1  0
  2 16  1  0
  2 17  1  0
  3 18  1  6
  4 19  1  0
  6 20  1  0
  7 21  1  0
 10 22  1  0
 10 23  1  0
 10 24  1  0
 11 25  1  0
 12 26  1  0
M  END
>  <UniqueID>  (56) 
52

>  <SMILES>  (56) 
CC[C@@H](O)c1ccc(OC)cc1

>  <Energy>  (56) 
20.982465191554475

>  <Genealogy>  (56) 
CC[C@@H](O)c1ccc(OC)cc1 (chirality)
CC[C@@H](O)c1ccc(OC)cc1 (3D coordinates assigned)
CC[C@@H](O)c1ccc(OC)cc1 (optimized conformer: 20.982465191554475 kcal/mol)

>  <smiles>  (56) 
CCC(O)c1ccc(OC)cc1

>  <score_type>  (56) 
oracle

>  <origin>  (56) 
adg

>  <m_score__min__energy>  (56) 
-5.5999999999999996

>  <m_primary>  (56) 
energy

$$$$
56:0
     RDKit          3D

 32 34  0  0  0  0  0  0  0  0999 V2000
   56.9442   34.7358   46.3948 H   0  0  0  0  0  0  0  0  0  0  0  0
   57.9120   34.2130   46.3870 C   0  0  0  0  0  0  0  0  0  0  0  0
   58.9320   34.4570   47.1710 O   0  0  0  0  0  0  0  0  0  0  0  0
   59.8900   33.6140   46.8430 C   0  0  0  0  0  0  0  0  0  0  0  0
   61.2100   33.5770   47.5040 C   0  0  0  0  0  0  0  0  0  0  0  0
   62.3790   33.4290   46.7380 C   0  0  0  0  0  0  0  0  0  0  0  0
   62.3088   33.3410   45.6438 H   0  0  0  0  0  0  0  0  0  0  0  0
   63.6310   33.3930   47.3600 C   0  0  0  0  0  0  0  0  0  0  0  0
   64.5419   33.2771   46.7543 H   0  0  0  0  0  0  0  0  0  0  0  0
   63.7270   33.5040   48.7500 C   0  0  0  0  0  0  0  0  0  0  0  0
   64.9410   33.4680   49.3500 F   0  0  0  0  0  0  0  0  0  0  0  0
   62.5690   33.6510   49.5200 C   0  0  0  0  0  0  0  0  0  0  0  0
   62.6444   33.7369   50.6140 H   0  0  0  0  0  0  0  0  0  0  0  0
   61.3160   33.6890   48.9020 C   0  0  0  0  0  0  0  0  0  0  0  0
   60.4083   33.8071   49.5120 H   0  0  0  0  0  0  0  0  0  0  0  0
   59.5320   32.7890   45.8340 N   0  0  0  0  0  0  0  0  0  0  0  0
   58.2750   33.1810   45.5510 C   0  0  0  0  0  0  0  0  0  0  0  0
   57.4220   32.5680   44.4850 C   0  0  0  0  0  0  0  0  0  0  0  0
   56.5342   33.1977   44.3262 H   0  0  0  0  0  0  0  0  0  0  0  0
   58.0102   32.4974   43.5581 H   0  0  0  0  0  0  0  0  0  0  0  0
   56.9940   31.2230   44.8750 N   0  0  0  0  0  0  0  0  0  0  0  0
   57.6920   30.1210   44.8080 C   0  0  0  0  0  0  0  0  0  0  0  0
   57.3680   29.0770   43.9160 C   0  0  0  0  0  0  0  0  0  0  0  0
   56.5045   29.1727   43.2413 H   0  0  0  0  0  0  0  0  0  0  0  0
   58.1510   27.9220   43.8960 C   0  0  0  0  0  0  0  0  0  0  0  0
   57.9060   27.1029   43.2039 H   0  0  0  0  0  0  0  0  0  0  0  0
   59.2430   27.8070   44.7530 C   0  0  0  0  0  0  0  0  0  0  0  0
   59.8627   26.8982   44.7449 H   0  0  0  0  0  0  0  0  0  0  0  0
   59.5420   28.8560   45.6210 C   0  0  0  0  0  0  0  0  0  0  0  0
   60.4045   28.7769   46.2991 H   0  0  0  0  0  0  0  0  0  0  0  0
   58.7710   29.9780   45.6330 N   0  0  0  0  0  0  0  0  0  0  0  0
   59.0210   30.7470   46.2960 H   0  0  0  0  0  0  0  0  0  0  0  0
  1  2  1  0
  2  3  1  0
  3  4  1  0
  4  5  1  0
  5  6  2  0
  6  7  1  0
  6  8  1  0
  8  9  1  0
  8 10  2  0
 10 11  1  0
 10 12  1  0
 12 13  1  0
 12 14  2  0
 14 15  1  0
  4 16  2  0
 16 17  1  0
 17 18  1  0
 18 19  1  0
 18 20  1  0
 18 21  1  0
 21 22  2  0
 22 23  1  0
 23 24  1  0
 23 25  2  0
 25 26  1  0
 25 27  1  0
 27 28  1  0
 27 29  2  0
 29 30  1  0
 29 31  1  0
 31 32  1  0
 17  2  2  0
 31 22  1  0
 14  5  1  0
M  END
>  <UniqueID>  (57) 
53

>  <SMILES>  (57) 
Fc1ccc(-c2nc(C/N=c3\cccc[nH]3)co2)cc1

>  <Energy>  (57) 
65.60356066035246

>  <Genealogy>  (57) 
Fc1ccc(-c2nc(C/N=c3\cccc[nH]3)co2)cc1 (cis-trans isomerization)
Fc1ccc(-c2nc(C/N=c3\cccc[nH]3)co2)cc1 (3D coordinates assigned)
Fc1ccc(-c2nc(C/N=c3\cccc[nH]3)co2)cc1 (optimized conformer: 65.60356066035246 kcal/mol)

>  <smiles>  (57) 
Fc1ccc(-c2nc(CN=c3cccc[nH]3)co2)cc1

>  <score_type>  (57) 
oracle

>  <origin>  (57) 
adg

>  <m_score__min__energy>  (57) 
-6.3700000000000001

>  <m_primary>  (57) 
energy

$$$$
57:0
     RDKit          3D

 26 27  0  0  0  0  0  0  0  0999 V2000
   56.1210   29.8650   44.9130 O   0  0  0  0  0  0  0  0  0  0  0  0
   57.1890   29.5950   44.3000 C   0  0  0  0  0  0  0  0  0  0  0  0
   57.3960   28.2150   43.7560 C   0  0  0  0  0  0  0  0  0  0  0  0
   57.7490   27.2800   44.8680 C   0  0  0  0  0  0  0  0  0  0  0  0
   59.0340   26.9160   45.2460 C   0  0  0  0  0  0  0  0  0  0  0  0
   59.0610   26.0870   46.3750 C   0  0  0  0  0  0  0  0  0  0  0  0
   57.8020   25.8130   46.8950 C   0  0  0  0  0  0  0  0  0  0  0  0
   56.6560   26.6020   45.9500 S   0  0  0  0  0  0  0  0  0  0  0  0
   58.2050   30.5940   44.1250 N   0  0  0  0  0  0  0  0  0  0  0  0
   58.2110   31.8530   44.8210 C   0  0  0  0  0  0  0  0  0  0  0  0
   57.7560   33.0230   44.1830 C   0  0  0  0  0  0  0  0  0  0  0  0
   57.7340   34.2400   44.8710 C   0  0  0  0  0  0  0  0  0  0  0  0
   58.1530   34.3020   46.2000 C   0  0  0  0  0  0  0  0  0  0  0  0
   58.5910   33.1450   46.8490 C   0  0  0  0  0  0  0  0  0  0  0  0
   58.6160   31.9210   46.1690 C   0  0  0  0  0  0  0  0  0  0  0  0
   59.1940   30.4950   47.0230 Cl  0  0  0  0  0  0  0  0  0  0  0  0
   56.4710   27.8715   43.2699 H   0  0  0  0  0  0  0  0  0  0  0  0
   58.2156   28.2329   43.0225 H   0  0  0  0  0  0  0  0  0  0  0  0
   59.9386   27.2448   44.7135 H   0  0  0  0  0  0  0  0  0  0  0  0
   59.9909   25.6905   46.8087 H   0  0  0  0  0  0  0  0  0  0  0  0
   57.5908   25.1870   47.7745 H   0  0  0  0  0  0  0  0  0  0  0  0
   58.9590   30.4060   43.4270 H   0  0  0  0  0  0  0  0  0  0  0  0
   57.4161   32.9793   43.1378 H   0  0  0  0  0  0  0  0  0  0  0  0
   57.3853   35.1511   44.3628 H   0  0  0  0  0  0  0  0  0  0  0  0
   58.1386   35.2619   46.7370 H   0  0  0  0  0  0  0  0  0  0  0  0
   58.9175   33.1956   47.8982 H   0  0  0  0  0  0  0  0  0  0  0  0
  1  2  2  0
  2  3  1  0
  3  4  1  0
  4  5  2  0
  5  6  1  0
  6  7  2  0
  7  8  1  0
  2  9  1  0
  9 10  1  0
 10 11  2  0
 11 12  1  0
 12 13  2  0
 13 14  1  0
 14 15  2  0
 15 16  1  0
  8  4  1  0
 15 10  1  0
  3 17  1  0
  3 18  1  0
  5 19  1  0
  6 20  1  0
  7 21  1  0
  9 22  1  0
 11 23  1  0
 12 24  1  0
 13 25  1  0
 14 26  1  0
M  END
>  <UniqueID>  (58) 
54

>  <SMILES>  (58) 
O=C(Cc1cccs1)Nc1ccccc1Cl

>  <Energy>  (58) 
53.71420259502999

>  <Genealogy>  (58) 
O=C(Cc1cccs1)Nc1ccccc1Cl (3D coordinates assigned)
O=C(Cc1cccs1)Nc1ccccc1Cl (optimized conformer: 53.71420259502999 kcal/mol)

>  <smiles>  (58) 
O=C(Cc1cccs1)Nc1ccccc1Cl

>  <score_type>  (58) 
oracle

>  <origin>  (58) 
adg

>  <m_score__min__energy>  (58) 
-6.4699999999999998

>  <m_primary>  (58) 
energy

$$$$
58:0
     RDKit          3D

 35 37  0  0  0  0  0  0  0  0999 V2000
   59.9350   30.5930   48.7190 C   0  0  0  0  0  0  0  0  0  0  0  0
   59.8160   31.9550   48.1830 N   0  0  0  0  0  0  0  0  0  0  0  0
   60.6350   32.9700   48.6250 C   0  0  0  0  0  0  0  0  0  0  0  0
   61.4850   32.7550   49.5320 O   0  0  0  0  0  0  0  0  0  0  0  0
   60.5450   34.2240   48.0760 N   0  0  0  0  0  0  0  0  0  0  0  0
   59.6590   34.5050   47.0760 C   0  0  0  0  0  0  0  0  0  0  0  0
   59.6300   35.6550   46.5680 O   0  0  0  0  0  0  0  0  0  0  0  0
   58.8250   33.4750   46.6300 C   0  0  0  0  0  0  0  0  0  0  0  0
   58.9410   32.2390   47.1780 C   0  0  0  0  0  0  0  0  0  0  0  0
   58.1170   31.3710   46.5690 N   0  0  0  0  0  0  0  0  0  0  0  0
   57.4940   32.1310   45.6350 C   0  0  0  0  0  0  0  0  0  0  0  0
   56.6600   31.5700   44.8000 N   0  0  0  0  0  0  0  0  0  0  0  0
   56.4570   29.9240   44.2830 S   0  0  0  0  0  0  0  0  0  0  0  0
   56.4720   29.8220   42.7840 O   0  0  0  0  0  0  0  0  0  0  0  0
   55.1780   29.3530   44.8260 O   0  0  0  0  0  0  0  0  0  0  0  0
   57.8120   28.9940   44.9150 C   0  0  0  0  0  0  0  0  0  0  0  0
   57.5960   27.9710   45.8510 C   0  0  0  0  0  0  0  0  0  0  0  0
   58.6790   27.2450   46.3590 C   0  0  0  0  0  0  0  0  0  0  0  0
   59.9790   27.5400   45.9400 C   0  0  0  0  0  0  0  0  0  0  0  0
   60.2000   28.5630   45.0140 C   0  0  0  0  0  0  0  0  0  0  0  0
   59.1200   29.2910   44.5040 C   0  0  0  0  0  0  0  0  0  0  0  0
   57.8820   33.4500   45.6590 N   0  0  0  0  0  0  0  0  0  0  0  0
   57.4180   34.5940   44.8710 C   0  0  0  0  0  0  0  0  0  0  0  0
   59.9318   30.6300   49.8184 H   0  0  0  0  0  0  0  0  0  0  0  0
   59.0865   29.9862   48.3701 H   0  0  0  0  0  0  0  0  0  0  0  0
   60.8759   30.1425   48.3701 H   0  0  0  0  0  0  0  0  0  0  0  0
   61.1800   34.9800   48.4210 H   0  0  0  0  0  0  0  0  0  0  0  0
   56.5741   27.7395   46.1858 H   0  0  0  0  0  0  0  0  0  0  0  0
   58.5067   26.4407   47.0894 H   0  0  0  0  0  0  0  0  0  0  0  0
   60.8287   26.9668   46.3392 H   0  0  0  0  0  0  0  0  0  0  0  0
   61.2238   28.7959   44.6860 H   0  0  0  0  0  0  0  0  0  0  0  0
   59.2968   30.0987   43.7785 H   0  0  0  0  0  0  0  0  0  0  0  0
   57.0921   35.3975   45.5479 H   0  0  0  0  0  0  0  0  0  0  0  0
   58.2390   34.9594   44.2366 H   0  0  0  0  0  0  0  0  0  0  0  0
   56.5744   34.2843   44.2366 H   0  0  0  0  0  0  0  0  0  0  0  0
  1  2  1  0
  2  3  1  0
  3  4  2  0
  3  5  1  0
  5  6  1  0
  6  7  2  0
  6  8  1  0
  8  9  2  0
  9 10  1  0
 10 11  1  0
 11 12  2  3
 12 13  1  0
 13 14  2  0
 13 15  2  0
 13 16  1  0
 16 17  2  0
 17 18  1  0
 18 19  2  0
 19 20  1  0
 20 21  2  0
 11 22  1  0
 22 23  1  0
  9  2  1  0
 21 16  1  0
 22  8  1  0
  1 24  1  0
  1 25  1  0
  1 26  1  0
  5 27  1  0
 17 28  1  0
 18 29  1  0
 19 30  1  0
 20 31  1  0
 21 32  1  0
 23 33  1  0
 23 34  1  0
 23 35  1  0
M  CHG  1  10  -1
M  END
>  <UniqueID>  (59) 
55

>  <SMILES>  (59) 
Cn1c(=O)[nH]c(=O)c2c1[n-]c(=NS(=O)(=O)c1ccccc1)n2C

>  <Energy>  (59) 
95.5857074923535

>  <Genealogy>  (59) 
Cn1c(=O)[nH]c(=O)c2c1[n-]c(=NS(=O)(=O)c1ccccc1)n2C (protonated)
Cn1c(=O)[nH]c(=O)c2c1[n-]c(=NS(=O)(=O)c1ccccc1)n2C (3D coordinates assigned)
Cn1c(=O)[nH]c(=O)c2c1[n-]c(=NS(=O)(=O)c1ccccc1)n2C (optimized conformer: 95.5857074923535 kcal/mol)

>  <smiles>  (59) 
Cn1c(=O)[nH]c(=O)c2c1[nH]c(=NS(=O)(=O)c1ccccc1)n2C

>  <score_type>  (59) 
oracle

>  <origin>  (59) 
adg

>  <m_score__min__energy>  (59) 
-8.8900000000000006

>  <m_primary>  (59) 
energy

$$$$
59:0
     RDKit          3D

 48 50  0  0  0  0  0  0  0  0999 V2000
   54.6420   25.9430   45.9600 N   0  0  0  0  0  0  0  0  0  0  0  0
   54.5870   24.5870   45.5270 C   0  0  0  0  0  0  0  0  0  0  0  0
   53.7410   24.2430   44.6560 O   0  0  0  0  0  0  0  0  0  0  0  0
   55.5360   23.5700   46.1090 C   0  0  2  0  0  0  0  0  0  0  0  0
   54.9500   22.8980   47.3600 C   0  0  0  0  0  0  0  0  0  0  0  0
   55.9880   23.0580   48.4690 C   0  0  0  0  0  0  0  0  0  0  0  0
   57.0160   24.0650   47.9690 C   0  0  0  0  0  0  0  0  0  0  0  0
   56.7670   24.2170   46.5450 N   0  0  0  0  0  0  0  0  0  0  0  0
   57.6690   24.9340   45.6810 C   0  0  0  0  0  0  0  0  0  0  0  0
   58.8660   24.5470   45.5730 O   0  0  0  0  0  0  0  0  0  0  0  0
   57.2210   26.0760   44.9320 N   0  0  0  0  0  0  0  0  0  0  0  0
   58.1420   26.9340   44.1910 C   0  0  0  0  0  0  0  0  0  0  0  0
   57.7710   28.3810   44.3810 C   0  0  0  0  0  0  0  0  0  0  0  0
   56.9510   29.0340   43.4460 C   0  0  0  0  0  0  0  0  0  0  0  0
   56.6230   30.3820   43.6160 C   0  0  0  0  0  0  0  0  0  0  0  0
   57.0910   31.0900   44.7300 C   0  0  0  0  0  0  0  0  0  0  0  0
   56.7290   32.4700   44.8740 N   0  0  0  0  0  0  0  0  0  0  0  0
   57.6400   33.5670   44.9990 C   0  0  0  0  0  0  0  0  0  0  0  0
   57.1950   34.7410   44.9190 O   0  0  0  0  0  0  0  0  0  0  0  0
   59.0370   33.3330   45.2280 N   0  0  0  0  0  0  0  0  0  0  0  0
   59.7710   33.6580   46.4180 C   0  0  0  0  0  0  0  0  0  0  0  0
   59.1280   34.0250   47.6160 C   0  0  0  0  0  0  0  0  0  0  0  0
   59.8800   34.3110   48.7600 C   0  0  0  0  0  0  0  0  0  0  0  0
   61.2730   34.2200   48.7230 C   0  0  0  0  0  0  0  0  0  0  0  0
   61.9180   33.8330   47.5450 C   0  0  0  0  0  0  0  0  0  0  0  0
   61.1690   33.5440   46.4000 C   0  0  0  0  0  0  0  0  0  0  0  0
   57.9440   30.4490   45.6460 C   0  0  0  0  0  0  0  0  0  0  0  0
   58.2800   29.1030   45.4710 C   0  0  0  0  0  0  0  0  0  0  0  0
   54.7930   26.7190   45.2780 H   0  0  0  0  0  0  0  0  0  0  0  0
   55.7169   22.8285   45.3169 H   0  0  0  0  0  0  0  0  0  0  0  0
   54.0083   23.3882   47.6481 H   0  0  0  0  0  0  0  0  0  0  0  0
   54.7297   21.8366   47.1734 H   0  0  0  0  0  0  0  0  0  0  0  0
   55.5079   23.4307   49.3859 H   0  0  0  0  0  0  0  0  0  0  0  0
   56.4629   22.0947   48.7066 H   0  0  0  0  0  0  0  0  0  0  0  0
   56.8894   25.0286   48.4843 H   0  0  0  0  0  0  0  0  0  0  0  0
   58.0432   23.7235   48.1646 H   0  0  0  0  0  0  0  0  0  0  0  0
   56.2000   26.2900   44.8700 H   0  0  0  0  0  0  0  0  0  0  0  0
   59.1660   26.7702   44.5578 H   0  0  0  0  0  0  0  0  0  0  0  0
   58.0822   26.6855   43.1211 H   0  0  0  0  0  0  0  0  0  0  0  0
   56.5653   28.4821   42.5762 H   0  0  0  0  0  0  0  0  0  0  0  0
   55.9935   30.8898   42.8704 H   0  0  0  0  0  0  0  0  0  0  0  0
   58.0303   34.0869   47.6521 H   0  0  0  0  0  0  0  0  0  0  0  0
   59.3735   34.6080   49.6902 H   0  0  0  0  0  0  0  0  0  0  0  0
   61.8631   34.4531   49.6216 H   0  0  0  0  0  0  0  0  0  0  0  0
   63.0150   33.7557   47.5185 H   0  0  0  0  0  0  0  0  0  0  0  0
   61.6794   33.2252   45.4792 H   0  0  0  0  0  0  0  0  0  0  0  0
   58.3481   31.0081   46.5028 H   0  0  0  0  0  0  0  0  0  0  0  0
   58.9470   28.6075   46.1918 H   0  0  0  0  0  0  0  0  0  0  0  0
  1  2  1  0
  2  3  2  0
  2  4  1  0
  4  5  1  0
  5  6  1  0
  6  7  1  0
  7  8  1  0
  8  9  1  0
  9 10  2  0
  9 11  1  0
 11 12  1  0
 12 13  1  0
 13 14  2  0
 14 15  1  0
 15 16  2  0
 16 17  1  0
 17 18  1  0
 18 19  2  0
 18 20  1  0
 20 21  1  0
 21 22  2  0
 22 23  1  0
 23 24  2  0
 24 25  1  0
 25 26  2  0
 16 27  1  0
 27 28  2  0
  8  4  1  0
 28 13  1  0
 26 21  1  0
  1 29  1  0
  4 30  1  6
  5 31  1  0
  5 32  1  0
  6 33  1  0
  6 34  1  0
  7 35  1  0
  7 36  1  0
 11 37  1  0
 12 38  1  0
 12 39  1  0
 14 40  1  0
 15 41  1  0
 22 42  1  0
 23 43  1  0
 24 44  1  0
 25 45  1  0
 26 46  1  0
 27 47  1  0
 28 48  1  0
M  CHG  3   1  -1  17  -1  20  -1
M  END
>  <UniqueID>  (60) 
56

>  <SMILES>  (60) 
[NH-]C(=O)[C@@H]1CCCN1C(=O)NCc1ccc([N-]C(=O)[N-]c2ccccc2)cc1

>  <Energy>  (60) 
53.284858966256174

>  <Genealogy>  (60) 
[NH-]C(=O)C1CCCN1C(=O)NCc1ccc([N-]C(=O)[N-]c2ccccc2)cc1 (protonated)
[NH-]C(=O)[C@@H]1CCCN1C(=O)NCc1ccc([N-]C(=O)[N-]c2ccccc2)cc1 (chirality)
[NH-]C(=O)[C@@H]1CCCN1C(=O)NCc1ccc([N-]C(=O)[N-]c2ccccc2)cc1 (3D coordinates assigned)
[NH-]C(=O)[C@@H]1CCCN1C(=O)NCc1ccc([N-]C(=O)[N-]c2ccccc2)cc1 (nonaromatic ring conformer: 53.284858966256174 kcal/mol)

>  <smiles>  (60) 
NC(=O)C1CCCN1C(=O)NCc1ccc(NC(=O)Nc2ccccc2)cc1

>  <score_type>  (60) 
oracle

>  <origin>  (60) 
adg

>  <m_score__min__energy>  (60) 
-12.779999999999999

>  <m_primary>  (60) 
energy

$$$$
60:0
     RDKit          3D

 41 43  0  0  0  0  0  0  0  0999 V2000
   55.1710   26.3260   46.0260 O   0  0  0  0  0  0  0  0  0  0  0  0
   56.1610   25.5440   46.0390 C   0  0  0  0  0  0  0  0  0  0  0  0
   55.9220   24.0860   46.3080 C   0  0  0  0  0  0  0  0  0  0  0  0
   57.1900   23.3790   46.7840 C   0  0  0  0  0  0  0  0  0  0  0  0
   58.3680   23.7160   45.8710 C   0  0  0  0  0  0  0  0  0  0  0  0
   58.6750   25.2140   45.9380 C   0  0  0  0  0  0  0  0  0  0  0  0
   57.4770   26.0320   45.6940 N   0  0  0  0  0  0  0  0  0  0  0  0
   57.6640   27.4100   45.3270 C   0  0  0  0  0  0  0  0  0  0  0  0
   57.7340   28.4010   46.3110 C   0  0  0  0  0  0  0  0  0  0  0  0
   57.9050   29.7360   45.9490 C   0  0  0  0  0  0  0  0  0  0  0  0
   57.9990   30.0810   44.5880 C   0  0  0  0  0  0  0  0  0  0  0  0
   58.1750   31.4470   44.1670 N   0  0  0  0  0  0  0  0  0  0  0  0
   57.3870   32.5610   44.6970 C   0  0  0  0  0  0  0  0  0  0  0  0
   58.2020   33.3730   45.6690 C   0  0  0  0  0  0  0  0  0  0  0  0
   58.9160   34.4990   45.2260 C   0  0  0  0  0  0  0  0  0  0  0  0
   59.6430   35.2740   46.1360 C   0  0  0  0  0  0  0  0  0  0  0  0
   59.6530   34.9370   47.4910 C   0  0  0  0  0  0  0  0  0  0  0  0
   58.9310   33.8280   47.9410 C   0  0  0  0  0  0  0  0  0  0  0  0
   58.2040   33.0500   47.0350 C   0  0  0  0  0  0  0  0  0  0  0  0
   57.9220   29.0970   43.6450 N   0  0  0  0  0  0  0  0  0  0  0  0
   57.7570   27.7890   43.9820 C   0  0  0  0  0  0  0  0  0  0  0  0
   55.1485   23.9897   47.0842 H   0  0  0  0  0  0  0  0  0  0  0  0
   55.6012   23.6140   45.3676 H   0  0  0  0  0  0  0  0  0  0  0  0
   57.4223   23.7041   47.8089 H   0  0  0  0  0  0  0  0  0  0  0  0
   57.0211   22.2923   46.7589 H   0  0  0  0  0  0  0  0  0  0  0  0
   59.2530   23.1486   46.1948 H   0  0  0  0  0  0  0  0  0  0  0  0
   58.1090   23.4480   44.8361 H   0  0  0  0  0  0  0  0  0  0  0  0
   59.0702   25.4515   46.9367 H   0  0  0  0  0  0  0  0  0  0  0  0
   59.4111   25.4460   45.1542 H   0  0  0  0  0  0  0  0  0  0  0  0
   57.6539   28.1263   47.3731 H   0  0  0  0  0  0  0  0  0  0  0  0
   57.9661   30.5155   46.7227 H   0  0  0  0  0  0  0  0  0  0  0  0
   58.9060   31.6430   43.4450 H   0  0  0  0  0  0  0  0  0  0  0  0
   57.0686   33.2063   43.8651 H   0  0  0  0  0  0  0  0  0  0  0  0
   56.5096   32.1558   45.2224 H   0  0  0  0  0  0  0  0  0  0  0  0
   58.9034   34.7720   44.1605 H   0  0  0  0  0  0  0  0  0  0  0  0
   60.2074   36.1499   45.7836 H   0  0  0  0  0  0  0  0  0  0  0  0
   60.2292   35.5444   48.2045 H   0  0  0  0  0  0  0  0  0  0  0  0
   58.9348   33.5670   49.0096 H   0  0  0  0  0  0  0  0  0  0  0  0
   57.6317   32.1819   47.3938 H   0  0  0  0  0  0  0  0  0  0  0  0
   57.9870   29.3440   42.6320 H   0  0  0  0  0  0  0  0  0  0  0  0
   57.6963   27.0247   43.1932 H   0  0  0  0  0  0  0  0  0  0  0  0
  1  2  2  0
  2  3  1  0
  3  4  1  0
  4  5  1  0
  5  6  1  0
  6  7  1  0
  7  8  1  0
  8  9  2  0
  9 10  1  0
 10 11  2  0
 11 12  1  0
 12 13  1  0
 13 14  1  0
 14 15  2  0
 15 16  1  0
 16 17  2  0
 17 18  1  0
 18 19  2  0
 11 20  1  0
 20 21  2  0
  7  2  1  0
 21  8  1  0
 19 14  1  0
  3 22  1  0
  3 23  1  0
  4 24  1  0
  4 25  1  0
  5 26  1  0
  5 27  1  0
  6 28  1  0
  6 29  1  0
  9 30  1  0
 10 31  1  0
 12 32  1  0
 13 33  1  0
 13 34  1  0
 15 35  1  0
 16 36  1  0
 17 37  1  0
 18 38  1  0
 19 39  1  0
 20 40  1  0
 21 41  1  0
M  CHG  1  20   1
M  END
>  <UniqueID>  (61) 
57

>  <SMILES>  (61) 
O=C1CCCCN1c1ccc(NCc2ccccc2)[nH+]c1

>  <Energy>  (61) 
45.38258272664602

>  <Genealogy>  (61) 
O=C1CCCCN1c1ccc(NCc2ccccc2)[nH+]c1 (protonated)
O=C1CCCCN1c1ccc(NCc2ccccc2)[nH+]c1 (3D coordinates assigned)
O=C1CCCCN1c1ccc(NCc2ccccc2)[nH+]c1 (nonaromatic ring conformer: 45.38258272664602 kcal/mol)

>  <smiles>  (61) 
O=C1CCCCN1c1ccc(NCc2ccccc2)nc1

>  <score_type>  (61) 
oracle

>  <origin>  (61) 
adg

>  <m_score__min__energy>  (61) 
-6.2400000000000002

>  <m_primary>  (61) 
energy

$$$$
61:0
     RDKit          3D

 47 49  0  0  0  0  0  0  0  0999 V2000
   56.2750   29.8060   42.6740 C   0  0  0  0  0  0  0  0  0  0  0  0
   55.8280   30.0860   44.1030 C   0  0  0  0  0  0  0  0  0  0  0  0
   56.4350   31.2790   44.5960 O   0  0  0  0  0  0  0  0  0  0  0  0
   57.8170   31.4940   44.6170 C   0  0  0  0  0  0  0  0  0  0  0  0
   58.5780   30.7310   43.9590 O   0  0  0  0  0  0  0  0  0  0  0  0
   58.3970   32.6240   45.3920 C   0  0  0  0  0  0  0  0  0  0  0  0
   58.6020   33.8610   44.7500 C   0  0  0  0  0  0  0  0  0  0  0  0
   59.1340   34.9490   45.4440 C   0  0  0  0  0  0  0  0  0  0  0  0
   59.4780   34.8200   46.7880 C   0  0  0  0  0  0  0  0  0  0  0  0
   59.2870   33.6050   47.4430 C   0  0  0  0  0  0  0  0  0  0  0  0
   58.7340   32.5010   46.7650 C   0  0  0  0  0  0  0  0  0  0  0  0
   58.5780   31.2450   47.4430 N   0  0  0  0  0  0  0  0  0  0  0  0
   59.3740   30.0700   47.2410 C   0  0  0  0  0  0  0  0  0  0  0  0
   60.6290   30.1870   47.2300 O   0  0  0  0  0  0  0  0  0  0  0  0
   58.7660   28.7410   46.9920 C   0  0  0  0  0  0  0  0  0  0  0  0
   57.7830   28.5750   46.0020 C   0  0  0  0  0  0  0  0  0  0  0  0
   57.2130   27.3180   45.7740 C   0  0  0  0  0  0  0  0  0  0  0  0
   57.6290   26.2090   46.5220 C   0  0  0  0  0  0  0  0  0  0  0  0
   56.9080   24.6280   46.2470 S   0  0  0  0  0  0  0  0  0  0  0  0
   57.4020   23.6580   47.2840 O   0  0  0  0  0  0  0  0  0  0  0  0
   57.3000   24.1430   44.8810 O   0  0  0  0  0  0  0  0  0  0  0  0
   55.1780   24.7620   46.3730 N   0  0  0  0  0  0  0  0  0  0  0  0
   54.5160   23.9820   45.3280 C   0  0  0  0  0  0  0  0  0  0  0  0
   53.3650   23.2160   45.8960 C   0  0  0  0  0  0  0  0  0  0  0  0
   52.2270   22.9600   45.2130 N   0  0  0  0  0  0  0  0  0  0  0  0
   51.3430   22.2420   45.9550 C   0  0  0  0  0  0  0  0  0  0  0  0
   51.7730   21.9180   47.2370 C   0  0  0  0  0  0  0  0  0  0  0  0
   53.3150   22.5560   47.4430 S   0  0  0  0  0  0  0  0  0  0  0  0
   58.6150   26.3680   47.5040 C   0  0  0  0  0  0  0  0  0  0  0  0
   59.1850   27.6230   47.7330 C   0  0  0  0  0  0  0  0  0  0  0  0
   57.2071   29.2221   42.6891 H   0  0  0  0  0  0  0  0  0  0  0  0
   55.4936   29.2357   42.1505 H   0  0  0  0  0  0  0  0  0  0  0  0
   56.4471   30.7580   42.1505 H   0  0  0  0  0  0  0  0  0  0  0  0
   54.7343   30.2023   44.1231 H   0  0  0  0  0  0  0  0  0  0  0  0
   56.1338   29.2437   44.7409 H   0  0  0  0  0  0  0  0  0  0  0  0
   58.3393   33.9710   43.6875 H   0  0  0  0  0  0  0  0  0  0  0  0
   59.2819   35.9097   44.9291 H   0  0  0  0  0  0  0  0  0  0  0  0
   59.9005   35.6775   47.3322 H   0  0  0  0  0  0  0  0  0  0  0  0
   59.5712   33.5069   48.5011 H   0  0  0  0  0  0  0  0  0  0  0  0
   57.4596   29.4387   45.4025 H   0  0  0  0  0  0  0  0  0  0  0  0
   56.4356   27.2000   45.0048 H   0  0  0  0  0  0  0  0  0  0  0  0
   54.1473   24.6630   44.5467 H   0  0  0  0  0  0  0  0  0  0  0  0
   55.2399   23.2720   44.9016 H   0  0  0  0  0  0  0  0  0  0  0  0
   50.3584   21.9391   45.5691 H   0  0  0  0  0  0  0  0  0  0  0  0
   51.2046   21.3453   47.9846 H   0  0  0  0  0  0  0  0  0  0  0  0
   58.9420   25.5014   48.0973 H   0  0  0  0  0  0  0  0  0  0  0  0
   59.9669   27.7366   48.4984 H   0  0  0  0  0  0  0  0  0  0  0  0
  1  2  1  0
  2  3  1  0
  3  4  1  0
  4  5  2  0
  4  6  1  0
  6  7  2  0
  7  8  1  0
  8  9  2  0
  9 10  1  0
 10 11  2  0
 11 12  1  0
 12 13  1  0
 13 14  2  0
 13 15  1  0
 15 16  2  0
 16 17  1  0
 17 18  2  0
 18 19  1  0
 19 20  2  0
 19 21  2  0
 19 22  1  0
 22 23  1  0
 23 24  1  0
 24 25  2  0
 25 26  1  0
 26 27  2  0
 27 28  1  0
 18 29  1  0
 29 30  2  0
 11  6  1  0
 30 15  1  0
 28 24  1  0
  1 31  1  0
  1 32  1  0
  1 33  1  0
  2 34  1  0
  2 35  1  0
  7 36  1  0
  8 37  1  0
  9 38  1  0
 10 39  1  0
 16 40  1  0
 17 41  1  0
 23 42  1  0
 23 43  1  0
 26 44  1  0
 27 45  1  0
 29 46  1  0
 30 47  1  0
M  CHG  2  12  -1  22  -1
M  END
>  <UniqueID>  (62) 
58

>  <SMILES>  (62) 
CCOC(=O)c1ccccc1[N-]C(=O)c1ccc(S(=O)(=O)[N-]Cc2nccs2)cc1

>  <Energy>  (62) 
82.9924363245084

>  <Genealogy>  (62) 
CCOC(=O)c1ccccc1[N-]C(=O)c1ccc(S(=O)(=O)[N-]Cc2nccs2)cc1 (protonated)
CCOC(=O)c1ccccc1[N-]C(=O)c1ccc(S(=O)(=O)[N-]Cc2nccs2)cc1 (3D coordinates assigned)
CCOC(=O)c1ccccc1[N-]C(=O)c1ccc(S(=O)(=O)[N-]Cc2nccs2)cc1 (optimized conformer: 82.9924363245084 kcal/mol)

>  <smiles>  (62) 
CCOC(=O)c1ccccc1NC(=O)c1ccc(S(=O)(=O)NCc2nccs2)cc1

>  <score_type>  (62) 
oracle

>  <origin>  (62) 
adg

>  <m_score__min__energy>  (62) 
-11.279999999999999

>  <m_primary>  (62) 
energy

$$$$
62:0
     RDKit          3D

 44 44  0  0  0  0  0  0  0  0999 V2000
   60.5080   27.5100   48.4580 C   0  0  0  0  0  0  0  0  0  0  0  0
   60.2350   26.4290   47.4180 C   0  0  0  0  0  0  0  0  0  0  0  0
   60.7350   26.8530   46.0310 C   0  0  0  0  0  0  0  0  0  0  0  0
   59.6190   27.4930   45.1840 C   0  0  0  0  0  0  0  0  0  0  0  0
   58.7040   28.3180   45.9960 N   0  0  0  0  0  0  0  0  0  0  0  0
   57.4350   27.7810   46.5210 C   0  0  0  0  0  0  0  0  0  0  0  0
   57.1720   26.3370   46.0750 C   0  0  0  0  0  0  0  0  0  0  0  0
   55.7300   26.0810   45.9890 C   0  0  0  0  0  0  0  0  0  0  0  0
   54.5930   25.8800   45.9200 N   0  0  0  0  0  0  0  0  0  0  0  0
   58.8690   29.7500   45.9810 C   0  0  0  0  0  0  0  0  0  0  0  0
   59.8690   30.3290   46.7730 C   0  0  0  0  0  0  0  0  0  0  0  0
   60.0450   31.7170   46.8250 C   0  0  0  0  0  0  0  0  0  0  0  0
   61.0610   32.2500   47.6870 N   0  0  0  0  0  0  0  0  0  0  0  0
   59.2150   32.5510   46.0450 C   0  0  0  0  0  0  0  0  0  0  0  0
   59.3950   34.3120   46.0510 S   0  0  0  0  0  0  0  0  0  0  0  0
   58.7110   34.9990   47.4850 N   0  0  0  0  0  0  0  0  0  0  0  0
   58.6890   34.8930   44.8570 O   0  0  0  0  0  0  0  0  0  0  0  0
   60.8550   34.6630   45.9960 O   0  0  0  0  0  0  0  0  0  0  0  0
   58.2260   31.9690   45.2350 C   0  0  0  0  0  0  0  0  0  0  0  0
   58.0540   30.5790   45.1810 C   0  0  0  0  0  0  0  0  0  0  0  0
   56.8520   29.9170   44.0600 S   0  0  0  0  0  0  0  0  0  0  0  0
   55.3650   29.6040   44.8820 N   0  0  0  0  0  0  0  0  0  0  0  0
   56.6140   30.8830   42.9350 O   0  0  0  0  0  0  0  0  0  0  0  0
   57.3510   28.6200   43.4880 O   0  0  0  0  0  0  0  0  0  0  0  0
   60.4004   27.0841   49.4665 H   0  0  0  0  0  0  0  0  0  0  0  0
   61.5311   27.8930   48.3289 H   0  0  0  0  0  0  0  0  0  0  0  0
   59.7895   28.3328   48.3289 H   0  0  0  0  0  0  0  0  0  0  0  0
   60.7504   25.5046   47.7178 H   0  0  0  0  0  0  0  0  0  0  0  0
   59.1484   26.2671   47.3615 H   0  0  0  0  0  0  0  0  0  0  0  0
   61.5489   27.5825   46.1550 H   0  0  0  0  0  0  0  0  0  0  0  0
   61.0840   25.9514   45.5063 H   0  0  0  0  0  0  0  0  0  0  0  0
   60.0798   28.1291   44.4139 H   0  0  0  0  0  0  0  0  0  0  0  0
   59.0299   26.6805   44.7336 H   0  0  0  0  0  0  0  0  0  0  0  0
   57.4693   27.8088   47.6201 H   0  0  0  0  0  0  0  0  0  0  0  0
   56.6210   28.4046   46.1228 H   0  0  0  0  0  0  0  0  0  0  0  0
   57.6282   26.1743   45.0874 H   0  0  0  0  0  0  0  0  0  0  0  0
   57.6120   25.6506   46.8134 H   0  0  0  0  0  0  0  0  0  0  0  0
   60.5296   29.6797   47.3663 H   0  0  0  0  0  0  0  0  0  0  0  0
   61.3780   33.2400   47.5820 H   0  0  0  0  0  0  0  0  0  0  0  0
   61.5280   31.6830   48.4270 H   0  0  0  0  0  0  0  0  0  0  0  0
   58.8400   36.0340   47.4180 H   0  0  0  0  0  0  0  0  0  0  0  0
   57.6820   34.8250   47.4510 H   0  0  0  0  0  0  0  0  0  0  0  0
   57.5736   32.6169   44.6311 H   0  0  0  0  0  0  0  0  0  0  0  0
   55.1460   28.5910   44.7420 H   0  0  0  0  0  0  0  0  0  0  0  0
  1  2  1  0
  2  3  1  0
  3  4  1  0
  4  5  1  0
  5  6  1  0
  6  7  1  0
  7  8  1  0
  8  9  3  0
  5 10  1  0
 10 11  2  0
 11 12  1  0
 12 13  1  0
 12 14  2  0
 14 15  1  0
 15 16  1  0
 15 17  2  0
 15 18  2  0
 14 19  1  0
 19 20  2  0
 20 21  1  0
 21 22  1  0
 21 23  2  0
 21 24  2  0
 20 10  1  0
  1 25  1  0
  1 26  1  0
  1 27  1  0
  2 28  1  0
  2 29  1  0
  3 30  1  0
  3 31  1  0
  4 32  1  0
  4 33  1  0
  6 34  1  0
  6 35  1  0
  7 36  1  0
  7 37  1  0
 11 38  1  0
 13 39  1  0
 13 40  1  0
 16 41  1  0
 16 42  1  0
 19 43  1  0
 22 44  1  0
M  CHG  1  22  -1
M  END
>  <UniqueID>  (63) 
59

>  <SMILES>  (63) 
CCCCN(CCC#N)c1cc(N)c(S(N)(=O)=O)cc1S([NH-])(=O)=O

>  <Energy>  (63) 
39.47074448699838

>  <Genealogy>  (63) 
CCCCN(CCC#N)c1cc(N)c(S(N)(=O)=O)cc1S([NH-])(=O)=O (protonated)
CCCCN(CCC#N)c1cc(N)c(S(N)(=O)=O)cc1S([NH-])(=O)=O (3D coordinates assigned)
CCCCN(CCC#N)c1cc(N)c(S(N)(=O)=O)cc1S([NH-])(=O)=O (optimized conformer: 39.47074448699838 kcal/mol)

>  <smiles>  (63) 
CCCCN(CCC#N)c1cc(N)c(S(N)(=O)=O)cc1S(N)(=O)=O

>  <score_type>  (63) 
oracle

>  <origin>  (63) 
adg

>  <m_score__min__energy>  (63) 
-9.4800000000000004

>  <m_primary>  (63) 
energy

$$$$
63:0
     RDKit          3D

 30 31  0  0  0  0  0  0  0  0999 V2000
   55.1720   30.4770   45.2460 H   0  0  0  0  0  0  0  0  0  0  0  0
   55.2370   29.4670   45.1950 O   0  0  0  0  0  0  0  0  0  0  0  0
   56.4630   28.8170   45.0470 C   0  0  0  0  0  0  0  0  0  0  0  0
   56.6430   27.5490   45.6210 C   0  0  0  0  0  0  0  0  0  0  0  0
   55.8203   27.0809   46.1814 H   0  0  0  0  0  0  0  0  0  0  0  0
   57.8600   26.8780   45.4850 C   0  0  0  0  0  0  0  0  0  0  0  0
   57.9930   25.8842   45.9373 H   0  0  0  0  0  0  0  0  0  0  0  0
   58.9060   27.4660   44.7770 C   0  0  0  0  0  0  0  0  0  0  0  0
   59.8638   26.9354   44.6713 H   0  0  0  0  0  0  0  0  0  0  0  0
   58.7410   28.7280   44.2010 C   0  0  0  0  0  0  0  0  0  0  0  0
   59.5719   29.1844   43.6430 H   0  0  0  0  0  0  0  0  0  0  0  0
   57.5240   29.4210   44.3270 C   0  0  0  0  0  0  0  0  0  0  0  0
   57.4080   30.7560   43.6950 C   0  0  0  0  0  0  0  0  0  0  0  0
   57.7046   30.8803   42.6431 H   0  0  0  0  0  0  0  0  0  0  0  0
   56.9640   31.7830   44.3550 N   0  0  0  0  0  0  0  0  0  0  0  0
   57.7160   32.6150   45.2560 C   0  0  0  0  0  0  0  0  0  0  0  0
   58.1510   33.9110   44.9160 C   0  0  0  0  0  0  0  0  0  0  0  0
   57.9238   34.3209   43.9208 H   0  0  0  0  0  0  0  0  0  0  0  0
   58.8710   34.6800   45.8380 C   0  0  0  0  0  0  0  0  0  0  0  0
   59.2125   35.6884   45.5614 H   0  0  0  0  0  0  0  0  0  0  0  0
   59.1600   34.1690   47.1170 C   0  0  0  0  0  0  0  0  0  0  0  0
   59.8790   34.8990   48.0740 O   0  0  0  0  0  0  0  0  0  0  0  0
   60.7940   34.3280   49.0020 C   0  0  0  0  0  0  0  0  0  0  0  0
   60.4560   34.5390   50.0273 H   0  0  0  0  0  0  0  0  0  0  0  0
   60.8412   33.2398   48.8481 H   0  0  0  0  0  0  0  0  0  0  0  0
   61.7922   34.7638   48.8481 H   0  0  0  0  0  0  0  0  0  0  0  0
   58.7140   32.8870   47.4550 C   0  0  0  0  0  0  0  0  0  0  0  0
   58.9312   32.4795   48.4534 H   0  0  0  0  0  0  0  0  0  0  0  0
   57.9950   32.1200   46.5350 C   0  0  0  0  0  0  0  0  0  0  0  0
   57.6445   31.1167   46.8188 H   0  0  0  0  0  0  0  0  0  0  0  0
  1  2  1  0
  2  3  1  0
  3  4  2  0
  4  5  1  0
  4  6  1  0
  6  7  1  0
  6  8  2  0
  8  9  1  0
  8 10  1  0
 10 11  1  0
 10 12  2  0
 12 13  1  0
 13 14  1  0
 13 15  2  0
 15 16  1  0
 16 17  2  0
 17 18  1  0
 17 19  1  0
 19 20  1  0
 19 21  2  0
 21 22  1  0
 22 23  1  0
 23 24  1  0
 23 25  1  0
 23 26  1  0
 21 27  1  0
 27 28  1  0
 27 29  2  0
 29 30  1  0
 12  3  1  0
 29 16  1  0
M  END
>  <UniqueID>  (64) 
60

>  <SMILES>  (64) 
COc1ccc(/N=C/c2ccccc2O)cc1

>  <Energy>  (64) 
34.07867478966921

>  <Genealogy>  (64) 
COc1ccc(/N=C/c2ccccc2O)cc1 (cis-trans isomerization)
COc1ccc(/N=C/c2ccccc2O)cc1 (3D coordinates assigned)
COc1ccc(/N=C/c2ccccc2O)cc1 (optimized conformer: 34.07867478966921 kcal/mol)

>  <smiles>  (64) 
COc1ccc(N=Cc2ccccc2O)cc1

>  <score_type>  (64) 
oracle

>  <origin>  (64) 
adg

>  <m_score__min__energy>  (64) 
-7.0099999999999998

>  <m_primary>  (64) 
energy

$$$$
64:0
     RDKit          3D

 55 58  0  0  0  0  0  0  0  0999 V2000
   55.3190   29.7620   43.7580 C   0  0  0  0  0  0  0  0  0  0  0  0
   56.0880   30.6690   44.5140 O   0  0  0  0  0  0  0  0  0  0  0  0
   57.0670   31.2880   43.7000 C   0  0  0  0  0  0  0  0  0  0  0  0
   58.4720   30.7880   44.0550 C   0  0  0  0  0  0  0  0  0  0  0  0
   58.4080   29.7020   45.0510 N   0  0  0  0  0  0  0  0  0  0  0  0
   58.0750   28.4120   44.6880 C   0  0  0  0  0  0  0  0  0  0  0  0
   57.8400   28.1470   43.4750 O   0  0  0  0  0  0  0  0  0  0  0  0
   57.9990   27.4030   45.6360 N   0  0  0  0  0  0  0  0  0  0  0  0
   57.6860   26.0230   45.2180 C   0  0  0  0  0  0  0  0  0  0  0  0
   56.2680   25.6960   45.5610 C   0  0  0  0  0  0  0  0  0  0  0  0
   55.6160   26.4640   46.3200 O   0  0  0  0  0  0  0  0  0  0  0  0
   55.6670   24.5120   45.0220 N   0  0  0  0  0  0  0  0  0  0  0  0
   56.3570   23.3930   44.4490 C   0  0  0  0  0  0  0  0  0  0  0  0
   55.9320   22.9060   43.2050 C   0  0  0  0  0  0  0  0  0  0  0  0
   56.5970   21.8350   42.5990 C   0  0  0  0  0  0  0  0  0  0  0  0
   57.7010   21.2510   43.2280 C   0  0  0  0  0  0  0  0  0  0  0  0
   58.1460   21.7440   44.4570 C   0  0  0  0  0  0  0  0  0  0  0  0
   57.4840   22.8160   45.0650 C   0  0  0  0  0  0  0  0  0  0  0  0
   58.2730   27.6740   46.9580 C   0  0  0  0  0  0  0  0  0  0  0  0
   58.2450   26.7670   47.8360 O   0  0  0  0  0  0  0  0  0  0  0  0
   58.5860   28.9730   47.3150 C   0  0  0  0  0  0  0  0  0  0  0  0
   58.8940   29.5460   48.5300 C   0  0  0  0  0  0  0  0  0  0  0  0
   59.1270   30.8650   48.3330 N   0  0  0  0  0  0  0  0  0  0  0  0
   59.5590   31.8170   49.3520 C   0  0  0  0  0  0  0  0  0  0  0  0
   60.9950   32.1980   49.1180 C   0  0  0  0  0  0  0  0  0  0  0  0
   62.0300   31.3680   49.5780 C   0  0  0  0  0  0  0  0  0  0  0  0
   63.3660   31.7440   49.4000 C   0  0  0  0  0  0  0  0  0  0  0  0
   63.6740   32.9550   48.7730 C   0  0  0  0  0  0  0  0  0  0  0  0
   64.9700   33.3190   48.6030 F   0  0  0  0  0  0  0  0  0  0  0  0
   62.6480   33.7930   48.3280 C   0  0  0  0  0  0  0  0  0  0  0  0
   61.3120   33.4210   48.5030 C   0  0  0  0  0  0  0  0  0  0  0  0
   58.9860   31.1270   47.0120 C   0  0  0  0  0  0  0  0  0  0  0  0
   58.6420   29.9500   46.3710 C   0  0  0  0  0  0  0  0  0  0  0  0
   54.7591   29.1016   44.4365 H   0  0  0  0  0  0  0  0  0  0  0  0
   54.6138   30.3190   43.1237 H   0  0  0  0  0  0  0  0  0  0  0  0
   55.9839   29.1574   43.1237 H   0  0  0  0  0  0  0  0  0  0  0  0
   56.8579   31.0549   42.6455 H   0  0  0  0  0  0  0  0  0  0  0  0
   57.0281   32.3742   43.8694 H   0  0  0  0  0  0  0  0  0  0  0  0
   58.9617   30.4130   43.1442 H   0  0  0  0  0  0  0  0  0  0  0  0
   59.0449   31.6239   44.4827 H   0  0  0  0  0  0  0  0  0  0  0  0
   57.8291   25.9299   44.1313 H   0  0  0  0  0  0  0  0  0  0  0  0
   58.3554   25.3253   45.7426 H   0  0  0  0  0  0  0  0  0  0  0  0
   55.0701   23.3691   42.7023 H   0  0  0  0  0  0  0  0  0  0  0  0
   56.2515   21.4520   41.6274 H   0  0  0  0  0  0  0  0  0  0  0  0
   58.2189   20.4036   42.7551 H   0  0  0  0  0  0  0  0  0  0  0  0
   59.0187   21.2884   44.9477 H   0  0  0  0  0  0  0  0  0  0  0  0
   57.8449   23.2092   46.0269 H   0  0  0  0  0  0  0  0  0  0  0  0
   58.9423   29.0210   49.4954 H   0  0  0  0  0  0  0  0  0  0  0  0
   58.9294   32.7175   49.3007 H   0  0  0  0  0  0  0  0  0  0  0  0
   59.4636   31.3538   50.3452 H   0  0  0  0  0  0  0  0  0  0  0  0
   61.7897   30.4191   50.0799 H   0  0  0  0  0  0  0  0  0  0  0  0
   64.1741   31.0866   49.7535 H   0  0  0  0  0  0  0  0  0  0  0  0
   62.8923   34.7475   47.8389 H   0  0  0  0  0  0  0  0  0  0  0  0
   60.5072   34.0870   48.1586 H   0  0  0  0  0  0  0  0  0  0  0  0
   59.1216   32.1070   46.5312 H   0  0  0  0  0  0  0  0  0  0  0  0
  1  2  1  0
  2  3  1  0
  3  4  1  0
  4  5  1  0
  5  6  1  0
  6  7  2  0
  6  8  1  0
  8  9  1  0
  9 10  1  0
 10 11  2  0
 10 12  1  0
 12 13  1  0
 13 14  2  0
 14 15  1  0
 15 16  2  0
 16 17  1  0
 17 18  2  0
  8 19  1  0
 19 20  2  0
 19 21  1  0
 21 22  2  0
 22 23  1  0
 23 24  1  0
 24 25  1  0
 25 26  2  0
 26 27  1  0
 27 28  2  0
 28 29  1  0
 28 30  1  0
 30 31  2  0
 23 32  1  0
 32 33  2  0
 33  5  1  0
 18 13  1  0
 33 21  1  0
 31 25  1  0
  1 34  1  0
  1 35  1  0
  1 36  1  0
  3 37  1  0
  3 38  1  0
  4 39  1  0
  4 40  1  0
  9 41  1  0
  9 42  1  0
 14 43  1  0
 15 44  1  0
 16 45  1  0
 17 46  1  0
 18 47  1  0
 22 48  1  0
 24 49  1  0
 24 50  1  0
 26 51  1  0
 27 52  1  0
 30 53  1  0
 31 54  1  0
 32 55  1  0
M  CHG  1  12  -1
M  END
>  <UniqueID>  (65) 
61

>  <SMILES>  (65) 
COCCn1c(=O)n(CC(=O)[N-]c2ccccc2)c(=O)c2cn(Cc3ccc(F)cc3)cc21

>  <Energy>  (65) 
101.36778343040474

>  <Genealogy>  (65) 
COCCn1c(=O)n(CC(=O)[N-]c2ccccc2)c(=O)c2cn(Cc3ccc(F)cc3)cc21 (protonated)
COCCn1c(=O)n(CC(=O)[N-]c2ccccc2)c(=O)c2cn(Cc3ccc(F)cc3)cc21 (3D coordinates assigned)
COCCn1c(=O)n(CC(=O)[N-]c2ccccc2)c(=O)c2cn(Cc3ccc(F)cc3)cc21 (optimized conformer: 101.36778343040474 kcal/mol)

>  <smiles>  (65) 
COCCn1c(=O)n(CC(=O)Nc2ccccc2)c(=O)c2cn(Cc3ccc(F)cc3)cc21

>  <score_type>  (65) 
oracle

>  <origin>  (65) 
adg

>  <m_score__min__energy>  (65) 
-9.9399999999999995

>  <m_primary>  (65) 
energy

$$$$
65:0
     RDKit          3D

 41 44  0  0  1  0  0  0  0  0999 V2000
   58.2170   23.5290   45.2330 C   0  0  0  0  0  0  0  0  0  0  0  0
   58.2090   24.9300   45.6110 N   0  0  0  0  0  0  0  0  0  0  0  0
   57.5350   25.9060   44.9490 C   0  0  0  0  0  0  0  0  0  0  0  0
   57.7450   27.1140   45.5730 C   0  0  0  0  0  0  0  0  0  0  0  0
   57.2440   28.4430   45.2380 C   0  0  0  0  0  0  0  0  0  0  0  0
   57.9470   29.5940   45.1800 N   0  0  0  0  0  0  0  0  0  0  0  0
   57.1500   30.6270   44.8440 C   0  0  0  0  0  0  0  0  0  0  0  0
   57.4310   32.0000   44.6800 N   0  0  0  0  0  0  0  0  0  0  0  0
   58.1540   32.7310   45.4220 C   0  0  0  0  0  0  0  0  0  0  0  0
   57.6040   33.8820   45.9710 C   0  0  0  0  0  0  0  0  0  0  0  0
   58.4220   34.6330   46.7760 C   0  0  0  0  0  0  0  0  0  0  0  0
   59.7060   34.3020   47.0460 N   0  0  0  0  0  0  0  0  0  0  0  0
   60.2150   33.1810   46.5030 C   0  0  0  0  0  0  0  0  0  0  0  0
   61.5640   32.8470   46.8000 N   0  0  0  0  0  0  0  0  0  0  0  0
   61.8470   31.5620   47.4040 C   0  0  0  0  0  0  0  0  0  0  0  0
   63.2210   31.6500   48.0440 C   0  0  0  0  0  0  0  0  0  0  0  0
   63.3930   32.9420   48.5690 O   0  0  0  0  0  0  0  0  0  0  0  0
   63.6900   33.7740   47.5070 C   0  0  0  0  0  0  0  0  0  0  0  0
   62.5820   33.8200   46.4750 C   0  0  0  0  0  0  0  0  0  0  0  0
   59.4380   32.4180   45.7040 N   0  0  0  0  0  0  0  0  0  0  0  0
   55.9180   30.0850   44.6930 N   0  0  0  0  0  0  0  0  0  0  0  0
   55.9780   28.7850   44.9280 N   0  0  0  0  0  0  0  0  0  0  0  0
   58.5740   26.8320   46.6410 C   0  0  0  0  0  0  0  0  0  0  0  0
   58.8380   25.5150   46.6420 N   0  0  0  0  0  0  0  0  0  0  0  0
   58.2206   22.9049   46.1388 H   0  0  0  0  0  0  0  0  0  0  0  0
   57.3201   23.3049   44.6368 H   0  0  0  0  0  0  0  0  0  0  0  0
   59.1164   23.3152   44.6368 H   0  0  0  0  0  0  0  0  0  0  0  0
   56.9165   25.7539   44.0521 H   0  0  0  0  0  0  0  0  0  0  0  0
   56.5635   34.1769   45.7701 H   0  0  0  0  0  0  0  0  0  0  0  0
   58.0137   35.5506   47.2247 H   0  0  0  0  0  0  0  0  0  0  0  0
   60.3170   34.8850   47.6640 H   0  0  0  0  0  0  0  0  0  0  0  0
   61.0907   31.3320   48.1689 H   0  0  0  0  0  0  0  0  0  0  0  0
   61.8233   30.7647   46.6465 H   0  0  0  0  0  0  0  0  0  0  0  0
   63.3006   30.9085   48.8526 H   0  0  0  0  0  0  0  0  0  0  0  0
   63.9977   31.4450   47.2925 H   0  0  0  0  0  0  0  0  0  0  0  0
   63.8553   34.7911   47.8919 H   0  0  0  0  0  0  0  0  0  0  0  0
   64.5887   33.3758   47.0132 H   0  0  0  0  0  0  0  0  0  0  0  0
   62.1353   34.8251   46.4645 H   0  0  0  0  0  0  0  0  0  0  0  0
   63.0007   33.5879   45.4846 H   0  0  0  0  0  0  0  0  0  0  0  0
   55.1450   28.1470   44.8710 H   0  0  0  0  0  0  0  0  0  0  0  0
   58.9545   27.5636   47.3690 H   0  0  0  0  0  0  0  0  0  0  0  0
  1  2  1  0
  2  3  1  0
  3  4  2  0
  4  5  1  0
  5  6  2  0
  6  7  1  0
  7  8  1  0
  8  9  2  0
  9 10  1  0
 10 11  2  0
 11 12  1  0
 12 13  1  0
 13 14  1  0
 14 15  1  0
 15 16  1  0
 16 17  1  0
 17 18  1  0
 18 19  1  0
 13 20  2  0
  7 21  2  0
 21 22  1  0
  4 23  1  0
 23 24  2  0
 24  2  1  0
 22  5  1  0
 20  9  1  0
 19 14  1  0
  1 25  1  0
  1 26  1  0
  1 27  1  0
  3 28  1  0
 10 29  1  0
 11 30  1  0
 12 31  1  0
 15 32  1  0
 15 33  1  0
 16 34  1  0
 16 35  1  0
 18 36  1  0
 18 37  1  0
 19 38  1  0
 19 39  1  0
 22 40  1  0
 23 41  1  0
M  END
>  <smiles>  (66) 
Cn1cc(-c2nc(N=c3cc[nH]c(N4CCOCC4)n3)n[nH]2)cn1

>  <score_type>  (66) 
oracle

>  <origin>  (66) 
adg

>  <m_score__min__energy>  (66) 
-7.6500000000000004

>  <m_primary>  (66) 
energy

$$$$
66:0
     RDKit          3D

 30 30  0  0  0  0  0  0  0  0999 V2000
   60.0700   34.4490   48.8720 C   0  0  0  0  0  0  0  0  0  0  0  0
   59.3330   34.8750   47.7290 O   0  0  0  0  0  0  0  0  0  0  0  0
   58.8220   34.0090   46.7500 C   0  0  0  0  0  0  0  0  0  0  0  0
   58.6740   32.6270   46.9660 C   0  0  0  0  0  0  0  0  0  0  0  0
   58.1580   31.8060   45.9590 C   0  0  0  0  0  0  0  0  0  0  0  0
   57.7760   32.3490   44.7180 C   0  0  0  0  0  0  0  0  0  0  0  0
   57.2280   31.4910   43.6350 C   0  0  0  0  0  0  0  0  0  0  0  0
   57.6420   31.6550   42.4540 O   0  0  0  0  0  0  0  0  0  0  0  0
   56.2300   30.3940   43.9230 C   0  0  0  0  0  0  0  0  0  0  0  0
   56.8820   29.1160   44.4680 C   0  0  0  0  0  0  0  0  0  0  0  0
   55.9270   28.3290   45.2440 N   0  0  0  0  0  0  0  0  0  0  0  0
   56.1940   27.0080   45.7270 C   0  0  0  0  0  0  0  0  0  0  0  0
   57.6050   26.5630   45.9130 C   0  0  0  0  0  0  0  0  0  0  0  0
   55.2470   26.2390   46.0440 O   0  0  0  0  0  0  0  0  0  0  0  0
   57.9360   33.7300   44.5070 C   0  0  0  0  0  0  0  0  0  0  0  0
   58.4500   34.5480   45.5150 C   0  0  0  0  0  0  0  0  0  0  0  0
   59.5395   34.7556   49.7855 H   0  0  0  0  0  0  0  0  0  0  0  0
   60.1702   33.3537   48.8563 H   0  0  0  0  0  0  0  0  0  0  0  0
   61.0691   34.9089   48.8563 H   0  0  0  0  0  0  0  0  0  0  0  0
   58.9658   32.1899   47.9323 H   0  0  0  0  0  0  0  0  0  0  0  0
   58.0496   30.7261   46.1381 H   0  0  0  0  0  0  0  0  0  0  0  0
   55.5083   30.7634   44.6664 H   0  0  0  0  0  0  0  0  0  0  0  0
   55.7437   30.1343   42.9711 H   0  0  0  0  0  0  0  0  0  0  0  0
   57.2456   28.5104   43.6248 H   0  0  0  0  0  0  0  0  0  0  0  0
   57.7158   29.4021   45.1260 H   0  0  0  0  0  0  0  0  0  0  0  0
   57.8286   26.4925   46.9877 H   0  0  0  0  0  0  0  0  0  0  0  0
   57.7435   25.5776   45.4442 H   0  0  0  0  0  0  0  0  0  0  0  0
   58.2838   27.2907   45.4442 H   0  0  0  0  0  0  0  0  0  0  0  0
   57.6537   34.1698   43.5391 H   0  0  0  0  0  0  0  0  0  0  0  0
   58.5634   35.6273   45.3356 H   0  0  0  0  0  0  0  0  0  0  0  0
  1  2  1  0
  2  3  1  0
  3  4  2  0
  4  5  1  0
  5  6  2  0
  6  7  1  0
  7  8  2  0
  7  9  1  0
  9 10  1  0
 10 11  1  0
 11 12  1  0
 12 13  1  0
 12 14  2  0
  6 15  1  0
 15 16  2  0
 16  3  1  0
  1 17  1  0
  1 18  1  0
  1 19  1  0
  4 20  1  0
  5 21  1  0
  9 22  1  0
  9 23  1  0
 10 24  1  0
 10 25  1  0
 13 26  1  0
 13 27  1  0
 13 28  1  0
 15 29  1  0
 16 30  1  0
M  CHG  1  11  -1
M  END
>  <UniqueID>  (67) 
62

>  <SMILES>  (67) 
COc1ccc(C(=O)CC[N-]C(C)=O)cc1

>  <Energy>  (67) 
24.407893971233534

>  <Genealogy>  (67) 
COc1ccc(C(=O)CC[N-]C(C)=O)cc1 (protonated)
COc1ccc(C(=O)CC[N-]C(C)=O)cc1 (3D coordinates assigned)
COc1ccc(C(=O)CC[N-]C(C)=O)cc1 (optimized conformer: 24.407893971233534 kcal/mol)

>  <smiles>  (67) 
COc1ccc(C(=O)CCNC(C)=O)cc1

>  <score_type>  (67) 
oracle

>  <origin>  (67) 
adg

>  <m_score__min__energy>  (67) 
-8.3900000000000006

>  <m_primary>  (67) 
energy

$$$$
67:0
     RDKit          3D

 68 72  0  0  0  0  0  0  0  0999 V2000
   68.4530   34.4640   52.8780 C   0  0  0  0  0  0  0  0  0  0  0  0
   68.0770   34.3570   51.4620 N   0  0  0  0  0  0  0  0  0  0  0  0
   69.0860   34.6560   50.4380 C   0  0  0  0  0  0  0  0  0  0  0  0
   66.7310   33.9630   51.0810 C   0  0  0  0  0  0  0  0  0  0  0  0
   66.5140   32.9710   50.1020 C   0  0  0  0  0  0  0  0  0  0  0  0
   65.2190   32.5960   49.7330 C   0  0  0  0  0  0  0  0  0  0  0  0
   64.1030   33.2000   50.3320 C   0  0  0  0  0  0  0  0  0  0  0  0
   62.7330   32.8070   49.9380 C   0  0  0  0  0  0  0  0  0  0  0  0
   62.2940   32.8320   48.6610 N   0  0  0  0  0  0  0  0  0  0  0  0
   61.0170   32.4140   48.7380 C   0  0  0  0  0  0  0  0  0  0  0  0
   60.1660   32.2150   47.5450 C   0  0  0  0  0  0  0  0  0  0  0  0
   60.0050   30.9310   47.0110 C   0  0  0  0  0  0  0  0  0  0  0  0
   59.2010   30.7240   45.8880 C   0  0  0  0  0  0  0  0  0  0  0  0
   58.5210   31.8000   45.2770 C   0  0  0  0  0  0  0  0  0  0  0  0
   57.6910   31.5880   44.1030 N   0  0  0  0  0  0  0  0  0  0  0  0
   57.9170   32.3670   42.8770 C   0  0  0  0  0  0  0  0  0  0  0  0
   56.6140   30.5910   44.1190 C   0  0  0  0  0  0  0  0  0  0  0  0
   58.6680   33.0850   45.8410 C   0  0  0  0  0  0  0  0  0  0  0  0
   59.4730   33.2870   46.9650 C   0  0  0  0  0  0  0  0  0  0  0  0
   60.7100   32.1570   50.0670 C   0  0  0  0  0  0  0  0  0  0  0  0
   59.4050   31.7750   50.6470 C   0  0  0  0  0  0  0  0  0  0  0  0
   58.9930   30.4350   50.6090 C   0  0  0  0  0  0  0  0  0  0  0  0
   57.7740   30.0530   51.1770 C   0  0  0  0  0  0  0  0  0  0  0  0
   56.9490   31.0050   51.7970 C   0  0  0  0  0  0  0  0  0  0  0  0
   55.7040   30.6070   52.4050 N   0  0  0  0  0  0  0  0  0  0  0  0
   54.4390   30.7960   51.6830 C   0  0  0  0  0  0  0  0  0  0  0  0
   53.3230   29.9510   52.3130 C   0  0  0  0  0  0  0  0  0  0  0  0
   53.8340   28.6290   52.6990 N   0  0  0  0  0  0  0  0  0  0  0  0
   54.8730   28.7020   53.7480 C   0  0  0  0  0  0  0  0  0  0  0  0
   55.6670   30.0250   53.7510 C   0  0  0  0  0  0  0  0  0  0  0  0
   57.3750   32.3410   51.8580 C   0  0  0  0  0  0  0  0  0  0  0  0
   58.5950   32.7220   51.2940 C   0  0  0  0  0  0  0  0  0  0  0  0
   61.7970   32.3990   50.8210 N   0  0  0  0  0  0  0  0  0  0  0  0
   64.3090   34.1860   51.3100 C   0  0  0  0  0  0  0  0  0  0  0  0
   65.6030   34.5640   51.6780 C   0  0  0  0  0  0  0  0  0  0  0  0
   67.5853   34.2171   53.5074 H   0  0  0  0  0  0  0  0  0  0  0  0
   69.2734   33.7637   53.0934 H   0  0  0  0  0  0  0  0  0  0  0  0
   68.7818   35.4914   53.0934 H   0  0  0  0  0  0  0  0  0  0  0  0
   70.0314   34.9362   50.9256 H   0  0  0  0  0  0  0  0  0  0  0  0
   69.2464   33.7668   49.8107 H   0  0  0  0  0  0  0  0  0  0  0  0
   68.7361   35.4890   49.8107 H   0  0  0  0  0  0  0  0  0  0  0  0
   67.3764   32.4854   49.6219 H   0  0  0  0  0  0  0  0  0  0  0  0
   65.0735   31.8207   48.9664 H   0  0  0  0  0  0  0  0  0  0  0  0
   60.5163   30.0775   47.4801 H   0  0  0  0  0  0  0  0  0  0  0  0
   59.0962   29.7101   45.4744 H   0  0  0  0  0  0  0  0  0  0  0  0
   58.2144   33.3920   43.1434 H   0  0  0  0  0  0  0  0  0  0  0  0
   58.7155   31.8957   42.2851 H   0  0  0  0  0  0  0  0  0  0  0  0
   56.9903   32.3962   42.2851 H   0  0  0  0  0  0  0  0  0  0  0  0
   56.3532   30.3496   45.1600 H   0  0  0  0  0  0  0  0  0  0  0  0
   55.7307   30.9972   43.6045 H   0  0  0  0  0  0  0  0  0  0  0  0
   56.9509   29.6790   43.6045 H   0  0  0  0  0  0  0  0  0  0  0  0
   58.1418   33.9391   45.3898 H   0  0  0  0  0  0  0  0  0  0  0  0
   59.5637   34.2942   47.3979 H   0  0  0  0  0  0  0  0  0  0  0  0
   59.6330   29.6798   50.1293 H   0  0  0  0  0  0  0  0  0  0  0  0
   57.4592   28.9997   51.1379 H   0  0  0  0  0  0  0  0  0  0  0  0
   54.1549   31.8579   51.7242 H   0  0  0  0  0  0  0  0  0  0  0  0
   54.5768   30.4780   50.6390 H   0  0  0  0  0  0  0  0  0  0  0  0
   52.9396   30.4658   53.2063 H   0  0  0  0  0  0  0  0  0  0  0  0
   52.5172   29.8195   51.5759 H   0  0  0  0  0  0  0  0  0  0  0  0
   54.2430   28.1730   51.8490 H   0  0  0  0  0  0  0  0  0  0  0  0
   54.3849   28.5888   54.7273 H   0  0  0  0  0  0  0  0  0  0  0  0
   55.5939   27.8976   53.5397 H   0  0  0  0  0  0  0  0  0  0  0  0
   55.1844   30.7349   54.4388 H   0  0  0  0  0  0  0  0  0  0  0  0
   56.6972   29.8200   54.0776 H   0  0  0  0  0  0  0  0  0  0  0  0
   56.7437   33.0934   52.3534 H   0  0  0  0  0  0  0  0  0  0  0  0
   58.9230   33.7701   51.3572 H   0  0  0  0  0  0  0  0  0  0  0  0
   63.4437   34.6655   51.7911 H   0  0  0  0  0  0  0  0  0  0  0  0
   65.7440   35.3410   52.4438 H   0  0  0  0  0  0  0  0  0  0  0  0
  1  2  1  0
  2  3  1  0
  2  4  1  0
  4  5  2  0
  5  6  1  0
  6  7  2  0
  7  8  1  0
  8  9  2  0
  9 10  1  0
 10 11  1  0
 11 12  2  0
 12 13  1  0
 13 14  2  0
 14 15  1  0
 15 16  1  0
 15 17  1  0
 14 18  1  0
 18 19  2  0
 10 20  2  0
 20 21  1  0
 21 22  2  0
 22 23  1  0
 23 24  2  0
 24 25  1  0
 25 26  1  0
 26 27  1  0
 27 28  1  0
 28 29  1  0
 29 30  1  0
 24 31  1  0
 31 32  2  0
 20 33  1  0
  7 34  1  0
 34 35  2  0
 35  4  1  0
 33  8  1  0
 19 11  1  0
 32 21  1  0
 30 25  1  0
  1 36  1  0
  1 37  1  0
  1 38  1  0
  3 39  1  0
  3 40  1  0
  3 41  1  0
  5 42  1  0
  6 43  1  0
 12 44  1  0
 13 45  1  0
 16 46  1  0
 16 47  1  0
 16 48  1  0
 17 49  1  0
 17 50  1  0
 17 51  1  0
 18 52  1  0
 19 53  1  0
 22 54  1  0
 23 55  1  0
 26 56  1  0
 26 57  1  0
 27 58  1  0
 27 59  1  0
 28 60  1  0
 29 61  1  0
 29 62  1  0
 30 63  1  0
 30 64  1  0
 31 65  1  0
 32 66  1  0
 34 67  1  0
 35 68  1  0
M  CHG  1  33  -1
M  END
>  <UniqueID>  (68) 
63

>  <SMILES>  (68) 
CN(C)c1ccc(-c2nc(-c3ccc(N(C)C)cc3)c(-c3ccc(N4CCNCC4)cc3)[n-]2)cc1

>  <Energy>  (68) 
119.94230801820284

>  <Genealogy>  (68) 
CN(C)c1ccc(-c2nc(-c3ccc(N(C)C)cc3)c(-c3ccc(N4CCNCC4)cc3)[n-]2)cc1 (protonated)
CN(C)c1ccc(-c2nc(-c3ccc(N(C)C)cc3)c(-c3ccc(N4CCNCC4)cc3)[n-]2)cc1 (3D coordinates assigned)
CN(C)c1ccc(-c2nc(-c3ccc(N(C)C)cc3)c(-c3ccc(N4CCNCC4)cc3)[n-]2)cc1 (nonaromatic ring conformer: 119.94230801820284 kcal/mol)

>  <smiles>  (68) 
CN(C)c1ccc(-c2nc(-c3ccc(N(C)C)cc3)c(-c3ccc(N4CCNCC4)cc3)[nH]2)cc1

>  <score_type>  (68) 
oracle

>  <origin>  (68) 
adg

>  <m_score__min__energy>  (68) 
-8.7599999999999998

>  <m_primary>  (68) 
energy

$$$$
68:0
     RDKit          3D

 78 84  0  0  0  0  0  0  0  0999 V2000
   58.5200   23.9960   46.3710 C   0  0  0  0  0  0  0  0  0  0  0  0
   57.7930   23.4940   45.1470 C   0  0  0  0  0  0  0  0  0  0  0  0
   57.5740   22.1100   44.9550 C   0  0  0  0  0  0  0  0  0  0  0  0
   58.0840   21.1980   45.8970 O   0  0  0  0  0  0  0  0  0  0  0  0
   57.4830   19.9480   46.2320 C   0  0  0  0  0  0  0  0  0  0  0  0
   56.3080   20.1730   47.1880 C   0  0  0  0  0  0  0  0  0  0  0  0
   55.5280   21.4270   46.8760 C   0  0  0  0  0  0  0  0  0  0  0  0
   54.4690   21.5380   45.9830 C   0  0  0  0  0  0  0  0  0  0  0  0
   54.0460   22.8510   46.0970 C   0  0  0  0  0  0  0  0  0  0  0  0
   54.8000   23.4750   47.0210 N   0  0  0  0  0  0  0  0  0  0  0  0
   55.6860   22.6160   47.5010 N   0  0  0  0  0  0  0  0  0  0  0  0
   56.6700   22.9470   48.5250 C   0  0  0  0  0  0  0  0  0  0  0  0
   56.8600   21.6730   43.8220 C   0  0  0  0  0  0  0  0  0  0  0  0
   56.3900   22.5890   42.8820 C   0  0  0  0  0  0  0  0  0  0  0  0
   56.6200   23.9520   43.0570 C   0  0  0  0  0  0  0  0  0  0  0  0
   57.3080   24.4150   44.1870 C   0  0  0  0  0  0  0  0  0  0  0  0
   57.5450   25.8690   44.3280 C   0  0  0  0  0  0  0  0  0  0  0  0
   58.4730   26.4680   43.4680 C   0  0  0  0  0  0  0  0  0  0  0  0
   58.7370   27.8330   43.5540 C   0  0  0  0  0  0  0  0  0  0  0  0
   58.0710   28.6060   44.5160 C   0  0  0  0  0  0  0  0  0  0  0  0
   58.3510   30.0150   44.6680 N   0  0  0  0  0  0  0  0  0  0  0  0
   57.6070   31.0120   43.8950 C   0  0  0  0  0  0  0  0  0  0  0  0
   57.0100   32.0440   44.8420 C   0  0  0  0  0  0  0  0  0  0  0  0
   58.0200   32.5480   45.8430 C   0  0  0  0  0  0  0  0  0  0  0  0
   57.7400   33.7410   46.5250 C   0  0  0  0  0  0  0  0  0  0  0  0
   58.5770   34.1860   47.5450 C   0  0  0  0  0  0  0  0  0  0  0  0
   59.7010   33.4450   47.9030 C   0  0  0  0  0  0  0  0  0  0  0  0
   60.0200   32.2580   47.2280 C   0  0  0  0  0  0  0  0  0  0  0  0
   61.2110   31.5010   47.6620 C   0  0  0  0  0  0  0  0  0  0  0  0
   61.9350   30.9250   46.8060 O   0  0  0  0  0  0  0  0  0  0  0  0
   61.5290   31.4400   49.0610 N   0  0  0  0  0  0  0  0  0  0  0  0
   62.5200   32.0260   49.6680 C   0  0  0  0  0  0  0  0  0  0  0  0
   63.8020   31.6340   49.4730 N   0  0  0  0  0  0  0  0  0  0  0  0
   64.6650   32.4260   50.1590 C   0  0  0  0  0  0  0  0  0  0  0  0
   66.0530   32.2790   50.1450 C   0  0  0  0  0  0  0  0  0  0  0  0
   66.8400   33.1840   50.8810 C   0  0  0  0  0  0  0  0  0  0  0  0
   66.2320   34.2180   51.6230 C   0  0  0  0  0  0  0  0  0  0  0  0
   64.8350   34.3550   51.6330 C   0  0  0  0  0  0  0  0  0  0  0  0
   64.0790   33.4460   50.8930 C   0  0  0  0  0  0  0  0  0  0  0  0
   62.4140   33.3770   50.7000 S   0  0  0  0  0  0  0  0  0  0  0  0
   59.1650   31.7870   46.1970 C   0  0  0  0  0  0  0  0  0  0  0  0
   59.4780   30.4850   45.4810 C   0  0  0  0  0  0  0  0  0  0  0  0
   57.1610   28.0060   45.3310 N   0  0  0  0  0  0  0  0  0  0  0  0
   56.8720   26.6750   45.2780 C   0  0  0  0  0  0  0  0  0  0  0  0
   55.8750   26.1440   46.2360 C   0  0  0  0  0  0  0  0  0  0  0  0
   56.2670   25.5930   47.2970 O   0  0  0  0  0  0  0  0  0  0  0  0
   54.5080   26.2120   45.9870 O   0  0  0  0  0  0  0  0  0  0  0  0
   58.0046   23.6401   47.2753 H   0  0  0  0  0  0  0  0  0  0  0  0
   59.5529   23.6178   46.3648 H   0  0  0  0  0  0  0  0  0  0  0  0
   58.5322   25.0959   46.3648 H   0  0  0  0  0  0  0  0  0  0  0  0
   57.1190   19.4612   45.3152 H   0  0  0  0  0  0  0  0  0  0  0  0
   58.2306   19.3071   46.7222 H   0  0  0  0  0  0  0  0  0  0  0  0
   55.6286   19.3107   47.1180 H   0  0  0  0  0  0  0  0  0  0  0  0
   56.7234   20.2862   48.2002 H   0  0  0  0  0  0  0  0  0  0  0  0
   54.0575   20.7548   45.3294 H   0  0  0  0  0  0  0  0  0  0  0  0
   53.2263   23.3102   45.5250 H   0  0  0  0  0  0  0  0  0  0  0  0
   54.7070   24.4710   47.3220 H   0  0  0  0  0  0  0  0  0  0  0  0
   56.2272   22.7980   49.5208 H   0  0  0  0  0  0  0  0  0  0  0  0
   57.5489   22.2951   48.4133 H   0  0  0  0  0  0  0  0  0  0  0  0
   56.9762   23.9976   48.4133 H   0  0  0  0  0  0  0  0  0  0  0  0
   56.6715   20.5989   43.6776 H   0  0  0  0  0  0  0  0  0  0  0  0
   55.8362   22.2348   42.0000 H   0  0  0  0  0  0  0  0  0  0  0  0
   56.2597   24.6686   42.3042 H   0  0  0  0  0  0  0  0  0  0  0  0
   58.9974   25.8565   42.7190 H   0  0  0  0  0  0  0  0  0  0  0  0
   59.4625   28.3011   42.8724 H   0  0  0  0  0  0  0  0  0  0  0  0
   58.2871   31.5115   43.1894 H   0  0  0  0  0  0  0  0  0  0  0  0
   56.7998   30.5159   43.3361 H   0  0  0  0  0  0  0  0  0  0  0  0
   56.6408   32.8954   44.2515 H   0  0  0  0  0  0  0  0  0  0  0  0
   56.1940   31.5603   45.3988 H   0  0  0  0  0  0  0  0  0  0  0  0
   56.8520   34.3300   46.2520 H   0  0  0  0  0  0  0  0  0  0  0  0
   58.3499   35.1257   48.0698 H   0  0  0  0  0  0  0  0  0  0  0  0
   60.3448   33.7946   48.7235 H   0  0  0  0  0  0  0  0  0  0  0  0
   66.5238   31.4692   49.5683 H   0  0  0  0  0  0  0  0  0  0  0  0
   67.9355   33.0845   50.8776 H   0  0  0  0  0  0  0  0  0  0  0  0
   66.8552   34.9201   52.1963 H   0  0  0  0  0  0  0  0  0  0  0  0
   64.3499   35.1571   52.2086 H   0  0  0  0  0  0  0  0  0  0  0  0
   60.3471   30.6415   44.8251 H   0  0  0  0  0  0  0  0  0  0  0  0
   59.6853   29.7210   46.2447 H   0  0  0  0  0  0  0  0  0  0  0  0
  1  2  1  0
  2  3  2  0
  3  4  1  0
  4  5  1  0
  5  6  1  0
  6  7  1  0
  7  8  2  0
  8  9  1  0
  9 10  2  0
 10 11  1  0
 11 12  1  0
  3 13  1  0
 13 14  2  0
 14 15  1  0
 15 16  2  0
 16 17  1  0
 17 18  2  0
 18 19  1  0
 19 20  2  0
 20 21  1  0
 21 22  1  0
 22 23  1  0
 23 24  1  0
 24 25  2  0
 25 26  1  0
 26 27  2  0
 27 28  1  0
 28 29  1  0
 29 30  2  0
 29 31  1  0
 31 32  2  3
 32 33  1  0
 33 34  1  0
 34 35  2  0
 35 36  1  0
 36 37  2  0
 37 38  1  0
 38 39  2  0
 39 40  1  0
 28 41  2  0
 41 42  1  0
 20 43  1  0
 43 44  2  0
 44 45  1  0
 45 46  2  0
 45 47  1  0
 16  2  1  0
 44 17  1  0
 11  7  1  0
 42 21  1  0
 41 24  1  0
 40 32  1  0
 39 34  1  0
  1 48  1  0
  1 49  1  0
  1 50  1  0
  5 51  1  0
  5 52  1  0
  6 53  1  0
  6 54  1  0
  8 55  1  0
  9 56  1  0
 10 57  1  0
 12 58  1  0
 12 59  1  0
 12 60  1  0
 13 61  1  0
 14 62  1  0
 15 63  1  0
 18 64  1  0
 19 65  1  0
 22 66  1  0
 22 67  1  0
 23 68  1  0
 23 69  1  0
 25 70  1  0
 26 71  1  0
 27 72  1  0
 35 73  1  0
 36 74  1  0
 37 75  1  0
 38 76  1  0
 42 77  1  0
 42 78  1  0
M  CHG  3  10   1  33  -1  47  -1
M  END
>  <UniqueID>  (69) 
64

>  <SMILES>  (69) 
Cc1c(OCCc2cc[nH+]n2C)cccc1-c1ccc(N2CCc3cccc(C(=O)N=c4[n-]c5ccccc5s4)c3C2)nc1C(=O)[O-]

>  <Energy>  (69) 
176.454186453079

>  <Genealogy>  (69) 
Cc1c(OCCc2cc[nH+]n2C)cccc1-c1ccc(N2CCc3cccc(C(=O)N=c4[n-]c5ccccc5s4)c3C2)nc1C(=O)[O-] (protonated)
Cc1c(OCCc2cc[nH+]n2C)cccc1-c1ccc(N2CCc3cccc(C(=O)N=c4[n-]c5ccccc5s4)c3C2)nc1C(=O)[O-] (3D coordinates assigned)
Cc1c(OCCc2cc[nH+]n2C)cccc1-c1ccc(N2CCc3cccc(C(=O)N=c4[n-]c5ccccc5s4)c3C2)nc1C(=O)[O-] (nonaromatic ring conformer: 176.454186453079 kcal/mol)

>  <smiles>  (69) 
Cc1c(OCCc2ccnn2C)cccc1-c1ccc(N2CCc3cccc(C(=O)N=c4[nH]c5ccccc5s4)c3C2)nc1C(=O)O

>  <score_type>  (69) 
oracle

>  <origin>  (69) 
adg

>  <m_score__min__energy>  (69) 
-11.949999999999999

>  <m_primary>  (69) 
energy

$$$$
69:0
     RDKit          3D

 66 66  0  0  0  0  0  0  0  0999 V2000
   63.3870   33.8150   46.6810 C   0  0  0  0  0  0  0  0  0  0  0  0
   63.1520   32.6080   47.5890 C   0  0  0  0  0  0  0  0  0  0  0  0
   61.9570   31.7510   47.1380 C   0  0  0  0  0  0  0  0  0  0  0  0
   61.4280   30.8120   48.2460 C   0  0  0  0  0  0  0  0  0  0  0  0
   60.4290   29.7590   47.7300 C   0  0  0  0  0  0  0  0  0  0  0  0
   60.0740   29.8780   46.2320 C   0  0  0  0  0  0  0  0  0  0  0  0
   59.8210   28.5480   45.4930 C   0  0  0  0  0  0  0  0  0  0  0  0
   58.3380   28.1880   45.2910 C   0  0  0  0  0  0  0  0  0  0  0  0
   57.7730   28.7220   43.9650 C   0  0  0  0  0  0  0  0  0  0  0  0
   56.3730   29.3400   44.1290 C   0  0  0  0  0  0  0  0  0  0  0  0
   56.3490   30.8830   44.1140 C   0  0  0  0  0  0  0  0  0  0  0  0
   57.7360   31.5620   44.1450 C   0  0  0  0  0  0  0  0  0  0  0  0
   57.9500   32.5660   45.2940 C   0  0  0  0  0  0  0  0  0  0  0  0
   58.4280   33.9370   44.7940 C   0  0  0  0  0  0  0  0  0  0  0  0
   59.7920   34.3070   45.3850 C   0  0  0  0  0  0  0  0  0  0  0  0
   59.6200   35.2360   46.5880 C   0  0  0  0  0  0  0  0  0  0  0  0
   60.2960   34.6950   47.7200 O   0  0  0  0  0  0  0  0  0  0  0  0
   59.6950   33.8410   48.6590 C   0  0  0  0  0  0  0  0  0  0  0  0
   60.0370   33.9850   50.0080 C   0  0  0  0  0  0  0  0  0  0  0  0
   59.4730   33.1520   50.9790 C   0  0  0  0  0  0  0  0  0  0  0  0
   58.5420   32.1570   50.6170 C   0  0  0  0  0  0  0  0  0  0  0  0
   57.9370   31.2540   51.6340 C   0  0  0  0  0  0  0  0  0  0  0  0
   57.9380   31.5900   53.0950 C   0  0  0  0  0  0  0  0  0  0  0  0
   57.4090   30.1680   51.2700 O   0  0  0  0  0  0  0  0  0  0  0  0
   58.1940   32.0230   49.2620 C   0  0  0  0  0  0  0  0  0  0  0  0
   58.7640   32.8530   48.2910 C   0  0  0  0  0  0  0  0  0  0  0  0
   63.5611   34.7092   47.2975 H   0  0  0  0  0  0  0  0  0  0  0  0
   64.2661   33.6305   46.0460 H   0  0  0  0  0  0  0  0  0  0  0  0
   62.5029   33.9738   46.0460 H   0  0  0  0  0  0  0  0  0  0  0  0
   64.0564   31.9818   47.5835 H   0  0  0  0  0  0  0  0  0  0  0  0
   62.9273   32.9883   48.5964 H   0  0  0  0  0  0  0  0  0  0  0  0
   61.1418   32.4223   46.8301 H   0  0  0  0  0  0  0  0  0  0  0  0
   62.3045   31.1159   46.3099 H   0  0  0  0  0  0  0  0  0  0  0  0
   62.2838   30.2889   48.6977 H   0  0  0  0  0  0  0  0  0  0  0  0
   60.8922   31.4386   48.9743 H   0  0  0  0  0  0  0  0  0  0  0  0
   60.8642   28.7631   47.8999 H   0  0  0  0  0  0  0  0  0  0  0  0
   59.4927   29.9254   48.2829 H   0  0  0  0  0  0  0  0  0  0  0  0
   59.1628   30.4886   46.1488 H   0  0  0  0  0  0  0  0  0  0  0  0
   60.9573   30.3231   45.7507 H   0  0  0  0  0  0  0  0  0  0  0  0
   60.2945   28.6127   44.5022 H   0  0  0  0  0  0  0  0  0  0  0  0
   60.2455   27.7573   46.1291 H   0  0  0  0  0  0  0  0  0  0  0  0
   58.2373   27.0927   45.3007 H   0  0  0  0  0  0  0  0  0  0  0  0
   57.7684   28.6562   46.1073 H   0  0  0  0  0  0  0  0  0  0  0  0
   58.4552   29.4917   43.5750 H   0  0  0  0  0  0  0  0  0  0  0  0
   57.6849   27.8722   43.2721 H   0  0  0  0  0  0  0  0  0  0  0  0
   55.7392   28.9785   43.3058 H   0  0  0  0  0  0  0  0  0  0  0  0
   56.0087   29.0310   45.1198 H   0  0  0  0  0  0  0  0  0  0  0  0
   55.8320   31.2065   43.1986 H   0  0  0  0  0  0  0  0  0  0  0  0
   55.8380   31.1896   45.0386 H   0  0  0  0  0  0  0  0  0  0  0  0
   58.4985   30.7743   44.2351 H   0  0  0  0  0  0  0  0  0  0  0  0
   57.8120   32.1431   43.2141 H   0  0  0  0  0  0  0  0  0  0  0  0
   56.9982   32.6978   45.8295 H   0  0  0  0  0  0  0  0  0  0  0  0
   58.7311   32.1591   45.9530 H   0  0  0  0  0  0  0  0  0  0  0  0
   58.5096   33.9088   43.6974 H   0  0  0  0  0  0  0  0  0  0  0  0
   57.6970   34.6944   45.1134 H   0  0  0  0  0  0  0  0  0  0  0  0
   60.3081   33.3903   45.7064 H   0  0  0  0  0  0  0  0  0  0  0  0
   60.3840   34.8257   44.6165 H   0  0  0  0  0  0  0  0  0  0  0  0
   60.0415   36.2236   46.3492 H   0  0  0  0  0  0  0  0  0  0  0  0
   58.5490   35.3344   46.8190 H   0  0  0  0  0  0  0  0  0  0  0  0
   60.7566   34.7611   50.3076 H   0  0  0  0  0  0  0  0  0  0  0  0
   59.7581   33.2740   52.0344 H   0  0  0  0  0  0  0  0  0  0  0  0
   57.9352   30.6615   53.6848 H   0  0  0  0  0  0  0  0  0  0  0  0
   58.8379   32.1749   53.3361 H   0  0  0  0  0  0  0  0  0  0  0  0
   57.0416   32.1802   53.3361 H   0  0  0  0  0  0  0  0  0  0  0  0
   57.4647   31.2563   48.9614 H   0  0  0  0  0  0  0  0  0  0  0  0
   58.4828   32.7324   47.2344 H   0  0  0  0  0  0  0  0  0  0  0  0
  1  2  1  0
  2  3  1  0
  3  4  1  0
  4  5  1  0
  5  6  1  0
  6  7  1  0
  7  8  1  0
  8  9  1  0
  9 10  1  0
 10 11  1  0
 11 12  1  0
 12 13  1  0
 13 14  1  0
 14 15  1  0
 15 16  1  0
 16 17  1  0
 17 18  1  0
 18 19  2  0
 19 20  1  0
 20 21  2  0
 21 22  1  0
 22 23  1  0
 22 24  2  0
 21 25  1  0
 25 26  2  0
 26 18  1  0
  1 27  1  0
  1 28  1  0
  1 29  1  0
  2 30  1  0
  2 31  1  0
  3 32  1  0
  3 33  1  0
  4 34  1  0
  4 35  1  0
  5 36  1  0
  5 37  1  0
  6 38  1  0
  6 39  1  0
  7 40  1  0
  7 41  1  0
  8 42  1  0
  8 43  1  0
  9 44  1  0
  9 45  1  0
 10 46  1  0
 10 47  1  0
 11 48  1  0
 11 49  1  0
 12 50  1  0
 12 51  1  0
 13 52  1  0
 13 53  1  0
 14 54  1  0
 14 55  1  0
 15 56  1  0
 15 57  1  0
 16 58  1  0
 16 59  1  0
 19 60  1  0
 20 61  1  0
 23 62  1  0
 23 63  1  0
 23 64  1  0
 25 65  1  0
 26 66  1  0
M  END
>  <UniqueID>  (70) 
65

>  <SMILES>  (70) 
CCCCCCCCCCCCCCCCOc1ccc(C(C)=O)cc1

>  <Energy>  (70) 
42.86498025827372

>  <Genealogy>  (70) 
CCCCCCCCCCCCCCCCOc1ccc(C(C)=O)cc1 (3D coordinates assigned)
CCCCCCCCCCCCCCCCOc1ccc(C(C)=O)cc1 (optimized conformer: 42.86498025827372 kcal/mol)

>  <smiles>  (70) 
CCCCCCCCCCCCCCCCOc1ccc(C(C)=O)cc1

>  <score_type>  (70) 
oracle

>  <origin>  (70) 
adg

>  <m_score__min__energy>  (70) 
-7.29

>  <m_primary>  (70) 
energy

$$$$
70:0
     RDKit          3D

 26 28  0  0  0  0  0  0  0  0999 V2000
   59.0430   23.3150   45.6780 N   0  0  0  0  0  0  0  0  0  0  0  0
   58.3370   24.2540   45.7060 C   0  0  0  0  0  0  0  0  0  0  0  0
   57.4730   25.4010   45.7170 C   0  0  0  0  0  0  0  0  0  0  0  0
   56.1120   25.4660   45.9620 C   0  0  0  0  0  0  0  0  0  0  0  0
   55.7540   26.7800   45.8570 N   0  0  0  0  0  0  0  0  0  0  0  0
   56.8390   27.5150   45.5590 C   0  0  0  0  0  0  0  0  0  0  0  0
   56.8790   28.9590   45.3630 C   0  0  0  0  0  0  0  0  0  0  0  0
   57.8720   29.8340   45.7030 C   0  0  0  0  0  0  0  0  0  0  0  0
   57.4770   31.0960   45.3290 C   0  0  0  0  0  0  0  0  0  0  0  0
   58.1920   32.3560   45.4810 C   0  0  0  0  0  0  0  0  0  0  0  0
   57.9690   33.4560   44.6780 C   0  0  0  0  0  0  0  0  0  0  0  0
   58.6990   34.6300   44.8900 C   0  0  0  0  0  0  0  0  0  0  0  0
   59.6390   34.7260   45.8800 C   0  0  0  0  0  0  0  0  0  0  0  0
   59.8630   33.6310   46.6820 C   0  0  0  0  0  0  0  0  0  0  0  0
   59.1420   32.4700   46.4720 C   0  0  0  0  0  0  0  0  0  0  0  0
   56.2460   30.9210   44.7720 N   0  0  0  0  0  0  0  0  0  0  0  0
   55.9340   29.6820   44.8080 O   0  0  0  0  0  0  0  0  0  0  0  0
   57.8710   26.6710   45.4770 N   0  0  0  0  0  0  0  0  0  0  0  0
   55.4468   24.6218   46.1962 H   0  0  0  0  0  0  0  0  0  0  0  0
   54.7690   27.1030   45.9980 H   0  0  0  0  0  0  0  0  0  0  0  0
   58.8226   29.5734   46.1913 H   0  0  0  0  0  0  0  0  0  0  0  0
   57.2197   33.4096   43.8740 H   0  0  0  0  0  0  0  0  0  0  0  0
   58.5125   35.5000   44.2433 H   0  0  0  0  0  0  0  0  0  0  0  0
   60.2030   35.6582   46.0311 H   0  0  0  0  0  0  0  0  0  0  0  0
   60.6119   33.6788   47.4863 H   0  0  0  0  0  0  0  0  0  0  0  0
   59.3345   31.6035   47.1217 H   0  0  0  0  0  0  0  0  0  0  0  0
  1  2  3  0
  2  3  1  0
  3  4  2  0
  4  5  1  0
  5  6  1  0
  6  7  1  0
  7  8  2  0
  8  9  1  0
  9 10  1  0
 10 11  2  0
 11 12  1  0
 12 13  2  0
 13 14  1  0
 14 15  2  0
  9 16  2  0
 16 17  1  0
  6 18  2  0
 18  3  1  0
 17  7  1  0
 15 10  1  0
  4 19  1  0
  5 20  1  0
  8 21  1  0
 11 22  1  0
 12 23  1  0
 13 24  1  0
 14 25  1  0
 15 26  1  0
M  END
>  <smiles>  (71) 
N#Cc1c[nH]c(-c2cc(-c3ccccc3)no2)n1

>  <score_type>  (71) 
oracle

>  <origin>  (71) 
adg

>  <m_score__min__energy>  (71) 
-7.6200000000000001

>  <m_primary>  (71) 
energy

$$$$
71:0
     RDKit          3D

 43 44  0  0  0  0  0  0  0  0999 V2000
   63.3770   33.8130   46.4280 C   0  0  0  0  0  0  0  0  0  0  0  0
   63.4520   33.5290   47.9240 C   0  0  0  0  0  0  0  0  0  0  0  0
   62.1060   33.5260   48.5090 N   0  0  0  0  0  0  0  0  0  0  0  0
   61.8510   34.2190   49.7750 C   0  0  0  0  0  0  0  0  0  0  0  0
   60.6070   33.6550   50.4470 C   0  0  0  0  0  0  0  0  0  0  0  0
   61.0120   32.9820   47.7510 C   0  0  0  0  0  0  0  0  0  0  0  0
   60.0660   33.8290   47.1560 C   0  0  0  0  0  0  0  0  0  0  0  0
   59.0260   33.2980   46.3870 C   0  0  0  0  0  0  0  0  0  0  0  0
   58.9080   31.9070   46.2170 C   0  0  0  0  0  0  0  0  0  0  0  0
   57.8690   31.3360   45.4060 N   0  0  0  0  0  0  0  0  0  0  0  0
   57.7460   31.5370   43.9880 C   0  0  0  0  0  0  0  0  0  0  0  0
   58.5050   32.3430   43.3820 O   0  0  0  0  0  0  0  0  0  0  0  0
   56.6560   30.8490   43.2250 C   0  0  0  0  0  0  0  0  0  0  0  0
   55.6720   29.7700   44.3240 S   0  0  0  0  0  0  0  0  0  0  0  0
   57.0570   28.7510   44.8310 C   0  0  0  0  0  0  0  0  0  0  0  0
   57.5080   28.6770   46.1020 N   0  0  0  0  0  0  0  0  0  0  0  0
   58.5590   27.8210   46.2090 C   0  0  0  0  0  0  0  0  0  0  0  0
   59.2710   27.6060   47.5070 C   0  0  0  0  0  0  0  0  0  0  0  0
   58.9650   27.2270   45.0170 C   0  0  0  0  0  0  0  0  0  0  0  0
   57.9570   27.7850   43.7920 S   0  0  0  0  0  0  0  0  0  0  0  0
   59.8630   31.0640   46.8020 C   0  0  0  0  0  0  0  0  0  0  0  0
   60.9060   31.5960   47.5670 C   0  0  0  0  0  0  0  0  0  0  0  0
   63.0991   34.8652   46.2680 H   0  0  0  0  0  0  0  0  0  0  0  0
   64.3573   33.6187   45.9683 H   0  0  0  0  0  0  0  0  0  0  0  0
   62.6205   33.1600   45.9683 H   0  0  0  0  0  0  0  0  0  0  0  0
   63.9196   32.5463   48.0840 H   0  0  0  0  0  0  0  0  0  0  0  0
   64.0513   34.3142   48.4081 H   0  0  0  0  0  0  0  0  0  0  0  0
   62.7155   34.0854   50.4420 H   0  0  0  0  0  0  0  0  0  0  0  0
   61.6929   35.2883   49.5711 H   0  0  0  0  0  0  0  0  0  0  0  0
   60.7243   33.7082   51.5394 H   0  0  0  0  0  0  0  0  0  0  0  0
   59.7280   34.2426   50.1436 H   0  0  0  0  0  0  0  0  0  0  0  0
   60.4697   32.6066   50.1436 H   0  0  0  0  0  0  0  0  0  0  0  0
   60.1426   34.9175   47.2951 H   0  0  0  0  0  0  0  0  0  0  0  0
   58.2968   33.9713   45.9128 H   0  0  0  0  0  0  0  0  0  0  0  0
   57.0850   30.8480   45.8950 H   0  0  0  0  0  0  0  0  0  0  0  0
   55.9954   31.6067   42.7784 H   0  0  0  0  0  0  0  0  0  0  0  0
   57.1137   30.2282   42.4407 H   0  0  0  0  0  0  0  0  0  0  0  0
   58.5841   27.8134   48.3407 H   0  0  0  0  0  0  0  0  0  0  0  0
   59.6166   26.5634   47.5673 H   0  0  0  0  0  0  0  0  0  0  0  0
   60.1359   28.2830   47.5673 H   0  0  0  0  0  0  0  0  0  0  0  0
   59.7977   26.5182   44.8977 H   0  0  0  0  0  0  0  0  0  0  0  0
   59.7916   29.9758   46.6583 H   0  0  0  0  0  0  0  0  0  0  0  0
   61.6462   30.9243   48.0262 H   0  0  0  0  0  0  0  0  0  0  0  0
  1  2  1  0
  2  3  1  0
  3  4  1  0
  4  5  1  0
  3  6  1  0
  6  7  2  0
  7  8  1  0
  8  9  2  0
  9 10  1  0
 10 11  1  0
 11 12  2  0
 11 13  1  0
 13 14  1  0
 14 15  1  0
 15 16  2  0
 16 17  1  0
 17 18  1  0
 17 19  2  0
 19 20  1  0
  9 21  1  0
 21 22  2  0
 22  6  1  0
 20 15  1  0
  1 23  1  0
  1 24  1  0
  1 25  1  0
  2 26  1  0
  2 27  1  0
  4 28  1  0
  4 29  1  0
  5 30  1  0
  5 31  1  0
  5 32  1  0
  7 33  1  0
  8 34  1  0
 10 35  1  0
 13 36  1  0
 13 37  1  0
 18 38  1  0
 18 39  1  0
 18 40  1  0
 19 41  1  0
 21 42  1  0
 22 43  1  0
M  END
>  <UniqueID>  (72) 
66

>  <SMILES>  (72) 
CCN(CC)c1ccc(NC(=O)CSc2nc(C)cs2)cc1

>  <Energy>  (72) 
65.72886775179134

>  <Genealogy>  (72) 
CCN(CC)c1ccc(NC(=O)CSc2nc(C)cs2)cc1 (3D coordinates assigned)
CCN(CC)c1ccc(NC(=O)CSc2nc(C)cs2)cc1 (optimized conformer: 65.72886775179134 kcal/mol)

>  <smiles>  (72) 
CCN(CC)c1ccc(NC(=O)CSc2nc(C)cs2)cc1

>  <score_type>  (72) 
oracle

>  <origin>  (72) 
adg

>  <m_score__min__energy>  (72) 
-7.1100000000000003

>  <m_primary>  (72) 
energy

$$$$
72:0
     RDKit          3D

 39 40  0  0  0  0  0  0  0  0999 V2000
   57.0560   33.6350   45.6210 C   0  0  0  0  0  0  0  0  0  0  0  0
   58.1100   32.6230   45.9550 C   0  0  0  0  0  0  0  0  0  0  0  0
   59.0250   32.8110   46.9280 N   0  0  0  0  0  0  0  0  0  0  0  0
   59.7830   31.7000   46.9360 C   0  0  0  0  0  0  0  0  0  0  0  0
   59.3130   30.8490   45.9570 C   0  0  0  0  0  0  0  0  0  0  0  0
   59.8520   29.5450   45.6830 N   0  0  0  0  0  0  0  0  0  0  0  0
   60.5120   29.3190   44.6490 O   0  0  0  0  0  0  0  0  0  0  0  0
   59.6190   28.5130   46.5620 O   0  0  0  0  0  0  0  0  0  0  0  0
   58.2650   31.4320   45.3260 N   0  0  0  0  0  0  0  0  0  0  0  0
   57.4250   30.8910   44.2520 C   0  0  0  0  0  0  0  0  0  0  0  0
   56.7670   29.6160   44.6910 C   0  0  0  0  0  0  0  0  0  0  0  0
   55.5170   29.5930   44.8550 O   0  0  0  0  0  0  0  0  0  0  0  0
   57.5520   28.4270   44.8820 N   0  0  0  0  0  0  0  0  0  0  0  0
   57.0270   27.1910   45.3910 C   0  0  0  0  0  0  0  0  0  0  0  0
   55.8090   27.0940   45.7030 O   0  0  0  0  0  0  0  0  0  0  0  0
   57.8980   26.0640   45.5490 N   0  0  0  0  0  0  0  0  0  0  0  0
   57.4520   24.7990   46.1300 C   0  0  0  0  0  0  0  0  0  0  0  0
   57.2890   23.7610   45.0530 C   0  0  0  0  0  0  0  0  0  0  0  0
   56.3560   23.9600   44.0220 C   0  0  0  0  0  0  0  0  0  0  0  0
   56.2160   23.0090   43.0070 C   0  0  0  0  0  0  0  0  0  0  0  0
   57.0070   21.8570   43.0110 C   0  0  0  0  0  0  0  0  0  0  0  0
   57.9420   21.6560   44.0300 C   0  0  0  0  0  0  0  0  0  0  0  0
   58.0850   22.6040   45.0480 C   0  0  0  0  0  0  0  0  0  0  0  0
   56.6315   34.0426   46.5503 H   0  0  0  0  0  0  0  0  0  0  0  0
   57.5036   34.4504   45.0338 H   0  0  0  0  0  0  0  0  0  0  0  0
   56.2595   33.1547   45.0338 H   0  0  0  0  0  0  0  0  0  0  0  0
   59.1250   33.6390   47.5550 H   0  0  0  0  0  0  0  0  0  0  0  0
   60.6317   31.5036   47.6076 H   0  0  0  0  0  0  0  0  0  0  0  0
   56.6502   31.6275   43.9926 H   0  0  0  0  0  0  0  0  0  0  0  0
   58.0576   30.6818   43.3768 H   0  0  0  0  0  0  0  0  0  0  0  0
   58.5720   28.4650   44.6570 H   0  0  0  0  0  0  0  0  0  0  0  0
   58.8940   26.1460   45.2410 H   0  0  0  0  0  0  0  0  0  0  0  0
   58.1981   24.4513   46.8597 H   0  0  0  0  0  0  0  0  0  0  0  0
   56.4835   24.9545   46.6279 H   0  0  0  0  0  0  0  0  0  0  0  0
   55.7336   24.8669   44.0133 H   0  0  0  0  0  0  0  0  0  0  0  0
   55.4817   23.1678   42.2035 H   0  0  0  0  0  0  0  0  0  0  0  0
   56.8938   21.1089   42.2126 H   0  0  0  0  0  0  0  0  0  0  0  0
   58.5666   20.7505   44.0313 H   0  0  0  0  0  0  0  0  0  0  0  0
   58.8233   22.4430   45.8474 H   0  0  0  0  0  0  0  0  0  0  0  0
  1  2  1  0
  2  3  2  0
  3  4  1  0
  4  5  2  0
  5  6  1  0
  6  7  2  0
  6  8  1  0
  5  9  1  0
  9 10  1  0
 10 11  1  0
 11 12  2  0
 11 13  1  0
 13 14  1  0
 14 15  2  0
 14 16  1  0
 16 17  1  0
 17 18  1  0
 18 19  2  0
 19 20  1  0
 20 21  2  0
 21 22  1  0
 22 23  2  0
  9  2  1  0
 23 18  1  0
  1 24  1  0
  1 25  1  0
  1 26  1  0
  3 27  1  0
  4 28  1  0
 10 29  1  0
 10 30  1  0
 13 31  1  0
 16 32  1  0
 17 33  1  0
 17 34  1  0
 19 35  1  0
 20 36  1  0
 21 37  1  0
 22 38  1  0
 23 39  1  0
M  CHG  3   3   1   6   1   8  -1
M  END
>  <UniqueID>  (73) 
67

>  <SMILES>  (73) 
Cc1[nH+]cc([N+](=O)[O-])n1CC(=O)NC(=O)NCc1ccccc1

>  <Energy>  (73) 
66.58040041508957

>  <Genealogy>  (73) 
Cc1[nH+]cc([N+](=O)[O-])n1CC(=O)NC(=O)NCc1ccccc1 (protonated)
Cc1[nH+]cc([N+](=O)[O-])n1CC(=O)NC(=O)NCc1ccccc1 (3D coordinates assigned)
Cc1[nH+]cc([N+](=O)[O-])n1CC(=O)NC(=O)NCc1ccccc1 (optimized conformer: 66.58040041508957 kcal/mol)

>  <smiles>  (73) 
Cc1ncc([N+](=O)[O-])n1CC(=O)NC(=O)NCc1ccccc1

>  <score_type>  (73) 
oracle

>  <origin>  (73) 
adg

>  <m_score__min__energy>  (73) 
-7.4900000000000002

>  <m_primary>  (73) 
energy

$$$$
73:0
     RDKit          3D

 36 37  0  0  0  0  0  0  0  0999 V2000
   57.0880   29.1680   43.0390 N   0  0  0  0  0  0  0  0  0  0  0  0
   56.8460   29.8650   44.1100 C   0  0  0  0  0  0  0  0  0  0  0  0
   56.7750   31.2970   44.0550 N   0  0  0  0  0  0  0  0  0  0  0  0
   57.8080   32.1090   43.4730 C   0  0  0  0  0  0  0  0  0  0  0  0
   58.4960   31.6800   42.5100 O   0  0  0  0  0  0  0  0  0  0  0  0
   58.0570   33.4770   43.9660 C   0  0  0  0  0  0  0  0  0  0  0  0
   57.6500   33.9420   45.1580 C   0  0  0  0  0  0  0  0  0  0  0  0
   58.4020   33.7970   46.4240 C   0  0  0  0  0  0  0  0  0  0  0  0
   59.4470   34.6880   46.7090 C   0  0  0  0  0  0  0  0  0  0  0  0
   60.1720   34.5670   47.9000 C   0  0  0  0  0  0  0  0  0  0  0  0
   59.8730   33.5420   48.8020 C   0  0  0  0  0  0  0  0  0  0  0  0
   58.8570   32.6290   48.5100 C   0  0  0  0  0  0  0  0  0  0  0  0
   58.1280   32.7480   47.3230 C   0  0  0  0  0  0  0  0  0  0  0  0
   56.5390   29.2100   45.3510 N   0  0  0  0  0  0  0  0  0  0  0  0
   57.2010   28.0200   45.8160 C   0  0  0  0  0  0  0  0  0  0  0  0
   56.5020   26.8010   45.9100 C   0  0  0  0  0  0  0  0  0  0  0  0
   57.1570   25.6370   46.3180 C   0  0  0  0  0  0  0  0  0  0  0  0
   58.5180   25.6710   46.6260 C   0  0  0  0  0  0  0  0  0  0  0  0
   59.2270   26.8690   46.5220 C   0  0  0  0  0  0  0  0  0  0  0  0
   58.5800   28.0410   46.1130 C   0  0  0  0  0  0  0  0  0  0  0  0
   59.6060   29.6570   46.0040 Br  0  0  0  0  0  0  0  0  0  0  0  0
   57.7000   29.5330   42.2780 H   0  0  0  0  0  0  0  0  0  0  0  0
   56.6210   28.2480   42.8800 H   0  0  0  0  0  0  0  0  0  0  0  0
   56.0930   31.7620   44.6950 H   0  0  0  0  0  0  0  0  0  0  0  0
   58.6146   34.1634   43.3119 H   0  0  0  0  0  0  0  0  0  0  0  0
   56.6858   34.4700   45.1962 H   0  0  0  0  0  0  0  0  0  0  0  0
   59.6978   35.4851   45.9936 H   0  0  0  0  0  0  0  0  0  0  0  0
   60.9786   35.2798   48.1266 H   0  0  0  0  0  0  0  0  0  0  0  0
   60.4378   33.4543   49.7418 H   0  0  0  0  0  0  0  0  0  0  0  0
   58.6302   31.8155   49.2148 H   0  0  0  0  0  0  0  0  0  0  0  0
   57.3373   32.0195   47.0903 H   0  0  0  0  0  0  0  0  0  0  0  0
   55.8930   29.7030   46.0070 H   0  0  0  0  0  0  0  0  0  0  0  0
   55.4314   26.7654   45.6600 H   0  0  0  0  0  0  0  0  0  0  0  0
   56.5995   24.6920   46.3968 H   0  0  0  0  0  0  0  0  0  0  0  0
   59.0317   24.7541   46.9506 H   0  0  0  0  0  0  0  0  0  0  0  0
   60.3001   26.8922   46.7628 H   0  0  0  0  0  0  0  0  0  0  0  0
  1  2  2  0
  2  3  1  0
  3  4  1  0
  4  5  2  0
  4  6  1  0
  6  7  2  3
  7  8  1  0
  8  9  2  0
  9 10  1  0
 10 11  2  0
 11 12  1  0
 12 13  2  0
  2 14  1  0
 14 15  1  0
 15 16  2  0
 16 17  1  0
 17 18  2  0
 18 19  1  0
 19 20  2  0
 20 21  1  0
 13  8  1  0
 20 15  1  0
  1 22  1  0
  1 23  1  0
  3 24  1  0
  6 25  1  0
  7 26  1  0
  9 27  1  0
 10 28  1  0
 11 29  1  0
 12 30  1  0
 13 31  1  0
 14 32  1  0
 16 33  1  0
 17 34  1  0
 18 35  1  0
 19 36  1  0
M  CHG  1   1   1
M  END
>  <UniqueID>  (74) 
68

>  <SMILES>  (74) 
[NH2+]=C(NC(=O)C=Cc1ccccc1)Nc1ccccc1Br

>  <Energy>  (74) 
51.63338914839435

>  <Genealogy>  (74) 
[NH2+]=C(NC(=O)C=Cc1ccccc1)Nc1ccccc1Br (protonated)
[NH2+]=C(NC(=O)C=Cc1ccccc1)Nc1ccccc1Br (3D coordinates assigned)
[NH2+]=C(NC(=O)C=Cc1ccccc1)Nc1ccccc1Br (optimized conformer: 51.63338914839435 kcal/mol)

>  <smiles>  (74) 
N=C(NC(=O)C=Cc1ccccc1)Nc1ccccc1Br

>  <score_type>  (74) 
oracle

>  <origin>  (74) 
adg

>  <m_score__min__energy>  (74) 
-6.6900000000000004

>  <m_primary>  (74) 
energy

$$$$
74:0
     RDKit          3D

 61 64  0  0  0  0  0  0  0  0999 V2000
   57.0670   21.2150   43.0450 C   0  0  0  0  0  0  0  0  0  0  0  0
   56.0400   22.1970   43.1280 O   0  0  0  0  0  0  0  0  0  0  0  0
   56.0560   23.2970   44.0020 C   0  0  0  0  0  0  0  0  0  0  0  0
   54.9070   23.5610   44.7470 C   0  0  0  0  0  0  0  0  0  0  0  0
   54.8730   24.6320   45.6340 C   0  0  0  0  0  0  0  0  0  0  0  0
   55.9880   25.4570   45.7870 C   0  0  0  0  0  0  0  0  0  0  0  0
   57.1720   25.2310   45.0440 C   0  0  0  0  0  0  0  0  0  0  0  0
   58.3440   26.0950   45.2020 N   0  0  0  0  0  0  0  0  0  0  0  0
   58.3850   27.3810   44.4710 C   0  0  0  0  0  0  0  0  0  0  0  0
   59.6720   28.2000   44.6520 C   0  0  0  0  0  0  0  0  0  0  0  0
   60.2820   28.0540   45.9800 N   0  0  0  0  0  0  0  0  0  0  0  0
   59.4910   28.6610   47.0370 C   0  0  0  0  0  0  0  0  0  0  0  0
   59.9050   28.6930   48.1880 O   0  0  0  0  0  0  0  0  0  0  0  0
   58.1400   29.2560   46.7140 C   0  0  0  0  0  0  0  0  0  0  0  0
   58.2380   30.6790   46.3640 N   0  0  0  0  0  0  0  0  0  0  0  0
   57.9930   31.1250   45.0110 C   0  0  0  0  0  0  0  0  0  0  0  0
   57.2340   30.3400   44.1200 C   0  0  0  0  0  0  0  0  0  0  0  0
   56.9880   30.7810   42.8170 C   0  0  0  0  0  0  0  0  0  0  0  0
   57.4940   32.0090   42.3840 C   0  0  0  0  0  0  0  0  0  0  0  0
   57.1770   32.5650   40.7500 Cl  0  0  0  0  0  0  0  0  0  0  0  0
   58.2440   32.7990   43.2590 C   0  0  0  0  0  0  0  0  0  0  0  0
   58.4900   32.3620   44.5630 C   0  0  0  0  0  0  0  0  0  0  0  0
   58.7270   31.8060   47.6020 S   0  0  0  0  0  0  0  0  0  0  0  0
   58.5200   31.1910   48.9580 O   0  0  0  0  0  0  0  0  0  0  0  0
   57.8790   33.0450   47.5240 O   0  0  0  0  0  0  0  0  0  0  0  0
   60.4170   32.2530   47.3850 C   0  0  0  0  0  0  0  0  0  0  0  0
   61.4290   31.3380   47.7170 C   0  0  0  0  0  0  0  0  0  0  0  0
   62.7740   31.6810   47.5520 C   0  0  0  0  0  0  0  0  0  0  0  0
   63.1170   32.9430   47.0570 C   0  0  0  0  0  0  0  0  0  0  0  0
   62.1140   33.8580   46.7170 C   0  0  0  0  0  0  0  0  0  0  0  0
   60.7670   33.5140   46.8760 C   0  0  0  0  0  0  0  0  0  0  0  0
   60.6020   26.6440   46.2380 C   0  0  0  0  0  0  0  0  0  0  0  0
   59.3760   25.7210   46.1950 C   0  0  0  0  0  0  0  0  0  0  0  0
   57.1830   24.1300   44.1510 C   0  0  0  0  0  0  0  0  0  0  0  0
   57.3753   20.9202   44.0589 H   0  0  0  0  0  0  0  0  0  0  0  0
   56.6890   20.3338   42.5060 H   0  0  0  0  0  0  0  0  0  0  0  0
   57.9304   21.6321   42.5060 H   0  0  0  0  0  0  0  0  0  0  0  0
   54.0218   22.9181   44.6325 H   0  0  0  0  0  0  0  0  0  0  0  0
   53.9621   24.8297   46.2181 H   0  0  0  0  0  0  0  0  0  0  0  0
   55.9465   26.2966   46.4964 H   0  0  0  0  0  0  0  0  0  0  0  0
   58.2674   27.1659   43.3987 H   0  0  0  0  0  0  0  0  0  0  0  0
   57.5736   27.9942   44.8899 H   0  0  0  0  0  0  0  0  0  0  0  0
   60.4015   27.8723   43.8967 H   0  0  0  0  0  0  0  0  0  0  0  0
   59.3980   29.2593   44.5384 H   0  0  0  0  0  0  0  0  0  0  0  0
   61.2000   28.5600   45.9380 H   0  0  0  0  0  0  0  0  0  0  0  0
   57.7049   28.7098   45.8641 H   0  0  0  0  0  0  0  0  0  0  0  0
   57.5059   29.1678   47.6085 H   0  0  0  0  0  0  0  0  0  0  0  0
   56.8318   29.3719   44.4531 H   0  0  0  0  0  0  0  0  0  0  0  0
   56.3943   30.1595   42.1305 H   0  0  0  0  0  0  0  0  0  0  0  0
   58.6416   33.7671   42.9204 H   0  0  0  0  0  0  0  0  0  0  0  0
   59.0785   32.9919   45.2463 H   0  0  0  0  0  0  0  0  0  0  0  0
   61.1618   30.3456   48.1092 H   0  0  0  0  0  0  0  0  0  0  0  0
   63.5620   30.9587   47.8114 H   0  0  0  0  0  0  0  0  0  0  0  0
   64.1754   33.2167   46.9348 H   0  0  0  0  0  0  0  0  0  0  0  0
   62.3850   34.8491   46.3242 H   0  0  0  0  0  0  0  0  0  0  0  0
   59.9808   34.2328   46.6017 H   0  0  0  0  0  0  0  0  0  0  0  0
   61.3202   26.3049   45.4770 H   0  0  0  0  0  0  0  0  0  0  0  0
   61.0152   26.5866   47.2558 H   0  0  0  0  0  0  0  0  0  0  0  0
   59.7230   24.7040   45.9596 H   0  0  0  0  0  0  0  0  0  0  0  0
   58.8962   25.8023   47.1815 H   0  0  0  0  0  0  0  0  0  0  0  0
   58.0889   23.9218   43.5629 H   0  0  0  0  0  0  0  0  0  0  0  0
  1  2  1  0
  2  3  1  0
  3  4  2  0
  4  5  1  0
  5  6  2  0
  6  7  1  0
  7  8  1  0
  8  9  1  0
  9 10  1  0
 10 11  1  0
 11 12  1  0
 12 13  2  0
 12 14  1  0
 14 15  1  0
 15 16  1  0
 16 17  2  0
 17 18  1  0
 18 19  2  0
 19 20  1  0
 19 21  1  0
 21 22  2  0
 15 23  1  0
 23 24  2  0
 23 25  2  0
 23 26  1  0
 26 27  2  0
 27 28  1  0
 28 29  2  0
 29 30  1  0
 30 31  2  0
 11 32  1  0
 32 33  1  0
  7 34  2  0
 34  3  1  0
 33  8  1  0
 22 16  1  0
 31 26  1  0
  1 35  1  0
  1 36  1  0
  1 37  1  0
  4 38  1  0
  5 39  1  0
  6 40  1  0
  9 41  1  0
  9 42  1  0
 10 43  1  0
 10 44  1  0
 11 45  1  0
 14 46  1  0
 14 47  1  0
 17 48  1  0
 18 49  1  0
 21 50  1  0
 22 51  1  0
 27 52  1  0
 28 53  1  0
 29 54  1  0
 30 55  1  0
 31 56  1  0
 32 57  1  0
 32 58  1  0
 33 59  1  0
 33 60  1  0
 34 61  1  0
M  CHG  1  11   1
M  END
>  <UniqueID>  (75) 
69

>  <SMILES>  (75) 
COc1cccc(N2CC[NH+](C(=O)CN(c3ccc(Cl)cc3)S(=O)(=O)c3ccccc3)CC2)c1

>  <Energy>  (75) 
81.10804150330037

>  <Genealogy>  (75) 
COc1cccc(N2CC[NH+](C(=O)CN(c3ccc(Cl)cc3)S(=O)(=O)c3ccccc3)CC2)c1 (protonated)
COc1cccc(N2CC[NH+](C(=O)CN(c3ccc(Cl)cc3)S(=O)(=O)c3ccccc3)CC2)c1 (3D coordinates assigned)
COc1cccc(N2CC[NH+](C(=O)CN(c3ccc(Cl)cc3)S(=O)(=O)c3ccccc3)CC2)c1 (nonaromatic ring conformer: 81.10804150330037 kcal/mol)

>  <smiles>  (75) 
COc1cccc(N2CCN(C(=O)CN(c3ccc(Cl)cc3)S(=O)(=O)c3ccccc3)CC2)c1

>  <score_type>  (75) 
oracle

>  <origin>  (75) 
adg

>  <m_score__min__energy>  (75) 
-8.2799999999999994

>  <m_primary>  (75) 
energy

$$$$
75:0
     RDKit          3D

 26 27  0  0  0  0  0  0  0  0999 V2000
   58.7820   28.1150   46.2100 O   0  0  0  0  0  0  0  0  0  0  0  0
   57.7430   27.6270   45.6850 C   0  0  0  0  0  0  0  0  0  0  0  0
   56.9170   28.4300   44.8240 N   0  0  0  0  0  0  0  0  0  0  0  0
   57.2210   29.7840   44.4480 C   0  0  0  0  0  0  0  0  0  0  0  0
   57.0120   30.2500   43.1370 C   0  0  0  0  0  0  0  0  0  0  0  0
   57.2930   31.5800   42.8080 C   0  0  0  0  0  0  0  0  0  0  0  0
   57.7690   32.4590   43.7840 C   0  0  0  0  0  0  0  0  0  0  0  0
   57.9570   32.0120   45.0950 C   0  0  0  0  0  0  0  0  0  0  0  0
   58.5400   33.1200   46.3230 Cl  0  0  0  0  0  0  0  0  0  0  0  0
   57.6760   30.6820   45.4280 C   0  0  0  0  0  0  0  0  0  0  0  0
   57.3930   26.2570   45.9580 N   0  0  0  0  0  0  0  0  0  0  0  0
   58.4020   25.3460   46.1150 C   0  0  0  0  0  0  0  0  0  0  0  0
   58.1150   24.0030   46.3720 C   0  0  0  0  0  0  0  0  0  0  0  0
   56.7880   23.5950   46.4770 C   0  0  0  0  0  0  0  0  0  0  0  0
   55.7640   24.5290   46.3360 C   0  0  0  0  0  0  0  0  0  0  0  0
   56.0810   25.8680   46.0840 C   0  0  0  0  0  0  0  0  0  0  0  0
   55.1460   26.7120   45.9990 O   0  0  0  0  0  0  0  0  0  0  0  0
   56.0100   28.0310   44.4930 H   0  0  0  0  0  0  0  0  0  0  0  0
   56.6259   29.5653   42.3675 H   0  0  0  0  0  0  0  0  0  0  0  0
   57.1388   31.9348   41.7783 H   0  0  0  0  0  0  0  0  0  0  0  0
   57.9958   33.5027   43.5208 H   0  0  0  0  0  0  0  0  0  0  0  0
   57.8123   30.3375   46.4637 H   0  0  0  0  0  0  0  0  0  0  0  0
   59.4491   25.6742   46.0381 H   0  0  0  0  0  0  0  0  0  0  0  0
   58.9304   23.2743   46.4904 H   0  0  0  0  0  0  0  0  0  0  0  0
   56.5489   22.5389   46.6706 H   0  0  0  0  0  0  0  0  0  0  0  0
   54.7131   24.2156   46.4223 H   0  0  0  0  0  0  0  0  0  0  0  0
  1  2  2  0
  2  3  1  0
  3  4  1  0
  4  5  2  0
  5  6  1  0
  6  7  2  0
  7  8  1  0
  8  9  1  0
  8 10  2  0
  2 11  1  0
 11 12  1  0
 12 13  2  0
 13 14  1  0
 14 15  2  0
 15 16  1  0
 16 17  2  0
 10  4  1  0
 16 11  1  0
  3 18  1  0
  5 19  1  0
  6 20  1  0
  7 21  1  0
 10 22  1  0
 12 23  1  0
 13 24  1  0
 14 25  1  0
 15 26  1  0
M  END
>  <UniqueID>  (76) 
70

>  <SMILES>  (76) 
O=C(Nc1cccc(Cl)c1)n1ccccc1=O

>  <Energy>  (76) 
37.87370434166015

>  <Genealogy>  (76) 
O=C(Nc1cccc(Cl)c1)n1ccccc1=O (3D coordinates assigned)
O=C(Nc1cccc(Cl)c1)n1ccccc1=O (optimized conformer: 37.87370434166015 kcal/mol)

>  <smiles>  (76) 
O=C(Nc1cccc(Cl)c1)n1ccccc1=O

>  <score_type>  (76) 
oracle

>  <origin>  (76) 
adg

>  <m_score__min__energy>  (76) 
-6.4900000000000002

>  <m_primary>  (76) 
energy

$$$$
76:0
     RDKit          3D

 28 29  0  0  0  0  0  0  0  0999 V2000
   54.7770   27.3530   46.0180 H   0  0  0  0  0  0  0  0  0  0  0  0
   55.6190   26.7360   46.0270 N   0  0  0  0  0  0  0  0  0  0  0  0
   56.7950   27.2280   46.2440 C   0  0  0  0  0  0  0  0  0  0  0  0
   57.5750   26.5794   46.6692 H   0  0  0  0  0  0  0  0  0  0  0  0
   57.1240   28.6470   45.9350 C   0  0  0  0  0  0  0  0  0  0  0  0
   56.3070   29.4500   45.1200 C   0  0  0  0  0  0  0  0  0  0  0  0
   55.1360   28.9490   44.5580 O   0  0  0  0  0  0  0  0  0  0  0  0
   56.6540   30.7370   44.8680 N   0  0  0  0  0  0  0  0  0  0  0  0
   56.0300   31.3110   44.2560 H   0  0  0  0  0  0  0  0  0  0  0  0
   57.7840   31.2860   45.3870 C   0  0  0  0  0  0  0  0  0  0  0  0
   58.1450   32.8500   45.0070 S   0  0  0  0  0  0  0  0  0  0  0  0
   58.6060   30.5340   46.1910 N   0  0  0  0  0  0  0  0  0  0  0  0
   59.8070   31.0970   46.7570 C   0  0  0  0  0  0  0  0  0  0  0  0
   61.0400   30.4570   46.5720 C   0  0  0  0  0  0  0  0  0  0  0  0
   61.0918   29.5248   45.9903 H   0  0  0  0  0  0  0  0  0  0  0  0
   62.2040   30.9990   47.1240 C   0  0  0  0  0  0  0  0  0  0  0  0
   63.1704   30.4977   46.9663 H   0  0  0  0  0  0  0  0  0  0  0  0
   62.1440   32.1810   47.8790 C   0  0  0  0  0  0  0  0  0  0  0  0
   63.3990   32.7860   48.4370 C   0  0  0  0  0  0  0  0  0  0  0  0
   63.3583   32.7664   49.5361 H   0  0  0  0  0  0  0  0  0  0  0  0
   64.2693   32.2085   48.0920 H   0  0  0  0  0  0  0  0  0  0  0  0
   63.4893   33.8266   48.0920 H   0  0  0  0  0  0  0  0  0  0  0  0
   60.9110   32.8300   48.0510 C   0  0  0  0  0  0  0  0  0  0  0  0
   60.8602   33.7693   48.6212 H   0  0  0  0  0  0  0  0  0  0  0  0
   59.7470   32.2850   47.4990 C   0  0  0  0  0  0  0  0  0  0  0  0
   58.7813   32.7903   47.6476 H   0  0  0  0  0  0  0  0  0  0  0  0
   58.2900   29.2290   46.4660 C   0  0  0  0  0  0  0  0  0  0  0  0
   59.0480   28.5420   47.2090 O   0  0  0  0  0  0  0  0  0  0  0  0
  1  2  1  0
  2  3  2  0
  3  4  1  0
  3  5  1  0
  5  6  2  0
  6  7  1  0
  6  8  1  0
  8  9  1  0
  8 10  1  0
 10 11  2  0
 10 12  1  0
 12 13  1  0
 13 14  2  0
 14 15  1  0
 14 16  1  0
 16 17  1  0
 16 18  2  0
 18 19  1  0
 19 20  1  0
 19 21  1  0
 19 22  1  0
 18 23  1  0
 23 24  1  0
 23 25  2  0
 25 26  1  0
 12 27  1  0
 27 28  2  0
 27  5  1  0
 25 13  1  0
M  CHG  1   7  -1
M  END
>  <UniqueID>  (77) 
71

>  <SMILES>  (77) 
[H]/N=C/c1c([O-])[nH]c(=S)n(-c2ccc(C)cc2)c1=O

>  <Energy>  (77) 
42.993156171770295

>  <Genealogy>  (77) 
Cc1ccc(-n2c(=S)[nH]c([O-])c(C=N)c2=O)cc1 (protonated)
[H]/N=C/c1c([O-])[nH]c(=S)n(-c2ccc(C)cc2)c1=O (cis-trans isomerization)
[H]/N=C/c1c([O-])[nH]c(=S)n(-c2ccc(C)cc2)c1=O (3D coordinates assigned)
[H]/N=C/c1c([O-])[nH]c(=S)n(-c2ccc(C)cc2)c1=O (optimized conformer: 42.993156171770295 kcal/mol)

>  <smiles>  (77) 
Cc1ccc(-n2c(=S)[nH]c(O)c(C=N)c2=O)cc1

>  <score_type>  (77) 
oracle

>  <origin>  (77) 
adg

>  <m_score__min__energy>  (77) 
-8.7799999999999994

>  <m_primary>  (77) 
energy

$$$$
77:0
     RDKit          3D

 33 34  0  0  0  0  0  0  0  0999 V2000
   55.2670   29.5030   44.5100 O   0  0  0  0  0  0  0  0  0  0  0  0
   56.1220   28.9090   45.2230 C   0  0  0  0  0  0  0  0  0  0  0  0
   55.9000   27.5550   45.6260 N   0  0  0  0  0  0  0  0  0  0  0  0
   56.9470   26.7210   46.2070 C   0  0  0  0  0  0  0  0  0  0  0  0
   58.1000   26.5560   45.2190 C   0  0  0  0  0  0  0  0  0  0  0  0
   59.1920   27.5440   45.4930 C   0  0  0  0  0  0  0  0  0  0  0  0
   59.9180   28.2330   44.5410 C   0  0  0  0  0  0  0  0  0  0  0  0
   60.7810   29.0410   45.2490 C   0  0  0  0  0  0  0  0  0  0  0  0
   60.5250   28.8000   46.5830 C   0  0  0  0  0  0  0  0  0  0  0  0
   59.5710   27.9040   46.6970 O   0  0  0  0  0  0  0  0  0  0  0  0
   57.3010   29.5910   45.6740 N   0  0  0  0  0  0  0  0  0  0  0  0
   57.7200   30.8810   45.1980 C   0  0  0  0  0  0  0  0  0  0  0  0
   57.4840   31.2300   43.8610 C   0  0  0  0  0  0  0  0  0  0  0  0
   57.8500   32.4890   43.3830 C   0  0  0  0  0  0  0  0  0  0  0  0
   58.4500   33.4170   44.2380 C   0  0  0  0  0  0  0  0  0  0  0  0
   58.6990   33.0890   45.5810 C   0  0  0  0  0  0  0  0  0  0  0  0
   59.2830   34.1130   46.5220 C   0  0  0  0  0  0  0  0  0  0  0  0
   58.5110   34.1710   47.6680 F   0  0  0  0  0  0  0  0  0  0  0  0
   59.3070   35.3640   45.9310 F   0  0  0  0  0  0  0  0  0  0  0  0
   60.5800   33.7740   46.8680 F   0  0  0  0  0  0  0  0  0  0  0  0
   58.3020   31.8270   46.0620 C   0  0  0  0  0  0  0  0  0  0  0  0
   57.3213   27.1956   47.1260 H   0  0  0  0  0  0  0  0  0  0  0  0
   56.5289   25.7303   46.4390 H   0  0  0  0  0  0  0  0  0  0  0  0
   58.5064   25.5377   45.3083 H   0  0  0  0  0  0  0  0  0  0  0  0
   57.7168   26.7323   44.2031 H   0  0  0  0  0  0  0  0  0  0  0  0
   59.8265   28.1534   43.4477 H   0  0  0  0  0  0  0  0  0  0  0  0
   61.5242   29.7377   44.8341 H   0  0  0  0  0  0  0  0  0  0  0  0
   61.0417   29.2849   47.4243 H   0  0  0  0  0  0  0  0  0  0  0  0
   57.8330   29.1570   46.4610 H   0  0  0  0  0  0  0  0  0  0  0  0
   57.0069   30.5063   43.1838 H   0  0  0  0  0  0  0  0  0  0  0  0
   57.6657   32.7514   42.3308 H   0  0  0  0  0  0  0  0  0  0  0  0
   58.7291   34.4105   43.8571 H   0  0  0  0  0  0  0  0  0  0  0  0
   58.4481   31.5780   47.1234 H   0  0  0  0  0  0  0  0  0  0  0  0
  1  2  2  0
  2  3  1  0
  3  4  1  0
  4  5  1  0
  5  6  1  0
  6  7  2  0
  7  8  1  0
  8  9  2  0
  9 10  1  0
  2 11  1  0
 11 12  1  0
 12 13  2  0
 13 14  1  0
 14 15  2  0
 15 16  1  0
 16 17  1  0
 17 18  1  0
 17 19  1  0
 17 20  1  0
 16 21  2  0
 10  6  1  0
 21 12  1  0
  4 22  1  0
  4 23  1  0
  5 24  1  0
  5 25  1  0
  7 26  1  0
  8 27  1  0
  9 28  1  0
 11 29  1  0
 13 30  1  0
 14 31  1  0
 15 32  1  0
 21 33  1  0
M  CHG  1   3  -1
M  END
>  <UniqueID>  (78) 
72

>  <SMILES>  (78) 
O=C([N-]CCc1ccco1)Nc1cccc(C(F)(F)F)c1

>  <Energy>  (78) 
57.02371205290958

>  <Genealogy>  (78) 
O=C([N-]CCc1ccco1)Nc1cccc(C(F)(F)F)c1 (protonated)
O=C([N-]CCc1ccco1)Nc1cccc(C(F)(F)F)c1 (3D coordinates assigned)
O=C([N-]CCc1ccco1)Nc1cccc(C(F)(F)F)c1 (optimized conformer: 57.02371205290958 kcal/mol)

>  <smiles>  (78) 
O=C(NCCc1ccco1)Nc1cccc(C(F)(F)F)c1

>  <score_type>  (78) 
oracle

>  <origin>  (78) 
adg

>  <m_score__min__energy>  (78) 
-8.4600000000000009

>  <m_primary>  (78) 
energy

$$$$
78:0
     RDKit          3D

 42 44  0  0  0  0  0  0  0  0999 V2000
   55.7050   28.5960   45.0630 O   0  0  0  0  0  0  0  0  0  0  0  0
   56.5790   29.4940   45.1850 C   0  0  0  0  0  0  0  0  0  0  0  0
   56.2240   30.8450   44.8610 N   0  0  0  0  0  0  0  0  0  0  0  0
   57.1210   31.9630   44.7840 C   0  0  0  0  0  0  0  0  0  0  0  0
   57.7560   32.3160   43.5790 C   0  0  0  0  0  0  0  0  0  0  0  0
   58.6200   33.4130   43.5380 C   0  0  0  0  0  0  0  0  0  0  0  0
   58.8740   34.1520   44.6950 C   0  0  0  0  0  0  0  0  0  0  0  0
   58.2790   33.7840   45.9130 C   0  0  0  0  0  0  0  0  0  0  0  0
   58.5280   34.5940   47.1520 C   0  0  0  0  0  0  0  0  0  0  0  0
   59.4460   35.6110   46.8610 O   0  0  0  0  0  0  0  0  0  0  0  0
   57.3980   32.6910   45.9470 C   0  0  0  0  0  0  0  0  0  0  0  0
   57.9580   29.1200   45.5910 C   0  0  0  0  0  0  0  0  0  0  0  0
   58.5410   29.7030   46.7300 C   0  0  0  0  0  0  0  0  0  0  0  0
   59.8060   29.3660   47.1240 N   0  0  0  0  0  0  0  0  0  0  0  0
   60.3900   30.0040   48.3090 C   0  0  0  0  0  0  0  0  0  0  0  0
   61.2800   31.1450   47.8980 C   0  0  0  0  0  0  0  0  0  0  0  0
   60.7860   32.1650   47.0680 C   0  0  0  0  0  0  0  0  0  0  0  0
   61.6020   33.2450   46.7190 C   0  0  0  0  0  0  0  0  0  0  0  0
   62.9100   33.3210   47.2040 C   0  0  0  0  0  0  0  0  0  0  0  0
   63.4040   32.3170   48.0410 C   0  0  0  0  0  0  0  0  0  0  0  0
   62.5920   31.2350   48.3930 C   0  0  0  0  0  0  0  0  0  0  0  0
   60.5480   28.4800   46.3950 C   0  0  0  0  0  0  0  0  0  0  0  0
   60.0190   27.8880   45.2490 C   0  0  0  0  0  0  0  0  0  0  0  0
   58.7220   28.2030   44.8430 C   0  0  0  0  0  0  0  0  0  0  0  0
   58.2460   27.6510   43.8140 O   0  0  0  0  0  0  0  0  0  0  0  0
   57.5719   31.7274   42.6681 H   0  0  0  0  0  0  0  0  0  0  0  0
   59.1021   33.6956   42.5905 H   0  0  0  0  0  0  0  0  0  0  0  0
   59.5420   35.0249   44.6526 H   0  0  0  0  0  0  0  0  0  0  0  0
   57.5829   35.0391   47.4966 H   0  0  0  0  0  0  0  0  0  0  0  0
   58.9337   33.9452   47.9422 H   0  0  0  0  0  0  0  0  0  0  0  0
   59.0650   36.4430   47.2480 H   0  0  0  0  0  0  0  0  0  0  0  0
   56.9213   32.4044   46.8960 H   0  0  0  0  0  0  0  0  0  0  0  0
   57.9707   30.4413   47.3128 H   0  0  0  0  0  0  0  0  0  0  0  0
   59.5828   30.3858   48.9514 H   0  0  0  0  0  0  0  0  0  0  0  0
   60.9877   29.2621   48.8588 H   0  0  0  0  0  0  0  0  0  0  0  0
   59.7537   32.1137   46.6915 H   0  0  0  0  0  0  0  0  0  0  0  0
   61.2135   34.0365   46.0613 H   0  0  0  0  0  0  0  0  0  0  0  0
   63.5509   34.1710   46.9270 H   0  0  0  0  0  0  0  0  0  0  0  0
   64.4335   32.3782   48.4235 H   0  0  0  0  0  0  0  0  0  0  0  0
   62.9814   30.4515   49.0597 H   0  0  0  0  0  0  0  0  0  0  0  0
   61.5708   28.2319   46.7149 H   0  0  0  0  0  0  0  0  0  0  0  0
   60.6219   27.1753   44.6672 H   0  0  0  0  0  0  0  0  0  0  0  0
  1  2  2  0
  2  3  1  0
  3  4  1  0
  4  5  2  0
  5  6  1  0
  6  7  2  0
  7  8  1  0
  8  9  1  0
  9 10  1  0
  8 11  2  0
  2 12  1  0
 12 13  2  0
 13 14  1  0
 14 15  1  0
 15 16  1  0
 16 17  2  0
 17 18  1  0
 18 19  2  0
 19 20  1  0
 20 21  2  0
 14 22  1  0
 22 23  2  0
 23 24  1  0
 24 25  2  0
 11  4  1  0
 24 12  1  0
 21 16  1  0
  5 26  1  0
  6 27  1  0
  7 28  1  0
  9 29  1  0
  9 30  1  0
 10 31  1  0
 11 32  1  0
 13 33  1  0
 15 34  1  0
 15 35  1  0
 17 36  1  0
 18 37  1  0
 19 38  1  0
 20 39  1  0
 21 40  1  0
 22 41  1  0
 23 42  1  0
M  CHG  1   3  -1
M  END
>  <UniqueID>  (79) 
73

>  <SMILES>  (79) 
O=C([N-]c1cccc(CO)c1)c1cn(Cc2ccccc2)ccc1=O

>  <Energy>  (79) 
51.1920794679257

>  <Genealogy>  (79) 
O=C([N-]c1cccc(CO)c1)c1cn(Cc2ccccc2)ccc1=O (protonated)
O=C([N-]c1cccc(CO)c1)c1cn(Cc2ccccc2)ccc1=O (3D coordinates assigned)
O=C([N-]c1cccc(CO)c1)c1cn(Cc2ccccc2)ccc1=O (optimized conformer: 51.1920794679257 kcal/mol)

>  <smiles>  (79) 
O=C(Nc1cccc(CO)c1)c1cn(Cc2ccccc2)ccc1=O

>  <score_type>  (79) 
oracle

>  <origin>  (79) 
adg

>  <m_score__min__energy>  (79) 
-9.9600000000000009

>  <m_primary>  (79) 
energy

$$$$
79:0
     RDKit          3D

 40 42  0  0  0  0  0  0  0  0999 V2000
   60.4560   27.8770   45.2350 O   0  0  0  0  0  0  0  0  0  0  0  0
   59.5730   28.2010   46.0750 C   0  0  0  0  0  0  0  0  0  0  0  0
   58.2520   27.5350   46.0460 C   0  0  0  0  0  0  0  0  0  0  0  0
   57.1050   28.2320   45.6320 C   0  0  0  0  0  0  0  0  0  0  0  0
   55.8950   27.6130   45.6210 N   0  0  0  0  0  0  0  0  0  0  0  0
   55.7450   26.3200   46.0110 C   0  0  0  0  0  0  0  0  0  0  0  0
   54.6030   25.7900   45.9830 O   0  0  0  0  0  0  0  0  0  0  0  0
   56.8580   25.5880   46.4430 C   0  0  0  0  0  0  0  0  0  0  0  0
   56.7000   23.9180   46.9720 Cl  0  0  0  0  0  0  0  0  0  0  0  0
   58.1110   26.2030   46.4620 C   0  0  0  0  0  0  0  0  0  0  0  0
   59.8590   29.2340   47.0300 N   0  0  0  0  0  0  0  0  0  0  0  0
   60.3730   30.5230   46.5610 C   0  0  0  0  0  0  0  0  0  0  0  0
   60.7680   31.4330   47.7340 C   0  0  0  0  0  0  0  0  0  0  0  0
   59.7550   31.4550   48.8140 N   0  0  0  0  0  0  0  0  0  0  0  0
   58.8240   32.6050   48.7930 C   0  0  0  0  0  0  0  0  0  0  0  0
   58.7140   33.2760   47.4390 C   0  0  0  0  0  0  0  0  0  0  0  0
   57.7660   32.8400   46.4970 C   0  0  0  0  0  0  0  0  0  0  0  0
   57.6830   33.4500   45.2420 C   0  0  0  0  0  0  0  0  0  0  0  0
   58.5290   34.5150   44.9240 C   0  0  0  0  0  0  0  0  0  0  0  0
   59.4500   34.9790   45.8650 C   0  0  0  0  0  0  0  0  0  0  0  0
   59.5380   34.3700   47.1200 C   0  0  0  0  0  0  0  0  0  0  0  0
   59.1300   30.1590   49.1750 C   0  0  0  0  0  0  0  0  0  0  0  0
   59.7710   28.9630   48.4660 C   0  0  0  0  0  0  0  0  0  0  0  0
   57.1863   29.2824   45.3156 H   0  0  0  0  0  0  0  0  0  0  0  0
   58.9919   25.6404   46.8048 H   0  0  0  0  0  0  0  0  0  0  0  0
   61.2578   30.3472   45.9315 H   0  0  0  0  0  0  0  0  0  0  0  0
   59.5780   31.0236   45.9888 H   0  0  0  0  0  0  0  0  0  0  0  0
   61.7193   31.0727   48.1526 H   0  0  0  0  0  0  0  0  0  0  0  0
   60.8544   32.4572   47.3421 H   0  0  0  0  0  0  0  0  0  0  0  0
   57.8254   32.2486   49.0859 H   0  0  0  0  0  0  0  0  0  0  0  0
   59.2241   33.3548   49.4914 H   0  0  0  0  0  0  0  0  0  0  0  0
   57.0852   32.0136   46.7491 H   0  0  0  0  0  0  0  0  0  0  0  0
   56.9506   33.0909   44.5040 H   0  0  0  0  0  0  0  0  0  0  0  0
   58.4696   34.9879   43.9326 H   0  0  0  0  0  0  0  0  0  0  0  0
   60.1077   35.8255   45.6183 H   0  0  0  0  0  0  0  0  0  0  0  0
   60.2559   34.7486   47.8624 H   0  0  0  0  0  0  0  0  0  0  0  0
   59.2266   30.0146   50.2612 H   0  0  0  0  0  0  0  0  0  0  0  0
   58.0781   30.2030   48.8564 H   0  0  0  0  0  0  0  0  0  0  0  0
   60.7805   28.7958   48.8697 H   0  0  0  0  0  0  0  0  0  0  0  0
   59.1555   28.0666   48.6320 H   0  0  0  0  0  0  0  0  0  0  0  0
  1  2  2  0
  2  3  1  0
  3  4  2  0
  4  5  1  0
  5  6  1  0
  6  7  2  0
  6  8  1  0
  8  9  1  0
  8 10  2  0
  2 11  1  0
 11 12  1  0
 12 13  1  0
 13 14  1  0
 14 15  1  0
 15 16  1  0
 16 17  2  0
 17 18  1  0
 18 19  2  0
 19 20  1  0
 20 21  2  0
 14 22  1  0
 22 23  1  0
 10  3  1  0
 23 11  1  0
 21 16  1  0
  4 24  1  0
 10 25  1  0
 12 26  1  0
 12 27  1  0
 13 28  1  0
 13 29  1  0
 15 30  1  0
 15 31  1  0
 17 32  1  0
 18 33  1  0
 19 34  1  0
 20 35  1  0
 21 36  1  0
 22 37  1  0
 22 38  1  0
 23 39  1  0
 23 40  1  0
M  CHG  1   5  -1
M  END
>  <UniqueID>  (80) 
74

>  <SMILES>  (80) 
O=C(c1c[n-]c(=O)c(Cl)c1)N1CCN(Cc2ccccc2)CC1

>  <Energy>  (80) 
57.079632756293066

>  <Genealogy>  (80) 
O=C(c1c[n-]c(=O)c(Cl)c1)N1CCN(Cc2ccccc2)CC1 (protonated)
O=C(c1c[n-]c(=O)c(Cl)c1)N1CCN(Cc2ccccc2)CC1 (3D coordinates assigned)
O=C(c1c[n-]c(=O)c(Cl)c1)N1CCN(Cc2ccccc2)CC1 (nonaromatic ring conformer: 57.079632756293066 kcal/mol)

>  <smiles>  (80) 
O=C(c1c[nH]c(=O)c(Cl)c1)N1CCN(Cc2ccccc2)CC1

>  <score_type>  (80) 
oracle

>  <origin>  (80) 
adg

>  <m_score__min__energy>  (80) 
-10.16

>  <m_primary>  (80) 
energy

$$$$
80:0
     RDKit          3D

 31 32  0  0  0  0  0  0  0  0999 V2000
   58.4712   35.2844   45.3028 H   0  0  0  0  0  0  0  0  0  0  0  0
   58.3910   34.2090   45.5200 C   0  0  0  0  0  0  0  0  0  0  0  0
   57.4360   33.4360   44.8580 C   0  0  0  0  0  0  0  0  0  0  0  0
   56.7795   33.9018   44.1083 H   0  0  0  0  0  0  0  0  0  0  0  0
   57.3080   32.0640   45.1440 C   0  0  0  0  0  0  0  0  0  0  0  0
   56.3620   31.2520   44.4960 O   0  0  0  0  0  0  0  0  0  0  0  0
   56.6510   30.4060   43.3880 C   0  0  0  0  0  0  0  0  0  0  0  0
   56.9863   29.4243   43.7539 H   0  0  0  0  0  0  0  0  0  0  0  0
   55.7451   30.2797   42.7770 H   0  0  0  0  0  0  0  0  0  0  0  0
   57.4449   30.8603   42.7770 H   0  0  0  0  0  0  0  0  0  0  0  0
   58.1400   31.4770   46.1110 C   0  0  0  0  0  0  0  0  0  0  0  0
   57.9800   30.1090   46.3860 O   0  0  0  0  0  0  0  0  0  0  0  0
   58.9580   29.1110   46.1100 C   0  0  0  0  0  0  0  0  0  0  0  0
   59.3504   28.7105   47.0564 H   0  0  0  0  0  0  0  0  0  0  0  0
   58.4980   28.2972   45.5302 H   0  0  0  0  0  0  0  0  0  0  0  0
   59.7809   29.5545   45.5302 H   0  0  0  0  0  0  0  0  0  0  0  0
   59.1000   32.2660   46.7750 C   0  0  0  0  0  0  0  0  0  0  0  0
   59.7383   31.8123   47.5475 H   0  0  0  0  0  0  0  0  0  0  0  0
   59.2490   33.6210   46.4610 C   0  0  0  0  0  0  0  0  0  0  0  0
   60.1970   34.4100   47.1950 N   0  0  0  0  0  0  0  0  0  0  0  0
   61.3650   34.0320   47.6350 C   0  0  0  0  0  0  0  0  0  0  0  0
   62.2810   33.4920   46.7210 C   0  0  0  0  0  0  0  0  0  0  0  0
   62.0086   33.3914   45.6600 H   0  0  0  0  0  0  0  0  0  0  0  0
   63.5390   33.0830   47.1630 C   0  0  0  0  0  0  0  0  0  0  0  0
   64.2587   32.6494   46.4531 H   0  0  0  0  0  0  0  0  0  0  0  0
   63.8820   33.2250   48.5060 C   0  0  0  0  0  0  0  0  0  0  0  0
   64.8687   32.8977   48.8655 H   0  0  0  0  0  0  0  0  0  0  0  0
   62.9600   33.7870   49.3900 C   0  0  0  0  0  0  0  0  0  0  0  0
   63.2242   33.9100   50.4507 H   0  0  0  0  0  0  0  0  0  0  0  0
   61.7350   34.1840   48.9470 N   0  0  0  0  0  0  0  0  0  0  0  0
   61.1040   34.6400   49.6400 H   0  0  0  0  0  0  0  0  0  0  0  0
  1  2  1  0
  2  3  2  0
  3  4  1  0
  3  5  1  0
  5  6  1  0
  6  7  1  0
  7  8  1  0
  7  9  1  0
  7 10  1  0
  5 11  2  0
 11 12  1  0
 12 13  1  0
 13 14  1  0
 13 15  1  0
 13 16  1  0
 11 17  1  0
 17 18  1  0
 17 19  2  0
 19 20  1  0
 20 21  2  0
 21 22  1  0
 22 23  1  0
 22 24  2  0
 24 25  1  0
 24 26  1  0
 26 27  1  0
 26 28  2  0
 28 29  1  0
 28 30  1  0
 30 31  1  0
 19  2  1  0
 30 21  1  0
M  END
>  <UniqueID>  (81) 
75

>  <SMILES>  (81) 
COc1ccc(/N=c2/cccc[nH]2)cc1OC

>  <Energy>  (81) 
39.623663616586775

>  <Genealogy>  (81) 
COc1ccc(/N=c2/cccc[nH]2)cc1OC (cis-trans isomerization)
COc1ccc(/N=c2/cccc[nH]2)cc1OC (3D coordinates assigned)
COc1ccc(/N=c2/cccc[nH]2)cc1OC (optimized conformer: 39.623663616586775 kcal/mol)

>  <smiles>  (81) 
COc1ccc(N=c2cccc[nH]2)cc1OC

>  <score_type>  (81) 
oracle

>  <origin>  (81) 
adg

>  <m_score__min__energy>  (81) 
-5.5599999999999996

>  <m_primary>  (81) 
energy

$$$$
81:0
     RDKit          3D

 26 27  0  0  0  0  0  0  0  0999 V2000
   57.4570   27.9390   46.0580 C   0  0  0  0  0  0  0  0  0  0  0  0
   57.2600   29.3290   45.5490 C   0  0  0  0  0  0  0  0  0  0  0  0
   56.2070   29.7090   44.8640 O   0  0  0  0  0  0  0  0  0  0  0  0
   56.2760   30.9720   44.5560 N   0  0  0  0  0  0  0  0  0  0  0  0
   57.4280   31.4460   45.0650 C   0  0  0  0  0  0  0  0  0  0  0  0
   58.0990   30.4220   45.7050 C   0  0  0  0  0  0  0  0  0  0  0  0
   59.4080   30.5090   46.3960 C   0  0  0  0  0  0  0  0  0  0  0  0
   60.6560   29.5650   45.8960 S   0  0  0  0  0  0  0  0  0  0  0  0
   59.5990   31.4130   47.5030 N   0  0  0  0  0  0  0  0  0  0  0  0
   60.8810   32.0700   47.3840 C   0  0  0  0  0  0  0  0  0  0  0  0
   62.0160   31.5150   48.0180 C   0  0  0  0  0  0  0  0  0  0  0  0
   61.9070   30.3920   48.7690 F   0  0  0  0  0  0  0  0  0  0  0  0
   63.2690   32.1190   47.8850 C   0  0  0  0  0  0  0  0  0  0  0  0
   63.4130   33.2780   47.1250 C   0  0  0  0  0  0  0  0  0  0  0  0
   62.3040   33.8410   46.4930 C   0  0  0  0  0  0  0  0  0  0  0  0
   61.0410   33.2510   46.6150 C   0  0  0  0  0  0  0  0  0  0  0  0
   59.6910   34.0320   45.7990 Cl  0  0  0  0  0  0  0  0  0  0  0  0
   57.4558   27.9477   47.1580 H   0  0  0  0  0  0  0  0  0  0  0  0
   56.6409   27.2967   45.6955 H   0  0  0  0  0  0  0  0  0  0  0  0
   58.4194   27.5487   45.6955 H   0  0  0  0  0  0  0  0  0  0  0  0
   57.7799   32.4850   44.9842 H   0  0  0  0  0  0  0  0  0  0  0  0
   58.8170   32.1060   47.5340 H   0  0  0  0  0  0  0  0  0  0  0  0
   59.5530   30.8970   48.4110 H   0  0  0  0  0  0  0  0  0  0  0  0
   64.1453   31.6777   48.3823 H   0  0  0  0  0  0  0  0  0  0  0  0
   64.4017   33.7493   47.0233 H   0  0  0  0  0  0  0  0  0  0  0  0
   62.4233   34.7559   45.8941 H   0  0  0  0  0  0  0  0  0  0  0  0
  1  2  1  0
  2  3  1  0
  3  4  1  0
  4  5  2  0
  5  6  1  0
  6  7  1  0
  7  8  2  0
  7  9  1  0
  9 10  1  0
 10 11  2  0
 11 12  1  0
 11 13  1  0
 13 14  2  0
 14 15  1  0
 15 16  2  0
 16 17  1  0
  6  2  2  0
 16 10  1  0
  1 18  1  0
  1 19  1  0
  1 20  1  0
  5 21  1  0
  9 22  1  0
  9 23  1  0
 13 24  1  0
 14 25  1  0
 15 26  1  0
M  CHG  1   9   1
M  END
>  <UniqueID>  (82) 
76

>  <SMILES>  (82) 
Cc1oncc1C(=S)[NH2+]c1c(F)cccc1Cl

>  <Energy>  (82) 
62.885404084278505

>  <Genealogy>  (82) 
Cc1oncc1C(=S)[NH2+]c1c(F)cccc1Cl (protonated)
Cc1oncc1C(=S)[NH2+]c1c(F)cccc1Cl (3D coordinates assigned)
Cc1oncc1C(=S)[NH2+]c1c(F)cccc1Cl (optimized conformer: 62.885404084278505 kcal/mol)

>  <smiles>  (82) 
Cc1oncc1C(=S)Nc1c(F)cccc1Cl

>  <score_type>  (82) 
oracle

>  <origin>  (82) 
adg

>  <m_score__min__energy>  (82) 
-4.9299999999999997

>  <m_primary>  (82) 
energy

$$$$
82:0
     RDKit          3D

 45 48  0  0  1  0  0  0  0  0999 V2000
   58.8680   25.0000   45.7960 C   0  0  0  0  0  0  0  0  0  0  0  0
   58.0010   25.2840   44.5670 C   0  0  1  0  0  0  0  0  0  0  0  0
   56.8020   24.5180   44.7100 N   0  0  0  0  0  0  0  0  0  0  0  0
   56.6500   23.3770   44.1760 C   0  0  0  0  0  0  0  0  0  0  0  0
   56.4490   23.2250   42.8490 N   0  0  0  0  0  0  0  0  0  0  0  0
   56.2850   22.0240   42.2680 C   0  0  0  0  0  0  0  0  0  0  0  0
   56.3250   20.9250   43.0480 N   0  0  0  0  0  0  0  0  0  0  0  0
   56.5210   20.9790   44.3880 C   0  0  0  0  0  0  0  0  0  0  0  0
   56.5560   19.7900   45.1770 N   0  0  0  0  0  0  0  0  0  0  0  0
   56.6850   22.2310   44.9490 C   0  0  0  0  0  0  0  0  0  0  0  0
   56.8980   22.3370   46.3840 C   0  0  0  0  0  0  0  0  0  0  0  0
   57.0630   22.4170   47.5320 N   0  0  0  0  0  0  0  0  0  0  0  0
   57.7580   26.7480   44.5630 C   0  0  0  0  0  0  0  0  0  0  0  0
   57.5080   27.3600   45.7650 C   0  0  0  0  0  0  0  0  0  0  0  0
   57.2680   28.7250   45.8850 C   0  0  0  0  0  0  0  0  0  0  0  0
   57.2840   29.4890   44.7360 C   0  0  0  0  0  0  0  0  0  0  0  0
   57.0360   30.8830   44.8760 N   0  0  0  0  0  0  0  0  0  0  0  0
   57.8010   31.5820   45.5400 C   0  0  0  0  0  0  0  0  0  0  0  0
   59.0190   31.4350   46.0410 N   0  0  0  0  0  0  0  0  0  0  0  0
   59.6150   32.3580   46.7230 C   0  0  0  0  0  0  0  0  0  0  0  0
   60.9050   32.3260   47.3080 C   0  0  0  0  0  0  0  0  0  0  0  0
   61.3810   33.4070   48.0040 C   0  0  0  0  0  0  0  0  0  0  0  0
   60.6810   34.5790   48.1940 C   0  0  0  0  0  0  0  0  0  0  0  0
   59.4200   34.6380   47.6350 C   0  0  0  0  0  0  0  0  0  0  0  0
   58.9670   33.5670   46.9530 C   0  0  0  0  0  0  0  0  0  0  0  0
   57.3310   33.3160   46.0830 S   0  0  0  0  0  0  0  0  0  0  0  0
   57.5350   28.8870   43.5170 C   0  0  0  0  0  0  0  0  0  0  0  0
   57.7740   27.5160   43.4160 C   0  0  0  0  0  0  0  0  0  0  0  0
   58.2843   25.1912   46.7086 H   0  0  0  0  0  0  0  0  0  0  0  0
   59.1918   23.9488   45.7813 H   0  0  0  0  0  0  0  0  0  0  0  0
   59.7510   25.6559   45.7813 H   0  0  0  0  0  0  0  0  0  0  0  0
   58.4643   25.0020   43.6100 H   0  0  0  0  0  0  0  0  0  0  0  0
   56.4210   24.0850   42.2580 H   0  0  0  0  0  0  0  0  0  0  0  0
   56.1222   21.9399   41.1834 H   0  0  0  0  0  0  0  0  0  0  0  0
   56.1050   19.7790   46.1220 H   0  0  0  0  0  0  0  0  0  0  0  0
   57.0370   18.9270   44.8060 H   0  0  0  0  0  0  0  0  0  0  0  0
   57.4968   26.7431   46.6757 H   0  0  0  0  0  0  0  0  0  0  0  0
   57.0714   29.1816   46.8663 H   0  0  0  0  0  0  0  0  0  0  0  0
   59.5030   30.4710   45.8420 H   0  0  0  0  0  0  0  0  0  0  0  0
   61.5296   31.4266   47.2029 H   0  0  0  0  0  0  0  0  0  0  0  0
   62.3884   33.3342   48.4397 H   0  0  0  0  0  0  0  0  0  0  0  0
   61.1041   35.4217   48.7604 H   0  0  0  0  0  0  0  0  0  0  0  0
   58.7986   35.5391   47.7437 H   0  0  0  0  0  0  0  0  0  0  0  0
   57.5466   29.5030   42.6057 H   0  0  0  0  0  0  0  0  0  0  0  0
   57.9721   27.0543   42.4375 H   0  0  0  0  0  0  0  0  0  0  0  0
  1  2  1  0
  2  3  1  0
  3  4  2  0
  4  5  1  0
  5  6  1  0
  6  7  2  0
  7  8  1  0
  8  9  1  0
  8 10  2  0
 10 11  1  0
 11 12  3  0
  2 13  1  0
 13 14  2  0
 14 15  1  0
 15 16  2  0
 16 17  1  0
 17 18  2  0
 18 19  1  0
 19 20  1  0
 20 21  2  0
 21 22  1  0
 22 23  2  0
 23 24  1  0
 24 25  2  0
 25 26  1  0
 16 27  1  0
 27 28  2  0
 10  4  1  0
 28 13  1  0
 26 18  1  0
 25 20  1  0
  1 29  1  0
  1 30  1  0
  1 31  1  0
  2 32  1  6
  5 33  1  0
  6 34  1  0
  9 35  1  0
  9 36  1  0
 14 37  1  0
 15 38  1  0
 19 39  1  0
 21 40  1  0
 22 41  1  0
 23 42  1  0
 24 43  1  0
 27 44  1  0
 28 45  1  0
M  END
>  <smiles>  (83) 
CC(N=c1[nH]cnc(N)c1C#N)c1ccc(N=c2[nH]c3ccccc3s2)cc1

>  <score_type>  (83) 
oracle

>  <origin>  (83) 
adg

>  <m_score__min__energy>  (83) 
-8.9000000000000004

>  <m_primary>  (83) 
energy

$$$$
83:0
     RDKit          3D

 46 50  0  0  1  0  0  0  0  0999 V2000
   58.3000   28.9510   48.2240 O   0  0  0  0  0  0  0  0  0  0  0  0
   59.4270   28.4990   47.8820 C   0  0  0  0  0  0  0  0  0  0  0  0
   59.6390   27.0270   47.6440 C   0  0  0  0  0  0  0  0  0  0  0  0
   58.6020   26.4080   46.8880 C   0  0  0  0  0  0  0  0  0  0  0  0
   57.1570   26.7290   46.8590 C   0  0  0  0  0  0  0  0  0  0  0  0
   56.5260   25.9570   46.0470 N   0  0  0  0  0  0  0  0  0  0  0  0
   56.8360   25.0660   45.3330 C   0  0  0  0  0  0  0  0  0  0  0  0
   58.7250   25.0180   45.6960 S   0  0  0  0  0  0  0  0  0  0  0  0
   60.5710   29.3230   47.6930 N   0  0  0  0  0  0  0  0  0  0  0  0
   58.1530   32.5680   45.3180 C   0  0  0  0  0  0  0  0  0  0  0  0
   58.3700   33.9150   45.2830 C   0  0  0  0  0  0  0  0  0  0  0  0
   60.9260   32.9310   47.4570 C   0  0  0  0  0  0  0  0  0  0  0  0
   61.8110   33.8920   47.9600 N   0  0  0  0  0  0  0  0  0  0  0  0
   63.0320   33.9010   48.6240 C   0  0  0  0  0  0  0  0  0  0  0  0
   63.5100   33.0050   49.6840 C   0  0  0  0  0  0  0  0  0  0  0  0
   64.1790   32.9770   48.3040 C   0  0  0  0  0  0  0  0  0  0  0  0
   59.8940   33.1180   46.6220 N   0  0  0  0  0  0  0  0  0  0  0  0
   59.4030   34.1670   46.0670 N   0  0  0  0  0  0  0  0  0  0  0  0
   61.1370   31.5800   47.8140 C   0  0  0  0  0  0  0  0  0  0  0  0
   60.3620   30.5500   47.3540 C   0  0  0  0  0  0  0  0  0  0  0  0
   57.2280   31.8690   44.6890 C   0  0  0  0  0  0  0  0  0  0  0  0
   57.4160   30.4340   44.5090 C   0  0  0  0  0  0  0  0  0  0  0  0
   58.6360   29.9100   44.2010 N   0  0  0  0  0  0  0  0  0  0  0  0
   58.4740   28.5640   44.1040 C   0  0  0  0  0  0  0  0  0  0  0  0
   59.4290   27.7910   43.8290 O   0  0  0  0  0  0  0  0  0  0  0  0
   57.1860   28.2750   44.3470 N   0  0  0  0  0  0  0  0  0  0  0  0
   56.4930   29.4130   44.6040 C   0  0  0  0  0  0  0  0  0  0  0  0
   55.1540   29.5660   44.9000 O   0  0  0  0  0  0  0  0  0  0  0  0
   59.1300   32.0730   46.1720 C   0  0  0  0  0  0  0  0  0  0  0  0
   59.3490   30.8140   46.5240 N   0  0  0  0  0  0  0  0  0  0  0  0
   60.5873   26.8971   47.1019 H   0  0  0  0  0  0  0  0  0  0  0  0
   59.6464   26.5423   48.6314 H   0  0  0  0  0  0  0  0  0  0  0  0
   56.6847   27.5242   47.4545 H   0  0  0  0  0  0  0  0  0  0  0  0
   56.2244   24.4472   44.6599 H   0  0  0  0  0  0  0  0  0  0  0  0
   57.7920   34.6538   44.7085 H   0  0  0  0  0  0  0  0  0  0  0  0
   61.4210   34.9230   47.7920 H   0  0  0  0  0  0  0  0  0  0  0  0
   62.8485   34.9852   48.5957 H   0  0  0  0  0  0  0  0  0  0  0  0
   64.0512   33.4166   50.5486 H   0  0  0  0  0  0  0  0  0  0  0  0
   63.0408   32.2525   50.3348 H   0  0  0  0  0  0  0  0  0  0  0  0
   65.1949   33.3771   48.1701 H   0  0  0  0  0  0  0  0  0  0  0  0
   64.3894   32.2117   47.5424 H   0  0  0  0  0  0  0  0  0  0  0  0
   61.9667   31.3442   48.4966 H   0  0  0  0  0  0  0  0  0  0  0  0
   56.3239   32.3634   44.3041 H   0  0  0  0  0  0  0  0  0  0  0  0
   59.5330   30.4300   44.0640 H   0  0  0  0  0  0  0  0  0  0  0  0
   56.7940   27.3090   44.3360 H   0  0  0  0  0  0  0  0  0  0  0  0
   54.7730   28.9470   45.6200 H   0  0  0  0  0  0  0  0  0  0  0  0
  1  2  2  0
  2  3  1  0
  3  4  1  0
  4  5  2  0
  5  6  1  0
  6  7  2  0
  7  8  1  0
  2  9  1  0
  9 10  2  0
 10 11  1  0
 11 12  2  0
 12 13  1  0
 13 14  1  0
 14 15  1  0
 15 16  1  0
 12 17  1  0
 17 18  1  0
 18 19  2  0
 19 20  1  0
 20 21  2  0
 21 22  1  0
 22 23  1  0
 23 24  1  0
 24 25  2  0
 24 26  1  0
 26 27  1  0
 27 28  1  0
 20 29  1  0
 29 30  2  0
  8  4  1  0
 30 10  1  0
 16 14  1  0
 29 17  1  0
 27 22  2  0
  3 31  1  0
  3 32  1  0
  5 33  1  0
  7 34  1  0
 11 35  1  0
 13 36  1  0
 14 37  1  0
 15 38  1  0
 15 39  1  0
 16 40  1  0
 16 41  1  0
 19 42  1  0
 21 43  1  0
 23 44  1  0
 26 45  1  0
 28 46  1  0
M  END
>  <smiles>  (84) 
O=C(Cc1cncs1)N=c1cc(NC2CC2)n2ncc(=Cc3[nH]c(=O)[nH]c3O)c2n1

>  <score_type>  (84) 
oracle

>  <origin>  (84) 
adg

>  <m_score__min__energy>  (84) 
-9.2899999999999991

>  <m_primary>  (84) 
energy

$$$$
84:0
     RDKit          3D

 28 29  0  0  1  0  0  0  0  0999 V2000
   58.7760   28.4440   46.8190 C   0  0  0  0  0  0  0  0  0  0  0  0
   57.6670   27.8890   45.9160 C   0  0  0  0  0  0  0  0  0  0  0  0
   57.2550   28.9160   44.9270 C   0  0  0  0  0  0  0  0  0  0  0  0
   57.1340   30.1800   45.3760 N   0  0  0  0  0  0  0  0  0  0  0  0
   56.7640   31.1200   44.4990 C   0  0  0  0  0  0  0  0  0  0  0  0
   56.6340   32.3470   44.8830 N   0  0  0  0  0  0  0  0  0  0  0  0
   57.7020   33.1070   45.4390 C   0  0  0  0  0  0  0  0  0  0  0  0
   57.8510   33.0510   46.8280 C   0  0  0  0  0  0  0  0  0  0  0  0
   58.8740   33.7660   47.4600 C   0  0  0  0  0  0  0  0  0  0  0  0
   59.7470   34.5360   46.7200 C   0  0  0  0  0  0  0  0  0  0  0  0
   59.5780   34.5750   45.3500 C   0  0  0  0  0  0  0  0  0  0  0  0
   58.5670   33.8680   44.7140 C   0  0  0  0  0  0  0  0  0  0  0  0
   56.5120   30.8020   43.1630 C   0  0  0  0  0  0  0  0  0  0  0  0
   56.6420   29.4980   42.7140 C   0  0  0  0  0  0  0  0  0  0  0  0
   57.0160   28.5810   43.6310 N   0  0  0  0  0  0  0  0  0  0  0  0
   58.4951   28.3034   47.8732 H   0  0  0  0  0  0  0  0  0  0  0  0
   59.7160   27.9101   46.6156 H   0  0  0  0  0  0  0  0  0  0  0  0
   58.9121   29.5164   46.6156 H   0  0  0  0  0  0  0  0  0  0  0  0
   58.0402   27.0010   45.3848 H   0  0  0  0  0  0  0  0  0  0  0  0
   56.7999   27.6166   46.5356 H   0  0  0  0  0  0  0  0  0  0  0  0
   57.1595   32.4409   47.4277 H   0  0  0  0  0  0  0  0  0  0  0  0
   58.9828   33.7138   48.5534 H   0  0  0  0  0  0  0  0  0  0  0  0
   60.5544   35.1025   47.2070 H   0  0  0  0  0  0  0  0  0  0  0  0
   60.2651   35.1845   44.7447 H   0  0  0  0  0  0  0  0  0  0  0  0
   58.4644   33.9228   43.6202 H   0  0  0  0  0  0  0  0  0  0  0  0
   56.2079   31.5930   42.4617 H   0  0  0  0  0  0  0  0  0  0  0  0
   56.4506   29.2244   41.6659 H   0  0  0  0  0  0  0  0  0  0  0  0
   57.1170   27.5900   43.3020 H   0  0  0  0  0  0  0  0  0  0  0  0
  1  2  1  0
  2  3  1  0
  3  4  2  0
  4  5  1  0
  5  6  2  0
  6  7  1  0
  7  8  2  0
  8  9  1  0
  9 10  2  0
 10 11  1  0
 11 12  2  0
  5 13  1  0
 13 14  2  0
 14 15  1  0
 15  3  1  0
 12  7  1  0
  1 16  1  0
  1 17  1  0
  1 18  1  0
  2 19  1  0
  2 20  1  0
  8 21  1  0
  9 22  1  0
 10 23  1  0
 11 24  1  0
 12 25  1  0
 13 26  1  0
 14 27  1  0
 15 28  1  0
M  END
>  <smiles>  (85) 
CCc1nc(=Nc2ccccc2)cc[nH]1

>  <score_type>  (85) 
oracle

>  <origin>  (85) 
adg

>  <m_score__min__energy>  (85) 
-6.3700000000000001

>  <m_primary>  (85) 
energy

$$$$
85:0
     RDKit          3D

 30 31  0  0  0  0  0  0  0  0999 V2000
   56.4690   26.8420   44.5600 H   0  0  0  0  0  0  0  0  0  0  0  0
   56.6720   27.5940   45.2570 N   0  0  0  0  0  0  0  0  0  0  0  0
   56.7940   28.8320   44.8970 C   0  0  0  0  0  0  0  0  0  0  0  0
   56.0100   29.4090   43.9660 N   0  0  0  0  0  0  0  0  0  0  0  0
   55.2460   28.9650   43.4090 H   0  0  0  0  0  0  0  0  0  0  0  0
   56.3740   30.7040   43.9530 C   0  0  0  0  0  0  0  0  0  0  0  0
   55.9337   31.4872   43.3184 H   0  0  0  0  0  0  0  0  0  0  0  0
   57.3950   30.8880   44.8710 C   0  0  0  0  0  0  0  0  0  0  0  0
   57.9510   32.2060   45.2530 C   0  0  0  0  0  0  0  0  0  0  0  0
   57.9700   32.6260   46.5940 C   0  0  0  0  0  0  0  0  0  0  0  0
   57.5609   31.9722   47.3783 H   0  0  0  0  0  0  0  0  0  0  0  0
   58.5070   33.8720   46.9360 C   0  0  0  0  0  0  0  0  0  0  0  0
   58.5103   34.1987   47.9864 H   0  0  0  0  0  0  0  0  0  0  0  0
   59.0390   34.7020   45.9460 C   0  0  0  0  0  0  0  0  0  0  0  0
   59.4567   35.6831   46.2162 H   0  0  0  0  0  0  0  0  0  0  0  0
   59.0400   34.2850   44.6130 C   0  0  0  0  0  0  0  0  0  0  0  0
   59.4638   34.9360   43.8342 H   0  0  0  0  0  0  0  0  0  0  0  0
   58.5030   33.0410   44.2670 C   0  0  0  0  0  0  0  0  0  0  0  0
   58.5128   32.7143   43.2167 H   0  0  0  0  0  0  0  0  0  0  0  0
   57.6680   29.6970   45.4630 N   0  0  0  0  0  0  0  0  0  0  0  0
   58.5770   29.4210   46.5840 C   0  0  0  0  0  0  0  0  0  0  0  0
   58.3495   30.1160   47.4058 H   0  0  0  0  0  0  0  0  0  0  0  0
   58.4274   28.3766   46.8952 H   0  0  0  0  0  0  0  0  0  0  0  0
   60.0510   29.5920   46.1820 C   0  0  0  0  0  0  0  0  0  0  0  0
   60.2604   30.6660   46.0690 H   0  0  0  0  0  0  0  0  0  0  0  0
   60.6614   29.1335   46.9739 H   0  0  0  0  0  0  0  0  0  0  0  0
   60.4020   28.8890   44.8740 C   0  0  0  0  0  0  0  0  0  0  0  0
   60.8835   27.9247   45.0937 H   0  0  0  0  0  0  0  0  0  0  0  0
   59.4842   28.7166   44.2927 H   0  0  0  0  0  0  0  0  0  0  0  0
   61.0913   29.5190   44.2927 H   0  0  0  0  0  0  0  0  0  0  0  0
  1  2  1  0
  2  3  2  0
  3  4  1  0
  4  5  1  0
  4  6  1  0
  6  7  1  0
  6  8  2  0
  8  9  1  0
  9 10  2  0
 10 11  1  0
 10 12  1  0
 12 13  1  0
 12 14  2  0
 14 15  1  0
 14 16  1  0
 16 17  1  0
 16 18  2  0
 18 19  1  0
  8 20  1  0
 20 21  1  0
 21 22  1  0
 21 23  1  0
 21 24  1  0
 24 25  1  0
 24 26  1  0
 24 27  1  0
 27 28  1  0
 27 29  1  0
 27 30  1  0
 20  3  1  0
 18  9  1  0
M  END
>  <UniqueID>  (86) 
77

>  <SMILES>  (86) 
[H]/N=c1\[nH]cc(-c2ccccc2)n1CCC

>  <Energy>  (86) 
64.30474411874329

>  <Genealogy>  (86) 
[H]/N=c1\[nH]cc(-c2ccccc2)n1CCC (cis-trans isomerization)
[H]/N=c1\[nH]cc(-c2ccccc2)n1CCC (3D coordinates assigned)
[H]/N=c1\[nH]cc(-c2ccccc2)n1CCC (optimized conformer: 64.30474411874329 kcal/mol)

>  <smiles>  (86) 
CCCn1c(-c2ccccc2)c[nH]c1=N

>  <score_type>  (86) 
oracle

>  <origin>  (86) 
adg

>  <m_score__min__energy>  (86) 
-5.5899999999999999

>  <m_primary>  (86) 
energy

$$$$
86:0
     RDKit          3D

 32 34  0  0  0  0  0  0  0  0999 V2000
   55.4276   28.6822   43.3617 H   0  0  0  0  0  0  0  0  0  0  0  0
   55.5230   29.7110   43.7390 C   0  0  0  0  0  0  0  0  0  0  0  0
   54.7030   30.4292   43.5915 H   0  0  0  0  0  0  0  0  0  0  0  0
   56.6340   30.0880   44.3760 C   0  0  0  0  0  0  0  0  0  0  0  0
   56.7850   31.3420   44.8520 N   0  0  0  0  0  0  0  0  0  0  0  0
   58.0210   31.4700   45.3130 N   0  0  0  0  0  0  0  0  0  0  0  0
   58.5210   32.6850   45.9030 C   0  0  0  0  0  0  0  0  0  0  0  0
   58.7580   32.7810   47.2880 C   0  0  0  0  0  0  0  0  0  0  0  0
   58.5503   31.9195   47.9397 H   0  0  0  0  0  0  0  0  0  0  0  0
   59.2560   33.9660   47.8390 C   0  0  0  0  0  0  0  0  0  0  0  0
   59.4339   34.0347   48.9223 H   0  0  0  0  0  0  0  0  0  0  0  0
   59.5280   35.0620   47.0180 C   0  0  0  0  0  0  0  0  0  0  0  0
   59.9130   35.9951   47.4553 H   0  0  0  0  0  0  0  0  0  0  0  0
   59.3110   34.9730   45.6410 C   0  0  0  0  0  0  0  0  0  0  0  0
   59.5306   35.8348   44.9937 H   0  0  0  0  0  0  0  0  0  0  0  0
   58.8150   33.7900   45.0840 C   0  0  0  0  0  0  0  0  0  0  0  0
   58.6537   33.7232   43.9979 H   0  0  0  0  0  0  0  0  0  0  0  0
   58.6680   30.2980   45.1470 C   0  0  0  0  0  0  0  0  0  0  0  0
   59.8500   30.0760   45.5270 O   0  0  0  0  0  0  0  0  0  0  0  0
   57.8230   29.3670   44.5680 C   0  0  0  0  0  0  0  0  0  0  0  0
   58.1520   28.0870   44.3030 C   0  0  0  0  0  0  0  0  0  0  0  0
   58.9989   27.9135   43.6228 H   0  0  0  0  0  0  0  0  0  0  0  0
   57.4700   26.9020   44.8500 C   0  0  0  0  0  0  0  0  0  0  0  0
   56.5730   27.0410   45.9160 C   0  0  0  0  0  0  0  0  0  0  0  0
   56.4156   28.0281   46.3751 H   0  0  0  0  0  0  0  0  0  0  0  0
   55.8950   25.9580   46.3860 N   0  0  0  0  0  0  0  0  0  0  0  0
   56.0490   24.7250   45.8340 C   0  0  0  0  0  0  0  0  0  0  0  0
   55.4949   23.8670   46.2424 H   0  0  0  0  0  0  0  0  0  0  0  0
   56.9100   24.5470   44.7490 C   0  0  0  0  0  0  0  0  0  0  0  0
   57.0324   23.5529   44.2942 H   0  0  0  0  0  0  0  0  0  0  0  0
   57.6130   25.6420   44.2480 C   0  0  0  0  0  0  0  0  0  0  0  0
   58.2793   25.5185   43.3815 H   0  0  0  0  0  0  0  0  0  0  0  0
  1  2  1  0
  2  3  1  0
  2  4  2  0
  4  5  1  0
  5  6  1  0
  6  7  1  0
  7  8  2  0
  8  9  1  0
  8 10  1  0
 10 11  1  0
 10 12  2  0
 12 13  1  0
 12 14  1  0
 14 15  1  0
 14 16  2  0
 16 17  1  0
  6 18  1  0
 18 19  2  0
 18 20  1  0
 20 21  2  0
 21 22  1  0
 21 23  1  0
 23 24  2  0
 24 25  1  0
 24 26  1  0
 26 27  2  0
 27 28  1  0
 27 29  1  0
 29 30  1  0
 29 31  2  0
 31 32  1  0
 20  4  1  0
 31 23  1  0
 16  7  1  0
M  CHG  1   5  -1
M  END
>  <UniqueID>  (87) 
78

>  <SMILES>  (87) 
C=c1[n-]n(-c2ccccc2)c(=O)/c1=C/c1cccnc1

>  <Energy>  (87) 
85.14823304915534

>  <Genealogy>  (87) 
C=c1[n-]n(-c2ccccc2)c(=O)c1=Cc1cccnc1 (protonated)
C=c1[n-]n(-c2ccccc2)c(=O)/c1=C/c1cccnc1 (cis-trans isomerization)
C=c1[n-]n(-c2ccccc2)c(=O)/c1=C/c1cccnc1 (3D coordinates assigned)
C=c1[n-]n(-c2ccccc2)c(=O)/c1=C/c1cccnc1 (optimized conformer: 85.14823304915534 kcal/mol)

>  <smiles>  (87) 
C=c1[nH]n(-c2ccccc2)c(=O)c1=Cc1cccnc1

>  <score_type>  (87) 
oracle

>  <origin>  (87) 
adg

>  <m_score__min__energy>  (87) 
-8.7400000000000002

>  <m_primary>  (87) 
energy

$$$$
87:0
     RDKit          3D

 28 29  0  0  0  0  0  0  0  0999 V2000
   60.5860   28.3320   45.2300 C   0  0  0  0  0  0  0  0  0  0  0  0
   59.1350   27.9810   45.4360 C   0  0  0  0  0  0  0  0  0  0  0  0
   58.8160   26.9100   46.2890 C   0  0  0  0  0  0  0  0  0  0  0  0
   57.4910   26.5180   46.4790 C   0  0  0  0  0  0  0  0  0  0  0  0
   56.4630   27.1810   45.8120 C   0  0  0  0  0  0  0  0  0  0  0  0
   55.1450   26.7810   45.9940 O   0  0  0  0  0  0  0  0  0  0  0  0
   56.7580   28.2470   44.9590 C   0  0  0  0  0  0  0  0  0  0  0  0
   58.0870   28.6740   44.7660 C   0  0  0  0  0  0  0  0  0  0  0  0
   58.3400   29.7930   43.8810 N   0  0  0  0  0  0  0  0  0  0  0  0
   58.1260   31.0400   44.5750 C   0  0  0  0  0  0  0  0  0  0  0  0
   57.7600   32.2000   43.8650 C   0  0  0  0  0  0  0  0  0  0  0  0
   57.5700   33.4100   44.5370 C   0  0  0  0  0  0  0  0  0  0  0  0
   57.7440   33.4790   45.9210 C   0  0  0  0  0  0  0  0  0  0  0  0
   58.1090   32.3360   46.6370 C   0  0  0  0  0  0  0  0  0  0  0  0
   58.3000   31.1230   45.9710 C   0  0  0  0  0  0  0  0  0  0  0  0
   61.0768   28.4507   46.2072 H   0  0  0  0  0  0  0  0  0  0  0  0
   61.0813   27.5278   44.6662 H   0  0  0  0  0  0  0  0  0  0  0  0
   60.6590   29.2737   44.6662 H   0  0  0  0  0  0  0  0  0  0  0  0
   59.6214   26.3745   46.8131 H   0  0  0  0  0  0  0  0  0  0  0  0
   57.2572   25.6838   47.1568 H   0  0  0  0  0  0  0  0  0  0  0  0
   55.9413   28.7605   44.4304 H   0  0  0  0  0  0  0  0  0  0  0  0
   57.6970   29.7180   43.0590 H   0  0  0  0  0  0  0  0  0  0  0  0
   59.3090   29.7870   43.4910 H   0  0  0  0  0  0  0  0  0  0  0  0
   57.6229   32.1530   42.7746 H   0  0  0  0  0  0  0  0  0  0  0  0
   57.2826   34.3106   43.9746 H   0  0  0  0  0  0  0  0  0  0  0  0
   57.5937   34.4331   46.4474 H   0  0  0  0  0  0  0  0  0  0  0  0
   58.2462   32.3914   47.7270 H   0  0  0  0  0  0  0  0  0  0  0  0
   58.5881   30.2267   46.5400 H   0  0  0  0  0  0  0  0  0  0  0  0
  1  2  1  0
  2  3  2  0
  3  4  1  0
  4  5  2  0
  5  6  1  0
  5  7  1  0
  7  8  2  0
  8  9  1  0
  9 10  1  0
 10 11  2  0
 11 12  1  0
 12 13  2  0
 13 14  1  0
 14 15  2  0
  8  2  1  0
 15 10  1  0
  1 16  1  0
  1 17  1  0
  1 18  1  0
  3 19  1  0
  4 20  1  0
  7 21  1  0
  9 22  1  0
  9 23  1  0
 11 24  1  0
 12 25  1  0
 13 26  1  0
 14 27  1  0
 15 28  1  0
M  CHG  2   6  -1   9   1
M  END
>  <UniqueID>  (88) 
79

>  <SMILES>  (88) 
Cc1ccc([O-])cc1[NH2+]c1ccccc1

>  <Energy>  (88) 
33.0889068886731

>  <Genealogy>  (88) 
Cc1ccc([O-])cc1[NH2+]c1ccccc1 (protonated)
Cc1ccc([O-])cc1[NH2+]c1ccccc1 (3D coordinates assigned)
Cc1ccc([O-])cc1[NH2+]c1ccccc1 (optimized conformer: 33.0889068886731 kcal/mol)

>  <smiles>  (88) 
Cc1ccc(O)cc1Nc1ccccc1

>  <score_type>  (88) 
oracle

>  <origin>  (88) 
adg

>  <m_score__min__energy>  (88) 
-8.7599999999999998

>  <m_primary>  (88) 
energy

$$$$
88:0
     RDKit          3D

 52 55  0  0  0  0  0  0  0  0999 V2000
   57.1410   19.2480   46.4540 C   0  0  0  0  0  0  0  0  0  0  0  0
   55.7210   19.1720   45.9190 C   0  0  0  0  0  0  0  0  0  0  0  0
   55.0150   20.3590   46.2710 O   0  0  0  0  0  0  0  0  0  0  0  0
   55.5530   21.6520   46.1920 C   0  0  0  0  0  0  0  0  0  0  0  0
   55.5840   22.5240   47.2950 C   0  0  0  0  0  0  0  0  0  0  0  0
   56.1010   23.8150   47.1570 C   0  0  0  0  0  0  0  0  0  0  0  0
   56.5950   24.2590   45.9200 C   0  0  0  0  0  0  0  0  0  0  0  0
   57.0390   25.6200   45.7570 N   0  0  0  0  0  0  0  0  0  0  0  0
   56.2720   26.7290   45.8490 C   0  0  0  0  0  0  0  0  0  0  0  0
   54.8890   26.7150   45.9920 O   0  0  0  0  0  0  0  0  0  0  0  0
   57.0440   27.8740   45.8650 C   0  0  0  0  0  0  0  0  0  0  0  0
   58.3530   27.4420   45.7860 C   0  0  0  0  0  0  0  0  0  0  0  0
   59.8030   28.4540   46.0880 S   0  0  0  0  0  0  0  0  0  0  0  0
   58.9110   29.9290   45.6100 C   0  0  0  0  0  0  0  0  0  0  0  0
   59.0110   30.4840   44.3830 N   0  0  0  0  0  0  0  0  0  0  0  0
   58.4890   31.7060   44.3140 N   0  0  0  0  0  0  0  0  0  0  0  0
   57.9950   32.1480   45.4920 C   0  0  0  0  0  0  0  0  0  0  0  0
   57.4930   33.5200   45.6700 C   0  0  0  0  0  0  0  0  0  0  0  0
   56.6700   33.9700   44.8300 O   0  0  0  0  0  0  0  0  0  0  0  0
   57.9530   34.3940   46.7140 N   0  0  0  0  0  0  0  0  0  0  0  0
   59.2160   34.3250   47.4500 C   0  0  0  0  0  0  0  0  0  0  0  0
   60.4390   34.4350   46.5260 C   0  0  0  0  0  0  0  0  0  0  0  0
   61.5790   33.5670   46.9900 C   0  0  0  0  0  0  0  0  0  0  0  0
   62.9050   33.9140   46.6770 C   0  0  0  0  0  0  0  0  0  0  0  0
   63.9650   33.1200   47.1270 C   0  0  0  0  0  0  0  0  0  0  0  0
   63.7090   31.9720   47.8810 C   0  0  0  0  0  0  0  0  0  0  0  0
   62.3930   31.6150   48.1850 C   0  0  0  0  0  0  0  0  0  0  0  0
   61.3300   32.4060   47.7380 C   0  0  0  0  0  0  0  0  0  0  0  0
   58.1480   30.9690   46.6900 S   0  0  0  0  0  0  0  0  0  0  0  0
   58.3140   26.0640   45.7120 C   0  0  0  0  0  0  0  0  0  0  0  0
   59.4320   25.2380   45.6470 O   0  0  0  0  0  0  0  0  0  0  0  0
   56.5850   23.3780   44.8270 C   0  0  0  0  0  0  0  0  0  0  0  0
   56.0700   22.0850   44.9660 C   0  0  0  0  0  0  0  0  0  0  0  0
   57.1190   19.2468   47.5538 H   0  0  0  0  0  0  0  0  0  0  0  0
   57.7140   18.3792   46.0978 H   0  0  0  0  0  0  0  0  0  0  0  0
   57.6180   20.1730   46.0978 H   0  0  0  0  0  0  0  0  0  0  0  0
   55.7469   19.0723   44.8238 H   0  0  0  0  0  0  0  0  0  0  0  0
   55.2116   18.3002   46.3554 H   0  0  0  0  0  0  0  0  0  0  0  0
   55.2000   22.1887   48.2697 H   0  0  0  0  0  0  0  0  0  0  0  0
   56.1211   24.4896   48.0256 H   0  0  0  0  0  0  0  0  0  0  0  0
   56.6898   28.9135   45.9276 H   0  0  0  0  0  0  0  0  0  0  0  0
   59.2469   35.1501   48.1768 H   0  0  0  0  0  0  0  0  0  0  0  0
   59.2600   33.3460   47.9497 H   0  0  0  0  0  0  0  0  0  0  0  0
   60.1466   34.1246   45.5120 H   0  0  0  0  0  0  0  0  0  0  0  0
   60.7814   35.4803   46.5400 H   0  0  0  0  0  0  0  0  0  0  0  0
   63.1095   34.8126   46.0764 H   0  0  0  0  0  0  0  0  0  0  0  0
   65.0014   33.3998   46.8869 H   0  0  0  0  0  0  0  0  0  0  0  0
   64.5436   31.3492   48.2353 H   0  0  0  0  0  0  0  0  0  0  0  0
   62.1926   30.7099   48.7772 H   0  0  0  0  0  0  0  0  0  0  0  0
   60.2950   32.1172   47.9735 H   0  0  0  0  0  0  0  0  0  0  0  0
   56.9843   23.7063   43.8561 H   0  0  0  0  0  0  0  0  0  0  0  0
   56.0714   21.4022   44.1035 H   0  0  0  0  0  0  0  0  0  0  0  0
  1  2  1  0
  2  3  1  0
  3  4  1  0
  4  5  2  0
  5  6  1  0
  6  7  2  0
  7  8  1  0
  8  9  1  0
  9 10  1  0
  9 11  2  0
 11 12  1  0
 12 13  1  0
 13 14  1  0
 14 15  2  0
 15 16  1  0
 16 17  2  0
 17 18  1  0
 18 19  2  0
 18 20  1  0
 20 21  1  0
 21 22  1  0
 22 23  1  0
 23 24  2  0
 24 25  1  0
 25 26  2  0
 26 27  1  0
 27 28  2  0
 17 29  1  0
 12 30  2  0
 30 31  1  0
  7 32  1  0
 32 33  2  0
 33  4  1  0
 30  8  1  0
 29 14  1  0
 28 23  1  0
  1 34  1  0
  1 35  1  0
  1 36  1  0
  2 37  1  0
  2 38  1  0
  5 39  1  0
  6 40  1  0
 11 41  1  0
 21 42  1  0
 21 43  1  0
 22 44  1  0
 22 45  1  0
 24 46  1  0
 25 47  1  0
 26 48  1  0
 27 49  1  0
 28 50  1  0
 32 51  1  0
 33 52  1  0
M  CHG  3  10  -1  20  -1  31  -1
M  END
>  <UniqueID>  (89) 
80

>  <SMILES>  (89) 
CCOc1ccc(-n2c([O-])cc(Sc3nnc(C(=O)[N-]CCc4ccccc4)s3)c2[O-])cc1

>  <Energy>  (89) 
113.7547487396504

>  <Genealogy>  (89) 
CCOc1ccc(-n2c([O-])cc(Sc3nnc(C(=O)[N-]CCc4ccccc4)s3)c2[O-])cc1 (protonated)
CCOc1ccc(-n2c([O-])cc(Sc3nnc(C(=O)[N-]CCc4ccccc4)s3)c2[O-])cc1 (3D coordinates assigned)
CCOc1ccc(-n2c([O-])cc(Sc3nnc(C(=O)[N-]CCc4ccccc4)s3)c2[O-])cc1 (optimized conformer: 113.7547487396504 kcal/mol)

>  <smiles>  (89) 
CCOc1ccc(-n2c(O)cc(Sc3nnc(C(=O)NCCc4ccccc4)s3)c2O)cc1

>  <score_type>  (89) 
oracle

>  <origin>  (89) 
adg

>  <m_score__min__energy>  (89) 
-13.73

>  <m_primary>  (89) 
energy

$$$$
89:0
     RDKit          3D

 36 38  0  0  0  0  0  0  0  0999 V2000
   53.0670   24.0040   45.2280 C   0  0  0  0  0  0  0  0  0  0  0  0
   54.3210   24.7140   45.6080 C   0  0  0  0  0  0  0  0  0  0  0  0
   55.5920   24.1830   45.5990 C   0  0  0  0  0  0  0  0  0  0  0  0
   56.3830   25.2390   46.0070 C   0  0  0  0  0  0  0  0  0  0  0  0
   57.8510   25.2420   46.1320 C   0  0  0  0  0  0  0  0  0  0  0  0
   58.4450   24.1540   46.3620 O   0  0  0  0  0  0  0  0  0  0  0  0
   58.6120   26.4540   46.0070 N   0  0  0  0  0  0  0  0  0  0  0  0
   58.4890   27.2500   44.7790 C   0  0  0  0  0  0  0  0  0  0  0  0
   59.4900   28.4130   44.7770 C   0  0  0  0  0  0  0  0  0  0  0  0
   59.5450   29.0780   46.0950 N   0  0  0  0  0  0  0  0  0  0  0  0
   58.2850   29.7860   46.4090 C   0  0  0  0  0  0  0  0  0  0  0  0
   57.5460   30.1070   45.1500 C   0  0  0  0  0  0  0  0  0  0  0  0
   56.2990   29.6630   44.8840 N   0  0  0  0  0  0  0  0  0  0  0  0
   55.8580   30.0920   43.6710 C   0  0  0  0  0  0  0  0  0  0  0  0
   56.7550   30.8840   42.9630 C   0  0  0  0  0  0  0  0  0  0  0  0
   58.1470   31.0480   43.8930 S   0  0  0  0  0  0  0  0  0  0  0  0
   59.9720   28.1640   47.1880 C   0  0  0  0  0  0  0  0  0  0  0  0
   59.7670   26.6650   46.8830 C   0  0  0  0  0  0  0  0  0  0  0  0
   55.6140   26.3250   46.2200 N   0  0  0  0  0  0  0  0  0  0  0  0
   54.3860   25.9720   45.9740 O   0  0  0  0  0  0  0  0  0  0  0  0
   52.5284   23.6990   46.1373 H   0  0  0  0  0  0  0  0  0  0  0  0
   52.4310   24.6760   44.6331 H   0  0  0  0  0  0  0  0  0  0  0  0
   53.3160   23.1129   44.6331 H   0  0  0  0  0  0  0  0  0  0  0  0
   55.9025   23.1623   45.3310 H   0  0  0  0  0  0  0  0  0  0  0  0
   58.6854   26.6044   43.9103 H   0  0  0  0  0  0  0  0  0  0  0  0
   57.4707   27.6630   44.7287 H   0  0  0  0  0  0  0  0  0  0  0  0
   60.4892   28.0250   44.5298 H   0  0  0  0  0  0  0  0  0  0  0  0
   59.1624   29.1509   44.0299 H   0  0  0  0  0  0  0  0  0  0  0  0
   57.6571   29.1453   47.0457 H   0  0  0  0  0  0  0  0  0  0  0  0
   58.5210   30.7225   46.9355 H   0  0  0  0  0  0  0  0  0  0  0  0
   54.8640   29.8313   43.2786 H   0  0  0  0  0  0  0  0  0  0  0  0
   56.5845   31.3254   41.9700 H   0  0  0  0  0  0  0  0  0  0  0  0
   61.0420   28.3329   47.3792 H   0  0  0  0  0  0  0  0  0  0  0  0
   59.3388   28.3968   48.0569 H   0  0  0  0  0  0  0  0  0  0  0  0
   60.6682   26.2733   46.3886 H   0  0  0  0  0  0  0  0  0  0  0  0
   59.5843   26.1391   47.8317 H   0  0  0  0  0  0  0  0  0  0  0  0
  1  2  1  0
  2  3  2  0
  3  4  1  0
  4  5  1  0
  5  6  2  0
  5  7  1  0
  7  8  1  0
  8  9  1  0
  9 10  1  0
 10 11  1  0
 11 12  1  0
 12 13  2  0
 13 14  1  0
 14 15  2  0
 15 16  1  0
 10 17  1  0
 17 18  1  0
  4 19  2  0
 19 20  1  0
 20  2  1  0
 18  7  1  0
 16 12  1  0
  1 21  1  0
  1 22  1  0
  1 23  1  0
  3 24  1  0
  8 25  1  0
  8 26  1  0
  9 27  1  0
  9 28  1  0
 11 29  1  0
 11 30  1  0
 14 31  1  0
 15 32  1  0
 17 33  1  0
 17 34  1  0
 18 35  1  0
 18 36  1  0
M  END
>  <UniqueID>  (90) 
81

>  <SMILES>  (90) 
Cc1cc(C(=O)N2CCN(Cc3nccs3)CC2)no1

>  <Energy>  (90) 
105.35188511563423

>  <Genealogy>  (90) 
Cc1cc(C(=O)N2CCN(Cc3nccs3)CC2)no1 (3D coordinates assigned)
Cc1cc(C(=O)N2CCN(Cc3nccs3)CC2)no1 (nonaromatic ring conformer: 105.35188511563423 kcal/mol)

>  <smiles>  (90) 
Cc1cc(C(=O)N2CCN(Cc3nccs3)CC2)no1

>  <score_type>  (90) 
oracle

>  <origin>  (90) 
adg

>  <m_score__min__energy>  (90) 
-7.6399999999999997

>  <m_primary>  (90) 
energy

$$$$
90:0
     RDKit          3D

 40 42  0  0  0  0  0  0  0  0999 V2000
   59.1740   34.6080   45.6690 C   0  0  0  0  0  0  0  0  0  0  0  0
   57.7910   34.1270   45.9470 C   0  0  0  0  0  0  0  0  0  0  0  0
   57.3800   32.9730   45.0550 C   0  0  0  0  0  0  0  0  0  0  0  0
   58.4470   32.0240   44.8740 N   0  0  0  0  0  0  0  0  0  0  0  0
   58.0910   30.6330   44.9660 C   0  0  0  0  0  0  0  0  0  0  0  0
   56.8950   30.2820   45.1930 O   0  0  0  0  0  0  0  0  0  0  0  0
   59.0650   29.6030   44.8040 N   0  0  0  0  0  0  0  0  0  0  0  0
   58.6150   28.2580   44.9110 C   0  0  0  0  0  0  0  0  0  0  0  0
   58.2980   27.6180   43.7230 C   0  0  0  0  0  0  0  0  0  0  0  0
   57.8570   26.3140   43.7650 C   0  0  0  0  0  0  0  0  0  0  0  0
   57.7230   25.6290   44.9540 C   0  0  0  0  0  0  0  0  0  0  0  0
   57.2680   24.1920   44.9450 C   0  0  0  0  0  0  0  0  0  0  0  0
   58.1690   23.2690   44.4800 C   0  0  0  0  0  0  0  0  0  0  0  0
   57.2880   21.6210   44.6770 S   0  0  0  0  0  0  0  0  0  0  0  0
   55.7810   22.4440   45.3810 C   0  0  0  0  0  0  0  0  0  0  0  0
   54.6510   21.8750   45.7770 N   0  0  0  0  0  0  0  0  0  0  0  0
   53.6600   22.6440   46.2480 C   0  0  0  0  0  0  0  0  0  0  0  0
   53.8810   23.9640   46.2860 N   0  0  0  0  0  0  0  0  0  0  0  0
   55.0130   24.5660   45.8920 C   0  0  0  0  0  0  0  0  0  0  0  0
   55.0720   25.8360   45.9680 N   0  0  0  0  0  0  0  0  0  0  0  0
   56.0780   23.7800   45.3910 C   0  0  0  0  0  0  0  0  0  0  0  0
   58.0360   26.2620   46.1170 C   0  0  0  0  0  0  0  0  0  0  0  0
   58.4850   27.5850   46.0940 C   0  0  0  0  0  0  0  0  0  0  0  0
   59.6969   34.7899   46.6195 H   0  0  0  0  0  0  0  0  0  0  0  0
   59.7179   33.8463   45.0912 H   0  0  0  0  0  0  0  0  0  0  0  0
   59.1279   35.5429   45.0912 H   0  0  0  0  0  0  0  0  0  0  0  0
   57.7376   33.7973   46.9951 H   0  0  0  0  0  0  0  0  0  0  0  0
   57.1035   34.9619   45.7462 H   0  0  0  0  0  0  0  0  0  0  0  0
   56.5216   32.4591   45.5122 H   0  0  0  0  0  0  0  0  0  0  0  0
   57.1192   33.3829   44.0681 H   0  0  0  0  0  0  0  0  0  0  0  0
   59.4360   32.3010   44.6860 H   0  0  0  0  0  0  0  0  0  0  0  0
   60.0650   29.8380   44.6140 H   0  0  0  0  0  0  0  0  0  0  0  0
   58.3971   28.1435   42.7617 H   0  0  0  0  0  0  0  0  0  0  0  0
   57.6045   25.8046   42.8233 H   0  0  0  0  0  0  0  0  0  0  0  0
   59.1781   23.4517   44.0821 H   0  0  0  0  0  0  0  0  0  0  0  0
   54.5810   20.8220   45.7030 H   0  0  0  0  0  0  0  0  0  0  0  0
   52.7079   22.2105   46.5881 H   0  0  0  0  0  0  0  0  0  0  0  0
   55.1460   26.3380   46.8700 H   0  0  0  0  0  0  0  0  0  0  0  0
   57.9355   25.7321   47.0757 H   0  0  0  0  0  0  0  0  0  0  0  0
   58.7366   28.0906   47.0380 H   0  0  0  0  0  0  0  0  0  0  0  0
  1  2  1  0
  2  3  1  0
  3  4  1  0
  4  5  1  0
  5  6  2  0
  5  7  1  0
  7  8  1  0
  8  9  2  0
  9 10  1  0
 10 11  2  0
 11 12  1  0
 12 13  2  0
 13 14  1  0
 14 15  1  0
 15 16  1  0
 16 17  1  0
 17 18  2  0
 18 19  1  0
 19 20  2  3
 19 21  1  0
 11 22  1  0
 22 23  2  0
 23  8  1  0
 21 12  1  0
 21 15  2  0
  1 24  1  0
  1 25  1  0
  1 26  1  0
  2 27  1  0
  2 28  1  0
  3 29  1  0
  3 30  1  0
  4 31  1  0
  7 32  1  0
  9 33  1  0
 10 34  1  0
 13 35  1  0
 16 36  1  0
 17 37  1  0
 20 38  1  0
 22 39  1  0
 23 40  1  0
M  END
>  <smiles>  (91) 
CCCNC(=O)Nc1ccc(-c2csc3[nH]cnc(=N)c23)cc1

>  <score_type>  (91) 
oracle

>  <origin>  (91) 
adg

>  <m_score__min__energy>  (91) 
-7.2199999999999998

>  <m_primary>  (91) 
energy

$$$$
91:0
     RDKit          3D

 27 29  0  0  0  0  0  0  0  0999 V2000
   61.5030   30.6230   47.8480 C   0  0  0  0  0  0  0  0  0  0  0  0
   61.0110   31.8430   47.1740 N   0  0  0  0  0  0  0  0  0  0  0  0
   61.7350   33.0240   47.2370 C   0  0  0  0  0  0  0  0  0  0  0  0
   63.1270   33.0970   47.8530 C   0  0  0  0  0  0  0  0  0  0  0  0
   63.7140   34.3170   47.5700 F   0  0  0  0  0  0  0  0  0  0  0  0
   63.9100   32.0730   47.3510 F   0  0  0  0  0  0  0  0  0  0  0  0
   63.0850   32.9720   49.2310 F   0  0  0  0  0  0  0  0  0  0  0  0
   61.1710   34.2150   46.7470 C   0  0  0  0  0  0  0  0  0  0  0  0
   59.9360   34.2090   46.1180 C   0  0  0  0  0  0  0  0  0  0  0  0
   59.4560   35.2960   45.6930 O   0  0  0  0  0  0  0  0  0  0  0  0
   59.2490   33.0040   45.9430 C   0  0  0  0  0  0  0  0  0  0  0  0
   58.0130   32.9730   45.2510 C   0  0  0  0  0  0  0  0  0  0  0  0
   57.3910   31.7470   45.0760 C   0  0  0  0  0  0  0  0  0  0  0  0
   57.9280   30.5980   45.5410 C   0  0  0  0  0  0  0  0  0  0  0  0
   59.1320   30.5680   46.2320 C   0  0  0  0  0  0  0  0  0  0  0  0
   59.8200   31.7960   46.4680 C   0  0  0  0  0  0  0  0  0  0  0  0
   57.1040   29.5380   45.2110 O   0  0  0  0  0  0  0  0  0  0  0  0
   55.9760   30.0590   44.4960 C   0  0  0  0  0  0  0  0  0  0  0  0
   56.1990   31.4740   44.4320 O   0  0  0  0  0  0  0  0  0  0  0  0
   61.4482   30.7589   48.9382 H   0  0  0  0  0  0  0  0  0  0  0  0
   60.8805   29.7651   47.5537 H   0  0  0  0  0  0  0  0  0  0  0  0
   62.5464   30.4370   47.5537 H   0  0  0  0  0  0  0  0  0  0  0  0
   61.7165   35.1630   46.8643 H   0  0  0  0  0  0  0  0  0  0  0  0
   57.5594   33.8970   44.8632 H   0  0  0  0  0  0  0  0  0  0  0  0
   59.5480   29.6151   46.5910 H   0  0  0  0  0  0  0  0  0  0  0  0
   55.9271   29.6291   43.4847 H   0  0  0  0  0  0  0  0  0  0  0  0
   55.0242   29.8124   44.9892 H   0  0  0  0  0  0  0  0  0  0  0  0
  1  2  1  0
  2  3  1  0
  3  4  1  0
  4  5  1  0
  4  6  1  0
  4  7  1  0
  3  8  2  0
  8  9  1  0
  9 10  2  0
  9 11  1  0
 11 12  2  0
 12 13  1  0
 13 14  2  0
 14 15  1  0
 15 16  2  0
 14 17  1  0
 17 18  1  0
 18 19  1  0
 16  2  1  0
 16 11  1  0
 19 13  1  0
  1 20  1  0
  1 21  1  0
  1 22  1  0
  8 23  1  0
 12 24  1  0
 15 25  1  0
 18 26  1  0
 18 27  1  0
M  END
>  <UniqueID>  (92) 
82

>  <SMILES>  (92) 
Cn1c(C(F)(F)F)cc(=O)c2cc3c(cc21)OCO3

>  <Energy>  (92) 
72.74602399730226

>  <Genealogy>  (92) 
Cn1c(C(F)(F)F)cc(=O)c2cc3c(cc21)OCO3 (3D coordinates assigned)
Cn1c(C(F)(F)F)cc(=O)c2cc3c(cc21)OCO3 (nonaromatic ring conformer: 72.74602399730226 kcal/mol)

>  <smiles>  (92) 
Cn1c(C(F)(F)F)cc(=O)c2cc3c(cc21)OCO3

>  <score_type>  (92) 
oracle

>  <origin>  (92) 
adg

>  <m_score__min__energy>  (92) 
-5.2699999999999996

>  <m_primary>  (92) 
energy

$$$$
