0:0
     RDKit          3D

 45 46  0  0  0  0  0  0  0  0999 V2000
   58.3020   34.3060   45.2380 C   0  0  0  0  0  0  0  0  0  0  0  0
   57.4720   33.5940   46.3010 C   0  0  0  0  0  0  0  0  0  0  0  0
   58.2380   32.4970   46.9130 N   0  0  0  0  0  0  0  0  0  0  0  0
   58.4630   32.5080   48.3650 C   0  0  0  0  0  0  0  0  0  0  0  0
   59.8840   32.8860   48.6670 C   0  0  0  0  0  0  0  0  0  0  0  0
   60.1530   34.0710   49.0040 O   0  0  0  0  0  0  0  0  0  0  0  0
   60.9250   31.9010   48.5980 N   0  0  0  0  0  0  0  0  0  0  0  0
   62.2810   32.1980   48.9620 C   0  0  0  0  0  0  0  0  0  0  0  0
   62.7980   31.6730   50.1560 C   0  0  0  0  0  0  0  0  0  0  0  0
   64.1200   31.9320   50.5270 C   0  0  0  0  0  0  0  0  0  0  0  0
   64.9310   32.7300   49.7160 C   0  0  0  0  0  0  0  0  0  0  0  0
   64.4170   33.2820   48.5400 C   0  0  0  0  0  0  0  0  0  0  0  0
   63.0930   33.0290   48.1610 C   0  0  0  0  0  0  0  0  0  0  0  0
   62.4620   33.8310   46.7270 Cl  0  0  0  0  0  0  0  0  0  0  0  0
   58.7280   31.3870   46.1290 C   0  0  0  0  0  0  0  0  0  0  0  0
   59.8070   30.8220   46.4610 O   0  0  0  0  0  0  0  0  0  0  0  0
   58.0000   30.9080   44.8970 C   0  0  0  0  0  0  0  0  0  0  0  0
   58.5610   29.5820   44.3600 C   0  0  0  0  0  0  0  0  0  0  0  0
   58.0670   28.3990   45.1570 C   0  0  0  0  0  0  0  0  0  0  0  0
   58.9800   27.5560   45.8120 C   0  0  0  0  0  0  0  0  0  0  0  0
   58.5250   26.4410   46.5230 C   0  0  0  0  0  0  0  0  0  0  0  0
   57.1570   26.1600   46.5870 C   0  0  0  0  0  0  0  0  0  0  0  0
   56.2400   26.9950   45.9370 C   0  0  0  0  0  0  0  0  0  0  0  0
   54.8810   26.7160   46.0020 O   0  0  0  0  0  0  0  0  0  0  0  0
   56.6930   28.1080   45.2230 C   0  0  0  0  0  0  0  0  0  0  0  0
   59.0502   34.9478   45.7261 H   0  0  0  0  0  0  0  0  0  0  0  0
   58.8120   33.5602   44.6106 H   0  0  0  0  0  0  0  0  0  0  0  0
   57.6424   34.9235   44.6106 H   0  0  0  0  0  0  0  0  0  0  0  0
   57.1894   34.3159   47.0814 H   0  0  0  0  0  0  0  0  0  0  0  0
   56.5737   33.1743   45.8247 H   0  0  0  0  0  0  0  0  0  0  0  0
   57.7858   33.2382   48.8320 H   0  0  0  0  0  0  0  0  0  0  0  0
   58.2662   31.5028   48.7661 H   0  0  0  0  0  0  0  0  0  0  0  0
   60.7340   31.0050   48.0950 H   0  0  0  0  0  0  0  0  0  0  0  0
   62.1593   31.0543   50.8034 H   0  0  0  0  0  0  0  0  0  0  0  0
   64.5226   31.5073   51.4584 H   0  0  0  0  0  0  0  0  0  0  0  0
   65.9749   32.9238   50.0036 H   0  0  0  0  0  0  0  0  0  0  0  0
   65.0552   33.9181   47.9091 H   0  0  0  0  0  0  0  0  0  0  0  0
   56.9383   30.7662   45.1475 H   0  0  0  0  0  0  0  0  0  0  0  0
   58.1327   31.6687   44.1136 H   0  0  0  0  0  0  0  0  0  0  0  0
   58.2475   29.4612   43.3126 H   0  0  0  0  0  0  0  0  0  0  0  0
   59.6573   29.6163   44.4439 H   0  0  0  0  0  0  0  0  0  0  0  0
   60.0572   27.7738   45.7655 H   0  0  0  0  0  0  0  0  0  0  0  0
   59.2449   25.7838   47.0329 H   0  0  0  0  0  0  0  0  0  0  0  0
   56.8011   25.2832   47.1478 H   0  0  0  0  0  0  0  0  0  0  0  0
   55.9706   28.7598   44.7099 H   0  0  0  0  0  0  0  0  0  0  0  0
  1  2  1  0
  2  3  1  0
  3  4  1  0
  4  5  1  0
  5  6  2  0
  5  7  1  0
  7  8  1  0
  8  9  2  0
  9 10  1  0
 10 11  2  0
 11 12  1  0
 12 13  2  0
 13 14  1  0
  3 15  1  0
 15 16  2  0
 15 17  1  0
 17 18  1  0
 18 19  1  0
 19 20  2  0
 20 21  1  0
 21 22  2  0
 22 23  1  0
 23 24  1  0
 23 25  2  0
 13  8  1  0
 25 19  1  0
  1 26  1  0
  1 27  1  0
  1 28  1  0
  2 29  1  0
  2 30  1  0
  4 31  1  0
  4 32  1  0
  7 33  1  0
  9 34  1  0
 10 35  1  0
 11 36  1  0
 12 37  1  0
 17 38  1  0
 17 39  1  0
 18 40  1  0
 18 41  1  0
 20 42  1  0
 21 43  1  0
 22 44  1  0
 25 45  1  0
M  CHG  1  24  -1
M  END
>  <UniqueID>  (1) 
1

>  <SMILES>  (1) 
CCN(CC(=O)Nc1ccccc1Cl)C(=O)CCc1cccc([O-])c1

>  <Energy>  (1) 
43.71536253065849

>  <Genealogy>  (1) 
CCN(CC(=O)Nc1ccccc1Cl)C(=O)CCc1cccc([O-])c1 (protonated)
CCN(CC(=O)Nc1ccccc1Cl)C(=O)CCc1cccc([O-])c1 (3D coordinates assigned)
CCN(CC(=O)Nc1ccccc1Cl)C(=O)CCc1cccc([O-])c1 (optimized conformer: 43.71536253065849 kcal/mol)

>  <smiles>  (1) 
CCN(CC(=O)Nc1ccccc1Cl)C(=O)CCc1cccc(O)c1

>  <score_type>  (1) 
oracle

>  <origin>  (1) 
adg

>  <m_score__min__energy>  (1) 
-12.41

>  <m_primary>  (1) 
energy

$$$$
1:0
     RDKit          3D

 33 34  0  0  0  0  0  0  0  0999 V2000
   58.1510   21.1520   43.8220 N   0  0  0  0  0  0  0  0  0  0  0  0
   56.5640   21.8360   43.8740 S   0  0  0  0  0  0  0  0  0  0  0  0
   55.7020   21.0320   44.8060 O   0  0  0  0  0  0  0  0  0  0  0  0
   55.9550   21.7950   42.5000 O   0  0  0  0  0  0  0  0  0  0  0  0
   56.6570   23.5020   44.4340 C   0  0  0  0  0  0  0  0  0  0  0  0
   57.4760   24.4240   43.7700 C   0  0  0  0  0  0  0  0  0  0  0  0
   57.5660   25.7430   44.2250 C   0  0  0  0  0  0  0  0  0  0  0  0
   56.8280   26.1570   45.3480 C   0  0  0  0  0  0  0  0  0  0  0  0
   56.9240   27.4870   45.8770 N   0  0  0  0  0  0  0  0  0  0  0  0
   56.6410   28.7070   45.1810 C   0  0  0  0  0  0  0  0  0  0  0  0
   55.4590   29.0200   44.8770 O   0  0  0  0  0  0  0  0  0  0  0  0
   57.7660   29.6230   44.8190 C   0  0  0  0  0  0  0  0  0  0  0  0
   57.2080   30.9020   43.6400 S   0  0  0  0  0  0  0  0  0  0  0  0
   57.7150   32.2900   44.6590 C   0  0  0  0  0  0  0  0  0  0  0  0
   58.4470   33.3430   44.0990 C   0  0  0  0  0  0  0  0  0  0  0  0
   58.8550   34.4000   44.9150 C   0  0  0  0  0  0  0  0  0  0  0  0
   58.5180   34.4000   46.2710 C   0  0  0  0  0  0  0  0  0  0  0  0
   57.7730   33.3380   46.7900 C   0  0  0  0  0  0  0  0  0  0  0  0
   57.3900   32.3140   45.9790 N   0  0  0  0  0  0  0  0  0  0  0  0
   56.0320   25.2230   46.0250 C   0  0  0  0  0  0  0  0  0  0  0  0
   55.9420   23.9050   45.5690 C   0  0  0  0  0  0  0  0  0  0  0  0
   58.1250   20.3750   43.1240 H   0  0  0  0  0  0  0  0  0  0  0  0
   58.3260   20.7140   44.7540 H   0  0  0  0  0  0  0  0  0  0  0  0
   58.0509   24.1090   42.8867 H   0  0  0  0  0  0  0  0  0  0  0  0
   58.2167   26.4596   43.7024 H   0  0  0  0  0  0  0  0  0  0  0  0
   58.1406   30.1117   45.7305 H   0  0  0  0  0  0  0  0  0  0  0  0
   58.5637   29.0316   44.3459 H   0  0  0  0  0  0  0  0  0  0  0  0
   58.6981   33.3381   43.0281 H   0  0  0  0  0  0  0  0  0  0  0  0
   59.4398   35.2300   44.4917 H   0  0  0  0  0  0  0  0  0  0  0  0
   58.8358   35.2271   46.9229 H   0  0  0  0  0  0  0  0  0  0  0  0
   57.4958   33.3294   47.8545 H   0  0  0  0  0  0  0  0  0  0  0  0
   55.4739   25.5296   46.9220 H   0  0  0  0  0  0  0  0  0  0  0  0
   55.3078   23.1820   46.1030 H   0  0  0  0  0  0  0  0  0  0  0  0
  1  2  1  0
  2  3  2  0
  2  4  2  0
  2  5  1  0
  5  6  2  0
  6  7  1  0
  7  8  2  0
  8  9  1  0
  9 10  1  0
 10 11  2  0
 10 12  1  0
 12 13  1  0
 13 14  1  0
 14 15  2  0
 15 16  1  0
 16 17  2  0
 17 18  1  0
 18 19  2  0
  8 20  1  0
 20 21  2  0
 21  5  1  0
 19 14  1  0
  1 22  1  0
  1 23  1  0
  6 24  1  0
  7 25  1  0
 12 26  1  0
 12 27  1  0
 15 28  1  0
 16 29  1  0
 17 30  1  0
 18 31  1  0
 20 32  1  0
 21 33  1  0
M  CHG  1   9  -1
M  END
>  <UniqueID>  (2) 
2

>  <SMILES>  (2) 
NS(=O)(=O)c1ccc([N-]C(=O)CSc2ccccn2)cc1

>  <Energy>  (2) 
29.726378366752172

>  <Genealogy>  (2) 
NS(=O)(=O)c1ccc([N-]C(=O)CSc2ccccn2)cc1 (protonated)
NS(=O)(=O)c1ccc([N-]C(=O)CSc2ccccn2)cc1 (3D coordinates assigned)
NS(=O)(=O)c1ccc([N-]C(=O)CSc2ccccn2)cc1 (optimized conformer: 29.726378366752172 kcal/mol)

>  <smiles>  (2) 
NS(=O)(=O)c1ccc(NC(=O)CSc2ccccn2)cc1

>  <score_type>  (2) 
oracle

>  <origin>  (2) 
adg

>  <m_score__min__energy>  (2) 
-9.8800000000000008

>  <m_primary>  (2) 
energy

$$$$
2:0
     RDKit          3D

 42 44  0  0  0  0  0  0  0  0999 V2000
   53.5320   24.0720   44.8920 C   0  0  0  0  0  0  0  0  0  0  0  0
   54.9470   23.6300   44.7230 C   0  0  0  0  0  0  0  0  0  0  0  0
   55.3310   22.5990   43.9440 N   0  0  0  0  0  0  0  0  0  0  0  0
   56.6420   22.4540   44.0850 N   0  0  0  0  0  0  0  0  0  0  0  0
   57.4220   21.4640   43.3520 C   0  0  0  0  0  0  0  0  0  0  0  0
   57.1210   23.3850   44.9400 C   0  0  0  0  0  0  0  0  0  0  0  0
   58.5680   23.5740   45.2850 C   0  0  0  0  0  0  0  0  0  0  0  0
   56.0440   24.1280   45.3930 C   0  0  0  0  0  0  0  0  0  0  0  0
   56.0370   25.2360   46.3010 N   0  0  0  0  0  0  0  0  0  0  0  0
   56.4100   26.5740   45.9580 C   0  0  0  0  0  0  0  0  0  0  0  0
   55.5300   27.4100   45.6190 O   0  0  0  0  0  0  0  0  0  0  0  0
   57.8380   26.9530   45.9590 C   0  0  0  0  0  0  0  0  0  0  0  0
   58.6870   26.3820   46.9230 C   0  0  0  0  0  0  0  0  0  0  0  0
   60.0420   26.7210   46.9680 C   0  0  0  0  0  0  0  0  0  0  0  0
   60.5660   27.6280   46.0470 C   0  0  0  0  0  0  0  0  0  0  0  0
   59.7400   28.1900   45.0720 C   0  0  0  0  0  0  0  0  0  0  0  0
   58.3800   27.8550   45.0120 C   0  0  0  0  0  0  0  0  0  0  0  0
   57.3990   28.5460   43.6680 S   0  0  0  0  0  0  0  0  0  0  0  0
   57.6500   30.2340   44.2220 C   0  0  0  0  0  0  0  0  0  0  0  0
   57.7990   30.5130   45.5880 C   0  0  0  0  0  0  0  0  0  0  0  0
   57.9790   31.8300   46.0190 C   0  0  0  0  0  0  0  0  0  0  0  0
   58.0210   32.8720   45.0860 C   0  0  0  0  0  0  0  0  0  0  0  0
   57.8830   32.5960   43.7220 C   0  0  0  0  0  0  0  0  0  0  0  0
   57.7010   31.2780   43.2890 C   0  0  0  0  0  0  0  0  0  0  0  0
   53.2964   24.1456   45.9639 H   0  0  0  0  0  0  0  0  0  0  0  0
   53.3960   25.0554   44.4183 H   0  0  0  0  0  0  0  0  0  0  0  0
   52.8604   23.3408   44.4183 H   0  0  0  0  0  0  0  0  0  0  0  0
   57.9408   20.8055   44.0642 H   0  0  0  0  0  0  0  0  0  0  0  0
   56.7513   20.8640   42.7194 H   0  0  0  0  0  0  0  0  0  0  0  0
   58.1623   21.9756   42.7194 H   0  0  0  0  0  0  0  0  0  0  0  0
   58.6852   23.5893   46.3786 H   0  0  0  0  0  0  0  0  0  0  0  0
   59.1564   22.7451   44.8647 H   0  0  0  0  0  0  0  0  0  0  0  0
   58.9238   24.5262   44.8647 H   0  0  0  0  0  0  0  0  0  0  0  0
   58.2811   25.6617   47.6486 H   0  0  0  0  0  0  0  0  0  0  0  0
   60.6958   26.2722   47.7303 H   0  0  0  0  0  0  0  0  0  0  0  0
   61.6309   27.9006   46.0890 H   0  0  0  0  0  0  0  0  0  0  0  0
   60.1595   28.9012   44.3452 H   0  0  0  0  0  0  0  0  0  0  0  0
   57.7742   29.6937   46.3216 H   0  0  0  0  0  0  0  0  0  0  0  0
   58.0877   32.0476   47.0918 H   0  0  0  0  0  0  0  0  0  0  0  0
   58.1626   33.9086   45.4256 H   0  0  0  0  0  0  0  0  0  0  0  0
   57.9176   33.4155   42.9891 H   0  0  0  0  0  0  0  0  0  0  0  0
   57.5979   31.0614   42.2155 H   0  0  0  0  0  0  0  0  0  0  0  0
  1  2  1  0
  2  3  2  0
  3  4  1  0
  4  5  1  0
  4  6  1  0
  6  7  1  0
  6  8  2  0
  8  9  1  0
  9 10  1  0
 10 11  2  0
 10 12  1  0
 12 13  2  0
 13 14  1  0
 14 15  2  0
 15 16  1  0
 16 17  2  0
 17 18  1  0
 18 19  1  0
 19 20  2  0
 20 21  1  0
 21 22  2  0
 22 23  1  0
 23 24  2  0
  8  2  1  0
 17 12  1  0
 24 19  1  0
  1 25  1  0
  1 26  1  0
  1 27  1  0
  5 28  1  0
  5 29  1  0
  5 30  1  0
  7 31  1  0
  7 32  1  0
  7 33  1  0
 13 34  1  0
 14 35  1  0
 15 36  1  0
 16 37  1  0
 20 38  1  0
 21 39  1  0
 22 40  1  0
 23 41  1  0
 24 42  1  0
M  CHG  1   9  -1
M  END
>  <UniqueID>  (3) 
3

>  <SMILES>  (3) 
Cc1nn(C)c(C)c1[N-]C(=O)c1ccccc1Sc1ccccc1

>  <Energy>  (3) 
77.03734234966845

>  <Genealogy>  (3) 
Cc1nn(C)c(C)c1[N-]C(=O)c1ccccc1Sc1ccccc1 (protonated)
Cc1nn(C)c(C)c1[N-]C(=O)c1ccccc1Sc1ccccc1 (3D coordinates assigned)
Cc1nn(C)c(C)c1[N-]C(=O)c1ccccc1Sc1ccccc1 (optimized conformer: 77.03734234966845 kcal/mol)

>  <smiles>  (3) 
Cc1nn(C)c(C)c1NC(=O)c1ccccc1Sc1ccccc1

>  <score_type>  (3) 
oracle

>  <origin>  (3) 
adg

>  <m_score__min__energy>  (3) 
-10.369999999999999

>  <m_primary>  (3) 
energy

$$$$
3:0
     RDKit          3D

 29 30  0  0  0  0  0  0  0  0999 V2000
   57.8990   24.7410   45.2540 C   0  0  0  0  0  0  0  0  0  0  0  0
   57.9440   25.9420   46.1480 C   0  0  0  0  0  0  0  0  0  0  0  0
   58.3780   25.8010   47.3230 O   0  0  0  0  0  0  0  0  0  0  0  0
   57.4800   27.2810   45.6910 C   0  0  0  0  0  0  0  0  0  0  0  0
   56.1150   27.6000   45.6210 C   0  0  0  0  0  0  0  0  0  0  0  0
   55.1390   26.6850   45.9980 O   0  0  0  0  0  0  0  0  0  0  0  0
   55.7290   28.8280   45.2010 N   0  0  0  0  0  0  0  0  0  0  0  0
   56.6280   29.7780   44.8490 C   0  0  0  0  0  0  0  0  0  0  0  0
   56.2030   30.9020   44.4680 O   0  0  0  0  0  0  0  0  0  0  0  0
   57.9730   29.5170   44.9100 N   0  0  0  0  0  0  0  0  0  0  0  0
   58.9530   30.5680   44.5620 C   0  0  0  0  0  0  0  0  0  0  0  0
   58.6540   31.8370   45.3180 C   0  0  0  0  0  0  0  0  0  0  0  0
   58.3710   33.0280   44.6270 C   0  0  0  0  0  0  0  0  0  0  0  0
   58.1250   34.2100   45.3300 C   0  0  0  0  0  0  0  0  0  0  0  0
   58.1640   34.2150   46.7270 C   0  0  0  0  0  0  0  0  0  0  0  0
   58.4490   33.0370   47.4230 C   0  0  0  0  0  0  0  0  0  0  0  0
   58.6960   31.8530   46.7220 C   0  0  0  0  0  0  0  0  0  0  0  0
   58.4060   28.2810   45.3300 C   0  0  0  0  0  0  0  0  0  0  0  0
   59.6420   28.0280   45.3760 O   0  0  0  0  0  0  0  0  0  0  0  0
   57.8648   23.8285   45.8673 H   0  0  0  0  0  0  0  0  0  0  0  0
   57.0021   24.7899   44.6191 H   0  0  0  0  0  0  0  0  0  0  0  0
   58.7971   24.7226   44.6191 H   0  0  0  0  0  0  0  0  0  0  0  0
   59.9640   30.2211   44.8219 H   0  0  0  0  0  0  0  0  0  0  0  0
   58.8888   30.7722   43.4830 H   0  0  0  0  0  0  0  0  0  0  0  0
   58.3431   33.0293   43.5274 H   0  0  0  0  0  0  0  0  0  0  0  0
   57.9004   35.1377   44.7833 H   0  0  0  0  0  0  0  0  0  0  0  0
   57.9703   35.1465   47.2790 H   0  0  0  0  0  0  0  0  0  0  0  0
   58.4790   33.0415   48.5226 H   0  0  0  0  0  0  0  0  0  0  0  0
   58.9245   30.9287   47.2729 H   0  0  0  0  0  0  0  0  0  0  0  0
  1  2  1  0
  2  3  2  0
  2  4  1  0
  4  5  2  0
  5  6  1  0
  5  7  1  0
  7  8  1  0
  8  9  2  0
  8 10  1  0
 10 11  1  0
 11 12  1  0
 12 13  2  0
 13 14  1  0
 14 15  2  0
 15 16  1  0
 16 17  2  0
 10 18  1  0
 18 19  2  0
 18  4  1  0
 17 12  1  0
  1 20  1  0
  1 21  1  0
  1 22  1  0
 11 23  1  0
 11 24  1  0
 13 25  1  0
 14 26  1  0
 15 27  1  0
 16 28  1  0
 17 29  1  0
M  CHG  2   6  -1   7  -1
M  END
>  <UniqueID>  (4) 
4

>  <SMILES>  (4) 
CC(=O)c1c([O-])[n-]c(=O)n(Cc2ccccc2)c1=O

>  <Energy>  (4) 
38.41620334093028

>  <Genealogy>  (4) 
CC(=O)c1c([O-])[n-]c(=O)n(Cc2ccccc2)c1=O (protonated)
CC(=O)c1c([O-])[n-]c(=O)n(Cc2ccccc2)c1=O (3D coordinates assigned)
CC(=O)c1c([O-])[n-]c(=O)n(Cc2ccccc2)c1=O (optimized conformer: 38.41620334093028 kcal/mol)

>  <smiles>  (4) 
CC(=O)c1c(O)[nH]c(=O)n(Cc2ccccc2)c1=O

>  <score_type>  (4) 
oracle

>  <origin>  (4) 
adg

>  <m_score__min__energy>  (4) 
-11.880000000000001

>  <m_primary>  (4) 
energy

$$$$
4:0
     RDKit          3D

 39 40  0  0  0  0  0  0  0  0999 V2000
   58.8830   31.0520   48.8030 C   0  0  0  0  0  0  0  0  0  0  0  0
   58.6100   31.4110   47.4530 O   0  0  0  0  0  0  0  0  0  0  0  0
   58.9560   32.6400   46.8630 C   0  0  0  0  0  0  0  0  0  0  0  0
   59.9850   33.4470   47.3900 C   0  0  0  0  0  0  0  0  0  0  0  0
   60.3070   34.6680   46.7910 C   0  0  0  0  0  0  0  0  0  0  0  0
   59.6160   35.0950   45.6590 C   0  0  0  0  0  0  0  0  0  0  0  0
   58.5960   34.3060   45.1240 C   0  0  0  0  0  0  0  0  0  0  0  0
   58.2550   33.0770   45.7170 C   0  0  0  0  0  0  0  0  0  0  0  0
   57.1150   32.2690   45.1350 C   0  0  0  0  0  0  0  0  0  0  0  0
   57.3990   31.8650   43.6830 C   0  0  0  0  0  0  0  0  0  0  0  0
   57.6560   30.4300   43.5700 N   0  0  0  0  0  0  0  0  0  0  0  0
   56.8870   29.4700   44.3060 C   0  0  0  0  0  0  0  0  0  0  0  0
   55.8060   29.8080   44.8620 O   0  0  0  0  0  0  0  0  0  0  0  0
   57.4120   28.0790   44.4980 C   0  0  0  0  0  0  0  0  0  0  0  0
   58.3780   28.0640   45.6080 N   0  0  0  0  0  0  0  0  0  0  0  0
   58.0360   27.4190   46.7690 C   0  0  0  0  0  0  0  0  0  0  0  0
   58.8920   27.4310   47.8700 C   0  0  0  0  0  0  0  0  0  0  0  0
   60.1000   28.1200   47.7920 C   0  0  0  0  0  0  0  0  0  0  0  0
   60.4440   28.7810   46.6130 C   0  0  0  0  0  0  0  0  0  0  0  0
   59.5710   28.7440   45.5210 C   0  0  0  0  0  0  0  0  0  0  0  0
   59.8990   29.3410   44.4590 O   0  0  0  0  0  0  0  0  0  0  0  0
   58.3579   31.7425   49.4794 H   0  0  0  0  0  0  0  0  0  0  0  0
   58.5361   30.0244   48.9865 H   0  0  0  0  0  0  0  0  0  0  0  0
   59.9659   31.1117   48.9865 H   0  0  0  0  0  0  0  0  0  0  0  0
   60.5388   33.1129   48.2798 H   0  0  0  0  0  0  0  0  0  0  0  0
   61.1073   35.2929   47.2140 H   0  0  0  0  0  0  0  0  0  0  0  0
   59.8742   36.0542   45.1866 H   0  0  0  0  0  0  0  0  0  0  0  0
   58.0539   34.6487   44.2303 H   0  0  0  0  0  0  0  0  0  0  0  0
   56.9760   31.3600   45.7387 H   0  0  0  0  0  0  0  0  0  0  0  0
   56.2075   32.8904   45.1500 H   0  0  0  0  0  0  0  0  0  0  0  0
   56.5279   32.1227   43.0627 H   0  0  0  0  0  0  0  0  0  0  0  0
   58.2942   32.4054   43.3416 H   0  0  0  0  0  0  0  0  0  0  0  0
   58.4710   30.0930   43.0110 H   0  0  0  0  0  0  0  0  0  0  0  0
   56.5771   27.4016   44.7303 H   0  0  0  0  0  0  0  0  0  0  0  0
   57.9107   27.7466   43.5756 H   0  0  0  0  0  0  0  0  0  0  0  0
   57.0757   26.8862   46.8325 H   0  0  0  0  0  0  0  0  0  0  0  0
   58.6152   26.9004   48.7930 H   0  0  0  0  0  0  0  0  0  0  0  0
   60.7798   28.1427   48.6565 H   0  0  0  0  0  0  0  0  0  0  0  0
   61.3958   29.3279   46.5425 H   0  0  0  0  0  0  0  0  0  0  0  0
  1  2  1  0
  2  3  1  0
  3  4  2  0
  4  5  1  0
  5  6  2  0
  6  7  1  0
  7  8  2  0
  8  9  1  0
  9 10  1  0
 10 11  1  0
 11 12  1  0
 12 13  2  0
 12 14  1  0
 14 15  1  0
 15 16  1  0
 16 17  2  0
 17 18  1  0
 18 19  2  0
 19 20  1  0
 20 21  2  0
  8  3  1  0
 20 15  1  0
  1 22  1  0
  1 23  1  0
  1 24  1  0
  4 25  1  0
  5 26  1  0
  6 27  1  0
  7 28  1  0
  9 29  1  0
  9 30  1  0
 10 31  1  0
 10 32  1  0
 11 33  1  0
 14 34  1  0
 14 35  1  0
 16 36  1  0
 17 37  1  0
 18 38  1  0
 19 39  1  0
M  END
>  <UniqueID>  (5) 
5

>  <SMILES>  (5) 
COc1ccccc1CCNC(=O)Cn1ccccc1=O

>  <Energy>  (5) 
33.826060639113635

>  <Genealogy>  (5) 
COc1ccccc1CCNC(=O)Cn1ccccc1=O (3D coordinates assigned)
COc1ccccc1CCNC(=O)Cn1ccccc1=O (optimized conformer: 33.826060639113635 kcal/mol)

>  <smiles>  (5) 
COc1ccccc1CCNC(=O)Cn1ccccc1=O

>  <score_type>  (5) 
oracle

>  <origin>  (5) 
adg

>  <m_score__min__energy>  (5) 
-6.3899999999999997

>  <m_primary>  (5) 
energy

$$$$
5:0
     RDKit          3D

 50 52  0  0  0  0  0  0  0  0999 V2000
   61.2970   34.1110   48.7880 C   0  0  0  0  0  0  0  0  0  0  0  0
   60.1630   33.6850   47.8890 C   0  0  0  0  0  0  0  0  0  0  0  0
   60.1420   34.1240   46.5550 C   0  0  0  0  0  0  0  0  0  0  0  0
   59.1120   33.7400   45.6830 C   0  0  0  0  0  0  0  0  0  0  0  0
   59.1460   34.2080   44.2560 C   0  0  0  0  0  0  0  0  0  0  0  0
   58.0750   32.9070   46.1560 C   0  0  0  0  0  0  0  0  0  0  0  0
   57.0110   32.4920   45.2830 N   0  0  0  0  0  0  0  0  0  0  0  0
   57.0400   30.9580   44.4730 S   0  0  0  0  0  0  0  0  0  0  0  0
   57.3860   31.1620   43.0240 O   0  0  0  0  0  0  0  0  0  0  0  0
   55.6840   30.3130   44.5610 O   0  0  0  0  0  0  0  0  0  0  0  0
   58.2720   29.9420   45.2150 C   0  0  0  0  0  0  0  0  0  0  0  0
   59.6350   30.1730   44.9750 C   0  0  0  0  0  0  0  0  0  0  0  0
   60.5950   29.3080   45.5050 C   0  0  0  0  0  0  0  0  0  0  0  0
   60.2010   28.2070   46.2730 C   0  0  0  0  0  0  0  0  0  0  0  0
   58.8370   27.9670   46.5310 C   0  0  0  0  0  0  0  0  0  0  0  0
   58.4150   26.8060   47.3500 C   0  0  0  0  0  0  0  0  0  0  0  0
   59.1900   26.3520   48.2400 O   0  0  0  0  0  0  0  0  0  0  0  0
   57.1150   26.2220   47.1480 N   0  0  0  0  0  0  0  0  0  0  0  0
   56.7630   25.4180   46.1870 C   0  0  0  0  0  0  0  0  0  0  0  0
   57.6980   25.0810   45.2030 C   0  0  0  0  0  0  0  0  0  0  0  0
   57.3320   24.2040   44.1800 C   0  0  0  0  0  0  0  0  0  0  0  0
   56.0350   23.6610   44.1400 C   0  0  0  0  0  0  0  0  0  0  0  0
   55.6440   22.7460   43.1000 N   0  0  0  0  0  0  0  0  0  0  0  0
   54.7920   23.0760   42.2480 O   0  0  0  0  0  0  0  0  0  0  0  0
   56.2170   21.4980   43.0180 O   0  0  0  0  0  0  0  0  0  0  0  0
   55.1280   24.0320   45.1460 C   0  0  0  0  0  0  0  0  0  0  0  0
   55.5080   24.8870   46.1310 N   0  0  0  0  0  0  0  0  0  0  0  0
   57.8790   28.8450   45.9940 C   0  0  0  0  0  0  0  0  0  0  0  0
   58.0880   32.4830   47.4930 C   0  0  0  0  0  0  0  0  0  0  0  0
   59.1240   32.8550   48.3640 C   0  0  0  0  0  0  0  0  0  0  0  0
   59.0880   32.3850   49.7990 C   0  0  0  0  0  0  0  0  0  0  0  0
   60.9941   33.9972   49.8393 H   0  0  0  0  0  0  0  0  0  0  0  0
   62.1778   33.4824   48.5901 H   0  0  0  0  0  0  0  0  0  0  0  0
   61.5461   35.1640   48.5901 H   0  0  0  0  0  0  0  0  0  0  0  0
   60.9458   34.7792   46.1881 H   0  0  0  0  0  0  0  0  0  0  0  0
   59.2257   35.3048   44.2316 H   0  0  0  0  0  0  0  0  0  0  0  0
   60.0144   33.7659   43.7457 H   0  0  0  0  0  0  0  0  0  0  0  0
   58.2228   33.8960   43.7457 H   0  0  0  0  0  0  0  0  0  0  0  0
   56.2800   33.1750   44.9770 H   0  0  0  0  0  0  0  0  0  0  0  0
   59.9477   31.0361   44.3689 H   0  0  0  0  0  0  0  0  0  0  0  0
   61.6631   29.4928   45.3182 H   0  0  0  0  0  0  0  0  0  0  0  0
   60.9618   27.5237   46.6784 H   0  0  0  0  0  0  0  0  0  0  0  0
   58.7132   25.5033   45.2347 H   0  0  0  0  0  0  0  0  0  0  0  0
   58.0616   23.9364   43.4015 H   0  0  0  0  0  0  0  0  0  0  0  0
   54.1048   23.6283   45.1364 H   0  0  0  0  0  0  0  0  0  0  0  0
   56.8105   28.6692   46.1872 H   0  0  0  0  0  0  0  0  0  0  0  0
   57.2713   31.8473   47.8658 H   0  0  0  0  0  0  0  0  0  0  0  0
   59.1545   33.2533   50.4710 H   0  0  0  0  0  0  0  0  0  0  0  0
   58.1461   31.8483   49.9855 H   0  0  0  0  0  0  0  0  0  0  0  0
   59.9372   31.7111   49.9855 H   0  0  0  0  0  0  0  0  0  0  0  0
  1  2  1  0
  2  3  2  0
  3  4  1  0
  4  5  1  0
  4  6  2  0
  6  7  1  0
  7  8  1  0
  8  9  2  0
  8 10  2  0
  8 11  1  0
 11 12  2  0
 12 13  1  0
 13 14  2  0
 14 15  1  0
 15 16  1  0
 16 17  2  0
 16 18  1  0
 18 19  2  3
 19 20  1  0
 20 21  2  0
 21 22  1  0
 22 23  1  0
 23 24  2  0
 23 25  1  0
 22 26  2  0
 26 27  1  0
 15 28  2  0
  6 29  1  0
 29 30  2  0
 30 31  1  0
 30  2  1  0
 28 11  1  0
 27 19  1  0
  1 32  1  0
  1 33  1  0
  1 34  1  0
  3 35  1  0
  5 36  1  0
  5 37  1  0
  5 38  1  0
  7 39  1  0
 12 40  1  0
 13 41  1  0
 14 42  1  0
 20 43  1  0
 21 44  1  0
 26 45  1  0
 28 46  1  0
 29 47  1  0
 31 48  1  0
 31 49  1  0
 31 50  1  0
M  CHG  3  23   1  25  -1  27  -1
M  END
>  <UniqueID>  (6) 
6

>  <SMILES>  (6) 
Cc1cc(C)c(NS(=O)(=O)c2cccc(C(=O)N=c3ccc([N+](=O)[O-])c[n-]3)c2)cc1C

>  <Energy>  (6) 
61.929849218504756

>  <Genealogy>  (6) 
Cc1cc(C)c(NS(=O)(=O)c2cccc(C(=O)N=c3ccc([N+](=O)[O-])c[n-]3)c2)cc1C (protonated)
Cc1cc(C)c(NS(=O)(=O)c2cccc(C(=O)N=c3ccc([N+](=O)[O-])c[n-]3)c2)cc1C (3D coordinates assigned)
Cc1cc(C)c(NS(=O)(=O)c2cccc(C(=O)N=c3ccc([N+](=O)[O-])c[n-]3)c2)cc1C (optimized conformer: 61.929849218504756 kcal/mol)

>  <smiles>  (6) 
Cc1cc(C)c(NS(=O)(=O)c2cccc(C(=O)N=c3ccc([N+](=O)[O-])c[nH]3)c2)cc1C

>  <score_type>  (6) 
oracle

>  <origin>  (6) 
adg

>  <m_score__min__energy>  (6) 
-11.98

>  <m_primary>  (6) 
energy

$$$$
6:0
     RDKit          3D

 68 72  0  0  0  0  0  0  0  0999 V2000
   51.5680   32.7280   51.2530 N   0  0  0  0  0  0  0  0  0  0  0  0
   51.7050   31.0260   51.5060 S   0  0  0  0  0  0  0  0  0  0  0  0
   51.7100   30.3150   50.1800 O   0  0  0  0  0  0  0  0  0  0  0  0
   50.5270   30.5470   52.3100 O   0  0  0  0  0  0  0  0  0  0  0  0
   53.2020   30.6870   52.3660 C   0  0  0  0  0  0  0  0  0  0  0  0
   53.2390   30.7170   53.7670 C   0  0  0  0  0  0  0  0  0  0  0  0
   54.4330   30.4470   54.4400 C   0  0  0  0  0  0  0  0  0  0  0  0
   55.5940   30.1550   53.7190 C   0  0  0  0  0  0  0  0  0  0  0  0
   55.5820   30.1470   52.3180 C   0  0  0  0  0  0  0  0  0  0  0  0
   56.8010   29.8260   51.6280 N   0  0  0  0  0  0  0  0  0  0  0  0
   58.1360   30.2170   51.9690 C   0  0  0  0  0  0  0  0  0  0  0  0
   58.9640   29.3820   52.4290 O   0  0  0  0  0  0  0  0  0  0  0  0
   58.5820   31.6140   51.6870 C   0  0  0  0  0  0  0  0  0  0  0  0
   57.7760   32.3260   50.2070 S   0  0  0  0  0  0  0  0  0  0  0  0
   59.2910   32.7090   49.3040 C   0  0  0  0  0  0  0  0  0  0  0  0
   60.4660   32.3290   49.8700 N   0  0  0  0  0  0  0  0  0  0  0  0
   61.6620   32.6200   49.3090 C   0  0  0  0  0  0  0  0  0  0  0  0
   62.8490   32.2540   49.9550 C   0  0  0  0  0  0  0  0  0  0  0  0
   64.0960   32.6120   49.4130 C   0  0  0  0  0  0  0  0  0  0  0  0
   65.3600   32.3280   50.1390 C   0  0  0  0  0  0  0  0  0  0  0  0
   65.5820   31.1590   50.5560 O   0  0  0  0  0  0  0  0  0  0  0  0
   66.3420   33.3530   50.3650 N   0  0  0  0  0  0  0  0  0  0  0  0
   67.7680   33.0440   50.5090 C   0  0  0  0  0  0  0  0  0  0  0  0
   68.6130   34.2400   50.0840 C   0  0  0  0  0  0  0  0  0  0  0  0
   68.8490   35.0670   51.3450 C   0  0  0  0  0  0  0  0  0  0  0  0
   68.4800   34.1820   52.5350 C   0  0  0  0  0  0  0  0  0  0  0  0
   68.1160   32.8150   51.9720 C   0  0  0  0  0  0  0  0  0  0  0  0
   64.1300   33.3140   48.1950 C   0  0  0  0  0  0  0  0  0  0  0  0
   62.9470   33.6590   47.5380 C   0  0  0  0  0  0  0  0  0  0  0  0
   61.7030   33.3230   48.1000 C   0  0  0  0  0  0  0  0  0  0  0  0
   60.4870   33.6590   47.4830 C   0  0  0  0  0  0  0  0  0  0  0  0
   60.5090   34.2200   46.3500 O   0  0  0  0  0  0  0  0  0  0  0  0
   59.2860   33.3520   48.0840 N   0  0  0  0  0  0  0  0  0  0  0  0
   58.0250   33.5910   47.3400 C   0  0  0  0  0  0  0  0  0  0  0  0
   57.9630   32.8010   46.0530 C   0  0  0  0  0  0  0  0  0  0  0  0
   57.8090   33.4590   44.8190 C   0  0  0  0  0  0  0  0  0  0  0  0
   57.7700   32.7290   43.6260 C   0  0  0  0  0  0  0  0  0  0  0  0
   57.9180   31.3380   43.6490 C   0  0  0  0  0  0  0  0  0  0  0  0
   58.1090   30.6800   44.8650 C   0  0  0  0  0  0  0  0  0  0  0  0
   58.1180   31.4040   46.0650 C   0  0  0  0  0  0  0  0  0  0  0  0
   54.3720   30.4050   51.6430 C   0  0  0  0  0  0  0  0  0  0  0  0
   50.6480   33.0200   51.6490 H   0  0  0  0  0  0  0  0  0  0  0  0
   52.3279   30.9531   54.3364 H   0  0  0  0  0  0  0  0  0  0  0  0
   54.4594   30.4643   55.5395 H   0  0  0  0  0  0  0  0  0  0  0  0
   56.5266   29.9292   54.2568 H   0  0  0  0  0  0  0  0  0  0  0  0
   58.3404   32.2430   52.5564 H   0  0  0  0  0  0  0  0  0  0  0  0
   59.6647   31.5852   51.4947 H   0  0  0  0  0  0  0  0  0  0  0  0
   62.8057   31.6821   50.8936 H   0  0  0  0  0  0  0  0  0  0  0  0
   66.0350   34.3460   50.4530 H   0  0  0  0  0  0  0  0  0  0  0  0
   67.9677   32.1547   49.8932 H   0  0  0  0  0  0  0  0  0  0  0  0
   69.5721   33.8997   49.6666 H   0  0  0  0  0  0  0  0  0  0  0  0
   68.1068   34.8314   49.3068 H   0  0  0  0  0  0  0  0  0  0  0  0
   69.9059   35.3649   51.4091 H   0  0  0  0  0  0  0  0  0  0  0  0
   68.2403   35.9832   51.3334 H   0  0  0  0  0  0  0  0  0  0  0  0
   69.3357   34.0934   53.2205 H   0  0  0  0  0  0  0  0  0  0  0  0
   67.6401   34.6118   53.1004 H   0  0  0  0  0  0  0  0  0  0  0  0
   68.9693   32.1262   52.0588 H   0  0  0  0  0  0  0  0  0  0  0  0
   67.2760   32.3638   52.5204 H   0  0  0  0  0  0  0  0  0  0  0  0
   65.0985   33.5943   47.7552 H   0  0  0  0  0  0  0  0  0  0  0  0
   62.9887   34.1950   46.5783 H   0  0  0  0  0  0  0  0  0  0  0  0
   57.1771   33.2981   47.9766 H   0  0  0  0  0  0  0  0  0  0  0  0
   57.9821   34.6596   47.0827 H   0  0  0  0  0  0  0  0  0  0  0  0
   57.7186   34.5549   44.7919 H   0  0  0  0  0  0  0  0  0  0  0  0
   57.6227   33.2497   42.6683 H   0  0  0  0  0  0  0  0  0  0  0  0
   57.8839   30.7643   42.7111 H   0  0  0  0  0  0  0  0  0  0  0  0
   58.2529   29.5896   44.8816 H   0  0  0  0  0  0  0  0  0  0  0  0
   58.2471   30.8761   47.0214 H   0  0  0  0  0  0  0  0  0  0  0  0
   54.3441   30.3853   50.5435 H   0  0  0  0  0  0  0  0  0  0  0  0
  1  2  1  0
  2  3  2  0
  2  4  2  0
  2  5  1  0
  5  6  2  0
  6  7  1  0
  7  8  2  0
  8  9  1  0
  9 10  1  0
 10 11  1  0
 11 12  2  0
 11 13  1  0
 13 14  1  0
 14 15  1  0
 15 16  2  0
 16 17  1  0
 17 18  2  0
 18 19  1  0
 19 20  1  0
 20 21  2  0
 20 22  1  0
 22 23  1  0
 23 24  1  0
 24 25  1  0
 25 26  1  0
 26 27  1  0
 19 28  2  0
 28 29  1  0
 29 30  2  0
 30 31  1  0
 31 32  2  0
 31 33  1  0
 33 34  1  0
 34 35  1  0
 35 36  2  0
 36 37  1  0
 37 38  2  0
 38 39  1  0
 39 40  2  0
  9 41  2  0
 41  5  1  0
 33 15  1  0
 40 35  1  0
 30 17  1  0
 27 23  1  0
  1 42  1  0
  6 43  1  0
  7 44  1  0
  8 45  1  0
 13 46  1  0
 13 47  1  0
 18 48  1  0
 22 49  1  0
 23 50  1  0
 24 51  1  0
 24 52  1  0
 25 53  1  0
 25 54  1  0
 26 55  1  0
 26 56  1  0
 27 57  1  0
 27 58  1  0
 28 59  1  0
 29 60  1  0
 34 61  1  0
 34 62  1  0
 36 63  1  0
 37 64  1  0
 38 65  1  0
 39 66  1  0
 40 67  1  0
 41 68  1  0
M  CHG  2   1  -1  10  -1
M  END
>  <UniqueID>  (7) 
7

>  <SMILES>  (7) 
[NH-]S(=O)(=O)c1cccc([N-]C(=O)CSc2nc3cc(C(=O)NC4CCCC4)ccc3c(=O)n2Cc2ccccc2)c1

>  <Energy>  (7) 
83.69876826772348

>  <Genealogy>  (7) 
[NH-]S(=O)(=O)c1cccc([N-]C(=O)CSc2nc3cc(C(=O)NC4CCCC4)ccc3c(=O)n2Cc2ccccc2)c1 (protonated)
[NH-]S(=O)(=O)c1cccc([N-]C(=O)CSc2nc3cc(C(=O)NC4CCCC4)ccc3c(=O)n2Cc2ccccc2)c1 (3D coordinates assigned)
[NH-]S(=O)(=O)c1cccc([N-]C(=O)CSc2nc3cc(C(=O)NC4CCCC4)ccc3c(=O)n2Cc2ccccc2)c1 (nonaromatic ring conformer: 83.69876826772348 kcal/mol)

>  <smiles>  (7) 
NS(=O)(=O)c1cccc(NC(=O)CSc2nc3cc(C(=O)NC4CCCC4)ccc3c(=O)n2Cc2ccccc2)c1

>  <score_type>  (7) 
oracle

>  <origin>  (7) 
adg

>  <m_score__min__energy>  (7) 
-14.42

>  <m_primary>  (7) 
energy

$$$$
7:0
     RDKit          3D

 61 64  0  0  0  0  0  0  0  0999 V2000
   63.3810   33.9090   46.7530 C   0  0  0  0  0  0  0  0  0  0  0  0
   62.5580   33.4230   47.9100 C   0  0  0  0  0  0  0  0  0  0  0  0
   61.7070   34.3100   48.5840 C   0  0  0  0  0  0  0  0  0  0  0  0
   60.9450   33.8660   49.6640 C   0  0  0  0  0  0  0  0  0  0  0  0
   61.0140   32.5340   50.0760 C   0  0  0  0  0  0  0  0  0  0  0  0
   61.8490   31.6190   49.4080 C   0  0  0  0  0  0  0  0  0  0  0  0
   61.8750   30.1770   49.8630 C   0  0  0  0  0  0  0  0  0  0  0  0
   60.6640   29.4810   49.4260 N   0  0  0  0  0  0  0  0  0  0  0  0
   60.1160   29.5310   48.0940 C   0  0  0  0  0  0  0  0  0  0  0  0
   59.8110   30.7490   47.4580 C   0  0  0  0  0  0  0  0  0  0  0  0
   59.2930   30.7560   46.1600 C   0  0  0  0  0  0  0  0  0  0  0  0
   59.0680   29.5590   45.4740 C   0  0  0  0  0  0  0  0  0  0  0  0
   58.5570   29.6160   44.1400 N   0  0  0  0  0  0  0  0  0  0  0  0
   57.2030   30.6010   43.6790 S   0  0  0  0  0  0  0  0  0  0  0  0
   56.2580   30.6750   44.8450 O   0  0  0  0  0  0  0  0  0  0  0  0
   56.4820   29.9790   42.5170 O   0  0  0  0  0  0  0  0  0  0  0  0
   57.6960   32.2810   43.2820 C   0  0  0  0  0  0  0  0  0  0  0  0
   58.0770   33.0750   44.5030 C   0  0  0  0  0  0  0  0  0  0  0  0
   57.2390   33.0940   45.6300 C   0  0  0  0  0  0  0  0  0  0  0  0
   57.5910   33.8360   46.7610 C   0  0  0  0  0  0  0  0  0  0  0  0
   58.7810   34.5620   46.7780 C   0  0  0  0  0  0  0  0  0  0  0  0
   59.6090   34.5720   45.6540 C   0  0  0  0  0  0  0  0  0  0  0  0
   59.2560   33.8420   44.5160 C   0  0  0  0  0  0  0  0  0  0  0  0
   59.3080   28.3370   46.1250 C   0  0  0  0  0  0  0  0  0  0  0  0
   58.8650   26.7670   45.3630 S   0  0  0  0  0  0  0  0  0  0  0  0
   57.2740   26.5970   46.2490 C   0  0  0  0  0  0  0  0  0  0  0  0
   56.4320   25.5370   45.6050 C   0  0  0  0  0  0  0  0  0  0  0  0
   56.9420   24.7270   44.5740 C   0  0  0  0  0  0  0  0  0  0  0  0
   56.1150   23.7760   43.9730 C   0  0  0  0  0  0  0  0  0  0  0  0
   54.7990   23.6350   44.4080 C   0  0  0  0  0  0  0  0  0  0  0  0
   54.3240   24.4550   45.4380 C   0  0  0  0  0  0  0  0  0  0  0  0
   55.1390   25.3830   46.0030 N   0  0  0  0  0  0  0  0  0  0  0  0
   59.8510   28.3320   47.4140 C   0  0  0  0  0  0  0  0  0  0  0  0
   62.6310   32.0740   48.3120 C   0  0  0  0  0  0  0  0  0  0  0  0
   63.4870   31.2190   47.6090 O   0  0  0  0  0  0  0  0  0  0  0  0
   64.2706   34.4343   47.1308 H   0  0  0  0  0  0  0  0  0  0  0  0
   63.6945   33.0511   46.1401 H   0  0  0  0  0  0  0  0  0  0  0  0
   62.7812   34.5978   46.1401 H   0  0  0  0  0  0  0  0  0  0  0  0
   61.6402   35.3591   48.2600 H   0  0  0  0  0  0  0  0  0  0  0  0
   60.2859   34.5691   50.1943 H   0  0  0  0  0  0  0  0  0  0  0  0
   60.4099   32.1963   50.9310 H   0  0  0  0  0  0  0  0  0  0  0  0
   62.7553   29.6772   49.4326 H   0  0  0  0  0  0  0  0  0  0  0  0
   61.9242   30.1509   50.9616 H   0  0  0  0  0  0  0  0  0  0  0  0
   60.2130   28.8400   50.1160 H   0  0  0  0  0  0  0  0  0  0  0  0
   59.9811   31.6995   47.9849 H   0  0  0  0  0  0  0  0  0  0  0  0
   59.0597   31.7142   45.6727 H   0  0  0  0  0  0  0  0  0  0  0  0
   58.5599   32.2436   42.6021 H   0  0  0  0  0  0  0  0  0  0  0  0
   56.8342   32.7801   42.8148 H   0  0  0  0  0  0  0  0  0  0  0  0
   56.2998   32.5214   45.6225 H   0  0  0  0  0  0  0  0  0  0  0  0
   56.9282   33.8471   47.6388 H   0  0  0  0  0  0  0  0  0  0  0  0
   59.0676   35.1271   47.6772 H   0  0  0  0  0  0  0  0  0  0  0  0
   60.5413   35.1558   45.6643 H   0  0  0  0  0  0  0  0  0  0  0  0
   59.9028   33.8673   43.6266 H   0  0  0  0  0  0  0  0  0  0  0  0
   57.4690   26.3199   47.2955 H   0  0  0  0  0  0  0  0  0  0  0  0
   56.7365   27.5559   46.2076 H   0  0  0  0  0  0  0  0  0  0  0  0
   57.9849   24.8421   44.2437 H   0  0  0  0  0  0  0  0  0  0  0  0
   56.5002   23.1419   43.1609 H   0  0  0  0  0  0  0  0  0  0  0  0
   54.1391   22.8859   43.9461 H   0  0  0  0  0  0  0  0  0  0  0  0
   53.2877   24.3476   45.7909 H   0  0  0  0  0  0  0  0  0  0  0  0
   60.0741   27.3723   47.9031 H   0  0  0  0  0  0  0  0  0  0  0  0
   64.4310   31.4660   47.3360 H   0  0  0  0  0  0  0  0  0  0  0  0
  1  2  1  0
  2  3  2  0
  3  4  1  0
  4  5  2  0
  5  6  1  0
  6  7  1  0
  7  8  1  0
  8  9  1  0
  9 10  2  0
 10 11  1  0
 11 12  2  0
 12 13  1  0
 13 14  1  0
 14 15  2  0
 14 16  2  0
 14 17  1  0
 17 18  1  0
 18 19  2  0
 19 20  1  0
 20 21  2  0
 21 22  1  0
 22 23  2  0
 12 24  1  0
 24 25  1  0
 25 26  1  0
 26 27  1  0
 27 28  2  0
 28 29  1  0
 29 30  2  0
 30 31  1  0
 31 32  2  0
 24 33  2  0
  6 34  2  0
 34 35  1  0
 34  2  1  0
 33  9  1  0
 23 18  1  0
 32 27  1  0
  1 36  1  0
  1 37  1  0
  1 38  1  0
  3 39  1  0
  4 40  1  0
  5 41  1  0
  7 42  1  0
  7 43  1  0
  8 44  1  0
 10 45  1  0
 11 46  1  0
 17 47  1  0
 17 48  1  0
 19 49  1  0
 20 50  1  0
 21 51  1  0
 22 52  1  0
 23 53  1  0
 26 54  1  0
 26 55  1  0
 28 56  1  0
 29 57  1  0
 30 58  1  0
 31 59  1  0
 33 60  1  0
 35 61  1  0
M  CHG  1  13  -1
M  END
>  <UniqueID>  (8) 
8

>  <SMILES>  (8) 
Cc1cccc(CNc2ccc([N-]S(=O)(=O)Cc3ccccc3)c(SCc3ccccn3)c2)c1O

>  <Energy>  (8) 
61.91665451437375

>  <Genealogy>  (8) 
Cc1cccc(CNc2ccc([N-]S(=O)(=O)Cc3ccccc3)c(SCc3ccccn3)c2)c1O (protonated)
Cc1cccc(CNc2ccc([N-]S(=O)(=O)Cc3ccccc3)c(SCc3ccccn3)c2)c1O (3D coordinates assigned)
Cc1cccc(CNc2ccc([N-]S(=O)(=O)Cc3ccccc3)c(SCc3ccccn3)c2)c1O (optimized conformer: 61.91665451437375 kcal/mol)

>  <smiles>  (8) 
Cc1cccc(CNc2ccc(NS(=O)(=O)Cc3ccccc3)c(SCc3ccccn3)c2)c1O

>  <score_type>  (8) 
oracle

>  <origin>  (8) 
adg

>  <m_score__min__energy>  (8) 
-12.640000000000001

>  <m_primary>  (8) 
energy

$$$$
8:0
     RDKit          3D

 47 50  0  0  0  0  0  0  0  0999 V2000
   57.4788   33.4323   43.0489 H   0  0  0  0  0  0  0  0  0  0  0  0
   57.7730   33.2390   44.0910 C   0  0  0  0  0  0  0  0  0  0  0  0
   58.3650   32.0650   44.4280 N   0  0  0  0  0  0  0  0  0  0  0  0
   58.7400   31.7970   45.7070 C   0  0  0  0  0  0  0  0  0  0  0  0
   59.3010   30.5470   45.9940 O   0  0  0  0  0  0  0  0  0  0  0  0
   58.5590   29.3730   46.2000 C   0  0  0  0  0  0  0  0  0  0  0  0
   58.9110   28.4260   47.1800 C   0  0  0  0  0  0  0  0  0  0  0  0
   59.7884   28.6003   47.8201 H   0  0  0  0  0  0  0  0  0  0  0  0
   58.1500   27.2650   47.3430 C   0  0  0  0  0  0  0  0  0  0  0  0
   58.4242   26.5371   48.1208 H   0  0  0  0  0  0  0  0  0  0  0  0
   57.0420   27.0220   46.5240 C   0  0  0  0  0  0  0  0  0  0  0  0
   56.2700   25.8280   46.7450 N   0  0  0  0  0  0  0  0  0  0  0  0
   55.7850   25.0340   45.8330 C   0  0  0  0  0  0  0  0  0  0  0  0
   54.4520   24.7520   45.7750 N   0  0  0  0  0  0  0  0  0  0  0  0
   53.9290   23.9440   44.8140 C   0  0  0  0  0  0  0  0  0  0  0  0
   52.8498   23.7317   44.8019 H   0  0  0  0  0  0  0  0  0  0  0  0
   54.7610   23.3840   43.8430 C   0  0  0  0  0  0  0  0  0  0  0  0
   54.3439   22.7306   43.0625 H   0  0  0  0  0  0  0  0  0  0  0  0
   56.1290   23.6630   43.8740 C   0  0  0  0  0  0  0  0  0  0  0  0
   56.7978   23.2279   43.1168 H   0  0  0  0  0  0  0  0  0  0  0  0
   56.6460   24.4960   44.8690 C   0  0  0  0  0  0  0  0  0  0  0  0
   57.7211   24.7274   44.8949 H   0  0  0  0  0  0  0  0  0  0  0  0
   56.6640   27.9880   45.5760 C   0  0  0  0  0  0  0  0  0  0  0  0
   55.7680   27.8283   44.9582 H   0  0  0  0  0  0  0  0  0  0  0  0
   57.4230   29.1520   45.4150 C   0  0  0  0  0  0  0  0  0  0  0  0
   57.1239   29.8992   44.6652 H   0  0  0  0  0  0  0  0  0  0  0  0
   58.5470   32.7860   46.7010 C   0  0  0  0  0  0  0  0  0  0  0  0
   59.0280   32.6260   48.0910 C   0  0  0  0  0  0  0  0  0  0  0  0
   59.2630   33.6430   48.7980 O   0  0  0  0  0  0  0  0  0  0  0  0
   59.1960   31.3130   48.6490 N   0  0  0  0  0  0  0  0  0  0  0  0
   59.0370   30.4740   48.0470 H   0  0  0  0  0  0  0  0  0  0  0  0
   59.6170   31.1010   50.0320 C   0  0  0  0  0  0  0  0  0  0  0  0
   60.0737   30.1045   50.1242 H   0  0  0  0  0  0  0  0  0  0  0  0
   60.3477   31.8756   50.3078 H   0  0  0  0  0  0  0  0  0  0  0  0
   58.4360   31.1920   50.9520 C   0  0  0  0  0  0  0  0  0  0  0  0
   57.7100   30.0750   51.2320 N   0  0  0  0  0  0  0  0  0  0  0  0
   56.6490   30.1040   52.0820 C   0  0  0  0  0  0  0  0  0  0  0  0
   56.0815   29.1836   52.2839 H   0  0  0  0  0  0  0  0  0  0  0  0
   56.2790   31.3010   52.6990 C   0  0  0  0  0  0  0  0  0  0  0  0
   55.4202   31.3307   53.3857 H   0  0  0  0  0  0  0  0  0  0  0  0
   57.0120   32.4600   52.4340 C   0  0  0  0  0  0  0  0  0  0  0  0
   56.7336   33.4100   52.9135 H   0  0  0  0  0  0  0  0  0  0  0  0
   58.0990   32.4100   51.5590 C   0  0  0  0  0  0  0  0  0  0  0  0
   58.6848   33.3168   51.3481 H   0  0  0  0  0  0  0  0  0  0  0  0
   57.9380   33.9520   46.3500 N   0  0  0  0  0  0  0  0  0  0  0  0
   57.5410   34.1970   45.0750 C   0  0  0  0  0  0  0  0  0  0  0  0
   57.0408   35.1433   44.8215 H   0  0  0  0  0  0  0  0  0  0  0  0
  1  2  1  0
  2  3  2  0
  3  4  1  0
  4  5  1  0
  5  6  1  0
  6  7  2  0
  7  8  1  0
  7  9  1  0
  9 10  1  0
  9 11  2  0
 11 12  1  0
 12 13  2  0
 13 14  1  0
 14 15  1  0
 15 16  1  0
 15 17  2  0
 17 18  1  0
 17 19  1  0
 19 20  1  0
 19 21  2  0
 21 22  1  0
 11 23  1  0
 23 24  1  0
 23 25  2  0
 25 26  1  0
  4 27  2  0
 27 28  1  0
 28 29  2  0
 28 30  1  0
 30 31  1  0
 30 32  1  0
 32 33  1  0
 32 34  1  0
 32 35  1  0
 35 36  2  0
 36 37  1  0
 37 38  1  0
 37 39  2  0
 39 40  1  0
 39 41  1  0
 41 42  1  0
 41 43  2  0
 43 44  1  0
 27 45  1  0
 45 46  2  0
 46 47  1  0
 46  2  1  0
 25  6  1  0
 43 35  1  0
 21 13  1  0
M  CHG  1  14  -1
M  END
>  <UniqueID>  (9) 
9

>  <SMILES>  (9) 
O=C(NCc1ccccn1)c1nccnc1Oc1ccc(/N=c2/cccc[n-]2)cc1

>  <Energy>  (9) 
69.11990201242732

>  <Genealogy>  (9) 
O=C(NCc1ccccn1)c1nccnc1Oc1ccc(N=c2cccc[n-]2)cc1 (protonated)
O=C(NCc1ccccn1)c1nccnc1Oc1ccc(/N=c2/cccc[n-]2)cc1 (cis-trans isomerization)
O=C(NCc1ccccn1)c1nccnc1Oc1ccc(/N=c2/cccc[n-]2)cc1 (3D coordinates assigned)
O=C(NCc1ccccn1)c1nccnc1Oc1ccc(/N=c2/cccc[n-]2)cc1 (optimized conformer: 69.11990201242732 kcal/mol)

>  <smiles>  (9) 
O=C(NCc1ccccn1)c1nccnc1Oc1ccc(N=c2cccc[nH]2)cc1

>  <score_type>  (9) 
oracle

>  <origin>  (9) 
adg

>  <m_score__min__energy>  (9) 
-9.9499999999999993

>  <m_primary>  (9) 
energy

$$$$
9:0
     RDKit          3D

 43 45  0  0  0  0  0  0  0  0999 V2000
   61.0080   34.6460   48.3020 O   0  0  0  0  0  0  0  0  0  0  0  0
   61.1690   33.8940   47.3010 C   0  0  0  0  0  0  0  0  0  0  0  0
   62.4940   33.6470   46.8040 N   0  0  0  0  0  0  0  0  0  0  0  0
   63.6860   33.9230   47.6020 C   0  0  0  0  0  0  0  0  0  0  0  0
   63.7700   32.9540   48.7490 C   0  0  0  0  0  0  0  0  0  0  0  0
   64.8530   33.0160   49.6420 C   0  0  0  0  0  0  0  0  0  0  0  0
   64.9620   32.0860   50.6810 C   0  0  0  0  0  0  0  0  0  0  0  0
   63.9980   31.0840   50.8300 C   0  0  0  0  0  0  0  0  0  0  0  0
   64.1060   30.1830   51.8360 F   0  0  0  0  0  0  0  0  0  0  0  0
   62.9230   31.0100   49.9390 C   0  0  0  0  0  0  0  0  0  0  0  0
   62.8090   31.9390   48.8990 C   0  0  0  0  0  0  0  0  0  0  0  0
   59.9840   33.2870   46.6510 C   0  0  0  0  0  0  0  0  0  0  0  0
   59.4860   33.8230   45.4510 C   0  0  0  0  0  0  0  0  0  0  0  0
   58.3600   33.2690   44.8350 C   0  0  0  0  0  0  0  0  0  0  0  0
   57.6990   32.1750   45.4220 C   0  0  0  0  0  0  0  0  0  0  0  0
   56.5320   31.5810   44.8340 N   0  0  0  0  0  0  0  0  0  0  0  0
   56.4070   29.9300   44.3190 S   0  0  0  0  0  0  0  0  0  0  0  0
   56.3450   29.8800   42.8160 O   0  0  0  0  0  0  0  0  0  0  0  0
   55.1470   29.3320   44.8780 O   0  0  0  0  0  0  0  0  0  0  0  0
   57.7880   29.0200   44.9230 C   0  0  0  0  0  0  0  0  0  0  0  0
   57.5840   27.9750   45.8390 C   0  0  0  0  0  0  0  0  0  0  0  0
   58.6730   27.2420   46.3210 C   0  0  0  0  0  0  0  0  0  0  0  0
   59.9690   27.5500   45.8930 C   0  0  0  0  0  0  0  0  0  0  0  0
   60.1770   28.5910   44.9810 C   0  0  0  0  0  0  0  0  0  0  0  0
   59.0910   29.3250   44.4960 C   0  0  0  0  0  0  0  0  0  0  0  0
   58.1900   31.6430   46.6190 C   0  0  0  0  0  0  0  0  0  0  0  0
   59.3220   32.1900   47.2310 C   0  0  0  0  0  0  0  0  0  0  0  0
   62.6230   33.2580   45.8450 H   0  0  0  0  0  0  0  0  0  0  0  0
   64.5802   33.8184   46.9700 H   0  0  0  0  0  0  0  0  0  0  0  0
   63.6277   34.9478   47.9974 H   0  0  0  0  0  0  0  0  0  0  0  0
   65.6173   33.7982   49.5237 H   0  0  0  0  0  0  0  0  0  0  0  0
   65.8076   32.1429   51.3822 H   0  0  0  0  0  0  0  0  0  0  0  0
   62.1660   30.2205   50.0558 H   0  0  0  0  0  0  0  0  0  0  0  0
   61.9649   31.8750   48.1966 H   0  0  0  0  0  0  0  0  0  0  0  0
   59.9875   34.6876   44.9917 H   0  0  0  0  0  0  0  0  0  0  0  0
   57.9899   33.6899   43.8885 H   0  0  0  0  0  0  0  0  0  0  0  0
   56.5659   27.7328   46.1778 H   0  0  0  0  0  0  0  0  0  0  0  0
   58.5106   26.4229   47.0370 H   0  0  0  0  0  0  0  0  0  0  0  0
   60.8250   26.9735   46.2736 H   0  0  0  0  0  0  0  0  0  0  0  0
   61.1965   28.8318   44.6455 H   0  0  0  0  0  0  0  0  0  0  0  0
   59.2568   30.1426   43.7790 H   0  0  0  0  0  0  0  0  0  0  0  0
   57.6805   30.7858   47.0834 H   0  0  0  0  0  0  0  0  0  0  0  0
   59.6969   31.7599   48.1714 H   0  0  0  0  0  0  0  0  0  0  0  0
  1  2  2  0
  2  3  1  0
  3  4  1  0
  4  5  1  0
  5  6  2  0
  6  7  1  0
  7  8  2  0
  8  9  1  0
  8 10  1  0
 10 11  2  0
  2 12  1  0
 12 13  2  0
 13 14  1  0
 14 15  2  0
 15 16  1  0
 16 17  1  0
 17 18  2  0
 17 19  2  0
 17 20  1  0
 20 21  2  0
 21 22  1  0
 22 23  2  0
 23 24  1  0
 24 25  2  0
 15 26  1  0
 26 27  2  0
 11  5  1  0
 27 12  1  0
 25 20  1  0
  3 28  1  0
  4 29  1  0
  4 30  1  0
  6 31  1  0
  7 32  1  0
 10 33  1  0
 11 34  1  0
 13 35  1  0
 14 36  1  0
 21 37  1  0
 22 38  1  0
 23 39  1  0
 24 40  1  0
 25 41  1  0
 26 42  1  0
 27 43  1  0
M  CHG  1  16  -1
M  END
>  <UniqueID>  (10) 
10

>  <SMILES>  (10) 
O=C(NCc1ccc(F)cc1)c1ccc([N-]S(=O)(=O)c2ccccc2)cc1

>  <Energy>  (10) 
48.96853760048857

>  <Genealogy>  (10) 
O=C(NCc1ccc(F)cc1)c1ccc([N-]S(=O)(=O)c2ccccc2)cc1 (protonated)
O=C(NCc1ccc(F)cc1)c1ccc([N-]S(=O)(=O)c2ccccc2)cc1 (3D coordinates assigned)
O=C(NCc1ccc(F)cc1)c1ccc([N-]S(=O)(=O)c2ccccc2)cc1 (optimized conformer: 48.96853760048857 kcal/mol)

>  <smiles>  (10) 
O=C(NCc1ccc(F)cc1)c1ccc(NS(=O)(=O)c2ccccc2)cc1

>  <score_type>  (10) 
oracle

>  <origin>  (10) 
adg

>  <m_score__min__energy>  (10) 
-10.65

>  <m_primary>  (10) 
energy

$$$$
10:0
     RDKit          3D

 48 50  0  0  1  0  0  0  0  0999 V2000
   64.3010   32.6020   49.1360 C   0  0  0  0  0  0  0  0  0  0  0  0
   62.8990   33.0490   48.8450 C   0  0  0  0  0  0  0  0  0  0  0  0
   62.5550   33.4390   47.5710 C   0  0  0  0  0  0  0  0  0  0  0  0
   61.2540   33.8400   47.3670 C   0  0  0  0  0  0  0  0  0  0  0  0
   60.9020   34.2080   46.1890 N   0  0  0  0  0  0  0  0  0  0  0  0
   59.6230   34.6610   45.7650 C   0  0  0  0  0  0  0  0  0  0  0  0
   58.8600   33.4630   45.2940 C   0  0  0  0  0  0  0  0  0  0  0  0
   58.8260   32.2770   45.9920 C   0  0  0  0  0  0  0  0  0  0  0  0
   58.1230   31.1640   45.5580 C   0  0  0  0  0  0  0  0  0  0  0  0
   57.4170   31.2210   44.3790 C   0  0  0  0  0  0  0  0  0  0  0  0
   56.5450   29.7910   43.8730 S   0  0  0  0  0  0  0  0  0  0  0  0
   57.6510   28.4880   43.7610 N   0  0  0  0  0  0  0  0  0  0  0  0
   55.9030   30.0410   42.5410 O   0  0  0  0  0  0  0  0  0  0  0  0
   55.4730   29.4850   44.8640 O   0  0  0  0  0  0  0  0  0  0  0  0
   57.4270   32.3870   43.6540 C   0  0  0  0  0  0  0  0  0  0  0  0
   58.1330   33.4840   44.1020 C   0  0  0  0  0  0  0  0  0  0  0  0
   60.3820   33.8380   48.3910 N   0  0  0  0  0  0  0  0  0  0  0  0
   60.7720   33.4430   49.6380 C   0  0  0  0  0  0  0  0  0  0  0  0
   59.8620   33.4800   50.5420 N   0  0  0  0  0  0  0  0  0  0  0  0
   58.9050   32.4320   50.6820 C   0  0  0  0  0  0  0  0  0  0  0  0
   59.3560   31.1460   50.0650 C   0  0  0  0  0  0  0  0  0  0  0  0
   58.9090   30.7110   48.8360 C   0  0  0  0  0  0  0  0  0  0  0  0
   59.3200   29.5200   48.2610 C   0  0  0  0  0  0  0  0  0  0  0  0
   60.2180   28.7130   48.9270 C   0  0  0  0  0  0  0  0  0  0  0  0
   60.6860   29.1150   50.1600 C   0  0  0  0  0  0  0  0  0  0  0  0
   60.2620   30.3060   50.7120 C   0  0  0  0  0  0  0  0  0  0  0  0
   62.0310   33.0480   49.8680 N   0  0  0  0  0  0  0  0  0  0  0  0
   64.4520   32.5539   50.2245 H   0  0  0  0  0  0  0  0  0  0  0  0
   64.4667   31.6065   48.6984 H   0  0  0  0  0  0  0  0  0  0  0  0
   65.0124   33.3179   48.6984 H   0  0  0  0  0  0  0  0  0  0  0  0
   63.2880   33.4307   46.7509 H   0  0  0  0  0  0  0  0  0  0  0  0
   59.0951   35.1374   46.6043 H   0  0  0  0  0  0  0  0  0  0  0  0
   59.7203   35.4025   44.9583 H   0  0  0  0  0  0  0  0  0  0  0  0
   59.3827   32.2094   46.9383 H   0  0  0  0  0  0  0  0  0  0  0  0
   58.1297   30.2394   46.1538 H   0  0  0  0  0  0  0  0  0  0  0  0
   57.1660   27.6230   43.4320 H   0  0  0  0  0  0  0  0  0  0  0  0
   58.3520   28.7050   42.9960 H   0  0  0  0  0  0  0  0  0  0  0  0
   56.8677   32.4467   42.7087 H   0  0  0  0  0  0  0  0  0  0  0  0
   58.1230   34.4051   43.5008 H   0  0  0  0  0  0  0  0  0  0  0  0
   59.4050   34.1470   48.2020 H   0  0  0  0  0  0  0  0  0  0  0  0
   58.7241   32.2627   51.7537 H   0  0  0  0  0  0  0  0  0  0  0  0
   57.9909   32.7472   50.1575 H   0  0  0  0  0  0  0  0  0  0  0  0
   58.1925   31.3390   48.2862 H   0  0  0  0  0  0  0  0  0  0  0  0
   58.9316   29.2190   47.2769 H   0  0  0  0  0  0  0  0  0  0  0  0
   60.5551   27.7650   48.4824 H   0  0  0  0  0  0  0  0  0  0  0  0
   61.4013   28.4827   50.7064 H   0  0  0  0  0  0  0  0  0  0  0  0
   60.6520   30.6035   51.6966 H   0  0  0  0  0  0  0  0  0  0  0  0
   62.3120   32.7540   50.8070 H   0  0  0  0  0  0  0  0  0  0  0  0
  1  2  1  0
  2  3  2  0
  3  4  1  0
  4  5  2  0
  5  6  1  0
  6  7  1  0
  7  8  2  0
  8  9  1  0
  9 10  2  0
 10 11  1  0
 11 12  1  0
 11 13  2  0
 11 14  2  0
 10 15  1  0
 15 16  2  0
  4 17  1  0
 17 18  1  0
 18 19  2  0
 19 20  1  0
 20 21  1  0
 21 22  2  0
 22 23  1  0
 23 24  2  0
 24 25  1  0
 25 26  2  0
 18 27  1  0
 27  2  1  0
 16  7  1  0
 26 21  1  0
  1 28  1  0
  1 29  1  0
  1 30  1  0
  3 31  1  0
  6 32  1  0
  6 33  1  0
  8 34  1  0
  9 35  1  0
 12 36  1  0
 12 37  1  0
 15 38  1  0
 16 39  1  0
 17 40  1  0
 20 41  1  0
 20 42  1  0
 22 43  1  0
 23 44  1  0
 24 45  1  0
 25 46  1  0
 26 47  1  0
 27 48  1  0
M  END
>  <smiles>  (11) 
Cc1cc(=NCc2ccc(S(N)(=O)=O)cc2)[nH]c(=NCc2ccccc2)[nH]1

>  <score_type>  (11) 
oracle

>  <origin>  (11) 
adg

>  <m_score__min__energy>  (11) 
-9.1400000000000006

>  <m_primary>  (11) 
energy

$$$$
11:0
     RDKit          3D

 56 60  0  0  1  0  0  0  0  0999 V2000
   59.6230   34.8650   44.5890 O   0  0  0  0  0  0  0  0  0  0  0  0
   59.3490   34.2100   45.6290 C   0  0  0  0  0  0  0  0  0  0  0  0
   58.0510   33.6010   45.7090 N   0  0  0  0  0  0  0  0  0  0  0  0
   57.8660   32.4330   45.1370 C   0  0  0  0  0  0  0  0  0  0  0  0
   57.7850   31.2550   45.8280 C   0  0  0  0  0  0  0  0  0  0  0  0
   57.5990   30.0880   45.1350 C   0  0  0  0  0  0  0  0  0  0  0  0
   57.5230   28.7670   45.7240 C   0  0  0  0  0  0  0  0  0  0  0  0
   56.7030   27.7310   45.5230 N   0  0  0  0  0  0  0  0  0  0  0  0
   57.0450   26.7090   46.2990 C   0  0  0  0  0  0  0  0  0  0  0  0
   56.3870   25.0670   46.4770 S   0  0  0  0  0  0  0  0  0  0  0  0
   55.4870   24.5730   45.0070 C   0  0  0  0  0  0  0  0  0  0  0  0
   56.2240   23.4630   44.3360 C   0  0  0  0  0  0  0  0  0  0  0  0
   57.3510   23.0020   45.0360 C   0  0  0  0  0  0  0  0  0  0  0  0
   58.1330   21.9800   44.5370 C   0  0  0  0  0  0  0  0  0  0  0  0
   57.7720   21.4300   43.3350 C   0  0  0  0  0  0  0  0  0  0  0  0
   56.6580   21.8900   42.6490 C   0  0  0  0  0  0  0  0  0  0  0  0
   55.8580   22.9150   43.1320 C   0  0  0  0  0  0  0  0  0  0  0  0
   58.1300   27.1210   47.0270 N   0  0  0  0  0  0  0  0  0  0  0  0
   58.4540   28.3760   46.7010 C   0  0  0  0  0  0  0  0  0  0  0  0
   59.5430   29.1620   47.2390 C   0  0  0  0  0  0  0  0  0  0  0  0
   60.5250   29.7600   46.4820 C   0  0  0  0  0  0  0  0  0  0  0  0
   61.5030   30.4710   47.1510 C   0  0  0  0  0  0  0  0  0  0  0  0
   61.5370   30.6050   48.5230 C   0  0  0  0  0  0  0  0  0  0  0  0
   62.4930   31.2990   49.1820 F   0  0  0  0  0  0  0  0  0  0  0  0
   60.5510   30.0030   49.2760 C   0  0  0  0  0  0  0  0  0  0  0  0
   59.5780   29.2980   48.6300 C   0  0  0  0  0  0  0  0  0  0  0  0
   57.4960   30.1430   43.7480 C   0  0  0  0  0  0  0  0  0  0  0  0
   57.5770   31.3350   43.0520 C   0  0  0  0  0  0  0  0  0  0  0  0
   57.7620   32.4440   43.7910 N   0  0  0  0  0  0  0  0  0  0  0  0
   60.3590   34.1260   46.6560 C   0  0  0  0  0  0  0  0  0  0  0  0
   59.9230   34.3180   47.9700 C   0  0  0  0  0  0  0  0  0  0  0  0
   60.8430   34.2360   49.0130 C   0  0  0  0  0  0  0  0  0  0  0  0
   62.1820   33.9600   48.7240 C   0  0  0  0  0  0  0  0  0  0  0  0
   62.6310   33.7680   47.4370 C   0  0  0  0  0  0  0  0  0  0  0  0
   61.6870   33.8590   46.4260 C   0  0  0  0  0  0  0  0  0  0  0  0
   57.8681   31.2450   46.9248 H   0  0  0  0  0  0  0  0  0  0  0  0
   55.9160   27.7230   44.8560 H   0  0  0  0  0  0  0  0  0  0  0  0
   54.4805   24.2300   45.2887 H   0  0  0  0  0  0  0  0  0  0  0  0
   55.3982   25.4282   44.3208 H   0  0  0  0  0  0  0  0  0  0  0  0
   57.6151   23.4636   45.9989 H   0  0  0  0  0  0  0  0  0  0  0  0
   59.0157   21.6194   45.0854 H   0  0  0  0  0  0  0  0  0  0  0  0
   58.3733   20.6134   42.9089 H   0  0  0  0  0  0  0  0  0  0  0  0
   56.3993   21.4249   41.6863 H   0  0  0  0  0  0  0  0  0  0  0  0
   54.9761   23.2702   42.5789 H   0  0  0  0  0  0  0  0  0  0  0  0
   60.5310   29.6750   45.3853 H   0  0  0  0  0  0  0  0  0  0  0  0
   62.2943   30.9545   46.5593 H   0  0  0  0  0  0  0  0  0  0  0  0
   60.5491   30.0893   50.3726 H   0  0  0  0  0  0  0  0  0  0  0  0
   58.7894   28.8173   49.2275 H   0  0  0  0  0  0  0  0  0  0  0  0
   57.3454   29.2084   43.1878 H   0  0  0  0  0  0  0  0  0  0  0  0
   57.4948   31.3744   41.9558 H   0  0  0  0  0  0  0  0  0  0  0  0
   57.8200   33.3420   43.2300 H   0  0  0  0  0  0  0  0  0  0  0  0
   58.8643   34.5317   48.1785 H   0  0  0  0  0  0  0  0  0  0  0  0
   60.5187   34.3870   50.0532 H   0  0  0  0  0  0  0  0  0  0  0  0
   62.9018   33.8939   49.5532 H   0  0  0  0  0  0  0  0  0  0  0  0
   63.6879   33.5527   47.2212 H   0  0  0  0  0  0  0  0  0  0  0  0
   62.0177   33.7100   45.3875 H   0  0  0  0  0  0  0  0  0  0  0  0
  1  2  2  0
  2  3  1  0
  3  4  2  0
  4  5  1  0
  5  6  2  0
  6  7  1  0
  7  8  1  0
  8  9  1  0
  9 10  1  0
 10 11  1  0
 11 12  1  0
 12 13  2  0
 13 14  1  0
 14 15  2  0
 15 16  1  0
 16 17  2  0
  9 18  2  0
 18 19  1  0
 19 20  1  0
 20 21  2  0
 21 22  1  0
 22 23  2  0
 23 24  1  0
 23 25  1  0
 25 26  2  0
  6 27  1  0
 27 28  2  0
 28 29  1  0
  2 30  1  0
 30 31  2  0
 31 32  1  0
 32 33  2  0
 33 34  1  0
 34 35  2  0
 29  4  1  0
 35 30  1  0
 19  7  2  0
 26 20  1  0
 17 12  1  0
  5 36  1  0
  8 37  1  0
 11 38  1  0
 11 39  1  0
 13 40  1  0
 14 41  1  0
 15 42  1  0
 16 43  1  0
 17 44  1  0
 21 45  1  0
 22 46  1  0
 25 47  1  0
 26 48  1  0
 27 49  1  0
 28 50  1  0
 29 51  1  0
 31 52  1  0
 32 53  1  0
 33 54  1  0
 34 55  1  0
 35 56  1  0
M  END
>  <smiles>  (12) 
O=C(N=c1cc(-c2[nH]c(SCc3ccccc3)nc2-c2ccc(F)cc2)cc[nH]1)c1ccccc1

>  <score_type>  (12) 
oracle

>  <origin>  (12) 
adg

>  <m_score__min__energy>  (12) 
-10.050000000000001

>  <m_primary>  (12) 
energy

$$$$
12:0
     RDKit          3D

 46 49  0  0  1  0  0  0  0  0999 V2000
   60.0400   29.0070   46.3100 N   0  0  0  0  0  0  0  0  0  0  0  0
   59.5000   27.7260   47.3220 S   0  0  0  0  0  0  0  0  0  0  0  0
   58.5580   28.2060   48.3870 O   0  0  0  0  0  0  0  0  0  0  0  0
   60.7080   27.1970   48.0590 O   0  0  0  0  0  0  0  0  0  0  0  0
   58.8080   26.4540   46.3590 C   0  0  0  0  0  0  0  0  0  0  0  0
   59.4080   25.1900   46.3410 C   0  0  0  0  0  0  0  0  0  0  0  0
   58.8940   24.1490   45.5950 C   0  0  0  0  0  0  0  0  0  0  0  0
   57.7620   24.3970   44.8610 C   0  0  0  0  0  0  0  0  0  0  0  0
   57.1680   25.6230   44.8700 C   0  0  0  0  0  0  0  0  0  0  0  0
   57.6680   26.6960   45.6170 C   0  0  0  0  0  0  0  0  0  0  0  0
   56.9800   28.0080   45.5810 C   0  0  0  0  0  0  0  0  0  0  0  0
   58.4500   32.6570   47.1630 N   0  0  0  0  0  0  0  0  0  0  0  0
   58.5500   32.0750   48.3110 C   0  0  0  0  0  0  0  0  0  0  0  0
   58.0040   30.6140   45.9100 N   0  0  0  0  0  0  0  0  0  0  0  0
   58.2500   31.9340   45.9430 C   0  0  0  0  0  0  0  0  0  0  0  0
   57.5950   28.7960   44.5330 N   0  0  0  0  0  0  0  0  0  0  0  0
   57.8380   30.0680   44.6860 C   0  0  0  0  0  0  0  0  0  0  0  0
   58.5350   32.6880   49.5520 C   0  0  0  0  0  0  0  0  0  0  0  0
   58.6750   31.6610   50.4600 C   0  0  0  0  0  0  0  0  0  0  0  0
   58.7180   31.7790   51.9330 C   0  0  0  0  0  0  0  0  0  0  0  0
   58.4030   33.1040   52.5500 C   0  0  0  0  0  0  0  0  0  0  0  0
   57.4130   31.9870   52.6740 C   0  0  0  0  0  0  0  0  0  0  0  0
   58.7670   30.5010   49.7880 N   0  0  0  0  0  0  0  0  0  0  0  0
   58.6930   30.7270   48.4770 N   0  0  0  0  0  0  0  0  0  0  0  0
   58.3300   32.7060   44.7810 C   0  0  0  0  0  0  0  0  0  0  0  0
   58.6790   34.5780   44.8570 Br  0  0  0  0  0  0  0  0  0  0  0  0
   58.1530   32.1120   43.5390 C   0  0  0  0  0  0  0  0  0  0  0  0
   57.9090   30.7860   43.5480 N   0  0  0  0  0  0  0  0  0  0  0  0
   59.5420   29.0650   45.4100 H   0  0  0  0  0  0  0  0  0  0  0  0
   59.8740   29.9020   46.8230 H   0  0  0  0  0  0  0  0  0  0  0  0
   60.3158   25.0212   46.9389 H   0  0  0  0  0  0  0  0  0  0  0  0
   59.3733   23.1590   45.5892 H   0  0  0  0  0  0  0  0  0  0  0  0
   57.3255   23.5905   44.2535 H   0  0  0  0  0  0  0  0  0  0  0  0
   56.2607   25.7755   44.2671 H   0  0  0  0  0  0  0  0  0  0  0  0
   55.9110   27.8652   45.3647 H   0  0  0  0  0  0  0  0  0  0  0  0
   57.0698   28.5182   46.5514 H   0  0  0  0  0  0  0  0  0  0  0  0
   58.4334   33.7620   49.7668 H   0  0  0  0  0  0  0  0  0  0  0  0
   59.5515   31.0647   52.0046 H   0  0  0  0  0  0  0  0  0  0  0  0
   58.9609   33.4423   53.4356 H   0  0  0  0  0  0  0  0  0  0  0  0
   58.3586   34.1385   52.1788 H   0  0  0  0  0  0  0  0  0  0  0  0
   57.2482   31.5018   53.6474 H   0  0  0  0  0  0  0  0  0  0  0  0
   56.3480   31.8571   52.4312 H   0  0  0  0  0  0  0  0  0  0  0  0
   58.8790   29.5250   50.1540 H   0  0  0  0  0  0  0  0  0  0  0  0
   58.7310   30.0470   47.6890 H   0  0  0  0  0  0  0  0  0  0  0  0
   58.2085   32.6884   42.6037 H   0  0  0  0  0  0  0  0  0  0  0  0
   57.7730   30.3280   42.6150 H   0  0  0  0  0  0  0  0  0  0  0  0
  1  2  1  0
  2  3  2  0
  2  4  2  0
  2  5  1  0
  5  6  2  0
  6  7  1  0
  7  8  2  0
  8  9  1  0
  9 10  2  0
 10 11  1  0
 11 12  1  0
 12 13  2  0
 13 14  1  0
 14 15  2  0
 15 16  1  0
 16 17  2  0
 17 18  1  0
 18 19  2  0
 19 20  1  0
 20 21  1  0
 21 22  1  0
 19 23  1  0
 23 24  1  0
 15 25  1  0
 25 26  1  0
 25 27  2  0
 27 28  1  0
 10  5  1  0
 28 13  1  0
 24 17  1  0
 22 20  1  0
  1 29  1  0
  1 30  1  0
  6 31  1  0
  7 32  1  0
  8 33  1  0
  9 34  1  0
 11 35  1  0
 11 36  1  0
 18 37  1  0
 20 38  1  0
 21 39  1  0
 21 40  1  0
 22 41  1  0
 22 42  1  0
 23 43  1  0
 24 44  1  0
 27 45  1  0
 28 46  1  0
M  END
>  <smiles>  (13) 
NS(=O)(=O)c1ccccc1CN=c1nc(N=c2cc(C3CC3)[nH][nH]2)c(Br)c[nH]1

>  <score_type>  (13) 
oracle

>  <origin>  (13) 
adg

>  <m_score__min__energy>  (13) 
-9.3800000000000008

>  <m_primary>  (13) 
energy

$$$$
13:0
     RDKit          3D

 90 95  0  0  0  0  0  0  0  0999 V2000
   57.5420   25.1730   44.6570 C   0  0  0  0  0  0  0  0  0  0  0  0
   57.9290   25.7390   45.8040 C   0  0  0  0  0  0  0  0  0  0  0  0
   59.1750   26.5910   45.8970 C   0  0  0  0  0  0  0  0  0  0  0  0
   58.8830   28.0820   46.2610 C   0  0  2  0  0  0  0  0  0  0  0  0
   57.4220   28.4170   45.8750 C   0  0  0  0  0  0  0  0  0  0  0  0
   59.8150   29.0110   45.4290 C   0  0  0  0  0  0  0  0  0  0  0  0
   60.1410   30.3140   46.1130 C   0  0  0  0  0  0  0  0  0  0  0  0
   61.1830   30.5320   47.0120 C   0  0  0  0  0  0  0  0  0  0  0  0
   61.1720   31.8130   47.4460 N   0  0  0  0  0  0  0  0  0  0  0  0
   60.1370   32.4060   46.8260 C   0  0  0  0  0  0  0  0  0  0  0  0
   59.7180   33.7280   46.9610 C   0  0  0  0  0  0  0  0  0  0  0  0
   58.5950   34.1430   46.2220 C   0  0  0  0  0  0  0  0  0  0  0  0
   57.9250   33.2370   45.3700 C   0  0  0  0  0  0  0  0  0  0  0  0
   58.3700   31.9070   45.2520 C   0  0  0  0  0  0  0  0  0  0  0  0
   59.4850   31.5250   46.0000 C   0  0  0  0  0  0  0  0  0  0  0  0
   59.0850   28.3460   47.7540 C   0  0  0  0  0  0  0  0  0  0  0  0
   59.6540   27.4840   48.4800 O   0  0  0  0  0  0  0  0  0  0  0  0
   58.6830   29.5960   48.3370 N   0  0  0  0  0  0  0  0  0  0  0  0
   58.5220   29.7610   49.7880 C   0  0  1  0  0  0  0  0  0  0  0  0
   59.7190   29.1980   50.5760 C   0  0  0  0  0  0  0  0  0  0  0  0
   59.6320   29.1920   52.1320 C   0  0  0  0  0  0  0  0  0  0  0  0
   58.2830   29.4540   52.7760 C   0  0  0  0  0  0  0  0  0  0  0  0
   57.7850   28.5110   53.6980 C   0  0  0  0  0  0  0  0  0  0  0  0
   56.5220   28.6670   54.2670 C   0  0  0  0  0  0  0  0  0  0  0  0
   55.7230   29.7540   53.9110 C   0  0  0  0  0  0  0  0  0  0  0  0
   56.1880   30.6840   52.9820 C   0  0  0  0  0  0  0  0  0  0  0  0
   57.4620   30.5450   52.4050 C   0  0  0  0  0  0  0  0  0  0  0  0
   57.9350   31.5610   51.5060 N   0  0  0  0  0  0  0  0  0  0  0  0
   58.1820   32.9180   52.0020 C   0  0  0  0  0  0  0  0  0  0  0  0
   59.6570   33.2130   51.9920 C   0  0  0  0  0  0  0  0  0  0  0  0
   60.3990   33.1670   53.1830 C   0  0  0  0  0  0  0  0  0  0  0  0
   61.7640   33.4590   53.1660 C   0  0  0  0  0  0  0  0  0  0  0  0
   62.4010   33.7970   51.9630 C   0  0  0  0  0  0  0  0  0  0  0  0
   63.8450   34.1060   51.9560 C   0  0  0  0  0  0  0  0  0  0  0  0
   64.2780   35.2990   52.5590 C   0  0  0  0  0  0  0  0  0  0  0  0
   65.6320   35.6360   52.5690 C   0  0  0  0  0  0  0  0  0  0  0  0
   66.5680   34.7820   51.9860 C   0  0  0  0  0  0  0  0  0  0  0  0
   66.1530   33.5890   51.3890 C   0  0  0  0  0  0  0  0  0  0  0  0
   64.7930   33.2320   51.3700 C   0  0  0  0  0  0  0  0  0  0  0  0
   64.3010   31.6890   50.6490 S   0  0  0  0  0  0  0  0  0  0  0  0
   63.2480   31.0340   51.4990 O   0  0  0  0  0  0  0  0  0  0  0  0
   65.4960   30.7780   50.5600 O   0  0  0  0  0  0  0  0  0  0  0  0
   63.6800   31.9030   49.0440 N   0  0  0  0  0  0  0  0  0  0  0  0
   63.7540   33.1410   48.3380 C   0  0  0  0  0  0  0  0  0  0  0  0
   63.7860   34.2320   48.9680 O   0  0  0  0  0  0  0  0  0  0  0  0
   63.8260   33.1200   46.8700 C   0  0  0  0  0  0  0  0  0  0  0  0
   63.2850   34.0690   46.1110 C   0  0  0  0  0  0  0  0  0  0  0  0
   61.6500   33.8800   50.7830 C   0  0  0  0  0  0  0  0  0  0  0  0
   60.2840   33.5940   50.7990 C   0  0  0  0  0  0  0  0  0  0  0  0
   58.2860   31.2010   50.1610 C   0  0  0  0  0  0  0  0  0  0  0  0
   58.3950   32.0970   49.2740 O   0  0  0  0  0  0  0  0  0  0  0  0
   56.6296   24.5593   44.6269 H   0  0  0  0  0  0  0  0  0  0  0  0
   58.1359   25.3208   43.7429 H   0  0  0  0  0  0  0  0  0  0  0  0
   57.3228   25.5804   46.7081 H   0  0  0  0  0  0  0  0  0  0  0  0
   59.8311   26.1655   46.6706 H   0  0  0  0  0  0  0  0  0  0  0  0
   59.6459   26.5863   44.9029 H   0  0  0  0  0  0  0  0  0  0  0  0
   56.8238   28.5542   46.7879 H   0  0  0  0  0  0  0  0  0  0  0  0
   57.4027   29.3429   45.2814 H   0  0  0  0  0  0  0  0  0  0  0  0
   57.0012   27.5920   45.2814 H   0  0  0  0  0  0  0  0  0  0  0  0
   60.7562   28.4754   45.2359 H   0  0  0  0  0  0  0  0  0  0  0  0
   59.2758   29.2606   44.5033 H   0  0  0  0  0  0  0  0  0  0  0  0
   61.9118   29.7697   47.3247 H   0  0  0  0  0  0  0  0  0  0  0  0
   61.8340   32.2440   48.1260 H   0  0  0  0  0  0  0  0  0  0  0  0
   60.2490   34.4259   47.6251 H   0  0  0  0  0  0  0  0  0  0  0  0
   58.2365   35.1794   46.3082 H   0  0  0  0  0  0  0  0  0  0  0  0
   57.0496   33.5733   44.7950 H   0  0  0  0  0  0  0  0  0  0  0  0
   57.8563   31.1923   44.5923 H   0  0  0  0  0  0  0  0  0  0  0  0
   58.5660   30.4200   47.7050 H   0  0  0  0  0  0  0  0  0  0  0  0
   57.6316   29.1781   50.0662 H   0  0  0  0  0  0  0  0  0  0  0  0
   59.8632   28.1567   50.2523 H   0  0  0  0  0  0  0  0  0  0  0  0
   60.5460   29.8870   50.3494 H   0  0  0  0  0  0  0  0  0  0  0  0
   59.9698   28.2025   52.4737 H   0  0  0  0  0  0  0  0  0  0  0  0
   60.2527   30.0453   52.4429 H   0  0  0  0  0  0  0  0  0  0  0  0
   58.4006   27.6414   53.9718 H   0  0  0  0  0  0  0  0  0  0  0  0
   56.1546   27.9317   54.9980 H   0  0  0  0  0  0  0  0  0  0  0  0
   54.7276   29.8771   54.3626 H   0  0  0  0  0  0  0  0  0  0  0  0
   55.5514   31.5349   52.6979 H   0  0  0  0  0  0  0  0  0  0  0  0
   57.6622   33.6413   51.3565 H   0  0  0  0  0  0  0  0  0  0  0  0
   57.8065   32.9978   53.0328 H   0  0  0  0  0  0  0  0  0  0  0  0
   59.9050   32.9010   54.1291 H   0  0  0  0  0  0  0  0  0  0  0  0
   62.3429   33.4238   54.1007 H   0  0  0  0  0  0  0  0  0  0  0  0
   63.5443   35.9721   53.0265 H   0  0  0  0  0  0  0  0  0  0  0  0
   65.9613   36.5755   53.0368 H   0  0  0  0  0  0  0  0  0  0  0  0
   67.6352   35.0483   51.9963 H   0  0  0  0  0  0  0  0  0  0  0  0
   66.8975   32.9224   50.9293 H   0  0  0  0  0  0  0  0  0  0  0  0
   64.3485   32.2857   46.3792 H   0  0  0  0  0  0  0  0  0  0  0  0
   63.3651   34.0095   45.0155 H   0  0  0  0  0  0  0  0  0  0  0  0
   62.7575   34.9133   46.5788 H   0  0  0  0  0  0  0  0  0  0  0  0
   62.1384   34.1714   49.8414 H   0  0  0  0  0  0  0  0  0  0  0  0
   59.6977   33.6681   49.8712 H   0  0  0  0  0  0  0  0  0  0  0  0
  1  2  2  0
  2  3  1  0
  4  3  1  1
  4  5  1  0
  4  6  1  0
  6  7  1  0
  7  8  2  0
  8  9  1  0
  9 10  1  0
 10 11  2  0
 11 12  1  0
 12 13  2  0
 13 14  1  0
 14 15  2  0
  4 16  1  0
 16 17  2  0
 16 18  1  0
 18 19  1  0
 19 20  1  0
 20 21  1  0
 21 22  1  0
 22 23  2  0
 23 24  1  0
 24 25  2  0
 25 26  1  0
 26 27  2  0
 27 28  1  0
 28 29  1  0
 29 30  1  0
 30 31  2  0
 31 32  1  0
 32 33  2  0
 33 34  1  0
 34 35  2  0
 35 36  1  0
 36 37  2  0
 37 38  1  0
 38 39  2  0
 39 40  1  0
 40 41  2  0
 40 42  2  0
 40 43  1  0
 43 44  1  0
 44 45  2  0
 44 46  1  0
 46 47  2  0
 33 48  1  0
 48 49  2  0
 28 50  1  0
 50 51  2  0
 15  7  1  0
 50 19  1  0
 15 10  1  0
 27 22  1  0
 49 30  1  0
 39 34  1  0
  1 52  1  0
  1 53  1  0
  2 54  1  0
  3 55  1  0
  3 56  1  0
  5 57  1  0
  5 58  1  0
  5 59  1  0
  6 60  1  0
  6 61  1  0
  8 62  1  0
  9 63  1  0
 11 64  1  0
 12 65  1  0
 13 66  1  0
 14 67  1  0
 18 68  1  0
 19 69  1  1
 20 70  1  0
 20 71  1  0
 21 72  1  0
 21 73  1  0
 23 74  1  0
 24 75  1  0
 25 76  1  0
 26 77  1  0
 29 78  1  0
 29 79  1  0
 31 80  1  0
 32 81  1  0
 35 82  1  0
 36 83  1  0
 37 84  1  0
 38 85  1  0
 46 86  1  0
 47 87  1  0
 47 88  1  0
 48 89  1  0
 49 90  1  0
M  CHG  1  43  -1
M  END
>  <UniqueID>  (14) 
11

>  <SMILES>  (14) 
C=CC[C@](C)(Cc1c[nH]c2ccccc12)C(=O)N[C@H]1CCc2ccccc2N(Cc2ccc(-c3ccccc3S(=O)(=O)[N-]C(=O)C=C)cc2)C1=O

>  <Energy>  (14) 
147.92591367650144

>  <Genealogy>  (14) 
C=CCC(C)(Cc1c[nH]c2ccccc12)C(=O)NC1CCc2ccccc2N(Cc2ccc(-c3ccccc3S(=O)(=O)[N-]C(=O)C=C)cc2)C1=O (protonated)
C=CC[C@](C)(Cc1c[nH]c2ccccc12)C(=O)N[C@H]1CCc2ccccc2N(Cc2ccc(-c3ccccc3S(=O)(=O)[N-]C(=O)C=C)cc2)C1=O (chirality)
C=CC[C@](C)(Cc1c[nH]c2ccccc12)C(=O)N[C@H]1CCc2ccccc2N(Cc2ccc(-c3ccccc3S(=O)(=O)[N-]C(=O)C=C)cc2)C1=O (3D coordinates assigned)
C=CC[C@](C)(Cc1c[nH]c2ccccc12)C(=O)N[C@H]1CCc2ccccc2N(Cc2ccc(-c3ccccc3S(=O)(=O)[N-]C(=O)C=C)cc2)C1=O (nonaromatic ring conformer: 147.92591367650144 kcal/mol)

>  <smiles>  (14) 
C=CCC(C)(Cc1c[nH]c2ccccc12)C(=O)NC1CCc2ccccc2N(Cc2ccc(-c3ccccc3S(=O)(=O)NC(=O)C=C)cc2)C1=O

>  <score_type>  (14) 
oracle

>  <origin>  (14) 
adg

>  <m_score__min__energy>  (14) 
-11.51

>  <m_primary>  (14) 
energy

$$$$
14:0
     RDKit          3D

 52 56  0  0  0  0  0  0  0  0999 V2000
   55.9430   22.1340   42.9290 O   0  0  0  0  0  0  0  0  0  0  0  0
   57.0170   22.2630   43.5700 C   0  0  0  0  0  0  0  0  0  0  0  0
   57.9990   21.3300   43.3910 O   0  0  0  0  0  0  0  0  0  0  0  0
   57.1540   23.4030   44.4670 C   0  0  0  0  0  0  0  0  0  0  0  0
   57.0390   23.1970   45.8240 C   0  0  0  0  0  0  0  0  0  0  0  0
   57.1720   24.2850   46.6700 C   0  0  0  0  0  0  0  0  0  0  0  0
   57.4150   25.5500   46.1640 C   0  0  0  0  0  0  0  0  0  0  0  0
   57.5330   25.7780   44.8140 C   0  0  0  0  0  0  0  0  0  0  0  0
   57.7910   27.1170   44.2500 C   0  0  0  0  0  0  0  0  0  0  0  0
   58.6320   27.1740   43.3370 O   0  0  0  0  0  0  0  0  0  0  0  0
   57.1510   28.2760   44.6910 N   0  0  0  0  0  0  0  0  0  0  0  0
   57.3260   29.5920   44.2240 C   0  0  0  0  0  0  0  0  0  0  0  0
   56.9390   30.0650   42.9950 C   0  0  0  0  0  0  0  0  0  0  0  0
   57.1480   31.3890   42.5980 C   0  0  0  0  0  0  0  0  0  0  0  0
   57.7610   32.2940   43.4360 C   0  0  0  0  0  0  0  0  0  0  0  0
   58.1540   31.8310   44.6740 C   0  0  0  0  0  0  0  0  0  0  0  0
   58.8060   32.7590   45.5880 C   0  0  0  0  0  0  0  0  0  0  0  0
   58.2920   34.0460   45.7060 C   0  0  0  0  0  0  0  0  0  0  0  0
   58.8940   34.9550   46.5710 C   0  0  0  0  0  0  0  0  0  0  0  0
   60.0070   34.5530   47.3080 C   0  0  0  0  0  0  0  0  0  0  0  0
   60.5150   33.2750   47.1900 C   0  0  0  0  0  0  0  0  0  0  0  0
   61.6820   32.9310   47.9960 C   0  0  0  0  0  0  0  0  0  0  0  0
   62.9070   33.4870   48.0010 N   0  0  0  0  0  0  0  0  0  0  0  0
   63.7060   32.8800   48.8940 C   0  0  0  0  0  0  0  0  0  0  0  0
   65.0070   33.0050   49.3260 C   0  0  0  0  0  0  0  0  0  0  0  0
   65.5520   32.1850   50.3070 C   0  0  0  0  0  0  0  0  0  0  0  0
   64.7680   31.1910   50.8890 C   0  0  0  0  0  0  0  0  0  0  0  0
   63.4620   31.0560   50.4650 C   0  0  0  0  0  0  0  0  0  0  0  0
   62.9280   31.8850   49.4780 C   0  0  0  0  0  0  0  0  0  0  0  0
   61.7060   31.9510   48.9050 N   0  0  0  0  0  0  0  0  0  0  0  0
   59.9200   32.3750   46.3330 C   0  0  0  0  0  0  0  0  0  0  0  0
   57.9470   30.5320   45.0570 C   0  0  0  0  0  0  0  0  0  0  0  0
   57.3960   24.6710   43.9880 C   0  0  0  0  0  0  0  0  0  0  0  0
   57.8970   20.3420   43.6410 H   0  0  0  0  0  0  0  0  0  0  0  0
   56.8460   22.1916   46.2263 H   0  0  0  0  0  0  0  0  0  0  0  0
   57.0835   24.1422   47.7571 H   0  0  0  0  0  0  0  0  0  0  0  0
   57.5164   26.3951   46.8608 H   0  0  0  0  0  0  0  0  0  0  0  0
   56.4430   28.1520   45.4760 H   0  0  0  0  0  0  0  0  0  0  0  0
   56.4450   29.3752   42.2949 H   0  0  0  0  0  0  0  0  0  0  0  0
   56.8175   31.7133   41.6002 H   0  0  0  0  0  0  0  0  0  0  0  0
   57.9293   33.3376   43.1318 H   0  0  0  0  0  0  0  0  0  0  0  0
   57.4121   34.3446   45.1173 H   0  0  0  0  0  0  0  0  0  0  0  0
   58.4973   35.9760   46.6717 H   0  0  0  0  0  0  0  0  0  0  0  0
   60.4879   35.2655   47.9944 H   0  0  0  0  0  0  0  0  0  0  0  0
   65.6402   33.7845   48.8772 H   0  0  0  0  0  0  0  0  0  0  0  0
   66.5971   32.3201   50.6224 H   0  0  0  0  0  0  0  0  0  0  0  0
   65.1797   30.5308   51.6666 H   0  0  0  0  0  0  0  0  0  0  0  0
   62.8280   30.2778   50.9149 H   0  0  0  0  0  0  0  0  0  0  0  0
   60.9430   31.2890   49.1910 H   0  0  0  0  0  0  0  0  0  0  0  0
   60.3230   31.3560   46.2369 H   0  0  0  0  0  0  0  0  0  0  0  0
   58.2809   30.2151   46.0560 H   0  0  0  0  0  0  0  0  0  0  0  0
   57.4848   24.8132   42.9009 H   0  0  0  0  0  0  0  0  0  0  0  0
  1  2  2  0
  2  3  1  0
  2  4  1  0
  4  5  2  0
  5  6  1  0
  6  7  2  0
  7  8  1  0
  8  9  1  0
  9 10  2  0
  9 11  1  0
 11 12  1  0
 12 13  2  0
 13 14  1  0
 14 15  2  0
 15 16  1  0
 16 17  1  0
 17 18  2  0
 18 19  1  0
 19 20  2  0
 20 21  1  0
 21 22  1  0
 22 23  2  0
 23 24  1  0
 24 25  2  0
 25 26  1  0
 26 27  2  0
 27 28  1  0
 28 29  2  0
 29 30  1  0
 21 31  2  0
 16 32  2  0
  8 33  2  0
 33  4  1  0
 32 12  1  0
 31 17  1  0
 30 22  1  0
 29 24  1  0
  3 34  1  0
  5 35  1  0
  6 36  1  0
  7 37  1  0
 11 38  1  0
 13 39  1  0
 14 40  1  0
 15 41  1  0
 18 42  1  0
 19 43  1  0
 20 44  1  0
 25 45  1  0
 26 46  1  0
 27 47  1  0
 28 48  1  0
 30 49  1  0
 31 50  1  0
 32 51  1  0
 33 52  1  0
M  END
>  <smiles>  (15) 
O=C(O)c1cccc(C(=O)Nc2cccc(-c3cccc(-c4nc5ccccc5[nH]4)c3)c2)c1

>  <score_type>  (15) 
oracle

>  <origin>  (15) 
adg

>  <m_score__min__energy>  (15) 
-10.800000000000001

>  <m_primary>  (15) 
energy

$$$$
15:0
     RDKit          3D

 38 40  0  0  0  0  0  0  0  0999 V2000
   55.2520   29.2340   44.8650 O   0  0  0  0  0  0  0  0  0  0  0  0
   56.4750   29.8610   44.2580 S   0  0  0  0  0  0  0  0  0  0  0  0
   56.4880   29.5770   42.7820 O   0  0  0  0  0  0  0  0  0  0  0  0
   56.4190   31.5750   44.5070 N   0  0  0  0  0  0  0  0  0  0  0  0
   57.3910   32.3310   45.2420 C   0  0  0  0  0  0  0  0  0  0  0  0
   57.7780   31.8710   46.5080 C   0  0  0  0  0  0  0  0  0  0  0  0
   58.7380   32.5650   47.2490 C   0  0  0  0  0  0  0  0  0  0  0  0
   59.3250   33.7230   46.7280 C   0  0  0  0  0  0  0  0  0  0  0  0
   60.5790   34.5970   47.6700 S   0  0  0  0  0  0  0  0  0  0  0  0
   61.9400   33.4680   47.2100 C   0  0  0  0  0  0  0  0  0  0  0  0
   62.9440   33.3600   48.3160 C   0  0  0  0  0  0  0  0  0  0  0  0
   62.7650   33.8090   49.6080 C   0  0  0  0  0  0  0  0  0  0  0  0
   63.9070   33.4540   50.2990 C   0  0  0  0  0  0  0  0  0  0  0  0
   64.7230   32.7950   49.4020 C   0  0  0  0  0  0  0  0  0  0  0  0
   64.1310   32.7390   48.1960 N   0  0  0  0  0  0  0  0  0  0  0  0
   58.9290   34.2000   45.4740 C   0  0  0  0  0  0  0  0  0  0  0  0
   57.9680   33.5080   44.7310 C   0  0  0  0  0  0  0  0  0  0  0  0
   57.9050   29.1900   45.0360 C   0  0  0  0  0  0  0  0  0  0  0  0
   57.7820   28.3120   46.1230 C   0  0  0  0  0  0  0  0  0  0  0  0
   58.9240   27.7730   46.7220 C   0  0  0  0  0  0  0  0  0  0  0  0
   60.1920   28.1070   46.2400 C   0  0  0  0  0  0  0  0  0  0  0  0
   60.3200   28.9850   45.1610 C   0  0  0  0  0  0  0  0  0  0  0  0
   59.1790   29.5280   44.5600 C   0  0  0  0  0  0  0  0  0  0  0  0
   57.3234   30.9583   46.9207 H   0  0  0  0  0  0  0  0  0  0  0  0
   59.0328   32.2001   48.2440 H   0  0  0  0  0  0  0  0  0  0  0  0
   61.5254   32.4706   47.0018 H   0  0  0  0  0  0  0  0  0  0  0  0
   62.4427   33.8699   46.3180 H   0  0  0  0  0  0  0  0  0  0  0  0
   61.8896   34.3421   50.0073 H   0  0  0  0  0  0  0  0  0  0  0  0
   64.1239   33.6570   51.3581 H   0  0  0  0  0  0  0  0  0  0  0  0
   65.7125   32.3769   49.6389 H   0  0  0  0  0  0  0  0  0  0  0  0
   64.5200   32.2880   47.3380 H   0  0  0  0  0  0  0  0  0  0  0  0
   59.3748   35.1216   45.0716 H   0  0  0  0  0  0  0  0  0  0  0  0
   57.6621   33.8849   43.7439 H   0  0  0  0  0  0  0  0  0  0  0  0
   56.7849   28.0472   46.5047 H   0  0  0  0  0  0  0  0  0  0  0  0
   58.8242   27.0847   47.5743 H   0  0  0  0  0  0  0  0  0  0  0  0
   61.0895   27.6787   46.7101 H   0  0  0  0  0  0  0  0  0  0  0  0
   61.3187   29.2497   44.7835 H   0  0  0  0  0  0  0  0  0  0  0  0
   59.2822   30.2214   43.7124 H   0  0  0  0  0  0  0  0  0  0  0  0
  1  2  2  0
  2  3  2  0
  2  4  1  0
  4  5  1  0
  5  6  2  0
  6  7  1  0
  7  8  2  0
  8  9  1  0
  9 10  1  0
 10 11  1  0
 11 12  2  0
 12 13  1  0
 13 14  2  0
 14 15  1  0
  8 16  1  0
 16 17  2  0
  2 18  1  0
 18 19  2  0
 19 20  1  0
 20 21  2  0
 21 22  1  0
 22 23  2  0
 17  5  1  0
 23 18  1  0
 15 11  1  0
  6 24  1  0
  7 25  1  0
 10 26  1  0
 10 27  1  0
 12 28  1  0
 13 29  1  0
 14 30  1  0
 15 31  1  0
 16 32  1  0
 17 33  1  0
 19 34  1  0
 20 35  1  0
 21 36  1  0
 22 37  1  0
 23 38  1  0
M  CHG  1   4  -1
M  END
>  <UniqueID>  (16) 
12

>  <SMILES>  (16) 
O=S(=O)([N-]c1ccc(SCc2ccc[nH]2)cc1)c1ccccc1

>  <Energy>  (16) 
62.317005283630984

>  <Genealogy>  (16) 
O=S(=O)([N-]c1ccc(SCc2ccc[nH]2)cc1)c1ccccc1 (protonated)
O=S(=O)([N-]c1ccc(SCc2ccc[nH]2)cc1)c1ccccc1 (3D coordinates assigned)
O=S(=O)([N-]c1ccc(SCc2ccc[nH]2)cc1)c1ccccc1 (optimized conformer: 62.317005283630984 kcal/mol)

>  <smiles>  (16) 
O=S(=O)(Nc1ccc(SCc2ccc[nH]2)cc1)c1ccccc1

>  <score_type>  (16) 
oracle

>  <origin>  (16) 
adg

>  <m_score__min__energy>  (16) 
-10.140000000000001

>  <m_primary>  (16) 
energy

$$$$
16:0
     RDKit          3D

 39 41  0  0  0  0  0  0  0  0999 V2000
   56.3110   23.3700   48.6200 O   0  0  0  0  0  0  0  0  0  0  0  0
   56.9830   23.6090   47.5830 C   0  0  0  0  0  0  0  0  0  0  0  0
   57.3040   24.9270   47.2420 C   0  0  0  0  0  0  0  0  0  0  0  0
   58.0520   25.1830   46.0790 C   0  0  0  0  0  0  0  0  0  0  0  0
   58.4020   26.5740   45.6960 C   0  0  0  0  0  0  0  0  0  0  0  0
   59.7240   27.0390   45.8230 C   0  0  0  0  0  0  0  0  0  0  0  0
   60.0500   28.3500   45.4680 C   0  0  0  0  0  0  0  0  0  0  0  0
   59.0650   29.2120   44.9810 C   0  0  0  0  0  0  0  0  0  0  0  0
   57.7470   28.7640   44.8420 C   0  0  0  0  0  0  0  0  0  0  0  0
   56.5060   29.8710   44.2580 S   0  0  0  0  0  0  0  0  0  0  0  0
   56.6360   30.0100   42.7670 O   0  0  0  0  0  0  0  0  0  0  0  0
   55.1370   29.3280   44.5670 O   0  0  0  0  0  0  0  0  0  0  0  0
   56.7070   31.4290   44.9980 N   0  0  0  0  0  0  0  0  0  0  0  0
   57.7640   32.1730   44.3100 C   0  0  0  0  0  0  0  0  0  0  0  0
   58.4520   33.0880   45.2830 C   0  0  0  0  0  0  0  0  0  0  0  0
   58.9210   34.3430   44.8600 C   0  0  0  0  0  0  0  0  0  0  0  0
   59.5300   35.2110   45.7720 C   0  0  0  0  0  0  0  0  0  0  0  0
   59.6630   34.8380   47.1130 C   0  0  0  0  0  0  0  0  0  0  0  0
   59.1840   33.5970   47.5460 C   0  0  0  0  0  0  0  0  0  0  0  0
   59.3400   33.1360   49.2310 Cl  0  0  0  0  0  0  0  0  0  0  0  0
   58.5740   32.7270   46.6350 C   0  0  0  0  0  0  0  0  0  0  0  0
   57.4170   27.4500   45.2030 C   0  0  0  0  0  0  0  0  0  0  0  0
   58.4600   24.0970   45.2860 C   0  0  0  0  0  0  0  0  0  0  0  0
   58.1190   22.7970   45.6650 C   0  0  0  0  0  0  0  0  0  0  0  0
   57.3950   22.5810   46.7940 N   0  0  0  0  0  0  0  0  0  0  0  0
   56.9729   25.7593   47.8805 H   0  0  0  0  0  0  0  0  0  0  0  0
   60.5058   26.3657   46.2043 H   0  0  0  0  0  0  0  0  0  0  0  0
   61.0860   28.7047   45.5724 H   0  0  0  0  0  0  0  0  0  0  0  0
   59.3259   30.2447   44.7063 H   0  0  0  0  0  0  0  0  0  0  0  0
   57.0180   31.2580   45.9830 H   0  0  0  0  0  0  0  0  0  0  0  0
   58.4960   31.4665   43.8916 H   0  0  0  0  0  0  0  0  0  0  0  0
   57.3218   32.7692   43.4982 H   0  0  0  0  0  0  0  0  0  0  0  0
   58.8088   34.6439   43.8079 H   0  0  0  0  0  0  0  0  0  0  0  0
   59.9048   36.1883   45.4339 H   0  0  0  0  0  0  0  0  0  0  0  0
   60.1447   35.5210   47.8281 H   0  0  0  0  0  0  0  0  0  0  0  0
   58.1884   31.7561   46.9793 H   0  0  0  0  0  0  0  0  0  0  0  0
   56.3790   27.1007   45.1000 H   0  0  0  0  0  0  0  0  0  0  0  0
   59.0453   24.2702   44.3709 H   0  0  0  0  0  0  0  0  0  0  0  0
   58.4378   21.9446   45.0471 H   0  0  0  0  0  0  0  0  0  0  0  0
  1  2  2  0
  2  3  1  0
  3  4  2  0
  4  5  1  0
  5  6  2  0
  6  7  1  0
  7  8  2  0
  8  9  1  0
  9 10  1  0
 10 11  2  0
 10 12  2  0
 10 13  1  0
 13 14  1  0
 14 15  1  0
 15 16  2  0
 16 17  1  0
 17 18  2  0
 18 19  1  0
 19 20  1  0
 19 21  2  0
  9 22  2  0
  4 23  1  0
 23 24  2  0
 24 25  1  0
 25  2  1  0
 22  5  1  0
 21 15  1  0
  3 26  1  0
  6 27  1  0
  7 28  1  0
  8 29  1  0
 13 30  1  0
 14 31  1  0
 14 32  1  0
 16 33  1  0
 17 34  1  0
 18 35  1  0
 21 36  1  0
 22 37  1  0
 23 38  1  0
 24 39  1  0
M  CHG  1  25  -1
M  END
>  <UniqueID>  (17) 
13

>  <SMILES>  (17) 
O=c1cc(-c2cccc(S(=O)(=O)NCc3cccc(Cl)c3)c2)cc[n-]1

>  <Energy>  (17) 
44.76801872686081

>  <Genealogy>  (17) 
O=c1cc(-c2cccc(S(=O)(=O)NCc3cccc(Cl)c3)c2)cc[n-]1 (protonated)
O=c1cc(-c2cccc(S(=O)(=O)NCc3cccc(Cl)c3)c2)cc[n-]1 (3D coordinates assigned)
O=c1cc(-c2cccc(S(=O)(=O)NCc3cccc(Cl)c3)c2)cc[n-]1 (optimized conformer: 44.76801872686081 kcal/mol)

>  <smiles>  (17) 
O=c1cc(-c2cccc(S(=O)(=O)NCc3cccc(Cl)c3)c2)cc[nH]1

>  <score_type>  (17) 
oracle

>  <origin>  (17) 
adg

>  <m_score__min__energy>  (17) 
-11.73

>  <m_primary>  (17) 
energy

$$$$
17:0
     RDKit          3D

 50 53  0  0  0  0  0  0  0  0999 V2000
   55.1480   29.3330   44.8720 N   0  0  0  0  0  0  0  0  0  0  0  0
   56.5090   29.1770   45.2670 C   0  0  0  0  0  0  0  0  0  0  0  0
   57.3070   30.1420   45.1310 O   0  0  0  0  0  0  0  0  0  0  0  0
   56.9720   27.8790   45.7890 C   0  0  0  0  0  0  0  0  0  0  0  0
   56.1900   26.7710   45.6800 N   0  0  0  0  0  0  0  0  0  0  0  0
   56.8180   25.6610   46.1320 C   0  0  0  0  0  0  0  0  0  0  0  0
   56.3070   24.4660   46.1020 N   0  0  0  0  0  0  0  0  0  0  0  0
   56.5320   23.4620   45.0980 C   0  0  0  0  0  0  0  0  0  0  0  0
   57.2040   22.2880   45.4630 C   0  0  0  0  0  0  0  0  0  0  0  0
   57.4200   21.2740   44.5250 C   0  0  0  0  0  0  0  0  0  0  0  0
   56.9470   21.4170   43.2180 C   0  0  0  0  0  0  0  0  0  0  0  0
   56.2490   22.5700   42.8510 C   0  0  0  0  0  0  0  0  0  0  0  0
   56.0320   23.5870   43.7860 C   0  0  0  0  0  0  0  0  0  0  0  0
   58.3790   25.9830   46.6630 S   0  0  0  0  0  0  0  0  0  0  0  0
   58.2360   27.6270   46.3410 C   0  0  0  0  0  0  0  0  0  0  0  0
   59.2660   28.5830   46.6180 N   0  0  0  0  0  0  0  0  0  0  0  0
   59.2520   29.4070   47.7940 C   0  0  0  0  0  0  0  0  0  0  0  0
   58.4330   29.1570   48.7210 O   0  0  0  0  0  0  0  0  0  0  0  0
   60.2020   30.5360   47.9450 C   0  0  0  0  0  0  0  0  0  0  0  0
   61.4820   30.4880   47.3640 C   0  0  0  0  0  0  0  0  0  0  0  0
   62.3660   31.5630   47.5020 C   0  0  0  0  0  0  0  0  0  0  0  0
   61.9800   32.7140   48.2010 C   0  0  0  0  0  0  0  0  0  0  0  0
   62.9460   33.8250   48.3500 C   0  0  0  0  0  0  0  0  0  0  0  0
   64.2010   33.7060   48.8130 C   0  0  0  0  0  0  0  0  0  0  0  0
   64.6470   32.7350   49.8360 C   0  0  0  0  0  0  0  0  0  0  0  0
   66.0030   32.3860   49.9810 C   0  0  0  0  0  0  0  0  0  0  0  0
   66.3910   31.4460   50.9390 C   0  0  0  0  0  0  0  0  0  0  0  0
   65.4300   30.8300   51.7450 C   0  0  0  0  0  0  0  0  0  0  0  0
   64.0780   31.1470   51.5870 C   0  0  0  0  0  0  0  0  0  0  0  0
   63.6860   32.0890   50.6310 C   0  0  0  0  0  0  0  0  0  0  0  0
   60.7120   32.7580   48.8030 C   0  0  0  0  0  0  0  0  0  0  0  0
   59.8270   31.6840   48.6650 C   0  0  0  0  0  0  0  0  0  0  0  0
   54.3810   29.3450   45.5800 H   0  0  0  0  0  0  0  0  0  0  0  0
   57.5642   22.1632   46.4948 H   0  0  0  0  0  0  0  0  0  0  0  0
   57.9629   20.3627   44.8162 H   0  0  0  0  0  0  0  0  0  0  0  0
   57.1242   20.6221   42.4785 H   0  0  0  0  0  0  0  0  0  0  0  0
   55.8692   22.6782   41.8243 H   0  0  0  0  0  0  0  0  0  0  0  0
   55.4696   24.4870   43.4968 H   0  0  0  0  0  0  0  0  0  0  0  0
   60.1620   28.4840   46.0900 H   0  0  0  0  0  0  0  0  0  0  0  0
   61.7903   29.5976   46.7964 H   0  0  0  0  0  0  0  0  0  0  0  0
   63.3710   31.5043   47.0587 H   0  0  0  0  0  0  0  0  0  0  0  0
   62.6086   34.8304   48.0577 H   0  0  0  0  0  0  0  0  0  0  0  0
   64.9592   34.3861   48.3976 H   0  0  0  0  0  0  0  0  0  0  0  0
   66.7609   32.8557   49.3368 H   0  0  0  0  0  0  0  0  0  0  0  0
   67.4542   31.1905   51.0589 H   0  0  0  0  0  0  0  0  0  0  0  0
   65.7376   30.0955   52.5039 H   0  0  0  0  0  0  0  0  0  0  0  0
   63.3213   30.6548   52.2156 H   0  0  0  0  0  0  0  0  0  0  0  0
   62.6196   32.3254   50.5008 H   0  0  0  0  0  0  0  0  0  0  0  0
   60.4134   33.6417   49.3860 H   0  0  0  0  0  0  0  0  0  0  0  0
   58.8287   31.7378   49.1238 H   0  0  0  0  0  0  0  0  0  0  0  0
  1  2  1  0
  2  3  2  0
  2  4  1  0
  4  5  1  0
  5  6  1  0
  6  7  2  3
  7  8  1  0
  8  9  2  0
  9 10  1  0
 10 11  2  0
 11 12  1  0
 12 13  2  0
  6 14  1  0
 14 15  1  0
 15 16  1  0
 16 17  1  0
 17 18  2  0
 17 19  1  0
 19 20  2  0
 20 21  1  0
 21 22  2  0
 22 23  1  0
 23 24  2  3
 24 25  1  0
 25 26  2  0
 26 27  1  0
 27 28  2  0
 28 29  1  0
 29 30  2  0
 22 31  1  0
 31 32  2  0
 15  4  2  0
 32 19  1  0
 13  8  1  0
 30 25  1  0
  1 33  1  0
  9 34  1  0
 10 35  1  0
 11 36  1  0
 12 37  1  0
 13 38  1  0
 16 39  1  0
 20 40  1  0
 21 41  1  0
 23 42  1  0
 24 43  1  0
 26 44  1  0
 27 45  1  0
 28 46  1  0
 29 47  1  0
 30 48  1  0
 31 49  1  0
 32 50  1  0
M  CHG  2   1  -1   5  -1
M  END
>  <UniqueID>  (18) 
14

>  <SMILES>  (18) 
[NH-]C(=O)c1[n-]c(=Nc2ccccc2)sc1NC(=O)c1ccc(C=Cc2ccccc2)cc1

>  <Energy>  (18) 
107.67219760536037

>  <Genealogy>  (18) 
[NH-]C(=O)c1[n-]c(=Nc2ccccc2)sc1NC(=O)c1ccc(C=Cc2ccccc2)cc1 (protonated)
[NH-]C(=O)c1[n-]c(=Nc2ccccc2)sc1NC(=O)c1ccc(C=Cc2ccccc2)cc1 (3D coordinates assigned)
[NH-]C(=O)c1[n-]c(=Nc2ccccc2)sc1NC(=O)c1ccc(C=Cc2ccccc2)cc1 (optimized conformer: 107.67219760536037 kcal/mol)

>  <smiles>  (18) 
NC(=O)c1[nH]c(=Nc2ccccc2)sc1NC(=O)c1ccc(C=Cc2ccccc2)cc1

>  <score_type>  (18) 
oracle

>  <origin>  (18) 
adg

>  <m_score__min__energy>  (18) 
-13.26

>  <m_primary>  (18) 
energy

$$$$
18:0
     RDKit          3D

 57 59  0  0  0  0  0  0  0  0999 V2000
   63.3840   31.6850   47.1260 C   0  0  0  0  0  0  0  0  0  0  0  0
   63.4270   32.8030   48.5130 S   0  0  2  0  0  0  0  0  0  0  0  0
   63.6280   34.2120   48.0270 O   0  0  0  0  0  0  0  0  0  0  0  0
   64.7530   32.3290   49.6270 C   0  0  0  0  0  0  0  0  0  0  0  0
   65.2620   33.4870   50.4970 C   0  0  0  0  0  0  0  0  0  0  0  0
   64.1890   34.0340   51.4450 C   0  0  0  0  0  0  0  0  0  0  0  0
   63.4150   35.0020   50.7910 O   0  0  0  0  0  0  0  0  0  0  0  0
   62.0650   32.7060   49.2960 N   0  0  0  0  0  0  0  0  0  0  0  0
   60.9730   33.6150   49.1020 C   0  0  0  0  0  0  0  0  0  0  0  0
   60.8010   34.5770   49.9000 O   0  0  0  0  0  0  0  0  0  0  0  0
   60.0460   33.4250   47.9630 C   0  0  0  0  0  0  0  0  0  0  0  0
   59.5180   34.5270   47.2730 C   0  0  0  0  0  0  0  0  0  0  0  0
   58.6830   34.3410   46.2180 N   0  0  0  0  0  0  0  0  0  0  0  0
   58.3240   33.1040   45.7810 C   0  0  0  0  0  0  0  0  0  0  0  0
   57.5230   33.0100   44.7640 N   0  0  0  0  0  0  0  0  0  0  0  0
   58.8300   31.9630   46.4420 C   0  0  0  0  0  0  0  0  0  0  0  0
   58.5020   30.6220   46.0220 C   0  0  0  0  0  0  0  0  0  0  0  0
   58.2390   29.5000   45.6690 C   0  0  0  0  0  0  0  0  0  0  0  0
   57.9330   28.1620   45.2400 C   0  0  0  0  0  0  0  0  0  0  0  0
   58.4560   27.6740   44.0370 C   0  0  0  0  0  0  0  0  0  0  0  0
   58.1440   26.3790   43.6150 C   0  0  0  0  0  0  0  0  0  0  0  0
   57.2970   25.5740   44.3840 C   0  0  0  0  0  0  0  0  0  0  0  0
   56.7450   26.0680   45.5800 C   0  0  0  0  0  0  0  0  0  0  0  0
   55.8830   25.2670   46.3950 N   0  0  0  0  0  0  0  0  0  0  0  0
   54.7820   24.4860   45.9230 C   0  0  0  0  0  0  0  0  0  0  0  0
   53.6340   24.9990   45.8290 O   0  0  0  0  0  0  0  0  0  0  0  0
   55.0010   23.1040   45.6010 N   0  0  0  0  0  0  0  0  0  0  0  0
   56.0280   22.5980   44.9740 C   0  0  0  0  0  0  0  0  0  0  0  0
   55.9210   22.1670   43.6830 N   0  0  0  0  0  0  0  0  0  0  0  0
   56.9680   21.6160   43.0130 C   0  0  0  0  0  0  0  0  0  0  0  0
   58.2030   21.4790   43.6430 C   0  0  0  0  0  0  0  0  0  0  0  0
   58.3510   21.9140   44.9600 C   0  0  0  0  0  0  0  0  0  0  0  0
   57.2620   22.4740   45.6410 C   0  0  0  0  0  0  0  0  0  0  0  0
   57.4340   22.8970   46.9590 O   0  0  0  0  0  0  0  0  0  0  0  0
   57.0880   27.3550   46.0130 C   0  0  0  0  0  0  0  0  0  0  0  0
   59.6880   32.1370   47.5350 C   0  0  0  0  0  0  0  0  0  0  0  0
   63.3441   30.6484   47.4917 H   0  0  0  0  0  0  0  0  0  0  0  0
   62.4932   31.8928   46.5150 H   0  0  0  0  0  0  0  0  0  0  0  0
   64.2881   31.8237   46.5150 H   0  0  0  0  0  0  0  0  0  0  0  0
   64.3840   31.5317   50.2889 H   0  0  0  0  0  0  0  0  0  0  0  0
   65.5964   31.9956   49.0045 H   0  0  0  0  0  0  0  0  0  0  0  0
   66.1115   33.1287   51.0970 H   0  0  0  0  0  0  0  0  0  0  0  0
   65.5552   34.3044   49.8218 H   0  0  0  0  0  0  0  0  0  0  0  0
   63.5390   33.2094   51.7729 H   0  0  0  0  0  0  0  0  0  0  0  0
   64.6793   34.4939   52.3157 H   0  0  0  0  0  0  0  0  0  0  0  0
   62.9490   34.5380   50.0480 H   0  0  0  0  0  0  0  0  0  0  0  0
   59.7819   35.5473   47.5883 H   0  0  0  0  0  0  0  0  0  0  0  0
   56.6680   33.5980   44.6390 H   0  0  0  0  0  0  0  0  0  0  0  0
   59.1122   28.3095   43.4242 H   0  0  0  0  0  0  0  0  0  0  0  0
   58.5655   25.9916   42.6757 H   0  0  0  0  0  0  0  0  0  0  0  0
   57.0619   24.5518   44.0526 H   0  0  0  0  0  0  0  0  0  0  0  0
   56.8400   21.2785   41.9739 H   0  0  0  0  0  0  0  0  0  0  0  0
   59.0532   21.0321   43.1070 H   0  0  0  0  0  0  0  0  0  0  0  0
   59.3237   21.8173   45.4645 H   0  0  0  0  0  0  0  0  0  0  0  0
   56.8060   23.5560   47.4020 H   0  0  0  0  0  0  0  0  0  0  0  0
   56.6914   27.7347   46.9662 H   0  0  0  0  0  0  0  0  0  0  0  0
   60.0847   31.2570   48.0625 H   0  0  0  0  0  0  0  0  0  0  0  0
  2  1  1  6
  2  3  2  0
  2  4  1  0
  4  5  1  0
  5  6  1  0
  6  7  1  0
  2  8  2  0
  8  9  1  0
  9 10  2  0
  9 11  1  0
 11 12  2  0
 12 13  1  0
 13 14  1  0
 14 15  2  3
 14 16  1  0
 16 17  1  0
 17 18  3  0
 18 19  1  0
 19 20  2  0
 20 21  1  0
 21 22  2  0
 22 23  1  0
 23 24  1  0
 24 25  1  0
 25 26  2  0
 25 27  1  0
 27 28  2  3
 28 29  1  0
 29 30  1  0
 30 31  2  0
 31 32  1  0
 32 33  2  0
 33 34  1  0
 23 35  2  0
 16 36  2  0
 36 11  1  0
 35 19  1  0
 33 28  1  0
  1 37  1  0
  1 38  1  0
  1 39  1  0
  4 40  1  0
  4 41  1  0
  5 42  1  0
  5 43  1  0
  6 44  1  0
  6 45  1  0
  7 46  1  0
 12 47  1  0
 15 48  1  0
 20 49  1  0
 21 50  1  0
 22 51  1  0
 30 52  1  0
 31 53  1  0
 32 54  1  0
 34 55  1  0
 35 56  1  0
 36 57  1  0
M  CHG  3  13  -1  24  -1  29  -1
M  END
>  <UniqueID>  (19) 
15

>  <SMILES>  (19) 
C[S@](=O)(CCCO)=NC(=O)c1c[n-]c(=N)c(C#Cc2cccc([N-]C(=O)N=c3[n-]cccc3O)c2)c1

>  <Energy>  (19) 
55.52288638973016

>  <Genealogy>  (19) 
CS(=O)(CCCO)=NC(=O)c1c[n-]c(=N)c(C#Cc2cccc([N-]C(=O)N=c3[n-]cccc3O)c2)c1 (protonated)
C[S@](=O)(CCCO)=NC(=O)c1c[n-]c(=N)c(C#Cc2cccc([N-]C(=O)N=c3[n-]cccc3O)c2)c1 (chirality)
C[S@](=O)(CCCO)=NC(=O)c1c[n-]c(=N)c(C#Cc2cccc([N-]C(=O)N=c3[n-]cccc3O)c2)c1 (3D coordinates assigned)
C[S@](=O)(CCCO)=NC(=O)c1c[n-]c(=N)c(C#Cc2cccc([N-]C(=O)N=c3[n-]cccc3O)c2)c1 (optimized conformer: 55.52288638973016 kcal/mol)

>  <smiles>  (19) 
CS(=O)(CCCO)=NC(=O)c1c[nH]c(=N)c(C#Cc2cccc(NC(=O)N=c3[nH]cccc3O)c2)c1

>  <score_type>  (19) 
oracle

>  <origin>  (19) 
adg

>  <m_score__min__energy>  (19) 
-11.390000000000001

>  <m_primary>  (19) 
energy

$$$$
19:0
     RDKit          3D

 45 47  0  0  0  0  0  0  0  0999 V2000
   61.0741   31.5088   47.6566 H   0  0  0  0  0  0  0  0  0  0  0  0
   60.3250   32.0640   47.0730 C   0  0  0  0  0  0  0  0  0  0  0  0
   59.4120   31.3700   46.2730 C   0  0  0  0  0  0  0  0  0  0  0  0
   59.4474   30.2713   46.2338 H   0  0  0  0  0  0  0  0  0  0  0  0
   58.4490   32.0630   45.5180 C   0  0  0  0  0  0  0  0  0  0  0  0
   57.4810   31.3260   44.6730 C   0  0  0  0  0  0  0  0  0  0  0  0
   56.2530   31.6090   44.7330 O   0  0  0  0  0  0  0  0  0  0  0  0
   57.9310   30.2580   43.8270 N   0  0  0  0  0  0  0  0  0  0  0  0
   57.9390   28.8580   44.1440 C   0  0  0  0  0  0  0  0  0  0  0  0
   57.7710   27.8690   43.1580 C   0  0  0  0  0  0  0  0  0  0  0  0
   57.6091   28.1618   42.1101 H   0  0  0  0  0  0  0  0  0  0  0  0
   57.8090   26.5150   43.5050 C   0  0  0  0  0  0  0  0  0  0  0  0
   57.6666   25.7464   42.7310 H   0  0  0  0  0  0  0  0  0  0  0  0
   58.0280   26.1340   44.8360 C   0  0  0  0  0  0  0  0  0  0  0  0
   58.0990   24.4330   45.2870 S   0  0  0  0  0  0  0  0  0  0  0  0
   58.1610   23.5990   44.0390 O   0  0  0  0  0  0  0  0  0  0  0  0
   59.3180   24.1510   46.1200 O   0  0  0  0  0  0  0  0  0  0  0  0
   56.6800   24.0090   46.1890 N   0  0  0  0  0  0  0  0  0  0  0  0
   55.5000   24.4690   45.9080 C   0  0  0  0  0  0  0  0  0  0  0  0
   55.1430   25.7650   46.0010 N   0  0  0  0  0  0  0  0  0  0  0  0
   53.8950   25.8230   45.6360 O   0  0  0  0  0  0  0  0  0  0  0  0
   53.4390   24.6320   45.3170 C   0  0  0  0  0  0  0  0  0  0  0  0
   52.0470   24.3520   44.8630 C   0  0  0  0  0  0  0  0  0  0  0  0
   51.3950   24.2208   45.7392 H   0  0  0  0  0  0  0  0  0  0  0  0
   51.6823   25.1948   44.2574 H   0  0  0  0  0  0  0  0  0  0  0  0
   52.0365   23.4338   44.2574 H   0  0  0  0  0  0  0  0  0  0  0  0
   54.4440   23.7010   45.4760 C   0  0  0  0  0  0  0  0  0  0  0  0
   54.4096   22.6155   45.3010 H   0  0  0  0  0  0  0  0  0  0  0  0
   58.2210   27.1170   45.8130 C   0  0  0  0  0  0  0  0  0  0  0  0
   58.4024   26.8236   46.8575 H   0  0  0  0  0  0  0  0  0  0  0  0
   58.1840   28.4710   45.4660 C   0  0  0  0  0  0  0  0  0  0  0  0
   58.3487   29.2373   46.2378 H   0  0  0  0  0  0  0  0  0  0  0  0
   58.4210   33.4680   45.5830 C   0  0  0  0  0  0  0  0  0  0  0  0
   57.6743   34.0264   44.9993 H   0  0  0  0  0  0  0  0  0  0  0  0
   59.3340   34.1600   46.3830 C   0  0  0  0  0  0  0  0  0  0  0  0
   59.3010   35.2588   46.4220 H   0  0  0  0  0  0  0  0  0  0  0  0
   60.2900   33.4680   47.1350 C   0  0  0  0  0  0  0  0  0  0  0  0
   61.2030   34.2230   47.9420 N   0  0  0  0  0  0  0  0  0  0  0  0
   62.8450   33.7890   48.2950 S   0  0  0  0  0  0  0  0  0  0  0  0
   63.7550   34.5730   47.3920 O   0  0  0  0  0  0  0  0  0  0  0  0
   63.0560   32.3240   48.0400 O   0  0  0  0  0  0  0  0  0  0  0  0
   63.2350   34.1900   49.9840 C   0  0  0  0  0  0  0  0  0  0  0  0
   62.6290   33.5669   50.6581 H   0  0  0  0  0  0  0  0  0  0  0  0
   64.3024   33.9993   50.1691 H   0  0  0  0  0  0  0  0  0  0  0  0
   63.0147   35.2517   50.1691 H   0  0  0  0  0  0  0  0  0  0  0  0
  1  2  1  0
  2  3  2  0
  3  4  1  0
  3  5  1  0
  5  6  1  0
  6  7  2  0
  6  8  1  0
  8  9  1  0
  9 10  2  0
 10 11  1  0
 10 12  1  0
 12 13  1  0
 12 14  2  0
 14 15  1  0
 15 16  2  0
 15 17  2  0
 15 18  1  0
 18 19  2  0
 19 20  1  0
 20 21  1  0
 21 22  1  0
 22 23  1  0
 23 24  1  0
 23 25  1  0
 23 26  1  0
 22 27  2  0
 27 28  1  0
 14 29  1  0
 29 30  1  0
 29 31  2  0
 31 32  1  0
  5 33  2  0
 33 34  1  0
 33 35  1  0
 35 36  1  0
 35 37  2  0
 37 38  1  0
 38 39  1  0
 39 40  2  0
 39 41  2  0
 39 42  1  0
 42 43  1  0
 42 44  1  0
 42 45  1  0
 37  2  1  0
 31  9  1  0
 27 19  1  0
M  CHG  3   8  -1  20  -1  38  -1
M  END
>  <UniqueID>  (20) 
16

>  <SMILES>  (20) 
Cc1c/c(=N/S(=O)(=O)c2ccc([N-]C(=O)c3ccc([N-]S(C)(=O)=O)cc3)cc2)[n-]o1

>  <Energy>  (20) 
83.30797407135364

>  <Genealogy>  (20) 
Cc1cc(=NS(=O)(=O)c2ccc([N-]C(=O)c3ccc([N-]S(C)(=O)=O)cc3)cc2)[n-]o1 (protonated)
Cc1c/c(=N/S(=O)(=O)c2ccc([N-]C(=O)c3ccc([N-]S(C)(=O)=O)cc3)cc2)[n-]o1 (cis-trans isomerization)
Cc1c/c(=N/S(=O)(=O)c2ccc([N-]C(=O)c3ccc([N-]S(C)(=O)=O)cc3)cc2)[n-]o1 (3D coordinates assigned)
Cc1c/c(=N/S(=O)(=O)c2ccc([N-]C(=O)c3ccc([N-]S(C)(=O)=O)cc3)cc2)[n-]o1 (optimized conformer: 83.30797407135364 kcal/mol)

>  <smiles>  (20) 
Cc1cc(=NS(=O)(=O)c2ccc(NC(=O)c3ccc(NS(C)(=O)=O)cc3)cc2)[nH]o1

>  <score_type>  (20) 
oracle

>  <origin>  (20) 
adg

>  <m_score__min__energy>  (20) 
-13.17

>  <m_primary>  (20) 
energy

$$$$
20:0
     RDKit          3D

 36 38  0  0  0  0  0  0  0  0999 V2000
   56.0100   21.2640   43.3640 O   0  0  0  0  0  0  0  0  0  0  0  0
   56.5030   22.2270   44.0050 C   0  0  0  0  0  0  0  0  0  0  0  0
   56.8470   23.3690   43.3560 N   0  0  0  0  0  0  0  0  0  0  0  0
   57.3810   24.4210   44.0280 C   0  0  0  0  0  0  0  0  0  0  0  0
   57.5840   24.3450   45.4130 C   0  0  0  0  0  0  0  0  0  0  0  0
   58.2180   25.4970   46.1520 C   0  0  0  0  0  0  0  0  0  0  0  0
   57.6560   26.8100   45.6620 C   0  0  0  0  0  0  0  0  0  0  0  0
   58.5280   27.8380   45.2780 C   0  0  0  0  0  0  0  0  0  0  0  0
   58.0360   29.0890   44.8770 C   0  0  0  0  0  0  0  0  0  0  0  0
   59.0180   30.1840   44.5290 C   0  0  0  0  0  0  0  0  0  0  0  0
   58.5850   31.5040   45.1160 C   0  0  0  0  0  0  0  0  0  0  0  0
   58.1870   32.5630   44.2810 C   0  0  0  0  0  0  0  0  0  0  0  0
   57.7860   33.7840   44.8320 C   0  0  0  0  0  0  0  0  0  0  0  0
   57.7850   33.9610   46.2180 C   0  0  0  0  0  0  0  0  0  0  0  0
   58.1900   32.9190   47.0550 C   0  0  0  0  0  0  0  0  0  0  0  0
   58.5920   31.6960   46.5090 C   0  0  0  0  0  0  0  0  0  0  0  0
   56.6380   29.2910   44.8750 C   0  0  0  0  0  0  0  0  0  0  0  0
   56.0590   30.5060   44.5040 O   0  0  0  0  0  0  0  0  0  0  0  0
   55.8120   28.2780   45.2470 N   0  0  0  0  0  0  0  0  0  0  0  0
   56.2740   27.0620   45.6370 C   0  0  0  0  0  0  0  0  0  0  0  0
   55.4490   26.1710   45.9730 O   0  0  0  0  0  0  0  0  0  0  0  0
   57.2260   23.1490   46.0610 C   0  0  0  0  0  0  0  0  0  0  0  0
   57.3900   23.0130   47.3020 O   0  0  0  0  0  0  0  0  0  0  0  0
   56.6940   22.1240   45.3450 N   0  0  0  0  0  0  0  0  0  0  0  0
   57.6554   25.3365   43.4835 H   0  0  0  0  0  0  0  0  0  0  0  0
   58.0132   25.3941   47.2279 H   0  0  0  0  0  0  0  0  0  0  0  0
   59.3029   25.4834   45.9706 H   0  0  0  0  0  0  0  0  0  0  0  0
   59.6136   27.6613   45.2913 H   0  0  0  0  0  0  0  0  0  0  0  0
   60.0081   29.9198   44.9289 H   0  0  0  0  0  0  0  0  0  0  0  0
   59.0589   30.2835   43.4343 H   0  0  0  0  0  0  0  0  0  0  0  0
   58.1911   32.4303   43.1890 H   0  0  0  0  0  0  0  0  0  0  0  0
   57.4708   34.6066   44.1732 H   0  0  0  0  0  0  0  0  0  0  0  0
   57.4653   34.9209   46.6498 H   0  0  0  0  0  0  0  0  0  0  0  0
   58.1928   33.0606   48.1458 H   0  0  0  0  0  0  0  0  0  0  0  0
   58.9152   30.8802   47.1724 H   0  0  0  0  0  0  0  0  0  0  0  0
   56.2940   31.0000   43.6550 H   0  0  0  0  0  0  0  0  0  0  0  0
  1  2  2  0
  2  3  1  0
  3  4  1  0
  4  5  2  0
  5  6  1  0
  6  7  1  0
  7  8  2  0
  8  9  1  0
  9 10  1  0
 10 11  1  0
 11 12  2  0
 12 13  1  0
 13 14  2  0
 14 15  1  0
 15 16  2  0
  9 17  2  0
 17 18  1  0
 17 19  1  0
 19 20  1  0
 20 21  2  0
  5 22  1  0
 22 23  2  0
 22 24  1  0
 24  2  1  0
 20  7  1  0
 16 11  1  0
  4 25  1  0
  6 26  1  0
  6 27  1  0
  8 28  1  0
 10 29  1  0
 10 30  1  0
 12 31  1  0
 13 32  1  0
 14 33  1  0
 15 34  1  0
 16 35  1  0
 18 36  1  0
M  CHG  3   3  -1  19  -1  24  -1
M  END
>  <UniqueID>  (21) 
17

>  <SMILES>  (21) 
O=c1[n-]cc(Cc2cc(Cc3ccccc3)c(O)[n-]c2=O)c(=O)[n-]1

>  <Energy>  (21) 
42.06570232106831

>  <Genealogy>  (21) 
O=c1[n-]cc(Cc2cc(Cc3ccccc3)c(O)[n-]c2=O)c(=O)[n-]1 (protonated)
O=c1[n-]cc(Cc2cc(Cc3ccccc3)c(O)[n-]c2=O)c(=O)[n-]1 (3D coordinates assigned)
O=c1[n-]cc(Cc2cc(Cc3ccccc3)c(O)[n-]c2=O)c(=O)[n-]1 (optimized conformer: 42.06570232106831 kcal/mol)

>  <smiles>  (21) 
O=c1[nH]cc(Cc2cc(Cc3ccccc3)c(O)[nH]c2=O)c(=O)[nH]1

>  <score_type>  (21) 
oracle

>  <origin>  (21) 
adg

>  <m_score__min__energy>  (21) 
-13.4

>  <m_primary>  (21) 
energy

$$$$
21:0
     RDKit          3D

 39 40  0  0  0  0  0  0  0  0999 V2000
   57.7140   31.4890   43.1470 C   0  0  0  0  0  0  0  0  0  0  0  0
   57.0440   31.7530   44.4990 C   0  0  1  0  0  0  0  0  0  0  0  0
   57.0270   30.5290   45.3020 N   0  0  0  0  0  0  0  0  0  0  0  0
   56.3620   29.3000   44.9760 C   0  0  0  0  0  0  0  0  0  0  0  0
   55.1450   29.3420   44.6570 O   0  0  0  0  0  0  0  0  0  0  0  0
   57.0630   27.9690   44.9640 C   0  0  0  0  0  0  0  0  0  0  0  0
   57.8380   27.7900   46.1970 N   0  0  0  0  0  0  0  0  0  0  0  0
   59.5260   28.1210   45.9260 S   0  0  0  0  0  0  0  0  0  0  0  0
   59.7570   28.3890   44.4630 O   0  0  0  0  0  0  0  0  0  0  0  0
   60.3680   26.9510   46.3510 O   0  0  0  0  0  0  0  0  0  0  0  0
   59.9910   29.5290   46.8780 C   0  0  0  0  0  0  0  0  0  0  0  0
   60.9380   30.4410   46.3870 C   0  0  0  0  0  0  0  0  0  0  0  0
   61.3040   31.5540   47.1510 C   0  0  0  0  0  0  0  0  0  0  0  0
   60.7310   31.7590   48.4090 C   0  0  0  0  0  0  0  0  0  0  0  0
   59.7890   30.8530   48.9040 C   0  0  0  0  0  0  0  0  0  0  0  0
   59.4190   29.7390   48.1440 C   0  0  0  0  0  0  0  0  0  0  0  0
   58.5030   28.8680   48.6410 F   0  0  0  0  0  0  0  0  0  0  0  0
   57.7890   32.8400   45.2410 C   0  0  0  0  0  0  0  0  0  0  0  0
   58.5500   33.7840   44.5290 C   0  0  0  0  0  0  0  0  0  0  0  0
   59.2650   34.7750   45.2080 C   0  0  0  0  0  0  0  0  0  0  0  0
   59.2350   34.8270   46.6050 C   0  0  0  0  0  0  0  0  0  0  0  0
   58.4930   33.8860   47.3230 C   0  0  0  0  0  0  0  0  0  0  0  0
   57.7790   32.8920   46.6480 C   0  0  0  0  0  0  0  0  0  0  0  0
   58.7260   31.0902   43.3109 H   0  0  0  0  0  0  0  0  0  0  0  0
   57.1193   30.7580   42.5796 H   0  0  0  0  0  0  0  0  0  0  0  0
   57.7778   32.4292   42.5796 H   0  0  0  0  0  0  0  0  0  0  0  0
   56.0085   32.0796   44.3225 H   0  0  0  0  0  0  0  0  0  0  0  0
   56.3154   27.1659   44.8856 H   0  0  0  0  0  0  0  0  0  0  0  0
   57.7470   27.9328   44.1033 H   0  0  0  0  0  0  0  0  0  0  0  0
   57.5040   28.4990   46.8900 H   0  0  0  0  0  0  0  0  0  0  0  0
   61.3936   30.2801   45.3988 H   0  0  0  0  0  0  0  0  0  0  0  0
   62.0437   32.2688   46.7612 H   0  0  0  0  0  0  0  0  0  0  0  0
   61.0214   32.6335   49.0097 H   0  0  0  0  0  0  0  0  0  0  0  0
   59.3376   31.0166   49.8937 H   0  0  0  0  0  0  0  0  0  0  0  0
   58.5829   33.7424   43.4303 H   0  0  0  0  0  0  0  0  0  0  0  0
   59.8516   35.5143   44.6429 H   0  0  0  0  0  0  0  0  0  0  0  0
   59.7956   35.6087   47.1385 H   0  0  0  0  0  0  0  0  0  0  0  0
   58.4706   33.9274   48.4220 H   0  0  0  0  0  0  0  0  0  0  0  0
   57.2062   32.1464   47.2190 H   0  0  0  0  0  0  0  0  0  0  0  0
  1  2  1  0
  2  3  1  0
  3  4  1  0
  4  5  2  0
  4  6  1  0
  6  7  1  0
  7  8  1  0
  8  9  2  0
  8 10  2  0
  8 11  1  0
 11 12  2  0
 12 13  1  0
 13 14  2  0
 14 15  1  0
 15 16  2  0
 16 17  1  0
  2 18  1  0
 18 19  2  0
 19 20  1  0
 20 21  2  0
 21 22  1  0
 22 23  2  0
 16 11  1  0
 23 18  1  0
  1 24  1  0
  1 25  1  0
  1 26  1  0
  2 27  1  6
  6 28  1  0
  6 29  1  0
  7 30  1  0
 12 31  1  0
 13 32  1  0
 14 33  1  0
 15 34  1  0
 19 35  1  0
 20 36  1  0
 21 37  1  0
 22 38  1  0
 23 39  1  0
M  CHG  1   3  -1
M  END
>  <UniqueID>  (22) 
18

>  <SMILES>  (22) 
C[C@@H]([N-]C(=O)CNS(=O)(=O)c1ccccc1F)c1ccccc1

>  <Energy>  (22) 
35.405911045710376

>  <Genealogy>  (22) 
CC([N-]C(=O)CNS(=O)(=O)c1ccccc1F)c1ccccc1 (protonated)
C[C@@H]([N-]C(=O)CNS(=O)(=O)c1ccccc1F)c1ccccc1 (chirality)
C[C@@H]([N-]C(=O)CNS(=O)(=O)c1ccccc1F)c1ccccc1 (3D coordinates assigned)
C[C@@H]([N-]C(=O)CNS(=O)(=O)c1ccccc1F)c1ccccc1 (optimized conformer: 35.405911045710376 kcal/mol)

>  <smiles>  (22) 
CC(NC(=O)CNS(=O)(=O)c1ccccc1F)c1ccccc1

>  <score_type>  (22) 
oracle

>  <origin>  (22) 
adg

>  <m_score__min__energy>  (22) 
-10.69

>  <m_primary>  (22) 
energy

$$$$
22:0
     RDKit          3D

 42 44  0  0  0  0  0  0  0  0999 V2000
   58.0070   24.3160   46.5140 O   0  0  0  0  0  0  0  0  0  0  0  0
   57.3030   25.3580   46.4150 C   0  0  0  0  0  0  0  0  0  0  0  0
   55.8710   25.2860   46.5360 N   0  0  0  0  0  0  0  0  0  0  0  0
   55.0570   24.3450   46.1400 C   0  0  0  0  0  0  0  0  0  0  0  0
   55.2020   22.9890   46.5040 C   0  0  0  0  0  0  0  0  0  0  0  0
   54.2770   22.0490   46.0410 C   0  0  0  0  0  0  0  0  0  0  0  0
   53.2390   22.4380   45.2560 N   0  0  0  0  0  0  0  0  0  0  0  0
   53.0640   23.7380   44.9030 C   0  0  0  0  0  0  0  0  0  0  0  0
   53.9640   24.7110   45.3440 C   0  0  0  0  0  0  0  0  0  0  0  0
   57.9500   26.6500   46.0850 C   0  0  0  0  0  0  0  0  0  0  0  0
   59.1900   26.9960   46.6520 C   0  0  0  0  0  0  0  0  0  0  0  0
   59.7970   28.2150   46.3380 C   0  0  0  0  0  0  0  0  0  0  0  0
   59.1770   29.1020   45.4570 C   0  0  0  0  0  0  0  0  0  0  0  0
   57.9430   28.7740   44.8820 C   0  0  0  0  0  0  0  0  0  0  0  0
   57.1350   29.8940   43.7860 S   0  0  0  0  0  0  0  0  0  0  0  0
   56.6260   29.1620   42.5760 O   0  0  0  0  0  0  0  0  0  0  0  0
   55.9590   30.4990   44.5010 O   0  0  0  0  0  0  0  0  0  0  0  0
   58.2120   31.1680   43.2810 N   0  0  0  0  0  0  0  0  0  0  0  0
   57.6720   32.4920   43.6120 C   0  0  0  0  0  0  0  0  0  0  0  0
   58.2330   32.9970   44.9150 C   0  0  0  0  0  0  0  0  0  0  0  0
   57.9870   32.3050   46.1140 C   0  0  0  0  0  0  0  0  0  0  0  0
   58.5230   32.7710   47.3180 C   0  0  0  0  0  0  0  0  0  0  0  0
   59.3030   33.9310   47.3370 C   0  0  0  0  0  0  0  0  0  0  0  0
   59.9750   34.5140   48.8490 Cl  0  0  0  0  0  0  0  0  0  0  0  0
   59.5460   34.6280   46.1470 C   0  0  0  0  0  0  0  0  0  0  0  0
   59.0130   34.1640   44.9420 C   0  0  0  0  0  0  0  0  0  0  0  0
   57.3340   27.5510   45.1960 C   0  0  0  0  0  0  0  0  0  0  0  0
   56.0369   22.6743   47.1474 H   0  0  0  0  0  0  0  0  0  0  0  0
   54.3902   20.9893   46.3136 H   0  0  0  0  0  0  0  0  0  0  0  0
   52.2122   24.0249   44.2689 H   0  0  0  0  0  0  0  0  0  0  0  0
   53.8144   25.7648   45.0662 H   0  0  0  0  0  0  0  0  0  0  0  0
   59.6853   26.3023   47.3473 H   0  0  0  0  0  0  0  0  0  0  0  0
   60.7667   28.4762   46.7868 H   0  0  0  0  0  0  0  0  0  0  0  0
   59.6585   30.0606   45.2138 H   0  0  0  0  0  0  0  0  0  0  0  0
   58.2800   31.1070   42.2390 H   0  0  0  0  0  0  0  0  0  0  0  0
   57.9350   33.1977   42.8103 H   0  0  0  0  0  0  0  0  0  0  0  0
   56.5797   32.4085   43.7113 H   0  0  0  0  0  0  0  0  0  0  0  0
   57.3707   31.3939   46.1045 H   0  0  0  0  0  0  0  0  0  0  0  0
   58.3306   32.2237   48.2526 H   0  0  0  0  0  0  0  0  0  0  0  0
   60.1575   35.5423   46.1611 H   0  0  0  0  0  0  0  0  0  0  0  0
   59.2053   34.7156   44.0099 H   0  0  0  0  0  0  0  0  0  0  0  0
   56.3653   27.2929   44.7433 H   0  0  0  0  0  0  0  0  0  0  0  0
  1  2  2  0
  2  3  1  0
  3  4  2  3
  4  5  1  0
  5  6  2  0
  6  7  1  0
  7  8  1  0
  8  9  2  0
  2 10  1  0
 10 11  2  0
 11 12  1  0
 12 13  2  0
 13 14  1  0
 14 15  1  0
 15 16  2  0
 15 17  2  0
 15 18  1  0
 18 19  1  0
 19 20  1  0
 20 21  2  0
 21 22  1  0
 22 23  2  0
 23 24  1  0
 23 25  1  0
 25 26  2  0
 14 27  2  0
  9  4  1  0
 27 10  1  0
 26 20  1  0
  5 28  1  0
  6 29  1  0
  8 30  1  0
  9 31  1  0
 11 32  1  0
 12 33  1  0
 13 34  1  0
 18 35  1  0
 19 36  1  0
 19 37  1  0
 21 38  1  0
 22 39  1  0
 25 40  1  0
 26 41  1  0
 27 42  1  0
M  CHG  1   7  -1
M  END
>  <UniqueID>  (23) 
19

>  <SMILES>  (23) 
O=C(N=c1cc[n-]cc1)c1cccc(S(=O)(=O)NCc2ccc(Cl)cc2)c1

>  <Energy>  (23) 
51.403340234828086

>  <Genealogy>  (23) 
O=C(N=c1cc[n-]cc1)c1cccc(S(=O)(=O)NCc2ccc(Cl)cc2)c1 (protonated)
O=C(N=c1cc[n-]cc1)c1cccc(S(=O)(=O)NCc2ccc(Cl)cc2)c1 (3D coordinates assigned)
O=C(N=c1cc[n-]cc1)c1cccc(S(=O)(=O)NCc2ccc(Cl)cc2)c1 (optimized conformer: 51.403340234828086 kcal/mol)

>  <smiles>  (23) 
O=C(N=c1cc[nH]cc1)c1cccc(S(=O)(=O)NCc2ccc(Cl)cc2)c1

>  <score_type>  (23) 
oracle

>  <origin>  (23) 
adg

>  <m_score__min__energy>  (23) 
-11.42

>  <m_primary>  (23) 
energy

$$$$
23:0
     RDKit          3D

 54 56  0  0  0  0  0  0  0  0999 V2000
   57.6360   33.7980   46.7660 C   0  0  0  0  0  0  0  0  0  0  0  0
   58.3430   32.4550   46.7950 C   0  0  0  0  0  0  0  0  0  0  0  0
   57.6090   31.5160   46.0110 O   0  0  0  0  0  0  0  0  0  0  0  0
   57.4970   31.5530   44.6080 C   0  0  0  0  0  0  0  0  0  0  0  0
   58.0100   32.6330   43.8590 C   0  0  0  0  0  0  0  0  0  0  0  0
   57.8990   32.6490   42.4670 C   0  0  0  0  0  0  0  0  0  0  0  0
   57.2710   31.5980   41.8040 C   0  0  0  0  0  0  0  0  0  0  0  0
   56.7530   30.5250   42.5290 C   0  0  0  0  0  0  0  0  0  0  0  0
   56.8610   30.4810   43.9300 C   0  0  0  0  0  0  0  0  0  0  0  0
   56.3000   29.3150   44.6620 C   0  0  0  0  0  0  0  0  0  0  0  0
   55.1410   29.3670   45.1560 O   0  0  0  0  0  0  0  0  0  0  0  0
   57.1030   28.1370   44.8430 N   0  0  0  0  0  0  0  0  0  0  0  0
   58.0590   27.8940   45.8860 C   0  0  0  0  0  0  0  0  0  0  0  0
   58.8840   28.9250   46.3730 C   0  0  0  0  0  0  0  0  0  0  0  0
   59.8230   28.6700   47.3840 C   0  0  0  0  0  0  0  0  0  0  0  0
   60.7210   29.7690   47.8820 C   0  0  0  0  0  0  0  0  0  0  0  0
   59.9970   30.6210   48.8910 C   0  0  0  0  0  0  0  0  0  0  0  0
   60.4640   31.9090   49.1940 C   0  0  0  0  0  0  0  0  0  0  0  0
   59.7990   32.6710   50.1590 C   0  0  0  0  0  0  0  0  0  0  0  0
   58.7120   32.1630   50.8030 N   0  0  0  0  0  0  0  0  0  0  0  0
   58.2450   30.9140   50.5340 C   0  0  0  0  0  0  0  0  0  0  0  0
   58.8800   30.1180   49.5750 C   0  0  0  0  0  0  0  0  0  0  0  0
   59.9540   27.3700   47.8910 C   0  0  0  0  0  0  0  0  0  0  0  0
   59.1250   26.3480   47.4280 C   0  0  0  0  0  0  0  0  0  0  0  0
   58.1550   26.6040   46.4510 C   0  0  0  0  0  0  0  0  0  0  0  0
   57.3210   25.5250   46.0010 N   0  0  0  0  0  0  0  0  0  0  0  0
   55.8930   25.6350   45.8750 C   0  0  0  0  0  0  0  0  0  0  0  0
   55.3030   26.6470   46.3400 O   0  0  0  0  0  0  0  0  0  0  0  0
   55.1170   24.5390   45.2440 C   0  0  0  0  0  0  0  0  0  0  0  0
   53.8590   24.5600   45.3240 O   0  0  0  0  0  0  0  0  0  0  0  0
   55.7300   23.4430   44.5470 N   0  0  0  0  0  0  0  0  0  0  0  0
   56.5420   23.5350   43.3420 C   0  0  0  0  0  0  0  0  0  0  0  0
   57.4560   34.1399   47.7959 H   0  0  0  0  0  0  0  0  0  0  0  0
   58.2646   34.5320   46.2405 H   0  0  0  0  0  0  0  0  0  0  0  0
   56.6751   33.6953   46.2405 H   0  0  0  0  0  0  0  0  0  0  0  0
   59.3566   32.5649   46.3821 H   0  0  0  0  0  0  0  0  0  0  0  0
   58.4076   32.0962   47.8328 H   0  0  0  0  0  0  0  0  0  0  0  0
   58.5019   33.4700   44.3762 H   0  0  0  0  0  0  0  0  0  0  0  0
   58.3085   33.4935   41.8933 H   0  0  0  0  0  0  0  0  0  0  0  0
   57.1833   31.6139   40.7076 H   0  0  0  0  0  0  0  0  0  0  0  0
   56.2531   29.7019   41.9973 H   0  0  0  0  0  0  0  0  0  0  0  0
   58.7919   29.9393   45.9575 H   0  0  0  0  0  0  0  0  0  0  0  0
   61.6101   29.3250   48.3537 H   0  0  0  0  0  0  0  0  0  0  0  0
   61.0197   30.3991   47.0313 H   0  0  0  0  0  0  0  0  0  0  0  0
   61.3456   32.3155   48.6768 H   0  0  0  0  0  0  0  0  0  0  0  0
   60.1548   33.6839   50.3988 H   0  0  0  0  0  0  0  0  0  0  0  0
   57.3660   30.5291   51.0718 H   0  0  0  0  0  0  0  0  0  0  0  0
   58.5067   29.1061   49.3589 H   0  0  0  0  0  0  0  0  0  0  0  0
   60.7135   27.1547   48.6570 H   0  0  0  0  0  0  0  0  0  0  0  0
   59.2343   25.3316   47.8342 H   0  0  0  0  0  0  0  0  0  0  0  0
   57.7590   24.5800   45.9160 H   0  0  0  0  0  0  0  0  0  0  0  0
   57.5994   23.6548   43.6206 H   0  0  0  0  0  0  0  0  0  0  0  0
   56.4212   22.6174   42.7475 H   0  0  0  0  0  0  0  0  0  0  0  0
   56.2189   24.4023   42.7475 H   0  0  0  0  0  0  0  0  0  0  0  0
  1  2  1  0
  2  3  1  0
  3  4  1  0
  4  5  2  0
  5  6  1  0
  6  7  2  0
  7  8  1  0
  8  9  2  0
  9 10  1  0
 10 11  2  0
 10 12  1  0
 12 13  1  0
 13 14  2  0
 14 15  1  0
 15 16  1  0
 16 17  1  0
 17 18  2  0
 18 19  1  0
 19 20  2  0
 20 21  1  0
 21 22  2  0
 15 23  2  0
 23 24  1  0
 24 25  2  0
 25 26  1  0
 26 27  1  0
 27 28  2  0
 27 29  1  0
 29 30  2  0
 29 31  1  0
 31 32  1  0
  9  4  1  0
 25 13  1  0
 22 17  1  0
  1 33  1  0
  1 34  1  0
  1 35  1  0
  2 36  1  0
  2 37  1  0
  5 38  1  0
  6 39  1  0
  7 40  1  0
  8 41  1  0
 14 42  1  0
 16 43  1  0
 16 44  1  0
 18 45  1  0
 19 46  1  0
 21 47  1  0
 22 48  1  0
 23 49  1  0
 24 50  1  0
 26 51  1  0
 32 52  1  0
 32 53  1  0
 32 54  1  0
M  CHG  2  12  -1  31  -1
M  END
>  <UniqueID>  (24) 
20

>  <SMILES>  (24) 
CCOc1ccccc1C(=O)[N-]c1cc(Cc2ccncc2)ccc1NC(=O)C(=O)[N-]C

>  <Energy>  (24) 
61.85828342763638

>  <Genealogy>  (24) 
CCOc1ccccc1C(=O)[N-]c1cc(Cc2ccncc2)ccc1NC(=O)C(=O)[N-]C (protonated)
CCOc1ccccc1C(=O)[N-]c1cc(Cc2ccncc2)ccc1NC(=O)C(=O)[N-]C (3D coordinates assigned)
CCOc1ccccc1C(=O)[N-]c1cc(Cc2ccncc2)ccc1NC(=O)C(=O)[N-]C (optimized conformer: 61.85828342763638 kcal/mol)

>  <smiles>  (24) 
CCOc1ccccc1C(=O)Nc1cc(Cc2ccncc2)ccc1NC(=O)C(=O)NC

>  <score_type>  (24) 
oracle

>  <origin>  (24) 
adg

>  <m_score__min__energy>  (24) 
-11.390000000000001

>  <m_primary>  (24) 
energy

$$$$
24:0
     RDKit          3D

 49 51  0  0  0  0  0  0  0  0999 V2000
   61.3231   26.3568   47.3755 H   0  0  0  0  0  0  0  0  0  0  0  0
   60.4670   26.8760   46.9200 C   0  0  0  0  0  0  0  0  0  0  0  0
   59.7350   26.2120   46.0130 C   0  0  0  0  0  0  0  0  0  0  0  0
   60.2462   25.5744   45.2767 H   0  0  0  0  0  0  0  0  0  0  0  0
   58.2600   26.3130   45.9750 C   0  0  0  0  0  0  0  0  0  0  0  0
   57.3940   25.2480   46.3400 C   0  0  0  0  0  0  0  0  0  0  0  0
   57.8830   23.8790   46.6360 C   0  0  0  0  0  0  0  0  0  0  0  0
   57.3580   23.2150   47.5720 O   0  0  0  0  0  0  0  0  0  0  0  0
   58.8960   23.3120   45.8570 O   0  0  0  0  0  0  0  0  0  0  0  0
   58.6360   22.3660   44.8260 C   0  0  0  0  0  0  0  0  0  0  0  0
   58.3699   21.3978   45.2753 H   0  0  0  0  0  0  0  0  0  0  0  0
   57.8025   22.7225   44.2029 H   0  0  0  0  0  0  0  0  0  0  0  0
   59.5346   22.2465   44.2029 H   0  0  0  0  0  0  0  0  0  0  0  0
   56.0120   25.4920   46.3610 C   0  0  0  0  0  0  0  0  0  0  0  0
   55.3232   24.6949   46.6774 H   0  0  0  0  0  0  0  0  0  0  0  0
   55.5170   26.7010   45.9950 N   0  0  0  0  0  0  0  0  0  0  0  0
   56.3220   27.7240   45.5980 C   0  0  0  0  0  0  0  0  0  0  0  0
   55.8300   28.8750   45.2430 N   0  0  0  0  0  0  0  0  0  0  0  0
   56.3060   29.7190   44.1840 C   0  0  0  0  0  0  0  0  0  0  0  0
   56.0520   29.5390   42.8720 N   0  0  0  0  0  0  0  0  0  0  0  0
   56.7000   30.5630   42.2750 C   0  0  0  0  0  0  0  0  0  0  0  0
   56.7019   30.7268   41.1873 H   0  0  0  0  0  0  0  0  0  0  0  0
   57.3460   31.3660   43.1500 N   0  0  0  0  0  0  0  0  0  0  0  0
   58.0270   32.6100   42.8050 C   0  0  0  0  0  0  0  0  0  0  0  0
   58.3158   33.1375   43.7260 H   0  0  0  0  0  0  0  0  0  0  0  0
   58.9270   32.3837   42.2145 H   0  0  0  0  0  0  0  0  0  0  0  0
   57.3514   33.2463   42.2145 H   0  0  0  0  0  0  0  0  0  0  0  0
   57.0990   30.8240   44.3630 C   0  0  0  0  0  0  0  0  0  0  0  0
   57.5320   31.2850   45.6180 O   0  0  0  0  0  0  0  0  0  0  0  0
   57.4190   32.6210   46.1050 C   0  0  0  0  0  0  0  0  0  0  0  0
   57.2039   32.5947   47.1834 H   0  0  0  0  0  0  0  0  0  0  0  0
   56.6048   33.1256   45.5642 H   0  0  0  0  0  0  0  0  0  0  0  0
   58.7130   33.3940   45.8720 C   0  0  0  0  0  0  0  0  0  0  0  0
   59.1601   33.6611   46.8409 H   0  0  0  0  0  0  0  0  0  0  0  0
   59.4167   32.7682   45.3035 H   0  0  0  0  0  0  0  0  0  0  0  0
   58.4955   34.3103   45.3035 H   0  0  0  0  0  0  0  0  0  0  0  0
   57.7070   27.5380   45.5780 C   0  0  0  0  0  0  0  0  0  0  0  0
   58.3652   28.3558   45.2496 H   0  0  0  0  0  0  0  0  0  0  0  0
   60.1890   28.2690   47.3440 C   0  0  0  0  0  0  0  0  0  0  0  0
   60.5980   29.3200   46.5040 C   0  0  0  0  0  0  0  0  0  0  0  0
   61.1091   29.0941   45.5565 H   0  0  0  0  0  0  0  0  0  0  0  0
   60.3600   30.6500   46.8640 C   0  0  0  0  0  0  0  0  0  0  0  0
   60.6776   31.4646   46.1965 H   0  0  0  0  0  0  0  0  0  0  0  0
   59.7200   30.9460   48.0690 C   0  0  0  0  0  0  0  0  0  0  0  0
   59.5301   31.9927   48.3488 H   0  0  0  0  0  0  0  0  0  0  0  0
   59.3210   29.9120   48.9190 C   0  0  0  0  0  0  0  0  0  0  0  0
   58.8212   30.1463   49.8705 H   0  0  0  0  0  0  0  0  0  0  0  0
   59.5550   28.5800   48.5640 C   0  0  0  0  0  0  0  0  0  0  0  0
   59.2427   27.7706   49.2402 H   0  0  0  0  0  0  0  0  0  0  0  0
  1  2  1  0
  2  3  2  0
  3  4  1  0
  3  5  1  0
  5  6  1  0
  6  7  1  0
  7  8  2  0
  7  9  1  0
  9 10  1  0
 10 11  1  0
 10 12  1  0
 10 13  1  0
  6 14  2  0
 14 15  1  0
 14 16  1  0
 16 17  1  0
 17 18  2  0
 18 19  1  0
 19 20  1  0
 20 21  2  0
 21 22  1  0
 21 23  1  0
 23 24  1  0
 24 25  1  0
 24 26  1  0
 24 27  1  0
 23 28  1  0
 28 29  1  0
 29 30  1  0
 30 31  1  0
 30 32  1  0
 30 33  1  0
 33 34  1  0
 33 35  1  0
 33 36  1  0
 17 37  1  0
 37 38  1  0
  2 39  1  0
 39 40  2  0
 40 41  1  0
 40 42  1  0
 42 43  1  0
 42 44  2  0
 44 45  1  0
 44 46  1  0
 46 47  1  0
 46 48  2  0
 48 49  1  0
 37  5  2  0
 48 39  1  0
 28 19  2  0
M  CHG  1  16  -1
M  END
>  <UniqueID>  (25) 
21

>  <SMILES>  (25) 
CCOc1c(/N=c2/cc(/C=C/c3ccccc3)c(C(=O)OC)c[n-]2)ncn1C

>  <Energy>  (25) 
94.39274763416103

>  <Genealogy>  (25) 
CCOc1c(N=c2cc(C=Cc3ccccc3)c(C(=O)OC)c[n-]2)ncn1C (protonated)
CCOc1c(/N=c2/cc(/C=C/c3ccccc3)c(C(=O)OC)c[n-]2)ncn1C (cis-trans isomerization)
CCOc1c(/N=c2/cc(/C=C/c3ccccc3)c(C(=O)OC)c[n-]2)ncn1C (3D coordinates assigned)
CCOc1c(/N=c2/cc(/C=C/c3ccccc3)c(C(=O)OC)c[n-]2)ncn1C (optimized conformer: 94.39274763416103 kcal/mol)

>  <smiles>  (25) 
CCOc1c(N=c2cc(C=Cc3ccccc3)c(C(=O)OC)c[nH]2)ncn1C

>  <score_type>  (25) 
oracle

>  <origin>  (25) 
adg

>  <m_score__min__energy>  (25) 
-9.7799999999999994

>  <m_primary>  (25) 
energy

$$$$
25:0
     RDKit          3D

 47 49  0  0  0  0  0  0  0  0999 V2000
   56.3804   31.6113   43.4526 H   0  0  0  0  0  0  0  0  0  0  0  0
   56.9720   30.8880   44.0330 C   0  0  0  0  0  0  0  0  0  0  0  0
   57.2360   29.5740   43.4010 C   0  0  0  0  0  0  0  0  0  0  0  0
   56.6410   29.3270   42.3150 O   0  0  0  0  0  0  0  0  0  0  0  0
   57.9370   28.5170   44.1170 N   0  0  1  0  0  0  0  0  0  0  0  0
   58.0360   27.6910   43.4860 H   0  0  0  0  0  0  0  0  0  0  0  0
   59.2960   29.0010   44.4670 C   0  0  0  0  0  0  0  0  0  0  0  0
   60.0288   28.5095   43.8101 H   0  0  0  0  0  0  0  0  0  0  0  0
   59.3140   30.0928   44.3339 H   0  0  0  0  0  0  0  0  0  0  0  0
   59.6490   28.6980   45.9070 C   0  0  0  0  0  0  0  0  0  0  0  0
   59.2950   29.6010   46.9230 C   0  0  0  0  0  0  0  0  0  0  0  0
   58.7425   30.5184   46.6717 H   0  0  0  0  0  0  0  0  0  0  0  0
   59.6410   29.3400   48.2510 C   0  0  0  0  0  0  0  0  0  0  0  0
   59.3637   30.0532   49.0412 H   0  0  0  0  0  0  0  0  0  0  0  0
   60.3390   28.1740   48.5770 C   0  0  0  0  0  0  0  0  0  0  0  0
   60.6098   27.9689   49.6232 H   0  0  0  0  0  0  0  0  0  0  0  0
   60.6930   27.2680   47.5720 C   0  0  0  0  0  0  0  0  0  0  0  0
   61.2422   26.3501   47.8287 H   0  0  0  0  0  0  0  0  0  0  0  0
   60.3500   27.5270   46.2420 C   0  0  0  0  0  0  0  0  0  0  0  0
   60.6298   26.8116   45.4546 H   0  0  0  0  0  0  0  0  0  0  0  0
   57.2080   28.0820   45.3380 C   0  0  0  0  0  0  0  0  0  0  0  0
   57.7370   28.4661   46.2227 H   0  0  0  0  0  0  0  0  0  0  0  0
   56.1842   28.4801   45.2811 H   0  0  0  0  0  0  0  0  0  0  0  0
   57.1170   26.5750   45.4400 C   0  0  0  0  0  0  0  0  0  0  0  0
   58.2440   25.7790   45.1780 C   0  0  0  0  0  0  0  0  0  0  0  0
   59.2019   26.2547   44.9210 H   0  0  0  0  0  0  0  0  0  0  0  0
   58.1550   24.3860   45.2420 C   0  0  0  0  0  0  0  0  0  0  0  0
   59.0432   23.7693   45.0401 H   0  0  0  0  0  0  0  0  0  0  0  0
   56.9400   23.7750   45.5620 C   0  0  0  0  0  0  0  0  0  0  0  0
   56.8701   22.6780   45.6029 H   0  0  0  0  0  0  0  0  0  0  0  0
   55.8140   24.5570   45.8300 C   0  0  0  0  0  0  0  0  0  0  0  0
   54.8577   24.0741   46.0795 H   0  0  0  0  0  0  0  0  0  0  0  0
   55.8990   25.9530   45.7820 C   0  0  0  0  0  0  0  0  0  0  0  0
   54.7690   26.7130   46.0730 O   0  0  0  0  0  0  0  0  0  0  0  0
   57.3870   31.2760   45.2450 C   0  0  0  0  0  0  0  0  0  0  0  0
   57.2582   30.5664   46.0755 H   0  0  0  0  0  0  0  0  0  0  0  0
   58.0030   32.5790   45.5550 C   0  0  0  0  0  0  0  0  0  0  0  0
   58.4730   33.3870   44.5080 C   0  0  0  0  0  0  0  0  0  0  0  0
   58.3359   33.0674   43.4644 H   0  0  0  0  0  0  0  0  0  0  0  0
   59.1150   34.5970   44.7880 C   0  0  0  0  0  0  0  0  0  0  0  0
   59.4569   35.2407   43.9642 H   0  0  0  0  0  0  0  0  0  0  0  0
   59.3230   34.9900   46.1130 C   0  0  0  0  0  0  0  0  0  0  0  0
   59.8298   35.9415   46.3315 H   0  0  0  0  0  0  0  0  0  0  0  0
   58.8870   34.1740   47.1600 C   0  0  0  0  0  0  0  0  0  0  0  0
   59.0712   34.4730   48.2024 H   0  0  0  0  0  0  0  0  0  0  0  0
   58.2170   32.9780   46.8850 C   0  0  0  0  0  0  0  0  0  0  0  0
   57.8567   32.3481   47.7117 H   0  0  0  0  0  0  0  0  0  0  0  0
  1  2  1  0
  2  3  1  0
  3  4  2  0
  3  5  1  0
  5  6  1  6
  5  7  1  0
  7  8  1  0
  7  9  1  0
  7 10  1  0
 10 11  2  0
 11 12  1  0
 11 13  1  0
 13 14  1  0
 13 15  2  0
 15 16  1  0
 15 17  1  0
 17 18  1  0
 17 19  2  0
 19 20  1  0
  5 21  1  0
 21 22  1  0
 21 23  1  0
 21 24  1  0
 24 25  2  0
 25 26  1  0
 25 27  1  0
 27 28  1  0
 27 29  2  0
 29 30  1  0
 29 31  1  0
 31 32  1  0
 31 33  2  0
 33 34  1  0
  2 35  2  0
 35 36  1  0
 35 37  1  0
 37 38  2  0
 38 39  1  0
 38 40  1  0
 40 41  1  0
 40 42  2  0
 42 43  1  0
 42 44  1  0
 44 45  1  0
 44 46  2  0
 46 47  1  0
 19 10  1  0
 33 24  1  0
 46 37  1  0
M  CHG  2   5   1  34  -1
M  END
>  <UniqueID>  (26) 
22

>  <SMILES>  (26) 
O=C(/C=C\c1ccccc1)[N@@H+](Cc1ccccc1)Cc1ccccc1[O-]

>  <Energy>  (26) 
62.02054350263107

>  <Genealogy>  (26) 
O=C(C=Cc1ccccc1)[NH+](Cc1ccccc1)Cc1ccccc1[O-] (protonated)
O=C(C=Cc1ccccc1)[N@@H+](Cc1ccccc1)Cc1ccccc1[O-] (chirality)
O=C(/C=C\c1ccccc1)[N@@H+](Cc1ccccc1)Cc1ccccc1[O-] (cis-trans isomerization)
O=C(/C=C\c1ccccc1)[N@@H+](Cc1ccccc1)Cc1ccccc1[O-] (3D coordinates assigned)
O=C(/C=C\c1ccccc1)[N@@H+](Cc1ccccc1)Cc1ccccc1[O-] (optimized conformer: 62.02054350263107 kcal/mol)

>  <smiles>  (26) 
O=C(C=Cc1ccccc1)N(Cc1ccccc1)Cc1ccccc1O

>  <score_type>  (26) 
oracle

>  <origin>  (26) 
adg

>  <m_score__min__energy>  (26) 
-10.619999999999999

>  <m_primary>  (26) 
energy

$$$$
26:0
     RDKit          3D

 53 56  0  0  0  0  0  0  0  0999 V2000
   58.1770   32.3350   42.2990 C   0  0  0  0  0  0  0  0  0  0  0  0
   58.1370   32.7900   43.7350 C   0  0  0  0  0  0  0  0  0  0  0  0
   58.8780   33.9300   44.0970 C   0  0  0  0  0  0  0  0  0  0  0  0
   58.8510   34.4110   45.4060 C   0  0  0  0  0  0  0  0  0  0  0  0
   58.0860   33.7630   46.3730 C   0  0  0  0  0  0  0  0  0  0  0  0
   57.3550   32.6230   46.0380 C   0  0  0  0  0  0  0  0  0  0  0  0
   57.3760   32.1090   44.7270 C   0  0  0  0  0  0  0  0  0  0  0  0
   56.5990   30.8760   44.4380 C   0  0  0  0  0  0  0  0  0  0  0  0
   55.8680   30.8050   43.4140 O   0  0  0  0  0  0  0  0  0  0  0  0
   56.7420   29.7320   45.2900 N   0  0  0  0  0  0  0  0  0  0  0  0
   57.9800   29.2410   45.8230 C   0  0  0  0  0  0  0  0  0  0  0  0
   58.6550   30.0230   46.7670 C   0  0  0  0  0  0  0  0  0  0  0  0
   59.8680   29.5890   47.3190 C   0  0  0  0  0  0  0  0  0  0  0  0
   60.5670   30.4160   48.2610 N   0  0  0  0  0  0  0  0  0  0  0  0
   61.4150   31.4930   47.8130 C   0  0  0  0  0  0  0  0  0  0  0  0
   60.9020   32.7880   47.6160 C   0  0  0  0  0  0  0  0  0  0  0  0
   61.7510   33.8070   47.1790 C   0  0  0  0  0  0  0  0  0  0  0  0
   63.0990   33.5350   46.9450 C   0  0  0  0  0  0  0  0  0  0  0  0
   63.5810   32.2420   47.1550 C   0  0  0  0  0  0  0  0  0  0  0  0
   62.7390   31.2640   47.5800 N   0  0  0  0  0  0  0  0  0  0  0  0
   60.6340   29.8890   49.9160 S   0  0  0  0  0  0  0  0  0  0  0  0
   60.6310   28.3870   49.9720 O   0  0  0  0  0  0  0  0  0  0  0  0
   61.8960   30.3790   50.5690 O   0  0  0  0  0  0  0  0  0  0  0  0
   59.2440   30.5430   50.7760 C   0  0  0  0  0  0  0  0  0  0  0  0
   58.5510   29.7340   51.6880 C   0  0  0  0  0  0  0  0  0  0  0  0
   57.4630   30.2520   52.3980 C   0  0  0  0  0  0  0  0  0  0  0  0
   57.0680   31.5790   52.2040 C   0  0  0  0  0  0  0  0  0  0  0  0
   57.7600   32.3900   51.3010 C   0  0  0  0  0  0  0  0  0  0  0  0
   58.8490   31.8750   50.5880 C   0  0  0  0  0  0  0  0  0  0  0  0
   60.3990   28.3530   46.9340 C   0  0  0  0  0  0  0  0  0  0  0  0
   59.7140   27.5480   46.0220 C   0  0  0  0  0  0  0  0  0  0  0  0
   58.4960   27.9760   45.4730 C   0  0  0  0  0  0  0  0  0  0  0  0
   57.7920   27.1360   44.6120 O   0  0  0  0  0  0  0  0  0  0  0  0
   58.2733   31.2398   42.2639 H   0  0  0  0  0  0  0  0  0  0  0  0
   57.2488   32.6379   41.7924 H   0  0  0  0  0  0  0  0  0  0  0  0
   59.0382   32.7952   41.7924 H   0  0  0  0  0  0  0  0  0  0  0  0
   59.4851   34.4475   43.3396 H   0  0  0  0  0  0  0  0  0  0  0  0
   59.4348   35.3036   45.6751 H   0  0  0  0  0  0  0  0  0  0  0  0
   58.0582   34.1506   47.4021 H   0  0  0  0  0  0  0  0  0  0  0  0
   56.7537   32.1185   46.8087 H   0  0  0  0  0  0  0  0  0  0  0  0
   58.2293   30.9881   47.0790 H   0  0  0  0  0  0  0  0  0  0  0  0
   59.8386   32.9967   47.8050 H   0  0  0  0  0  0  0  0  0  0  0  0
   61.3577   34.8218   47.0197 H   0  0  0  0  0  0  0  0  0  0  0  0
   63.7748   34.3309   46.5987 H   0  0  0  0  0  0  0  0  0  0  0  0
   64.6424   32.0148   46.9764 H   0  0  0  0  0  0  0  0  0  0  0  0
   58.8634   28.6911   51.8451 H   0  0  0  0  0  0  0  0  0  0  0  0
   56.9176   29.6148   53.1097 H   0  0  0  0  0  0  0  0  0  0  0  0
   56.2118   31.9849   52.7627 H   0  0  0  0  0  0  0  0  0  0  0  0
   57.4488   33.4342   51.1502 H   0  0  0  0  0  0  0  0  0  0  0  0
   59.3951   32.5157   49.8799 H   0  0  0  0  0  0  0  0  0  0  0  0
   61.3589   28.0146   47.3511 H   0  0  0  0  0  0  0  0  0  0  0  0
   60.1317   26.5725   45.7322 H   0  0  0  0  0  0  0  0  0  0  0  0
   56.9760   27.4580   44.1030 H   0  0  0  0  0  0  0  0  0  0  0  0
  1  2  1  0
  2  3  2  0
  3  4  1  0
  4  5  2  0
  5  6  1  0
  6  7  2  0
  7  8  1  0
  8  9  2  0
  8 10  1  0
 10 11  1  0
 11 12  2  0
 12 13  1  0
 13 14  1  0
 14 15  1  0
 15 16  2  0
 16 17  1  0
 17 18  2  0
 18 19  1  0
 19 20  2  0
 14 21  1  0
 21 22  2  0
 21 23  2  0
 21 24  1  0
 24 25  2  0
 25 26  1  0
 26 27  2  0
 27 28  1  0
 28 29  2  0
 13 30  2  0
 30 31  1  0
 31 32  2  0
 32 33  1  0
  7  2  1  0
 32 11  1  0
 20 15  1  0
 29 24  1  0
  1 34  1  0
  1 35  1  0
  1 36  1  0
  3 37  1  0
  4 38  1  0
  5 39  1  0
  6 40  1  0
 12 41  1  0
 16 42  1  0
 17 43  1  0
 18 44  1  0
 19 45  1  0
 25 46  1  0
 26 47  1  0
 27 48  1  0
 28 49  1  0
 29 50  1  0
 30 51  1  0
 31 52  1  0
 33 53  1  0
M  CHG  1  10  -1
M  END
>  <UniqueID>  (27) 
23

>  <SMILES>  (27) 
Cc1ccccc1C(=O)[N-]c1cc(N(c2ccccn2)S(=O)(=O)c2ccccc2)ccc1O

>  <Energy>  (27) 
76.74856037631913

>  <Genealogy>  (27) 
Cc1ccccc1C(=O)[N-]c1cc(N(c2ccccn2)S(=O)(=O)c2ccccc2)ccc1O (protonated)
Cc1ccccc1C(=O)[N-]c1cc(N(c2ccccn2)S(=O)(=O)c2ccccc2)ccc1O (3D coordinates assigned)
Cc1ccccc1C(=O)[N-]c1cc(N(c2ccccn2)S(=O)(=O)c2ccccc2)ccc1O (optimized conformer: 76.74856037631913 kcal/mol)

>  <smiles>  (27) 
Cc1ccccc1C(=O)Nc1cc(N(c2ccccn2)S(=O)(=O)c2ccccc2)ccc1O

>  <score_type>  (27) 
oracle

>  <origin>  (27) 
adg

>  <m_score__min__energy>  (27) 
-11.69

>  <m_primary>  (27) 
energy

$$$$
27:0
     RDKit          3D

 55 58  0  0  0  0  0  0  0  0999 V2000
   57.4610   31.8230   41.9170 C   0  0  0  0  0  0  0  0  0  0  0  0
   57.6590   32.2830   43.3300 C   0  0  0  0  0  0  0  0  0  0  0  0
   58.4440   33.3570   43.6130 N   0  0  0  0  0  0  0  0  0  0  0  0
   58.5360   33.5690   44.9470 C   0  0  0  0  0  0  0  0  0  0  0  0
   59.1920   34.5530   45.4900 N   0  0  0  0  0  0  0  0  0  0  0  0
   60.0760   34.4500   46.6190 C   0  0  0  0  0  0  0  0  0  0  0  0
   61.3140   34.2780   46.4540 O   0  0  0  0  0  0  0  0  0  0  0  0
   59.5340   34.5590   47.9410 N   0  0  0  0  0  0  0  0  0  0  0  0
   60.2710   34.2270   49.1300 C   0  0  0  0  0  0  0  0  0  0  0  0
   59.6280   33.6860   50.2570 C   0  0  0  0  0  0  0  0  0  0  0  0
   60.3590   33.4020   51.4170 C   0  0  0  0  0  0  0  0  0  0  0  0
   61.7330   33.6600   51.4650 C   0  0  0  0  0  0  0  0  0  0  0  0
   62.3770   34.2150   50.3550 C   0  0  0  0  0  0  0  0  0  0  0  0
   61.6440   34.5050   49.1940 C   0  0  0  0  0  0  0  0  0  0  0  0
   57.6700   32.4370   45.8350 S   0  0  0  0  0  0  0  0  0  0  0  0
   57.1180   31.6440   44.4540 C   0  0  0  0  0  0  0  0  0  0  0  0
   56.2610   30.4450   44.4700 C   0  0  0  0  0  0  0  0  0  0  0  0
   55.1730   30.4570   43.8360 O   0  0  0  0  0  0  0  0  0  0  0  0
   56.6240   29.2750   45.2190 N   0  0  0  0  0  0  0  0  0  0  0  0
   57.9690   28.8590   45.5120 C   0  0  0  0  0  0  0  0  0  0  0  0
   58.9230   28.6740   44.4930 C   0  0  0  0  0  0  0  0  0  0  0  0
   60.2100   28.2370   44.8040 C   0  0  0  0  0  0  0  0  0  0  0  0
   60.5600   27.9760   46.1310 C   0  0  0  0  0  0  0  0  0  0  0  0
   59.6190   28.1440   47.1630 C   0  0  0  0  0  0  0  0  0  0  0  0
   59.9930   27.8780   48.5700 C   0  0  0  0  0  0  0  0  0  0  0  0
   60.7480   26.8990   48.8470 O   0  0  0  0  0  0  0  0  0  0  0  0
   59.5230   28.7190   49.5910 O   0  0  0  0  0  0  0  0  0  0  0  0
   59.4370   30.1360   49.4590 C   0  0  0  0  0  0  0  0  0  0  0  0
   60.7300   30.6900   48.9250 C   0  0  0  0  0  0  0  0  0  0  0  0
   60.8330   31.1050   47.5870 C   0  0  0  0  0  0  0  0  0  0  0  0
   62.0460   31.6010   47.0970 C   0  0  0  0  0  0  0  0  0  0  0  0
   63.1620   31.6810   47.9340 C   0  0  0  0  0  0  0  0  0  0  0  0
   63.0700   31.2590   49.2640 C   0  0  0  0  0  0  0  0  0  0  0  0
   61.8600   30.7610   49.7590 C   0  0  0  0  0  0  0  0  0  0  0  0
   58.3170   28.5760   46.8400 C   0  0  0  0  0  0  0  0  0  0  0  0
   57.0261   30.8126   41.9179 H   0  0  0  0  0  0  0  0  0  0  0  0
   56.7808   32.5145   41.3982 H   0  0  0  0  0  0  0  0  0  0  0  0
   58.4308   31.8043   41.3982 H   0  0  0  0  0  0  0  0  0  0  0  0
   58.5750   34.9710   48.0450 H   0  0  0  0  0  0  0  0  0  0  0  0
   58.5469   33.4851   50.2275 H   0  0  0  0  0  0  0  0  0  0  0  0
   59.8509   32.9744   52.2939 H   0  0  0  0  0  0  0  0  0  0  0  0
   62.3059   33.4266   52.3746 H   0  0  0  0  0  0  0  0  0  0  0  0
   63.4563   34.4240   50.3917 H   0  0  0  0  0  0  0  0  0  0  0  0
   62.1506   34.9541   48.3270 H   0  0  0  0  0  0  0  0  0  0  0  0
   58.6515   28.8753   43.4462 H   0  0  0  0  0  0  0  0  0  0  0  0
   60.9510   28.0975   44.0031 H   0  0  0  0  0  0  0  0  0  0  0  0
   61.5786   27.6367   46.3706 H   0  0  0  0  0  0  0  0  0  0  0  0
   58.6208   30.3870   48.7656 H   0  0  0  0  0  0  0  0  0  0  0  0
   59.2402   30.5762   50.4477 H   0  0  0  0  0  0  0  0  0  0  0  0
   59.9583   31.0399   46.9232 H   0  0  0  0  0  0  0  0  0  0  0  0
   62.1214   31.9290   46.0497 H   0  0  0  0  0  0  0  0  0  0  0  0
   64.1128   32.0759   47.5467 H   0  0  0  0  0  0  0  0  0  0  0  0
   63.9498   31.3187   49.9216 H   0  0  0  0  0  0  0  0  0  0  0  0
   61.7923   30.4239   50.8039 H   0  0  0  0  0  0  0  0  0  0  0  0
   57.5675   28.6921   47.6368 H   0  0  0  0  0  0  0  0  0  0  0  0
  1  2  1  0
  2  3  1  0
  3  4  1  0
  4  5  2  3
  5  6  1  0
  6  7  2  0
  6  8  1  0
  8  9  1  0
  9 10  2  0
 10 11  1  0
 11 12  2  0
 12 13  1  0
 13 14  2  0
  4 15  1  0
 15 16  1  0
 16 17  1  0
 17 18  2  0
 17 19  1  0
 19 20  1  0
 20 21  2  0
 21 22  1  0
 22 23  2  0
 23 24  1  0
 24 25  1  0
 25 26  2  0
 25 27  1  0
 27 28  1  0
 28 29  1  0
 29 30  2  0
 30 31  1  0
 31 32  2  0
 32 33  1  0
 33 34  2  0
 24 35  2  0
 16  2  2  0
 35 20  1  0
 14  9  1  0
 34 29  1  0
  1 36  1  0
  1 37  1  0
  1 38  1  0
  8 39  1  0
 10 40  1  0
 11 41  1  0
 12 42  1  0
 13 43  1  0
 14 44  1  0
 21 45  1  0
 22 46  1  0
 23 47  1  0
 28 48  1  0
 28 49  1  0
 30 50  1  0
 31 51  1  0
 32 52  1  0
 33 53  1  0
 34 54  1  0
 35 55  1  0
M  CHG  2   3  -1  19  -1
M  END
>  <UniqueID>  (28) 
24

>  <SMILES>  (28) 
Cc1[n-]c(=NC(=O)Nc2ccccc2)sc1C(=O)[N-]c1cccc(C(=O)OCc2ccccc2)c1

>  <Energy>  (28) 
100.66295824253496

>  <Genealogy>  (28) 
Cc1[n-]c(=NC(=O)Nc2ccccc2)sc1C(=O)[N-]c1cccc(C(=O)OCc2ccccc2)c1 (protonated)
Cc1[n-]c(=NC(=O)Nc2ccccc2)sc1C(=O)[N-]c1cccc(C(=O)OCc2ccccc2)c1 (3D coordinates assigned)
Cc1[n-]c(=NC(=O)Nc2ccccc2)sc1C(=O)[N-]c1cccc(C(=O)OCc2ccccc2)c1 (optimized conformer: 100.66295824253496 kcal/mol)

>  <smiles>  (28) 
Cc1[nH]c(=NC(=O)Nc2ccccc2)sc1C(=O)Nc1cccc(C(=O)OCc2ccccc2)c1

>  <score_type>  (28) 
oracle

>  <origin>  (28) 
adg

>  <m_score__min__energy>  (28) 
-12.380000000000001

>  <m_primary>  (28) 
energy

$$$$
28:0
     RDKit          3D

 44 45  0  0  0  0  0  0  0  0999 V2000
   63.4170   32.8040   47.1630 C   0  0  0  0  0  0  0  0  0  0  0  0
   62.0520   33.3000   47.5420 C   0  0  0  0  0  0  0  0  0  0  0  0
   61.1490   33.7140   46.5500 C   0  0  0  0  0  0  0  0  0  0  0  0
   59.8700   34.1500   46.9010 C   0  0  0  0  0  0  0  0  0  0  0  0
   59.4770   34.1680   48.2410 C   0  0  0  0  0  0  0  0  0  0  0  0
   60.3600   33.7320   49.2430 C   0  0  0  0  0  0  0  0  0  0  0  0
   59.9530   33.7870   50.6940 C   0  0  0  0  0  0  0  0  0  0  0  0
   58.8360   32.7850   51.0100 C   0  0  0  0  0  0  0  0  0  0  0  0
   59.3890   31.4260   51.3320 C   0  0  0  0  0  0  0  0  0  0  0  0
   59.5160   31.0770   52.5370 O   0  0  0  0  0  0  0  0  0  0  0  0
   59.8150   30.5540   50.2760 N   0  0  0  0  0  0  0  0  0  0  0  0
   60.4520   29.2670   50.5310 C   0  0  0  0  0  0  0  0  0  0  0  0
   60.7420   28.5690   49.2420 C   0  0  0  0  0  0  0  0  0  0  0  0
   60.9380   27.3230   49.2350 O   0  0  0  0  0  0  0  0  0  0  0  0
   60.7140   29.3150   48.0170 N   0  0  0  0  0  0  0  0  0  0  0  0
   59.5970   29.4500   47.1280 C   0  0  0  0  0  0  0  0  0  0  0  0
   58.6770   28.4060   46.9240 C   0  0  0  0  0  0  0  0  0  0  0  0
   57.6210   28.5640   46.0220 C   0  0  0  0  0  0  0  0  0  0  0  0
   57.4700   29.7620   45.2990 C   0  0  0  0  0  0  0  0  0  0  0  0
   56.3540   29.9250   44.3380 C   0  0  0  0  0  0  0  0  0  0  0  0
   55.1490   29.1770   44.4930 N   0  0  0  0  0  0  0  0  0  0  0  0
   56.4570   30.7300   43.3720 O   0  0  0  0  0  0  0  0  0  0  0  0
   58.4060   30.7940   45.4930 C   0  0  0  0  0  0  0  0  0  0  0  0
   59.4610   30.6330   46.3950 C   0  0  0  0  0  0  0  0  0  0  0  0
   61.6470   33.2970   48.8860 C   0  0  0  0  0  0  0  0  0  0  0  0
   63.9966   32.5934   48.0739 H   0  0  0  0  0  0  0  0  0  0  0  0
   63.3207   31.8834   46.5687 H   0  0  0  0  0  0  0  0  0  0  0  0
   63.9341   33.5717   46.5687 H   0  0  0  0  0  0  0  0  0  0  0  0
   61.4503   33.6948   45.4922 H   0  0  0  0  0  0  0  0  0  0  0  0
   59.1697   34.4804   46.1197 H   0  0  0  0  0  0  0  0  0  0  0  0
   58.4726   34.5248   48.5129 H   0  0  0  0  0  0  0  0  0  0  0  0
   60.8280   33.5536   51.3184 H   0  0  0  0  0  0  0  0  0  0  0  0
   59.5753   34.7983   50.9053 H   0  0  0  0  0  0  0  0  0  0  0  0
   58.2617   33.1509   51.8739 H   0  0  0  0  0  0  0  0  0  0  0  0
   58.1932   32.6940   50.1220 H   0  0  0  0  0  0  0  0  0  0  0  0
   59.7060   30.8660   49.2840 H   0  0  0  0  0  0  0  0  0  0  0  0
   61.3937   29.4295   51.0758 H   0  0  0  0  0  0  0  0  0  0  0  0
   59.7729   28.6437   51.1312 H   0  0  0  0  0  0  0  0  0  0  0  0
   58.7889   27.4614   47.4765 H   0  0  0  0  0  0  0  0  0  0  0  0
   56.9016   27.7448   45.8759 H   0  0  0  0  0  0  0  0  0  0  0  0
   54.4940   29.3700   45.2830 H   0  0  0  0  0  0  0  0  0  0  0  0
   58.3067   31.7342   44.9308 H   0  0  0  0  0  0  0  0  0  0  0  0
   60.1913   31.4445   46.5297 H   0  0  0  0  0  0  0  0  0  0  0  0
   62.3424   32.9516   49.6652 H   0  0  0  0  0  0  0  0  0  0  0  0
  1  2  1  0
  2  3  2  0
  3  4  1  0
  4  5  2  0
  5  6  1  0
  6  7  1  0
  7  8  1  0
  8  9  1  0
  9 10  2  0
  9 11  1  0
 11 12  1  0
 12 13  1  0
 13 14  2  0
 13 15  1  0
 15 16  1  0
 16 17  2  0
 17 18  1  0
 18 19  2  0
 19 20  1  0
 20 21  1  0
 20 22  2  0
 19 23  1  0
 23 24  2  0
  6 25  2  0
 25  2  1  0
 24 16  1  0
  1 26  1  0
  1 27  1  0
  1 28  1  0
  3 29  1  0
  4 30  1  0
  5 31  1  0
  7 32  1  0
  7 33  1  0
  8 34  1  0
  8 35  1  0
 11 36  1  0
 12 37  1  0
 12 38  1  0
 17 39  1  0
 18 40  1  0
 21 41  1  0
 23 42  1  0
 24 43  1  0
 25 44  1  0
M  CHG  2  15  -1  21  -1
M  END
>  <UniqueID>  (29) 
25

>  <SMILES>  (29) 
Cc1cccc(CCC(=O)NCC(=O)[N-]c2ccc(C([NH-])=O)cc2)c1

>  <Energy>  (29) 
39.03713948984023

>  <Genealogy>  (29) 
Cc1cccc(CCC(=O)NCC(=O)[N-]c2ccc(C([NH-])=O)cc2)c1 (protonated)
Cc1cccc(CCC(=O)NCC(=O)[N-]c2ccc(C([NH-])=O)cc2)c1 (3D coordinates assigned)
Cc1cccc(CCC(=O)NCC(=O)[N-]c2ccc(C([NH-])=O)cc2)c1 (optimized conformer: 39.03713948984023 kcal/mol)

>  <smiles>  (29) 
Cc1cccc(CCC(=O)NCC(=O)Nc2ccc(C(N)=O)cc2)c1

>  <score_type>  (29) 
oracle

>  <origin>  (29) 
adg

>  <m_score__min__energy>  (29) 
-11.74

>  <m_primary>  (29) 
energy

$$$$
29:0
     RDKit          3D

 52 55  0  0  0  0  0  0  0  0999 V2000
   61.7568   29.5425   50.8060 H   0  0  0  0  0  0  0  0  0  0  0  0
   62.6850   30.1300   50.8630 C   0  0  0  0  0  0  0  0  0  0  0  0
   63.6500   29.9720   51.7910 N   0  0  0  0  0  0  0  0  0  0  0  0
   64.5850   30.8880   51.4620 C   0  0  0  0  0  0  0  0  0  0  0  0
   65.5183   31.0349   52.0254 H   0  0  0  0  0  0  0  0  0  0  0  0
   64.2530   31.6030   50.3700 N   0  0  0  0  0  0  0  0  0  0  0  0
   65.0740   32.6420   49.7550 C   0  0  0  0  0  0  0  0  0  0  0  0
   65.5510   33.2457   50.5412 H   0  0  0  0  0  0  0  0  0  0  0  0
   65.8495   32.1747   49.1303 H   0  0  0  0  0  0  0  0  0  0  0  0
   64.4401   33.2884   49.1303 H   0  0  0  0  0  0  0  0  0  0  0  0
   63.0410   31.1420   49.9960 C   0  0  0  0  0  0  0  0  0  0  0  0
   62.2350   31.5930   48.8420 C   0  0  0  0  0  0  0  0  0  0  0  0
   62.8190   31.8660   47.7580 O   0  0  0  0  0  0  0  0  0  0  0  0
   60.8040   31.6630   48.9150 N   0  0  0  0  0  0  0  0  0  0  0  0
   60.3160   31.0070   49.5650 H   0  0  0  0  0  0  0  0  0  0  0  0
   60.0140   32.3150   47.9090 C   0  0  0  0  0  0  0  0  0  0  0  0
   59.2590   31.5250   47.0300 C   0  0  0  0  0  0  0  0  0  0  0  0
   59.2737   30.4303   47.1373 H   0  0  0  0  0  0  0  0  0  0  0  0
   58.4830   32.1110   46.0130 C   0  0  0  0  0  0  0  0  0  0  0  0
   57.6850   31.2810   45.0720 C   0  0  0  0  0  0  0  0  0  0  0  0
   57.1170   30.1270   45.5190 N   0  0  0  0  0  0  0  0  0  0  0  0
   56.3700   29.3130   44.7240 C   0  0  0  0  0  0  0  0  0  0  0  0
   55.8730   28.2260   45.2430 N   0  0  0  0  0  0  0  0  0  0  0  0
   56.6110   27.0980   45.8160 C   0  0  0  0  0  0  0  0  0  0  0  0
   56.0744   26.7297   46.7028 H   0  0  0  0  0  0  0  0  0  0  0  0
   56.6873   26.3058   45.0567 H   0  0  0  0  0  0  0  0  0  0  0  0
   58.0030   27.5150   46.2190 C   0  0  0  0  0  0  0  0  0  0  0  0
   59.0180   27.6110   45.2520 C   0  0  0  0  0  0  0  0  0  0  0  0
   58.7973   27.3729   44.2010 H   0  0  0  0  0  0  0  0  0  0  0  0
   60.3080   28.0080   45.6200 C   0  0  0  0  0  0  0  0  0  0  0  0
   61.1000   28.0762   44.8597 H   0  0  0  0  0  0  0  0  0  0  0  0
   60.5910   28.3180   46.9530 C   0  0  0  0  0  0  0  0  0  0  0  0
   61.6065   28.6266   47.2421 H   0  0  0  0  0  0  0  0  0  0  0  0
   59.5840   28.2360   47.9190 C   0  0  0  0  0  0  0  0  0  0  0  0
   59.8076   28.4827   48.9674 H   0  0  0  0  0  0  0  0  0  0  0  0
   58.2930   27.8410   47.5550 C   0  0  0  0  0  0  0  0  0  0  0  0
   57.5016   27.7852   48.3170 H   0  0  0  0  0  0  0  0  0  0  0  0
   56.1630   29.6760   43.3790 C   0  0  0  0  0  0  0  0  0  0  0  0
   55.5637   29.0337   42.7170 H   0  0  0  0  0  0  0  0  0  0  0  0
   56.7240   30.8560   42.8940 C   0  0  0  0  0  0  0  0  0  0  0  0
   56.5658   31.1486   41.8455 H   0  0  0  0  0  0  0  0  0  0  0  0
   57.4860   31.6670   43.7360 C   0  0  0  0  0  0  0  0  0  0  0  0
   57.9271   32.6006   43.3568 H   0  0  0  0  0  0  0  0  0  0  0  0
   58.4510   33.5100   45.9080 C   0  0  0  0  0  0  0  0  0  0  0  0
   57.8472   33.9836   45.1199 H   0  0  0  0  0  0  0  0  0  0  0  0
   59.1780   34.3060   46.7940 C   0  0  0  0  0  0  0  0  0  0  0  0
   59.1482   35.4008   46.6919 H   0  0  0  0  0  0  0  0  0  0  0  0
   59.9460   33.7250   47.8130 C   0  0  0  0  0  0  0  0  0  0  0  0
   60.6790   34.6240   48.7740 C   0  0  0  0  0  0  0  0  0  0  0  0
   60.4393   34.3300   49.8065 H   0  0  0  0  0  0  0  0  0  0  0  0
   61.7626   34.5317   48.6086 H   0  0  0  0  0  0  0  0  0  0  0  0
   60.3704   35.6668   48.6086 H   0  0  0  0  0  0  0  0  0  0  0  0
  1  2  1  0
  2  3  1  0
  3  4  2  0
  4  5  1  0
  4  6  1  0
  6  7  1  0
  7  8  1  0
  7  9  1  0
  7 10  1  0
  6 11  1  0
 11 12  1  0
 12 13  2  0
 12 14  1  0
 14 15  1  0
 14 16  1  0
 16 17  2  0
 17 18  1  0
 17 19  1  0
 19 20  1  0
 20 21  1  0
 21 22  1  0
 22 23  2  0
 23 24  1  0
 24 25  1  0
 24 26  1  0
 24 27  1  0
 27 28  2  0
 28 29  1  0
 28 30  1  0
 30 31  1  0
 30 32  2  0
 32 33  1  0
 32 34  1  0
 34 35  1  0
 34 36  2  0
 36 37  1  0
 22 38  1  0
 38 39  1  0
 38 40  2  0
 40 41  1  0
 40 42  1  0
 42 43  1  0
 19 44  2  0
 44 45  1  0
 44 46  1  0
 46 47  1  0
 46 48  2  0
 48 49  1  0
 49 50  1  0
 49 51  1  0
 49 52  1  0
 11  2  2  0
 48 16  1  0
 42 20  2  0
 36 27  1  0
M  CHG  1  21  -1
M  END
>  <UniqueID>  (30) 
26

>  <SMILES>  (30) 
Cc1ccc(-c2ccc/c(=N\Cc3ccccc3)[n-]2)cc1NC(=O)c1cncn1C

>  <Energy>  (30) 
99.40987776479265

>  <Genealogy>  (30) 
Cc1ccc(-c2cccc(=NCc3ccccc3)[n-]2)cc1NC(=O)c1cncn1C (protonated)
Cc1ccc(-c2ccc/c(=N\Cc3ccccc3)[n-]2)cc1NC(=O)c1cncn1C (cis-trans isomerization)
Cc1ccc(-c2ccc/c(=N\Cc3ccccc3)[n-]2)cc1NC(=O)c1cncn1C (3D coordinates assigned)
Cc1ccc(-c2ccc/c(=N\Cc3ccccc3)[n-]2)cc1NC(=O)c1cncn1C (optimized conformer: 99.40987776479265 kcal/mol)

>  <smiles>  (30) 
Cc1ccc(-c2cccc(=NCc3ccccc3)[nH]2)cc1NC(=O)c1cncn1C

>  <score_type>  (30) 
oracle

>  <origin>  (30) 
adg

>  <m_score__min__energy>  (30) 
-11.029999999999999

>  <m_primary>  (30) 
energy

$$$$
30:0
     RDKit          3D

 37 40  0  0  0  0  0  0  0  0999 V2000
   57.3930   31.2560   43.1170 C   0  0  0  0  0  0  0  0  0  0  0  0
   58.4260   30.5850   43.8320 O   0  0  0  0  0  0  0  0  0  0  0  0
   58.2470   29.3920   44.5490 C   0  0  0  0  0  0  0  0  0  0  0  0
   56.9480   29.0220   44.9110 C   0  0  0  0  0  0  0  0  0  0  0  0
   56.7160   27.8450   45.6270 C   0  0  0  0  0  0  0  0  0  0  0  0
   57.7890   27.0180   45.9980 C   0  0  0  0  0  0  0  0  0  0  0  0
   57.5360   25.7530   46.7760 C   0  0  0  0  0  0  0  0  0  0  0  0
   57.1400   24.6640   45.8750 N   0  0  0  0  0  0  0  0  0  0  0  0
   58.0810   23.6920   45.3600 C   0  0  0  0  0  0  0  0  0  0  0  0
   59.3550   23.7150   45.5490 N   0  0  0  0  0  0  0  0  0  0  0  0
   59.9780   22.5730   44.8790 C   0  0  0  0  0  0  0  0  0  0  0  0
   58.8110   21.8080   44.2120 C   0  0  0  0  0  0  0  0  0  0  0  0
   57.6510   22.5970   44.5750 N   0  0  0  0  0  0  0  0  0  0  0  0
   56.2730   22.3950   44.2450 C   0  0  0  0  0  0  0  0  0  0  0  0
   55.8960   21.4180   43.5440 O   0  0  0  0  0  0  0  0  0  0  0  0
   55.3340   23.3880   44.7680 C   0  0  0  0  0  0  0  0  0  0  0  0
   54.0040   23.4340   44.6170 N   0  0  0  0  0  0  0  0  0  0  0  0
   53.6620   24.5490   45.3130 C   0  0  0  0  0  0  0  0  0  0  0  0
   54.7090   25.1950   45.8870 N   0  0  0  0  0  0  0  0  0  0  0  0
   55.7570   24.4390   45.5260 C   0  0  0  0  0  0  0  0  0  0  0  0
   59.0940   27.3820   45.6280 C   0  0  0  0  0  0  0  0  0  0  0  0
   59.3240   28.5600   44.9120 C   0  0  0  0  0  0  0  0  0  0  0  0
   56.6905   31.7123   43.8299 H   0  0  0  0  0  0  0  0  0  0  0  0
   57.8346   32.0401   42.4845 H   0  0  0  0  0  0  0  0  0  0  0  0
   56.8561   30.5337   42.4845 H   0  0  0  0  0  0  0  0  0  0  0  0
   56.1004   29.6640   44.6292 H   0  0  0  0  0  0  0  0  0  0  0  0
   55.6883   27.5647   45.9015 H   0  0  0  0  0  0  0  0  0  0  0  0
   58.4548   25.4659   47.3084 H   0  0  0  0  0  0  0  0  0  0  0  0
   56.7220   25.9341   47.4933 H   0  0  0  0  0  0  0  0  0  0  0  0
   59.8780   24.4370   46.0890 H   0  0  0  0  0  0  0  0  0  0  0  0
   60.6976   22.9160   44.1210 H   0  0  0  0  0  0  0  0  0  0  0  0
   60.5368   21.9383   45.5825 H   0  0  0  0  0  0  0  0  0  0  0  0
   58.9367   21.7700   43.1199 H   0  0  0  0  0  0  0  0  0  0  0  0
   58.7396   20.7594   44.5367 H   0  0  0  0  0  0  0  0  0  0  0  0
   52.6233   24.8994   45.4040 H   0  0  0  0  0  0  0  0  0  0  0  0
   59.9405   26.7358   45.9035 H   0  0  0  0  0  0  0  0  0  0  0  0
   60.3503   28.8385   44.6308 H   0  0  0  0  0  0  0  0  0  0  0  0
  1  2  1  0
  2  3  1  0
  3  4  2  0
  4  5  1  0
  5  6  2  0
  6  7  1  0
  7  8  1  0
  8  9  1  0
  9 10  2  0
 10 11  1  0
 11 12  1  0
 12 13  1  0
 13 14  1  0
 14 15  2  0
 14 16  1  0
 16 17  1  0
 17 18  1  0
 18 19  2  0
 19 20  1  0
  6 21  1  0
 21 22  2  0
 22  3  1  0
 20  8  1  0
 13  9  1  0
 20 16  2  0
  1 23  1  0
  1 24  1  0
  1 25  1  0
  4 26  1  0
  5 27  1  0
  7 28  1  0
  7 29  1  0
 10 30  1  0
 11 31  1  0
 11 32  1  0
 12 33  1  0
 12 34  1  0
 18 35  1  0
 21 36  1  0
 22 37  1  0
M  CHG  2  10   1  17  -1
M  END
>  <UniqueID>  (31) 
27

>  <SMILES>  (31) 
COc1ccc(CN2C3=[NH+]CCN3C(=O)c3[n-]cnc32)cc1

>  <Energy>  (31) 
84.9442225418621

>  <Genealogy>  (31) 
COc1ccc(CN2C3=[NH+]CCN3C(=O)c3[n-]cnc32)cc1 (protonated)
COc1ccc(CN2C3=[NH+]CCN3C(=O)c3[n-]cnc32)cc1 (3D coordinates assigned)
COc1ccc(CN2C3=[NH+]CCN3C(=O)c3[n-]cnc32)cc1 (nonaromatic ring conformer: 84.9442225418621 kcal/mol)

>  <smiles>  (31) 
COc1ccc(CN2C3=NCCN3C(=O)c3[nH]cnc32)cc1

>  <score_type>  (31) 
oracle

>  <origin>  (31) 
adg

>  <m_score__min__energy>  (31) 
-6.4000000000000004

>  <m_primary>  (31) 
energy

$$$$
31:0
     RDKit          3D

 49 51  0  0  0  0  0  0  0  0999 V2000
   62.9010   31.6960   47.5010 C   0  0  0  0  0  0  0  0  0  0  0  0
   61.6050   31.1940   47.1970 O   0  0  0  0  0  0  0  0  0  0  0  0
   60.7390   30.5950   48.1270 C   0  0  0  0  0  0  0  0  0  0  0  0
   60.7470   29.2000   48.3440 C   0  0  0  0  0  0  0  0  0  0  0  0
   59.8330   28.6140   49.2200 C   0  0  0  0  0  0  0  0  0  0  0  0
   58.9000   29.4020   49.8890 C   0  0  0  0  0  0  0  0  0  0  0  0
   58.8910   30.7850   49.7010 C   0  0  0  0  0  0  0  0  0  0  0  0
   59.8180   31.3990   48.8400 C   0  0  0  0  0  0  0  0  0  0  0  0
   59.7700   32.8720   48.6710 C   0  0  0  0  0  0  0  0  0  0  0  0
   59.3090   33.5810   49.6070 O   0  0  0  0  0  0  0  0  0  0  0  0
   60.2640   33.5060   47.4810 N   0  0  0  0  0  0  0  0  0  0  0  0
   60.0200   34.9280   47.2360 C   0  0  0  0  0  0  0  0  0  0  0  0
   59.8290   35.2330   45.7720 C   0  0  0  0  0  0  0  0  0  0  0  0
   59.6410   36.4320   45.4330 O   0  0  0  0  0  0  0  0  0  0  0  0
   59.8150   34.2290   44.7440 N   0  0  0  0  0  0  0  0  0  0  0  0
   58.8920   33.1500   44.5400 C   0  0  0  0  0  0  0  0  0  0  0  0
   58.4220   32.7940   43.2660 C   0  0  0  0  0  0  0  0  0  0  0  0
   57.5010   31.7520   43.1190 C   0  0  0  0  0  0  0  0  0  0  0  0
   57.0070   31.0760   44.2460 C   0  0  0  0  0  0  0  0  0  0  0  0
   56.0120   29.9900   44.0980 C   0  0  0  0  0  0  0  0  0  0  0  0
   55.4040   29.8490   43.0040 O   0  0  0  0  0  0  0  0  0  0  0  0
   55.7480   29.0640   45.1600 N   0  0  0  0  0  0  0  0  0  0  0  0
   56.6290   28.0070   45.5680 C   0  0  0  0  0  0  0  0  0  0  0  0
   58.0110   28.2080   45.4820 C   0  0  0  0  0  0  0  0  0  0  0  0
   58.8990   27.1980   45.8650 C   0  0  0  0  0  0  0  0  0  0  0  0
   58.4100   25.9710   46.3170 C   0  0  0  0  0  0  0  0  0  0  0  0
   57.0310   25.7480   46.3780 C   0  0  0  0  0  0  0  0  0  0  0  0
   56.1380   26.7550   45.9980 C   0  0  0  0  0  0  0  0  0  0  0  0
   54.7730   26.4890   46.0200 O   0  0  0  0  0  0  0  0  0  0  0  0
   57.4400   31.4670   45.5220 C   0  0  0  0  0  0  0  0  0  0  0  0
   58.3770   32.4930   45.6640 C   0  0  0  0  0  0  0  0  0  0  0  0
   63.0284   31.7453   48.5925 H   0  0  0  0  0  0  0  0  0  0  0  0
   63.6627   31.0279   47.0728 H   0  0  0  0  0  0  0  0  0  0  0  0
   63.0139   32.7029   47.0728 H   0  0  0  0  0  0  0  0  0  0  0  0
   61.4797   28.5702   47.8182 H   0  0  0  0  0  0  0  0  0  0  0  0
   59.8494   27.5262   49.3827 H   0  0  0  0  0  0  0  0  0  0  0  0
   58.1698   28.9344   50.5659 H   0  0  0  0  0  0  0  0  0  0  0  0
   58.1507   31.4014   50.2321 H   0  0  0  0  0  0  0  0  0  0  0  0
   60.8200   32.9460   46.7990 H   0  0  0  0  0  0  0  0  0  0  0  0
   59.1137   35.2303   47.7813 H   0  0  0  0  0  0  0  0  0  0  0  0
   60.9028   35.4850   47.5829 H   0  0  0  0  0  0  0  0  0  0  0  0
   58.7799   33.3373   42.3790 H   0  0  0  0  0  0  0  0  0  0  0  0
   57.1615   31.4602   42.1142 H   0  0  0  0  0  0  0  0  0  0  0  0
   58.4015   29.1669   45.1106 H   0  0  0  0  0  0  0  0  0  0  0  0
   59.9840   27.3705   45.8101 H   0  0  0  0  0  0  0  0  0  0  0  0
   59.1094   25.1798   46.6251 H   0  0  0  0  0  0  0  0  0  0  0  0
   56.6473   24.7776   46.7259 H   0  0  0  0  0  0  0  0  0  0  0  0
   57.0398   30.9634   46.4143 H   0  0  0  0  0  0  0  0  0  0  0  0
   58.7137   32.7878   46.6689 H   0  0  0  0  0  0  0  0  0  0  0  0
  1  2  1  0
  2  3  1  0
  3  4  2  0
  4  5  1  0
  5  6  2  0
  6  7  1  0
  7  8  2  0
  8  9  1  0
  9 10  2  0
  9 11  1  0
 11 12  1  0
 12 13  1  0
 13 14  2  0
 13 15  1  0
 15 16  1  0
 16 17  2  0
 17 18  1  0
 18 19  2  0
 19 20  1  0
 20 21  2  0
 20 22  1  0
 22 23  1  0
 23 24  2  0
 24 25  1  0
 25 26  2  0
 26 27  1  0
 27 28  2  0
 28 29  1  0
 19 30  1  0
 30 31  2  0
  8  3  1  0
 31 16  1  0
 28 23  1  0
  1 32  1  0
  1 33  1  0
  1 34  1  0
  4 35  1  0
  5 36  1  0
  6 37  1  0
  7 38  1  0
 11 39  1  0
 12 40  1  0
 12 41  1  0
 17 42  1  0
 18 43  1  0
 24 44  1  0
 25 45  1  0
 26 46  1  0
 27 47  1  0
 30 48  1  0
 31 49  1  0
M  CHG  3  15  -1  22  -1  29  -1
M  END
>  <UniqueID>  (32) 
28

>  <SMILES>  (32) 
COc1ccccc1C(=O)NCC(=O)[N-]c1ccc(C(=O)[N-]c2ccccc2[O-])cc1

>  <Energy>  (32) 
64.97795492287878

>  <Genealogy>  (32) 
COc1ccccc1C(=O)NCC(=O)[N-]c1ccc(C(=O)[N-]c2ccccc2[O-])cc1 (protonated)
COc1ccccc1C(=O)NCC(=O)[N-]c1ccc(C(=O)[N-]c2ccccc2[O-])cc1 (3D coordinates assigned)
COc1ccccc1C(=O)NCC(=O)[N-]c1ccc(C(=O)[N-]c2ccccc2[O-])cc1 (optimized conformer: 64.97795492287878 kcal/mol)

>  <smiles>  (32) 
COc1ccccc1C(=O)NCC(=O)Nc1ccc(C(=O)Nc2ccccc2O)cc1

>  <score_type>  (32) 
oracle

>  <origin>  (32) 
adg

>  <m_score__min__energy>  (32) 
-15

>  <m_primary>  (32) 
energy

$$$$
32:0
     RDKit          3D

 48 50  0  0  0  0  0  0  0  0999 V2000
   56.3310   29.3600   43.6150 C   0  0  0  0  0  0  0  0  0  0  0  0
   57.0010   29.0520   44.8760 N   0  0  0  0  0  0  0  0  0  0  0  0
   56.6460   28.1060   45.7660 C   0  0  0  0  0  0  0  0  0  0  0  0
   55.5330   27.2880   45.6280 O   0  0  0  0  0  0  0  0  0  0  0  0
   57.5360   28.0530   46.8190 C   0  0  0  0  0  0  0  0  0  0  0  0
   58.4930   29.0180   46.5490 C   0  0  0  0  0  0  0  0  0  0  0  0
   59.6420   29.3300   47.3640 N   0  0  0  0  0  0  0  0  0  0  0  0
   60.2670   30.6530   47.2880 C   0  0  0  0  0  0  0  0  0  0  0  0
   61.6770   30.6300   47.8940 C   0  0  0  0  0  0  0  0  0  0  0  0
   61.7040   30.0850   49.2750 N   0  0  0  0  0  0  0  0  0  0  0  0
   61.5370   31.1410   50.2940 C   0  0  0  0  0  0  0  0  0  0  0  0
   62.1700   32.4250   49.8510 C   0  0  0  0  0  0  0  0  0  0  0  0
   63.4250   32.5500   49.8960 O   0  0  0  0  0  0  0  0  0  0  0  0
   61.3340   33.5190   49.4590 N   0  0  0  0  0  0  0  0  0  0  0  0
   60.4330   33.5660   48.3440 C   0  0  0  0  0  0  0  0  0  0  0  0
   59.0990   33.2020   48.5530 C   0  0  0  0  0  0  0  0  0  0  0  0
   58.1890   33.1970   47.4930 C   0  0  0  0  0  0  0  0  0  0  0  0
   58.6070   33.5540   46.2040 C   0  0  0  0  0  0  0  0  0  0  0  0
   57.4750   33.5120   44.8560 S   0  0  0  0  0  0  0  0  0  0  0  0
   56.4360   32.1430   45.0200 N   0  0  0  0  0  0  0  0  0  0  0  0
   58.2280   33.4230   43.5630 O   0  0  0  0  0  0  0  0  0  0  0  0
   56.6450   34.7610   44.8460 O   0  0  0  0  0  0  0  0  0  0  0  0
   59.9410   33.9060   45.9860 C   0  0  0  0  0  0  0  0  0  0  0  0
   60.8530   33.9030   47.0460 C   0  0  0  0  0  0  0  0  0  0  0  0
   60.7490   28.9710   49.5160 C   0  0  0  0  0  0  0  0  0  0  0  0
   60.2430   28.3110   48.2300 C   0  0  0  0  0  0  0  0  0  0  0  0
   58.1360   29.6050   45.3460 C   0  0  0  0  0  0  0  0  0  0  0  0
   58.8380   30.6210   44.7030 O   0  0  0  0  0  0  0  0  0  0  0  0
   55.3494   29.8112   43.8220 H   0  0  0  0  0  0  0  0  0  0  0  0
   56.9447   30.0664   43.0367 H   0  0  0  0  0  0  0  0  0  0  0  0
   56.1944   28.4343   43.0367 H   0  0  0  0  0  0  0  0  0  0  0  0
   57.4945   27.3840   47.6912 H   0  0  0  0  0  0  0  0  0  0  0  0
   60.3334   30.9596   46.2337 H   0  0  0  0  0  0  0  0  0  0  0  0
   59.6518   31.3648   47.8579 H   0  0  0  0  0  0  0  0  0  0  0  0
   62.3222   30.0062   47.2579 H   0  0  0  0  0  0  0  0  0  0  0  0
   62.0322   31.6699   47.9427 H   0  0  0  0  0  0  0  0  0  0  0  0
   60.4633   31.3098   50.4635 H   0  0  0  0  0  0  0  0  0  0  0  0
   62.0284   30.8116   51.2214 H   0  0  0  0  0  0  0  0  0  0  0  0
   58.7632   32.9171   49.5610 H   0  0  0  0  0  0  0  0  0  0  0  0
   57.1415   32.9120   47.6707 H   0  0  0  0  0  0  0  0  0  0  0  0
   56.8500   31.3770   44.4400 H   0  0  0  0  0  0  0  0  0  0  0  0
   60.2755   34.1867   44.9764 H   0  0  0  0  0  0  0  0  0  0  0  0
   61.9053   34.1660   46.8628 H   0  0  0  0  0  0  0  0  0  0  0  0
   61.2530   28.2060   50.1249 H   0  0  0  0  0  0  0  0  0  0  0  0
   59.8736   29.3999   50.0256 H   0  0  0  0  0  0  0  0  0  0  0  0
   61.0847   27.8343   47.7063 H   0  0  0  0  0  0  0  0  0  0  0  0
   59.4893   27.5497   48.4795 H   0  0  0  0  0  0  0  0  0  0  0  0
   58.3800   31.4600   44.3820 H   0  0  0  0  0  0  0  0  0  0  0  0
  1  2  1  0
  2  3  1  0
  3  4  1  0
  3  5  2  0
  5  6  1  0
  6  7  1  0
  7  8  1  0
  8  9  1  0
  9 10  1  0
 10 11  1  0
 11 12  1  0
 12 13  2  0
 12 14  1  0
 14 15  1  0
 15 16  2  0
 16 17  1  0
 17 18  2  0
 18 19  1  0
 19 20  1  0
 19 21  2  0
 19 22  2  0
 18 23  1  0
 23 24  2  0
 10 25  1  0
 25 26  1  0
  6 27  2  0
 27 28  1  0
 27  2  1  0
 26  7  1  0
 24 15  1  0
  1 29  1  0
  1 30  1  0
  1 31  1  0
  5 32  1  0
  8 33  1  0
  8 34  1  0
  9 35  1  0
  9 36  1  0
 11 37  1  0
 11 38  1  0
 16 39  1  0
 17 40  1  0
 20 41  1  0
 23 42  1  0
 24 43  1  0
 25 44  1  0
 25 45  1  0
 26 46  1  0
 26 47  1  0
 28 48  1  0
M  CHG  3   4  -1  14  -1  20  -1
M  END
>  <UniqueID>  (33) 
29

>  <SMILES>  (33) 
Cn1c([O-])cc(N2CCN(CC(=O)[N-]c3ccc(S([NH-])(=O)=O)cc3)CC2)c1O

>  <Energy>  (33) 
89.2014505254051

>  <Genealogy>  (33) 
Cn1c([O-])cc(N2CCN(CC(=O)[N-]c3ccc(S([NH-])(=O)=O)cc3)CC2)c1O (protonated)
Cn1c([O-])cc(N2CCN(CC(=O)[N-]c3ccc(S([NH-])(=O)=O)cc3)CC2)c1O (3D coordinates assigned)
Cn1c([O-])cc(N2CCN(CC(=O)[N-]c3ccc(S([NH-])(=O)=O)cc3)CC2)c1O (nonaromatic ring conformer: 89.2014505254051 kcal/mol)

>  <smiles>  (33) 
Cn1c(O)cc(N2CCN(CC(=O)Nc3ccc(S(N)(=O)=O)cc3)CC2)c1O

>  <score_type>  (33) 
oracle

>  <origin>  (33) 
adg

>  <m_score__min__energy>  (33) 
-14

>  <m_primary>  (33) 
energy

$$$$
33:0
     RDKit          3D

 26 27  0  0  0  0  0  0  0  0999 V2000
   55.1360   29.3440   44.8510 N   0  0  0  0  0  0  0  0  0  0  0  0
   56.7670   29.8000   44.5070 S   0  0  0  0  0  0  0  0  0  0  0  0
   56.9750   29.8360   43.0190 O   0  0  0  0  0  0  0  0  0  0  0  0
   57.0360   31.1690   45.0670 O   0  0  0  0  0  0  0  0  0  0  0  0
   57.8650   28.6330   45.2350 C   0  0  0  0  0  0  0  0  0  0  0  0
   59.2490   28.7620   45.0580 C   0  0  0  0  0  0  0  0  0  0  0  0
   60.1180   27.8190   45.6120 C   0  0  0  0  0  0  0  0  0  0  0  0
   59.6110   26.7450   46.3480 C   0  0  0  0  0  0  0  0  0  0  0  0
   58.2280   26.6110   46.5490 C   0  0  0  0  0  0  0  0  0  0  0  0
   57.7290   25.4820   47.2870 N   0  0  0  0  0  0  0  0  0  0  0  0
   56.4440   24.8790   47.0610 C   0  0  0  0  0  0  0  0  0  0  0  0
   55.5760   25.4700   46.3640 O   0  0  0  0  0  0  0  0  0  0  0  0
   56.1120   23.5840   47.6720 C   0  0  0  0  0  0  0  0  0  0  0  0
   57.0410   22.7360   48.1630 N   0  0  0  0  0  0  0  0  0  0  0  0
   56.3210   21.6940   48.6130 C   0  0  0  0  0  0  0  0  0  0  0  0
   54.9860   21.9330   48.3840 C   0  0  0  0  0  0  0  0  0  0  0  0
   54.8460   23.1290   47.7870 N   0  0  0  0  0  0  0  0  0  0  0  0
   57.3570   27.5500   45.9680 C   0  0  0  0  0  0  0  0  0  0  0  0
   55.1720   28.6440   45.6250 H   0  0  0  0  0  0  0  0  0  0  0  0
   59.6521   29.6077   44.4815 H   0  0  0  0  0  0  0  0  0  0  0  0
   61.2037   27.9222   45.4685 H   0  0  0  0  0  0  0  0  0  0  0  0
   60.2998   25.9998   46.7726 H   0  0  0  0  0  0  0  0  0  0  0  0
   58.2980   25.1390   48.0950 H   0  0  0  0  0  0  0  0  0  0  0  0
   56.7341   20.7926   49.0892 H   0  0  0  0  0  0  0  0  0  0  0  0
   54.1628   21.2527   48.6478 H   0  0  0  0  0  0  0  0  0  0  0  0
   56.2698   27.4345   46.0891 H   0  0  0  0  0  0  0  0  0  0  0  0
  1  2  1  0
  2  3  2  0
  2  4  2  0
  2  5  1  0
  5  6  2  0
  6  7  1  0
  7  8  2  0
  8  9  1  0
  9 10  1  0
 10 11  1  0
 11 12  2  0
 11 13  1  0
 13 14  2  0
 14 15  1  0
 15 16  2  0
 16 17  1  0
  9 18  2  0
 18  5  1  0
 17 13  1  0
  1 19  1  0
  6 20  1  0
  7 21  1  0
  8 22  1  0
 10 23  1  0
 15 24  1  0
 16 25  1  0
 18 26  1  0
M  CHG  2   1  -1  17  -1
M  END
>  <UniqueID>  (34) 
30

>  <SMILES>  (34) 
[NH-]S(=O)(=O)c1cccc(NC(=O)c2ncc[n-]2)c1

>  <Energy>  (34) 
55.95763717836913

>  <Genealogy>  (34) 
[NH-]S(=O)(=O)c1cccc(NC(=O)c2ncc[n-]2)c1 (protonated)
[NH-]S(=O)(=O)c1cccc(NC(=O)c2ncc[n-]2)c1 (3D coordinates assigned)
[NH-]S(=O)(=O)c1cccc(NC(=O)c2ncc[n-]2)c1 (optimized conformer: 55.95763717836913 kcal/mol)

>  <smiles>  (34) 
NS(=O)(=O)c1cccc(NC(=O)c2ncc[nH]2)c1

>  <score_type>  (34) 
oracle

>  <origin>  (34) 
adg

>  <m_score__min__energy>  (34) 
-11.300000000000001

>  <m_primary>  (34) 
energy

$$$$
34:0
     RDKit          3D

 42 44  0  0  0  0  0  0  0  0999 V2000
   58.6370   32.3030   50.4170 O   0  0  0  0  0  0  0  0  0  0  0  0
   59.2300   31.6740   49.5000 C   0  0  0  0  0  0  0  0  0  0  0  0
   58.8280   30.4140   49.2040 N   0  0  0  0  0  0  0  0  0  0  0  0
   59.4100   29.6910   48.2160 C   0  0  0  0  0  0  0  0  0  0  0  0
   58.9900   28.3820   47.9920 O   0  0  0  0  0  0  0  0  0  0  0  0
   60.4410   30.2610   47.4520 C   0  0  0  0  0  0  0  0  0  0  0  0
   61.1090   29.5210   46.3530 C   0  0  0  0  0  0  0  0  0  0  0  0
   60.4470   29.0890   45.2700 C   0  0  0  0  0  0  0  0  0  0  0  0
   58.9690   29.1190   45.1340 C   0  0  0  0  0  0  0  0  0  0  0  0
   58.3620   30.3020   44.6770 C   0  0  0  0  0  0  0  0  0  0  0  0
   56.9750   30.3780   44.5250 C   0  0  0  0  0  0  0  0  0  0  0  0
   56.1760   29.2690   44.8190 C   0  0  0  0  0  0  0  0  0  0  0  0
   54.7970   29.3460   44.6680 O   0  0  0  0  0  0  0  0  0  0  0  0
   56.7660   28.0830   45.2610 C   0  0  0  0  0  0  0  0  0  0  0  0
   58.1550   28.0020   45.4140 C   0  0  0  0  0  0  0  0  0  0  0  0
   60.8680   31.5590   47.7850 C   0  0  0  0  0  0  0  0  0  0  0  0
   61.8000   32.0940   47.1220 O   0  0  0  0  0  0  0  0  0  0  0  0
   60.2690   32.2490   48.8110 N   0  0  0  0  0  0  0  0  0  0  0  0
   60.6990   33.6240   49.1320 C   0  0  0  0  0  0  0  0  0  0  0  0
   59.6380   34.6320   48.6800 C   0  0  0  0  0  0  0  0  0  0  0  0
   59.1790   34.3280   47.2790 C   0  0  0  0  0  0  0  0  0  0  0  0
   59.9640   34.7090   46.1790 C   0  0  0  0  0  0  0  0  0  0  0  0
   59.5200   34.4560   44.8770 C   0  0  0  0  0  0  0  0  0  0  0  0
   58.2870   33.8320   44.6660 C   0  0  0  0  0  0  0  0  0  0  0  0
   57.4940   33.4630   45.7560 C   0  0  0  0  0  0  0  0  0  0  0  0
   56.2950   32.8650   45.5490 F   0  0  0  0  0  0  0  0  0  0  0  0
   57.9350   33.7140   47.0590 C   0  0  0  0  0  0  0  0  0  0  0  0
   58.6330   27.8130   48.7480 H   0  0  0  0  0  0  0  0  0  0  0  0
   62.1876   29.3193   46.4296 H   0  0  0  0  0  0  0  0  0  0  0  0
   61.0348   28.6879   44.4312 H   0  0  0  0  0  0  0  0  0  0  0  0
   58.9850   31.1762   44.4368 H   0  0  0  0  0  0  0  0  0  0  0  0
   56.5112   31.3115   44.1736 H   0  0  0  0  0  0  0  0  0  0  0  0
   56.1373   27.2098   45.4896 H   0  0  0  0  0  0  0  0  0  0  0  0
   58.6140   27.0621   45.7544 H   0  0  0  0  0  0  0  0  0  0  0  0
   60.8455   33.7141   50.2185 H   0  0  0  0  0  0  0  0  0  0  0  0
   61.6414   33.8362   48.6058 H   0  0  0  0  0  0  0  0  0  0  0  0
   58.7763   34.5797   49.3618 H   0  0  0  0  0  0  0  0  0  0  0  0
   60.0774   35.6403   48.6976 H   0  0  0  0  0  0  0  0  0  0  0  0
   60.9308   35.2078   46.3416 H   0  0  0  0  0  0  0  0  0  0  0  0
   60.1418   34.7484   44.0180 H   0  0  0  0  0  0  0  0  0  0  0  0
   57.9407   33.6313   43.6414 H   0  0  0  0  0  0  0  0  0  0  0  0
   57.3053   33.4295   47.9149 H   0  0  0  0  0  0  0  0  0  0  0  0
  1  2  2  0
  2  3  1  0
  3  4  1  0
  4  5  1  0
  4  6  2  0
  6  7  1  0
  7  8  2  3
  8  9  1  0
  9 10  2  0
 10 11  1  0
 11 12  2  0
 12 13  1  0
 12 14  1  0
 14 15  2  0
  6 16  1  0
 16 17  2  0
 16 18  1  0
 18 19  1  0
 19 20  1  0
 20 21  1  0
 21 22  2  0
 22 23  1  0
 23 24  2  0
 24 25  1  0
 25 26  1  0
 25 27  2  0
 18  2  1  0
 27 21  1  0
 15  9  1  0
  5 28  1  0
  7 29  1  0
  8 30  1  0
 10 31  1  0
 11 32  1  0
 14 33  1  0
 15 34  1  0
 19 35  1  0
 19 36  1  0
 20 37  1  0
 20 38  1  0
 22 39  1  0
 23 40  1  0
 24 41  1  0
 27 42  1  0
M  CHG  2   3  -1  13  -1
M  END
>  <UniqueID>  (35) 
31

>  <SMILES>  (35) 
O=c1[n-]c(O)c(C=Cc2ccc([O-])cc2)c(=O)n1CCc1cccc(F)c1

>  <Energy>  (35) 
53.93392157528187

>  <Genealogy>  (35) 
O=c1[n-]c(O)c(C=Cc2ccc([O-])cc2)c(=O)n1CCc1cccc(F)c1 (protonated)
O=c1[n-]c(O)c(C=Cc2ccc([O-])cc2)c(=O)n1CCc1cccc(F)c1 (3D coordinates assigned)
O=c1[n-]c(O)c(C=Cc2ccc([O-])cc2)c(=O)n1CCc1cccc(F)c1 (optimized conformer: 53.93392157528187 kcal/mol)

>  <smiles>  (35) 
O=c1[nH]c(O)c(C=Cc2ccc(O)cc2)c(=O)n1CCc1cccc(F)c1

>  <score_type>  (35) 
oracle

>  <origin>  (35) 
adg

>  <m_score__min__energy>  (35) 
-12.279999999999999

>  <m_primary>  (35) 
energy

$$$$
35:0
     RDKit          3D

 50 52  0  0  0  0  0  0  0  0999 V2000
   57.0910   31.6050   44.6340 C   0  0  0  0  0  0  0  0  0  0  0  0
   57.9230   32.5480   45.4450 C   0  0  0  0  0  0  0  0  0  0  0  0
   58.3800   33.7500   44.8940 C   0  0  0  0  0  0  0  0  0  0  0  0
   59.1610   34.5960   45.6890 C   0  0  0  0  0  0  0  0  0  0  0  0
   59.6360   35.9100   45.1580 C   0  0  0  0  0  0  0  0  0  0  0  0
   59.4480   34.2400   46.9700 N   0  0  0  0  0  0  0  0  0  0  0  0
   59.0080   33.0620   47.4830 C   0  0  0  0  0  0  0  0  0  0  0  0
   59.3760   32.6320   49.1810 S   0  0  0  0  0  0  0  0  0  0  0  0
   60.7920   31.5530   48.7610 C   0  0  0  0  0  0  0  0  0  0  0  0
   60.3480   30.3770   47.9330 C   0  0  0  0  0  0  0  0  0  0  0  0
   59.2860   29.5660   48.3610 C   0  0  0  0  0  0  0  0  0  0  0  0
   58.8330   28.5140   47.5610 C   0  0  0  0  0  0  0  0  0  0  0  0
   59.4410   28.2470   46.3200 C   0  0  0  0  0  0  0  0  0  0  0  0
   58.9530   27.1470   45.4520 C   0  0  0  0  0  0  0  0  0  0  0  0
   58.7090   27.3830   44.2380 O   0  0  0  0  0  0  0  0  0  0  0  0
   58.8000   25.8140   45.9670 N   0  0  0  0  0  0  0  0  0  0  0  0
   57.9290   24.8260   45.3840 C   0  0  0  0  0  0  0  0  0  0  0  0
   58.4310   23.4240   44.6050 S   0  0  0  0  0  0  0  0  0  0  0  0
   56.8990   22.8190   44.2750 C   0  0  0  0  0  0  0  0  0  0  0  0
   56.6640   21.5180   43.6180 C   0  0  0  0  0  0  0  0  0  0  0  0
   56.1690   21.4790   42.2820 N   0  0  0  0  0  0  0  0  0  0  0  0
   56.9160   20.4370   44.2130 O   0  0  0  0  0  0  0  0  0  0  0  0
   55.9470   23.7340   44.7550 C   0  0  0  0  0  0  0  0  0  0  0  0
   54.4620   23.5430   44.5850 C   0  0  0  0  0  0  0  0  0  0  0  0
   56.5290   24.8580   45.3970 C   0  0  0  0  0  0  0  0  0  0  0  0
   55.7460   25.9350   46.0370 C   0  0  0  0  0  0  0  0  0  0  0  0
   54.3410   26.0280   45.8140 N   0  0  0  0  0  0  0  0  0  0  0  0
   56.3140   26.7760   46.7830 O   0  0  0  0  0  0  0  0  0  0  0  0
   60.5020   29.0660   45.8950 C   0  0  0  0  0  0  0  0  0  0  0  0
   60.9520   30.1190   46.6950 C   0  0  0  0  0  0  0  0  0  0  0  0
   58.2590   32.2240   46.7200 N   0  0  0  0  0  0  0  0  0  0  0  0
   56.5153   30.9525   45.3068 H   0  0  0  0  0  0  0  0  0  0  0  0
   56.3996   32.1789   43.9995 H   0  0  0  0  0  0  0  0  0  0  0  0
   57.7465   30.9905   43.9995 H   0  0  0  0  0  0  0  0  0  0  0  0
   58.1307   34.0240   43.8583 H   0  0  0  0  0  0  0  0  0  0  0  0
   59.8778   36.5788   45.9972 H   0  0  0  0  0  0  0  0  0  0  0  0
   60.5345   35.7538   44.5430 H   0  0  0  0  0  0  0  0  0  0  0  0
   58.8452   36.3644   44.5430 H   0  0  0  0  0  0  0  0  0  0  0  0
   61.5312   32.1353   48.1913 H   0  0  0  0  0  0  0  0  0  0  0  0
   61.2344   31.1765   49.6951 H   0  0  0  0  0  0  0  0  0  0  0  0
   58.8072   29.7596   49.3322 H   0  0  0  0  0  0  0  0  0  0  0  0
   57.9947   27.8896   47.9036 H   0  0  0  0  0  0  0  0  0  0  0  0
   59.3840   25.5430   46.7880 H   0  0  0  0  0  0  0  0  0  0  0  0
   56.3740   22.2540   41.6130 H   0  0  0  0  0  0  0  0  0  0  0  0
   53.9846   23.4816   45.5741 H   0  0  0  0  0  0  0  0  0  0  0  0
   54.0441   24.3948   44.0284 H   0  0  0  0  0  0  0  0  0  0  0  0
   54.2733   22.6132   44.0284 H   0  0  0  0  0  0  0  0  0  0  0  0
   53.7560   26.7010   46.3580 H   0  0  0  0  0  0  0  0  0  0  0  0
   60.9820   28.8758   44.9237 H   0  0  0  0  0  0  0  0  0  0  0  0
   61.7853   30.7494   46.3512 H   0  0  0  0  0  0  0  0  0  0  0  0
  1  2  1  0
  2  3  2  0
  3  4  1  0
  4  5  1  0
  4  6  2  0
  6  7  1  0
  7  8  1  0
  8  9  1  0
  9 10  1  0
 10 11  2  0
 11 12  1  0
 12 13  2  0
 13 14  1  0
 14 15  2  0
 14 16  1  0
 16 17  1  0
 17 18  1  0
 18 19  1  0
 19 20  1  0
 20 21  1  0
 20 22  2  0
 19 23  2  0
 23 24  1  0
 23 25  1  0
 25 26  1  0
 26 27  1  0
 26 28  2  0
 13 29  1  0
 29 30  2  0
  7 31  2  0
 31  2  1  0
 30 10  1  0
 25 17  2  0
  1 32  1  0
  1 33  1  0
  1 34  1  0
  3 35  1  0
  5 36  1  0
  5 37  1  0
  5 38  1  0
  9 39  1  0
  9 40  1  0
 11 41  1  0
 12 42  1  0
 16 43  1  0
 21 44  1  0
 24 45  1  0
 24 46  1  0
 24 47  1  0
 27 48  1  0
 29 49  1  0
 30 50  1  0
M  CHG  2  21  -1  27  -1
M  END
>  <UniqueID>  (36) 
32

>  <SMILES>  (36) 
Cc1cc(C)nc(SCc2ccc(C(=O)Nc3sc(C([NH-])=O)c(C)c3C([NH-])=O)cc2)n1

>  <Energy>  (36) 
80.9231321353857

>  <Genealogy>  (36) 
Cc1cc(C)nc(SCc2ccc(C(=O)Nc3sc(C([NH-])=O)c(C)c3C([NH-])=O)cc2)n1 (protonated)
Cc1cc(C)nc(SCc2ccc(C(=O)Nc3sc(C([NH-])=O)c(C)c3C([NH-])=O)cc2)n1 (3D coordinates assigned)
Cc1cc(C)nc(SCc2ccc(C(=O)Nc3sc(C([NH-])=O)c(C)c3C([NH-])=O)cc2)n1 (optimized conformer: 80.9231321353857 kcal/mol)

>  <smiles>  (36) 
Cc1cc(C)nc(SCc2ccc(C(=O)Nc3sc(C(N)=O)c(C)c3C(N)=O)cc2)n1

>  <score_type>  (36) 
oracle

>  <origin>  (36) 
adg

>  <m_score__min__energy>  (36) 
-13.69

>  <m_primary>  (36) 
energy

$$$$
36:0
     RDKit          3D

 34 36  0  0  0  0  0  0  0  0999 V2000
   54.4982   24.8829   46.3086 H   0  0  0  0  0  0  0  0  0  0  0  0
   55.4300   25.3670   45.9810 C   0  0  0  0  0  0  0  0  0  0  0  0
   55.5420   26.7210   46.0190 N   0  0  0  0  0  0  0  0  0  0  0  0
   56.6760   27.3640   45.6130 C   0  0  0  0  0  0  0  0  0  0  0  0
   56.7690   28.6610   45.6690 N   0  0  0  0  0  0  0  0  0  0  0  0
   56.1460   29.5870   44.7670 C   0  0  0  0  0  0  0  0  0  0  0  0
   54.9800   29.3450   44.3610 O   0  0  0  0  0  0  0  0  0  0  0  0
   56.8030   30.8430   44.3510 C   0  0  0  0  0  0  0  0  0  0  0  0
   57.0020   31.8620   45.2310 N   0  0  0  0  0  0  0  0  0  0  0  0
   57.6450   32.9000   44.6540 C   0  0  0  0  0  0  0  0  0  0  0  0
   57.9580   34.0030   45.2660 N   0  0  0  0  0  0  0  0  0  0  0  0
   59.0770   34.1950   46.1440 C   0  0  0  0  0  0  0  0  0  0  0  0
   60.0330   34.9500   45.8180 O   0  0  0  0  0  0  0  0  0  0  0  0
   59.1150   33.4690   47.3780 N   0  0  0  0  0  0  0  0  0  0  0  0
   59.2630   32.0500   47.5310 C   0  0  0  0  0  0  0  0  0  0  0  0
   58.9030   31.3850   48.7160 C   0  0  0  0  0  0  0  0  0  0  0  0
   58.5101   31.9588   49.5682 H   0  0  0  0  0  0  0  0  0  0  0  0
   59.0420   29.9990   48.8160 C   0  0  0  0  0  0  0  0  0  0  0  0
   58.7691   29.4876   49.7509 H   0  0  0  0  0  0  0  0  0  0  0  0
   59.5270   29.2570   47.7320 C   0  0  0  0  0  0  0  0  0  0  0  0
   59.6860   27.5140   47.8960 Cl  0  0  0  0  0  0  0  0  0  0  0  0
   59.8650   29.9120   46.5370 C   0  0  0  0  0  0  0  0  0  0  0  0
   60.4640   29.0180   45.1460 Cl  0  0  0  0  0  0  0  0  0  0  0  0
   59.7240   31.3010   46.4400 C   0  0  0  0  0  0  0  0  0  0  0  0
   59.9775   31.8098   45.4982 H   0  0  0  0  0  0  0  0  0  0  0  0
   58.0090   32.5990   43.0450 S   0  0  0  0  0  0  0  0  0  0  0  0
   57.3130   31.0660   43.0710 C   0  0  0  0  0  0  0  0  0  0  0  0
   57.2681   30.3628   42.2264 H   0  0  0  0  0  0  0  0  0  0  0  0
   57.7680   26.6140   45.1600 C   0  0  0  0  0  0  0  0  0  0  0  0
   58.6927   27.1177   44.8420 H   0  0  0  0  0  0  0  0  0  0  0  0
   57.6740   25.2210   45.1150 C   0  0  0  0  0  0  0  0  0  0  0  0
   58.5245   24.6224   44.7566 H   0  0  0  0  0  0  0  0  0  0  0  0
   56.4980   24.5900   45.5260 C   0  0  0  0  0  0  0  0  0  0  0  0
   56.4136   23.4938   45.4919 H   0  0  0  0  0  0  0  0  0  0  0  0
  1  2  1  0
  2  3  1  0
  3  4  1  0
  4  5  2  0
  5  6  1  0
  6  7  2  0
  6  8  1  0
  8  9  1  0
  9 10  1  0
 10 11  2  3
 11 12  1  0
 12 13  2  0
 12 14  1  0
 14 15  1  0
 15 16  2  0
 16 17  1  0
 16 18  1  0
 18 19  1  0
 18 20  2  0
 20 21  1  0
 20 22  1  0
 22 23  1  0
 22 24  2  0
 24 25  1  0
 10 26  1  0
 26 27  1  0
 27 28  1  0
  4 29  1  0
 29 30  1  0
 29 31  2  0
 31 32  1  0
 31 33  1  0
 33 34  1  0
 33  2  2  0
 27  8  2  0
 24 15  1  0
M  CHG  3   3  -1   9  -1  14  -1
M  END
>  <UniqueID>  (37) 
33

>  <SMILES>  (37) 
O=C(N=c1[n-]c(C(=O)/N=c2/cccc[n-]2)cs1)[N-]c1ccc(Cl)c(Cl)c1

>  <Energy>  (37) 
80.19225457905543

>  <Genealogy>  (37) 
O=C(N=c1[n-]c(C(=O)N=c2cccc[n-]2)cs1)[N-]c1ccc(Cl)c(Cl)c1 (protonated)
O=C(N=c1[n-]c(C(=O)/N=c2/cccc[n-]2)cs1)[N-]c1ccc(Cl)c(Cl)c1 (cis-trans isomerization)
O=C(N=c1[n-]c(C(=O)/N=c2/cccc[n-]2)cs1)[N-]c1ccc(Cl)c(Cl)c1 (3D coordinates assigned)
O=C(N=c1[n-]c(C(=O)/N=c2/cccc[n-]2)cs1)[N-]c1ccc(Cl)c(Cl)c1 (optimized conformer: 80.19225457905543 kcal/mol)

>  <smiles>  (37) 
O=C(N=c1[nH]c(C(=O)N=c2cccc[nH]2)cs1)Nc1ccc(Cl)c(Cl)c1

>  <score_type>  (37) 
oracle

>  <origin>  (37) 
adg

>  <m_score__min__energy>  (37) 
-12.74

>  <m_primary>  (37) 
energy

$$$$
37:0
     RDKit          3D

 40 42  0  0  0  0  0  0  0  0999 V2000
   55.2860   29.4470   43.0260 O   0  0  0  0  0  0  0  0  0  0  0  0
   55.8790   29.7330   44.1010 C   0  0  0  0  0  0  0  0  0  0  0  0
   55.7720   28.8730   45.2400 N   0  0  0  0  0  0  0  0  0  0  0  0
   56.7790   27.8810   45.5990 C   0  0  0  0  0  0  0  0  0  0  0  0
   58.1270   28.5340   45.7270 C   0  0  0  0  0  0  0  0  0  0  0  0
   58.4160   29.3730   46.8160 C   0  0  0  0  0  0  0  0  0  0  0  0
   59.6810   29.9570   46.9390 C   0  0  0  0  0  0  0  0  0  0  0  0
   60.6670   29.7010   45.9800 C   0  0  0  0  0  0  0  0  0  0  0  0
   60.3890   28.8600   44.9000 C   0  0  0  0  0  0  0  0  0  0  0  0
   59.1260   28.2760   44.7740 C   0  0  0  0  0  0  0  0  0  0  0  0
   56.6920   30.9490   44.1920 C   0  0  0  0  0  0  0  0  0  0  0  0
   57.6260   31.3770   43.2670 C   0  0  0  0  0  0  0  0  0  0  0  0
   58.1520   32.5450   43.7790 C   0  0  0  0  0  0  0  0  0  0  0  0
   57.5090   32.7470   44.9860 C   0  0  0  0  0  0  0  0  0  0  0  0
   57.7610   33.8720   45.9380 C   0  0  0  0  0  0  0  0  0  0  0  0
   59.5270   34.3510   45.9290 S   0  0  0  0  0  0  0  0  0  0  0  0
   59.8250   34.1950   47.7310 C   0  0  0  0  0  0  0  0  0  0  0  0
   61.2550   33.8550   48.0360 C   0  0  0  0  0  0  0  0  0  0  0  0
   62.0430   33.1470   47.1200 C   0  0  0  0  0  0  0  0  0  0  0  0
   63.3610   32.8390   47.4510 C   0  0  0  0  0  0  0  0  0  0  0  0
   63.8670   33.2600   48.6800 C   0  0  0  0  0  0  0  0  0  0  0  0
   65.0530   32.9920   49.0050 O   0  0  0  0  0  0  0  0  0  0  0  0
   63.0720   33.9630   49.5270 N   0  0  0  0  0  0  0  0  0  0  0  0
   61.8070   34.2520   49.2150 N   0  0  0  0  0  0  0  0  0  0  0  0
   56.6400   31.7870   45.2020 O   0  0  0  0  0  0  0  0  0  0  0  0
   56.5069   27.4177   46.5588 H   0  0  0  0  0  0  0  0  0  0  0  0
   56.8245   27.1140   44.8118 H   0  0  0  0  0  0  0  0  0  0  0  0
   57.6447   29.5714   47.5748 H   0  0  0  0  0  0  0  0  0  0  0  0
   59.9008   30.6180   47.7903 H   0  0  0  0  0  0  0  0  0  0  0  0
   61.6611   30.1620   46.0765 H   0  0  0  0  0  0  0  0  0  0  0  0
   61.1655   28.6572   44.1477 H   0  0  0  0  0  0  0  0  0  0  0  0
   58.9130   27.6108   43.9242 H   0  0  0  0  0  0  0  0  0  0  0  0
   57.8942   30.8876   42.3191 H   0  0  0  0  0  0  0  0  0  0  0  0
   58.9228   33.1829   43.3219 H   0  0  0  0  0  0  0  0  0  0  0  0
   57.1513   34.7382   45.6415 H   0  0  0  0  0  0  0  0  0  0  0  0
   57.4914   33.5417   46.9520 H   0  0  0  0  0  0  0  0  0  0  0  0
   59.5755   35.1500   48.2164 H   0  0  0  0  0  0  0  0  0  0  0  0
   59.1927   33.3790   48.1111 H   0  0  0  0  0  0  0  0  0  0  0  0
   61.6262   32.8375   46.1502 H   0  0  0  0  0  0  0  0  0  0  0  0
   63.9934   32.2716   46.7524 H   0  0  0  0  0  0  0  0  0  0  0  0
  1  2  2  0
  2  3  1  0
  3  4  1  0
  4  5  1  0
  5  6  2  0
  6  7  1  0
  7  8  2  0
  8  9  1  0
  9 10  2  0
  2 11  1  0
 11 12  2  0
 12 13  1  0
 13 14  2  0
 14 15  1  0
 15 16  1  0
 16 17  1  0
 17 18  1  0
 18 19  1  0
 19 20  2  0
 20 21  1  0
 21 22  2  0
 21 23  1  0
 23 24  1  0
 14 25  1  0
 10  5  1  0
 25 11  1  0
 24 18  2  0
  4 26  1  0
  4 27  1  0
  6 28  1  0
  7 29  1  0
  8 30  1  0
  9 31  1  0
 10 32  1  0
 12 33  1  0
 13 34  1  0
 15 35  1  0
 15 36  1  0
 17 37  1  0
 17 38  1  0
 19 39  1  0
 20 40  1  0
M  CHG  2   3  -1  23  -1
M  END
>  <UniqueID>  (38) 
34

>  <SMILES>  (38) 
O=C([N-]Cc1ccccc1)c1ccc(CSCc2ccc(=O)[n-]n2)o1

>  <Energy>  (38) 
57.27805302124378

>  <Genealogy>  (38) 
O=C([N-]Cc1ccccc1)c1ccc(CSCc2ccc(=O)[n-]n2)o1 (protonated)
O=C([N-]Cc1ccccc1)c1ccc(CSCc2ccc(=O)[n-]n2)o1 (3D coordinates assigned)
O=C([N-]Cc1ccccc1)c1ccc(CSCc2ccc(=O)[n-]n2)o1 (optimized conformer: 57.27805302124378 kcal/mol)

>  <smiles>  (38) 
O=C(NCc1ccccc1)c1ccc(CSCc2ccc(=O)[nH]n2)o1

>  <score_type>  (38) 
oracle

>  <origin>  (38) 
adg

>  <m_score__min__energy>  (38) 
-12.789999999999999

>  <m_primary>  (38) 
energy

$$$$
38:0
     RDKit          3D

 41 43  0  0  0  0  0  0  0  0999 V2000
   60.1388   25.6542   46.1268 H   0  0  0  0  0  0  0  0  0  0  0  0
   59.0480   25.5120   46.1220 C   0  0  0  0  0  0  0  0  0  0  0  0
   58.3030   26.4060   46.7920 C   0  0  0  0  0  0  0  0  0  0  0  0
   58.2048   26.2768   47.8800 H   0  0  0  0  0  0  0  0  0  0  0  0
   57.6040   27.5540   46.1690 C   0  0  0  0  0  0  0  0  0  0  0  0
   56.2610   27.4690   45.7910 C   0  0  0  0  0  0  0  0  0  0  0  0
   55.5300   26.3060   46.0050 O   0  0  0  0  0  0  0  0  0  0  0  0
   55.6550   28.5360   45.2240 N   0  0  0  0  0  0  0  0  0  0  0  0
   56.3100   29.7050   45.0170 C   0  0  0  0  0  0  0  0  0  0  0  0
   55.6820   30.6550   44.4770 O   0  0  0  0  0  0  0  0  0  0  0  0
   57.6280   29.8460   45.3940 N   0  0  0  0  0  0  0  0  0  0  0  0
   58.3370   31.1340   45.1510 C   0  0  0  0  0  0  0  0  0  0  0  0
   59.4104   30.9502   45.3060 H   0  0  0  0  0  0  0  0  0  0  0  0
   58.1840   31.6130   43.6800 C   0  0  0  0  0  0  0  0  0  0  0  0
   59.0163   31.2026   43.0894 H   0  0  0  0  0  0  0  0  0  0  0  0
   57.2084   31.2566   43.3179 H   0  0  0  0  0  0  0  0  0  0  0  0
   58.1940   33.1470   43.5420 C   0  0  0  0  0  0  0  0  0  0  0  0
   58.5077   33.4124   42.5216 H   0  0  0  0  0  0  0  0  0  0  0  0
   57.1798   33.5196   43.7482 H   0  0  0  0  0  0  0  0  0  0  0  0
   59.1580   33.7930   44.5440 C   0  0  0  0  0  0  0  0  0  0  0  0
   60.1702   33.4018   44.3642 H   0  0  0  0  0  0  0  0  0  0  0  0
   59.1173   34.8824   44.3969 H   0  0  0  0  0  0  0  0  0  0  0  0
   58.7640   33.4980   46.0070 C   0  0  0  0  0  0  0  0  0  0  0  0
   59.6842   33.3896   46.5999 H   0  0  0  0  0  0  0  0  0  0  0  0
   58.1424   34.3384   46.3496 H   0  0  0  0  0  0  0  0  0  0  0  0
   57.9230   32.2160   46.1730 C   0  0  0  0  0  0  0  0  0  0  0  0
   58.0679   31.8221   47.1898 H   0  0  0  0  0  0  0  0  0  0  0  0
   56.8668   32.4699   45.9996 H   0  0  0  0  0  0  0  0  0  0  0  0
   58.2710   28.7760   45.9820 C   0  0  0  0  0  0  0  0  0  0  0  0
   59.4730   28.8730   46.3550 O   0  0  0  0  0  0  0  0  0  0  0  0
   58.5130   24.3490   45.3770 C   0  0  0  0  0  0  0  0  0  0  0  0
   59.2860   23.1810   45.2920 C   0  0  0  0  0  0  0  0  0  0  0  0
   60.2678   23.1372   45.7861 H   0  0  0  0  0  0  0  0  0  0  0  0
   58.8140   22.0720   44.5820 C   0  0  0  0  0  0  0  0  0  0  0  0
   59.4189   21.1547   44.5314 H   0  0  0  0  0  0  0  0  0  0  0  0
   57.5760   22.1270   43.9370 C   0  0  0  0  0  0  0  0  0  0  0  0
   57.2027   21.2506   43.3869 H   0  0  0  0  0  0  0  0  0  0  0  0
   56.8120   23.2960   43.9910 C   0  0  0  0  0  0  0  0  0  0  0  0
   55.2660   23.3730   43.1640 Cl  0  0  0  0  0  0  0  0  0  0  0  0
   57.2820   24.4080   44.6980 C   0  0  0  0  0  0  0  0  0  0  0  0
   56.6865   25.3326   44.7232 H   0  0  0  0  0  0  0  0  0  0  0  0
  1  2  1  0
  2  3  2  0
  3  4  1  0
  3  5  1  0
  5  6  2  0
  6  7  1  0
  6  8  1  0
  8  9  1  0
  9 10  2  0
  9 11  1  0
 11 12  1  0
 12 13  1  0
 12 14  1  0
 14 15  1  0
 14 16  1  0
 14 17  1  0
 17 18  1  0
 17 19  1  0
 17 20  1  0
 20 21  1  0
 20 22  1  0
 20 23  1  0
 23 24  1  0
 23 25  1  0
 23 26  1  0
 26 27  1  0
 26 28  1  0
 11 29  1  0
 29 30  2  0
  2 31  1  0
 31 32  2  0
 32 33  1  0
 32 34  1  0
 34 35  1  0
 34 36  2  0
 36 37  1  0
 36 38  1  0
 38 39  1  0
 38 40  2  0
 40 41  1  0
 29  5  1  0
 40 31  1  0
 26 12  1  0
M  CHG  2   7  -1   8  -1
M  END
>  <UniqueID>  (39) 
35

>  <SMILES>  (39) 
O=c1[n-]c([O-])c(/C=C\c2cccc(Cl)c2)c(=O)n1C1CCCCC1

>  <Energy>  (39) 
64.31636700305272

>  <Genealogy>  (39) 
O=c1[n-]c([O-])c(C=Cc2cccc(Cl)c2)c(=O)n1C1CCCCC1 (protonated)
O=c1[n-]c([O-])c(/C=C\c2cccc(Cl)c2)c(=O)n1C1CCCCC1 (cis-trans isomerization)
O=c1[n-]c([O-])c(/C=C\c2cccc(Cl)c2)c(=O)n1C1CCCCC1 (3D coordinates assigned)
O=c1[n-]c([O-])c(/C=C\c2cccc(Cl)c2)c(=O)n1C1CCCCC1 (nonaromatic ring conformer: 64.31636700305272 kcal/mol)

>  <smiles>  (39) 
O=c1[nH]c(O)c(C=Cc2cccc(Cl)c2)c(=O)n1C1CCCCC1

>  <score_type>  (39) 
oracle

>  <origin>  (39) 
adg

>  <m_score__min__energy>  (39) 
-12.59

>  <m_primary>  (39) 
energy

$$$$
39:0
     RDKit          3D

 56 58  0  0  0  0  0  0  0  0999 V2000
   62.6710   35.0550   49.8330 O   0  0  0  0  0  0  0  0  0  0  0  0
   61.9840   34.1340   49.3170 C   0  0  0  0  0  0  0  0  0  0  0  0
   62.6310   32.8140   48.9970 C   0  0  0  0  0  0  0  0  0  0  0  0
   61.6410   31.6550   49.1410 C   0  0  0  0  0  0  0  0  0  0  0  0
   61.5460   30.8490   47.8670 C   0  0  0  0  0  0  0  0  0  0  0  0
   62.1260   31.3030   46.8430 O   0  0  0  0  0  0  0  0  0  0  0  0
   60.7900   29.6150   47.7710 N   0  0  0  0  0  0  0  0  0  0  0  0
   60.2240   29.0220   48.9910 C   0  0  0  0  0  0  0  0  0  0  0  0
   58.9480   29.7100   49.3470 C   0  0  0  0  0  0  0  0  0  0  0  0
   58.5130   30.6450   48.6240 O   0  0  0  0  0  0  0  0  0  0  0  0
   58.2670   29.3450   50.5530 N   0  0  0  0  0  0  0  0  0  0  0  0
   58.7260   29.7090   51.8900 C   0  0  0  0  0  0  0  0  0  0  0  0
   58.7890   31.2070   52.0500 C   0  0  0  0  0  0  0  0  0  0  0  0
   57.6170   31.9510   52.2490 C   0  0  0  0  0  0  0  0  0  0  0  0
   57.6820   33.3380   52.3940 C   0  0  0  0  0  0  0  0  0  0  0  0
   58.9130   33.9960   52.3370 C   0  0  0  0  0  0  0  0  0  0  0  0
   60.0850   33.2630   52.1330 C   0  0  0  0  0  0  0  0  0  0  0  0
   60.0250   31.8730   51.9820 C   0  0  0  0  0  0  0  0  0  0  0  0
   60.6030   28.9140   46.4890 C   0  0  0  0  0  0  0  0  0  0  0  0
   59.1540   28.9330   46.0700 C   0  0  0  0  0  0  0  0  0  0  0  0
   58.3640   27.7790   46.2070 C   0  0  0  0  0  0  0  0  0  0  0  0
   57.0250   27.7940   45.8040 C   0  0  0  0  0  0  0  0  0  0  0  0
   56.4700   28.9520   45.2490 C   0  0  0  0  0  0  0  0  0  0  0  0
   55.1360   28.9650   44.8590 O   0  0  0  0  0  0  0  0  0  0  0  0
   57.2580   30.0930   45.0890 C   0  0  0  0  0  0  0  0  0  0  0  0
   58.5970   30.0840   45.4870 C   0  0  0  0  0  0  0  0  0  0  0  0
   60.5700   34.3160   49.1750 N   0  0  0  0  0  0  0  0  0  0  0  0
   59.8700   34.1840   48.0820 C   0  0  0  0  0  0  0  0  0  0  0  0
   58.7240   33.3660   48.0090 C   0  0  0  0  0  0  0  0  0  0  0  0
   58.0360   33.2590   46.8000 C   0  0  0  0  0  0  0  0  0  0  0  0
   58.4840   33.9540   45.6780 C   0  0  0  0  0  0  0  0  0  0  0  0
   59.6260   34.7480   45.7800 C   0  0  0  0  0  0  0  0  0  0  0  0
   60.2880   34.8360   46.9650 N   0  0  0  0  0  0  0  0  0  0  0  0
   63.0032   32.8398   47.9622 H   0  0  0  0  0  0  0  0  0  0  0  0
   63.4566   32.6531   49.7059 H   0  0  0  0  0  0  0  0  0  0  0  0
   61.9764   30.9972   49.9564 H   0  0  0  0  0  0  0  0  0  0  0  0
   60.6477   32.0737   49.3603 H   0  0  0  0  0  0  0  0  0  0  0  0
   60.0264   27.9536   48.8192 H   0  0  0  0  0  0  0  0  0  0  0  0
   60.9411   29.1401   49.8167 H   0  0  0  0  0  0  0  0  0  0  0  0
   58.0290   29.2966   52.6344 H   0  0  0  0  0  0  0  0  0  0  0  0
   59.7354   29.2978   52.0382 H   0  0  0  0  0  0  0  0  0  0  0  0
   56.6437   31.4402   52.2910 H   0  0  0  0  0  0  0  0  0  0  0  0
   56.7595   33.9155   52.5539 H   0  0  0  0  0  0  0  0  0  0  0  0
   58.9596   35.0889   52.4525 H   0  0  0  0  0  0  0  0  0  0  0  0
   61.0556   33.7790   52.0911 H   0  0  0  0  0  0  0  0  0  0  0  0
   60.9479   31.2999   51.8096 H   0  0  0  0  0  0  0  0  0  0  0  0
   61.2078   29.4104   45.7158 H   0  0  0  0  0  0  0  0  0  0  0  0
   60.9190   27.8676   46.6119 H   0  0  0  0  0  0  0  0  0  0  0  0
   58.7995   26.8626   46.6318 H   0  0  0  0  0  0  0  0  0  0  0  0
   56.4062   26.8925   45.9238 H   0  0  0  0  0  0  0  0  0  0  0  0
   56.8232   31.0022   44.6481 H   0  0  0  0  0  0  0  0  0  0  0  0
   59.2175   30.9809   45.3436 H   0  0  0  0  0  0  0  0  0  0  0  0
   58.3757   32.8175   48.8966 H   0  0  0  0  0  0  0  0  0  0  0  0
   57.1392   32.6256   46.7322 H   0  0  0  0  0  0  0  0  0  0  0  0
   57.9432   33.8771   44.7232 H   0  0  0  0  0  0  0  0  0  0  0  0
   59.9910   35.3026   44.9030 H   0  0  0  0  0  0  0  0  0  0  0  0
  1  2  2  0
  2  3  1  0
  3  4  1  0
  4  5  1  0
  5  6  2  0
  5  7  1  0
  7  8  1  0
  8  9  1  0
  9 10  2  0
  9 11  1  0
 11 12  1  0
 12 13  1  0
 13 14  2  0
 14 15  1  0
 15 16  2  0
 16 17  1  0
 17 18  2  0
  7 19  1  0
 19 20  1  0
 20 21  2  0
 21 22  1  0
 22 23  2  0
 23 24  1  0
 23 25  1  0
 25 26  2  0
  2 27  1  0
 27 28  2  3
 28 29  1  0
 29 30  2  0
 30 31  1  0
 31 32  2  0
 32 33  1  0
 18 13  1  0
 26 20  1  0
 33 28  1  0
  3 34  1  0
  3 35  1  0
  4 36  1  0
  4 37  1  0
  8 38  1  0
  8 39  1  0
 12 40  1  0
 12 41  1  0
 14 42  1  0
 15 43  1  0
 16 44  1  0
 17 45  1  0
 18 46  1  0
 19 47  1  0
 19 48  1  0
 21 49  1  0
 22 50  1  0
 25 51  1  0
 26 52  1  0
 29 53  1  0
 30 54  1  0
 31 55  1  0
 32 56  1  0
M  CHG  3  11  -1  24  -1  33  -1
M  END
>  <UniqueID>  (40) 
36

>  <SMILES>  (40) 
O=C(CCC(=O)N(CC(=O)[N-]Cc1ccccc1)Cc1ccc([O-])cc1)N=c1cccc[n-]1

>  <Energy>  (40) 
58.51164441489877

>  <Genealogy>  (40) 
O=C(CCC(=O)N(CC(=O)[N-]Cc1ccccc1)Cc1ccc([O-])cc1)N=c1cccc[n-]1 (protonated)
O=C(CCC(=O)N(CC(=O)[N-]Cc1ccccc1)Cc1ccc([O-])cc1)N=c1cccc[n-]1 (3D coordinates assigned)
O=C(CCC(=O)N(CC(=O)[N-]Cc1ccccc1)Cc1ccc([O-])cc1)N=c1cccc[n-]1 (optimized conformer: 58.51164441489877 kcal/mol)

>  <smiles>  (40) 
O=C(CCC(=O)N(CC(=O)NCc1ccccc1)Cc1ccc(O)cc1)N=c1cccc[nH]1

>  <score_type>  (40) 
oracle

>  <origin>  (40) 
adg

>  <m_score__min__energy>  (40) 
-13.16

>  <m_primary>  (40) 
energy

$$$$
40:0
     RDKit          3D

 62 65  0  0  0  0  0  0  0  0999 V2000
   56.6940   32.0550   52.0230 C   0  0  0  0  0  0  0  0  0  0  0  0
   58.0950   32.0430   51.4690 C   0  0  0  0  0  0  0  0  0  0  0  0
   58.4910   30.9990   50.6220 C   0  0  0  0  0  0  0  0  0  0  0  0
   59.7750   30.9670   50.0770 C   0  0  0  0  0  0  0  0  0  0  0  0
   60.6970   31.9860   50.3610 C   0  0  0  0  0  0  0  0  0  0  0  0
   62.0060   31.9880   49.7460 N   0  0  0  0  0  0  0  0  0  0  0  0
   62.4720   30.8910   48.9020 C   0  0  0  0  0  0  0  0  0  0  0  0
   62.8670   31.4300   47.5210 C   0  0  0  0  0  0  0  0  0  0  0  0
   63.5050   32.7820   47.5510 N   0  0  0  0  0  0  0  0  0  0  0  0
   62.7530   33.8290   46.8040 C   0  0  0  0  0  0  0  0  0  0  0  0
   61.2500   33.8190   47.0030 C   0  0  0  0  0  0  0  0  0  0  0  0
   60.6810   34.4180   48.1390 C   0  0  0  0  0  0  0  0  0  0  0  0
   59.2960   34.4200   48.3200 C   0  0  0  0  0  0  0  0  0  0  0  0
   58.4600   33.8540   47.3540 C   0  0  0  0  0  0  0  0  0  0  0  0
   59.0040   33.3060   46.1790 C   0  0  0  0  0  0  0  0  0  0  0  0
   58.1290   32.6880   45.1580 C   0  0  0  0  0  0  0  0  0  0  0  0
   58.0450   33.1910   44.0050 O   0  0  0  0  0  0  0  0  0  0  0  0
   57.3480   31.5340   45.4890 N   0  0  0  0  0  0  0  0  0  0  0  0
   57.4630   30.2550   44.7950 C   0  0  0  0  0  0  0  0  0  0  0  0
   58.4770   29.3830   45.4990 C   0  0  0  0  0  0  0  0  0  0  0  0
   59.0350   29.8490   46.7030 C   0  0  0  0  0  0  0  0  0  0  0  0
   59.9340   29.0610   47.4250 C   0  0  0  0  0  0  0  0  0  0  0  0
   60.3000   27.8030   46.9460 C   0  0  0  0  0  0  0  0  0  0  0  0
   59.7720   27.3300   45.7400 C   0  0  0  0  0  0  0  0  0  0  0  0
   58.8590   28.1080   45.0130 C   0  0  0  0  0  0  0  0  0  0  0  0
   58.2030   27.4340   43.5240 Cl  0  0  0  0  0  0  0  0  0  0  0  0
   60.4010   33.3100   46.0060 C   0  0  0  0  0  0  0  0  0  0  0  0
   63.9930   33.2180   48.8870 C   0  0  0  0  0  0  0  0  0  0  0  0
   62.9610   33.0630   50.0240 C   0  0  0  0  0  0  0  0  0  0  0  0
   60.3060   33.0330   51.2170 C   0  0  0  0  0  0  0  0  0  0  0  0
   59.0170   33.0690   51.7790 C   0  0  0  0  0  0  0  0  0  0  0  0
   58.6340   34.2140   52.6790 C   0  0  0  0  0  0  0  0  0  0  0  0
   56.7344   32.0547   53.1223 H   0  0  0  0  0  0  0  0  0  0  0  0
   56.1701   32.9577   51.6756 H   0  0  0  0  0  0  0  0  0  0  0  0
   56.1547   31.1614   51.6756 H   0  0  0  0  0  0  0  0  0  0  0  0
   57.7801   30.1941   50.3837 H   0  0  0  0  0  0  0  0  0  0  0  0
   60.0672   30.1355   49.4188 H   0  0  0  0  0  0  0  0  0  0  0  0
   63.3452   30.4144   49.3715 H   0  0  0  0  0  0  0  0  0  0  0  0
   61.6645   30.1530   48.7867 H   0  0  0  0  0  0  0  0  0  0  0  0
   63.5763   30.7237   47.0648 H   0  0  0  0  0  0  0  0  0  0  0  0
   61.9366   31.5320   46.9432 H   0  0  0  0  0  0  0  0  0  0  0  0
   64.3830   32.6760   46.9880 H   0  0  0  0  0  0  0  0  0  0  0  0
   63.1309   34.8112   47.1240 H   0  0  0  0  0  0  0  0  0  0  0  0
   62.9182   33.6170   45.7374 H   0  0  0  0  0  0  0  0  0  0  0  0
   61.3307   34.8889   48.8914 H   0  0  0  0  0  0  0  0  0  0  0  0
   58.8621   34.8685   49.2258 H   0  0  0  0  0  0  0  0  0  0  0  0
   57.3717   33.8371   47.5135 H   0  0  0  0  0  0  0  0  0  0  0  0
   56.4854   29.7507   44.7933 H   0  0  0  0  0  0  0  0  0  0  0  0
   57.7898   30.4305   43.7594 H   0  0  0  0  0  0  0  0  0  0  0  0
   58.7603   30.8451   47.0801 H   0  0  0  0  0  0  0  0  0  0  0  0
   60.3536   29.4324   48.3716 H   0  0  0  0  0  0  0  0  0  0  0  0
   61.0051   27.1818   47.5177 H   0  0  0  0  0  0  0  0  0  0  0  0
   60.0743   26.3430   45.3599 H   0  0  0  0  0  0  0  0  0  0  0  0
   60.8338   32.9092   45.0776 H   0  0  0  0  0  0  0  0  0  0  0  0
   64.8790   32.6181   49.1423 H   0  0  0  0  0  0  0  0  0  0  0  0
   64.2120   34.2929   48.8060 H   0  0  0  0  0  0  0  0  0  0  0  0
   63.4928   32.8343   50.9594 H   0  0  0  0  0  0  0  0  0  0  0  0
   62.4007   34.0058   50.1094 H   0  0  0  0  0  0  0  0  0  0  0  0
   61.0204   33.8363   51.4502 H   0  0  0  0  0  0  0  0  0  0  0  0
   58.7374   33.9050   53.7296 H   0  0  0  0  0  0  0  0  0  0  0  0
   59.2942   35.0716   52.4824 H   0  0  0  0  0  0  0  0  0  0  0  0
   57.5907   34.5018   52.4824 H   0  0  0  0  0  0  0  0  0  0  0  0
  1  2  1  0
  2  3  2  0
  3  4  1  0
  4  5  2  0
  5  6  1  0
  6  7  1  0
  7  8  1  0
  8  9  1  0
  9 10  1  0
 10 11  1  0
 11 12  2  0
 12 13  1  0
 13 14  2  0
 14 15  1  0
 15 16  1  0
 16 17  2  0
 16 18  1  0
 18 19  1  0
 19 20  1  0
 20 21  2  0
 21 22  1  0
 22 23  2  0
 23 24  1  0
 24 25  2  0
 25 26  1  0
 15 27  2  0
  9 28  1  0
 28 29  1  0
  5 30  1  0
 30 31  2  0
 31 32  1  0
 31  2  1  0
 29  6  1  0
 27 11  1  0
 25 20  1  0
  1 33  1  0
  1 34  1  0
  1 35  1  0
  3 36  1  0
  4 37  1  0
  7 38  1  0
  7 39  1  0
  8 40  1  0
  8 41  1  0
  9 42  1  0
 10 43  1  0
 10 44  1  0
 12 45  1  0
 13 46  1  0
 14 47  1  0
 19 48  1  0
 19 49  1  0
 21 50  1  0
 22 51  1  0
 23 52  1  0
 24 53  1  0
 27 54  1  0
 28 55  1  0
 28 56  1  0
 29 57  1  0
 29 58  1  0
 30 59  1  0
 32 60  1  0
 32 61  1  0
 32 62  1  0
M  CHG  2   9   1  18  -1
M  END
>  <UniqueID>  (41) 
37

>  <SMILES>  (41) 
Cc1ccc(N2CC[NH+](Cc3cccc(C(=O)[N-]Cc4ccccc4Cl)c3)CC2)cc1C

>  <Energy>  (41) 
77.76443579051899

>  <Genealogy>  (41) 
Cc1ccc(N2CC[NH+](Cc3cccc(C(=O)[N-]Cc4ccccc4Cl)c3)CC2)cc1C (protonated)
Cc1ccc(N2CC[NH+](Cc3cccc(C(=O)[N-]Cc4ccccc4Cl)c3)CC2)cc1C (3D coordinates assigned)
Cc1ccc(N2CC[NH+](Cc3cccc(C(=O)[N-]Cc4ccccc4Cl)c3)CC2)cc1C (nonaromatic ring conformer: 77.76443579051899 kcal/mol)

>  <smiles>  (41) 
Cc1ccc(N2CCN(Cc3cccc(C(=O)NCc4ccccc4Cl)c3)CC2)cc1C

>  <score_type>  (41) 
oracle

>  <origin>  (41) 
adg

>  <m_score__min__energy>  (41) 
-9.6500000000000004

>  <m_primary>  (41) 
energy

$$$$
41:0
     RDKit          3D

 43 45  0  0  0  0  0  0  0  0999 V2000
   56.5870   24.4650   44.7510 C   0  0  0  0  0  0  0  0  0  0  0  0
   56.1120   25.6210   46.0150 S   0  0  0  0  0  0  0  0  0  0  0  0
   56.2920   24.9930   47.3680 O   0  0  0  0  0  0  0  0  0  0  0  0
   54.6620   25.9800   45.8380 O   0  0  0  0  0  0  0  0  0  0  0  0
   57.1160   27.0630   45.8990 C   0  0  0  0  0  0  0  0  0  0  0  0
   58.3990   27.0600   46.4580 C   0  0  0  0  0  0  0  0  0  0  0  0
   59.2080   28.1930   46.3640 C   0  0  0  0  0  0  0  0  0  0  0  0
   58.7430   29.3360   45.7100 C   0  0  0  0  0  0  0  0  0  0  0  0
   57.4570   29.3570   45.1380 C   0  0  0  0  0  0  0  0  0  0  0  0
   56.9630   30.5710   44.4470 C   0  0  0  0  0  0  0  0  0  0  0  0
   56.7200   30.5340   43.2100 O   0  0  0  0  0  0  0  0  0  0  0  0
   56.7130   31.7700   45.1930 N   0  0  0  0  0  0  0  0  0  0  0  0
   57.6630   32.8000   45.5020 C   0  0  0  0  0  0  0  0  0  0  0  0
   57.8320   33.8500   44.5920 C   0  0  0  0  0  0  0  0  0  0  0  0
   58.7230   34.8890   44.8670 C   0  0  0  0  0  0  0  0  0  0  0  0
   59.4530   34.8890   46.0590 C   0  0  0  0  0  0  0  0  0  0  0  0
   59.3000   33.8460   46.9820 C   0  0  0  0  0  0  0  0  0  0  0  0
   60.0330   33.8840   48.2180 N   0  0  0  0  0  0  0  0  0  0  0  0
   61.4390   33.6050   48.3370 C   0  0  0  0  0  0  0  0  0  0  0  0
   62.0730   33.7810   49.5760 C   0  0  0  0  0  0  0  0  0  0  0  0
   63.4450   33.5400   49.7090 C   0  0  0  0  0  0  0  0  0  0  0  0
   64.1960   33.1370   48.6020 C   0  0  0  0  0  0  0  0  0  0  0  0
   63.5790   32.9810   47.3590 C   0  0  0  0  0  0  0  0  0  0  0  0
   62.2080   33.2200   47.2220 C   0  0  0  0  0  0  0  0  0  0  0  0
   58.3780   32.8180   46.7140 C   0  0  0  0  0  0  0  0  0  0  0  0
   56.6500   28.2080   45.2370 C   0  0  0  0  0  0  0  0  0  0  0  0
   56.9653   23.5444   45.2194 H   0  0  0  0  0  0  0  0  0  0  0  0
   55.7141   24.2263   44.1257 H   0  0  0  0  0  0  0  0  0  0  0  0
   57.3756   24.9090   44.1257 H   0  0  0  0  0  0  0  0  0  0  0  0
   58.7707   26.1619   46.9730 H   0  0  0  0  0  0  0  0  0  0  0  0
   60.2151   28.1859   46.8064 H   0  0  0  0  0  0  0  0  0  0  0  0
   59.3860   30.2258   45.6414 H   0  0  0  0  0  0  0  0  0  0  0  0
   57.2586   33.8566   43.6533 H   0  0  0  0  0  0  0  0  0  0  0  0
   58.8507   35.7087   44.1447 H   0  0  0  0  0  0  0  0  0  0  0  0
   60.1509   35.7117   46.2735 H   0  0  0  0  0  0  0  0  0  0  0  0
   59.5130   34.1480   49.0850 H   0  0  0  0  0  0  0  0  0  0  0  0
   61.4884   34.1102   50.4477 H   0  0  0  0  0  0  0  0  0  0  0  0
   63.9329   33.6680   50.6865 H   0  0  0  0  0  0  0  0  0  0  0  0
   65.2733   32.9426   48.7095 H   0  0  0  0  0  0  0  0  0  0  0  0
   64.1722   32.6697   46.4865 H   0  0  0  0  0  0  0  0  0  0  0  0
   61.7281   33.1067   46.2387 H   0  0  0  0  0  0  0  0  0  0  0  0
   58.2148   32.0230   47.4566 H   0  0  0  0  0  0  0  0  0  0  0  0
   55.6445   28.2082   44.7909 H   0  0  0  0  0  0  0  0  0  0  0  0
  1  2  1  0
  2  3  2  0
  2  4  2  0
  2  5  1  0
  5  6  2  0
  6  7  1  0
  7  8  2  0
  8  9  1  0
  9 10  1  0
 10 11  2  0
 10 12  1  0
 12 13  1  0
 13 14  2  0
 14 15  1  0
 15 16  2  0
 16 17  1  0
 17 18  1  0
 18 19  1  0
 19 20  2  0
 20 21  1  0
 21 22  2  0
 22 23  1  0
 23 24  2  0
 17 25  2  0
  9 26  2  0
 26  5  1  0
 25 13  1  0
 24 19  1  0
  1 27  1  0
  1 28  1  0
  1 29  1  0
  6 30  1  0
  7 31  1  0
  8 32  1  0
 14 33  1  0
 15 34  1  0
 16 35  1  0
 18 36  1  0
 20 37  1  0
 21 38  1  0
 22 39  1  0
 23 40  1  0
 24 41  1  0
 25 42  1  0
 26 43  1  0
M  CHG  1  12  -1
M  END
>  <UniqueID>  (42) 
38

>  <SMILES>  (42) 
CS(=O)(=O)c1cccc(C(=O)[N-]c2cccc(Nc3ccccc3)c2)c1

>  <Energy>  (42) 
52.28641753279759

>  <Genealogy>  (42) 
CS(=O)(=O)c1cccc(C(=O)[N-]c2cccc(Nc3ccccc3)c2)c1 (protonated)
CS(=O)(=O)c1cccc(C(=O)[N-]c2cccc(Nc3ccccc3)c2)c1 (3D coordinates assigned)
CS(=O)(=O)c1cccc(C(=O)[N-]c2cccc(Nc3ccccc3)c2)c1 (optimized conformer: 52.28641753279759 kcal/mol)

>  <smiles>  (42) 
CS(=O)(=O)c1cccc(C(=O)Nc2cccc(Nc3ccccc3)c2)c1

>  <score_type>  (42) 
oracle

>  <origin>  (42) 
adg

>  <m_score__min__energy>  (42) 
-11.01

>  <m_primary>  (42) 
energy

$$$$
42:0
     RDKit          3D

 61 64  0  0  0  0  0  0  0  0999 V2000
   52.0740   23.8240   44.3690 C   0  0  0  0  0  0  0  0  0  0  0  0
   52.6360   23.0600   45.5620 C   0  0  0  0  0  0  0  0  0  0  0  0
   53.9240   23.6750   46.0340 C   0  0  0  0  0  0  0  0  0  0  0  0
   54.3000   24.9590   45.6230 C   0  0  0  0  0  0  0  0  0  0  0  0
   55.4560   25.5070   46.0800 N   0  0  0  0  0  0  0  0  0  0  0  0
   56.2610   24.8310   46.9460 C   0  0  0  0  0  0  0  0  0  0  0  0
   57.3640   25.3600   47.3810 N   0  0  0  0  0  0  0  0  0  0  0  0
   58.4250   25.8710   46.5170 C   0  0  0  0  0  0  0  0  0  0  0  0
   58.1420   27.3060   46.1790 C   0  0  0  0  0  0  0  0  0  0  0  0
   58.8240   28.3310   46.8470 C   0  0  0  0  0  0  0  0  0  0  0  0
   58.5370   29.6680   46.5650 C   0  0  0  0  0  0  0  0  0  0  0  0
   57.5590   30.0020   45.6090 C   0  0  0  0  0  0  0  0  0  0  0  0
   57.2530   31.3360   45.2890 O   0  0  0  0  0  0  0  0  0  0  0  0
   58.1430   32.2540   44.6500 C   0  0  0  0  0  0  0  0  0  0  0  0
   58.7580   33.1810   45.6640 C   0  0  0  0  0  0  0  0  0  0  0  0
   59.1600   34.4760   45.3040 C   0  0  0  0  0  0  0  0  0  0  0  0
   59.6950   35.3370   46.2650 C   0  0  0  0  0  0  0  0  0  0  0  0
   59.8220   34.9200   47.5920 C   0  0  0  0  0  0  0  0  0  0  0  0
   59.4180   33.6290   47.9680 C   0  0  0  0  0  0  0  0  0  0  0  0
   59.5640   33.1810   49.3670 C   0  0  0  0  0  0  0  0  0  0  0  0
   59.3930   34.0120   50.2990 O   0  0  0  0  0  0  0  0  0  0  0  0
   59.9060   31.8300   49.7030 N   0  0  0  0  0  0  0  0  0  0  0  0
   61.0160   31.0830   49.1210 C   0  0  0  0  0  0  0  0  0  0  0  0
   61.9970   32.0410   48.5340 C   0  0  0  0  0  0  0  0  0  0  0  0
   62.3720   32.1140   47.1990 C   0  0  0  0  0  0  0  0  0  0  0  0
   63.3670   33.0690   46.9590 C   0  0  0  0  0  0  0  0  0  0  0  0
   63.7880   33.7340   48.1040 C   0  0  0  0  0  0  0  0  0  0  0  0
   62.9210   33.1350   49.4150 S   0  0  0  0  0  0  0  0  0  0  0  0
   58.9260   32.7520   46.9890 C   0  0  0  0  0  0  0  0  0  0  0  0
   56.8590   28.9800   44.9470 C   0  0  0  0  0  0  0  0  0  0  0  0
   55.8880   29.3410   43.9990 O   0  0  0  0  0  0  0  0  0  0  0  0
   56.1780   29.7720   42.6740 C   0  0  0  0  0  0  0  0  0  0  0  0
   57.1510   27.6340   45.2410 C   0  0  0  0  0  0  0  0  0  0  0  0
   55.9050   23.5890   47.3660 N   0  0  0  0  0  0  0  0  0  0  0  0
   54.7580   23.0030   46.9350 C   0  0  0  0  0  0  0  0  0  0  0  0
   51.4578   24.6617   44.7274 H   0  0  0  0  0  0  0  0  0  0  0  0
   52.9028   24.2130   43.7593 H   0  0  0  0  0  0  0  0  0  0  0  0
   51.4558   23.1486   43.7593 H   0  0  0  0  0  0  0  0  0  0  0  0
   51.9036   23.0837   46.3824 H   0  0  0  0  0  0  0  0  0  0  0  0
   52.8339   22.0228   45.2537 H   0  0  0  0  0  0  0  0  0  0  0  0
   53.6595   25.5243   44.9300 H   0  0  0  0  0  0  0  0  0  0  0  0
   59.3904   25.8001   47.0395 H   0  0  0  0  0  0  0  0  0  0  0  0
   58.4660   25.2760   45.5927 H   0  0  0  0  0  0  0  0  0  0  0  0
   59.5890   28.0815   47.5970 H   0  0  0  0  0  0  0  0  0  0  0  0
   59.0789   30.4661   47.0936 H   0  0  0  0  0  0  0  0  0  0  0  0
   58.9406   31.6917   44.1424 H   0  0  0  0  0  0  0  0  0  0  0  0
   57.5766   32.8499   43.9192 H   0  0  0  0  0  0  0  0  0  0  0  0
   59.0536   34.8141   44.2627 H   0  0  0  0  0  0  0  0  0  0  0  0
   60.0177   36.3479   45.9755 H   0  0  0  0  0  0  0  0  0  0  0  0
   60.2397   35.6050   48.3446 H   0  0  0  0  0  0  0  0  0  0  0  0
   61.5077   30.4857   49.9029 H   0  0  0  0  0  0  0  0  0  0  0  0
   60.6386   30.4123   48.3351 H   0  0  0  0  0  0  0  0  0  0  0  0
   61.9321   31.4856   46.4106 H   0  0  0  0  0  0  0  0  0  0  0  0
   63.7767   33.2735   45.9588 H   0  0  0  0  0  0  0  0  0  0  0  0
   64.5576   34.5189   48.1460 H   0  0  0  0  0  0  0  0  0  0  0  0
   58.6696   31.7181   47.2633 H   0  0  0  0  0  0  0  0  0  0  0  0
   56.7917   30.6841   42.7112 H   0  0  0  0  0  0  0  0  0  0  0  0
   56.7284   28.9811   42.1434 H   0  0  0  0  0  0  0  0  0  0  0  0
   55.2380   29.9839   42.1434 H   0  0  0  0  0  0  0  0  0  0  0  0
   56.5971   26.8323   44.7306 H   0  0  0  0  0  0  0  0  0  0  0  0
   54.4844   21.9999   47.2942 H   0  0  0  0  0  0  0  0  0  0  0  0
  1  2  1  0
  2  3  1  0
  3  4  1  0
  4  5  2  0
  5  6  1  0
  6  7  2  3
  7  8  1  0
  8  9  1  0
  9 10  2  0
 10 11  1  0
 11 12  2  0
 12 13  1  0
 13 14  1  0
 14 15  1  0
 15 16  2  0
 16 17  1  0
 17 18  2  0
 18 19  1  0
 19 20  1  0
 20 21  2  0
 20 22  1  0
 22 23  1  0
 23 24  1  0
 24 25  2  0
 25 26  1  0
 26 27  2  0
 27 28  1  0
 19 29  2  0
 12 30  1  0
 30 31  1  0
 31 32  1  0
 30 33  2  0
  6 34  1  0
 34 35  1  0
 35  3  2  0
 33  9  1  0
 29 15  1  0
 28 24  1  0
  1 36  1  0
  1 37  1  0
  1 38  1  0
  2 39  1  0
  2 40  1  0
  4 41  1  0
  8 42  1  0
  8 43  1  0
 10 44  1  0
 11 45  1  0
 14 46  1  0
 14 47  1  0
 16 48  1  0
 17 49  1  0
 18 50  1  0
 23 51  1  0
 23 52  1  0
 25 53  1  0
 26 54  1  0
 27 55  1  0
 29 56  1  0
 32 57  1  0
 32 58  1  0
 32 59  1  0
 33 60  1  0
 35 61  1  0
M  CHG  2  22  -1  34  -1
M  END
>  <UniqueID>  (43) 
39

>  <SMILES>  (43) 
CCc1cnc(=NCc2ccc(OCc3cccc(C(=O)[N-]Cc4cccs4)c3)c(OC)c2)[n-]c1

>  <Energy>  (43) 
87.25177936818692

>  <Genealogy>  (43) 
CCc1cnc(=NCc2ccc(OCc3cccc(C(=O)[N-]Cc4cccs4)c3)c(OC)c2)[n-]c1 (protonated)
CCc1cnc(=NCc2ccc(OCc3cccc(C(=O)[N-]Cc4cccs4)c3)c(OC)c2)[n-]c1 (3D coordinates assigned)
CCc1cnc(=NCc2ccc(OCc3cccc(C(=O)[N-]Cc4cccs4)c3)c(OC)c2)[n-]c1 (optimized conformer: 87.25177936818692 kcal/mol)

>  <smiles>  (43) 
CCc1cnc(=NCc2ccc(OCc3cccc(C(=O)NCc4cccs4)c3)c(OC)c2)[nH]c1

>  <score_type>  (43) 
oracle

>  <origin>  (43) 
adg

>  <m_score__min__energy>  (43) 
-12.369999999999999

>  <m_primary>  (43) 
energy

$$$$
43:0
     RDKit          3D

 34 35  0  0  0  0  0  0  0  0999 V2000
   61.0600   30.6900   47.1030 C   0  0  0  0  0  0  0  0  0  0  0  0
   60.1030   30.2660   48.2160 C   0  0  0  0  0  0  0  0  0  0  0  0
   59.9110   28.7480   48.2810 C   0  0  0  0  0  0  0  0  0  0  0  0
   60.6140   28.0950   47.2240 O   0  0  0  0  0  0  0  0  0  0  0  0
   60.1260   26.9750   46.5360 C   0  0  0  0  0  0  0  0  0  0  0  0
   60.9260   26.1080   46.0880 O   0  0  0  0  0  0  0  0  0  0  0  0
   58.6690   26.8120   46.3390 C   0  0  0  0  0  0  0  0  0  0  0  0
   58.0430   25.5960   46.6600 C   0  0  0  0  0  0  0  0  0  0  0  0
   56.6650   25.4440   46.4910 C   0  0  0  0  0  0  0  0  0  0  0  0
   55.8930   26.4980   45.9930 C   0  0  0  0  0  0  0  0  0  0  0  0
   54.5150   26.3400   45.9000 O   0  0  0  0  0  0  0  0  0  0  0  0
   56.5120   27.7100   45.6290 C   0  0  0  0  0  0  0  0  0  0  0  0
   55.7640   28.8220   45.1170 N   0  0  0  0  0  0  0  0  0  0  0  0
   56.1870   29.6920   44.0610 C   0  0  0  0  0  0  0  0  0  0  0  0
   55.8530   29.4580   42.8680 O   0  0  0  0  0  0  0  0  0  0  0  0
   57.0580   30.8350   44.3610 C   0  0  0  0  0  0  0  0  0  0  0  0
   57.4370   31.8320   43.4700 C   0  0  0  0  0  0  0  0  0  0  0  0
   58.2800   32.7930   44.0430 C   0  0  0  0  0  0  0  0  0  0  0  0
   58.5670   32.5570   45.3810 C   0  0  0  0  0  0  0  0  0  0  0  0
   57.7720   31.1520   45.8530 S   0  0  0  0  0  0  0  0  0  0  0  0
   57.8890   27.8670   45.8310 C   0  0  0  0  0  0  0  0  0  0  0  0
   61.9804   31.0978   47.5464 H   0  0  0  0  0  0  0  0  0  0  0  0
   61.3081   29.8176   46.4806 H   0  0  0  0  0  0  0  0  0  0  0  0
   60.5805   31.4599   46.4806 H   0  0  0  0  0  0  0  0  0  0  0  0
   60.5073   30.6115   49.1789 H   0  0  0  0  0  0  0  0  0  0  0  0
   59.1227   30.7170   48.0023 H   0  0  0  0  0  0  0  0  0  0  0  0
   60.2894   28.3791   49.2457 H   0  0  0  0  0  0  0  0  0  0  0  0
   58.8386   28.5268   48.1760 H   0  0  0  0  0  0  0  0  0  0  0  0
   58.6419   24.7584   47.0469 H   0  0  0  0  0  0  0  0  0  0  0  0
   56.1842   24.4895   46.7512 H   0  0  0  0  0  0  0  0  0  0  0  0
   57.1082   31.8634   42.4208 H   0  0  0  0  0  0  0  0  0  0  0  0
   58.6773   33.6539   43.4853 H   0  0  0  0  0  0  0  0  0  0  0  0
   59.2053   33.1822   46.0226 H   0  0  0  0  0  0  0  0  0  0  0  0
   58.3670   28.8278   45.5893 H   0  0  0  0  0  0  0  0  0  0  0  0
  1  2  1  0
  2  3  1  0
  3  4  1  0
  4  5  1  0
  5  6  2  0
  5  7  1  0
  7  8  2  0
  8  9  1  0
  9 10  2  0
 10 11  1  0
 10 12  1  0
 12 13  1  0
 13 14  1  0
 14 15  2  0
 14 16  1  0
 16 17  2  0
 17 18  1  0
 18 19  2  0
 19 20  1  0
 12 21  2  0
 21  7  1  0
 20 16  1  0
  1 22  1  0
  1 23  1  0
  1 24  1  0
  2 25  1  0
  2 26  1  0
  3 27  1  0
  3 28  1  0
  8 29  1  0
  9 30  1  0
 17 31  1  0
 18 32  1  0
 19 33  1  0
 21 34  1  0
M  CHG  2  11  -1  13  -1
M  END
>  <UniqueID>  (44) 
40

>  <SMILES>  (44) 
CCCOC(=O)c1ccc([O-])c([N-]C(=O)c2cccs2)c1

>  <Energy>  (44) 
60.76149211488103

>  <Genealogy>  (44) 
CCCOC(=O)c1ccc([O-])c([N-]C(=O)c2cccs2)c1 (protonated)
CCCOC(=O)c1ccc([O-])c([N-]C(=O)c2cccs2)c1 (3D coordinates assigned)
CCCOC(=O)c1ccc([O-])c([N-]C(=O)c2cccs2)c1 (optimized conformer: 60.76149211488103 kcal/mol)

>  <smiles>  (44) 
CCCOC(=O)c1ccc(O)c(NC(=O)c2cccs2)c1

>  <score_type>  (44) 
oracle

>  <origin>  (44) 
adg

>  <m_score__min__energy>  (44) 
-12.210000000000001

>  <m_primary>  (44) 
energy

$$$$
44:0
     RDKit          3D

 34 35  0  0  1  0  0  0  0  0999 V2000
   63.1790   33.8700   46.3880 C   0  0  0  0  0  0  0  0  0  0  0  0
   63.2330   33.2640   47.7820 C   0  0  0  0  0  0  0  0  0  0  0  0
   63.1360   31.7660   47.7430 C   0  0  0  0  0  0  0  0  0  0  0  0
   61.7870   31.1980   47.7070 C   0  0  0  0  0  0  0  0  0  0  0  0
   60.7630   31.5460   48.5640 C   0  0  0  0  0  0  0  0  0  0  0  0
   59.5300   30.9780   48.3340 C   0  0  0  0  0  0  0  0  0  0  0  0
   58.5800   31.2810   49.1050 O   0  0  0  0  0  0  0  0  0  0  0  0
   59.3220   30.1260   47.3280 N   0  0  0  0  0  0  0  0  0  0  0  0
   60.3330   29.7890   46.4900 C   0  0  0  0  0  0  0  0  0  0  0  0
   59.9260   28.6920   45.1470 S   0  0  0  0  0  0  0  0  0  0  0  0
   58.5630   29.2470   44.1350 C   0  0  0  0  0  0  0  0  0  0  0  0
   57.9380   30.4550   44.8000 C   0  0  0  0  0  0  0  0  0  0  0  0
   57.0190   30.3350   45.6290 O   0  0  0  0  0  0  0  0  0  0  0  0
   58.4100   31.7300   44.4620 N   0  0  0  0  0  0  0  0  0  0  0  0
   58.5460   32.6620   45.2610 C   0  0  0  0  0  0  0  0  0  0  0  0
   58.2630   32.7950   46.5500 N   0  0  0  0  0  0  0  0  0  0  0  0
   58.5020   33.8900   47.1950 C   0  0  0  0  0  0  0  0  0  0  0  0
   59.0670   34.9630   46.5400 C   0  0  0  0  0  0  0  0  0  0  0  0
   59.2790   34.3280   44.8000 S   0  0  0  0  0  0  0  0  0  0  0  0
   61.5200   30.3240   46.6980 N   0  0  0  0  0  0  0  0  0  0  0  0
   63.0816   34.9628   46.4668 H   0  0  0  0  0  0  0  0  0  0  0  0
   64.1028   33.6224   45.8445 H   0  0  0  0  0  0  0  0  0  0  0  0
   62.3136   33.4630   45.8445 H   0  0  0  0  0  0  0  0  0  0  0  0
   64.1841   33.5470   48.2567 H   0  0  0  0  0  0  0  0  0  0  0  0
   62.3758   33.6473   48.3549 H   0  0  0  0  0  0  0  0  0  0  0  0
   63.6680   31.4202   46.8444 H   0  0  0  0  0  0  0  0  0  0  0  0
   63.5707   31.4220   48.6931 H   0  0  0  0  0  0  0  0  0  0  0  0
   60.9249   32.2475   49.3957 H   0  0  0  0  0  0  0  0  0  0  0  0
   58.3470   29.7250   47.2040 H   0  0  0  0  0  0  0  0  0  0  0  0
   58.9299   29.5212   43.1349 H   0  0  0  0  0  0  0  0  0  0  0  0
   57.8180   28.4446   44.0297 H   0  0  0  0  0  0  0  0  0  0  0  0
   57.8170   31.9330   47.0560 H   0  0  0  0  0  0  0  0  0  0  0  0
   58.2549   33.9649   48.2643 H   0  0  0  0  0  0  0  0  0  0  0  0
   59.3287   35.9518   46.9447 H   0  0  0  0  0  0  0  0  0  0  0  0
  1  2  1  0
  2  3  1  0
  3  4  1  0
  4  5  2  0
  5  6  1  0
  6  7  2  0
  6  8  1  0
  8  9  1  0
  9 10  1  0
 10 11  1  0
 11 12  1  0
 12 13  2  0
 12 14  1  0
 14 15  2  0
 15 16  1  0
 16 17  1  0
 17 18  2  0
 18 19  1  0
  9 20  2  0
 20  4  1  0
 19 15  1  0
  1 21  1  0
  1 22  1  0
  1 23  1  0
  2 24  1  0
  2 25  1  0
  3 26  1  0
  3 27  1  0
  5 28  1  0
  8 29  1  0
 11 30  1  0
 11 31  1  0
 16 32  1  0
 17 33  1  0
 18 34  1  0
M  END
>  <smiles>  (45) 
CCCc1cc(=O)[nH]c(SCC(=O)N=c2[nH]ccs2)n1

>  <score_type>  (45) 
oracle

>  <origin>  (45) 
adg

>  <m_score__min__energy>  (45) 
-6.9800000000000004

>  <m_primary>  (45) 
energy

$$$$
45:0
     RDKit          3D

 55 58  0  0  0  0  0  0  0  0999 V2000
   58.3350   29.1180   48.7930 O   0  0  0  0  0  0  0  0  0  0  0  0
   59.4660   29.4620   48.3530 C   0  0  0  0  0  0  0  0  0  0  0  0
   60.1330   30.6260   48.8660 N   0  0  0  0  0  0  0  0  0  0  0  0
   59.8080   31.3110   50.0920 C   0  0  0  0  0  0  0  0  0  0  0  0
   58.3230   31.1970   50.7790 S   0  0  0  0  0  0  0  0  0  0  0  0
   60.7660   32.1880   50.7000 N   0  0  0  0  0  0  0  0  0  0  0  0
   62.1200   32.3050   50.2390 C   0  0  0  0  0  0  0  0  0  0  0  0
   63.1500   31.8800   51.0840 C   0  0  0  0  0  0  0  0  0  0  0  0
   64.4830   32.0060   50.6980 C   0  0  0  0  0  0  0  0  0  0  0  0
   64.8080   32.5430   49.4540 C   0  0  0  0  0  0  0  0  0  0  0  0
   63.7940   32.9510   48.5790 C   0  0  0  0  0  0  0  0  0  0  0  0
   64.1230   33.4630   47.3180 C   0  0  0  0  0  0  0  0  0  0  0  0
   63.1180   33.8530   46.4360 C   0  0  0  0  0  0  0  0  0  0  0  0
   61.7780   33.7340   46.8010 C   0  0  0  0  0  0  0  0  0  0  0  0
   61.4340   33.2210   48.0520 C   0  0  0  0  0  0  0  0  0  0  0  0
   62.4340   32.8320   48.9630 C   0  0  0  0  0  0  0  0  0  0  0  0
   60.1070   28.6790   47.3410 N   0  0  0  0  0  0  0  0  0  0  0  0
   59.4460   27.6080   46.6530 C   0  0  0  0  0  0  0  0  0  0  0  0
   59.0540   26.4670   47.3690 C   0  0  0  0  0  0  0  0  0  0  0  0
   58.3710   25.4290   46.7330 C   0  0  0  0  0  0  0  0  0  0  0  0
   58.0730   25.5200   45.3740 C   0  0  0  0  0  0  0  0  0  0  0  0
   58.4680   26.6440   44.6460 C   0  0  0  0  0  0  0  0  0  0  0  0
   59.1530   27.7040   45.2710 C   0  0  0  0  0  0  0  0  0  0  0  0
   59.5830   28.8400   44.4860 N   0  0  0  0  0  0  0  0  0  0  0  0
   58.6720   29.9520   44.6290 C   0  0  0  0  0  0  0  0  0  0  0  0
   57.5270   30.0470   43.8200 C   0  0  0  0  0  0  0  0  0  0  0  0
   56.6580   31.1330   43.9490 C   0  0  0  0  0  0  0  0  0  0  0  0
   56.9280   32.1460   44.8690 C   0  0  0  0  0  0  0  0  0  0  0  0
   58.0800   32.0870   45.6630 C   0  0  0  0  0  0  0  0  0  0  0  0
   58.3740   33.1760   46.6570 C   0  0  0  0  0  0  0  0  0  0  0  0
   57.4460   33.1370   47.7030 O   0  0  0  0  0  0  0  0  0  0  0  0
   58.9470   30.9910   45.5380 C   0  0  0  0  0  0  0  0  0  0  0  0
   60.9890   30.9280   48.3530 H   0  0  0  0  0  0  0  0  0  0  0  0
   60.4310   32.8790   51.4090 H   0  0  0  0  0  0  0  0  0  0  0  0
   62.9056   31.4419   52.0630 H   0  0  0  0  0  0  0  0  0  0  0  0
   65.2829   31.6798   51.3790 H   0  0  0  0  0  0  0  0  0  0  0  0
   65.8626   32.6465   49.1590 H   0  0  0  0  0  0  0  0  0  0  0  0
   65.1785   33.5575   47.0230 H   0  0  0  0  0  0  0  0  0  0  0  0
   63.3828   34.2565   45.4475 H   0  0  0  0  0  0  0  0  0  0  0  0
   60.9892   34.0456   46.1005 H   0  0  0  0  0  0  0  0  0  0  0  0
   60.3741   33.1198   48.3283 H   0  0  0  0  0  0  0  0  0  0  0  0
   61.1100   28.8780   47.1160 H   0  0  0  0  0  0  0  0  0  0  0  0
   59.2870   26.3897   48.4413 H   0  0  0  0  0  0  0  0  0  0  0  0
   58.0678   24.5391   47.3041 H   0  0  0  0  0  0  0  0  0  0  0  0
   57.5265   24.7060   44.8752 H   0  0  0  0  0  0  0  0  0  0  0  0
   58.2414   26.7023   43.5712 H   0  0  0  0  0  0  0  0  0  0  0  0
   60.5550   29.1100   44.7670 H   0  0  0  0  0  0  0  0  0  0  0  0
   59.6320   28.5840   43.4730 H   0  0  0  0  0  0  0  0  0  0  0  0
   57.3136   29.2612   43.0804 H   0  0  0  0  0  0  0  0  0  0  0  0
   55.7561   31.1896   43.3218 H   0  0  0  0  0  0  0  0  0  0  0  0
   56.2342   32.9935   44.9711 H   0  0  0  0  0  0  0  0  0  0  0  0
   59.3862   33.0337   47.0635 H   0  0  0  0  0  0  0  0  0  0  0  0
   58.3063   34.1511   46.1525 H   0  0  0  0  0  0  0  0  0  0  0  0
   56.7620   33.8270   47.5020 H   0  0  0  0  0  0  0  0  0  0  0  0
   59.8539   30.9430   46.1587 H   0  0  0  0  0  0  0  0  0  0  0  0
  1  2  2  0
  2  3  1  0
  3  4  1  0
  4  5  2  0
  4  6  1  0
  6  7  1  0
  7  8  2  0
  8  9  1  0
  9 10  2  0
 10 11  1  0
 11 12  2  0
 12 13  1  0
 13 14  2  0
 14 15  1  0
 15 16  2  0
  2 17  1  0
 17 18  1  0
 18 19  2  0
 19 20  1  0
 20 21  2  0
 21 22  1  0
 22 23  2  0
 23 24  1  0
 24 25  1  0
 25 26  2  0
 26 27  1  0
 27 28  2  0
 28 29  1  0
 29 30  1  0
 30 31  1  0
 29 32  2  0
 16  7  1  0
 23 18  1  0
 32 25  1  0
 16 11  1  0
  3 33  1  0
  6 34  1  0
  8 35  1  0
  9 36  1  0
 10 37  1  0
 12 38  1  0
 13 39  1  0
 14 40  1  0
 15 41  1  0
 17 42  1  0
 19 43  1  0
 20 44  1  0
 21 45  1  0
 22 46  1  0
 24 47  1  0
 24 48  1  0
 26 49  1  0
 27 50  1  0
 28 51  1  0
 30 52  1  0
 30 53  1  0
 31 54  1  0
 32 55  1  0
M  CHG  1  24   1
M  END
>  <UniqueID>  (46) 
41

>  <SMILES>  (46) 
O=C(NC(=S)Nc1cccc2ccccc12)Nc1ccccc1[NH2+]c1cccc(CO)c1

>  <Energy>  (46) 
76.41424021982633

>  <Genealogy>  (46) 
O=C(NC(=S)Nc1cccc2ccccc12)Nc1ccccc1[NH2+]c1cccc(CO)c1 (protonated)
O=C(NC(=S)Nc1cccc2ccccc12)Nc1ccccc1[NH2+]c1cccc(CO)c1 (3D coordinates assigned)
O=C(NC(=S)Nc1cccc2ccccc12)Nc1ccccc1[NH2+]c1cccc(CO)c1 (optimized conformer: 76.41424021982633 kcal/mol)

>  <smiles>  (46) 
O=C(NC(=S)Nc1cccc2ccccc12)Nc1ccccc1Nc1cccc(CO)c1

>  <score_type>  (46) 
oracle

>  <origin>  (46) 
adg

>  <m_score__min__energy>  (46) 
-7.3200000000000003

>  <m_primary>  (46) 
energy

$$$$
46:0
     RDKit          3D

 59 62  0  0  0  0  0  0  0  0999 V2000
   55.4720   26.1920   45.9930 O   0  0  0  0  0  0  0  0  0  0  0  0
   56.3060   27.1310   45.8750 C   0  0  0  0  0  0  0  0  0  0  0  0
   55.9070   28.3600   45.2630 N   0  0  0  0  0  0  0  0  0  0  0  0
   56.9610   29.2750   44.2390 S   0  0  0  0  0  0  0  0  0  0  0  0
   56.2180   30.4640   43.6980 O   0  0  0  0  0  0  0  0  0  0  0  0
   57.4060   28.4220   43.0860 O   0  0  0  0  0  0  0  0  0  0  0  0
   58.3450   29.8380   45.1710 C   0  0  0  0  0  0  0  0  0  0  0  0
   58.1970   30.8490   46.1310 C   0  0  0  0  0  0  0  0  0  0  0  0
   59.3060   31.3000   46.8530 C   0  0  0  0  0  0  0  0  0  0  0  0
   60.5780   30.7540   46.6140 C   0  0  0  0  0  0  0  0  0  0  0  0
   61.7660   31.2170   47.4150 C   0  0  0  0  0  0  0  0  0  0  0  0
   61.6060   30.8280   48.8840 C   0  0  0  0  0  0  0  0  0  0  0  0
   62.0870   31.9190   49.7290 N   0  0  0  0  0  0  0  0  0  0  0  0
   60.8380   33.1110   49.9170 S   0  0  0  0  0  0  0  0  0  0  0  0
   60.5490   33.7580   48.5920 O   0  0  0  0  0  0  0  0  0  0  0  0
   61.3070   34.1710   50.8730 O   0  0  0  0  0  0  0  0  0  0  0  0
   59.3800   32.3620   50.5630 C   0  0  0  0  0  0  0  0  0  0  0  0
   59.0220   31.0590   50.1930 C   0  0  0  0  0  0  0  0  0  0  0  0
   57.8700   30.4700   50.7230 C   0  0  0  0  0  0  0  0  0  0  0  0
   57.0590   31.1740   51.6310 C   0  0  0  0  0  0  0  0  0  0  0  0
   55.8790   30.5660   52.1930 N   0  0  0  0  0  0  0  0  0  0  0  0
   54.5330   31.1060   52.0690 C   0  0  0  0  0  0  0  0  0  0  0  0
   53.6560   30.2830   53.0290 C   0  0  0  0  0  0  0  0  0  0  0  0
   54.4680   29.0430   53.4250 C   0  0  0  0  0  0  0  0  0  0  0  0
   55.8250   29.3590   52.9360 C   0  0  0  0  0  0  0  0  0  0  0  0
   56.8150   28.5970   53.0950 O   0  0  0  0  0  0  0  0  0  0  0  0
   57.4370   32.4740   52.0120 C   0  0  0  0  0  0  0  0  0  0  0  0
   58.5880   33.0620   51.4790 C   0  0  0  0  0  0  0  0  0  0  0  0
   60.7200   29.7340   45.6600 C   0  0  0  0  0  0  0  0  0  0  0  0
   59.6100   29.2850   44.9380 C   0  0  0  0  0  0  0  0  0  0  0  0
   57.6940   26.9570   46.3640 C   0  0  0  0  0  0  0  0  0  0  0  0
   58.5840   26.0890   45.7050 C   0  0  0  0  0  0  0  0  0  0  0  0
   59.8900   25.9220   46.1740 C   0  0  0  0  0  0  0  0  0  0  0  0
   60.3230   26.6190   47.3060 C   0  0  0  0  0  0  0  0  0  0  0  0
   61.5890   26.4540   47.7610 F   0  0  0  0  0  0  0  0  0  0  0  0
   59.4500   27.4850   47.9680 C   0  0  0  0  0  0  0  0  0  0  0  0
   58.1430   27.6550   47.5030 C   0  0  0  0  0  0  0  0  0  0  0  0
   57.2058   31.2885   46.3166 H   0  0  0  0  0  0  0  0  0  0  0  0
   59.1819   32.0864   47.6121 H   0  0  0  0  0  0  0  0  0  0  0  0
   62.6773   30.7494   47.0140 H   0  0  0  0  0  0  0  0  0  0  0  0
   61.8383   32.3123   47.3431 H   0  0  0  0  0  0  0  0  0  0  0  0
   60.5444   30.6370   49.0998 H   0  0  0  0  0  0  0  0  0  0  0  0
   62.1898   29.9186   49.0895 H   0  0  0  0  0  0  0  0  0  0  0  0
   59.6486   30.4981   49.4840 H   0  0  0  0  0  0  0  0  0  0  0  0
   57.5955   29.4467   50.4271 H   0  0  0  0  0  0  0  0  0  0  0  0
   54.5195   32.1682   52.3545 H   0  0  0  0  0  0  0  0  0  0  0  0
   54.1669   31.0420   51.0337 H   0  0  0  0  0  0  0  0  0  0  0  0
   53.4133   30.8770   53.9224 H   0  0  0  0  0  0  0  0  0  0  0  0
   52.7094   29.9957   52.5479 H   0  0  0  0  0  0  0  0  0  0  0  0
   54.4648   28.9010   54.5158 H   0  0  0  0  0  0  0  0  0  0  0  0
   54.0640   28.1101   53.0048 H   0  0  0  0  0  0  0  0  0  0  0  0
   56.8229   33.0319   52.7342 H   0  0  0  0  0  0  0  0  0  0  0  0
   58.8723   34.0806   51.7817 H   0  0  0  0  0  0  0  0  0  0  0  0
   61.7084   29.2862   45.4798 H   0  0  0  0  0  0  0  0  0  0  0  0
   59.7311   28.4937   44.1835 H   0  0  0  0  0  0  0  0  0  0  0  0
   58.2494   25.5377   44.8139 H   0  0  0  0  0  0  0  0  0  0  0  0
   60.5782   25.2412   45.6517 H   0  0  0  0  0  0  0  0  0  0  0  0
   59.7918   28.0346   48.8574 H   0  0  0  0  0  0  0  0  0  0  0  0
   57.4603   28.3381   48.0295 H   0  0  0  0  0  0  0  0  0  0  0  0
  1  2  2  0
  2  3  1  0
  3  4  1  0
  4  5  2  0
  4  6  2  0
  4  7  1  0
  7  8  2  0
  8  9  1  0
  9 10  2  0
 10 11  1  0
 11 12  1  0
 12 13  1  0
 13 14  1  0
 14 15  2  0
 14 16  2  0
 14 17  1  0
 17 18  2  0
 18 19  1  0
 19 20  2  0
 20 21  1  0
 21 22  1  0
 22 23  1  0
 23 24  1  0
 24 25  1  0
 25 26  2  0
 20 27  1  0
 27 28  2  0
 10 29  1  0
 29 30  2  0
  2 31  1  0
 31 32  2  0
 32 33  1  0
 33 34  2  0
 34 35  1  0
 34 36  1  0
 36 37  2  0
 30  7  1  0
 37 31  1  0
 28 17  1  0
 25 21  1  0
  8 38  1  0
  9 39  1  0
 11 40  1  0
 11 41  1  0
 12 42  1  0
 12 43  1  0
 18 44  1  0
 19 45  1  0
 22 46  1  0
 22 47  1  0
 23 48  1  0
 23 49  1  0
 24 50  1  0
 24 51  1  0
 27 52  1  0
 28 53  1  0
 29 54  1  0
 30 55  1  0
 32 56  1  0
 33 57  1  0
 36 58  1  0
 37 59  1  0
M  CHG  2   3  -1  13  -1
M  END
>  <UniqueID>  (47) 
42

>  <SMILES>  (47) 
O=C([N-]S(=O)(=O)c1ccc(CC[N-]S(=O)(=O)c2ccc(N3CCCC3=O)cc2)cc1)c1ccc(F)cc1

>  <Energy>  (47) 
70.91167951861578

>  <Genealogy>  (47) 
O=C([N-]S(=O)(=O)c1ccc(CC[N-]S(=O)(=O)c2ccc(N3CCCC3=O)cc2)cc1)c1ccc(F)cc1 (protonated)
O=C([N-]S(=O)(=O)c1ccc(CC[N-]S(=O)(=O)c2ccc(N3CCCC3=O)cc2)cc1)c1ccc(F)cc1 (3D coordinates assigned)
O=C([N-]S(=O)(=O)c1ccc(CC[N-]S(=O)(=O)c2ccc(N3CCCC3=O)cc2)cc1)c1ccc(F)cc1 (nonaromatic ring conformer: 70.91167951861578 kcal/mol)

>  <smiles>  (47) 
O=C(NS(=O)(=O)c1ccc(CCNS(=O)(=O)c2ccc(N3CCCC3=O)cc2)cc1)c1ccc(F)cc1

>  <score_type>  (47) 
oracle

>  <origin>  (47) 
adg

>  <m_score__min__energy>  (47) 
-12.91

>  <m_primary>  (47) 
energy

$$$$
47:0
     RDKit          3D

 47 49  0  0  0  0  0  0  0  0999 V2000
   56.7801   31.3410   41.1722 H   0  0  0  0  0  0  0  0  0  0  0  0
   56.9450   31.1880   42.2490 C   0  0  0  0  0  0  0  0  0  0  0  0
   56.2920   30.1460   42.9150 C   0  0  0  0  0  0  0  0  0  0  0  0
   55.6026   29.4917   42.3613 H   0  0  0  0  0  0  0  0  0  0  0  0
   56.5090   29.9290   44.2820 C   0  0  0  0  0  0  0  0  0  0  0  0
   55.7920   28.8670   44.9340 N   0  0  0  0  0  0  0  0  0  0  0  0
   56.2960   27.9100   45.6560 C   0  0  0  0  0  0  0  0  0  0  0  0
   57.4780   28.0660   46.3130 N   0  0  0  0  0  0  0  0  0  0  0  0
   58.0050   27.0470   47.0360 C   0  0  0  0  0  0  0  0  0  0  0  0
   59.1200   27.2360   47.6780 N   0  0  0  0  0  0  0  0  0  0  0  0
   59.8710   28.4590   47.7620 C   0  0  0  0  0  0  0  0  0  0  0  0
   60.3060   28.9840   48.9940 C   0  0  0  0  0  0  0  0  0  0  0  0
   60.0489   28.4685   49.9311 H   0  0  0  0  0  0  0  0  0  0  0  0
   61.0640   30.1590   49.0300 C   0  0  0  0  0  0  0  0  0  0  0  0
   61.3852   30.5737   49.9969 H   0  0  0  0  0  0  0  0  0  0  0  0
   61.4160   30.8100   47.8410 C   0  0  0  0  0  0  0  0  0  0  0  0
   62.3590   32.2950   47.8980 S   0  0  0  0  0  0  0  0  0  0  0  0
   62.0250   33.0690   49.1440 O   0  0  0  0  0  0  0  0  0  0  0  0
   62.0360   33.1440   46.7010 O   0  0  0  0  0  0  0  0  0  0  0  0
   64.0430   31.9060   47.9000 N   0  0  0  0  0  0  0  0  0  0  0  0
   64.1960   31.2130   47.1320 H   0  0  0  0  0  0  0  0  0  0  0  0
   64.5580   32.7750   47.6300 H   0  0  0  0  0  0  0  0  0  0  0  0
   61.0040   30.2750   46.6130 C   0  0  0  0  0  0  0  0  0  0  0  0
   61.2766   30.7817   45.6755 H   0  0  0  0  0  0  0  0  0  0  0  0
   60.2480   29.1000   46.5750 C   0  0  0  0  0  0  0  0  0  0  0  0
   59.9469   28.6756   45.6059 H   0  0  0  0  0  0  0  0  0  0  0  0
   57.3390   25.8640   47.1090 N   0  0  0  0  0  0  0  0  0  0  0  0
   56.1650   25.6940   46.4510 C   0  0  0  0  0  0  0  0  0  0  0  0
   55.5520   24.5490   46.5260 N   0  0  0  0  0  0  0  0  0  0  0  0
   54.6810   23.9940   45.4890 C   0  0  0  0  0  0  0  0  0  0  0  0
   53.8318   24.6752   45.3310 H   0  0  0  0  0  0  0  0  0  0  0  0
   54.3287   23.0064   45.8213 H   0  0  0  0  0  0  0  0  0  0  0  0
   55.4360   23.8210   44.1670 C   0  0  0  0  0  0  0  0  0  0  0  0
   56.4433   24.2516   44.2668 H   0  0  0  0  0  0  0  0  0  0  0  0
   54.8795   24.3364   43.3703 H   0  0  0  0  0  0  0  0  0  0  0  0
   55.5470   22.4490   43.8330 O   0  0  0  0  0  0  0  0  0  0  0  0
   56.8730   22.1370   43.4650 C   0  0  0  0  0  0  0  0  0  0  0  0
   57.4808   21.9940   44.3706 H   0  0  0  0  0  0  0  0  0  0  0  0
   56.8802   21.2126   42.8688 H   0  0  0  0  0  0  0  0  0  0  0  0
   57.2916   22.9612   42.8688 H   0  0  0  0  0  0  0  0  0  0  0  0
   55.6510   26.7190   45.7190 N   0  0  0  0  0  0  0  0  0  0  0  0
   57.3550   30.8050   44.9900 C   0  0  0  0  0  0  0  0  0  0  0  0
   57.5034   30.6693   46.0715 H   0  0  0  0  0  0  0  0  0  0  0  0
   58.0070   31.8470   44.3220 C   0  0  0  0  0  0  0  0  0  0  0  0
   58.6781   32.5196   44.8763 H   0  0  0  0  0  0  0  0  0  0  0  0
   57.8070   32.0350   42.9510 C   0  0  0  0  0  0  0  0  0  0  0  0
   58.4580   33.0690   42.2900 O   0  0  0  0  0  0  0  0  0  0  0  0
  1  2  1  0
  2  3  2  0
  3  4  1  0
  3  5  1  0
  5  6  1  0
  6  7  2  0
  7  8  1  0
  8  9  1  0
  9 10  2  3
 10 11  1  0
 11 12  2  0
 12 13  1  0
 12 14  1  0
 14 15  1  0
 14 16  2  0
 16 17  1  0
 17 18  2  0
 17 19  2  0
 17 20  1  0
 20 21  1  0
 20 22  1  0
 16 23  1  0
 23 24  1  0
 23 25  2  0
 25 26  1  0
  9 27  1  0
 27 28  1  0
 28 29  2  0
 29 30  1  0
 30 31  1  0
 30 32  1  0
 30 33  1  0
 33 34  1  0
 33 35  1  0
 33 36  1  0
 36 37  1  0
 37 38  1  0
 37 39  1  0
 37 40  1  0
 28 41  1  0
  5 42  2  0
 42 43  1  0
 42 44  1  0
 44 45  1  0
 44 46  2  0
 46 47  1  0
 46  2  1  0
 41  7  1  0
 25 11  1  0
M  CHG  4   8  -1  27  -1  41  -1  47  -1
M  END
>  <UniqueID>  (48) 
43

>  <SMILES>  (48) 
COCC/N=c1/[n-]c(=Nc2ccc(S(N)(=O)=O)cc2)[n-]/c(=N\c2ccc([O-])cc2)[n-]1

>  <Energy>  (48) 
61.362963922561285

>  <Genealogy>  (48) 
COCCN=c1[n-]c(=Nc2ccc([O-])cc2)[n-]c(=Nc2ccc(S(N)(=O)=O)cc2)[n-]1 (protonated)
COCC/N=c1/[n-]c(=Nc2ccc(S(N)(=O)=O)cc2)[n-]/c(=N\c2ccc([O-])cc2)[n-]1 (cis-trans isomerization)
COCC/N=c1/[n-]c(=Nc2ccc(S(N)(=O)=O)cc2)[n-]/c(=N\c2ccc([O-])cc2)[n-]1 (3D coordinates assigned)
COCC/N=c1/[n-]c(=Nc2ccc(S(N)(=O)=O)cc2)[n-]/c(=N\c2ccc([O-])cc2)[n-]1 (optimized conformer: 61.362963922561285 kcal/mol)

>  <smiles>  (48) 
COCCN=c1[nH]c(=Nc2ccc(O)cc2)[nH]c(=Nc2ccc(S(N)(=O)=O)cc2)[nH]1

>  <score_type>  (48) 
oracle

>  <origin>  (48) 
adg

>  <m_score__min__energy>  (48) 
-14.81

>  <m_primary>  (48) 
energy

$$$$
48:0
     RDKit          3D

 71 75  0  0  1  0  0  0  0  0999 V2000
   63.7020   33.8050   47.6780 C   0  0  0  0  0  0  0  0  0  0  0  0
   64.0090   33.3240   49.0110 N   0  0  0  0  0  0  0  0  0  0  0  0
   63.6890   31.9440   49.0970 C   0  0  0  0  0  0  0  0  0  0  0  0
   62.2750   31.6360   49.4620 C   0  0  0  0  0  0  0  0  0  0  0  0
   61.5380   32.8970   49.2760 N   0  0  0  0  0  0  0  0  0  0  0  0
   60.5480   33.0580   48.2780 C   0  0  0  0  0  0  0  0  0  0  0  0
   60.2100   34.3050   47.7860 C   0  0  0  0  0  0  0  0  0  0  0  0
   59.2460   34.4570   46.8020 C   0  0  0  0  0  0  0  0  0  0  0  0
   58.5740   33.3820   46.2610 C   0  0  0  0  0  0  0  0  0  0  0  0
   57.5740   33.5950   45.2340 C   0  0  0  0  0  0  0  0  0  0  0  0
   56.7920   34.5920   45.3830 O   0  0  0  0  0  0  0  0  0  0  0  0
   57.4100   32.7820   44.0920 N   0  0  0  0  0  0  0  0  0  0  0  0
   57.2110   31.5090   44.1510 C   0  0  0  0  0  0  0  0  0  0  0  0
   58.2280   30.5820   44.1510 C   0  0  0  0  0  0  0  0  0  0  0  0
   58.0100   29.2200   44.2130 C   0  0  0  0  0  0  0  0  0  0  0  0
   59.0700   28.3040   44.2110 O   0  0  0  0  0  0  0  0  0  0  0  0
   59.3730   27.7100   45.4300 C   0  0  0  0  0  0  0  0  0  0  0  0
   59.2760   26.3330   45.4950 C   0  0  0  0  0  0  0  0  0  0  0  0
   59.5550   25.6430   46.6620 C   0  0  0  0  0  0  0  0  0  0  0  0
   59.9390   26.3880   47.7750 C   0  0  0  0  0  0  0  0  0  0  0  0
   60.0340   27.7580   47.7090 C   0  0  0  0  0  0  0  0  0  0  0  0
   60.4310   28.4610   48.8950 N   0  0  0  0  0  0  0  0  0  0  0  0
   59.5500   29.4110   49.4920 C   0  0  0  0  0  0  0  0  0  0  0  0
   58.4570   29.5960   48.9530 O   0  0  0  0  0  0  0  0  0  0  0  0
   59.9350   30.1000   50.6520 N   0  0  0  0  0  0  0  0  0  0  0  0
   59.1880   31.0630   51.3570 C   0  0  0  0  0  0  0  0  0  0  0  0
   57.7920   30.9790   51.3270 C   0  0  0  0  0  0  0  0  0  0  0  0
   56.9960   31.8850   51.9930 C   0  0  0  0  0  0  0  0  0  0  0  0
   57.5290   32.9240   52.7260 C   0  0  0  0  0  0  0  0  0  0  0  0
   58.9010   33.0190   52.7630 C   0  0  0  0  0  0  0  0  0  0  0  0
   59.4930   34.1330   53.5470 C   0  0  0  0  0  0  0  0  0  0  0  0
   59.1780   33.9640   54.9010 F   0  0  0  0  0  0  0  0  0  0  0  0
   60.8610   34.1860   53.4370 F   0  0  0  0  0  0  0  0  0  0  0  0
   58.8700   35.3110   53.1540 F   0  0  0  0  0  0  0  0  0  0  0  0
   59.7010   32.1040   52.0900 C   0  0  0  0  0  0  0  0  0  0  0  0
   59.7520   28.4430   46.5370 C   0  0  0  0  0  0  0  0  0  0  0  0
   56.7290   28.8090   44.2760 N   0  0  0  0  0  0  0  0  0  0  0  0
   55.6960   29.7010   44.2780 C   0  0  0  0  0  0  0  0  0  0  0  0
   55.9400   31.0350   44.2170 N   0  0  0  0  0  0  0  0  0  0  0  0
   58.9050   32.1340   46.7450 C   0  0  0  0  0  0  0  0  0  0  0  0
   59.8790   31.9820   47.7400 C   0  0  0  0  0  0  0  0  0  0  0  0
   61.9290   33.9580   50.2030 C   0  0  0  0  0  0  0  0  0  0  0  0
   63.4060   34.1930   49.9660 C   0  0  0  0  0  0  0  0  0  0  0  0
   63.1114   34.7303   47.7491 H   0  0  0  0  0  0  0  0  0  0  0  0
   64.6379   34.0080   47.1369 H   0  0  0  0  0  0  0  0  0  0  0  0
   63.1238   33.0416   47.1369 H   0  0  0  0  0  0  0  0  0  0  0  0
   63.8941   31.4865   48.1179 H   0  0  0  0  0  0  0  0  0  0  0  0
   64.3072   31.5399   49.9122 H   0  0  0  0  0  0  0  0  0  0  0  0
   61.8698   30.8531   48.8041 H   0  0  0  0  0  0  0  0  0  0  0  0
   62.1915   31.2624   50.4932 H   0  0  0  0  0  0  0  0  0  0  0  0
   60.7173   35.1961   48.1843 H   0  0  0  0  0  0  0  0  0  0  0  0
   59.0094   35.4687   46.4409 H   0  0  0  0  0  0  0  0  0  0  0  0
   59.2655   30.9438   44.0991 H   0  0  0  0  0  0  0  0  0  0  0  0
   58.9702   25.7727   44.5992 H   0  0  0  0  0  0  0  0  0  0  0  0
   59.4765   24.5468   46.7090 H   0  0  0  0  0  0  0  0  0  0  0  0
   60.1693   25.8731   48.7194 H   0  0  0  0  0  0  0  0  0  0  0  0
   61.3820   28.2390   49.2850 H   0  0  0  0  0  0  0  0  0  0  0  0
   60.9010   29.8610   51.0330 H   0  0  0  0  0  0  0  0  0  0  0  0
   57.3169   30.1676   50.7562 H   0  0  0  0  0  0  0  0  0  0  0  0
   55.9028   31.7762   51.9383 H   0  0  0  0  0  0  0  0  0  0  0  0
   56.8874   33.6432   53.2563 H   0  0  0  0  0  0  0  0  0  0  0  0
   60.7935   32.2188   52.1471 H   0  0  0  0  0  0  0  0  0  0  0  0
   59.8281   29.5394   46.4904 H   0  0  0  0  0  0  0  0  0  0  0  0
   56.5340   27.8020   44.3240 H   0  0  0  0  0  0  0  0  0  0  0  0
   54.6593   29.3367   44.3294 H   0  0  0  0  0  0  0  0  0  0  0  0
   58.3967   31.2448   46.3438 H   0  0  0  0  0  0  0  0  0  0  0  0
   60.1168   30.9712   48.1029 H   0  0  0  0  0  0  0  0  0  0  0  0
   61.3578   34.8753   49.9974 H   0  0  0  0  0  0  0  0  0  0  0  0
   61.7274   33.6765   51.2471 H   0  0  0  0  0  0  0  0  0  0  0  0
   63.5348   35.2275   49.6150 H   0  0  0  0  0  0  0  0  0  0  0  0
   63.9068   33.9911   50.9243 H   0  0  0  0  0  0  0  0  0  0  0  0
  1  2  1  0
  2  3  1  0
  3  4  1  0
  4  5  1  0
  5  6  1  0
  6  7  2  0
  7  8  1  0
  8  9  2  0
  9 10  1  0
 10 11  2  0
 10 12  1  0
 12 13  2  0
 13 14  1  0
 14 15  2  0
 15 16  1  0
 16 17  1  0
 17 18  2  0
 18 19  1  0
 19 20  2  0
 20 21  1  0
 21 22  1  0
 22 23  1  0
 23 24  2  0
 23 25  1  0
 25 26  1  0
 26 27  2  0
 27 28  1  0
 28 29  2  0
 29 30  1  0
 30 31  1  0
 31 32  1  0
 31 33  1  0
 31 34  1  0
 30 35  2  0
 21 36  2  0
 15 37  1  0
 37 38  1  0
 38 39  2  0
  9 40  1  0
 40 41  2  0
  5 42  1  0
 42 43  1  0
 43  2  1  0
 41  6  1  0
 39 13  1  0
 36 17  1  0
 35 26  1  0
  1 44  1  0
  1 45  1  0
  1 46  1  0
  3 47  1  0
  3 48  1  0
  4 49  1  0
  4 50  1  0
  7 51  1  0
  8 52  1  0
 14 53  1  0
 18 54  1  0
 19 55  1  0
 20 56  1  0
 22 57  1  0
 25 58  1  0
 27 59  1  0
 28 60  1  0
 29 61  1  0
 35 62  1  0
 36 63  1  0
 37 64  1  0
 38 65  1  0
 40 66  1  0
 41 67  1  0
 42 68  1  0
 42 69  1  0
 43 70  1  0
 43 71  1  0
M  END
>  <smiles>  (49) 
CN1CCN(c2ccc(C(=O)N=c3cc(Oc4cccc(NC(=O)Nc5cccc(C(F)(F)F)c5)c4)[nH]cn3)cc2)CC1

>  <score_type>  (49) 
oracle

>  <origin>  (49) 
adg

>  <m_score__min__energy>  (49) 
-9.9199999999999999

>  <m_primary>  (49) 
energy

$$$$
49:0
     RDKit          3D

 67 70  0  0  0  0  0  0  0  0999 V2000
   56.9550   21.5160   46.2920 C   0  0  0  0  0  0  0  0  0  0  0  0
   57.0300   22.6640   47.1310 O   0  0  0  0  0  0  0  0  0  0  0  0
   57.2770   23.9670   46.6740 C   0  0  0  0  0  0  0  0  0  0  0  0
   56.8450   24.3090   45.3870 C   0  0  0  0  0  0  0  0  0  0  0  0
   57.0650   25.5910   44.8840 C   0  0  0  0  0  0  0  0  0  0  0  0
   57.7210   26.5540   45.6610 C   0  0  0  0  0  0  0  0  0  0  0  0
   57.9250   27.8790   45.1370 N   0  0  0  0  0  0  0  0  0  0  0  0
   59.0660   28.1320   44.2450 C   0  0  0  0  0  0  0  0  0  0  0  0
   59.9030   29.3080   44.7470 C   0  0  0  0  0  0  0  0  0  0  0  0
   60.5520   28.9580   46.0050 N   0  0  0  0  0  0  0  0  0  0  0  0
   60.6910   29.8400   47.1210 C   0  0  0  0  0  0  0  0  0  0  0  0
   61.7470   30.5170   47.2260 O   0  0  0  0  0  0  0  0  0  0  0  0
   59.6650   29.9310   48.1260 N   0  0  0  0  0  0  0  0  0  0  0  0
   59.6580   30.9130   49.1790 C   0  0  0  0  0  0  0  0  0  0  0  0
   58.5540   31.7660   49.3760 C   0  0  0  0  0  0  0  0  0  0  0  0
   58.5640   32.7050   50.4110 C   0  0  0  0  0  0  0  0  0  0  0  0
   59.6640   32.7950   51.2660 C   0  0  0  0  0  0  0  0  0  0  0  0
   60.7530   31.9350   51.0960 C   0  0  0  0  0  0  0  0  0  0  0  0
   60.7500   30.9930   50.0620 C   0  0  0  0  0  0  0  0  0  0  0  0
   61.8170   30.1660   49.9140 F   0  0  0  0  0  0  0  0  0  0  0  0
   56.9810   28.9220   45.4390 C   0  0  0  0  0  0  0  0  0  0  0  0
   55.7980   28.8430   45.0080 O   0  0  0  0  0  0  0  0  0  0  0  0
   57.3920   30.0720   46.1900 N   0  0  0  0  0  0  0  0  0  0  0  0
   57.7740   31.3340   45.6270 C   0  0  0  0  0  0  0  0  0  0  0  0
   57.4180   31.6240   44.3060 C   0  0  0  0  0  0  0  0  0  0  0  0
   57.7820   32.8430   43.7290 C   0  0  0  0  0  0  0  0  0  0  0  0
   58.5300   33.7690   44.4600 C   0  0  0  0  0  0  0  0  0  0  0  0
   58.9370   33.4760   45.7670 C   0  0  0  0  0  0  0  0  0  0  0  0
   59.7000   34.4230   46.4630 O   0  0  0  0  0  0  0  0  0  0  0  0
   60.8840   34.1400   47.1570 C   0  0  0  0  0  0  0  0  0  0  0  0
   61.9400   33.5190   46.4840 C   0  0  0  0  0  0  0  0  0  0  0  0
   63.1140   33.2140   47.1770 C   0  0  0  0  0  0  0  0  0  0  0  0
   63.2180   33.5210   48.5380 C   0  0  0  0  0  0  0  0  0  0  0  0
   64.4230   33.2150   49.2660 C   0  0  0  0  0  0  0  0  0  0  0  0
   65.3890   32.9680   49.8500 N   0  0  0  0  0  0  0  0  0  0  0  0
   62.1380   34.1330   49.1820 C   0  0  0  0  0  0  0  0  0  0  0  0
   61.0070   34.4240   48.4840 N   0  0  0  0  0  0  0  0  0  0  0  0
   58.5410   32.2600   46.3550 C   0  0  0  0  0  0  0  0  0  0  0  0
   58.1560   26.2310   46.9600 C   0  0  0  0  0  0  0  0  0  0  0  0
   58.7840   27.2280   47.7260 O   0  0  0  0  0  0  0  0  0  0  0  0
   59.9720   27.0360   48.4880 C   0  0  0  0  0  0  0  0  0  0  0  0
   57.9360   24.9330   47.4590 C   0  0  0  0  0  0  0  0  0  0  0  0
   56.8959   20.6106   46.9139 H   0  0  0  0  0  0  0  0  0  0  0  0
   56.0594   21.5838   45.6570 H   0  0  0  0  0  0  0  0  0  0  0  0
   57.8518   21.4667   45.6570 H   0  0  0  0  0  0  0  0  0  0  0  0
   56.3282   23.5609   44.7679 H   0  0  0  0  0  0  0  0  0  0  0  0
   56.7213   25.8473   43.8710 H   0  0  0  0  0  0  0  0  0  0  0  0
   59.6975   27.2322   44.2046 H   0  0  0  0  0  0  0  0  0  0  0  0
   58.6810   28.3776   43.2443 H   0  0  0  0  0  0  0  0  0  0  0  0
   60.6698   29.5552   43.9981 H   0  0  0  0  0  0  0  0  0  0  0  0
   59.2461   30.1753   44.9090 H   0  0  0  0  0  0  0  0  0  0  0  0
   58.9390   29.1830   48.1590 H   0  0  0  0  0  0  0  0  0  0  0  0
   57.6801   31.6925   48.7120 H   0  0  0  0  0  0  0  0  0  0  0  0
   57.7030   33.3749   50.5524 H   0  0  0  0  0  0  0  0  0  0  0  0
   59.6738   33.5423   52.0731 H   0  0  0  0  0  0  0  0  0  0  0  0
   61.6144   31.9993   51.7771 H   0  0  0  0  0  0  0  0  0  0  0  0
   56.8486   30.8887   43.7185 H   0  0  0  0  0  0  0  0  0  0  0  0
   57.4791   33.0741   42.6971 H   0  0  0  0  0  0  0  0  0  0  0  0
   58.8007   34.7337   44.0061 H   0  0  0  0  0  0  0  0  0  0  0  0
   61.8473   33.2722   45.4161 H   0  0  0  0  0  0  0  0  0  0  0  0
   63.9542   32.7338   46.6541 H   0  0  0  0  0  0  0  0  0  0  0  0
   62.2029   34.3789   50.2522 H   0  0  0  0  0  0  0  0  0  0  0  0
   58.8336   32.0329   47.3908 H   0  0  0  0  0  0  0  0  0  0  0  0
   59.7301   27.0751   49.5604 H   0  0  0  0  0  0  0  0  0  0  0  0
   60.4084   26.0557   48.2461 H   0  0  0  0  0  0  0  0  0  0  0  0
   60.6950   27.8290   48.2461 H   0  0  0  0  0  0  0  0  0  0  0  0
   58.2815   24.6713   48.4700 H   0  0  0  0  0  0  0  0  0  0  0  0
  1  2  1  0
  2  3  1  0
  3  4  2  0
  4  5  1  0
  5  6  2  0
  6  7  1  0
  7  8  1  0
  8  9  1  0
  9 10  1  0
 10 11  1  0
 11 12  2  0
 11 13  1  0
 13 14  1  0
 14 15  2  0
 15 16  1  0
 16 17  2  0
 17 18  1  0
 18 19  2  0
 19 20  1  0
  7 21  1  0
 21 22  2  0
 21 23  1  0
 23 24  1  0
 24 25  2  0
 25 26  1  0
 26 27  2  0
 27 28  1  0
 28 29  1  0
 29 30  1  0
 30 31  2  0
 31 32  1  0
 32 33  2  0
 33 34  1  0
 34 35  3  0
 33 36  1  0
 36 37  2  0
 28 38  2  0
  6 39  1  0
 39 40  1  0
 40 41  1  0
 39 42  2  0
 42  3  1  0
 19 14  1  0
 38 24  1  0
 37 30  1  0
  1 43  1  0
  1 44  1  0
  1 45  1  0
  4 46  1  0
  5 47  1  0
  8 48  1  0
  8 49  1  0
  9 50  1  0
  9 51  1  0
 13 52  1  0
 15 53  1  0
 16 54  1  0
 17 55  1  0
 18 56  1  0
 25 57  1  0
 26 58  1  0
 27 59  1  0
 31 60  1  0
 32 61  1  0
 36 62  1  0
 38 63  1  0
 41 64  1  0
 41 65  1  0
 41 66  1  0
 42 67  1  0
M  CHG  2  10  -1  23  -1
M  END
>  <UniqueID>  (50) 
44

>  <SMILES>  (50) 
COc1ccc(N(CC[N-]C(=O)Nc2ccccc2F)C(=O)[N-]c2cccc(Oc3ccc(C#N)cn3)c2)c(OC)c1

>  <Energy>  (50) 
83.08617482317625

>  <Genealogy>  (50) 
COc1ccc(N(CC[N-]C(=O)Nc2ccccc2F)C(=O)[N-]c2cccc(Oc3ccc(C#N)cn3)c2)c(OC)c1 (protonated)
COc1ccc(N(CC[N-]C(=O)Nc2ccccc2F)C(=O)[N-]c2cccc(Oc3ccc(C#N)cn3)c2)c(OC)c1 (3D coordinates assigned)
COc1ccc(N(CC[N-]C(=O)Nc2ccccc2F)C(=O)[N-]c2cccc(Oc3ccc(C#N)cn3)c2)c(OC)c1 (optimized conformer: 83.08617482317625 kcal/mol)

>  <smiles>  (50) 
COc1ccc(N(CCNC(=O)Nc2ccccc2F)C(=O)Nc2cccc(Oc3ccc(C#N)cn3)c2)c(OC)c1

>  <score_type>  (50) 
oracle

>  <origin>  (50) 
adg

>  <m_score__min__energy>  (50) 
-11.619999999999999

>  <m_primary>  (50) 
energy

$$$$
50:0
     RDKit          3D

 57 60  0  0  0  0  0  0  0  0999 V2000
   63.2562   34.7411   46.6474 H   0  0  0  0  0  0  0  0  0  0  0  0
   62.8400   33.8350   47.1120 C   0  0  0  0  0  0  0  0  0  0  0  0
   63.5490   33.1810   48.1230 C   0  0  0  0  0  0  0  0  0  0  0  0
   64.5229   33.5729   48.4516 H   0  0  0  0  0  0  0  0  0  0  0  0
   63.0250   32.0320   48.7170 C   0  0  0  0  0  0  0  0  0  0  0  0
   63.5896   31.5192   49.5096 H   0  0  0  0  0  0  0  0  0  0  0  0
   61.7790   31.5270   48.3070 C   0  0  0  0  0  0  0  0  0  0  0  0
   61.0700   32.1750   47.2660 C   0  0  0  0  0  0  0  0  0  0  0  0
   61.6030   33.3400   46.6900 C   0  0  0  0  0  0  0  0  0  0  0  0
   61.0436   33.8658   45.9022 H   0  0  0  0  0  0  0  0  0  0  0  0
   59.7190   31.6790   46.8010 C   0  0  0  0  0  0  0  0  0  0  0  0
   58.9433   32.3749   47.1530 H   0  0  0  0  0  0  0  0  0  0  0  0
   59.7325   31.6267   45.7023 H   0  0  0  0  0  0  0  0  0  0  0  0
   59.4250   30.3360   47.3200 N   0  0  0  0  0  0  0  0  0  0  0  0
   58.4740   29.4930   46.6420 C   0  0  0  0  0  0  0  0  0  0  0  0
   57.7020   30.0060   45.6470 N   0  0  0  0  0  0  0  0  0  0  0  0
   56.7760   29.2540   44.9970 C   0  0  0  0  0  0  0  0  0  0  0  0
   56.0730   29.8120   44.0510 N   0  0  0  0  0  0  0  0  0  0  0  0
   56.5640   30.3440   42.7770 C   0  0  0  0  0  0  0  0  0  0  0  0
   55.7055   30.6286   42.1510 H   0  0  0  0  0  0  0  0  0  0  0  0
   57.1622   29.5666   42.2791 H   0  0  0  0  0  0  0  0  0  0  0  0
   57.4460   31.5680   43.0010 C   0  0  0  0  0  0  0  0  0  0  0  0
   57.5690   31.7387   44.0807 H   0  0  0  0  0  0  0  0  0  0  0  0
   58.4312   31.3990   42.5419 H   0  0  0  0  0  0  0  0  0  0  0  0
   56.9739   32.4491   42.5419 H   0  0  0  0  0  0  0  0  0  0  0  0
   56.6030   27.9450   45.3550 N   0  0  0  0  0  0  0  0  0  0  0  0
   55.8780   27.3590   44.8920 H   0  0  0  0  0  0  0  0  0  0  0  0
   57.3600   27.3830   46.3450 C   0  0  0  0  0  0  0  0  0  0  0  0
   57.1970   26.0420   46.7210 O   0  0  0  0  0  0  0  0  0  0  0  0
   57.1500   24.9820   45.8080 C   0  0  0  0  0  0  0  0  0  0  0  0
   55.9190   24.5430   45.2710 C   0  0  0  0  0  0  0  0  0  0  0  0
   54.6290   25.2320   45.6260 C   0  0  0  0  0  0  0  0  0  0  0  0
   54.5305   25.2846   46.7203 H   0  0  0  0  0  0  0  0  0  0  0  0
   54.6299   26.2497   45.2086 H   0  0  0  0  0  0  0  0  0  0  0  0
   53.7837   24.6653   45.2086 H   0  0  0  0  0  0  0  0  0  0  0  0
   55.8930   23.4270   44.4210 C   0  0  0  0  0  0  0  0  0  0  0  0
   54.9311   23.0592   44.0345 H   0  0  0  0  0  0  0  0  0  0  0  0
   57.0790   22.7770   44.0600 C   0  0  0  0  0  0  0  0  0  0  0  0
   57.0460   21.5570   43.1840 C   0  0  0  0  0  0  0  0  0  0  0  0
   57.0216   20.6547   43.8127 H   0  0  0  0  0  0  0  0  0  0  0  0
   56.1483   21.5858   42.5489 H   0  0  0  0  0  0  0  0  0  0  0  0
   57.9439   21.5372   42.5489 H   0  0  0  0  0  0  0  0  0  0  0  0
   58.3000   23.2390   44.5690 C   0  0  0  0  0  0  0  0  0  0  0  0
   59.2332   22.7253   44.2946 H   0  0  0  0  0  0  0  0  0  0  0  0
   58.3450   24.3500   45.4250 C   0  0  0  0  0  0  0  0  0  0  0  0
   59.6570   24.8150   45.9880 C   0  0  0  0  0  0  0  0  0  0  0  0
   59.6109   24.7986   47.0869 H   0  0  0  0  0  0  0  0  0  0  0  0
   60.4607   24.1470   45.6448 H   0  0  0  0  0  0  0  0  0  0  0  0
   59.8606   25.8401   45.6448 H   0  0  0  0  0  0  0  0  0  0  0  0
   58.3070   28.1560   47.0150 C   0  0  0  0  0  0  0  0  0  0  0  0
   58.9128   27.7213   47.8237 H   0  0  0  0  0  0  0  0  0  0  0  0
   59.7850   30.0470   48.7110 C   0  0  0  0  0  0  0  0  0  0  0  0
   59.2497   30.7371   49.3798 H   0  0  0  0  0  0  0  0  0  0  0  0
   59.5062   29.0114   48.9556 H   0  0  0  0  0  0  0  0  0  0  0  0
   61.2910   30.2270   48.8920 C   0  0  0  0  0  0  0  0  0  0  0  0
   61.5237   30.2119   49.9670 H   0  0  0  0  0  0  0  0  0  0  0  0
   61.7971   29.4057   48.3635 H   0  0  0  0  0  0  0  0  0  0  0  0
  1  2  1  0
  2  3  2  0
  3  4  1  0
  3  5  1  0
  5  6  1  0
  5  7  2  0
  7  8  1  0
  8  9  2  0
  9 10  1  0
  8 11  1  0
 11 12  1  0
 11 13  1  0
 11 14  1  0
 14 15  1  0
 15 16  2  0
 16 17  1  0
 17 18  2  0
 18 19  1  0
 19 20  1  0
 19 21  1  0
 19 22  1  0
 22 23  1  0
 22 24  1  0
 22 25  1  0
 17 26  1  0
 26 27  1  0
 26 28  1  0
 28 29  1  0
 29 30  1  0
 30 31  2  0
 31 32  1  0
 32 33  1  0
 32 34  1  0
 32 35  1  0
 31 36  1  0
 36 37  1  0
 36 38  2  0
 38 39  1  0
 39 40  1  0
 39 41  1  0
 39 42  1  0
 38 43  1  0
 43 44  1  0
 43 45  2  0
 45 46  1  0
 46 47  1  0
 46 48  1  0
 46 49  1  0
 28 50  2  0
 50 51  1  0
 14 52  1  0
 52 53  1  0
 52 54  1  0
 52 55  1  0
 55 56  1  0
 55 57  1  0
  9  2  1  0
 50 15  1  0
 55  7  1  0
 45 30  1  0
M  END
>  <UniqueID>  (51) 
45

>  <SMILES>  (51) 
CC/N=c1/nc(N2CCc3ccccc3C2)cc(Oc2c(C)cc(C)cc2C)[nH]1

>  <Energy>  (51) 
70.56551911368528

>  <Genealogy>  (51) 
CC/N=c1/nc(N2CCc3ccccc3C2)cc(Oc2c(C)cc(C)cc2C)[nH]1 (cis-trans isomerization)
CC/N=c1/nc(N2CCc3ccccc3C2)cc(Oc2c(C)cc(C)cc2C)[nH]1 (3D coordinates assigned)
CC/N=c1/nc(N2CCc3ccccc3C2)cc(Oc2c(C)cc(C)cc2C)[nH]1 (nonaromatic ring conformer: 70.56551911368528 kcal/mol)

>  <smiles>  (51) 
CCN=c1nc(N2CCc3ccccc3C2)cc(Oc2c(C)cc(C)cc2C)[nH]1

>  <score_type>  (51) 
oracle

>  <origin>  (51) 
adg

>  <m_score__min__energy>  (51) 
-8.4100000000000001

>  <m_primary>  (51) 
energy

$$$$
51:0
     RDKit          3D

 38 39  0  0  0  0  0  0  0  0999 V2000
   58.2338   29.6110   43.6512 H   0  0  0  0  0  0  0  0  0  0  0  0
   57.3820   30.1890   44.0390 C   0  0  0  0  0  0  0  0  0  0  0  0
   56.3920   29.4640   44.8590 C   0  0  0  0  0  0  0  0  0  0  0  0
   55.1770   29.8010   44.8640 O   0  0  0  0  0  0  0  0  0  0  0  0
   56.8200   28.3220   45.6060 N   0  0  0  0  0  0  0  0  0  0  0  0
   58.2170   28.0770   45.9420 C   0  0  0  0  0  0  0  0  0  0  0  0
   58.8570   28.4572   45.1321 H   0  0  0  0  0  0  0  0  0  0  0  0
   58.3702   26.9949   46.0673 H   0  0  0  0  0  0  0  0  0  0  0  0
   58.5820   28.7860   47.2490 C   0  0  0  0  0  0  0  0  0  0  0  0
   59.1453   28.0886   47.8864 H   0  0  0  0  0  0  0  0  0  0  0  0
   57.6483   29.1035   47.7363 H   0  0  0  0  0  0  0  0  0  0  0  0
   59.4230   30.0130   47.0080 C   0  0  0  0  0  0  0  0  0  0  0  0
   60.1080   30.0780   45.9530 O   0  0  0  0  0  0  0  0  0  0  0  0
   59.3720   31.1660   47.8630 N   0  0  0  0  0  0  0  0  0  0  0  0
   60.2540   32.1180   47.9800 C   0  0  0  0  0  0  0  0  0  0  0  0
   60.2990   33.3140   49.1670 S   0  0  0  0  0  0  0  0  0  0  0  0
   61.7330   33.9880   48.5960 C   0  0  0  0  0  0  0  0  0  0  0  0
   62.2562   34.8558   49.0240 H   0  0  0  0  0  0  0  0  0  0  0  0
   62.1390   33.2510   47.4850 C   0  0  0  0  0  0  0  0  0  0  0  0
   63.4090   33.5310   46.7460 C   0  0  0  0  0  0  0  0  0  0  0  0
   64.2207   33.7099   47.4665 H   0  0  0  0  0  0  0  0  0  0  0  0
   63.6635   32.6674   46.1140 H   0  0  0  0  0  0  0  0  0  0  0  0
   63.2768   34.4216   46.1140 H   0  0  0  0  0  0  0  0  0  0  0  0
   61.3240   32.2100   47.1610 N   0  0  0  0  0  0  0  0  0  0  0  0
   61.5080   31.5500   46.3720 H   0  0  0  0  0  0  0  0  0  0  0  0
   57.3320   31.4930   43.7260 C   0  0  0  0  0  0  0  0  0  0  0  0
   56.9237   31.7593   42.7399 H   0  0  0  0  0  0  0  0  0  0  0  0
   57.7800   32.6020   44.5960 C   0  0  0  0  0  0  0  0  0  0  0  0
   57.2900   32.7440   45.9070 C   0  0  0  0  0  0  0  0  0  0  0  0
   56.5299   32.0457   46.2873 H   0  0  0  0  0  0  0  0  0  0  0  0
   57.7670   33.7710   46.7280 C   0  0  0  0  0  0  0  0  0  0  0  0
   57.3676   33.8907   47.7459 H   0  0  0  0  0  0  0  0  0  0  0  0
   58.7500   34.6450   46.2570 C   0  0  0  0  0  0  0  0  0  0  0  0
   59.1188   35.4563   46.9017 H   0  0  0  0  0  0  0  0  0  0  0  0
   59.2650   34.4890   44.9670 C   0  0  0  0  0  0  0  0  0  0  0  0
   60.0449   35.1727   44.6004 H   0  0  0  0  0  0  0  0  0  0  0  0
   58.7900   33.4650   44.1420 C   0  0  0  0  0  0  0  0  0  0  0  0
   59.2092   33.3350   43.1334 H   0  0  0  0  0  0  0  0  0  0  0  0
  1  2  1  0
  2  3  1  0
  3  4  2  0
  3  5  1  0
  5  6  1  0
  6  7  1  0
  6  8  1  0
  6  9  1  0
  9 10  1  0
  9 11  1  0
  9 12  1  0
 12 13  2  0
 12 14  1  0
 14 15  2  0
 15 16  1  0
 16 17  1  0
 17 18  1  0
 17 19  2  0
 19 20  1  0
 20 21  1  0
 20 22  1  0
 20 23  1  0
 19 24  1  0
 24 25  1  0
  2 26  2  0
 26 27  1  0
 26 28  1  0
 28 29  2  0
 29 30  1  0
 29 31  1  0
 31 32  1  0
 31 33  2  0
 33 34  1  0
 33 35  1  0
 35 36  1  0
 35 37  2  0
 37 38  1  0
 24 15  1  0
 37 28  1  0
M  CHG  1   5  -1
M  END
>  <UniqueID>  (52) 
46

>  <SMILES>  (52) 
Cc1cs/c(=N\C(=O)CC[N-]C(=O)/C=C\c2ccccc2)[nH]1

>  <Energy>  (52) 
75.96806447591062

>  <Genealogy>  (52) 
Cc1csc(=NC(=O)CC[N-]C(=O)C=Cc2ccccc2)[nH]1 (protonated)
Cc1cs/c(=N\C(=O)CC[N-]C(=O)/C=C\c2ccccc2)[nH]1 (cis-trans isomerization)
Cc1cs/c(=N\C(=O)CC[N-]C(=O)/C=C\c2ccccc2)[nH]1 (3D coordinates assigned)
Cc1cs/c(=N\C(=O)CC[N-]C(=O)/C=C\c2ccccc2)[nH]1 (optimized conformer: 75.96806447591062 kcal/mol)

>  <smiles>  (52) 
Cc1csc(=NC(=O)CCNC(=O)C=Cc2ccccc2)[nH]1

>  <score_type>  (52) 
oracle

>  <origin>  (52) 
adg

>  <m_score__min__energy>  (52) 
-9.1600000000000001

>  <m_primary>  (52) 
energy

$$$$
52:0
     RDKit          3D

 52 54  0  0  0  0  0  0  0  0999 V2000
   65.6100   32.2490   50.3940 C   0  0  0  0  0  0  0  0  0  0  0  0
   64.2070   32.2300   50.0010 N   0  0  0  0  0  0  0  0  0  0  0  0
   63.1710   31.8840   50.9360 C   0  0  0  0  0  0  0  0  0  0  0  0
   63.4910   31.4500   52.0780 O   0  0  0  0  0  0  0  0  0  0  0  0
   61.7320   32.0050   50.5780 C   0  0  0  0  0  0  0  0  0  0  0  0
   61.0240   33.1750   50.9090 C   0  0  0  0  0  0  0  0  0  0  0  0
   59.6770   33.3120   50.5660 C   0  0  0  0  0  0  0  0  0  0  0  0
   59.0120   32.2790   49.9020 C   0  0  0  0  0  0  0  0  0  0  0  0
   59.6940   31.0980   49.5760 C   0  0  0  0  0  0  0  0  0  0  0  0
   58.9760   29.9760   48.8850 C   0  0  0  0  0  0  0  0  0  0  0  0
   60.1450   29.0110   47.8600 S   0  0  0  0  0  0  0  0  0  0  0  0
   58.8700   28.0760   46.9960 C   0  0  0  0  0  0  0  0  0  0  0  0
   58.4990   26.8170   47.4890 C   0  0  0  0  0  0  0  0  0  0  0  0
   57.4870   26.0860   46.8610 C   0  0  0  0  0  0  0  0  0  0  0  0
   56.8410   26.6100   45.7380 C   0  0  0  0  0  0  0  0  0  0  0  0
   57.2220   27.8530   45.2250 C   0  0  0  0  0  0  0  0  0  0  0  0
   58.2600   28.5860   45.8330 C   0  0  0  0  0  0  0  0  0  0  0  0
   58.7030   29.8430   45.2960 N   0  0  0  0  0  0  0  0  0  0  0  0
   58.0110   31.0950   45.4170 C   0  0  0  0  0  0  0  0  0  0  0  0
   56.8410   31.2150   44.9640 O   0  0  0  0  0  0  0  0  0  0  0  0
   58.6920   32.2720   46.0060 C   0  0  0  0  0  0  0  0  0  0  0  0
   57.9870   33.4760   46.2020 C   0  0  0  0  0  0  0  0  0  0  0  0
   58.6280   34.5910   46.7470 C   0  0  0  0  0  0  0  0  0  0  0  0
   59.9790   34.5210   47.1000 C   0  0  0  0  0  0  0  0  0  0  0  0
   60.7000   33.3330   46.9060 C   0  0  0  0  0  0  0  0  0  0  0  0
   62.4060   33.2410   47.3350 S   0  0  0  0  0  0  0  0  0  0  0  0
   63.3990   33.8900   46.0040 C   0  0  0  0  0  0  0  0  0  0  0  0
   62.6810   34.0570   48.5720 O   0  0  0  0  0  0  0  0  0  0  0  0
   62.7670   31.8050   47.6040 O   0  0  0  0  0  0  0  0  0  0  0  0
   60.0520   32.2090   46.3720 C   0  0  0  0  0  0  0  0  0  0  0  0
   61.0600   30.9750   49.8910 C   0  0  0  0  0  0  0  0  0  0  0  0
   65.6834   32.2500   51.4916 H   0  0  0  0  0  0  0  0  0  0  0  0
   66.1151   31.3576   49.9936 H   0  0  0  0  0  0  0  0  0  0  0  0
   66.0907   33.1537   49.9936 H   0  0  0  0  0  0  0  0  0  0  0  0
   63.9750   32.4250   49.0020 H   0  0  0  0  0  0  0  0  0  0  0  0
   61.5360   33.9892   51.4428 H   0  0  0  0  0  0  0  0  0  0  0  0
   59.1381   34.2368   50.8198 H   0  0  0  0  0  0  0  0  0  0  0  0
   57.9511   32.3920   49.6342 H   0  0  0  0  0  0  0  0  0  0  0  0
   58.5238   29.3153   49.6393 H   0  0  0  0  0  0  0  0  0  0  0  0
   58.1940   30.3971   48.2360 H   0  0  0  0  0  0  0  0  0  0  0  0
   59.0062   26.4033   48.3731 H   0  0  0  0  0  0  0  0  0  0  0  0
   57.1990   25.0984   47.2505 H   0  0  0  0  0  0  0  0  0  0  0  0
   56.0307   26.0428   45.2567 H   0  0  0  0  0  0  0  0  0  0  0  0
   56.7086   28.2611   44.3419 H   0  0  0  0  0  0  0  0  0  0  0  0
   56.9246   33.5384   45.9239 H   0  0  0  0  0  0  0  0  0  0  0  0
   58.0687   35.5260   46.8988 H   0  0  0  0  0  0  0  0  0  0  0  0
   60.4787   35.4008   47.5316 H   0  0  0  0  0  0  0  0  0  0  0  0
   64.2513   34.4470   46.4203 H   0  0  0  0  0  0  0  0  0  0  0  0
   63.7705   33.0599   45.3853 H   0  0  0  0  0  0  0  0  0  0  0  0
   62.7878   34.5635   45.3853 H   0  0  0  0  0  0  0  0  0  0  0  0
   60.6099   31.2705   46.2378 H   0  0  0  0  0  0  0  0  0  0  0  0
   61.6076   30.0670   49.5983 H   0  0  0  0  0  0  0  0  0  0  0  0
  1  2  1  0
  2  3  1  0
  3  4  2  0
  3  5  1  0
  5  6  2  0
  6  7  1  0
  7  8  2  0
  8  9  1  0
  9 10  1  0
 10 11  1  0
 11 12  1  0
 12 13  2  0
 13 14  1  0
 14 15  2  0
 15 16  1  0
 16 17  2  0
 17 18  1  0
 18 19  1  0
 19 20  2  0
 19 21  1  0
 21 22  2  0
 22 23  1  0
 23 24  2  0
 24 25  1  0
 25 26  1  0
 26 27  1  0
 26 28  2  0
 26 29  2  0
 25 30  2  0
  9 31  2  0
 31  5  1  0
 17 12  1  0
 30 21  1  0
  1 32  1  0
  1 33  1  0
  1 34  1  0
  2 35  1  0
  6 36  1  0
  7 37  1  0
  8 38  1  0
 10 39  1  0
 10 40  1  0
 13 41  1  0
 14 42  1  0
 15 43  1  0
 16 44  1  0
 22 45  1  0
 23 46  1  0
 24 47  1  0
 27 48  1  0
 27 49  1  0
 27 50  1  0
 30 51  1  0
 31 52  1  0
M  CHG  1  18  -1
M  END
>  <UniqueID>  (53) 
47

>  <SMILES>  (53) 
CNC(=O)c1cccc(CSc2ccccc2[N-]C(=O)c2cccc(S(C)(=O)=O)c2)c1

>  <Energy>  (53) 
48.901663676253

>  <Genealogy>  (53) 
CNC(=O)c1cccc(CSc2ccccc2[N-]C(=O)c2cccc(S(C)(=O)=O)c2)c1 (protonated)
CNC(=O)c1cccc(CSc2ccccc2[N-]C(=O)c2cccc(S(C)(=O)=O)c2)c1 (3D coordinates assigned)
CNC(=O)c1cccc(CSc2ccccc2[N-]C(=O)c2cccc(S(C)(=O)=O)c2)c1 (optimized conformer: 48.901663676253 kcal/mol)

>  <smiles>  (53) 
CNC(=O)c1cccc(CSc2ccccc2NC(=O)c2cccc(S(C)(=O)=O)c2)c1

>  <score_type>  (53) 
oracle

>  <origin>  (53) 
adg

>  <m_score__min__energy>  (53) 
-11.859999999999999

>  <m_primary>  (53) 
energy

$$$$
53:0
     RDKit          3D

 46 48  0  0  0  0  0  0  0  0999 V2000
   60.2136   34.4797   50.2471 H   0  0  0  0  0  0  0  0  0  0  0  0
   60.9170   34.1370   49.4740 C   0  0  0  0  0  0  0  0  0  0  0  0
   60.5010   34.0070   48.1860 N   0  0  0  0  0  0  0  0  0  0  0  0
   61.3510   33.5800   47.2150 C   0  0  0  0  0  0  0  0  0  0  0  0
   60.9230   33.4770   45.9940 N   0  0  0  0  0  0  0  0  0  0  0  0
   59.2730   33.7380   45.5180 S   0  0  0  0  0  0  0  0  0  0  0  0
   58.5900   34.6070   46.5380 O   0  0  0  0  0  0  0  0  0  0  0  0
   59.2450   34.4420   44.1920 O   0  0  0  0  0  0  0  0  0  0  0  0
   58.4420   32.1930   45.3630 C   0  0  0  0  0  0  0  0  0  0  0  0
   58.6840   31.1730   46.2920 C   0  0  0  0  0  0  0  0  0  0  0  0
   59.4453   31.3126   47.0736 H   0  0  0  0  0  0  0  0  0  0  0  0
   57.9610   29.9780   46.2290 C   0  0  0  0  0  0  0  0  0  0  0  0
   58.1727   29.1716   46.9466 H   0  0  0  0  0  0  0  0  0  0  0  0
   56.9690   29.8030   45.2570 C   0  0  0  0  0  0  0  0  0  0  0  0
   56.2120   28.5850   45.2370 N   0  0  0  0  0  0  0  0  0  0  0  0
   56.7260   27.2870   45.5630 C   0  0  0  0  0  0  0  0  0  0  0  0
   57.9450   27.0460   45.3620 O   0  0  0  0  0  0  0  0  0  0  0  0
   55.8800   26.2530   46.1830 C   0  0  0  0  0  0  0  0  0  0  0  0
   54.6350   26.2470   45.9830 O   0  0  0  0  0  0  0  0  0  0  0  0
   56.4710   25.2680   47.0350 N   0  0  0  0  0  0  0  0  0  0  0  0
   56.1000   23.8610   46.9820 C   0  0  0  0  0  0  0  0  0  0  0  0
   56.6598   23.3051   47.7486 H   0  0  0  0  0  0  0  0  0  0  0  0
   55.0209   23.7591   47.1698 H   0  0  0  0  0  0  0  0  0  0  0  0
   56.4260   23.3080   45.6250 C   0  0  0  0  0  0  0  0  0  0  0  0
   55.5500   23.5140   44.5460 C   0  0  0  0  0  0  0  0  0  0  0  0
   54.6334   24.1051   44.6888 H   0  0  0  0  0  0  0  0  0  0  0  0
   55.8400   22.9700   43.2920 C   0  0  0  0  0  0  0  0  0  0  0  0
   55.1565   23.1429   42.4476 H   0  0  0  0  0  0  0  0  0  0  0  0
   56.9960   22.2070   43.1080 C   0  0  0  0  0  0  0  0  0  0  0  0
   57.2230   21.7819   42.1192 H   0  0  0  0  0  0  0  0  0  0  0  0
   57.8640   21.9840   44.1810 C   0  0  0  0  0  0  0  0  0  0  0  0
   58.7720   21.3801   44.0368 H   0  0  0  0  0  0  0  0  0  0  0  0
   57.5790   22.5280   45.4380 C   0  0  0  0  0  0  0  0  0  0  0  0
   58.2598   22.3443   46.2823 H   0  0  0  0  0  0  0  0  0  0  0  0
   56.7530   30.8110   44.3030 C   0  0  0  0  0  0  0  0  0  0  0  0
   56.0060   30.6629   43.5093 H   0  0  0  0  0  0  0  0  0  0  0  0
   57.4830   32.0010   44.3580 C   0  0  0  0  0  0  0  0  0  0  0  0
   57.3051   32.7890   43.6114 H   0  0  0  0  0  0  0  0  0  0  0  0
   62.6390   33.2770   47.5350 N   0  0  0  0  0  0  0  0  0  0  0  0
   63.1010   33.4020   48.8060 C   0  0  0  0  0  0  0  0  0  0  0  0
   64.5240   33.0640   49.1200 C   0  0  0  0  0  0  0  0  0  0  0  0
   64.6610   33.0315   50.2109 H   0  0  0  0  0  0  0  0  0  0  0  0
   64.7711   32.0822   48.6900 H   0  0  0  0  0  0  0  0  0  0  0  0
   65.1863   33.8298   48.6900 H   0  0  0  0  0  0  0  0  0  0  0  0
   62.2350   33.8360   49.8150 C   0  0  0  0  0  0  0  0  0  0  0  0
   62.5854   33.9374   50.8528 H   0  0  0  0  0  0  0  0  0  0  0  0
  1  2  1  0
  2  3  1  0
  3  4  1  0
  4  5  2  0
  5  6  1  0
  6  7  2  0
  6  8  2  0
  6  9  1  0
  9 10  2  0
 10 11  1  0
 10 12  1  0
 12 13  1  0
 12 14  2  0
 14 15  1  0
 15 16  1  0
 16 17  2  0
 16 18  1  0
 18 19  2  0
 18 20  1  0
 20 21  1  0
 21 22  1  0
 21 23  1  0
 21 24  1  0
 24 25  2  0
 25 26  1  0
 25 27  1  0
 27 28  1  0
 27 29  2  0
 29 30  1  0
 29 31  1  0
 31 32  1  0
 31 33  2  0
 33 34  1  0
 14 35  1  0
 35 36  1  0
 35 37  2  0
 37 38  1  0
  4 39  1  0
 39 40  2  0
 40 41  1  0
 41 42  1  0
 41 43  1  0
 41 44  1  0
 40 45  1  0
 45 46  1  0
 45  2  2  0
 37  9  1  0
 33 24  1  0
M  CHG  3   3  -1  15  -1  20  -1
M  END
>  <UniqueID>  (54) 
48

>  <SMILES>  (54) 
Cc1cc[n-]/c(=N/S(=O)(=O)c2ccc([N-]C(=O)C(=O)[N-]Cc3ccccc3)cc2)n1

>  <Energy>  (54) 
51.59789222572285

>  <Genealogy>  (54) 
Cc1cc[n-]c(=NS(=O)(=O)c2ccc([N-]C(=O)C(=O)[N-]Cc3ccccc3)cc2)n1 (protonated)
Cc1cc[n-]/c(=N/S(=O)(=O)c2ccc([N-]C(=O)C(=O)[N-]Cc3ccccc3)cc2)n1 (cis-trans isomerization)
Cc1cc[n-]/c(=N/S(=O)(=O)c2ccc([N-]C(=O)C(=O)[N-]Cc3ccccc3)cc2)n1 (3D coordinates assigned)
Cc1cc[n-]/c(=N/S(=O)(=O)c2ccc([N-]C(=O)C(=O)[N-]Cc3ccccc3)cc2)n1 (optimized conformer: 51.59789222572285 kcal/mol)

>  <smiles>  (54) 
Cc1cc[nH]c(=NS(=O)(=O)c2ccc(NC(=O)C(=O)NCc3ccccc3)cc2)n1

>  <score_type>  (54) 
oracle

>  <origin>  (54) 
adg

>  <m_score__min__energy>  (54) 
-12.84

>  <m_primary>  (54) 
energy

$$$$
54:0
     RDKit          3D

 38 40  0  0  0  0  0  0  0  0999 V2000
   56.1540   30.9090   44.4260 O   0  0  0  0  0  0  0  0  0  0  0  0
   56.5810   29.8010   44.8480 C   0  0  0  0  0  0  0  0  0  0  0  0
   55.6830   28.8440   45.1910 N   0  0  0  0  0  0  0  0  0  0  0  0
   56.0750   27.6240   45.6260 C   0  0  0  0  0  0  0  0  0  0  0  0
   55.1140   26.6740   45.9540 O   0  0  0  0  0  0  0  0  0  0  0  0
   57.4360   27.3250   45.7230 C   0  0  0  0  0  0  0  0  0  0  0  0
   57.8650   25.9730   46.1520 C   0  0  0  0  0  0  0  0  0  0  0  0
   58.5120   25.0940   45.3690 C   0  0  0  0  0  0  0  0  0  0  0  0
   57.8720   23.9830   44.6260 C   0  0  0  0  0  0  0  0  0  0  0  0
   56.7760   24.1980   43.7690 C   0  0  0  0  0  0  0  0  0  0  0  0
   56.1890   23.1250   43.0910 C   0  0  0  0  0  0  0  0  0  0  0  0
   56.6740   21.8300   43.2790 C   0  0  0  0  0  0  0  0  0  0  0  0
   57.7450   21.6030   44.1460 C   0  0  0  0  0  0  0  0  0  0  0  0
   58.3360   22.6730   44.8250 C   0  0  0  0  0  0  0  0  0  0  0  0
   58.3610   28.3410   45.4200 C   0  0  0  0  0  0  0  0  0  0  0  0
   59.5950   28.1260   45.5810 O   0  0  0  0  0  0  0  0  0  0  0  0
   57.9280   29.5600   44.9610 N   0  0  0  0  0  0  0  0  0  0  0  0
   58.9140   30.5770   44.5440 C   0  0  0  0  0  0  0  0  0  0  0  0
   58.6870   31.8640   45.2940 C   0  0  0  0  0  0  0  0  0  0  0  0
   58.4440   33.0560   44.5920 C   0  0  0  0  0  0  0  0  0  0  0  0
   58.2640   34.2580   45.2840 C   0  0  0  0  0  0  0  0  0  0  0  0
   58.3280   34.2790   46.6790 C   0  0  0  0  0  0  0  0  0  0  0  0
   58.5750   33.0980   47.3850 C   0  0  0  0  0  0  0  0  0  0  0  0
   58.7590   31.8960   46.6980 C   0  0  0  0  0  0  0  0  0  0  0  0
   57.6377   25.6678   47.1841 H   0  0  0  0  0  0  0  0  0  0  0  0
   59.6018   25.2077   45.2718 H   0  0  0  0  0  0  0  0  0  0  0  0
   56.3795   25.2149   43.6320 H   0  0  0  0  0  0  0  0  0  0  0  0
   55.3443   23.3019   42.4089 H   0  0  0  0  0  0  0  0  0  0  0  0
   56.2122   20.9872   42.7437 H   0  0  0  0  0  0  0  0  0  0  0  0
   58.1241   20.5812   44.2949 H   0  0  0  0  0  0  0  0  0  0  0  0
   59.1691   22.4873   45.5189 H   0  0  0  0  0  0  0  0  0  0  0  0
   59.9282   30.2075   44.7560 H   0  0  0  0  0  0  0  0  0  0  0  0
   58.7993   30.7658   43.4664 H   0  0  0  0  0  0  0  0  0  0  0  0
   58.3950   33.0441   43.4932 H   0  0  0  0  0  0  0  0  0  0  0  0
   58.0718   35.1880   44.7289 H   0  0  0  0  0  0  0  0  0  0  0  0
   58.1841   35.2247   47.2221 H   0  0  0  0  0  0  0  0  0  0  0  0
   58.6245   33.1154   48.4837 H   0  0  0  0  0  0  0  0  0  0  0  0
   58.9610   30.9707   47.2574 H   0  0  0  0  0  0  0  0  0  0  0  0
  1  2  2  0
  2  3  1  0
  3  4  1  0
  4  5  1  0
  4  6  2  0
  6  7  1  0
  7  8  2  3
  8  9  1  0
  9 10  2  0
 10 11  1  0
 11 12  2  0
 12 13  1  0
 13 14  2  0
  6 15  1  0
 15 16  2  0
 15 17  1  0
 17 18  1  0
 18 19  1  0
 19 20  2  0
 20 21  1  0
 21 22  2  0
 22 23  1  0
 23 24  2  0
 17  2  1  0
 24 19  1  0
 14  9  1  0
  7 25  1  0
  8 26  1  0
 10 27  1  0
 11 28  1  0
 12 29  1  0
 13 30  1  0
 14 31  1  0
 18 32  1  0
 18 33  1  0
 20 34  1  0
 21 35  1  0
 22 36  1  0
 23 37  1  0
 24 38  1  0
M  CHG  2   3  -1   5  -1
M  END
>  <UniqueID>  (55) 
49

>  <SMILES>  (55) 
O=c1[n-]c([O-])c(C=Cc2ccccc2)c(=O)n1Cc1ccccc1

>  <Energy>  (55) 
53.2106126447125

>  <Genealogy>  (55) 
O=c1[n-]c([O-])c(C=Cc2ccccc2)c(=O)n1Cc1ccccc1 (protonated)
O=c1[n-]c([O-])c(C=Cc2ccccc2)c(=O)n1Cc1ccccc1 (3D coordinates assigned)
O=c1[n-]c([O-])c(C=Cc2ccccc2)c(=O)n1Cc1ccccc1 (optimized conformer: 53.2106126447125 kcal/mol)

>  <smiles>  (55) 
O=c1[nH]c(O)c(C=Cc2ccccc2)c(=O)n1Cc1ccccc1

>  <score_type>  (55) 
oracle

>  <origin>  (55) 
adg

>  <m_score__min__energy>  (55) 
-13.33

>  <m_primary>  (55) 
energy

$$$$
55:0
     RDKit          3D

 67 70  0  0  0  0  0  0  0  0999 V2000
   55.1860   26.3790   46.0200 N   0  0  0  0  0  0  0  0  0  0  0  0
   56.8340   26.8770   45.8440 S   0  0  0  0  0  0  0  0  0  0  0  0
   57.5970   26.5200   47.0900 O   0  0  0  0  0  0  0  0  0  0  0  0
   57.4440   26.1500   44.6780 O   0  0  0  0  0  0  0  0  0  0  0  0
   56.9300   28.5980   45.5720 N   0  0  0  0  0  0  0  0  0  0  0  0
   57.0240   28.8800   44.1300 C   0  0  0  0  0  0  0  0  0  0  0  0
   56.9590   30.4010   43.8800 C   0  0  0  0  0  0  0  0  0  0  0  0
   57.2630   31.1570   45.1130 N   0  0  0  0  0  0  0  0  0  0  0  0
   57.3340   32.6210   44.9090 C   0  0  0  0  0  0  0  0  0  0  0  0
   57.4120   33.4490   46.2120 C   0  0  0  0  0  0  0  0  0  0  0  0
   58.4890   34.5410   46.1360 C   0  0  0  0  0  0  0  0  0  0  0  0
   59.7030   34.2020   46.9650 C   0  0  0  0  0  0  0  0  0  0  0  0
   59.7130   34.4620   48.3430 C   0  0  0  0  0  0  0  0  0  0  0  0
   60.8320   34.1390   49.1150 C   0  0  0  0  0  0  0  0  0  0  0  0
   61.9590   33.5370   48.5240 C   0  0  0  0  0  0  0  0  0  0  0  0
   63.1260   33.2180   49.3080 N   0  0  0  0  0  0  0  0  0  0  0  0
   64.1400   32.2290   48.9530 C   0  0  0  0  0  0  0  0  0  0  0  0
   65.2780   32.4150   49.9970 C   0  0  2  0  0  0  0  0  0  0  0  0
   65.6430   31.1130   50.7240 C   0  0  0  0  0  0  0  0  0  0  0  0
   64.4810   30.5480   51.4140 N   0  0  0  0  0  0  0  0  0  0  0  0
   64.6150   29.7500   52.5990 C   0  0  0  0  0  0  0  0  0  0  0  0
   63.3880   29.7100   53.6810 S   0  0  0  0  0  0  0  0  0  0  0  0
   65.8520   29.1010   52.9270 N   0  0  0  0  0  0  0  0  0  0  0  0
   66.5780   28.2620   52.0120 C   0  0  0  0  0  0  0  0  0  0  0  0
   66.0310   27.0280   51.6290 C   0  0  0  0  0  0  0  0  0  0  0  0
   66.7100   26.2020   50.7270 C   0  0  0  0  0  0  0  0  0  0  0  0
   67.9350   26.6080   50.1920 C   0  0  0  0  0  0  0  0  0  0  0  0
   68.5930   25.8060   49.3180 F   0  0  0  0  0  0  0  0  0  0  0  0
   68.4800   27.8430   50.5530 C   0  0  0  0  0  0  0  0  0  0  0  0
   67.8040   28.6720   51.4540 C   0  0  0  0  0  0  0  0  0  0  0  0
   64.7810   33.3690   50.9290 O   0  0  0  0  0  0  0  0  0  0  0  0
   63.5540   33.8280   50.5130 C   0  0  0  0  0  0  0  0  0  0  0  0
   62.8650   34.6480   51.1750 O   0  0  0  0  0  0  0  0  0  0  0  0
   61.9440   33.2820   47.1430 C   0  0  0  0  0  0  0  0  0  0  0  0
   60.8250   33.6060   46.3710 C   0  0  0  0  0  0  0  0  0  0  0  0
   58.4180   30.5900   45.8300 C   0  0  0  0  0  0  0  0  0  0  0  0
   58.0910   29.1560   46.2940 C   0  0  0  0  0  0  0  0  0  0  0  0
   54.7030   27.1000   46.6010 H   0  0  0  0  0  0  0  0  0  0  0  0
   57.9770   28.4887   43.7445 H   0  0  0  0  0  0  0  0  0  0  0  0
   56.1827   28.3948   43.6135 H   0  0  0  0  0  0  0  0  0  0  0  0
   57.6916   30.6691   43.1045 H   0  0  0  0  0  0  0  0  0  0  0  0
   55.9400   30.6581   43.5551 H   0  0  0  0  0  0  0  0  0  0  0  0
   58.2291   32.8408   44.3087 H   0  0  0  0  0  0  0  0  0  0  0  0
   56.3979   32.9121   44.4101 H   0  0  0  0  0  0  0  0  0  0  0  0
   56.4361   33.9244   46.3896 H   0  0  0  0  0  0  0  0  0  0  0  0
   57.6774   32.7666   47.0329 H   0  0  0  0  0  0  0  0  0  0  0  0
   58.7984   34.6612   45.0873 H   0  0  0  0  0  0  0  0  0  0  0  0
   58.0565   35.4705   46.5346 H   0  0  0  0  0  0  0  0  0  0  0  0
   58.8349   34.9229   48.8189 H   0  0  0  0  0  0  0  0  0  0  0  0
   60.8323   34.3569   50.1932 H   0  0  0  0  0  0  0  0  0  0  0  0
   63.7243   31.2123   49.0132 H   0  0  0  0  0  0  0  0  0  0  0  0
   64.5021   32.3644   47.9232 H   0  0  0  0  0  0  0  0  0  0  0  0
   66.2016   32.7408   49.4961 H   0  0  0  0  0  0  0  0  0  0  0  0
   66.0136   30.3834   49.9889 H   0  0  0  0  0  0  0  0  0  0  0  0
   66.4174   31.3372   51.4723 H   0  0  0  0  0  0  0  0  0  0  0  0
   63.5210   30.8630   51.1420 H   0  0  0  0  0  0  0  0  0  0  0  0
   66.1970   29.1760   53.9110 H   0  0  0  0  0  0  0  0  0  0  0  0
   65.0623   26.7081   52.0405 H   0  0  0  0  0  0  0  0  0  0  0  0
   66.2790   25.2319   50.4387 H   0  0  0  0  0  0  0  0  0  0  0  0
   69.4424   28.1638   50.1278 H   0  0  0  0  0  0  0  0  0  0  0  0
   68.2316   29.6478   51.7277 H   0  0  0  0  0  0  0  0  0  0  0  0
   62.8215   32.8228   46.6644 H   0  0  0  0  0  0  0  0  0  0  0  0
   60.8243   33.3925   45.2919 H   0  0  0  0  0  0  0  0  0  0  0  0
   59.2893   30.5671   45.1589 H   0  0  0  0  0  0  0  0  0  0  0  0
   58.6430   31.2137   46.7077 H   0  0  0  0  0  0  0  0  0  0  0  0
   58.9657   28.5145   46.1117 H   0  0  0  0  0  0  0  0  0  0  0  0
   57.8432   29.1911   47.3652 H   0  0  0  0  0  0  0  0  0  0  0  0
  1  2  1  0
  2  3  2  0
  2  4  2  0
  2  5  1  0
  5  6  1  0
  6  7  1  0
  7  8  1  0
  8  9  1  0
  9 10  1  0
 10 11  1  0
 11 12  1  0
 12 13  2  0
 13 14  1  0
 14 15  2  0
 15 16  1  0
 16 17  1  0
 17 18  1  0
 18 19  1  0
 19 20  1  0
 20 21  1  0
 21 22  2  0
 21 23  1  0
 23 24  1  0
 24 25  2  0
 25 26  1  0
 26 27  2  0
 27 28  1  0
 27 29  1  0
 29 30  2  0
 18 31  1  0
 31 32  1  0
 32 33  2  0
 15 34  1  0
 34 35  2  0
  8 36  1  0
 36 37  1  0
 37  5  1  0
 35 12  1  0
 32 16  1  0
 30 24  1  0
  1 38  1  0
  6 39  1  0
  6 40  1  0
  7 41  1  0
  7 42  1  0
  9 43  1  0
  9 44  1  0
 10 45  1  0
 10 46  1  0
 11 47  1  0
 11 48  1  0
 13 49  1  0
 14 50  1  0
 17 51  1  0
 17 52  1  0
 18 53  1  6
 19 54  1  0
 19 55  1  0
 20 56  1  0
 23 57  1  0
 25 58  1  0
 26 59  1  0
 29 60  1  0
 30 61  1  0
 34 62  1  0
 35 63  1  0
 36 64  1  0
 36 65  1  0
 37 66  1  0
 37 67  1  0
M  CHG  1   1  -1
M  END
>  <UniqueID>  (56) 
50

>  <SMILES>  (56) 
[NH-]S(=O)(=O)N1CCN(CCCc2ccc(N3C[C@H](CNC(=S)Nc4ccc(F)cc4)OC3=O)cc2)CC1

>  <Energy>  (56) 
93.81548071187528

>  <Genealogy>  (56) 
[NH-]S(=O)(=O)N1CCN(CCCc2ccc(N3CC(CNC(=S)Nc4ccc(F)cc4)OC3=O)cc2)CC1 (protonated)
[NH-]S(=O)(=O)N1CCN(CCCc2ccc(N3C[C@H](CNC(=S)Nc4ccc(F)cc4)OC3=O)cc2)CC1 (chirality)
[NH-]S(=O)(=O)N1CCN(CCCc2ccc(N3C[C@H](CNC(=S)Nc4ccc(F)cc4)OC3=O)cc2)CC1 (3D coordinates assigned)
[NH-]S(=O)(=O)N1CCN(CCCc2ccc(N3C[C@H](CNC(=S)Nc4ccc(F)cc4)OC3=O)cc2)CC1 (nonaromatic ring conformer: 93.81548071187528 kcal/mol)

>  <smiles>  (56) 
NS(=O)(=O)N1CCN(CCCc2ccc(N3CC(CNC(=S)Nc4ccc(F)cc4)OC3=O)cc2)CC1

>  <score_type>  (56) 
oracle

>  <origin>  (56) 
adg

>  <m_score__min__energy>  (56) 
-13.25

>  <m_primary>  (56) 
energy

$$$$
56:0
     RDKit          3D

 36 37  0  0  1  0  0  0  0  0999 V2000
   64.8640   32.4360   49.7590 C   0  0  0  0  0  0  0  0  0  0  0  0
   64.5800   33.1790   48.5690 O   0  0  0  0  0  0  0  0  0  0  0  0
   63.2810   33.5130   48.2790 C   0  0  0  0  0  0  0  0  0  0  0  0
   62.8050   33.4950   46.9700 C   0  0  0  0  0  0  0  0  0  0  0  0
   61.4790   33.8380   46.6860 C   0  0  0  0  0  0  0  0  0  0  0  0
   60.6020   34.2040   47.6910 C   0  0  0  0  0  0  0  0  0  0  0  0
   59.1910   34.5730   47.4200 C   0  0  0  0  0  0  0  0  0  0  0  0
   58.9570   34.6130   45.9190 C   0  0  0  0  0  0  0  0  0  0  0  0
   57.7650   33.8990   45.5890 N   0  0  0  0  0  0  0  0  0  0  0  0
   57.6530   32.9280   44.7800 C   0  0  0  0  0  0  0  0  0  0  0  0
   58.2440   33.0600   43.5290 C   0  0  0  0  0  0  0  0  0  0  0  0
   58.1310   32.0120   42.6410 C   0  0  0  0  0  0  0  0  0  0  0  0
   57.4670   30.8700   42.9520 N   0  0  0  0  0  0  0  0  0  0  0  0
   56.9060   30.7670   44.1660 C   0  0  0  0  0  0  0  0  0  0  0  0
   56.0030   29.3040   44.6900 S   0  0  0  0  0  0  0  0  0  0  0  0
   57.2660   28.1140   45.2670 C   0  0  0  0  0  0  0  0  0  0  0  0
   57.0070   31.7760   45.0410 N   0  0  0  0  0  0  0  0  0  0  0  0
   61.1030   34.2120   48.9750 C   0  0  0  0  0  0  0  0  0  0  0  0
   62.3960   33.8830   49.2970 C   0  0  0  0  0  0  0  0  0  0  0  0
   64.6289   33.0511   50.6402 H   0  0  0  0  0  0  0  0  0  0  0  0
   64.2517   31.5223   49.7757 H   0  0  0  0  0  0  0  0  0  0  0  0
   65.9296   32.1636   49.7757 H   0  0  0  0  0  0  0  0  0  0  0  0
   63.4797   33.2077   46.1501 H   0  0  0  0  0  0  0  0  0  0  0  0
   61.1272   33.8163   45.6440 H   0  0  0  0  0  0  0  0  0  0  0  0
   58.5230   33.8271   47.8755 H   0  0  0  0  0  0  0  0  0  0  0  0
   58.9821   35.5636   47.8501 H   0  0  0  0  0  0  0  0  0  0  0  0
   58.8562   35.6591   45.5942 H   0  0  0  0  0  0  0  0  0  0  0  0
   59.8109   34.1434   45.4088 H   0  0  0  0  0  0  0  0  0  0  0  0
   58.7874   33.9763   43.2550 H   0  0  0  0  0  0  0  0  0  0  0  0
   58.5942   32.1043   41.6476 H   0  0  0  0  0  0  0  0  0  0  0  0
   57.3890   30.0860   42.2740 H   0  0  0  0  0  0  0  0  0  0  0  0
   57.2811   28.0998   46.3668 H   0  0  0  0  0  0  0  0  0  0  0  0
   57.0224   27.1095   44.8906 H   0  0  0  0  0  0  0  0  0  0  0  0
   58.2542   28.4169   44.8906 H   0  0  0  0  0  0  0  0  0  0  0  0
   60.4249   34.4998   49.7919 H   0  0  0  0  0  0  0  0  0  0  0  0
   62.7325   33.9100   50.3439 H   0  0  0  0  0  0  0  0  0  0  0  0
  1  2  1  0
  2  3  1  0
  3  4  2  0
  4  5  1  0
  5  6  2  0
  6  7  1  0
  7  8  1  0
  8  9  1  0
  9 10  2  0
 10 11  1  0
 11 12  2  0
 12 13  1  0
 13 14  1  0
 14 15  1  0
 15 16  1  0
 14 17  2  0
  6 18  1  0
 18 19  2  0
 19  3  1  0
 17 10  1  0
  1 20  1  0
  1 21  1  0
  1 22  1  0
  4 23  1  0
  5 24  1  0
  7 25  1  0
  7 26  1  0
  8 27  1  0
  8 28  1  0
 11 29  1  0
 12 30  1  0
 13 31  1  0
 16 32  1  0
 16 33  1  0
 16 34  1  0
 18 35  1  0
 19 36  1  0
M  END
>  <smiles>  (57) 
COc1ccc(CCN=c2cc[nH]c(SC)n2)cc1

>  <score_type>  (57) 
oracle

>  <origin>  (57) 
adg

>  <m_score__min__energy>  (57) 
-6.6699999999999999

>  <m_primary>  (57) 
energy

$$$$
57:0
     RDKit          3D

 36 38  0  0  0  0  0  0  0  0999 V2000
   56.3860   29.2300   42.6360 N   0  0  0  0  0  0  0  0  0  0  0  0
   56.4680   29.7260   44.2810 S   0  0  0  0  0  0  0  0  0  0  0  0
   55.1430   29.3420   44.9050 O   0  0  0  0  0  0  0  0  0  0  0  0
   56.6080   31.2060   44.3860 O   0  0  0  0  0  0  0  0  0  0  0  0
   57.7900   28.9490   45.1200 C   0  0  0  0  0  0  0  0  0  0  0  0
   58.5640   27.9650   44.5460 C   0  0  0  0  0  0  0  0  0  0  0  0
   59.6240   27.3830   45.2470 C   0  0  0  0  0  0  0  0  0  0  0  0
   59.8710   27.8250   46.5280 C   0  0  0  0  0  0  0  0  0  0  0  0
   59.1240   28.8110   47.1460 C   0  0  0  0  0  0  0  0  0  0  0  0
   59.4830   29.2250   48.4890 C   0  0  0  0  0  0  0  0  0  0  0  0
   58.5310   29.4450   49.3010 O   0  0  0  0  0  0  0  0  0  0  0  0
   60.8490   29.4020   48.9900 C   0  0  0  0  0  0  0  0  0  0  0  0
   61.2590   31.1540   49.1160 S   0  0  0  0  0  0  0  0  0  0  0  0
   60.3730   32.1450   47.9340 C   0  0  0  0  0  0  0  0  0  0  0  0
   60.8190   33.0670   47.0620 N   0  0  0  0  0  0  0  0  0  0  0  0
   59.7520   33.5610   46.3660 C   0  0  0  0  0  0  0  0  0  0  0  0
   59.6340   34.5180   45.3630 C   0  0  0  0  0  0  0  0  0  0  0  0
   58.3810   34.7960   44.8580 C   0  0  0  0  0  0  0  0  0  0  0  0
   57.2340   34.1500   45.3220 C   0  0  0  0  0  0  0  0  0  0  0  0
   57.3730   33.1930   46.3310 C   0  0  0  0  0  0  0  0  0  0  0  0
   58.6300   32.9150   46.8350 C   0  0  0  0  0  0  0  0  0  0  0  0
   59.0240   32.0640   47.7800 N   0  0  0  0  0  0  0  0  0  0  0  0
   58.0850   29.3600   46.4230 C   0  0  0  0  0  0  0  0  0  0  0  0
   56.6080   28.2330   42.5120 H   0  0  0  0  0  0  0  0  0  0  0  0
   55.5500   29.5420   42.1420 H   0  0  0  0  0  0  0  0  0  0  0  0
   58.3448   27.6322   43.5207 H   0  0  0  0  0  0  0  0  0  0  0  0
   60.2419   26.5962   44.7897 H   0  0  0  0  0  0  0  0  0  0  0  0
   60.7030   27.3715   47.0866 H   0  0  0  0  0  0  0  0  0  0  0  0
   60.9318   28.9392   49.9845 H   0  0  0  0  0  0  0  0  0  0  0  0
   61.5482   28.9245   48.2878 H   0  0  0  0  0  0  0  0  0  0  0  0
   60.5221   35.0423   44.9805 H   0  0  0  0  0  0  0  0  0  0  0  0
   58.2825   35.5510   44.0641 H   0  0  0  0  0  0  0  0  0  0  0  0
   56.2449   34.3883   44.9038 H   0  0  0  0  0  0  0  0  0  0  0  0
   56.4899   32.6655   46.7208 H   0  0  0  0  0  0  0  0  0  0  0  0
   58.3720   31.4400   48.3070 H   0  0  0  0  0  0  0  0  0  0  0  0
   57.4698   30.1454   46.8863 H   0  0  0  0  0  0  0  0  0  0  0  0
  1  2  1  0
  2  3  2  0
  2  4  2  0
  2  5  1  0
  5  6  2  0
  6  7  1  0
  7  8  2  0
  8  9  1  0
  9 10  1  0
 10 11  2  0
 10 12  1  0
 12 13  1  0
 13 14  1  0
 14 15  2  0
 15 16  1  0
 16 17  2  0
 17 18  1  0
 18 19  2  0
 19 20  1  0
 20 21  2  0
 21 22  1  0
  9 23  2  0
 23  5  1  0
 22 14  1  0
 21 16  1  0
  1 24  1  0
  1 25  1  0
  6 26  1  0
  7 27  1  0
  8 28  1  0
 12 29  1  0
 12 30  1  0
 17 31  1  0
 18 32  1  0
 19 33  1  0
 20 34  1  0
 22 35  1  0
 23 36  1  0
M  END
>  <smiles>  (58) 
NS(=O)(=O)c1cccc(C(=O)CSc2nc3ccccc3[nH]2)c1

>  <score_type>  (58) 
oracle

>  <origin>  (58) 
adg

>  <m_score__min__energy>  (58) 
-8.4600000000000009

>  <m_primary>  (58) 
energy

$$$$
58:0
     RDKit          3D

 30 32  0  0  0  0  0  0  0  0999 V2000
   60.6670   28.3590   45.0120 O   0  0  0  0  0  0  0  0  0  0  0  0
   60.2770   28.7820   46.1340 C   0  0  0  0  0  0  0  0  0  0  0  0
   60.8970   30.0210   46.7060 C   0  0  0  0  0  0  0  0  0  0  0  0
   59.6180   31.1890   47.2880 S   0  0  0  0  0  0  0  0  0  0  0  0
   58.5380   30.9410   45.8810 C   0  0  0  0  0  0  0  0  0  0  0  0
   58.8640   31.4870   44.6640 N   0  0  0  0  0  0  0  0  0  0  0  0
   58.0670   31.3030   43.5710 C   0  0  0  0  0  0  0  0  0  0  0  0
   58.3740   31.8050   42.4580 O   0  0  0  0  0  0  0  0  0  0  0  0
   56.9150   30.5480   43.7300 C   0  0  0  0  0  0  0  0  0  0  0  0
   55.8980   30.1510   42.8970 C   0  0  0  0  0  0  0  0  0  0  0  0
   55.0290   29.4080   43.6280 N   0  0  0  0  0  0  0  0  0  0  0  0
   55.4620   29.3270   44.8840 N   0  0  0  0  0  0  0  0  0  0  0  0
   56.6080   30.0210   44.9400 C   0  0  0  0  0  0  0  0  0  0  0  0
   57.3950   30.2020   46.0270 N   0  0  0  0  0  0  0  0  0  0  0  0
   59.2850   28.0630   46.8810 N   0  0  0  0  0  0  0  0  0  0  0  0
   58.4070   27.0740   46.3150 C   0  0  0  0  0  0  0  0  0  0  0  0
   58.9050   25.9770   45.5870 C   0  0  0  0  0  0  0  0  0  0  0  0
   58.0270   25.0470   45.0220 C   0  0  0  0  0  0  0  0  0  0  0  0
   56.6470   25.2070   45.1690 C   0  0  0  0  0  0  0  0  0  0  0  0
   56.1420   26.3040   45.8730 C   0  0  0  0  0  0  0  0  0  0  0  0
   54.7690   26.4680   46.0100 O   0  0  0  0  0  0  0  0  0  0  0  0
   57.0170   27.2370   46.4370 C   0  0  0  0  0  0  0  0  0  0  0  0
   61.5409   29.7422   47.5531 H   0  0  0  0  0  0  0  0  0  0  0  0
   61.4860   30.5126   45.9177 H   0  0  0  0  0  0  0  0  0  0  0  0
   55.8044   30.3922   41.8279 H   0  0  0  0  0  0  0  0  0  0  0  0
   59.2300   28.2390   47.9100 H   0  0  0  0  0  0  0  0  0  0  0  0
   59.9905   25.8507   45.4619 H   0  0  0  0  0  0  0  0  0  0  0  0
   58.4235   24.1880   44.4609 H   0  0  0  0  0  0  0  0  0  0  0  0
   55.9580   24.4699   44.7309 H   0  0  0  0  0  0  0  0  0  0  0  0
   56.6144   28.1047   46.9801 H   0  0  0  0  0  0  0  0  0  0  0  0
  1  2  2  0
  2  3  1  0
  3  4  1  0
  4  5  1  0
  5  6  2  0
  6  7  1  0
  7  8  2  0
  7  9  1  0
  9 10  2  0
 10 11  1  0
 11 12  1  0
 12 13  2  0
 13 14  1  0
  2 15  1  0
 15 16  1  0
 16 17  2  0
 17 18  1  0
 18 19  2  0
 19 20  1  0
 20 21  1  0
 20 22  2  0
 14  5  1  0
 22 16  1  0
 13  9  1  0
  3 23  1  0
  3 24  1  0
 10 25  1  0
 15 26  1  0
 17 27  1  0
 18 28  1  0
 19 29  1  0
 22 30  1  0
M  CHG  3  11  -1  14  -1  21  -1
M  END
>  <UniqueID>  (59) 
51

>  <SMILES>  (59) 
O=C(CSc1nc(=O)c2c[n-]nc2[n-]1)Nc1cccc([O-])c1

>  <Energy>  (59) 
72.11080578640271

>  <Genealogy>  (59) 
O=C(CSc1nc(=O)c2c[n-]nc2[n-]1)Nc1cccc([O-])c1 (protonated)
O=C(CSc1nc(=O)c2c[n-]nc2[n-]1)Nc1cccc([O-])c1 (3D coordinates assigned)
O=C(CSc1nc(=O)c2c[n-]nc2[n-]1)Nc1cccc([O-])c1 (optimized conformer: 72.11080578640271 kcal/mol)

>  <smiles>  (59) 
O=C(CSc1nc(=O)c2c[nH]nc2[nH]1)Nc1cccc(O)c1

>  <score_type>  (59) 
oracle

>  <origin>  (59) 
adg

>  <m_score__min__energy>  (59) 
-14.19

>  <m_primary>  (59) 
energy

$$$$
59:0
     RDKit          3D

 29 30  0  0  0  0  0  0  0  0999 V2000
   57.6374   27.5618   47.8250 H   0  0  0  0  0  0  0  0  0  0  0  0
   57.7650   26.7730   47.0690 C   0  0  0  0  0  0  0  0  0  0  0  0
   58.9440   26.5950   46.5460 N   0  0  0  0  0  0  0  0  0  0  0  0
   59.5690   27.4500   45.5330 C   0  0  0  0  0  0  0  0  0  0  0  0
   59.9341   26.8208   44.7079 H   0  0  0  0  0  0  0  0  0  0  0  0
   60.4013   27.9951   46.0022 H   0  0  0  0  0  0  0  0  0  0  0  0
   58.5800   28.4620   44.9840 C   0  0  0  0  0  0  0  0  0  0  0  0
   58.3690   29.6540   45.7040 C   0  0  0  0  0  0  0  0  0  0  0  0
   58.9314   29.8356   46.6318 H   0  0  0  0  0  0  0  0  0  0  0  0
   57.4550   30.6070   45.2540 C   0  0  0  0  0  0  0  0  0  0  0  0
   57.2906   31.5269   45.8344 H   0  0  0  0  0  0  0  0  0  0  0  0
   56.7500   30.3960   44.0710 C   0  0  0  0  0  0  0  0  0  0  0  0
   56.0210   31.1435   43.7248 H   0  0  0  0  0  0  0  0  0  0  0  0
   56.9680   29.2370   43.3250 C   0  0  0  0  0  0  0  0  0  0  0  0
   56.4099   29.0785   42.3904 H   0  0  0  0  0  0  0  0  0  0  0  0
   57.8930   28.2700   43.7550 C   0  0  0  0  0  0  0  0  0  0  0  0
   58.1190   27.0520   42.8980 C   0  0  0  0  0  0  0  0  0  0  0  0
   58.2817   26.1754   43.5423 H   0  0  0  0  0  0  0  0  0  0  0  0
   57.2371   26.8817   42.2629 H   0  0  0  0  0  0  0  0  0  0  0  0
   59.0033   27.2094   42.2629 H   0  0  0  0  0  0  0  0  0  0  0  0
   56.5930   25.9610   46.6900 C   0  0  0  0  0  0  0  0  0  0  0  0
   55.5240   26.5260   45.9800 C   0  0  0  0  0  0  0  0  0  0  0  0
   55.5480   27.8650   45.6060 O   0  0  0  0  0  0  0  0  0  0  0  0
   54.4500   25.7610   45.6510 N   0  0  0  0  0  0  0  0  0  0  0  0
   54.3960   24.4480   45.9940 C   0  0  0  0  0  0  0  0  0  0  0  0
   53.0900   23.5560   45.5940 S   0  0  0  0  0  0  0  0  0  0  0  0
   55.4270   23.8760   46.6650 N   0  0  0  0  0  0  0  0  0  0  0  0
   56.5220   24.5990   47.0150 C   0  0  0  0  0  0  0  0  0  0  0  0
   57.4630   24.0370   47.6380 O   0  0  0  0  0  0  0  0  0  0  0  0
  1  2  1  0
  2  3  2  0
  3  4  1  0
  4  5  1  0
  4  6  1  0
  4  7  1  0
  7  8  2  0
  8  9  1  0
  8 10  1  0
 10 11  1  0
 10 12  2  0
 12 13  1  0
 12 14  1  0
 14 15  1  0
 14 16  2  0
 16 17  1  0
 17 18  1  0
 17 19  1  0
 17 20  1  0
  2 21  1  0
 21 22  2  0
 22 23  1  0
 22 24  1  0
 24 25  1  0
 25 26  2  0
 25 27  1  0
 27 28  1  0
 28 29  2  0
 16  7  1  0
 28 21  1  0
M  CHG  3  23  -1  24  -1  27  -1
M  END
>  <UniqueID>  (60) 
52

>  <SMILES>  (60) 
Cc1ccccc1C/N=C\c1c([O-])[n-]c(=S)[n-]c1=O

>  <Energy>  (60) 
38.43642304072971

>  <Genealogy>  (60) 
Cc1ccccc1CN=Cc1c([O-])[n-]c(=S)[n-]c1=O (protonated)
Cc1ccccc1C/N=C\c1c([O-])[n-]c(=S)[n-]c1=O (cis-trans isomerization)
Cc1ccccc1C/N=C\c1c([O-])[n-]c(=S)[n-]c1=O (3D coordinates assigned)
Cc1ccccc1C/N=C\c1c([O-])[n-]c(=S)[n-]c1=O (optimized conformer: 38.43642304072971 kcal/mol)

>  <smiles>  (60) 
Cc1ccccc1CN=Cc1c(O)[nH]c(=S)[nH]c1=O

>  <score_type>  (60) 
oracle

>  <origin>  (60) 
adg

>  <m_score__min__energy>  (60) 
-13.789999999999999

>  <m_primary>  (60) 
energy

$$$$
60:0
     RDKit          3D

 32 33  0  0  0  0  0  0  0  0999 V2000
   55.1490   27.9910   45.8030 H   0  0  0  0  0  0  0  0  0  0  0  0
   55.5160   27.0630   45.6290 O   0  0  0  0  0  0  0  0  0  0  0  0
   56.8700   26.7550   45.7700 C   0  0  0  0  0  0  0  0  0  0  0  0
   57.2790   25.7170   46.6310 C   0  0  0  0  0  0  0  0  0  0  0  0
   56.3030   25.0100   47.3510 O   0  0  0  0  0  0  0  0  0  0  0  0
   55.5410   23.9260   46.8290 C   0  0  0  0  0  0  0  0  0  0  0  0
   55.1262   23.3359   47.6595 H   0  0  0  0  0  0  0  0  0  0  0  0
   54.7193   24.3189   46.2121 H   0  0  0  0  0  0  0  0  0  0  0  0
   56.1889   23.2859   46.2121 H   0  0  0  0  0  0  0  0  0  0  0  0
   58.6490   25.4170   46.7470 C   0  0  0  0  0  0  0  0  0  0  0  0
   58.9768   24.6111   47.4201 H   0  0  0  0  0  0  0  0  0  0  0  0
   59.5940   26.1350   46.0140 C   0  0  0  0  0  0  0  0  0  0  0  0
   60.6624   25.8913   46.1090 H   0  0  0  0  0  0  0  0  0  0  0  0
   59.1880   27.1610   45.1610 C   0  0  0  0  0  0  0  0  0  0  0  0
   59.9378   27.7165   44.5787 H   0  0  0  0  0  0  0  0  0  0  0  0
   57.8290   27.4890   45.0410 C   0  0  0  0  0  0  0  0  0  0  0  0
   57.4110   28.5790   44.0870 C   0  0  0  0  0  0  0  0  0  0  0  0
   58.2691   28.8618   43.4596 H   0  0  0  0  0  0  0  0  0  0  0  0
   56.5904   28.2084   43.4551 H   0  0  0  0  0  0  0  0  0  0  0  0
   56.9390   29.7770   44.8480 C   0  0  0  0  0  0  0  0  0  0  0  0
   55.7020   29.9820   44.9720 O   0  0  0  0  0  0  0  0  0  0  0  0
   57.9010   30.6010   45.5240 N   0  0  0  0  0  0  0  0  0  0  0  0
   57.9760   31.9000   45.5090 C   0  0  0  0  0  0  0  0  0  0  0  0
   58.0050   32.7900   43.9710 S   0  0  0  0  0  0  0  0  0  0  0  0
   57.3360   34.2320   44.8710 C   0  0  0  0  0  0  0  0  0  0  0  0
   56.2377   34.2321   44.8098 H   0  0  0  0  0  0  0  0  0  0  0  0
   57.7135   35.1649   44.4270 H   0  0  0  0  0  0  0  0  0  0  0  0
   57.7730   34.1290   46.3340 C   0  0  0  0  0  0  0  0  0  0  0  0
   57.0393   34.6303   46.9823 H   0  0  0  0  0  0  0  0  0  0  0  0
   58.7485   34.6146   46.4844 H   0  0  0  0  0  0  0  0  0  0  0  0
   57.8450   32.7180   46.6640 N   0  0  0  0  0  0  0  0  0  0  0  0
   57.4770   32.3710   47.5760 H   0  0  0  0  0  0  0  0  0  0  0  0
  1  2  1  0
  2  3  1  0
  3  4  2  0
  4  5  1  0
  5  6  1  0
  6  7  1  0
  6  8  1  0
  6  9  1  0
  4 10  1  0
 10 11  1  0
 10 12  2  0
 12 13  1  0
 12 14  1  0
 14 15  1  0
 14 16  2  0
 16 17  1  0
 17 18  1  0
 17 19  1  0
 17 20  1  0
 20 21  2  0
 20 22  1  0
 22 23  2  0
 23 24  1  0
 24 25  1  0
 25 26  1  0
 25 27  1  0
 25 28  1  0
 28 29  1  0
 28 30  1  0
 28 31  1  0
 31 32  1  0
 16  3  1  0
 31 23  1  0
M  END
>  <UniqueID>  (61) 
53

>  <SMILES>  (61) 
COc1cccc(CC(=O)/N=C2\NCCS2)c1O

>  <Energy>  (61) 
39.725068529105144

>  <Genealogy>  (61) 
COc1cccc(CC(=O)/N=C2\NCCS2)c1O (cis-trans isomerization)
COc1cccc(CC(=O)/N=C2\NCCS2)c1O (3D coordinates assigned)
COc1cccc(CC(=O)/N=C2\NCCS2)c1O (nonaromatic ring conformer: 39.725068529105144 kcal/mol)

>  <smiles>  (61) 
COc1cccc(CC(=O)N=C2NCCS2)c1O

>  <score_type>  (61) 
oracle

>  <origin>  (61) 
adg

>  <m_score__min__energy>  (61) 
-7.6699999999999999

>  <m_primary>  (61) 
energy

$$$$
61:0
     RDKit          3D

 33 34  0  0  0  0  0  0  0  0999 V2000
   57.7510   28.1410   44.5800 C   0  0  0  0  0  0  0  0  0  0  0  0
   58.3090   29.4000   44.0950 N   0  0  0  0  0  0  0  0  0  0  0  0
   57.0840   30.6320   44.1150 S   0  0  0  0  0  0  0  0  0  0  0  0
   55.8780   30.1160   44.8500 O   0  0  0  0  0  0  0  0  0  0  0  0
   56.6750   30.9630   42.7070 O   0  0  0  0  0  0  0  0  0  0  0  0
   57.6780   32.0780   44.9290 C   0  0  0  0  0  0  0  0  0  0  0  0
   57.7590   33.2870   44.2290 C   0  0  0  0  0  0  0  0  0  0  0  0
   58.2090   34.4420   44.8730 C   0  0  0  0  0  0  0  0  0  0  0  0
   58.5810   34.3960   46.2180 C   0  0  0  0  0  0  0  0  0  0  0  0
   58.5130   33.1870   46.9340 C   0  0  0  0  0  0  0  0  0  0  0  0
   58.8950   33.1300   48.3640 C   0  0  0  0  0  0  0  0  0  0  0  0
   58.1980   32.4500   49.1630 O   0  0  0  0  0  0  0  0  0  0  0  0
   60.0090   33.8700   48.8850 N   0  0  0  0  0  0  0  0  0  0  0  0
   61.3760   33.7470   48.4670 C   0  0  0  0  0  0  0  0  0  0  0  0
   62.3600   33.5030   49.4350 C   0  0  0  0  0  0  0  0  0  0  0  0
   63.7000   33.3640   49.0600 C   0  0  0  0  0  0  0  0  0  0  0  0
   64.0630   33.4540   47.7120 C   0  0  0  0  0  0  0  0  0  0  0  0
   63.0850   33.6740   46.7390 C   0  0  0  0  0  0  0  0  0  0  0  0
   61.7440   33.8140   47.1110 C   0  0  0  0  0  0  0  0  0  0  0  0
   58.0450   32.0330   46.2830 C   0  0  0  0  0  0  0  0  0  0  0  0
   57.7505   28.1398   45.6800 H   0  0  0  0  0  0  0  0  0  0  0  0
   56.7200   28.0313   44.2127 H   0  0  0  0  0  0  0  0  0  0  0  0
   58.3622   27.3034   44.2127 H   0  0  0  0  0  0  0  0  0  0  0  0
   58.5880   29.2610   43.0960 H   0  0  0  0  0  0  0  0  0  0  0  0
   57.4676   33.3279   43.1691 H   0  0  0  0  0  0  0  0  0  0  0  0
   58.2705   35.3903   44.3190 H   0  0  0  0  0  0  0  0  0  0  0  0
   58.9292   35.3104   46.7206 H   0  0  0  0  0  0  0  0  0  0  0  0
   62.0768   33.4205   50.4947 H   0  0  0  0  0  0  0  0  0  0  0  0
   64.4691   33.1838   49.8255 H   0  0  0  0  0  0  0  0  0  0  0  0
   65.1181   33.3516   47.4183 H   0  0  0  0  0  0  0  0  0  0  0  0
   63.3701   33.7372   45.6785 H   0  0  0  0  0  0  0  0  0  0  0  0
   60.9752   33.9769   46.3413 H   0  0  0  0  0  0  0  0  0  0  0  0
   57.9656   31.0871   46.8388 H   0  0  0  0  0  0  0  0  0  0  0  0
  1  2  1  0
  2  3  1  0
  3  4  2  0
  3  5  2  0
  3  6  1  0
  6  7  2  0
  7  8  1  0
  8  9  2  0
  9 10  1  0
 10 11  1  0
 11 12  2  0
 11 13  1  0
 13 14  1  0
 14 15  2  0
 15 16  1  0
 16 17  2  0
 17 18  1  0
 18 19  2  0
 10 20  2  0
 20  6  1  0
 19 14  1  0
  1 21  1  0
  1 22  1  0
  1 23  1  0
  2 24  1  0
  7 25  1  0
  8 26  1  0
  9 27  1  0
 15 28  1  0
 16 29  1  0
 17 30  1  0
 18 31  1  0
 19 32  1  0
 20 33  1  0
M  CHG  1  13  -1
M  END
>  <UniqueID>  (62) 
54

>  <SMILES>  (62) 
CNS(=O)(=O)c1cccc(C(=O)[N-]c2ccccc2)c1

>  <Energy>  (62) 
37.42767122100376

>  <Genealogy>  (62) 
CNS(=O)(=O)c1cccc(C(=O)[N-]c2ccccc2)c1 (protonated)
CNS(=O)(=O)c1cccc(C(=O)[N-]c2ccccc2)c1 (3D coordinates assigned)
CNS(=O)(=O)c1cccc(C(=O)[N-]c2ccccc2)c1 (optimized conformer: 37.42767122100376 kcal/mol)

>  <smiles>  (62) 
CNS(=O)(=O)c1cccc(C(=O)Nc2ccccc2)c1

>  <score_type>  (62) 
oracle

>  <origin>  (62) 
adg

>  <m_score__min__energy>  (62) 
-9.4600000000000009

>  <m_primary>  (62) 
energy

$$$$
62:0
     RDKit          3D

 36 37  0  0  0  0  0  0  0  0999 V2000
   56.3390   26.9890   45.7540 N   0  0  0  0  0  0  0  0  0  0  0  0
   57.6330   27.4800   45.2680 C   0  0  1  0  0  0  0  0  0  0  0  0
   57.4380   28.6390   44.2730 C   0  0  0  0  0  0  0  0  0  0  0  0
   56.2770   29.5010   44.6650 C   0  0  0  0  0  0  0  0  0  0  0  0
   55.1450   28.9870   44.8660 O   0  0  0  0  0  0  0  0  0  0  0  0
   56.4560   30.8660   44.8530 O   0  0  0  0  0  0  0  0  0  0  0  0
   58.5290   27.8940   46.4240 C   0  0  0  0  0  0  0  0  0  0  0  0
   59.3190   26.9320   47.0780 C   0  0  0  0  0  0  0  0  0  0  0  0
   60.1430   27.3000   48.1430 C   0  0  0  0  0  0  0  0  0  0  0  0
   60.1910   28.6280   48.5680 C   0  0  0  0  0  0  0  0  0  0  0  0
   59.4150   29.6050   47.9340 C   0  0  0  0  0  0  0  0  0  0  0  0
   59.4990   30.9260   48.3990 O   0  0  0  0  0  0  0  0  0  0  0  0
   60.2280   31.9650   47.7520 C   0  0  0  0  0  0  0  0  0  0  0  0
   59.2870   32.7750   46.9100 C   0  0  0  0  0  0  0  0  0  0  0  0
   57.9030   32.7220   47.1450 C   0  0  0  0  0  0  0  0  0  0  0  0
   57.0240   33.4480   46.3350 C   0  0  0  0  0  0  0  0  0  0  0  0
   57.5180   34.2220   45.2820 C   0  0  0  0  0  0  0  0  0  0  0  0
   56.6630   34.9240   44.4970 F   0  0  0  0  0  0  0  0  0  0  0  0
   58.8930   34.2670   45.0320 C   0  0  0  0  0  0  0  0  0  0  0  0
   59.7760   33.5410   45.8390 C   0  0  0  0  0  0  0  0  0  0  0  0
   58.5820   29.2330   46.8600 C   0  0  0  0  0  0  0  0  0  0  0  0
   55.9380   27.6960   46.4130 H   0  0  0  0  0  0  0  0  0  0  0  0
   55.6720   26.8900   44.9550 H   0  0  0  0  0  0  0  0  0  0  0  0
   58.1330   26.6569   44.7365 H   0  0  0  0  0  0  0  0  0  0  0  0
   58.3505   29.2531   44.2543 H   0  0  0  0  0  0  0  0  0  0  0  0
   57.2358   28.2139   43.2788 H   0  0  0  0  0  0  0  0  0  0  0  0
   59.2875   25.8830   46.7484 H   0  0  0  0  0  0  0  0  0  0  0  0
   60.7567   26.5402   48.6490 H   0  0  0  0  0  0  0  0  0  0  0  0
   60.8436   28.9092   49.4076 H   0  0  0  0  0  0  0  0  0  0  0  0
   60.6958   32.6126   48.5082 H   0  0  0  0  0  0  0  0  0  0  0  0
   61.0109   31.5270   47.1154 H   0  0  0  0  0  0  0  0  0  0  0  0
   57.5096   32.1078   47.9684 H   0  0  0  0  0  0  0  0  0  0  0  0
   55.9416   33.4096   46.5273 H   0  0  0  0  0  0  0  0  0  0  0  0
   59.2808   34.8736   44.2003 H   0  0  0  0  0  0  0  0  0  0  0  0
   60.8563   33.5703   45.6340 H   0  0  0  0  0  0  0  0  0  0  0  0
   57.9677   29.9946   46.3575 H   0  0  0  0  0  0  0  0  0  0  0  0
  1  2  1  0
  2  3  1  0
  3  4  1  0
  4  5  2  0
  4  6  1  0
  2  7  1  0
  7  8  2  0
  8  9  1  0
  9 10  2  0
 10 11  1  0
 11 12  1  0
 12 13  1  0
 13 14  1  0
 14 15  2  0
 15 16  1  0
 16 17  2  0
 17 18  1  0
 17 19  1  0
 19 20  2  0
 11 21  2  0
 21  7  1  0
 20 14  1  0
  1 22  1  0
  1 23  1  0
  2 24  1  6
  3 25  1  0
  3 26  1  0
  8 27  1  0
  9 28  1  0
 10 29  1  0
 13 30  1  0
 13 31  1  0
 15 32  1  0
 16 33  1  0
 19 34  1  0
 20 35  1  0
 21 36  1  0
M  CHG  1   6  -1
M  END
>  <UniqueID>  (63) 
55

>  <SMILES>  (63) 
N[C@@H](CC(=O)[O-])c1cccc(OCc2ccc(F)cc2)c1

>  <Energy>  (63) 
33.63772411269747

>  <Genealogy>  (63) 
NC(CC(=O)[O-])c1cccc(OCc2ccc(F)cc2)c1 (protonated)
N[C@@H](CC(=O)[O-])c1cccc(OCc2ccc(F)cc2)c1 (chirality)
N[C@@H](CC(=O)[O-])c1cccc(OCc2ccc(F)cc2)c1 (3D coordinates assigned)
N[C@@H](CC(=O)[O-])c1cccc(OCc2ccc(F)cc2)c1 (optimized conformer: 33.63772411269747 kcal/mol)

>  <smiles>  (63) 
NC(CC(=O)O)c1cccc(OCc2ccc(F)cc2)c1

>  <score_type>  (63) 
oracle

>  <origin>  (63) 
adg

>  <m_score__min__energy>  (63) 
-9.8599999999999994

>  <m_primary>  (63) 
energy

$$$$
63:0
     RDKit          3D

 48 51  0  0  0  0  0  0  0  0999 V2000
   58.3380   30.8790   50.4840 O   0  0  0  0  0  0  0  0  0  0  0  0
   58.9010   31.4540   49.5140 C   0  0  0  0  0  0  0  0  0  0  0  0
   60.0590   30.7950   48.8330 C   0  0  0  0  0  0  0  0  0  0  0  0
   61.1570   31.7970   48.6050 C   0  0  0  0  0  0  0  0  0  0  0  0
   61.4840   32.7310   49.6030 C   0  0  0  0  0  0  0  0  0  0  0  0
   62.4830   33.6840   49.3740 C   0  0  0  0  0  0  0  0  0  0  0  0
   63.1520   33.7170   48.1480 C   0  0  0  0  0  0  0  0  0  0  0  0
   62.8230   32.8000   47.1460 C   0  0  0  0  0  0  0  0  0  0  0  0
   61.8260   31.8440   47.3700 C   0  0  0  0  0  0  0  0  0  0  0  0
   58.4400   32.7270   49.0450 N   0  0  0  0  0  0  0  0  0  0  0  0
   58.5920   33.2480   47.7160 C   0  0  0  0  0  0  0  0  0  0  0  0
   59.3030   34.4330   47.4590 C   0  0  0  0  0  0  0  0  0  0  0  0
   59.4460   34.8950   46.1490 C   0  0  0  0  0  0  0  0  0  0  0  0
   58.9000   34.1720   45.0850 C   0  0  0  0  0  0  0  0  0  0  0  0
   58.2190   32.9680   45.3230 C   0  0  0  0  0  0  0  0  0  0  0  0
   57.6280   32.1890   44.1730 C   0  0  0  0  0  0  0  0  0  0  0  0
   57.2140   30.8040   44.6030 C   0  0  0  0  0  0  0  0  0  0  0  0
   55.9000   30.4680   44.4980 N   0  0  0  0  0  0  0  0  0  0  0  0
   55.4470   29.2630   44.8430 N   0  0  0  0  0  0  0  0  0  0  0  0
   56.2770   28.2980   45.3080 C   0  0  0  0  0  0  0  0  0  0  0  0
   55.8020   27.1780   45.6350 O   0  0  0  0  0  0  0  0  0  0  0  0
   57.6510   28.5590   45.4220 C   0  0  0  0  0  0  0  0  0  0  0  0
   58.1300   29.8420   45.0810 C   0  0  0  0  0  0  0  0  0  0  0  0
   59.5370   30.1260   45.2030 N   0  0  0  0  0  0  0  0  0  0  0  0
   60.4470   29.1950   45.8640 C   0  0  0  0  0  0  0  0  0  0  0  0
   60.0440   27.7570   45.5450 C   0  0  0  0  0  0  0  0  0  0  0  0
   58.5930   27.5070   45.9700 C   0  0  0  0  0  0  0  0  0  0  0  0
   58.0660   32.5150   46.6450 C   0  0  0  0  0  0  0  0  0  0  0  0
   60.4367   29.9776   49.4649 H   0  0  0  0  0  0  0  0  0  0  0  0
   59.7283   30.3935   47.8637 H   0  0  0  0  0  0  0  0  0  0  0  0
   60.9535   32.7129   50.5664 H   0  0  0  0  0  0  0  0  0  0  0  0
   62.7418   34.4081   50.1605 H   0  0  0  0  0  0  0  0  0  0  0  0
   63.9385   34.4655   47.9712 H   0  0  0  0  0  0  0  0  0  0  0  0
   63.3484   32.8298   46.1801 H   0  0  0  0  0  0  0  0  0  0  0  0
   61.5652   31.1274   46.5773 H   0  0  0  0  0  0  0  0  0  0  0  0
   59.7478   34.9977   48.2917 H   0  0  0  0  0  0  0  0  0  0  0  0
   59.9901   35.8309   45.9540 H   0  0  0  0  0  0  0  0  0  0  0  0
   59.0044   34.5481   44.0566 H   0  0  0  0  0  0  0  0  0  0  0  0
   56.7455   32.7249   43.7935 H   0  0  0  0  0  0  0  0  0  0  0  0
   58.3935   32.0942   43.3888 H   0  0  0  0  0  0  0  0  0  0  0  0
   59.9450   31.0050   44.8190 H   0  0  0  0  0  0  0  0  0  0  0  0
   61.4726   29.3735   45.5085 H   0  0  0  0  0  0  0  0  0  0  0  0
   60.3971   29.3516   46.9517 H   0  0  0  0  0  0  0  0  0  0  0  0
   60.1405   27.5842   44.4630 H   0  0  0  0  0  0  0  0  0  0  0  0
   60.7027   27.0692   46.0956 H   0  0  0  0  0  0  0  0  0  0  0  0
   58.2790   26.5207   45.5976 H   0  0  0  0  0  0  0  0  0  0  0  0
   58.5487   27.5508   47.0682 H   0  0  0  0  0  0  0  0  0  0  0  0
   57.5279   31.5756   46.8400 H   0  0  0  0  0  0  0  0  0  0  0  0
  1  2  2  0
  2  3  1  0
  3  4  1  0
  4  5  2  0
  5  6  1  0
  6  7  2  0
  7  8  1  0
  8  9  2  0
  2 10  1  0
 10 11  1  0
 11 12  2  0
 12 13  1  0
 13 14  2  0
 14 15  1  0
 15 16  1  0
 16 17  1  0
 17 18  2  0
 18 19  1  0
 19 20  1  0
 20 21  2  0
 20 22  1  0
 22 23  2  0
 23 24  1  0
 24 25  1  0
 25 26  1  0
 26 27  1  0
 15 28  2  0
  9  4  1  0
 28 11  1  0
 23 17  1  0
 27 22  1  0
  3 29  1  0
  3 30  1  0
  5 31  1  0
  6 32  1  0
  7 33  1  0
  8 34  1  0
  9 35  1  0
 12 36  1  0
 13 37  1  0
 14 38  1  0
 16 39  1  0
 16 40  1  0
 24 41  1  0
 25 42  1  0
 25 43  1  0
 26 44  1  0
 26 45  1  0
 27 46  1  0
 27 47  1  0
 28 48  1  0
M  CHG  2  10  -1  19  -1
M  END
>  <UniqueID>  (64) 
56

>  <SMILES>  (64) 
O=C(Cc1ccccc1)[N-]c1cccc(Cc2n[n-]c(=O)c3c2NCCC3)c1

>  <Energy>  (64) 
54.58759774425757

>  <Genealogy>  (64) 
O=C(Cc1ccccc1)[N-]c1cccc(Cc2n[n-]c(=O)c3c2NCCC3)c1 (protonated)
O=C(Cc1ccccc1)[N-]c1cccc(Cc2n[n-]c(=O)c3c2NCCC3)c1 (3D coordinates assigned)
O=C(Cc1ccccc1)[N-]c1cccc(Cc2n[n-]c(=O)c3c2NCCC3)c1 (nonaromatic ring conformer: 54.58759774425757 kcal/mol)

>  <smiles>  (64) 
O=C(Cc1ccccc1)Nc1cccc(Cc2n[nH]c(=O)c3c2NCCC3)c1

>  <score_type>  (64) 
oracle

>  <origin>  (64) 
adg

>  <m_score__min__energy>  (64) 
-13.300000000000001

>  <m_primary>  (64) 
energy

$$$$
64:0
     RDKit          3D

 57 59  0  0  0  0  0  0  0  0999 V2000
   59.7750   35.1820   46.2630 C   0  0  0  0  0  0  0  0  0  0  0  0
   59.0090   33.9640   45.8450 C   0  0  0  0  0  0  0  0  0  0  0  0
   58.8920   32.8670   46.7130 C   0  0  0  0  0  0  0  0  0  0  0  0
   58.2050   31.7170   46.3090 C   0  0  0  0  0  0  0  0  0  0  0  0
   57.6340   31.6500   45.0300 C   0  0  0  0  0  0  0  0  0  0  0  0
   56.7670   30.2080   44.5050 S   0  0  0  0  0  0  0  0  0  0  0  0
   55.3770   30.5740   44.0650 O   0  0  0  0  0  0  0  0  0  0  0  0
   57.4860   29.5790   43.3440 O   0  0  0  0  0  0  0  0  0  0  0  0
   56.6540   29.0950   45.8270 N   0  0  0  0  0  0  0  0  0  0  0  0
   57.2780   27.8120   45.7720 C   0  0  0  0  0  0  0  0  0  0  0  0
   58.6730   27.7330   45.6850 C   0  0  0  0  0  0  0  0  0  0  0  0
   59.3030   26.4890   45.6060 C   0  0  0  0  0  0  0  0  0  0  0  0
   58.5410   25.3180   45.6160 C   0  0  0  0  0  0  0  0  0  0  0  0
   57.1420   25.3830   45.6970 C   0  0  0  0  0  0  0  0  0  0  0  0
   56.3970   24.1640   45.7420 N   0  0  0  0  0  0  0  0  0  0  0  0
   56.7560   22.7840   44.7580 S   0  0  0  0  0  0  0  0  0  0  0  0
   55.9550   22.8950   43.4920 O   0  0  0  0  0  0  0  0  0  0  0  0
   58.2160   22.7510   44.4140 O   0  0  0  0  0  0  0  0  0  0  0  0
   56.2930   21.2930   45.6390 C   0  0  0  0  0  0  0  0  0  0  0  0
   57.4010   20.7650   46.5610 C   0  0  0  0  0  0  0  0  0  0  0  0
   57.3480   21.3910   47.8780 N   0  0  0  0  0  0  0  0  0  0  0  0
   57.2690   20.6830   49.1210 C   0  0  0  0  0  0  0  0  0  0  0  0
   58.2960   20.5550   49.8360 O   0  0  0  0  0  0  0  0  0  0  0  0
   56.0200   20.0300   49.5640 C   0  0  0  0  0  0  0  0  0  0  0  0
   54.7760   20.5150   49.4210 C   0  0  0  0  0  0  0  0  0  0  0  0
   54.2440   21.1950   48.2250 C   0  0  0  0  0  0  0  0  0  0  0  0
   54.4310   22.5740   48.0280 C   0  0  0  0  0  0  0  0  0  0  0  0
   53.8790   23.2050   46.9080 C   0  0  0  0  0  0  0  0  0  0  0  0
   53.1170   22.4710   45.9870 C   0  0  0  0  0  0  0  0  0  0  0  0
   52.5690   23.0920   44.8650 O   0  0  0  0  0  0  0  0  0  0  0  0
   52.9000   21.1060   46.2010 C   0  0  0  0  0  0  0  0  0  0  0  0
   52.1470   20.3710   45.2960 O   0  0  0  0  0  0  0  0  0  0  0  0
   53.4540   20.4720   47.3200 C   0  0  0  0  0  0  0  0  0  0  0  0
   56.5100   26.6350   45.8070 C   0  0  0  0  0  0  0  0  0  0  0  0
   55.1340   26.7130   46.0030 O   0  0  0  0  0  0  0  0  0  0  0  0
   57.7660   32.7380   44.1570 C   0  0  0  0  0  0  0  0  0  0  0  0
   58.4580   33.8840   44.5570 C   0  0  0  0  0  0  0  0  0  0  0  0
   59.8084   35.2351   47.3612 H   0  0  0  0  0  0  0  0  0  0  0  0
   60.7998   35.1244   45.8673 H   0  0  0  0  0  0  0  0  0  0  0  0
   59.2792   36.0807   45.8673 H   0  0  0  0  0  0  0  0  0  0  0  0
   59.3425   32.9117   47.7155 H   0  0  0  0  0  0  0  0  0  0  0  0
   58.1126   30.8633   46.9964 H   0  0  0  0  0  0  0  0  0  0  0  0
   59.2749   28.6537   45.6788 H   0  0  0  0  0  0  0  0  0  0  0  0
   60.3992   26.4312   45.5359 H   0  0  0  0  0  0  0  0  0  0  0  0
   59.0408   24.3397   45.5601 H   0  0  0  0  0  0  0  0  0  0  0  0
   55.4041   21.5098   46.2497 H   0  0  0  0  0  0  0  0  0  0  0  0
   56.0978   20.5159   44.8853 H   0  0  0  0  0  0  0  0  0  0  0  0
   57.2805   19.6778   46.6775 H   0  0  0  0  0  0  0  0  0  0  0  0
   58.3723   21.0061   46.1044 H   0  0  0  0  0  0  0  0  0  0  0  0
   56.1186   19.0524   50.0586 H   0  0  0  0  0  0  0  0  0  0  0  0
   54.0913   20.3942   50.2734 H   0  0  0  0  0  0  0  0  0  0  0  0
   55.0127   23.1584   48.7561 H   0  0  0  0  0  0  0  0  0  0  0  0
   54.0432   24.2810   46.7490 H   0  0  0  0  0  0  0  0  0  0  0  0
   52.1810   22.5580   44.0960 H   0  0  0  0  0  0  0  0  0  0  0  0
   53.2684   19.4012   47.4899 H   0  0  0  0  0  0  0  0  0  0  0  0
   57.3225   32.6897   43.1515 H   0  0  0  0  0  0  0  0  0  0  0  0
   58.5713   34.7269   43.8594 H   0  0  0  0  0  0  0  0  0  0  0  0
  1  2  1  0
  2  3  2  0
  3  4  1  0
  4  5  2  0
  5  6  1  0
  6  7  2  0
  6  8  2  0
  6  9  1  0
  9 10  1  0
 10 11  2  0
 11 12  1  0
 12 13  2  0
 13 14  1  0
 14 15  1  0
 15 16  1  0
 16 17  2  0
 16 18  2  0
 16 19  1  0
 19 20  1  0
 20 21  1  0
 21 22  1  0
 22 23  2  0
 22 24  1  0
 24 25  2  3
 25 26  1  0
 26 27  2  0
 27 28  1  0
 28 29  2  0
 29 30  1  0
 29 31  1  0
 31 32  1  0
 31 33  2  0
 14 34  2  0
 34 35  1  0
  5 36  1  0
 36 37  2  0
 37  2  1  0
 34 10  1  0
 33 26  1  0
  1 38  1  0
  1 39  1  0
  1 40  1  0
  3 41  1  0
  4 42  1  0
 11 43  1  0
 12 44  1  0
 13 45  1  0
 19 46  1  0
 19 47  1  0
 20 48  1  0
 20 49  1  0
 24 50  1  0
 25 51  1  0
 27 52  1  0
 28 53  1  0
 30 54  1  0
 33 55  1  0
 36 56  1  0
 37 57  1  0
M  CHG  5   9  -1  15  -1  21  -1  32  -1  35  -1
M  END
>  <UniqueID>  (65) 
57

>  <SMILES>  (65) 
Cc1ccc(S(=O)(=O)[N-]c2cccc([N-]S(=O)(=O)CC[N-]C(=O)C=Cc3ccc(O)c([O-])c3)c2[O-])cc1

>  <Energy>  (65) 
75.39194117490663

>  <Genealogy>  (65) 
Cc1ccc(S(=O)(=O)[N-]c2cccc([N-]S(=O)(=O)CC[N-]C(=O)C=Cc3ccc(O)c([O-])c3)c2[O-])cc1 (protonated)
Cc1ccc(S(=O)(=O)[N-]c2cccc([N-]S(=O)(=O)CC[N-]C(=O)C=Cc3ccc(O)c([O-])c3)c2[O-])cc1 (3D coordinates assigned)
Cc1ccc(S(=O)(=O)[N-]c2cccc([N-]S(=O)(=O)CC[N-]C(=O)C=Cc3ccc(O)c([O-])c3)c2[O-])cc1 (optimized conformer: 75.39194117490663 kcal/mol)

>  <smiles>  (65) 
Cc1ccc(S(=O)(=O)Nc2cccc(NS(=O)(=O)CCNC(=O)C=Cc3ccc(O)c(O)c3)c2O)cc1

>  <score_type>  (65) 
oracle

>  <origin>  (65) 
adg

>  <m_score__min__energy>  (65) 
-18.329999999999998

>  <m_primary>  (65) 
energy

$$$$
65:0
     RDKit          3D

 65 69  0  0  0  0  0  0  0  0999 V2000
   57.7790   31.4510   43.6970 C   0  0  0  0  0  0  0  0  0  0  0  0
   57.3940   31.7960   45.1400 C   0  0  1  0  0  0  0  0  0  0  0  0
   57.6050   30.6340   46.0070 N   0  0  0  0  0  0  0  0  0  0  0  0
   58.9090   30.2060   46.4250 C   0  0  0  0  0  0  0  0  0  0  0  0
   59.9280   30.8830   46.1240 O   0  0  0  0  0  0  0  0  0  0  0  0
   59.0720   28.9380   47.1650 C   0  0  0  0  0  0  0  0  0  0  0  0
   59.5390   28.7790   48.4670 C   0  0  0  0  0  0  0  0  0  0  0  0
   60.1910   29.7780   49.3380 C   0  0  0  0  0  0  0  0  0  0  0  0
   59.4810   30.3290   50.4110 C   0  0  0  0  0  0  0  0  0  0  0  0
   60.1070   31.2550   51.2430 C   0  0  0  0  0  0  0  0  0  0  0  0
   61.4050   31.5960   51.0310 N   0  0  0  0  0  0  0  0  0  0  0  0
   62.1390   31.0680   50.0170 C   0  0  0  0  0  0  0  0  0  0  0  0
   63.3810   31.4410   49.8940 N   0  0  0  0  0  0  0  0  0  0  0  0
   63.9250   32.4510   48.9770 C   0  0  0  0  0  0  0  0  0  0  0  0
   63.2920   33.8410   49.2320 C   0  0  0  0  0  0  0  0  0  0  0  0
   62.2450   34.1820   48.1630 C   0  0  0  0  0  0  0  0  0  0  0  0
   62.7820   34.2160   46.8450 O   0  0  0  0  0  0  0  0  0  0  0  0
   63.7340   33.1910   46.5720 C   0  0  0  0  0  0  0  0  0  0  0  0
   63.6910   31.9890   47.5310 C   0  0  0  0  0  0  0  0  0  0  0  0
   61.5320   30.1420   49.1440 C   0  0  0  0  0  0  0  0  0  0  0  0
   59.3340   27.5300   48.8270 O   0  0  0  0  0  0  0  0  0  0  0  0
   58.7820   26.9230   47.8040 C   0  0  0  0  0  0  0  0  0  0  0  0
   58.4440   25.7080   47.8190 O   0  0  0  0  0  0  0  0  0  0  0  0
   58.6090   27.7390   46.7440 N   0  0  0  0  0  0  0  0  0  0  0  0
   57.9600   27.4090   45.4700 C   0  0  0  0  0  0  0  0  0  0  0  0
   56.4580   27.5170   45.5600 C   0  0  0  0  0  0  0  0  0  0  0  0
   55.8960   28.5960   45.2350 O   0  0  0  0  0  0  0  0  0  0  0  0
   55.6290   26.4360   46.0230 N   0  0  0  0  0  0  0  0  0  0  0  0
   55.8230   25.1550   45.8940 C   0  0  0  0  0  0  0  0  0  0  0  0
   55.9330   24.5070   44.7130 N   0  0  0  0  0  0  0  0  0  0  0  0
   56.1210   23.1720   44.8910 C   0  0  0  0  0  0  0  0  0  0  0  0
   56.1620   22.7540   46.2150 C   0  0  0  0  0  0  0  0  0  0  0  0
   55.9530   24.1060   47.1960 S   0  0  0  0  0  0  0  0  0  0  0  0
   58.1660   32.9860   45.6820 C   0  0  0  0  0  0  0  0  0  0  0  0
   58.7280   33.9120   44.7830 C   0  0  0  0  0  0  0  0  0  0  0  0
   59.3990   35.0440   45.2580 C   0  0  0  0  0  0  0  0  0  0  0  0
   59.5050   35.2710   46.6330 C   0  0  0  0  0  0  0  0  0  0  0  0
   58.9260   34.3750   47.5350 C   0  0  0  0  0  0  0  0  0  0  0  0
   58.2470   33.2460   47.0660 C   0  0  0  0  0  0  0  0  0  0  0  0
   58.5982   30.7169   43.7016 H   0  0  0  0  0  0  0  0  0  0  0  0
   56.9082   31.0254   43.1769 H   0  0  0  0  0  0  0  0  0  0  0  0
   58.1069   32.3631   43.1769 H   0  0  0  0  0  0  0  0  0  0  0  0
   56.3293   32.0724   45.1314 H   0  0  0  0  0  0  0  0  0  0  0  0
   56.7690   30.0930   46.3260 H   0  0  0  0  0  0  0  0  0  0  0  0
   58.4377   30.0335   50.5959 H   0  0  0  0  0  0  0  0  0  0  0  0
   59.5487   31.7112   52.0738 H   0  0  0  0  0  0  0  0  0  0  0  0
   65.0056   32.5564   49.1538 H   0  0  0  0  0  0  0  0  0  0  0  0
   62.8078   33.8384   50.2197 H   0  0  0  0  0  0  0  0  0  0  0  0
   64.0890   34.5980   49.1910 H   0  0  0  0  0  0  0  0  0  0  0  0
   61.4497   33.4228   48.1974 H   0  0  0  0  0  0  0  0  0  0  0  0
   61.8636   35.1891   48.3874 H   0  0  0  0  0  0  0  0  0  0  0  0
   63.5527   32.8202   45.5524 H   0  0  0  0  0  0  0  0  0  0  0  0
   64.7250   33.6508   46.7009 H   0  0  0  0  0  0  0  0  0  0  0  0
   62.7065   31.5035   47.4602 H   0  0  0  0  0  0  0  0  0  0  0  0
   64.4828   31.2790   47.2500 H   0  0  0  0  0  0  0  0  0  0  0  0
   62.1077   29.7066   48.3139 H   0  0  0  0  0  0  0  0  0  0  0  0
   58.3209   28.1031   44.6967 H   0  0  0  0  0  0  0  0  0  0  0  0
   58.2127   26.3686   45.2178 H   0  0  0  0  0  0  0  0  0  0  0  0
   56.2325   22.4741   44.0481 H   0  0  0  0  0  0  0  0  0  0  0  0
   56.3059   21.7201   46.5619 H   0  0  0  0  0  0  0  0  0  0  0  0
   58.6390   33.7444   43.6995 H   0  0  0  0  0  0  0  0  0  0  0  0
   59.8440   35.7567   44.5480 H   0  0  0  0  0  0  0  0  0  0  0  0
   60.0441   36.1548   47.0048 H   0  0  0  0  0  0  0  0  0  0  0  0
   59.0044   34.5580   48.6168 H   0  0  0  0  0  0  0  0  0  0  0  0
   57.7733   32.5567   47.7805 H   0  0  0  0  0  0  0  0  0  0  0  0
  1  2  1  0
  2  3  1  0
  3  4  1  0
  4  5  2  0
  4  6  1  0
  6  7  2  0
  7  8  1  0
  8  9  1  0
  9 10  2  0
 10 11  1  0
 11 12  1  0
 12 13  2  3
 13 14  1  0
 14 15  1  0
 15 16  1  0
 16 17  1  0
 17 18  1  0
 18 19  1  0
 12 20  1  0
  7 21  1  0
 21 22  1  0
 22 23  2  0
 22 24  1  0
 24 25  1  0
 25 26  1  0
 26 27  2  0
 26 28  1  0
 28 29  2  3
 29 30  1  0
 30 31  1  0
 31 32  2  0
 32 33  1  0
  2 34  1  0
 34 35  2  0
 35 36  1  0
 36 37  2  0
 37 38  1  0
 38 39  2  0
 24  6  1  0
 33 29  1  0
 39 34  1  0
 20  8  2  0
 19 14  1  0
  1 40  1  0
  1 41  1  0
  1 42  1  0
  2 43  1  6
  3 44  1  0
  9 45  1  0
 10 46  1  0
 14 47  1  0
 15 48  1  0
 15 49  1  0
 16 50  1  0
 16 51  1  0
 18 52  1  0
 18 53  1  0
 19 54  1  0
 19 55  1  0
 20 56  1  0
 25 57  1  0
 25 58  1  0
 31 59  1  0
 32 60  1  0
 35 61  1  0
 36 62  1  0
 37 63  1  0
 38 64  1  0
 39 65  1  0
M  CHG  2  11  -1  30  -1
M  END
>  <UniqueID>  (66) 
58

>  <SMILES>  (66) 
C[C@@H](NC(=O)c1c(-c2cc[n-]c(=NC3CCOCC3)c2)oc(=O)n1CC(=O)N=c1[n-]ccs1)c1ccccc1

>  <Energy>  (66) 
152.85623423437045

>  <Genealogy>  (66) 
CC(NC(=O)c1c(-c2cc[n-]c(=NC3CCOCC3)c2)oc(=O)n1CC(=O)N=c1[n-]ccs1)c1ccccc1 (protonated)
C[C@@H](NC(=O)c1c(-c2cc[n-]c(=NC3CCOCC3)c2)oc(=O)n1CC(=O)N=c1[n-]ccs1)c1ccccc1 (chirality)
C[C@@H](NC(=O)c1c(-c2cc[n-]c(=NC3CCOCC3)c2)oc(=O)n1CC(=O)N=c1[n-]ccs1)c1ccccc1 (3D coordinates assigned)
C[C@@H](NC(=O)c1c(-c2cc[n-]c(=NC3CCOCC3)c2)oc(=O)n1CC(=O)N=c1[n-]ccs1)c1ccccc1 (nonaromatic ring conformer: 152.85623423437045 kcal/mol)

>  <smiles>  (66) 
CC(NC(=O)c1c(-c2cc[nH]c(=NC3CCOCC3)c2)oc(=O)n1CC(=O)N=c1[nH]ccs1)c1ccccc1

>  <score_type>  (66) 
oracle

>  <origin>  (66) 
adg

>  <m_score__min__energy>  (66) 
-12.859999999999999

>  <m_primary>  (66) 
energy

$$$$
66:0
     RDKit          3D

 23 24  0  0  0  0  0  0  0  0999 V2000
   57.6070   32.4870   43.0150 O   0  0  0  0  0  0  0  0  0  0  0  0
   57.5800   32.0580   44.2010 C   0  0  0  0  0  0  0  0  0  0  0  0
   58.2840   32.8180   45.2570 C   0  0  0  0  0  0  0  0  0  0  0  0
   58.9000   34.0480   44.9680 C   0  0  0  0  0  0  0  0  0  0  0  0
   59.5280   34.7760   45.9800 C   0  0  0  0  0  0  0  0  0  0  0  0
   59.5470   34.2900   47.2880 C   0  0  0  0  0  0  0  0  0  0  0  0
   58.9440   33.0590   47.5980 C   0  0  0  0  0  0  0  0  0  0  0  0
   58.9130   32.5590   49.0210 C   0  0  0  0  0  0  0  0  0  0  0  0
   59.5410   31.3300   49.0850 F   0  0  0  0  0  0  0  0  0  0  0  0
   57.6080   32.4220   49.4640 F   0  0  0  0  0  0  0  0  0  0  0  0
   59.5640   33.4440   49.8630 F   0  0  0  0  0  0  0  0  0  0  0  0
   58.2890   32.3430   46.5800 C   0  0  0  0  0  0  0  0  0  0  0  0
   56.8440   30.8090   44.4790 C   0  0  0  0  0  0  0  0  0  0  0  0
   55.5500   30.6090   44.1680 N   0  0  0  0  0  0  0  0  0  0  0  0
   55.2400   29.3990   44.6160 N   0  0  0  0  0  0  0  0  0  0  0  0
   56.2590   28.8050   45.2170 N   0  0  0  0  0  0  0  0  0  0  0  0
   57.2720   29.6810   45.1450 C   0  0  0  0  0  0  0  0  0  0  0  0
   58.4090   29.4870   45.6510 O   0  0  0  0  0  0  0  0  0  0  0  0
   58.8871   34.4386   43.9398 H   0  0  0  0  0  0  0  0  0  0  0  0
   60.0098   35.7366   45.7455 H   0  0  0  0  0  0  0  0  0  0  0  0
   60.0369   34.8739   48.0811 H   0  0  0  0  0  0  0  0  0  0  0  0
   57.7750   31.4010   46.8217 H   0  0  0  0  0  0  0  0  0  0  0  0
   54.2950   28.9680   44.5130 H   0  0  0  0  0  0  0  0  0  0  0  0
  1  2  2  0
  2  3  1  0
  3  4  2  0
  4  5  1  0
  5  6  2  0
  6  7  1  0
  7  8  1  0
  8  9  1  0
  8 10  1  0
  8 11  1  0
  7 12  2  0
  2 13  1  0
 13 14  2  0
 14 15  1  0
 15 16  1  0
 16 17  1  0
 17 18  2  0
 12  3  1  0
 17 13  1  0
  4 19  1  0
  5 20  1  0
  6 21  1  0
 12 22  1  0
 15 23  1  0
M  CHG  1  16  -1
M  END
>  <UniqueID>  (67) 
59

>  <SMILES>  (67) 
O=C(c1cccc(C(F)(F)F)c1)c1n[nH][n-]c1=O

>  <Energy>  (67) 
65.38785823452228

>  <Genealogy>  (67) 
O=C(c1cccc(C(F)(F)F)c1)c1n[nH][n-]c1=O (protonated)
O=C(c1cccc(C(F)(F)F)c1)c1n[nH][n-]c1=O (3D coordinates assigned)
O=C(c1cccc(C(F)(F)F)c1)c1n[nH][n-]c1=O (optimized conformer: 65.38785823452228 kcal/mol)

>  <smiles>  (67) 
O=C(c1cccc(C(F)(F)F)c1)c1n[nH][nH]c1=O

>  <score_type>  (67) 
oracle

>  <origin>  (67) 
adg

>  <m_score__min__energy>  (67) 
-8.4800000000000004

>  <m_primary>  (67) 
energy

$$$$
67:0
     RDKit          3D

 47 49  0  0  0  0  0  0  0  0999 V2000
   57.6710   31.9650   43.6190 C   0  0  0  0  0  0  0  0  0  0  0  0
   57.1610   30.6920   44.2030 C   0  0  0  0  0  0  0  0  0  0  0  0
   57.7970   29.4680   44.1670 C   0  0  0  0  0  0  0  0  0  0  0  0
   56.9180   28.6490   44.8380 C   0  0  0  0  0  0  0  0  0  0  0  0
   57.1110   27.3800   45.0480 N   0  0  0  0  0  0  0  0  0  0  0  0
   56.4080   26.5670   46.0000 C   0  0  0  0  0  0  0  0  0  0  0  0
   55.1480   26.5170   46.0120 O   0  0  0  0  0  0  0  0  0  0  0  0
   57.1880   25.7340   46.9630 C   0  0  0  0  0  0  0  0  0  0  0  0
   58.4490   25.3410   46.3480 N   0  0  0  0  0  0  0  0  0  0  0  0
   59.6790   26.0660   46.4720 C   0  0  0  0  0  0  0  0  0  0  0  0
   60.7660   25.4420   46.3540 O   0  0  0  0  0  0  0  0  0  0  0  0
   59.7110   27.5260   46.6920 C   0  0  0  0  0  0  0  0  0  0  0  0
   59.0840   28.0980   47.8100 C   0  0  0  0  0  0  0  0  0  0  0  0
   59.1130   29.4810   48.0040 C   0  0  0  0  0  0  0  0  0  0  0  0
   59.7750   30.3100   47.0870 C   0  0  0  0  0  0  0  0  0  0  0  0
   59.7670   32.0620   47.3060 S   0  0  0  0  0  0  0  0  0  0  0  0
   58.5680   32.4530   48.1250 O   0  0  0  0  0  0  0  0  0  0  0  0
   59.6480   32.7260   45.9620 O   0  0  0  0  0  0  0  0  0  0  0  0
   61.2240   32.6190   48.1010 N   0  0  0  0  0  0  0  0  0  0  0  0
   62.2830   31.5900   48.0120 C   0  0  0  0  0  0  0  0  0  0  0  0
   63.6740   32.2220   48.1850 C   0  0  0  0  0  0  0  0  0  0  0  0
   63.9890   33.2020   47.2030 O   0  0  0  0  0  0  0  0  0  0  0  0
   62.8490   33.8090   46.6100 C   0  0  0  0  0  0  0  0  0  0  0  0
   61.6580   33.9380   47.5780 C   0  0  0  0  0  0  0  0  0  0  0  0
   60.4360   29.7360   45.9920 C   0  0  0  0  0  0  0  0  0  0  0  0
   60.4080   28.3520   45.7980 C   0  0  0  0  0  0  0  0  0  0  0  0
   55.8370   29.3430   45.2450 N   0  0  0  0  0  0  0  0  0  0  0  0
   56.0200   30.5680   44.8440 O   0  0  0  0  0  0  0  0  0  0  0  0
   57.9476   32.6553   44.4295 H   0  0  0  0  0  0  0  0  0  0  0  0
   58.5546   31.7555   42.9982 H   0  0  0  0  0  0  0  0  0  0  0  0
   56.8872   32.4236   42.9982 H   0  0  0  0  0  0  0  0  0  0  0  0
   58.7660   29.2108   43.7143 H   0  0  0  0  0  0  0  0  0  0  0  0
   57.3893   26.3168   47.8739 H   0  0  0  0  0  0  0  0  0  0  0  0
   56.6101   24.8356   47.2254 H   0  0  0  0  0  0  0  0  0  0  0  0
   58.5673   27.4540   48.5369 H   0  0  0  0  0  0  0  0  0  0  0  0
   58.6144   29.9217   48.8799 H   0  0  0  0  0  0  0  0  0  0  0  0
   60.9790   32.7410   49.1120 H   0  0  0  0  0  0  0  0  0  0  0  0
   62.1260   30.8416   48.8027 H   0  0  0  0  0  0  0  0  0  0  0  0
   62.2318   31.1160   47.0207 H   0  0  0  0  0  0  0  0  0  0  0  0
   63.7171   32.6983   49.1756 H   0  0  0  0  0  0  0  0  0  0  0  0
   64.4088   31.4111   48.0734 H   0  0  0  0  0  0  0  0  0  0  0  0
   63.1288   34.8149   46.2639 H   0  0  0  0  0  0  0  0  0  0  0  0
   62.5278   33.1613   45.7809 H   0  0  0  0  0  0  0  0  0  0  0  0
   61.9547   34.5757   48.4238 H   0  0  0  0  0  0  0  0  0  0  0  0
   60.8157   34.3791   47.0249 H   0  0  0  0  0  0  0  0  0  0  0  0
   60.9790   30.3775   45.2824 H   0  0  0  0  0  0  0  0  0  0  0  0
   60.9350   27.9086   44.9403 H   0  0  0  0  0  0  0  0  0  0  0  0
  1  2  1  0
  2  3  2  0
  3  4  1  0
  4  5  2  3
  5  6  1  0
  6  7  2  0
  6  8  1  0
  8  9  1  0
  9 10  1  0
 10 11  2  0
 10 12  1  0
 12 13  2  0
 13 14  1  0
 14 15  2  0
 15 16  1  0
 16 17  2  0
 16 18  2  0
 16 19  1  0
 19 20  1  0
 20 21  1  0
 21 22  1  0
 22 23  1  0
 23 24  1  0
 15 25  1  0
 25 26  2  0
  4 27  1  0
 27 28  1  0
 28  2  1  0
 26 12  1  0
 24 19  1  0
  1 29  1  0
  1 30  1  0
  1 31  1  0
  3 32  1  0
  8 33  1  0
  8 34  1  0
 13 35  1  0
 14 36  1  0
 19 37  1  0
 20 38  1  0
 20 39  1  0
 21 40  1  0
 21 41  1  0
 23 42  1  0
 23 43  1  0
 24 44  1  0
 24 45  1  0
 25 46  1  0
 26 47  1  0
M  CHG  3   9  -1  19   1  27  -1
M  END
>  <UniqueID>  (68) 
60

>  <SMILES>  (68) 
Cc1cc(=NC(=O)C[N-]C(=O)c2ccc(S(=O)(=O)[NH+]3CCOCC3)cc2)[n-]o1

>  <Energy>  (68) 
93.58316654759516

>  <Genealogy>  (68) 
Cc1cc(=NC(=O)C[N-]C(=O)c2ccc(S(=O)(=O)[NH+]3CCOCC3)cc2)[n-]o1 (protonated)
Cc1cc(=NC(=O)C[N-]C(=O)c2ccc(S(=O)(=O)[NH+]3CCOCC3)cc2)[n-]o1 (3D coordinates assigned)
Cc1cc(=NC(=O)C[N-]C(=O)c2ccc(S(=O)(=O)[NH+]3CCOCC3)cc2)[n-]o1 (nonaromatic ring conformer: 93.58316654759516 kcal/mol)

>  <smiles>  (68) 
Cc1cc(=NC(=O)CNC(=O)c2ccc(S(=O)(=O)N3CCOCC3)cc2)[nH]o1

>  <score_type>  (68) 
oracle

>  <origin>  (68) 
adg

>  <m_score__min__energy>  (68) 
-11.800000000000001

>  <m_primary>  (68) 
energy

$$$$
68:0
     RDKit          3D

 44 46  0  0  0  0  0  0  0  0999 V2000
   62.4920   30.8560   51.7620 C   0  0  0  0  0  0  0  0  0  0  0  0
   63.5980   30.5040   50.9380 O   0  0  0  0  0  0  0  0  0  0  0  0
   64.7950   31.2350   50.8560 C   0  0  0  0  0  0  0  0  0  0  0  0
   65.9270   30.9030   51.6270 C   0  0  0  0  0  0  0  0  0  0  0  0
   67.0960   31.6630   51.5280 C   0  0  0  0  0  0  0  0  0  0  0  0
   67.1500   32.7570   50.6630 C   0  0  0  0  0  0  0  0  0  0  0  0
   66.0360   33.0930   49.8920 C   0  0  0  0  0  0  0  0  0  0  0  0
   64.8560   32.3380   49.9800 C   0  0  0  0  0  0  0  0  0  0  0  0
   63.7190   32.6910   49.1680 N   0  0  0  0  0  0  0  0  0  0  0  0
   63.5210   32.0330   47.9870 C   0  0  0  0  0  0  0  0  0  0  0  0
   62.4380   32.3500   47.1660 C   0  0  0  0  0  0  0  0  0  0  0  0
   61.5390   33.3530   47.5530 C   0  0  0  0  0  0  0  0  0  0  0  0
   60.3790   33.7040   46.6930 C   0  0  0  0  0  0  0  0  0  0  0  0
   60.3280   34.9450   46.0360 C   0  0  0  0  0  0  0  0  0  0  0  0
   59.2390   35.2710   45.2280 C   0  0  0  0  0  0  0  0  0  0  0  0
   58.1870   34.3690   45.0650 C   0  0  0  0  0  0  0  0  0  0  0  0
   58.2120   33.1230   45.7170 C   0  0  0  0  0  0  0  0  0  0  0  0
   57.1500   32.1610   45.5690 N   0  0  0  0  0  0  0  0  0  0  0  0
   57.2310   30.7490   44.5620 S   0  0  0  0  0  0  0  0  0  0  0  0
   58.7760   29.9010   44.8170 C   0  0  0  0  0  0  0  0  0  0  0  0
   56.0750   29.8370   44.8590 O   0  0  0  0  0  0  0  0  0  0  0  0
   57.1530   31.1750   43.1230 O   0  0  0  0  0  0  0  0  0  0  0  0
   59.3160   32.7990   46.5240 C   0  0  0  0  0  0  0  0  0  0  0  0
   61.7570   34.0190   48.7680 C   0  0  0  0  0  0  0  0  0  0  0  0
   62.8530   33.6770   49.5670 C   0  0  0  0  0  0  0  0  0  0  0  0
   63.0270   34.2800   50.6620 O   0  0  0  0  0  0  0  0  0  0  0  0
   62.7792   30.7646   52.8199 H   0  0  0  0  0  0  0  0  0  0  0  0
   62.1934   31.8936   51.5514 H   0  0  0  0  0  0  0  0  0  0  0  0
   61.6487   30.1819   51.5514 H   0  0  0  0  0  0  0  0  0  0  0  0
   65.8905   30.0416   52.3101 H   0  0  0  0  0  0  0  0  0  0  0  0
   67.9755   31.3982   52.1333 H   0  0  0  0  0  0  0  0  0  0  0  0
   68.0706   33.3545   50.5888 H   0  0  0  0  0  0  0  0  0  0  0  0
   66.0832   33.9554   49.2108 H   0  0  0  0  0  0  0  0  0  0  0  0
   64.2235   31.2442   47.6798 H   0  0  0  0  0  0  0  0  0  0  0  0
   62.2903   31.8137   46.2170 H   0  0  0  0  0  0  0  0  0  0  0  0
   61.1517   35.6635   46.1597 H   0  0  0  0  0  0  0  0  0  0  0  0
   59.2093   36.2444   44.7165 H   0  0  0  0  0  0  0  0  0  0  0  0
   57.3337   34.6337   44.4233 H   0  0  0  0  0  0  0  0  0  0  0  0
   56.2360   32.3440   46.0430 H   0  0  0  0  0  0  0  0  0  0  0  0
   58.9639   29.7979   45.8959 H   0  0  0  0  0  0  0  0  0  0  0  0
   58.7271   28.9033   44.3563 H   0  0  0  0  0  0  0  0  0  0  0  0
   59.5914   30.4780   44.3563 H   0  0  0  0  0  0  0  0  0  0  0  0
   59.3491   31.8233   47.0308 H   0  0  0  0  0  0  0  0  0  0  0  0
   61.0657   34.8107   49.0927 H   0  0  0  0  0  0  0  0  0  0  0  0
  1  2  1  0
  2  3  1  0
  3  4  2  0
  4  5  1  0
  5  6  2  0
  6  7  1  0
  7  8  2  0
  8  9  1  0
  9 10  1  0
 10 11  2  0
 11 12  1  0
 12 13  1  0
 13 14  2  0
 14 15  1  0
 15 16  2  0
 16 17  1  0
 17 18  1  0
 18 19  1  0
 19 20  1  0
 19 21  2  0
 19 22  2  0
 17 23  2  0
 12 24  2  0
 24 25  1  0
 25 26  2  0
  8  3  1  0
 25  9  1  0
 23 13  1  0
  1 27  1  0
  1 28  1  0
  1 29  1  0
  4 30  1  0
  5 31  1  0
  6 32  1  0
  7 33  1  0
 10 34  1  0
 11 35  1  0
 14 36  1  0
 15 37  1  0
 16 38  1  0
 18 39  1  0
 20 40  1  0
 20 41  1  0
 20 42  1  0
 23 43  1  0
 24 44  1  0
M  END
>  <UniqueID>  (69) 
61

>  <SMILES>  (69) 
COc1ccccc1-n1ccc(-c2cccc(NS(C)(=O)=O)c2)cc1=O

>  <Energy>  (69) 
59.22318701082028

>  <Genealogy>  (69) 
COc1ccccc1-n1ccc(-c2cccc(NS(C)(=O)=O)c2)cc1=O (3D coordinates assigned)
COc1ccccc1-n1ccc(-c2cccc(NS(C)(=O)=O)c2)cc1=O (optimized conformer: 59.22318701082028 kcal/mol)

>  <smiles>  (69) 
COc1ccccc1-n1ccc(-c2cccc(NS(C)(=O)=O)c2)cc1=O

>  <score_type>  (69) 
oracle

>  <origin>  (69) 
adg

>  <m_score__min__energy>  (69) 
-8.3100000000000005

>  <m_primary>  (69) 
energy

$$$$
69:0
     RDKit          3D

 43 46  0  0  0  0  0  0  0  0999 V2000
   57.6117   31.9713   49.2590 H   0  0  0  0  0  0  0  0  0  0  0  0
   58.5520   32.3580   48.8390 C   0  0  0  0  0  0  0  0  0  0  0  0
   59.7400   31.9510   49.3530 N   0  0  0  0  0  0  0  0  0  0  0  0
   60.9250   32.4110   48.8730 C   0  0  0  0  0  0  0  0  0  0  0  0
   62.1230   31.9850   49.4590 C   0  0  0  0  0  0  0  0  0  0  0  0
   62.1032   31.2501   50.2772 H   0  0  0  0  0  0  0  0  0  0  0  0
   63.3440   32.4920   49.0060 C   0  0  0  0  0  0  0  0  0  0  0  0
   64.8440   31.9620   49.7460 Cl  0  0  0  0  0  0  0  0  0  0  0  0
   63.3710   33.4310   47.9720 C   0  0  0  0  0  0  0  0  0  0  0  0
   64.3325   33.8442   47.6331 H   0  0  0  0  0  0  0  0  0  0  0  0
   62.1830   33.8480   47.3660 C   0  0  0  0  0  0  0  0  0  0  0  0
   62.2154   34.5809   46.5463 H   0  0  0  0  0  0  0  0  0  0  0  0
   60.9450   33.3360   47.7980 C   0  0  0  0  0  0  0  0  0  0  0  0
   59.7170   33.7350   47.2260 C   0  0  0  0  0  0  0  0  0  0  0  0
   59.6330   34.8650   45.8210 S   0  0  0  0  0  0  0  0  0  0  0  0
   57.9590   34.3600   45.2730 C   0  0  0  0  0  0  0  0  0  0  0  0
   57.5538   35.1485   44.6218 H   0  0  0  0  0  0  0  0  0  0  0  0
   57.3536   34.2135   46.1797 H   0  0  0  0  0  0  0  0  0  0  0  0
   57.9390   33.0570   44.5130 C   0  0  0  0  0  0  0  0  0  0  0  0
   58.3290   33.0600   43.3160 O   0  0  0  0  0  0  0  0  0  0  0  0
   57.4170   31.8350   45.0570 N   0  0  0  0  0  0  0  0  0  0  0  0
   57.3930   30.6340   44.5400 C   0  0  0  0  0  0  0  0  0  0  0  0
   56.6410   30.3260   43.3910 C   0  0  0  0  0  0  0  0  0  0  0  0
   56.0297   31.1040   42.9103 H   0  0  0  0  0  0  0  0  0  0  0  0
   56.6690   29.0380   42.8610 C   0  0  0  0  0  0  0  0  0  0  0  0
   56.0903   28.8088   41.9541 H   0  0  0  0  0  0  0  0  0  0  0  0
   57.4040   28.0640   43.4540 N   0  0  0  0  0  0  0  0  0  0  0  0
   57.4010   27.1090   43.0260 H   0  0  0  0  0  0  0  0  0  0  0  0
   58.1150   28.3010   44.5920 C   0  0  0  0  0  0  0  0  0  0  0  0
   58.8430   27.2650   45.1980 C   0  0  0  0  0  0  0  0  0  0  0  0
   58.8439   26.2621   44.7462 H   0  0  0  0  0  0  0  0  0  0  0  0
   59.5650   27.4970   46.3680 C   0  0  0  0  0  0  0  0  0  0  0  0
   60.1274   26.6755   46.8358 H   0  0  0  0  0  0  0  0  0  0  0  0
   59.5780   28.7710   46.9510 C   0  0  0  0  0  0  0  0  0  0  0  0
   60.3280   29.0040   48.2300 C   0  0  0  0  0  0  0  0  0  0  0  0
   59.6672   28.7987   49.0851 H   0  0  0  0  0  0  0  0  0  0  0  0
   61.1997   28.3343   48.2711 H   0  0  0  0  0  0  0  0  0  0  0  0
   60.6668   30.0497   48.2711 H   0  0  0  0  0  0  0  0  0  0  0  0
   58.8390   29.8090   46.3650 C   0  0  0  0  0  0  0  0  0  0  0  0
   58.8230   30.8011   46.8399 H   0  0  0  0  0  0  0  0  0  0  0  0
   58.1160   29.5940   45.1730 C   0  0  0  0  0  0  0  0  0  0  0  0
   58.5190   33.2650   47.7800 C   0  0  0  0  0  0  0  0  0  0  0  0
   57.5542   33.6107   47.3805 H   0  0  0  0  0  0  0  0  0  0  0  0
  1  2  1  0
  2  3  2  0
  3  4  1  0
  4  5  2  0
  5  6  1  0
  5  7  1  0
  7  8  1  0
  7  9  2  0
  9 10  1  0
  9 11  1  0
 11 12  1  0
 11 13  2  0
 13 14  1  0
 14 15  1  0
 15 16  1  0
 16 17  1  0
 16 18  1  0
 16 19  1  0
 19 20  2  0
 19 21  1  0
 21 22  2  0
 22 23  1  0
 23 24  1  0
 23 25  2  0
 25 26  1  0
 25 27  1  0
 27 28  1  0
 27 29  1  0
 29 30  2  0
 30 31  1  0
 30 32  1  0
 32 33  1  0
 32 34  2  0
 34 35  1  0
 35 36  1  0
 35 37  1  0
 35 38  1  0
 34 39  1  0
 39 40  1  0
 39 41  2  0
 14 42  2  0
 42 43  1  0
 42  2  1  0
 13  4  1  0
 41 22  1  0
 41 29  1  0
M  END
>  <UniqueID>  (70) 
62

>  <SMILES>  (70) 
Cc1ccc2[nH]cc/c(=N\C(=O)CSc3ccnc4cc(Cl)ccc34)c2c1

>  <Energy>  (70) 
60.84241342704079

>  <Genealogy>  (70) 
Cc1ccc2[nH]cc/c(=N\C(=O)CSc3ccnc4cc(Cl)ccc34)c2c1 (cis-trans isomerization)
Cc1ccc2[nH]cc/c(=N\C(=O)CSc3ccnc4cc(Cl)ccc34)c2c1 (3D coordinates assigned)
Cc1ccc2[nH]cc/c(=N\C(=O)CSc3ccnc4cc(Cl)ccc34)c2c1 (optimized conformer: 60.84241342704079 kcal/mol)

>  <smiles>  (70) 
Cc1ccc2[nH]ccc(=NC(=O)CSc3ccnc4cc(Cl)ccc34)c2c1

>  <score_type>  (70) 
oracle

>  <origin>  (70) 
adg

>  <m_score__min__energy>  (70) 
-8.9299999999999997

>  <m_primary>  (70) 
energy

$$$$
70:0
     RDKit          3D

 53 56  0  0  0  0  0  0  0  0999 V2000
   54.3240   25.2570   46.3510 H   0  0  0  0  0  0  0  0  0  0  0  0
   53.5400   24.7610   45.9970 O   0  0  0  0  0  0  0  0  0  0  0  0
   54.0250   23.8490   45.0480 C   0  0  0  0  0  0  0  0  0  0  0  0
   54.0285   24.3261   44.0568 H   0  0  0  0  0  0  0  0  0  0  0  0
   53.3728   22.9633   45.0414 H   0  0  0  0  0  0  0  0  0  0  0  0
   55.4460   23.4120   45.4000 C   0  0  0  0  0  0  0  0  0  0  0  0
   56.1253   23.6792   44.5771 H   0  0  0  0  0  0  0  0  0  0  0  0
   55.4649   22.3232   45.5551 H   0  0  0  0  0  0  0  0  0  0  0  0
   55.8670   24.0670   46.5940 O   0  0  0  0  0  0  0  0  0  0  0  0
   56.7910   25.1150   46.5870 C   0  0  0  0  0  0  0  0  0  0  0  0
   58.1400   24.8430   46.8320 C   0  0  0  0  0  0  0  0  0  0  0  0
   58.4638   23.8099   47.0264 H   0  0  0  0  0  0  0  0  0  0  0  0
   59.0800   25.8790   46.8310 C   0  0  0  0  0  0  0  0  0  0  0  0
   60.1347   25.6611   47.0551 H   0  0  0  0  0  0  0  0  0  0  0  0
   58.6850   27.1930   46.5460 C   0  0  0  0  0  0  0  0  0  0  0  0
   59.6900   28.2770   46.5880 C   0  0  0  0  0  0  0  0  0  0  0  0
   60.3899   28.2938   47.4365 H   0  0  0  0  0  0  0  0  0  0  0  0
   59.8070   29.2410   45.6630 C   0  0  0  0  0  0  0  0  0  0  0  0
   60.8184   29.5101   45.3243 H   0  0  0  0  0  0  0  0  0  0  0  0
   58.6590   29.9670   45.0680 C   0  0  0  0  0  0  0  0  0  0  0  0
   58.1310   31.1400   45.6620 C   0  0  0  0  0  0  0  0  0  0  0  0
   58.6410   31.6790   46.9900 C   0  0  0  0  0  0  0  0  0  0  0  0
   59.0140   30.8391   47.5945 H   0  0  0  0  0  0  0  0  0  0  0  0
   57.8066   32.1908   47.4918 H   0  0  0  0  0  0  0  0  0  0  0  0
   59.7550   32.6770   46.8040 C   0  0  0  0  0  0  0  0  0  0  0  0
   59.6640   33.9630   46.2620 C   0  0  0  0  0  0  0  0  0  0  0  0
   58.4270   34.6030   45.7210 C   0  0  0  0  0  0  0  0  0  0  0  0
   57.7899   34.9326   46.5550 H   0  0  0  0  0  0  0  0  0  0  0  0
   58.7029   35.4715   45.1049 H   0  0  0  0  0  0  0  0  0  0  0  0
   57.8775   33.8761   45.1049 H   0  0  0  0  0  0  0  0  0  0  0  0
   60.8750   34.5690   46.2610 N   0  0  0  0  0  0  0  0  0  0  0  0
   61.1020   35.5290   45.9160 H   0  0  0  0  0  0  0  0  0  0  0  0
   61.7310   33.6840   46.7990 C   0  0  0  0  0  0  0  0  0  0  0  0
   63.0980   33.8600   47.0100 C   0  0  0  0  0  0  0  0  0  0  0  0
   63.5989   34.7995   46.7335 H   0  0  0  0  0  0  0  0  0  0  0  0
   63.8160   32.7970   47.5880 C   0  0  0  0  0  0  0  0  0  0  0  0
   64.8963   32.9011   47.7670 H   0  0  0  0  0  0  0  0  0  0  0  0
   63.1590   31.5970   47.9400 C   0  0  0  0  0  0  0  0  0  0  0  0
   63.7310   30.7730   48.3914 H   0  0  0  0  0  0  0  0  0  0  0  0
   61.7780   31.4490   47.7170 C   0  0  0  0  0  0  0  0  0  0  0  0
   61.2564   30.5194   47.9885 H   0  0  0  0  0  0  0  0  0  0  0  0
   61.0890   32.5190   47.1400 C   0  0  0  0  0  0  0  0  0  0  0  0
   57.0330   31.7530   45.0240 C   0  0  0  0  0  0  0  0  0  0  0  0
   56.4940   32.7820   45.5120 O   0  0  0  0  0  0  0  0  0  0  0  0
   56.5380   31.2360   43.8720 N   0  0  0  0  0  0  0  0  0  0  0  0
   57.0690   30.1240   43.3120 C   0  0  0  0  0  0  0  0  0  0  0  0
   56.5840   29.6720   42.2420 O   0  0  0  0  0  0  0  0  0  0  0  0
   58.1210   29.5010   43.9020 N   0  0  0  0  0  0  0  0  0  0  0  0
   58.5250   28.6530   43.4430 H   0  0  0  0  0  0  0  0  0  0  0  0
   57.3290   27.4650   46.2930 C   0  0  0  0  0  0  0  0  0  0  0  0
   57.0073   28.4959   46.0838 H   0  0  0  0  0  0  0  0  0  0  0  0
   56.3870   26.4310   46.3060 C   0  0  0  0  0  0  0  0  0  0  0  0
   55.0570   26.7110   46.0130 O   0  0  0  0  0  0  0  0  0  0  0  0
  1  2  1  0
  2  3  1  0
  3  4  1  0
  3  5  1  0
  3  6  1  0
  6  7  1  0
  6  8  1  0
  6  9  1  0
  9 10  1  0
 10 11  2  0
 11 12  1  0
 11 13  1  0
 13 14  1  0
 13 15  2  0
 15 16  1  0
 16 17  1  0
 16 18  2  0
 18 19  1  0
 18 20  1  0
 20 21  2  0
 21 22  1  0
 22 23  1  0
 22 24  1  0
 22 25  1  0
 25 26  2  0
 26 27  1  0
 27 28  1  0
 27 29  1  0
 27 30  1  0
 26 31  1  0
 31 32  1  0
 31 33  1  0
 33 34  2  0
 34 35  1  0
 34 36  1  0
 36 37  1  0
 36 38  2  0
 38 39  1  0
 38 40  1  0
 40 41  1  0
 40 42  2  0
 21 43  1  0
 43 44  2  0
 43 45  1  0
 45 46  1  0
 46 47  2  0
 46 48  1  0
 48 49  1  0
 15 50  1  0
 50 51  1  0
 50 52  2  0
 52 53  1  0
 52 10  1  0
 48 20  1  0
 42 25  1  0
 42 33  1  0
M  CHG  2  45  -1  53  -1
M  END
>  <UniqueID>  (71) 
63

>  <SMILES>  (71) 
Cc1[nH]c2ccccc2c1Cc1c(/C=C\c2ccc(OCCO)c([O-])c2)[nH]c(=O)[n-]c1=O

>  <Energy>  (71) 
105.45508562578095

>  <Genealogy>  (71) 
Cc1[nH]c2ccccc2c1Cc1c(C=Cc2ccc(OCCO)c([O-])c2)[nH]c(=O)[n-]c1=O (protonated)
Cc1[nH]c2ccccc2c1Cc1c(/C=C\c2ccc(OCCO)c([O-])c2)[nH]c(=O)[n-]c1=O (cis-trans isomerization)
Cc1[nH]c2ccccc2c1Cc1c(/C=C\c2ccc(OCCO)c([O-])c2)[nH]c(=O)[n-]c1=O (3D coordinates assigned)
Cc1[nH]c2ccccc2c1Cc1c(/C=C\c2ccc(OCCO)c([O-])c2)[nH]c(=O)[n-]c1=O (optimized conformer: 105.45508562578095 kcal/mol)

>  <smiles>  (71) 
Cc1[nH]c2ccccc2c1Cc1c(C=Cc2ccc(OCCO)c(O)c2)[nH]c(=O)[nH]c1=O

>  <score_type>  (71) 
oracle

>  <origin>  (71) 
adg

>  <m_score__min__energy>  (71) 
-14.43

>  <m_primary>  (71) 
energy

$$$$
71:0
     RDKit          3D

 27 28  0  0  0  0  0  0  0  0999 V2000
   57.8506   33.9988   47.4416 H   0  0  0  0  0  0  0  0  0  0  0  0
   57.9150   33.5910   46.4220 C   0  0  0  0  0  0  0  0  0  0  0  0
   57.1660   32.5100   46.0750 N   0  0  0  0  0  0  0  0  0  0  0  0
   57.2150   31.9660   44.8250 C   0  0  0  0  0  0  0  0  0  0  0  0
   56.5010   30.9230   44.5130 N   0  0  0  0  0  0  0  0  0  0  0  0
   56.6540   29.5910   45.0310 C   0  0  0  0  0  0  0  0  0  0  0  0
   55.6450   28.8380   45.0600 O   0  0  0  0  0  0  0  0  0  0  0  0
   57.9290   29.1140   45.6140 C   0  0  0  0  0  0  0  0  0  0  0  0
   58.4040   29.7040   46.7980 C   0  0  0  0  0  0  0  0  0  0  0  0
   57.8342   30.5193   47.2677 H   0  0  0  0  0  0  0  0  0  0  0  0
   59.5930   29.2640   47.3830 C   0  0  0  0  0  0  0  0  0  0  0  0
   59.9571   29.7344   48.3083 H   0  0  0  0  0  0  0  0  0  0  0  0
   60.3200   28.2280   46.7950 C   0  0  0  0  0  0  0  0  0  0  0  0
   61.2562   27.8822   47.2575 H   0  0  0  0  0  0  0  0  0  0  0  0
   59.8600   27.6300   45.6200 C   0  0  0  0  0  0  0  0  0  0  0  0
   60.4365   26.8140   45.1598 H   0  0  0  0  0  0  0  0  0  0  0  0
   58.6690   28.0630   45.0240 C   0  0  0  0  0  0  0  0  0  0  0  0
   58.1370   27.2340   43.3770 Br  0  0  0  0  0  0  0  0  0  0  0  0
   58.0770   32.5160   43.8700 C   0  0  0  0  0  0  0  0  0  0  0  0
   58.1398   32.0778   42.8630 H   0  0  0  0  0  0  0  0  0  0  0  0
   58.8570   33.6250   44.2040 C   0  0  0  0  0  0  0  0  0  0  0  0
   59.5422   34.0585   43.4607 H   0  0  0  0  0  0  0  0  0  0  0  0
   58.7680   34.1860   45.4840 C   0  0  0  0  0  0  0  0  0  0  0  0
   59.6280   35.3520   45.8690 C   0  0  0  0  0  0  0  0  0  0  0  0
   59.6802   35.4228   46.9655 H   0  0  0  0  0  0  0  0  0  0  0  0
   60.6402   35.2112   45.4620 H   0  0  0  0  0  0  0  0  0  0  0  0
   59.1946   36.2775   45.4620 H   0  0  0  0  0  0  0  0  0  0  0  0
  1  2  1  0
  2  3  1  0
  3  4  1  0
  4  5  2  0
  5  6  1  0
  6  7  2  0
  6  8  1  0
  8  9  2  0
  9 10  1  0
  9 11  1  0
 11 12  1  0
 11 13  2  0
 13 14  1  0
 13 15  1  0
 15 16  1  0
 15 17  2  0
 17 18  1  0
  4 19  1  0
 19 20  1  0
 19 21  2  0
 21 22  1  0
 21 23  1  0
 23 24  1  0
 24 25  1  0
 24 26  1  0
 24 27  1  0
 23  2  2  0
 17  8  1  0
M  CHG  1   3  -1
M  END
>  <UniqueID>  (72) 
64

>  <SMILES>  (72) 
Cc1cc/c(=N/C(=O)c2ccccc2Br)[n-]c1

>  <Energy>  (72) 
37.68209780807141

>  <Genealogy>  (72) 
Cc1ccc(=NC(=O)c2ccccc2Br)[n-]c1 (protonated)
Cc1cc/c(=N/C(=O)c2ccccc2Br)[n-]c1 (cis-trans isomerization)
Cc1cc/c(=N/C(=O)c2ccccc2Br)[n-]c1 (3D coordinates assigned)
Cc1cc/c(=N/C(=O)c2ccccc2Br)[n-]c1 (optimized conformer: 37.68209780807141 kcal/mol)

>  <smiles>  (72) 
Cc1ccc(=NC(=O)c2ccccc2Br)[nH]c1

>  <score_type>  (72) 
oracle

>  <origin>  (72) 
adg

>  <m_score__min__energy>  (72) 
-8.8800000000000008

>  <m_primary>  (72) 
energy

$$$$
72:0
     RDKit          3D

 40 42  0  0  0  0  0  0  0  0999 V2000
   56.2670   28.9800   43.2140 O   0  0  0  0  0  0  0  0  0  0  0  0
   56.1680   29.7890   44.1740 C   0  0  0  0  0  0  0  0  0  0  0  0
   55.3280   29.4830   45.2380 O   0  0  0  0  0  0  0  0  0  0  0  0
   56.9300   31.0500   44.1800 C   0  0  0  0  0  0  0  0  0  0  0  0
   57.5730   31.5210   43.0240 C   0  0  0  0  0  0  0  0  0  0  0  0
   58.2840   32.7220   43.0750 C   0  0  0  0  0  0  0  0  0  0  0  0
   58.3520   33.4400   44.2700 C   0  0  0  0  0  0  0  0  0  0  0  0
   57.7040   32.9410   45.4040 C   0  0  0  0  0  0  0  0  0  0  0  0
   57.7790   33.8360   46.9540 S   0  0  0  0  0  0  0  0  0  0  0  0
   59.4870   33.3120   47.3090 C   0  0  0  0  0  0  0  0  0  0  0  0
   59.5660   31.8130   47.2920 C   0  0  0  0  0  0  0  0  0  0  0  0
   58.8150   31.0550   48.2020 C   0  0  0  0  0  0  0  0  0  0  0  0
   58.9100   29.6600   48.2050 C   0  0  0  0  0  0  0  0  0  0  0  0
   59.7700   29.0050   47.3090 C   0  0  0  0  0  0  0  0  0  0  0  0
   59.8460   27.5020   47.2830 C   0  0  0  0  0  0  0  0  0  0  0  0
   58.5490   26.9340   46.8830 N   0  0  0  0  0  0  0  0  0  0  0  0
   58.0940   25.8080   47.5090 C   0  0  0  0  0  0  0  0  0  0  0  0
   56.8850   25.2270   47.1330 C   0  0  0  0  0  0  0  0  0  0  0  0
   56.1570   25.8120   46.1030 C   0  0  0  0  0  0  0  0  0  0  0  0
   55.0600   25.3090   45.7420 O   0  0  0  0  0  0  0  0  0  0  0  0
   56.6310   26.9270   45.4880 N   0  0  0  0  0  0  0  0  0  0  0  0
   57.8140   27.4880   45.8640 C   0  0  0  0  0  0  0  0  0  0  0  0
   58.2240   28.5200   45.2640 O   0  0  0  0  0  0  0  0  0  0  0  0
   60.5270   29.7660   46.4040 C   0  0  0  0  0  0  0  0  0  0  0  0
   60.4320   31.1610   46.4020 C   0  0  0  0  0  0  0  0  0  0  0  0
   57.0140   31.7710   45.3330 N   0  0  0  0  0  0  0  0  0  0  0  0
   57.5172   30.9489   42.0861 H   0  0  0  0  0  0  0  0  0  0  0  0
   58.7896   33.1015   42.1748 H   0  0  0  0  0  0  0  0  0  0  0  0
   58.9089   34.3873   44.3190 H   0  0  0  0  0  0  0  0  0  0  0  0
   60.1627   33.7232   46.5446 H   0  0  0  0  0  0  0  0  0  0  0  0
   59.7850   33.6830   48.3008 H   0  0  0  0  0  0  0  0  0  0  0  0
   58.1483   31.5601   48.9165 H   0  0  0  0  0  0  0  0  0  0  0  0
   58.3076   29.0724   48.9133 H   0  0  0  0  0  0  0  0  0  0  0  0
   60.6169   27.1897   46.5631 H   0  0  0  0  0  0  0  0  0  0  0  0
   60.1019   27.1383   48.2891 H   0  0  0  0  0  0  0  0  0  0  0  0
   58.6878   25.3561   48.3172 H   0  0  0  0  0  0  0  0  0  0  0  0
   56.5141   24.3243   47.6404 H   0  0  0  0  0  0  0  0  0  0  0  0
   56.0800   27.3600   44.7120 H   0  0  0  0  0  0  0  0  0  0  0  0
   61.1982   29.2622   45.6929 H   0  0  0  0  0  0  0  0  0  0  0  0
   61.0394   31.7500   45.6990 H   0  0  0  0  0  0  0  0  0  0  0  0
  1  2  2  0
  2  3  1  0
  2  4  1  0
  4  5  2  0
  5  6  1  0
  6  7  2  0
  7  8  1  0
  8  9  1  0
  9 10  1  0
 10 11  1  0
 11 12  2  0
 12 13  1  0
 13 14  2  0
 14 15  1  0
 15 16  1  0
 16 17  1  0
 17 18  2  0
 18 19  1  0
 19 20  2  0
 19 21  1  0
 21 22  1  0
 22 23  2  0
 14 24  1  0
 24 25  2  0
  8 26  2  0
 26  4  1  0
 25 11  1  0
 22 16  1  0
  5 27  1  0
  6 28  1  0
  7 29  1  0
 10 30  1  0
 10 31  1  0
 12 32  1  0
 13 33  1  0
 15 34  1  0
 15 35  1  0
 17 36  1  0
 18 37  1  0
 21 38  1  0
 24 39  1  0
 25 40  1  0
M  CHG  1   3  -1
M  END
>  <UniqueID>  (73) 
65

>  <SMILES>  (73) 
O=C([O-])c1cccc(SCc2ccc(Cn3ccc(=O)[nH]c3=O)cc2)n1

>  <Energy>  (73) 
40.07429054169862

>  <Genealogy>  (73) 
O=C([O-])c1cccc(SCc2ccc(Cn3ccc(=O)[nH]c3=O)cc2)n1 (protonated)
O=C([O-])c1cccc(SCc2ccc(Cn3ccc(=O)[nH]c3=O)cc2)n1 (3D coordinates assigned)
O=C([O-])c1cccc(SCc2ccc(Cn3ccc(=O)[nH]c3=O)cc2)n1 (optimized conformer: 40.07429054169862 kcal/mol)

>  <smiles>  (73) 
O=C(O)c1cccc(SCc2ccc(Cn3ccc(=O)[nH]c3=O)cc2)n1

>  <score_type>  (73) 
oracle

>  <origin>  (73) 
adg

>  <m_score__min__energy>  (73) 
-12.130000000000001

>  <m_primary>  (73) 
energy

$$$$
73:0
     RDKit          3D

 45 47  0  0  0  0  0  0  0  0999 V2000
   51.0190   32.3250   50.2780 N   0  0  0  0  0  0  0  0  0  0  0  0
   50.9970   32.2330   51.7010 C   0  0  0  0  0  0  0  0  0  0  0  0
   50.0590   32.7850   52.3370 O   0  0  0  0  0  0  0  0  0  0  0  0
   52.0610   31.4980   52.4260 C   0  0  0  0  0  0  0  0  0  0  0  0
   51.7500   30.7180   53.5530 C   0  0  0  0  0  0  0  0  0  0  0  0
   52.7540   30.0310   54.2360 C   0  0  0  0  0  0  0  0  0  0  0  0
   54.0790   30.1050   53.8030 C   0  0  0  0  0  0  0  0  0  0  0  0
   54.4160   30.8700   52.6720 C   0  0  0  0  0  0  0  0  0  0  0  0
   55.8220   30.9620   52.2090 C   0  0  0  0  0  0  0  0  0  0  0  0
   56.3330   32.0960   52.0000 O   0  0  0  0  0  0  0  0  0  0  0  0
   56.5920   29.7760   51.9500 N   0  0  0  0  0  0  0  0  0  0  0  0
   58.0280   29.7520   51.8950 C   0  0  0  0  0  0  0  0  0  0  0  0
   58.7800   28.9760   52.7930 C   0  0  0  0  0  0  0  0  0  0  0  0
   60.1720   28.9400   52.7000 C   0  0  0  0  0  0  0  0  0  0  0  0
   60.8280   29.6700   51.7080 C   0  0  0  0  0  0  0  0  0  0  0  0
   60.0990   30.4480   50.7920 C   0  0  0  0  0  0  0  0  0  0  0  0
   60.8140   31.2050   49.7340 C   0  0  0  0  0  0  0  0  0  0  0  0
   62.1670   31.5640   49.8660 C   0  0  0  0  0  0  0  0  0  0  0  0
   62.7960   32.2680   48.8370 C   0  0  0  0  0  0  0  0  0  0  0  0
   62.0860   32.6080   47.6860 C   0  0  0  0  0  0  0  0  0  0  0  0
   62.7100   33.2870   46.6910 F   0  0  0  0  0  0  0  0  0  0  0  0
   60.7380   32.2310   47.5760 C   0  0  0  0  0  0  0  0  0  0  0  0
   59.9300   32.5460   46.3490 C   0  0  0  0  0  0  0  0  0  0  0  0
   58.7330   31.7100   46.3060 N   0  0  0  0  0  0  0  0  0  0  0  0
   57.8580   31.6700   45.1730 C   0  0  0  0  0  0  0  0  0  0  0  0
   58.0870   32.3820   44.1590 O   0  0  0  0  0  0  0  0  0  0  0  0
   56.7440   30.8420   45.1900 O   0  0  0  0  0  0  0  0  0  0  0  0
   60.1500   31.5430   48.5930 N   0  0  0  0  0  0  0  0  0  0  0  0
   58.6930   30.4670   50.8870 C   0  0  0  0  0  0  0  0  0  0  0  0
   53.3990   31.5700   51.9950 C   0  0  0  0  0  0  0  0  0  0  0  0
   50.1320   32.3430   49.7260 H   0  0  0  0  0  0  0  0  0  0  0  0
   50.7081   30.6487   53.8989 H   0  0  0  0  0  0  0  0  0  0  0  0
   52.5002   29.4279   55.1202 H   0  0  0  0  0  0  0  0  0  0  0  0
   54.8640   29.5619   54.3495 H   0  0  0  0  0  0  0  0  0  0  0  0
   56.0780   28.9090   51.6730 H   0  0  0  0  0  0  0  0  0  0  0  0
   58.2687   28.3936   53.5737 H   0  0  0  0  0  0  0  0  0  0  0  0
   60.7537   28.3345   53.4106 H   0  0  0  0  0  0  0  0  0  0  0  0
   61.9255   29.6363   51.6423 H   0  0  0  0  0  0  0  0  0  0  0  0
   62.7261   31.2922   50.7735 H   0  0  0  0  0  0  0  0  0  0  0  0
   63.8534   32.5549   48.9346 H   0  0  0  0  0  0  0  0  0  0  0  0
   59.6332   33.6050   46.3712 H   0  0  0  0  0  0  0  0  0  0  0  0
   60.5402   32.3461   45.4559 H   0  0  0  0  0  0  0  0  0  0  0  0
   58.4980   31.1250   47.1390 H   0  0  0  0  0  0  0  0  0  0  0  0
   58.1084   31.0506   50.1606 H   0  0  0  0  0  0  0  0  0  0  0  0
   53.6537   32.1817   51.1170 H   0  0  0  0  0  0  0  0  0  0  0  0
  1  2  1  0
  2  3  2  0
  2  4  1  0
  4  5  2  0
  5  6  1  0
  6  7  2  0
  7  8  1  0
  8  9  1  0
  9 10  2  0
  9 11  1  0
 11 12  1  0
 12 13  2  0
 13 14  1  0
 14 15  2  0
 15 16  1  0
 16 17  1  0
 17 18  2  0
 18 19  1  0
 19 20  2  0
 20 21  1  0
 20 22  1  0
 22 23  1  0
 23 24  1  0
 24 25  1  0
 25 26  2  0
 25 27  1  0
 22 28  2  0
 16 29  2  0
  8 30  2  0
 30  4  1  0
 29 12  1  0
 28 17  1  0
  1 31  1  0
  5 32  1  0
  6 33  1  0
  7 34  1  0
 11 35  1  0
 13 36  1  0
 14 37  1  0
 15 38  1  0
 18 39  1  0
 19 40  1  0
 23 41  1  0
 23 42  1  0
 24 43  1  0
 29 44  1  0
 30 45  1  0
M  CHG  2   1  -1  27  -1
M  END
>  <UniqueID>  (74) 
66

>  <SMILES>  (74) 
[NH-]C(=O)c1cccc(C(=O)Nc2cccc(-c3ccc(F)c(CNC(=O)[O-])n3)c2)c1

>  <Energy>  (74) 
55.61543848945107

>  <Genealogy>  (74) 
[NH-]C(=O)c1cccc(C(=O)Nc2cccc(-c3ccc(F)c(CNC(=O)[O-])n3)c2)c1 (protonated)
[NH-]C(=O)c1cccc(C(=O)Nc2cccc(-c3ccc(F)c(CNC(=O)[O-])n3)c2)c1 (3D coordinates assigned)
[NH-]C(=O)c1cccc(C(=O)Nc2cccc(-c3ccc(F)c(CNC(=O)[O-])n3)c2)c1 (optimized conformer: 55.61543848945107 kcal/mol)

>  <smiles>  (74) 
NC(=O)c1cccc(C(=O)Nc2cccc(-c3ccc(F)c(CNC(=O)O)n3)c2)c1

>  <score_type>  (74) 
oracle

>  <origin>  (74) 
adg

>  <m_score__min__energy>  (74) 
-15.880000000000001

>  <m_primary>  (74) 
energy

$$$$
74:0
     RDKit          3D

 40 42  0  0  0  0  0  0  0  0999 V2000
   55.4760   26.4950   45.9830 O   0  0  0  0  0  0  0  0  0  0  0  0
   56.2610   27.4240   45.6640 C   0  0  0  0  0  0  0  0  0  0  0  0
   57.6750   27.2000   45.7640 N   0  0  0  0  0  0  0  0  0  0  0  0
   58.6780   28.1630   46.1210 C   0  0  0  0  0  0  0  0  0  0  0  0
   59.6970   28.4420   45.2020 C   0  0  0  0  0  0  0  0  0  0  0  0
   60.7020   29.3580   45.5190 C   0  0  0  0  0  0  0  0  0  0  0  0
   60.6930   30.0120   46.7530 C   0  0  0  0  0  0  0  0  0  0  0  0
   59.6610   29.7680   47.6720 C   0  0  0  0  0  0  0  0  0  0  0  0
   59.6840   30.4270   49.0230 C   0  0  0  0  0  0  0  0  0  0  0  0
   58.7800   31.5870   49.0180 N   0  0  0  0  0  0  0  0  0  0  0  0
   59.5160   32.8390   48.8000 C   0  0  0  0  0  0  0  0  0  0  0  0
   59.0790   33.4660   47.5090 C   0  0  0  0  0  0  0  0  0  0  0  0
   57.7440   33.3820   47.0900 C   0  0  0  0  0  0  0  0  0  0  0  0
   57.3720   33.9500   45.8690 C   0  0  0  0  0  0  0  0  0  0  0  0
   58.3320   34.5790   45.0750 C   0  0  0  0  0  0  0  0  0  0  0  0
   59.6560   34.6310   45.5170 C   0  0  0  0  0  0  0  0  0  0  0  0
   59.9980   34.0780   46.7100 N   0  0  0  0  0  0  0  0  0  0  0  0
   58.6480   28.8500   47.3470 C   0  0  0  0  0  0  0  0  0  0  0  0
   55.7140   28.6680   45.2110 N   0  0  0  0  0  0  0  0  0  0  0  0
   56.4050   29.6470   44.4280 C   0  0  0  0  0  0  0  0  0  0  0  0
   56.2580   29.7910   43.0600 C   0  0  0  0  0  0  0  0  0  0  0  0
   57.0150   30.8480   42.5420 C   0  0  0  0  0  0  0  0  0  0  0  0
   57.7360   31.5430   43.5060 C   0  0  0  0  0  0  0  0  0  0  0  0
   57.4350   30.8460   45.0090 S   0  0  0  0  0  0  0  0  0  0  0  0
   59.7058   27.9367   44.2249 H   0  0  0  0  0  0  0  0  0  0  0  0
   61.5034   29.5652   44.7945 H   0  0  0  0  0  0  0  0  0  0  0  0
   61.4965   30.7198   47.0050 H   0  0  0  0  0  0  0  0  0  0  0  0
   59.3538   29.7081   49.7873 H   0  0  0  0  0  0  0  0  0  0  0  0
   60.7072   30.7604   49.2510 H   0  0  0  0  0  0  0  0  0  0  0  0
   58.3250   31.6390   49.9610 H   0  0  0  0  0  0  0  0  0  0  0  0
   59.3125   33.5317   49.6299 H   0  0  0  0  0  0  0  0  0  0  0  0
   60.5937   32.6238   48.7533 H   0  0  0  0  0  0  0  0  0  0  0  0
   56.9963   32.8737   47.7166 H   0  0  0  0  0  0  0  0  0  0  0  0
   56.3253   33.9016   45.5344 H   0  0  0  0  0  0  0  0  0  0  0  0
   58.0492   35.0288   44.1118 H   0  0  0  0  0  0  0  0  0  0  0  0
   60.4228   35.1203   44.8984 H   0  0  0  0  0  0  0  0  0  0  0  0
   57.8269   28.6679   48.0560 H   0  0  0  0  0  0  0  0  0  0  0  0
   55.6150   29.1440   42.4452 H   0  0  0  0  0  0  0  0  0  0  0  0
   57.0373   31.1047   41.4726 H   0  0  0  0  0  0  0  0  0  0  0  0
   58.3935   32.4046   43.3183 H   0  0  0  0  0  0  0  0  0  0  0  0
  1  2  2  0
  2  3  1  0
  3  4  1  0
  4  5  2  0
  5  6  1  0
  6  7  2  0
  7  8  1  0
  8  9  1  0
  9 10  1  0
 10 11  1  0
 11 12  1  0
 12 13  2  0
 13 14  1  0
 14 15  2  0
 15 16  1  0
 16 17  2  0
  8 18  2  0
  2 19  1  0
 19 20  1  0
 20 21  2  0
 21 22  1  0
 22 23  2  0
 23 24  1  0
 18  4  1  0
 24 20  1  0
 17 12  1  0
  5 25  1  0
  6 26  1  0
  7 27  1  0
  9 28  1  0
  9 29  1  0
 10 30  1  0
 11 31  1  0
 11 32  1  0
 13 33  1  0
 14 34  1  0
 15 35  1  0
 16 36  1  0
 18 37  1  0
 21 38  1  0
 22 39  1  0
 23 40  1  0
M  CHG  2   3  -1  19  -1
M  END
>  <UniqueID>  (75) 
67

>  <SMILES>  (75) 
O=C([N-]c1cccc(CNCc2ccccn2)c1)[N-]c1cccs1

>  <Energy>  (75) 
71.64770925932581

>  <Genealogy>  (75) 
O=C([N-]c1cccc(CNCc2ccccn2)c1)[N-]c1cccs1 (protonated)
O=C([N-]c1cccc(CNCc2ccccn2)c1)[N-]c1cccs1 (3D coordinates assigned)
O=C([N-]c1cccc(CNCc2ccccn2)c1)[N-]c1cccs1 (optimized conformer: 71.64770925932581 kcal/mol)

>  <smiles>  (75) 
O=C(Nc1cccc(CNCc2ccccn2)c1)Nc1cccs1

>  <score_type>  (75) 
oracle

>  <origin>  (75) 
adg

>  <m_score__min__energy>  (75) 
-11.92

>  <m_primary>  (75) 
energy

$$$$
75:0
     RDKit          3D

 49 51  0  0  0  0  0  0  0  0999 V2000
   55.2960   21.7440   49.6540 C   0  0  0  0  0  0  0  0  0  0  0  0
   56.9690   21.9020   49.0750 S   0  0  0  0  0  0  0  0  0  0  0  0
   57.8890   21.1130   49.9630 O   0  0  0  0  0  0  0  0  0  0  0  0
   57.3630   23.3530   49.1320 O   0  0  0  0  0  0  0  0  0  0  0  0
   57.1290   21.3500   47.4400 N   0  0  0  0  0  0  0  0  0  0  0  0
   56.7470   22.1510   46.3190 C   0  0  0  0  0  0  0  0  0  0  0  0
   57.5910   22.2190   45.2060 C   0  0  0  0  0  0  0  0  0  0  0  0
   57.2340   22.9920   44.1000 C   0  0  0  0  0  0  0  0  0  0  0  0
   56.0400   23.7180   44.1090 C   0  0  0  0  0  0  0  0  0  0  0  0
   55.1960   23.6790   45.2320 C   0  0  0  0  0  0  0  0  0  0  0  0
   53.9350   24.5030   45.2620 C   0  0  0  0  0  0  0  0  0  0  0  0
   54.1960   25.8520   45.7500 N   0  0  0  0  0  0  0  0  0  0  0  0
   55.4980   26.3460   46.0810 C   0  0  0  0  0  0  0  0  0  0  0  0
   56.2780   25.6600   46.7940 O   0  0  0  0  0  0  0  0  0  0  0  0
   55.9240   27.6300   45.6190 N   0  0  0  0  0  0  0  0  0  0  0  0
   57.2460   27.8920   45.0610 C   0  0  0  0  0  0  0  0  0  0  0  0
   57.4900   29.3730   44.9340 C   0  0  0  0  0  0  0  0  0  0  0  0
   57.1520   30.0400   43.7460 C   0  0  0  0  0  0  0  0  0  0  0  0
   57.4040   31.4090   43.6100 C   0  0  0  0  0  0  0  0  0  0  0  0
   57.9810   32.1300   44.6660 C   0  0  0  0  0  0  0  0  0  0  0  0
   58.2840   33.5940   44.5060 C   0  0  0  0  0  0  0  0  0  0  0  0
   58.9700   34.0920   45.6930 N   0  0  0  0  0  0  0  0  0  0  0  0
   60.2960   34.0560   45.9130 C   0  0  0  0  0  0  0  0  0  0  0  0
   60.5370   34.5590   47.1740 C   0  0  0  0  0  0  0  0  0  0  0  0
   59.2890   34.8750   47.6730 C   0  0  0  0  0  0  0  0  0  0  0  0
   58.3480   34.5750   46.7560 N   0  0  0  0  0  0  0  0  0  0  0  0
   58.3150   31.4640   45.8560 C   0  0  0  0  0  0  0  0  0  0  0  0
   58.0660   30.0950   45.9910 C   0  0  0  0  0  0  0  0  0  0  0  0
   55.5610   22.9000   46.3410 C   0  0  0  0  0  0  0  0  0  0  0  0
   55.2872   21.7432   50.7540 H   0  0  0  0  0  0  0  0  0  0  0  0
   54.6983   22.5897   49.2832 H   0  0  0  0  0  0  0  0  0  0  0  0
   54.8671   20.8014   49.2832 H   0  0  0  0  0  0  0  0  0  0  0  0
   58.5393   21.6615   45.2022 H   0  0  0  0  0  0  0  0  0  0  0  0
   57.8933   23.0298   43.2203 H   0  0  0  0  0  0  0  0  0  0  0  0
   55.7597   24.3224   43.2337 H   0  0  0  0  0  0  0  0  0  0  0  0
   53.5221   24.5636   44.2442 H   0  0  0  0  0  0  0  0  0  0  0  0
   53.2198   24.0192   45.9435 H   0  0  0  0  0  0  0  0  0  0  0  0
   58.0093   27.4563   45.7225 H   0  0  0  0  0  0  0  0  0  0  0  0
   57.3021   27.4387   44.0603 H   0  0  0  0  0  0  0  0  0  0  0  0
   56.6871   29.4837   42.9187 H   0  0  0  0  0  0  0  0  0  0  0  0
   57.1487   31.9224   42.6712 H   0  0  0  0  0  0  0  0  0  0  0  0
   58.9270   33.7392   43.6254 H   0  0  0  0  0  0  0  0  0  0  0  0
   57.3419   34.1463   44.3739 H   0  0  0  0  0  0  0  0  0  0  0  0
   61.0570   33.6887   45.2087 H   0  0  0  0  0  0  0  0  0  0  0  0
   61.5097   34.6816   47.6728 H   0  0  0  0  0  0  0  0  0  0  0  0
   59.0929   35.3054   48.6661 H   0  0  0  0  0  0  0  0  0  0  0  0
   58.7744   32.0216   46.6854 H   0  0  0  0  0  0  0  0  0  0  0  0
   58.3225   29.5815   46.9294 H   0  0  0  0  0  0  0  0  0  0  0  0
   54.9147   22.8767   47.2308 H   0  0  0  0  0  0  0  0  0  0  0  0
  1  2  1  0
  2  3  2  0
  2  4  2  0
  2  5  1  0
  5  6  1  0
  6  7  2  0
  7  8  1  0
  8  9  2  0
  9 10  1  0
 10 11  1  0
 11 12  1  0
 12 13  1  0
 13 14  2  0
 13 15  1  0
 15 16  1  0
 16 17  1  0
 17 18  2  0
 18 19  1  0
 19 20  2  0
 20 21  1  0
 21 22  1  0
 22 23  1  0
 23 24  2  0
 24 25  1  0
 25 26  2  0
 20 27  1  0
 27 28  2  0
 10 29  2  0
 29  6  1  0
 28 17  1  0
 26 22  1  0
  1 30  1  0
  1 31  1  0
  1 32  1  0
  7 33  1  0
  8 34  1  0
  9 35  1  0
 11 36  1  0
 11 37  1  0
 16 38  1  0
 16 39  1  0
 18 40  1  0
 19 41  1  0
 21 42  1  0
 21 43  1  0
 23 44  1  0
 24 45  1  0
 25 46  1  0
 27 47  1  0
 28 48  1  0
 29 49  1  0
M  CHG  3   5  -1  12  -1  15  -1
M  END
>  <UniqueID>  (76) 
68

>  <SMILES>  (76) 
CS(=O)(=O)[N-]c1cccc(C[N-]C(=O)[N-]Cc2ccc(Cn3cccn3)cc2)c1

>  <Energy>  (76) 
74.92120828091542

>  <Genealogy>  (76) 
CS(=O)(=O)[N-]c1cccc(C[N-]C(=O)[N-]Cc2ccc(Cn3cccn3)cc2)c1 (protonated)
CS(=O)(=O)[N-]c1cccc(C[N-]C(=O)[N-]Cc2ccc(Cn3cccn3)cc2)c1 (3D coordinates assigned)
CS(=O)(=O)[N-]c1cccc(C[N-]C(=O)[N-]Cc2ccc(Cn3cccn3)cc2)c1 (optimized conformer: 74.92120828091542 kcal/mol)

>  <smiles>  (76) 
CS(=O)(=O)Nc1cccc(CNC(=O)NCc2ccc(Cn3cccn3)cc2)c1

>  <score_type>  (76) 
oracle

>  <origin>  (76) 
adg

>  <m_score__min__energy>  (76) 
-13.960000000000001

>  <m_primary>  (76) 
energy

$$$$
76:0
     RDKit          3D

 34 36  0  0  0  0  0  0  0  0999 V2000
   55.1530   29.3480   45.1910 O   0  0  0  0  0  0  0  0  0  0  0  0
   56.4000   29.2960   45.0210 C   0  0  0  0  0  0  0  0  0  0  0  0
   57.1250   30.5230   44.8570 N   0  0  0  0  0  0  0  0  0  0  0  0
   58.2000   30.9710   45.6920 C   0  0  0  0  0  0  0  0  0  0  0  0
   58.8290   30.0270   46.5140 C   0  0  0  0  0  0  0  0  0  0  0  0
   59.8330   30.4110   47.4020 C   0  0  0  0  0  0  0  0  0  0  0  0
   60.2360   31.7430   47.4730 C   0  0  0  0  0  0  0  0  0  0  0  0
   59.6550   32.7030   46.6320 C   0  0  0  0  0  0  0  0  0  0  0  0
   60.0830   34.0380   46.6860 C   0  0  0  0  0  0  0  0  0  0  0  0
   59.5330   34.9900   45.8270 C   0  0  0  0  0  0  0  0  0  0  0  0
   58.5620   34.6150   44.8970 C   0  0  0  0  0  0  0  0  0  0  0  0
   58.1230   33.2890   44.8310 C   0  0  0  0  0  0  0  0  0  0  0  0
   58.6410   32.3190   45.7130 C   0  0  0  0  0  0  0  0  0  0  0  0
   57.0580   28.0140   44.9830 N   0  0  0  0  0  0  0  0  0  0  0  0
   58.2030   27.7690   44.1030 C   0  0  0  0  0  0  0  0  0  0  0  0
   58.1400   26.3370   43.5640 C   0  0  0  0  0  0  0  0  0  0  0  0
   57.9970   25.4070   44.6220 O   0  0  0  0  0  0  0  0  0  0  0  0
   56.7500   25.5990   45.2640 C   0  0  0  0  0  0  0  0  0  0  0  0
   56.6930   26.9690   45.9450 C   0  0  0  0  0  0  0  0  0  0  0  0
   58.5273   28.9706   46.4582 H   0  0  0  0  0  0  0  0  0  0  0  0
   60.3089   29.6595   48.0491 H   0  0  0  0  0  0  0  0  0  0  0  0
   61.0130   32.0427   48.1916 H   0  0  0  0  0  0  0  0  0  0  0  0
   60.8563   34.3357   47.4094 H   0  0  0  0  0  0  0  0  0  0  0  0
   59.8650   36.0372   45.8827 H   0  0  0  0  0  0  0  0  0  0  0  0
   58.1402   35.3660   44.2129 H   0  0  0  0  0  0  0  0  0  0  0  0
   57.3677   33.0006   44.0851 H   0  0  0  0  0  0  0  0  0  0  0  0
   58.1768   28.4780   43.2624 H   0  0  0  0  0  0  0  0  0  0  0  0
   59.1354   27.9048   44.6706 H   0  0  0  0  0  0  0  0  0  0  0  0
   57.2799   26.2451   42.8844 H   0  0  0  0  0  0  0  0  0  0  0  0
   59.0762   26.1205   43.0286 H   0  0  0  0  0  0  0  0  0  0  0  0
   55.9459   25.5345   44.5162 H   0  0  0  0  0  0  0  0  0  0  0  0
   56.6247   24.8196   46.0300 H   0  0  0  0  0  0  0  0  0  0  0  0
   55.6731   27.1518   46.3142 H   0  0  0  0  0  0  0  0  0  0  0  0
   57.3994   26.9867   46.7880 H   0  0  0  0  0  0  0  0  0  0  0  0
  1  2  2  0
  2  3  1  0
  3  4  1  0
  4  5  2  0
  5  6  1  0
  6  7  2  0
  7  8  1  0
  8  9  2  0
  9 10  1  0
 10 11  2  0
 11 12  1  0
 12 13  2  0
  2 14  1  0
 14 15  1  0
 15 16  1  0
 16 17  1  0
 17 18  1  0
 18 19  1  0
 13  4  1  0
 19 14  1  0
 13  8  1  0
  5 20  1  0
  6 21  1  0
  7 22  1  0
  9 23  1  0
 10 24  1  0
 11 25  1  0
 12 26  1  0
 15 27  1  0
 15 28  1  0
 16 29  1  0
 16 30  1  0
 18 31  1  0
 18 32  1  0
 19 33  1  0
 19 34  1  0
M  CHG  1   3  -1
M  END
>  <UniqueID>  (77) 
69

>  <SMILES>  (77) 
O=C([N-]c1cccc2ccccc12)N1CCOCC1

>  <Energy>  (77) 
49.28454259987203

>  <Genealogy>  (77) 
O=C([N-]c1cccc2ccccc12)N1CCOCC1 (protonated)
O=C([N-]c1cccc2ccccc12)N1CCOCC1 (3D coordinates assigned)
O=C([N-]c1cccc2ccccc12)N1CCOCC1 (nonaromatic ring conformer: 49.28454259987203 kcal/mol)

>  <smiles>  (77) 
O=C(Nc1cccc2ccccc12)N1CCOCC1

>  <score_type>  (77) 
oracle

>  <origin>  (77) 
adg

>  <m_score__min__energy>  (77) 
-8.9499999999999993

>  <m_primary>  (77) 
energy

$$$$
77:0
     RDKit          3D

 37 39  0  0  0  0  0  0  0  0999 V2000
   56.0190   30.4140   44.4740 O   0  0  0  0  0  0  0  0  0  0  0  0
   56.6130   29.3460   44.7780 C   0  0  0  0  0  0  0  0  0  0  0  0
   55.8880   28.3130   45.2630 N   0  0  0  0  0  0  0  0  0  0  0  0
   56.4810   27.1480   45.6050 C   0  0  0  0  0  0  0  0  0  0  0  0
   55.7650   26.2100   46.0510 O   0  0  0  0  0  0  0  0  0  0  0  0
   57.8340   26.9980   45.4710 N   0  0  0  0  0  0  0  0  0  0  0  0
   58.4870   25.7170   45.8150 C   0  0  0  0  0  0  0  0  0  0  0  0
   57.8960   24.5900   45.0080 C   0  0  0  0  0  0  0  0  0  0  0  0
   57.9900   23.2640   45.4630 C   0  0  0  0  0  0  0  0  0  0  0  0
   57.4660   22.2160   44.6970 C   0  0  0  0  0  0  0  0  0  0  0  0
   56.8490   22.4850   43.4720 C   0  0  0  0  0  0  0  0  0  0  0  0
   56.3440   21.4690   42.7310 F   0  0  0  0  0  0  0  0  0  0  0  0
   56.7550   23.8010   43.0120 C   0  0  0  0  0  0  0  0  0  0  0  0
   57.2770   24.8500   43.7750 C   0  0  0  0  0  0  0  0  0  0  0  0
   58.5740   28.0420   44.9740 C   0  0  0  0  0  0  0  0  0  0  0  0
   59.8230   27.9170   44.8400 O   0  0  0  0  0  0  0  0  0  0  0  0
   57.9680   29.2220   44.6230 N   0  0  0  0  0  0  0  0  0  0  0  0
   58.7720   30.3560   44.1210 C   0  0  0  0  0  0  0  0  0  0  0  0
   58.4420   31.6130   44.8820 C   0  0  0  0  0  0  0  0  0  0  0  0
   58.5720   31.6510   46.2810 C   0  0  0  0  0  0  0  0  0  0  0  0
   58.2930   32.8270   46.9840 C   0  0  0  0  0  0  0  0  0  0  0  0
   57.8880   33.9750   46.2980 C   0  0  0  0  0  0  0  0  0  0  0  0
   57.7600   33.9480   44.9060 C   0  0  0  0  0  0  0  0  0  0  0  0
   58.0360   32.7740   44.1990 C   0  0  0  0  0  0  0  0  0  0  0  0
   59.5634   25.7903   45.6004 H   0  0  0  0  0  0  0  0  0  0  0  0
   58.3266   25.5116   46.8837 H   0  0  0  0  0  0  0  0  0  0  0  0
   58.4774   23.0485   46.4253 H   0  0  0  0  0  0  0  0  0  0  0  0
   57.5399   21.1800   45.0594 H   0  0  0  0  0  0  0  0  0  0  0  0
   56.2694   24.0122   42.0478 H   0  0  0  0  0  0  0  0  0  0  0  0
   57.2023   25.8841   43.4074 H   0  0  0  0  0  0  0  0  0  0  0  0
   59.8404   30.1263   44.2469 H   0  0  0  0  0  0  0  0  0  0  0  0
   58.5412   30.5128   43.0570 H   0  0  0  0  0  0  0  0  0  0  0  0
   58.8948   30.7513   46.8254 H   0  0  0  0  0  0  0  0  0  0  0  0
   58.3925   32.8485   48.0793 H   0  0  0  0  0  0  0  0  0  0  0  0
   57.6700   34.8995   46.8528 H   0  0  0  0  0  0  0  0  0  0  0  0
   57.4416   34.8520   44.3662 H   0  0  0  0  0  0  0  0  0  0  0  0
   57.9353   32.7579   43.1037 H   0  0  0  0  0  0  0  0  0  0  0  0
  1  2  2  0
  2  3  1  0
  3  4  1  0
  4  5  2  0
  4  6  1  0
  6  7  1  0
  7  8  1  0
  8  9  2  0
  9 10  1  0
 10 11  2  0
 11 12  1  0
 11 13  1  0
 13 14  2  0
  6 15  1  0
 15 16  2  0
 15 17  1  0
 17 18  1  0
 18 19  1  0
 19 20  2  0
 20 21  1  0
 21 22  2  0
 22 23  1  0
 23 24  2  0
 17  2  1  0
 24 19  1  0
 14  8  1  0
  7 25  1  0
  7 26  1  0
  9 27  1  0
 10 28  1  0
 13 29  1  0
 14 30  1  0
 18 31  1  0
 18 32  1  0
 20 33  1  0
 21 34  1  0
 22 35  1  0
 23 36  1  0
 24 37  1  0
M  CHG  1   3  -1
M  END
>  <UniqueID>  (78) 
70

>  <SMILES>  (78) 
O=c1[n-]c(=O)n(Cc2ccc(F)cc2)c(=O)n1Cc1ccccc1

>  <Energy>  (78) 
46.06968850367031

>  <Genealogy>  (78) 
O=c1[n-]c(=O)n(Cc2ccc(F)cc2)c(=O)n1Cc1ccccc1 (protonated)
O=c1[n-]c(=O)n(Cc2ccc(F)cc2)c(=O)n1Cc1ccccc1 (3D coordinates assigned)
O=c1[n-]c(=O)n(Cc2ccc(F)cc2)c(=O)n1Cc1ccccc1 (optimized conformer: 46.06968850367031 kcal/mol)

>  <smiles>  (78) 
O=c1[nH]c(=O)n(Cc2ccc(F)cc2)c(=O)n1Cc1ccccc1

>  <score_type>  (78) 
oracle

>  <origin>  (78) 
adg

>  <m_score__min__energy>  (78) 
-9.2400000000000002

>  <m_primary>  (78) 
energy

$$$$
78:0
     RDKit          3D

 47 49  0  0  0  0  0  0  0  0999 V2000
   59.2510   33.8390   44.2680 O   0  0  0  0  0  0  0  0  0  0  0  0
   58.3060   33.1990   44.8060 C   0  0  0  0  0  0  0  0  0  0  0  0
   57.3930   32.3770   43.9550 C   0  0  0  0  0  0  0  0  0  0  0  0
   56.4740   31.6360   44.8160 N   0  0  0  0  0  0  0  0  0  0  0  0
   56.4660   29.9600   44.3620 S   0  0  0  0  0  0  0  0  0  0  0  0
   55.2070   29.3170   44.8740 O   0  0  0  0  0  0  0  0  0  0  0  0
   56.4870   29.8370   42.8630 O   0  0  0  0  0  0  0  0  0  0  0  0
   57.8580   29.1350   45.0600 C   0  0  0  0  0  0  0  0  0  0  0  0
   57.6870   27.9770   45.8330 C   0  0  0  0  0  0  0  0  0  0  0  0
   58.8000   27.3200   46.3670 C   0  0  0  0  0  0  0  0  0  0  0  0
   60.0860   27.8160   46.1330 C   0  0  0  0  0  0  0  0  0  0  0  0
   60.2610   28.9680   45.3600 C   0  0  0  0  0  0  0  0  0  0  0  0
   59.1500   29.6250   44.8220 C   0  0  0  0  0  0  0  0  0  0  0  0
   58.1270   33.2290   46.2280 N   0  0  0  0  0  0  0  0  0  0  0  0
   58.9670   34.0390   47.1070 C   0  0  0  0  0  0  0  0  0  0  0  0
   60.3190   33.3860   47.2880 C   0  0  0  0  0  0  0  0  0  0  0  0
   61.4600   34.0940   46.8700 C   0  0  0  0  0  0  0  0  0  0  0  0
   62.7310   33.5260   46.9780 C   0  0  0  0  0  0  0  0  0  0  0  0
   62.8800   32.2430   47.5030 C   0  0  0  0  0  0  0  0  0  0  0  0
   61.7600   31.5280   47.9310 C   0  0  0  0  0  0  0  0  0  0  0  0
   60.4780   32.0910   47.8420 C   0  0  0  0  0  0  0  0  0  0  0  0
   59.0860   31.1180   48.4450 S   0  0  0  0  0  0  0  0  0  0  0  0
   58.9340   32.0790   49.9520 C   0  0  0  0  0  0  0  0  0  0  0  0
   57.8160   31.9210   50.7830 C   0  0  0  0  0  0  0  0  0  0  0  0
   57.7030   32.6730   51.9570 C   0  0  0  0  0  0  0  0  0  0  0  0
   58.7070   33.5800   52.3060 C   0  0  0  0  0  0  0  0  0  0  0  0
   59.8280   33.7340   51.4840 C   0  0  0  0  0  0  0  0  0  0  0  0
   59.9430   32.9830   50.3090 C   0  0  0  0  0  0  0  0  0  0  0  0
   56.8203   33.0362   43.2861 H   0  0  0  0  0  0  0  0  0  0  0  0
   57.9839   31.6726   43.3511 H   0  0  0  0  0  0  0  0  0  0  0  0
   56.6762   27.5852   46.0193 H   0  0  0  0  0  0  0  0  0  0  0  0
   58.6635   26.4116   46.9721 H   0  0  0  0  0  0  0  0  0  0  0  0
   60.9601   27.3000   46.5570 H   0  0  0  0  0  0  0  0  0  0  0  0
   61.2730   29.3575   45.1751 H   0  0  0  0  0  0  0  0  0  0  0  0
   59.2900   30.5286   44.2105 H   0  0  0  0  0  0  0  0  0  0  0  0
   57.3740   32.6420   46.6560 H   0  0  0  0  0  0  0  0  0  0  0  0
   59.1021   35.0361   46.6624 H   0  0  0  0  0  0  0  0  0  0  0  0
   58.4778   34.1274   48.0882 H   0  0  0  0  0  0  0  0  0  0  0  0
   61.3500   35.1061   46.4535 H   0  0  0  0  0  0  0  0  0  0  0  0
   63.6154   34.0912   46.6486 H   0  0  0  0  0  0  0  0  0  0  0  0
   63.8811   31.7937   47.5800 H   0  0  0  0  0  0  0  0  0  0  0  0
   61.8836   30.5149   48.3414 H   0  0  0  0  0  0  0  0  0  0  0  0
   57.0266   31.2047   50.5114 H   0  0  0  0  0  0  0  0  0  0  0  0
   56.8233   32.5503   52.6059 H   0  0  0  0  0  0  0  0  0  0  0  0
   58.6156   34.1732   53.2278 H   0  0  0  0  0  0  0  0  0  0  0  0
   60.6195   34.4458   51.7613 H   0  0  0  0  0  0  0  0  0  0  0  0
   60.8266   33.1025   49.6649 H   0  0  0  0  0  0  0  0  0  0  0  0
  1  2  2  0
  2  3  1  0
  3  4  1  0
  4  5  1  0
  5  6  2  0
  5  7  2  0
  5  8  1  0
  8  9  2  0
  9 10  1  0
 10 11  2  0
 11 12  1  0
 12 13  2  0
  2 14  1  0
 14 15  1  0
 15 16  1  0
 16 17  2  0
 17 18  1  0
 18 19  2  0
 19 20  1  0
 20 21  2  0
 21 22  1  0
 22 23  1  0
 23 24  2  0
 24 25  1  0
 25 26  2  0
 26 27  1  0
 27 28  2  0
 13  8  1  0
 21 16  1  0
 28 23  1  0
  3 29  1  0
  3 30  1  0
  9 31  1  0
 10 32  1  0
 11 33  1  0
 12 34  1  0
 13 35  1  0
 14 36  1  0
 15 37  1  0
 15 38  1  0
 17 39  1  0
 18 40  1  0
 19 41  1  0
 20 42  1  0
 24 43  1  0
 25 44  1  0
 26 45  1  0
 27 46  1  0
 28 47  1  0
M  CHG  1   4  -1
M  END
>  <UniqueID>  (79) 
71

>  <SMILES>  (79) 
O=C(C[N-]S(=O)(=O)c1ccccc1)NCc1ccccc1Sc1ccccc1

>  <Energy>  (79) 
41.02855133360515

>  <Genealogy>  (79) 
O=C(C[N-]S(=O)(=O)c1ccccc1)NCc1ccccc1Sc1ccccc1 (protonated)
O=C(C[N-]S(=O)(=O)c1ccccc1)NCc1ccccc1Sc1ccccc1 (3D coordinates assigned)
O=C(C[N-]S(=O)(=O)c1ccccc1)NCc1ccccc1Sc1ccccc1 (optimized conformer: 41.02855133360515 kcal/mol)

>  <smiles>  (79) 
O=C(CNS(=O)(=O)c1ccccc1)NCc1ccccc1Sc1ccccc1

>  <score_type>  (79) 
oracle

>  <origin>  (79) 
adg

>  <m_score__min__energy>  (79) 
-11.029999999999999

>  <m_primary>  (79) 
energy

$$$$
79:0
     RDKit          3D

 71 74  0  0  0  0  0  0  0  0999 V2000
   57.0600   26.4620   47.1270 O   0  0  0  0  0  0  0  0  0  0  0  0
   57.8460   26.7470   46.1840 C   0  0  0  0  0  0  0  0  0  0  0  0
   57.4220   26.5090   44.8380 N   0  0  0  0  0  0  0  0  0  0  0  0
   58.0740   27.3180   43.4480 S   0  0  0  0  0  0  0  0  0  0  0  0
   59.4790   27.7520   43.7600 O   0  0  0  0  0  0  0  0  0  0  0  0
   58.1250   26.3580   42.2920 O   0  0  0  0  0  0  0  0  0  0  0  0
   57.1150   28.7060   43.0090 N   0  0  0  0  0  0  0  0  0  0  0  0
   56.8460   29.5950   44.1530 C   0  0  0  0  0  0  0  0  0  0  0  0
   58.1200   30.0280   44.9010 C   0  0  0  0  0  0  0  0  0  0  0  0
   58.1190   31.5010   45.2290 C   0  0  0  0  0  0  0  0  0  0  0  0
   58.2370   31.9290   46.5630 C   0  0  0  0  0  0  0  0  0  0  0  0
   58.2170   33.2930   46.8710 C   0  0  0  0  0  0  0  0  0  0  0  0
   58.0770   34.2390   45.8530 C   0  0  0  0  0  0  0  0  0  0  0  0
   57.9610   33.8240   44.5240 C   0  0  0  0  0  0  0  0  0  0  0  0
   57.9800   32.4610   44.2110 C   0  0  0  0  0  0  0  0  0  0  0  0
   59.1560   27.2540   46.4710 N   0  0  0  0  0  0  0  0  0  0  0  0
   59.4880   27.9710   47.6750 C   0  0  0  0  0  0  0  0  0  0  0  0
   58.9190   29.2250   47.9610 C   0  0  0  0  0  0  0  0  0  0  0  0
   59.2820   29.9180   49.1180 C   0  0  0  0  0  0  0  0  0  0  0  0
   60.2200   29.3750   50.0040 C   0  0  0  0  0  0  0  0  0  0  0  0
   60.6610   30.2640   51.4600 S   0  0  0  0  0  0  0  0  0  0  0  0
   59.4540   30.9510   52.0370 O   0  0  0  0  0  0  0  0  0  0  0  0
   61.1970   29.3090   52.4890 O   0  0  0  0  0  0  0  0  0  0  0  0
   61.8650   31.4510   51.0630 N   0  0  0  0  0  0  0  0  0  0  0  0
   62.9080   31.7990   52.0320 C   0  0  0  0  0  0  0  0  0  0  0  0
   64.1690   31.0340   51.7370 C   0  0  0  0  0  0  0  0  0  0  0  0
   64.2730   29.6840   52.1010 C   0  0  0  0  0  0  0  0  0  0  0  0
   65.4510   28.9740   51.8520 C   0  0  0  0  0  0  0  0  0  0  0  0
   66.5470   29.6110   51.2360 C   0  0  0  0  0  0  0  0  0  0  0  0
   67.7490   28.9440   50.9500 O   0  0  0  0  0  0  0  0  0  0  0  0
   67.8790   27.5460   50.7050 C   0  0  0  0  0  0  0  0  0  0  0  0
   68.9810   27.2990   49.9050 F   0  0  0  0  0  0  0  0  0  0  0  0
   66.7340   27.0630   50.0910 F   0  0  0  0  0  0  0  0  0  0  0  0
   68.0470   26.8930   51.9100 F   0  0  0  0  0  0  0  0  0  0  0  0
   66.4420   30.9630   50.8890 C   0  0  0  0  0  0  0  0  0  0  0  0
   65.2660   31.6730   51.1420 C   0  0  0  0  0  0  0  0  0  0  0  0
   61.9360   31.9510   49.7210 C   0  0  0  0  0  0  0  0  0  0  0  0
   61.3100   33.1610   49.3900 C   0  0  0  0  0  0  0  0  0  0  0  0
   61.3870   33.6560   48.0840 C   0  0  0  0  0  0  0  0  0  0  0  0
   62.0880   32.9430   47.1040 C   0  0  0  0  0  0  0  0  0  0  0  0
   62.7140   31.7360   47.4310 C   0  0  0  0  0  0  0  0  0  0  0  0
   62.6410   31.2410   48.7370 C   0  0  0  0  0  0  0  0  0  0  0  0
   60.8020   28.1330   49.7160 C   0  0  0  0  0  0  0  0  0  0  0  0
   60.4440   27.4410   48.5540 C   0  0  0  0  0  0  0  0  0  0  0  0
   57.5940   29.2250   42.2390 H   0  0  0  0  0  0  0  0  0  0  0  0
   56.2000   28.3610   42.6370 H   0  0  0  0  0  0  0  0  0  0  0  0
   56.3356   30.4961   43.7823 H   0  0  0  0  0  0  0  0  0  0  0  0
   56.2262   29.0306   44.8652 H   0  0  0  0  0  0  0  0  0  0  0  0
   58.1911   29.4569   45.8384 H   0  0  0  0  0  0  0  0  0  0  0  0
   58.9796   29.8302   44.2438 H   0  0  0  0  0  0  0  0  0  0  0  0
   58.3456   31.1875   47.3682 H   0  0  0  0  0  0  0  0  0  0  0  0
   58.3117   33.6213   47.9166 H   0  0  0  0  0  0  0  0  0  0  0  0
   58.0581   35.3113   46.0978 H   0  0  0  0  0  0  0  0  0  0  0  0
   57.8546   34.5702   43.7228 H   0  0  0  0  0  0  0  0  0  0  0  0
   57.8858   32.1385   43.1636 H   0  0  0  0  0  0  0  0  0  0  0  0
   59.9260   27.0570   45.7940 H   0  0  0  0  0  0  0  0  0  0  0  0
   58.1839   29.6625   47.2695 H   0  0  0  0  0  0  0  0  0  0  0  0
   58.8281   30.8964   49.3343 H   0  0  0  0  0  0  0  0  0  0  0  0
   63.1150   32.8776   51.9710 H   0  0  0  0  0  0  0  0  0  0  0  0
   62.5594   31.5394   53.0425 H   0  0  0  0  0  0  0  0  0  0  0  0
   63.4230   29.1809   52.5851 H   0  0  0  0  0  0  0  0  0  0  0  0
   65.5229   27.9142   52.1379 H   0  0  0  0  0  0  0  0  0  0  0  0
   67.2935   31.4710   50.4127 H   0  0  0  0  0  0  0  0  0  0  0  0
   65.2003   32.7377   50.8734 H   0  0  0  0  0  0  0  0  0  0  0  0
   60.7576   33.7218   50.1583 H   0  0  0  0  0  0  0  0  0  0  0  0
   60.8964   34.6063   47.8267 H   0  0  0  0  0  0  0  0  0  0  0  0
   62.1464   33.3322   46.0768 H   0  0  0  0  0  0  0  0  0  0  0  0
   63.2641   31.1757   46.6607 H   0  0  0  0  0  0  0  0  0  0  0  0
   63.1371   30.2933   48.9934 H   0  0  0  0  0  0  0  0  0  0  0  0
   61.5423   27.7011   50.4055 H   0  0  0  0  0  0  0  0  0  0  0  0
   60.9160   26.4735   48.3279 H   0  0  0  0  0  0  0  0  0  0  0  0
  1  2  2  0
  2  3  1  0
  3  4  1  0
  4  5  2  0
  4  6  2  0
  4  7  1  0
  7  8  1  0
  8  9  1  0
  9 10  1  0
 10 11  2  0
 11 12  1  0
 12 13  2  0
 13 14  1  0
 14 15  2  0
  2 16  1  0
 16 17  1  0
 17 18  2  0
 18 19  1  0
 19 20  2  0
 20 21  1  0
 21 22  2  0
 21 23  2  0
 21 24  1  0
 24 25  1  0
 25 26  1  0
 26 27  2  0
 27 28  1  0
 28 29  2  0
 29 30  1  0
 30 31  1  0
 31 32  1  0
 31 33  1  0
 31 34  1  0
 29 35  1  0
 35 36  2  0
 24 37  1  0
 37 38  2  0
 38 39  1  0
 39 40  2  0
 40 41  1  0
 41 42  2  0
 20 43  1  0
 43 44  2  0
 15 10  1  0
 44 17  1  0
 36 26  1  0
 42 37  1  0
  7 45  1  0
  7 46  1  0
  8 47  1  0
  8 48  1  0
  9 49  1  0
  9 50  1  0
 11 51  1  0
 12 52  1  0
 13 53  1  0
 14 54  1  0
 15 55  1  0
 16 56  1  0
 18 57  1  0
 19 58  1  0
 25 59  1  0
 25 60  1  0
 27 61  1  0
 28 62  1  0
 35 63  1  0
 36 64  1  0
 38 65  1  0
 39 66  1  0
 40 67  1  0
 41 68  1  0
 42 69  1  0
 43 70  1  0
 44 71  1  0
M  CHG  2   3  -1   7   1
M  END
>  <UniqueID>  (80) 
72

>  <SMILES>  (80) 
O=C([N-]S(=O)(=O)[NH2+]CCc1ccccc1)Nc1ccc(S(=O)(=O)N(Cc2ccc(OC(F)(F)F)cc2)c2ccccc2)cc1

>  <Energy>  (80) 
81.75699819058956

>  <Genealogy>  (80) 
O=C([N-]S(=O)(=O)[NH2+]CCc1ccccc1)Nc1ccc(S(=O)(=O)N(Cc2ccc(OC(F)(F)F)cc2)c2ccccc2)cc1 (protonated)
O=C([N-]S(=O)(=O)[NH2+]CCc1ccccc1)Nc1ccc(S(=O)(=O)N(Cc2ccc(OC(F)(F)F)cc2)c2ccccc2)cc1 (3D coordinates assigned)
O=C([N-]S(=O)(=O)[NH2+]CCc1ccccc1)Nc1ccc(S(=O)(=O)N(Cc2ccc(OC(F)(F)F)cc2)c2ccccc2)cc1 (optimized conformer: 81.75699819058956 kcal/mol)

>  <smiles>  (80) 
O=C(Nc1ccc(S(=O)(=O)N(Cc2ccc(OC(F)(F)F)cc2)c2ccccc2)cc1)NS(=O)(=O)NCCc1ccccc1

>  <score_type>  (80) 
oracle

>  <origin>  (80) 
adg

>  <m_score__min__energy>  (80) 
-10.720000000000001

>  <m_primary>  (80) 
energy

$$$$
80:0
     RDKit          3D

 50 53  0  0  0  0  0  0  0  0999 V2000
   61.7390   28.9190   44.9160 H   0  0  0  0  0  0  0  0  0  0  0  0
   61.0070   28.1770   44.8530 N   0  0  0  0  0  0  0  0  0  0  0  0
   59.6720   28.4940   44.4620 C   0  0  0  0  0  0  0  0  0  0  0  0
   59.0280   27.6600   43.7700 O   0  0  0  0  0  0  0  0  0  0  0  0
   59.0470   29.7810   44.8850 C   0  0  0  0  0  0  0  0  0  0  0  0
   57.7290   30.0510   44.4840 C   0  0  0  0  0  0  0  0  0  0  0  0
   57.1882   29.3181   43.8673 H   0  0  0  0  0  0  0  0  0  0  0  0
   57.1160   31.2000   44.8460 N   0  0  0  0  0  0  0  0  0  0  0  0
   57.7500   32.1620   45.5590 C   0  0  0  0  0  0  0  0  0  0  0  0
   57.0750   33.3590   45.8290 C   0  0  0  0  0  0  0  0  0  0  0  0
   56.0164   33.4667   45.5502 H   0  0  0  0  0  0  0  0  0  0  0  0
   57.7410   34.4140   46.4500 C   0  0  0  0  0  0  0  0  0  0  0  0
   57.2008   35.3422   46.6879 H   0  0  0  0  0  0  0  0  0  0  0  0
   59.0910   34.2920   46.7690 C   0  0  0  0  0  0  0  0  0  0  0  0
   59.6254   35.1403   47.2215 H   0  0  0  0  0  0  0  0  0  0  0  0
   59.7700   33.0970   46.5170 C   0  0  0  0  0  0  0  0  0  0  0  0
   60.8444   33.0256   46.7420 H   0  0  0  0  0  0  0  0  0  0  0  0
   59.0940   31.9770   45.9760 C   0  0  0  0  0  0  0  0  0  0  0  0
   59.7120   30.7090   45.7290 C   0  0  0  0  0  0  0  0  0  0  0  0
   60.8340   30.3190   46.2830 N   0  0  0  0  0  0  0  0  0  0  0  0
   61.4850   30.7660   47.4810 C   0  0  0  0  0  0  0  0  0  0  0  0
   62.4240   31.8100   47.4200 C   0  0  0  0  0  0  0  0  0  0  0  0
   62.6940   32.2460   46.4468 H   0  0  0  0  0  0  0  0  0  0  0  0
   63.0160   32.2970   48.5860 C   0  0  0  0  0  0  0  0  0  0  0  0
   63.7663   33.0993   48.5282 H   0  0  0  0  0  0  0  0  0  0  0  0
   62.6560   31.7660   49.8260 C   0  0  0  0  0  0  0  0  0  0  0  0
   63.1262   32.1471   50.7445 H   0  0  0  0  0  0  0  0  0  0  0  0
   61.6990   30.7510   49.9010 C   0  0  0  0  0  0  0  0  0  0  0  0
   61.4090   30.3455   50.8816 H   0  0  0  0  0  0  0  0  0  0  0  0
   61.1050   30.2450   48.7350 C   0  0  0  0  0  0  0  0  0  0  0  0
   59.9060   28.9520   48.8760 S   0  0  0  0  0  0  0  0  0  0  0  0
   58.5310   29.5050   49.1310 O   0  0  0  0  0  0  0  0  0  0  0  0
   60.2940   28.0580   50.0200 O   0  0  0  0  0  0  0  0  0  0  0  0
   59.8640   28.0190   47.4130 N   0  0  0  0  0  0  0  0  0  0  0  0
   60.6340   28.1810   46.7260 H   0  0  0  0  0  0  0  0  0  0  0  0
   58.7790   27.1450   47.0540 C   0  0  0  0  0  0  0  0  0  0  0  0
   58.8940   25.7440   47.1410 C   0  0  0  0  0  0  0  0  0  0  0  0
   59.8402   25.2931   47.4748 H   0  0  0  0  0  0  0  0  0  0  0  0
   57.8140   24.9230   46.8060 C   0  0  0  0  0  0  0  0  0  0  0  0
   57.9132   23.8300   46.8807 H   0  0  0  0  0  0  0  0  0  0  0  0
   56.6070   25.4850   46.3760 C   0  0  0  0  0  0  0  0  0  0  0  0
   55.2500   24.4470   45.9500 S   0  0  0  0  0  0  0  0  0  0  0  0
   54.9480   23.5100   47.0850 O   0  0  0  0  0  0  0  0  0  0  0  0
   55.5940   23.6370   44.7330 O   0  0  0  0  0  0  0  0  0  0  0  0
   53.8630   25.4240   45.6230 N   0  0  0  0  0  0  0  0  0  0  0  0
   54.2130   26.3400   45.2610 H   0  0  0  0  0  0  0  0  0  0  0  0
   56.4930   26.8770   46.2680 C   0  0  0  0  0  0  0  0  0  0  0  0
   55.5515   27.3243   45.9167 H   0  0  0  0  0  0  0  0  0  0  0  0
   57.5710   27.6990   46.6050 C   0  0  0  0  0  0  0  0  0  0  0  0
   57.4717   28.7910   46.5175 H   0  0  0  0  0  0  0  0  0  0  0  0
  1  2  1  0
  2  3  1  0
  3  4  2  0
  3  5  1  0
  5  6  2  0
  6  7  1  0
  6  8  1  0
  8  9  1  0
  9 10  2  0
 10 11  1  0
 10 12  1  0
 12 13  1  0
 12 14  2  0
 14 15  1  0
 14 16  1  0
 16 17  1  0
 16 18  2  0
 18 19  1  0
 19 20  2  0
 20 21  1  0
 21 22  2  0
 22 23  1  0
 22 24  1  0
 24 25  1  0
 24 26  2  0
 26 27  1  0
 26 28  1  0
 28 29  1  0
 28 30  2  0
 30 31  1  0
 31 32  2  0
 31 33  2  0
 31 34  1  0
 34 35  1  0
 34 36  1  0
 36 37  2  0
 37 38  1  0
 37 39  1  0
 39 40  1  0
 39 41  2  0
 41 42  1  0
 42 43  2  0
 42 44  2  0
 42 45  1  0
 45 46  1  0
 41 47  1  0
 47 48  1  0
 47 49  2  0
 49 50  1  0
 19  5  1  0
 30 21  1  0
 49 36  1  0
 18  9  1  0
M  CHG  3   2  -1   8  -1  45  -1
M  END
>  <UniqueID>  (81) 
73

>  <SMILES>  (81) 
[NH-]C(=O)c1c[n-]c2ccccc2/c1=N\c1ccccc1S(=O)(=O)Nc1ccc(S([NH-])(=O)=O)cc1

>  <Energy>  (81) 
84.0667946909806

>  <Genealogy>  (81) 
[NH-]C(=O)c1c[n-]c2ccccc2c1=Nc1ccccc1S(=O)(=O)Nc1ccc(S([NH-])(=O)=O)cc1 (protonated)
[NH-]C(=O)c1c[n-]c2ccccc2/c1=N\c1ccccc1S(=O)(=O)Nc1ccc(S([NH-])(=O)=O)cc1 (cis-trans isomerization)
[NH-]C(=O)c1c[n-]c2ccccc2/c1=N\c1ccccc1S(=O)(=O)Nc1ccc(S([NH-])(=O)=O)cc1 (3D coordinates assigned)
[NH-]C(=O)c1c[n-]c2ccccc2/c1=N\c1ccccc1S(=O)(=O)Nc1ccc(S([NH-])(=O)=O)cc1 (optimized conformer: 84.0667946909806 kcal/mol)

>  <smiles>  (81) 
NC(=O)c1c[nH]c2ccccc2c1=Nc1ccccc1S(=O)(=O)Nc1ccc(S(N)(=O)=O)cc1

>  <score_type>  (81) 
oracle

>  <origin>  (81) 
adg

>  <m_score__min__energy>  (81) 
-14.34

>  <m_primary>  (81) 
energy

$$$$
81:0
     RDKit          3D

 53 55  0  0  0  0  0  0  0  0999 V2000
   50.5570   25.3940   41.6060 C   0  0  0  0  0  0  0  0  0  0  0  0
   50.8080   24.0690   42.0630 O   0  0  0  0  0  0  0  0  0  0  0  0
   50.9410   23.7070   43.4120 C   0  0  0  0  0  0  0  0  0  0  0  0
   49.9480   22.9820   44.0980 C   0  0  0  0  0  0  0  0  0  0  0  0
   50.1250   22.6540   45.4450 C   0  0  0  0  0  0  0  0  0  0  0  0
   51.2930   23.0290   46.1110 C   0  0  0  0  0  0  0  0  0  0  0  0
   52.3040   23.7180   45.4320 C   0  0  0  0  0  0  0  0  0  0  0  0
   53.5140   24.0440   46.1350 N   0  0  0  0  0  0  0  0  0  0  0  0
   54.6640   24.7100   45.5910 C   0  0  0  0  0  0  0  0  0  0  0  0
   54.7140   25.9670   45.6510 O   0  0  0  0  0  0  0  0  0  0  0  0
   55.8010   23.9720   44.9870 C   0  0  0  0  0  0  0  0  0  0  0  0
   55.5540   23.1300   43.8890 C   0  0  0  0  0  0  0  0  0  0  0  0
   56.5860   22.3810   43.3240 C   0  0  0  0  0  0  0  0  0  0  0  0
   57.8810   22.4790   43.8310 C   0  0  0  0  0  0  0  0  0  0  0  0
   58.1490   23.3260   44.9080 C   0  0  0  0  0  0  0  0  0  0  0  0
   57.1150   24.0730   45.5010 C   0  0  0  0  0  0  0  0  0  0  0  0
   57.4030   24.9940   46.5620 N   0  0  0  0  0  0  0  0  0  0  0  0
   57.9490   26.3060   46.3850 C   0  0  0  0  0  0  0  0  0  0  0  0
   59.1960   26.4870   46.4070 O   0  0  0  0  0  0  0  0  0  0  0  0
   57.0210   27.4790   46.3040 C   0  0  0  0  0  0  0  0  0  0  0  0
   57.1620   28.1700   45.0140 N   0  0  0  0  0  0  0  0  0  0  0  0
   58.0590   27.6370   43.9850 C   0  0  0  0  0  0  0  0  0  0  0  0
   56.3960   29.3600   44.7420 C   0  0  0  0  0  0  0  0  0  0  0  0
   55.1410   29.3410   44.8650 O   0  0  0  0  0  0  0  0  0  0  0  0
   57.0570   30.5520   44.2940 N   0  0  0  0  0  0  0  0  0  0  0  0
   57.5600   31.6110   45.1220 C   0  0  0  0  0  0  0  0  0  0  0  0
   58.2060   31.2770   46.3200 C   0  0  0  0  0  0  0  0  0  0  0  0
   58.6880   32.2790   47.1680 C   0  0  0  0  0  0  0  0  0  0  0  0
   58.5120   33.6240   46.8320 C   0  0  0  0  0  0  0  0  0  0  0  0
   58.9750   34.5970   47.6570 F   0  0  0  0  0  0  0  0  0  0  0  0
   57.8460   33.9670   45.6520 C   0  0  0  0  0  0  0  0  0  0  0  0
   57.3640   32.9670   44.8020 C   0  0  0  0  0  0  0  0  0  0  0  0
   52.1070   24.0810   44.0880 C   0  0  0  0  0  0  0  0  0  0  0  0
   50.4304   26.0622   42.4705 H   0  0  0  0  0  0  0  0  0  0  0  0
   51.4058   25.7388   40.9972 H   0  0  0  0  0  0  0  0  0  0  0  0
   49.6409   25.4045   40.9972 H   0  0  0  0  0  0  0  0  0  0  0  0
   49.0318   22.6734   43.5732 H   0  0  0  0  0  0  0  0  0  0  0  0
   49.3417   22.0988   45.9818 H   0  0  0  0  0  0  0  0  0  0  0  0
   51.4193   22.7815   47.1753 H   0  0  0  0  0  0  0  0  0  0  0  0
   54.5385   23.0612   43.4719 H   0  0  0  0  0  0  0  0  0  0  0  0
   56.3777   21.7115   42.4765 H   0  0  0  0  0  0  0  0  0  0  0  0
   58.6928   21.8881   43.3818 H   0  0  0  0  0  0  0  0  0  0  0  0
   59.1752   23.4097   45.2953 H   0  0  0  0  0  0  0  0  0  0  0  0
   55.9846   27.1267   46.4127 H   0  0  0  0  0  0  0  0  0  0  0  0
   57.2733   28.1837   47.1101 H   0  0  0  0  0  0  0  0  0  0  0  0
   58.9095   27.1316   44.4660 H   0  0  0  0  0  0  0  0  0  0  0  0
   57.5116   26.9175   43.3583 H   0  0  0  0  0  0  0  0  0  0  0  0
   58.4292   28.4618   43.3583 H   0  0  0  0  0  0  0  0  0  0  0  0
   58.3347   30.2197   46.5950 H   0  0  0  0  0  0  0  0  0  0  0  0
   59.2059   32.0084   48.0999 H   0  0  0  0  0  0  0  0  0  0  0  0
   57.7008   35.0258   45.3916 H   0  0  0  0  0  0  0  0  0  0  0  0
   56.8299   33.2412   43.8803 H   0  0  0  0  0  0  0  0  0  0  0  0
   52.8774   24.6648   43.5630 H   0  0  0  0  0  0  0  0  0  0  0  0
  1  2  1  0
  2  3  1  0
  3  4  2  0
  4  5  1  0
  5  6  2  0
  6  7  1  0
  7  8  1  0
  8  9  1  0
  9 10  2  0
  9 11  1  0
 11 12  2  0
 12 13  1  0
 13 14  2  0
 14 15  1  0
 15 16  2  0
 16 17  1  0
 17 18  1  0
 18 19  2  0
 18 20  1  0
 20 21  1  0
 21 22  1  0
 21 23  1  0
 23 24  2  0
 23 25  1  0
 25 26  1  0
 26 27  2  0
 27 28  1  0
 28 29  2  0
 29 30  1  0
 29 31  1  0
 31 32  2  0
  7 33  2  0
 33  3  1  0
 16 11  1  0
 32 26  1  0
  1 34  1  0
  1 35  1  0
  1 36  1  0
  4 37  1  0
  5 38  1  0
  6 39  1  0
 12 40  1  0
 13 41  1  0
 14 42  1  0
 15 43  1  0
 20 44  1  0
 20 45  1  0
 22 46  1  0
 22 47  1  0
 22 48  1  0
 27 49  1  0
 28 50  1  0
 31 51  1  0
 32 52  1  0
 33 53  1  0
M  CHG  3   8  -1  17  -1  25  -1
M  END
>  <UniqueID>  (82) 
74

>  <SMILES>  (82) 
COc1cccc([N-]C(=O)c2ccccc2[N-]C(=O)CN(C)C(=O)[N-]c2ccc(F)cc2)c1

>  <Energy>  (82) 
64.3472347256114

>  <Genealogy>  (82) 
COc1cccc([N-]C(=O)c2ccccc2[N-]C(=O)CN(C)C(=O)[N-]c2ccc(F)cc2)c1 (protonated)
COc1cccc([N-]C(=O)c2ccccc2[N-]C(=O)CN(C)C(=O)[N-]c2ccc(F)cc2)c1 (3D coordinates assigned)
COc1cccc([N-]C(=O)c2ccccc2[N-]C(=O)CN(C)C(=O)[N-]c2ccc(F)cc2)c1 (optimized conformer: 64.3472347256114 kcal/mol)

>  <smiles>  (82) 
COc1cccc(NC(=O)c2ccccc2NC(=O)CN(C)C(=O)Nc2ccc(F)cc2)c1

>  <score_type>  (82) 
oracle

>  <origin>  (82) 
adg

>  <m_score__min__energy>  (82) 
-13.93

>  <m_primary>  (82) 
energy

$$$$
82:0
     RDKit          3D

 33 34  0  0  0  0  0  0  0  0999 V2000
   58.7050   29.3830   44.8510 H   0  0  0  0  0  0  0  0  0  0  0  0
   58.7470   28.9290   45.7540 O   0  0  0  0  0  0  0  0  0  0  0  0
   58.1040   27.7210   46.0340 C   0  0  0  0  0  0  0  0  0  0  0  0
   58.8190   26.6330   46.5680 C   0  0  0  0  0  0  0  0  0  0  0  0
   60.7140   26.7060   46.8560 Br  0  0  0  0  0  0  0  0  0  0  0  0
   58.1510   25.4570   46.9100 C   0  0  0  0  0  0  0  0  0  0  0  0
   58.7206   24.6107   47.3216 H   0  0  0  0  0  0  0  0  0  0  0  0
   56.7630   25.3370   46.7370 C   0  0  0  0  0  0  0  0  0  0  0  0
   56.0900   24.0730   47.1340 C   0  0  0  0  0  0  0  0  0  0  0  0
   54.8510   23.9150   46.9660 O   0  0  0  0  0  0  0  0  0  0  0  0
   56.8220   23.0360   47.7010 O   0  0  0  0  0  0  0  0  0  0  0  0
   56.0500   26.4210   46.1830 C   0  0  0  0  0  0  0  0  0  0  0  0
   54.6750   26.3390   45.9840 O   0  0  0  0  0  0  0  0  0  0  0  0
   56.7180   27.5970   45.8070 C   0  0  0  0  0  0  0  0  0  0  0  0
   55.9470   28.6510   45.2080 N   0  0  0  0  0  0  0  0  0  0  0  0
   56.5490   29.8020   44.0570 S   0  0  0  0  0  0  0  0  0  0  0  0
   55.4860   30.0960   43.0380 O   0  0  0  0  0  0  0  0  0  0  0  0
   57.7540   29.2300   43.3650 O   0  0  0  0  0  0  0  0  0  0  0  0
   57.0180   31.2860   44.8720 C   0  0  0  0  0  0  0  0  0  0  0  0
   56.4126   31.6628   45.7096 H   0  0  0  0  0  0  0  0  0  0  0  0
   58.1020   31.9600   44.4840 C   0  0  0  0  0  0  0  0  0  0  0  0
   58.4185   31.8836   43.4333 H   0  0  0  0  0  0  0  0  0  0  0  0
   58.8980   32.8050   45.4000 C   0  0  0  0  0  0  0  0  0  0  0  0
   59.6990   32.1770   46.3680 C   0  0  0  0  0  0  0  0  0  0  0  0
   59.7301   31.0788   46.4223 H   0  0  0  0  0  0  0  0  0  0  0  0
   60.4570   32.9380   47.2630 C   0  0  0  0  0  0  0  0  0  0  0  0
   61.0914   32.4373   48.0093 H   0  0  0  0  0  0  0  0  0  0  0  0
   60.4100   34.3330   47.2110 C   0  0  0  0  0  0  0  0  0  0  0  0
   61.0133   34.9303   47.9104 H   0  0  0  0  0  0  0  0  0  0  0  0
   59.5970   34.9690   46.2710 C   0  0  0  0  0  0  0  0  0  0  0  0
   59.5547   36.0677   46.2380 H   0  0  0  0  0  0  0  0  0  0  0  0
   58.8360   34.2160   45.3710 C   0  0  0  0  0  0  0  0  0  0  0  0
   58.0050   34.8650   44.5170 F   0  0  0  0  0  0  0  0  0  0  0  0
  1  2  1  0
  2  3  1  0
  3  4  2  0
  4  5  1  0
  4  6  1  0
  6  7  1  0
  6  8  2  0
  8  9  1  0
  9 10  2  0
  9 11  1  0
  8 12  1  0
 12 13  1  0
 12 14  2  0
 14 15  1  0
 15 16  1  0
 16 17  2  0
 16 18  2  0
 16 19  1  0
 19 20  1  0
 19 21  2  0
 21 22  1  0
 21 23  1  0
 23 24  2  0
 24 25  1  0
 24 26  1  0
 26 27  1  0
 26 28  2  0
 28 29  1  0
 28 30  1  0
 30 31  1  0
 30 32  2  0
 32 33  1  0
 14  3  1  0
 32 23  1  0
M  CHG  3  11  -1  13  -1  15  -1
M  END
>  <UniqueID>  (83) 
75

>  <SMILES>  (83) 
O=C([O-])c1cc(Br)c(O)c([N-]S(=O)(=O)/C=C/c2ccccc2F)c1[O-]

>  <Energy>  (83) 
47.04932500803852

>  <Genealogy>  (83) 
O=C([O-])c1cc(Br)c(O)c([N-]S(=O)(=O)C=Cc2ccccc2F)c1[O-] (protonated)
O=C([O-])c1cc(Br)c(O)c([N-]S(=O)(=O)/C=C/c2ccccc2F)c1[O-] (cis-trans isomerization)
O=C([O-])c1cc(Br)c(O)c([N-]S(=O)(=O)/C=C/c2ccccc2F)c1[O-] (3D coordinates assigned)
O=C([O-])c1cc(Br)c(O)c([N-]S(=O)(=O)/C=C/c2ccccc2F)c1[O-] (optimized conformer: 47.04932500803852 kcal/mol)

>  <smiles>  (83) 
O=C(O)c1cc(Br)c(O)c(NS(=O)(=O)C=Cc2ccccc2F)c1O

>  <score_type>  (83) 
oracle

>  <origin>  (83) 
adg

>  <m_score__min__energy>  (83) 
-15.369999999999999

>  <m_primary>  (83) 
energy

$$$$
83:0
     RDKit          3D

 49 52  0  0  0  0  0  0  0  0999 V2000
   57.4020   24.5410   43.3910 O   0  0  0  0  0  0  0  0  0  0  0  0
   57.3830   23.9550   44.5080 C   0  0  0  0  0  0  0  0  0  0  0  0
   57.6000   22.5770   44.5460 C   0  0  0  0  0  0  0  0  0  0  0  0
   57.6010   21.9350   45.7760 C   0  0  0  0  0  0  0  0  0  0  0  0
   57.3940   22.6480   46.9070 N   0  0  0  0  0  0  0  0  0  0  0  0
   57.1780   23.9890   46.8710 C   0  0  0  0  0  0  0  0  0  0  0  0
   57.0030   24.6020   47.9580 O   0  0  0  0  0  0  0  0  0  0  0  0
   57.1590   24.6570   45.6680 N   0  0  0  0  0  0  0  0  0  0  0  0
   56.9180   26.1170   45.6110 C   0  0  0  0  0  0  0  0  0  0  0  0
   58.2230   26.8850   45.6560 C   0  0  0  0  0  0  0  0  0  0  0  0
   59.2140   26.5110   46.5800 C   0  0  0  0  0  0  0  0  0  0  0  0
   60.4480   27.1630   46.6000 C   0  0  0  0  0  0  0  0  0  0  0  0
   60.7050   28.1970   45.7020 C   0  0  0  0  0  0  0  0  0  0  0  0
   59.7290   28.5860   44.7820 C   0  0  0  0  0  0  0  0  0  0  0  0
   58.4830   27.9350   44.7460 C   0  0  0  0  0  0  0  0  0  0  0  0
   57.4590   28.3420   43.8300 N   0  0  0  0  0  0  0  0  0  0  0  0
   56.4480   29.7440   43.9860 S   0  0  0  0  0  0  0  0  0  0  0  0
   55.9370   30.0940   42.6160 O   0  0  0  0  0  0  0  0  0  0  0  0
   55.2680   29.4750   44.8750 O   0  0  0  0  0  0  0  0  0  0  0  0
   57.3910   31.0920   44.6190 C   0  0  0  0  0  0  0  0  0  0  0  0
   57.6690   32.2030   43.8100 C   0  0  0  0  0  0  0  0  0  0  0  0
   58.4330   33.2640   44.3070 C   0  0  0  0  0  0  0  0  0  0  0  0
   58.9440   33.2170   45.6160 C   0  0  0  0  0  0  0  0  0  0  0  0
   59.7140   34.2600   46.1520 O   0  0  0  0  0  0  0  0  0  0  0  0
   60.8430   34.1100   46.9730 C   0  0  0  0  0  0  0  0  0  0  0  0
   62.0800   33.8510   46.3690 C   0  0  0  0  0  0  0  0  0  0  0  0
   63.2320   33.7130   47.1480 C   0  0  0  0  0  0  0  0  0  0  0  0
   63.1590   33.8460   48.5370 C   0  0  0  0  0  0  0  0  0  0  0  0
   61.9330   34.1230   49.1480 C   0  0  0  0  0  0  0  0  0  0  0  0
   60.7790   34.2600   48.3720 C   0  0  0  0  0  0  0  0  0  0  0  0
   58.6370   32.1210   46.4300 C   0  0  0  0  0  0  0  0  0  0  0  0
   57.8670   31.0640   45.9360 C   0  0  0  0  0  0  0  0  0  0  0  0
   57.7671   22.0104   43.6181 H   0  0  0  0  0  0  0  0  0  0  0  0
   57.7696   20.8494   45.8314 H   0  0  0  0  0  0  0  0  0  0  0  0
   56.3907   26.3583   44.6763 H   0  0  0  0  0  0  0  0  0  0  0  0
   56.3111   26.4062   46.4816 H   0  0  0  0  0  0  0  0  0  0  0  0
   59.0154   25.6976   47.2934 H   0  0  0  0  0  0  0  0  0  0  0  0
   61.2180   26.8604   47.3250 H   0  0  0  0  0  0  0  0  0  0  0  0
   61.6789   28.7081   45.7178 H   0  0  0  0  0  0  0  0  0  0  0  0
   59.9364   29.4075   44.0805 H   0  0  0  0  0  0  0  0  0  0  0  0
   57.2846   32.2403   42.7800 H   0  0  0  0  0  0  0  0  0  0  0  0
   58.6348   34.1387   43.6712 H   0  0  0  0  0  0  0  0  0  0  0  0
   62.1450   33.7557   45.2751 H   0  0  0  0  0  0  0  0  0  0  0  0
   64.1978   33.4993   46.6669 H   0  0  0  0  0  0  0  0  0  0  0  0
   64.0659   33.7328   49.1492 H   0  0  0  0  0  0  0  0  0  0  0  0
   61.8764   34.2333   50.2410 H   0  0  0  0  0  0  0  0  0  0  0  0
   59.8171   34.4858   48.8555 H   0  0  0  0  0  0  0  0  0  0  0  0
   59.0043   32.0909   47.4664 H   0  0  0  0  0  0  0  0  0  0  0  0
   57.6339   30.2065   46.5844 H   0  0  0  0  0  0  0  0  0  0  0  0
  1  2  2  0
  2  3  1  0
  3  4  2  0
  4  5  1  0
  5  6  1  0
  6  7  2  0
  6  8  1  0
  8  9  1  0
  9 10  1  0
 10 11  2  0
 11 12  1  0
 12 13  2  0
 13 14  1  0
 14 15  2  0
 15 16  1  0
 16 17  1  0
 17 18  2  0
 17 19  2  0
 17 20  1  0
 20 21  2  0
 21 22  1  0
 22 23  2  0
 23 24  1  0
 24 25  1  0
 25 26  2  0
 26 27  1  0
 27 28  2  0
 28 29  1  0
 29 30  2  0
 23 31  1  0
 31 32  2  0
  8  2  1  0
 15 10  1  0
 32 20  1  0
 30 25  1  0
  3 33  1  0
  4 34  1  0
  9 35  1  0
  9 36  1  0
 11 37  1  0
 12 38  1  0
 13 39  1  0
 14 40  1  0
 21 41  1  0
 22 42  1  0
 26 43  1  0
 27 44  1  0
 28 45  1  0
 29 46  1  0
 30 47  1  0
 31 48  1  0
 32 49  1  0
M  CHG  2   5  -1  16  -1
M  END
>  <UniqueID>  (84) 
76

>  <SMILES>  (84) 
O=c1cc[n-]c(=O)n1Cc1ccccc1[N-]S(=O)(=O)c1ccc(Oc2ccccc2)cc1

>  <Energy>  (84) 
68.15906881919612

>  <Genealogy>  (84) 
O=c1cc[n-]c(=O)n1Cc1ccccc1[N-]S(=O)(=O)c1ccc(Oc2ccccc2)cc1 (protonated)
O=c1cc[n-]c(=O)n1Cc1ccccc1[N-]S(=O)(=O)c1ccc(Oc2ccccc2)cc1 (3D coordinates assigned)
O=c1cc[n-]c(=O)n1Cc1ccccc1[N-]S(=O)(=O)c1ccc(Oc2ccccc2)cc1 (optimized conformer: 68.15906881919612 kcal/mol)

>  <smiles>  (84) 
O=c1cc[nH]c(=O)n1Cc1ccccc1NS(=O)(=O)c1ccc(Oc2ccccc2)cc1

>  <score_type>  (84) 
oracle

>  <origin>  (84) 
adg

>  <m_score__min__energy>  (84) 
-13.09

>  <m_primary>  (84) 
energy

$$$$
84:0
     RDKit          3D

 54 56  0  0  0  0  0  0  0  0999 V2000
   60.7620   30.1060   46.0250 C   0  0  0  0  0  0  0  0  0  0  0  0
   59.7240   30.8640   46.6370 O   0  0  0  0  0  0  0  0  0  0  0  0
   59.7420   32.2600   46.7960 C   0  0  0  0  0  0  0  0  0  0  0  0
   60.6510   32.8910   47.6700 C   0  0  0  0  0  0  0  0  0  0  0  0
   60.6840   34.2830   47.7740 C   0  0  0  0  0  0  0  0  0  0  0  0
   59.8180   35.0640   47.0090 C   0  0  0  0  0  0  0  0  0  0  0  0
   58.9070   34.4540   46.1450 C   0  0  0  0  0  0  0  0  0  0  0  0
   58.8460   33.0530   46.0430 C   0  0  0  0  0  0  0  0  0  0  0  0
   57.8550   32.4430   45.1280 C   0  0  0  0  0  0  0  0  0  0  0  0
   56.6950   32.9350   45.0620 O   0  0  0  0  0  0  0  0  0  0  0  0
   58.1890   31.2860   44.3470 N   0  0  0  0  0  0  0  0  0  0  0  0
   57.2710   30.7060   43.3690 C   0  0  0  0  0  0  0  0  0  0  0  0
   57.1050   29.2040   43.6150 C   0  0  0  0  0  0  0  0  0  0  0  0
   56.1660   28.9570   44.7520 C   0  0  0  0  0  0  0  0  0  0  0  0
   55.1430   29.6810   44.8820 O   0  0  0  0  0  0  0  0  0  0  0  0
   56.3910   27.8400   45.6210 N   0  0  0  0  0  0  0  0  0  0  0  0
   57.6470   27.4270   46.1800 C   0  0  0  0  0  0  0  0  0  0  0  0
   58.3680   26.4150   45.5350 C   0  0  0  0  0  0  0  0  0  0  0  0
   59.6060   26.0000   46.0310 C   0  0  0  0  0  0  0  0  0  0  0  0
   60.1400   26.6020   47.1740 C   0  0  0  0  0  0  0  0  0  0  0  0
   59.4390   27.6280   47.8220 C   0  0  0  0  0  0  0  0  0  0  0  0
   60.1160   28.4170   49.2420 S   0  0  0  0  0  0  0  0  0  0  0  0
   60.9570   27.4270   49.9990 O   0  0  0  0  0  0  0  0  0  0  0  0
   60.9730   29.5780   48.8210 O   0  0  0  0  0  0  0  0  0  0  0  0
   58.8160   28.9800   50.2400 N   0  0  0  0  0  0  0  0  0  0  0  0
   58.5760   30.2320   50.4930 C   0  0  0  0  0  0  0  0  0  0  0  0
   57.7900   30.6780   51.6590 C   0  0  0  0  0  0  0  0  0  0  0  0
   57.8110   32.2100   51.5430 C   0  0  0  0  0  0  0  0  0  0  0  0
   58.5670   32.5630   50.2470 C   0  0  0  0  0  0  0  0  0  0  0  0
   59.0230   31.3060   49.6880 N   0  0  0  0  0  0  0  0  0  0  0  0
   58.2000   28.0480   47.3160 C   0  0  0  0  0  0  0  0  0  0  0  0
   61.3894   29.6478   46.8037 H   0  0  0  0  0  0  0  0  0  0  0  0
   60.3197   29.3169   45.3992 H   0  0  0  0  0  0  0  0  0  0  0  0
   61.3790   30.7676   45.3992 H   0  0  0  0  0  0  0  0  0  0  0  0
   61.3393   32.2820   48.2744 H   0  0  0  0  0  0  0  0  0  0  0  0
   61.3950   34.7650   48.4612 H   0  0  0  0  0  0  0  0  0  0  0  0
   59.8529   36.1607   47.0865 H   0  0  0  0  0  0  0  0  0  0  0  0
   58.2310   35.0748   45.5387 H   0  0  0  0  0  0  0  0  0  0  0  0
   59.1160   30.8230   44.4810 H   0  0  0  0  0  0  0  0  0  0  0  0
   56.2909   31.1977   43.4563 H   0  0  0  0  0  0  0  0  0  0  0  0
   57.6828   30.8581   42.3604 H   0  0  0  0  0  0  0  0  0  0  0  0
   56.7045   28.7310   42.7062 H   0  0  0  0  0  0  0  0  0  0  0  0
   58.0864   28.7755   43.8664 H   0  0  0  0  0  0  0  0  0  0  0  0
   57.9564   25.9431   44.6307 H   0  0  0  0  0  0  0  0  0  0  0  0
   60.1613   25.1986   45.5217 H   0  0  0  0  0  0  0  0  0  0  0  0
   61.1127   26.2696   47.5657 H   0  0  0  0  0  0  0  0  0  0  0  0
   56.7603   30.2942   51.6088 H   0  0  0  0  0  0  0  0  0  0  0  0
   58.1982   30.3156   52.6140 H   0  0  0  0  0  0  0  0  0  0  0  0
   56.7827   32.5978   51.4961 H   0  0  0  0  0  0  0  0  0  0  0  0
   58.3062   32.6592   52.4165 H   0  0  0  0  0  0  0  0  0  0  0  0
   57.8952   33.0727   49.5407 H   0  0  0  0  0  0  0  0  0  0  0  0
   59.4097   33.2411   50.4473 H   0  0  0  0  0  0  0  0  0  0  0  0
   59.5680   31.2300   48.8020 H   0  0  0  0  0  0  0  0  0  0  0  0
   57.6572   28.8675   47.8098 H   0  0  0  0  0  0  0  0  0  0  0  0
  1  2  1  0
  2  3  1  0
  3  4  2  0
  4  5  1  0
  5  6  2  0
  6  7  1  0
  7  8  2  0
  8  9  1  0
  9 10  2  0
  9 11  1  0
 11 12  1  0
 12 13  1  0
 13 14  1  0
 14 15  2  0
 14 16  1  0
 16 17  1  0
 17 18  2  0
 18 19  1  0
 19 20  2  0
 20 21  1  0
 21 22  1  0
 22 23  2  0
 22 24  2  0
 22 25  1  0
 25 26  2  3
 26 27  1  0
 27 28  1  0
 28 29  1  0
 29 30  1  0
 21 31  2  0
  8  3  1  0
 31 17  1  0
 30 26  1  0
  1 32  1  0
  1 33  1  0
  1 34  1  0
  4 35  1  0
  5 36  1  0
  6 37  1  0
  7 38  1  0
 11 39  1  0
 12 40  1  0
 12 41  1  0
 13 42  1  0
 13 43  1  0
 18 44  1  0
 19 45  1  0
 20 46  1  0
 27 47  1  0
 27 48  1  0
 28 49  1  0
 28 50  1  0
 29 51  1  0
 29 52  1  0
 30 53  1  0
 31 54  1  0
M  CHG  1  16  -1
M  END
>  <UniqueID>  (85) 
77

>  <SMILES>  (85) 
COc1ccccc1C(=O)NCCC(=O)[N-]c1cccc(S(=O)(=O)N=C2CCCN2)c1

>  <Energy>  (85) 
66.2142025781655

>  <Genealogy>  (85) 
COc1ccccc1C(=O)NCCC(=O)[N-]c1cccc(S(=O)(=O)N=C2CCCN2)c1 (protonated)
COc1ccccc1C(=O)NCCC(=O)[N-]c1cccc(S(=O)(=O)N=C2CCCN2)c1 (3D coordinates assigned)
COc1ccccc1C(=O)NCCC(=O)[N-]c1cccc(S(=O)(=O)N=C2CCCN2)c1 (nonaromatic ring conformer: 66.2142025781655 kcal/mol)

>  <smiles>  (85) 
COc1ccccc1C(=O)NCCC(=O)Nc1cccc(S(=O)(=O)N=C2CCCN2)c1

>  <score_type>  (85) 
oracle

>  <origin>  (85) 
adg

>  <m_score__min__energy>  (85) 
-10.65

>  <m_primary>  (85) 
energy

$$$$
85:0
     RDKit          3D

 41 43  0  0  0  0  0  0  0  0999 V2000
   55.5400   28.8400   44.9800 N   0  0  0  0  0  0  0  0  0  0  0  0
   56.6450   30.0110   44.3530 S   0  0  0  0  0  0  0  0  0  0  0  0
   56.9060   29.7240   42.9000 O   0  0  0  0  0  0  0  0  0  0  0  0
   56.0440   31.3840   44.4720 O   0  0  0  0  0  0  0  0  0  0  0  0
   58.1550   29.9360   45.2540 C   0  0  0  0  0  0  0  0  0  0  0  0
   59.2000   29.1110   44.8160 C   0  0  0  0  0  0  0  0  0  0  0  0
   60.4030   29.0640   45.5270 C   0  0  0  0  0  0  0  0  0  0  0  0
   60.5710   29.8480   46.6730 C   0  0  0  0  0  0  0  0  0  0  0  0
   59.5390   30.6900   47.1030 C   0  0  0  0  0  0  0  0  0  0  0  0
   59.7670   31.7130   48.5570 S   0  0  0  0  0  0  0  0  0  0  0  0
   61.3290   32.3830   47.9690 C   0  0  0  0  0  0  0  0  0  0  0  0
   62.5180   31.7680   48.3870 C   0  0  0  0  0  0  0  0  0  0  0  0
   63.7550   32.2750   47.9860 C   0  0  0  0  0  0  0  0  0  0  0  0
   63.8150   33.4010   47.1630 C   0  0  0  0  0  0  0  0  0  0  0  0
   62.6380   34.0170   46.7340 C   0  0  0  0  0  0  0  0  0  0  0  0
   61.3850   33.5150   47.1270 C   0  0  0  0  0  0  0  0  0  0  0  0
   60.1830   34.1540   46.6560 N   0  0  0  0  0  0  0  0  0  0  0  0
   59.1110   34.5040   47.5890 C   0  0  0  0  0  0  0  0  0  0  0  0
   57.8490   33.7090   47.2310 C   0  0  0  0  0  0  0  0  0  0  0  0
   57.4980   33.8750   45.8120 N   0  0  0  0  0  0  0  0  0  0  0  0
   58.5970   33.4390   44.9360 C   0  0  0  0  0  0  0  0  0  0  0  0
   59.8800   34.2280   45.2250 C   0  0  0  0  0  0  0  0  0  0  0  0
   58.3280   30.7260   46.4000 C   0  0  0  0  0  0  0  0  0  0  0  0
   54.6700   29.3560   45.2480 H   0  0  0  0  0  0  0  0  0  0  0  0
   59.0734   28.4991   43.9107 H   0  0  0  0  0  0  0  0  0  0  0  0
   61.2183   28.4097   45.1847 H   0  0  0  0  0  0  0  0  0  0  0  0
   61.5146   29.8028   47.2366 H   0  0  0  0  0  0  0  0  0  0  0  0
   62.4754   30.8802   49.0351 H   0  0  0  0  0  0  0  0  0  0  0  0
   64.6831   31.7871   48.3186 H   0  0  0  0  0  0  0  0  0  0  0  0
   64.7905   33.8032   46.8523 H   0  0  0  0  0  0  0  0  0  0  0  0
   62.6914   34.9023   46.0833 H   0  0  0  0  0  0  0  0  0  0  0  0
   59.4218   34.2579   48.6151 H   0  0  0  0  0  0  0  0  0  0  0  0
   58.8999   35.5814   47.5210 H   0  0  0  0  0  0  0  0  0  0  0  0
   58.0276   32.6427   47.4337 H   0  0  0  0  0  0  0  0  0  0  0  0
   57.0156   34.0866   47.8416 H   0  0  0  0  0  0  0  0  0  0  0  0
   57.2970   34.8850   45.6280 H   0  0  0  0  0  0  0  0  0  0  0  0
   58.7877   32.3689   45.1045 H   0  0  0  0  0  0  0  0  0  0  0  0
   58.3037   33.6197   43.8914 H   0  0  0  0  0  0  0  0  0  0  0  0
   60.7133   33.7973   44.6504 H   0  0  0  0  0  0  0  0  0  0  0  0
   59.7395   35.2790   44.9324 H   0  0  0  0  0  0  0  0  0  0  0  0
   57.5108   31.3753   46.7474 H   0  0  0  0  0  0  0  0  0  0  0  0
  1  2  1  0
  2  3  2  0
  2  4  2  0
  2  5  1  0
  5  6  2  0
  6  7  1  0
  7  8  2  0
  8  9  1  0
  9 10  1  0
 10 11  1  0
 11 12  2  0
 12 13  1  0
 13 14  2  0
 14 15  1  0
 15 16  2  0
 16 17  1  0
 17 18  1  0
 18 19  1  0
 19 20  1  0
 20 21  1  0
 21 22  1  0
  9 23  2  0
 23  5  1  0
 16 11  1  0
 22 17  1  0
  1 24  1  0
  6 25  1  0
  7 26  1  0
  8 27  1  0
 12 28  1  0
 13 29  1  0
 14 30  1  0
 15 31  1  0
 18 32  1  0
 18 33  1  0
 19 34  1  0
 19 35  1  0
 20 36  1  0
 21 37  1  0
 21 38  1  0
 22 39  1  0
 22 40  1  0
 23 41  1  0
M  CHG  1   1  -1
M  END
>  <UniqueID>  (86) 
78

>  <SMILES>  (86) 
[NH-]S(=O)(=O)c1cccc(Sc2ccccc2N2CCNCC2)c1

>  <Energy>  (86) 
41.00038481534929

>  <Genealogy>  (86) 
[NH-]S(=O)(=O)c1cccc(Sc2ccccc2N2CCNCC2)c1 (protonated)
[NH-]S(=O)(=O)c1cccc(Sc2ccccc2N2CCNCC2)c1 (3D coordinates assigned)
[NH-]S(=O)(=O)c1cccc(Sc2ccccc2N2CCNCC2)c1 (nonaromatic ring conformer: 41.00038481534929 kcal/mol)

>  <smiles>  (86) 
NS(=O)(=O)c1cccc(Sc2ccccc2N2CCNCC2)c1

>  <score_type>  (86) 
oracle

>  <origin>  (86) 
adg

>  <m_score__min__energy>  (86) 
-11.6

>  <m_primary>  (86) 
energy

$$$$
86:0
     RDKit          3D

 51 55  0  0  0  0  0  0  0  0999 V2000
   55.2566   21.1197   45.1889 H   0  0  0  0  0  0  0  0  0  0  0  0
   55.1430   22.2090   45.2920 C   0  0  0  0  0  0  0  0  0  0  0  0
   56.0990   23.0400   44.8010 N   0  0  0  0  0  0  0  0  0  0  0  0
   56.0020   24.3970   44.9030 C   0  0  0  0  0  0  0  0  0  0  0  0
   56.9280   25.1800   44.4240 N   0  0  0  0  0  0  0  0  0  0  0  0
   57.6920   26.1620   45.1440 C   0  0  0  0  0  0  0  0  0  0  0  0
   58.7360   25.8360   45.7720 O   0  0  0  0  0  0  0  0  0  0  0  0
   57.2230   27.5170   45.1740 N   0  0  0  0  0  0  0  0  0  0  0  0
   56.2410   27.6920   44.8630 H   0  0  0  0  0  0  0  0  0  0  0  0
   57.9650   28.6180   45.7250 C   0  0  0  0  0  0  0  0  0  0  0  0
   58.1500   29.8120   45.0060 C   0  0  0  0  0  0  0  0  0  0  0  0
   57.7358   29.9098   43.9917 H   0  0  0  0  0  0  0  0  0  0  0  0
   58.8580   30.8760   45.5740 C   0  0  0  0  0  0  0  0  0  0  0  0
   59.0045   31.8020   44.9986 H   0  0  0  0  0  0  0  0  0  0  0  0
   59.3840   30.7730   46.8730 C   0  0  0  0  0  0  0  0  0  0  0  0
   60.1380   31.9020   47.4760 C   0  0  0  0  0  0  0  0  0  0  0  0
   59.6220   33.2090   47.4280 C   0  0  0  0  0  0  0  0  0  0  0  0
   58.6554   33.3978   46.9381 H   0  0  0  0  0  0  0  0  0  0  0  0
   60.3300   34.2690   47.9990 C   0  0  0  0  0  0  0  0  0  0  0  0
   59.9177   35.2880   47.9581 H   0  0  0  0  0  0  0  0  0  0  0  0
   61.5580   34.0410   48.6210 C   0  0  0  0  0  0  0  0  0  0  0  0
   62.1090   34.8817   49.0678 H   0  0  0  0  0  0  0  0  0  0  0  0
   62.0950   32.7440   48.6800 C   0  0  0  0  0  0  0  0  0  0  0  0
   63.3990   32.5010   49.3360 C   0  0  0  0  0  0  0  0  0  0  0  0
   63.6380   31.4250   50.1330 N   0  0  0  0  0  0  0  0  0  0  0  0
   64.9140   31.6050   50.5040 C   0  0  0  0  0  0  0  0  0  0  0  0
   65.6920   30.7920   51.3370 C   0  0  0  0  0  0  0  0  0  0  0  0
   65.1470   29.5240   51.9200 C   0  0  0  0  0  0  0  0  0  0  0  0
   65.1730   29.5844   53.0180 H   0  0  0  0  0  0  0  0  0  0  0  0
   64.1088   29.3830   51.5850 H   0  0  0  0  0  0  0  0  0  0  0  0
   65.7591   28.6736   51.5850 H   0  0  0  0  0  0  0  0  0  0  0  0
   67.0300   31.1880   51.5580 C   0  0  0  0  0  0  0  0  0  0  0  0
   67.6850   30.5687   52.1884 H   0  0  0  0  0  0  0  0  0  0  0  0
   67.5340   32.3730   50.9760 C   0  0  0  0  0  0  0  0  0  0  0  0
   68.5750   32.6742   51.1648 H   0  0  0  0  0  0  0  0  0  0  0  0
   66.7140   33.1700   50.1570 C   0  0  0  0  0  0  0  0  0  0  0  0
   67.0928   34.0963   49.7004 H   0  0  0  0  0  0  0  0  0  0  0  0
   65.4050   32.7440   49.9450 C   0  0  0  0  0  0  0  0  0  0  0  0
   64.4640   33.3380   49.1970 N   0  0  0  0  0  0  0  0  0  0  0  0
   61.3780   31.6800   48.1040 C   0  0  0  0  0  0  0  0  0  0  0  0
   61.7915   30.6615   48.1448 H   0  0  0  0  0  0  0  0  0  0  0  0
   59.1780   29.5850   47.5980 C   0  0  0  0  0  0  0  0  0  0  0  0
   59.5785   29.4913   48.6182 H   0  0  0  0  0  0  0  0  0  0  0  0
   58.4680   28.5230   47.0310 C   0  0  0  0  0  0  0  0  0  0  0  0
   58.3022   27.6049   47.6138 H   0  0  0  0  0  0  0  0  0  0  0  0
   54.8820   24.9590   45.5350 C   0  0  0  0  0  0  0  0  0  0  0  0
   54.7490   26.3400   45.6510 O   0  0  0  0  0  0  0  0  0  0  0  0
   53.8890   24.1200   46.0490 C   0  0  0  0  0  0  0  0  0  0  0  0
   53.0085   24.5501   46.5486 H   0  0  0  0  0  0  0  0  0  0  0  0
   54.0170   22.7350   45.9270 C   0  0  0  0  0  0  0  0  0  0  0  0
   53.2399   22.0667   46.3264 H   0  0  0  0  0  0  0  0  0  0  0  0
  1  2  1  0
  2  3  1  0
  3  4  1  0
  4  5  2  0
  5  6  1  0
  6  7  2  0
  6  8  1  0
  8  9  1  0
  8 10  1  0
 10 11  2  0
 11 12  1  0
 11 13  1  0
 13 14  1  0
 13 15  2  0
 15 16  1  0
 16 17  2  0
 17 18  1  0
 17 19  1  0
 19 20  1  0
 19 21  2  0
 21 22  1  0
 21 23  1  0
 23 24  1  0
 24 25  2  0
 25 26  1  0
 26 27  2  0
 27 28  1  0
 28 29  1  0
 28 30  1  0
 28 31  1  0
 27 32  1  0
 32 33  1  0
 32 34  2  0
 34 35  1  0
 34 36  1  0
 36 37  1  0
 36 38  2  0
 38 39  1  0
 23 40  2  0
 40 41  1  0
 15 42  1  0
 42 43  1  0
 42 44  2  0
 44 45  1  0
  4 46  1  0
 46 47  1  0
 46 48  2  0
 48 49  1  0
 48 50  1  0
 50 51  1  0
 50  2  2  0
 44 10  1  0
 40 16  1  0
 39 24  1  0
 38 26  1  0
M  CHG  3   3  -1  39  -1  47  -1
M  END
>  <UniqueID>  (87) 
79

>  <SMILES>  (87) 
Cc1cccc2[n-]c(-c3cccc(-c4ccc(NC(=O)/N=c5\[n-]cccc5[O-])cc4)c3)nc12

>  <Energy>  (87) 
104.81315133531803

>  <Genealogy>  (87) 
Cc1cccc2[n-]c(-c3cccc(-c4ccc(NC(=O)N=c5[n-]cccc5[O-])cc4)c3)nc12 (protonated)
Cc1cccc2[n-]c(-c3cccc(-c4ccc(NC(=O)/N=c5\[n-]cccc5[O-])cc4)c3)nc12 (cis-trans isomerization)
Cc1cccc2[n-]c(-c3cccc(-c4ccc(NC(=O)/N=c5\[n-]cccc5[O-])cc4)c3)nc12 (3D coordinates assigned)
Cc1cccc2[n-]c(-c3cccc(-c4ccc(NC(=O)/N=c5\[n-]cccc5[O-])cc4)c3)nc12 (optimized conformer: 104.81315133531803 kcal/mol)

>  <smiles>  (87) 
Cc1cccc2[nH]c(-c3cccc(-c4ccc(NC(=O)N=c5[nH]cccc5O)cc4)c3)nc12

>  <score_type>  (87) 
oracle

>  <origin>  (87) 
adg

>  <m_score__min__energy>  (87) 
-14.109999999999999

>  <m_primary>  (87) 
energy

$$$$
87:0
     RDKit          3D

 42 44  0  0  0  0  0  0  0  0999 V2000
   57.6220   34.7500   44.8410 O   0  0  0  0  0  0  0  0  0  0  0  0
   57.9110   33.5790   45.2130 C   0  0  0  0  0  0  0  0  0  0  0  0
   57.0400   32.4340   44.7850 C   0  0  0  0  0  0  0  0  0  0  0  0
   57.2590   31.2850   45.6070 O   0  0  0  0  0  0  0  0  0  0  0  0
   57.8580   30.0830   45.1870 C   0  0  0  0  0  0  0  0  0  0  0  0
   57.1370   29.0960   44.4820 C   0  0  0  0  0  0  0  0  0  0  0  0
   57.7780   27.9430   44.0230 C   0  0  0  0  0  0  0  0  0  0  0  0
   59.1420   27.7630   44.2510 C   0  0  0  0  0  0  0  0  0  0  0  0
   59.8660   28.7260   44.9570 C   0  0  0  0  0  0  0  0  0  0  0  0
   59.2290   29.8730   45.4520 C   0  0  0  0  0  0  0  0  0  0  0  0
   60.0150   30.8290   46.1780 N   0  0  0  0  0  0  0  0  0  0  0  0
   60.4490   30.6750   47.5340 C   0  0  0  0  0  0  0  0  0  0  0  0
   61.5880   30.1990   47.7930 O   0  0  0  0  0  0  0  0  0  0  0  0
   59.5820   31.1310   48.6250 C   0  0  0  0  0  0  0  0  0  0  0  0
   59.4830   30.5590   49.8780 C   0  0  0  0  0  0  0  0  0  0  0  0
   58.5560   31.3180   50.5590 C   0  0  0  0  0  0  0  0  0  0  0  0
   58.1490   32.3030   49.6820 C   0  0  0  0  0  0  0  0  0  0  0  0
   58.7770   32.1650   48.5370 O   0  0  0  0  0  0  0  0  0  0  0  0
   59.0290   33.3380   46.0830 N   0  0  0  0  0  0  0  0  0  0  0  0
   59.9160   34.3690   46.5540 C   0  0  0  0  0  0  0  0  0  0  0  0
   59.6620   35.5800   46.3080 O   0  0  0  0  0  0  0  0  0  0  0  0
   61.1150   34.0340   47.3590 C   0  0  0  0  0  0  0  0  0  0  0  0
   62.2960   33.5650   46.7500 C   0  0  0  0  0  0  0  0  0  0  0  0
   63.4160   33.2480   47.5260 C   0  0  0  0  0  0  0  0  0  0  0  0
   63.3750   33.4060   48.9130 C   0  0  0  0  0  0  0  0  0  0  0  0
   62.2170   33.8870   49.5270 C   0  0  0  0  0  0  0  0  0  0  0  0
   61.0950   34.2020   48.7570 C   0  0  0  0  0  0  0  0  0  0  0  0
   55.9852   32.7361   44.8636 H   0  0  0  0  0  0  0  0  0  0  0  0
   57.2913   32.1733   43.7463 H   0  0  0  0  0  0  0  0  0  0  0  0
   56.0625   29.2356   44.2925 H   0  0  0  0  0  0  0  0  0  0  0  0
   57.2060   27.1757   43.4808 H   0  0  0  0  0  0  0  0  0  0  0  0
   59.6479   26.8618   43.8744 H   0  0  0  0  0  0  0  0  0  0  0  0
   60.9436   28.5838   45.1260 H   0  0  0  0  0  0  0  0  0  0  0  0
   60.0295   29.6814   50.2538 H   0  0  0  0  0  0  0  0  0  0  0  0
   58.2103   31.1689   51.5926 H   0  0  0  0  0  0  0  0  0  0  0  0
   57.4099   33.0857   49.9081 H   0  0  0  0  0  0  0  0  0  0  0  0
   59.1670   32.3600   46.4260 H   0  0  0  0  0  0  0  0  0  0  0  0
   62.3375   33.4473   45.6571 H   0  0  0  0  0  0  0  0  0  0  0  0
   64.3306   32.8736   47.0429 H   0  0  0  0  0  0  0  0  0  0  0  0
   64.2551   33.1515   49.5218 H   0  0  0  0  0  0  0  0  0  0  0  0
   62.1882   34.0181   50.6188 H   0  0  0  0  0  0  0  0  0  0  0  0
   60.1876   34.5847   49.2470 H   0  0  0  0  0  0  0  0  0  0  0  0
  1  2  2  0
  2  3  1  0
  3  4  1  0
  4  5  1  0
  5  6  2  0
  6  7  1  0
  7  8  2  0
  8  9  1  0
  9 10  2  0
 10 11  1  0
 11 12  1  0
 12 13  2  0
 12 14  1  0
 14 15  2  0
 15 16  1  0
 16 17  2  0
 17 18  1  0
  2 19  1  0
 19 20  1  0
 20 21  2  0
 20 22  1  0
 22 23  2  0
 23 24  1  0
 24 25  2  0
 25 26  1  0
 26 27  2  0
 10  5  1  0
 18 14  1  0
 27 22  1  0
  3 28  1  0
  3 29  1  0
  6 30  1  0
  7 31  1  0
  8 32  1  0
  9 33  1  0
 15 34  1  0
 16 35  1  0
 17 36  1  0
 19 37  1  0
 23 38  1  0
 24 39  1  0
 25 40  1  0
 26 41  1  0
 27 42  1  0
M  CHG  1  11  -1
M  END
>  <UniqueID>  (88) 
80

>  <SMILES>  (88) 
O=C(COc1ccccc1[N-]C(=O)c1ccco1)NC(=O)c1ccccc1

>  <Energy>  (88) 
76.95748414125127

>  <Genealogy>  (88) 
O=C(COc1ccccc1[N-]C(=O)c1ccco1)NC(=O)c1ccccc1 (protonated)
O=C(COc1ccccc1[N-]C(=O)c1ccco1)NC(=O)c1ccccc1 (3D coordinates assigned)
O=C(COc1ccccc1[N-]C(=O)c1ccco1)NC(=O)c1ccccc1 (optimized conformer: 76.95748414125127 kcal/mol)

>  <smiles>  (88) 
O=C(COc1ccccc1NC(=O)c1ccco1)NC(=O)c1ccccc1

>  <score_type>  (88) 
oracle

>  <origin>  (88) 
adg

>  <m_score__min__energy>  (88) 
-11.17

>  <m_primary>  (88) 
energy

$$$$
88:0
     RDKit          3D

 46 50  0  0  0  0  0  0  0  0999 V2000
   55.1790   29.7100   43.5540 N   0  0  0  0  0  0  0  0  0  0  0  0
   56.1690   29.7380   44.1550 C   0  0  0  0  0  0  0  0  0  0  0  0
   57.4030   29.7720   44.9050 C   0  0  0  0  0  0  0  0  0  0  0  0
   58.1130   28.5930   45.2640 C   0  0  0  0  0  0  0  0  0  0  0  0
   59.3170   28.6820   45.9390 N   0  0  0  0  0  0  0  0  0  0  0  0
   59.8470   29.9040   46.2930 C   0  0  0  0  0  0  0  0  0  0  0  0
   60.9560   29.9880   46.8890 O   0  0  0  0  0  0  0  0  0  0  0  0
   59.1410   31.0590   45.9710 C   0  0  0  0  0  0  0  0  0  0  0  0
   57.9490   30.9960   45.2900 C   0  0  0  0  0  0  0  0  0  0  0  0
   57.4440   32.2300   45.0620 N   0  0  0  0  0  0  0  0  0  0  0  0
   58.3380   33.0790   45.6120 C   0  0  0  0  0  0  0  0  0  0  0  0
   58.2690   34.4710   45.6350 C   0  0  0  0  0  0  0  0  0  0  0  0
   59.3170   35.1720   46.2600 C   0  0  0  0  0  0  0  0  0  0  0  0
   60.4010   34.4750   46.8410 C   0  0  0  0  0  0  0  0  0  0  0  0
   60.4480   33.0700   46.8040 C   0  0  0  0  0  0  0  0  0  0  0  0
   59.3960   32.3990   46.1790 C   0  0  0  0  0  0  0  0  0  0  0  0
   60.0670   27.4410   46.1950 C   0  0  0  0  0  0  0  0  0  0  0  0
   59.1340   26.3420   46.7100 C   0  0  0  0  0  0  0  0  0  0  0  0
   57.9300   26.2110   45.8750 N   0  0  0  0  0  0  0  0  0  0  0  0
   57.0960   25.0360   45.9900 C   0  0  0  0  0  0  0  0  0  0  0  0
   57.5370   23.9240   45.5890 O   0  0  0  0  0  0  0  0  0  0  0  0
   55.7810   25.1130   46.5720 N   0  0  0  0  0  0  0  0  0  0  0  0
   54.8110   24.0530   46.4930 C   0  0  0  0  0  0  0  0  0  0  0  0
   53.7000   24.1980   45.6490 C   0  0  0  0  0  0  0  0  0  0  0  0
   52.7550   23.1730   45.5370 C   0  0  0  0  0  0  0  0  0  0  0  0
   52.9220   21.9860   46.2570 C   0  0  0  0  0  0  0  0  0  0  0  0
   51.7390   20.6990   46.1150 Cl  0  0  0  0  0  0  0  0  0  0  0  0
   54.0380   21.8230   47.0830 C   0  0  0  0  0  0  0  0  0  0  0  0
   54.9830   22.8470   47.1980 C   0  0  0  0  0  0  0  0  0  0  0  0
   57.5990   27.2250   44.8610 C   0  0  0  0  0  0  0  0  0  0  0  0
   56.5590   32.4800   44.5670 H   0  0  0  0  0  0  0  0  0  0  0  0
   57.4221   35.0047   45.1790 H   0  0  0  0  0  0  0  0  0  0  0  0
   59.2925   36.2711   46.2967 H   0  0  0  0  0  0  0  0  0  0  0  0
   61.2138   35.0358   47.3256 H   0  0  0  0  0  0  0  0  0  0  0  0
   61.2867   32.5178   47.2531 H   0  0  0  0  0  0  0  0  0  0  0  0
   60.5393   27.1050   45.2601 H   0  0  0  0  0  0  0  0  0  0  0  0
   60.8329   27.6415   46.9586 H   0  0  0  0  0  0  0  0  0  0  0  0
   59.6756   25.3846   46.7062 H   0  0  0  0  0  0  0  0  0  0  0  0
   58.8162   26.6128   47.7277 H   0  0  0  0  0  0  0  0  0  0  0  0
   55.5250   25.9450   47.1450 H   0  0  0  0  0  0  0  0  0  0  0  0
   53.5710   25.1249   45.0708 H   0  0  0  0  0  0  0  0  0  0  0  0
   51.8802   23.3007   44.8824 H   0  0  0  0  0  0  0  0  0  0  0  0
   54.1730   20.8865   47.6440 H   0  0  0  0  0  0  0  0  0  0  0  0
   55.8642   22.7096   47.8419 H   0  0  0  0  0  0  0  0  0  0  0  0
   58.0575   26.9375   43.9033 H   0  0  0  0  0  0  0  0  0  0  0  0
   56.5043   27.2785   44.7670 H   0  0  0  0  0  0  0  0  0  0  0  0
  1  2  3  0
  2  3  1  0
  3  4  2  0
  4  5  1  0
  5  6  1  0
  6  7  2  0
  6  8  1  0
  8  9  2  0
  9 10  1  0
 10 11  1  0
 11 12  2  0
 12 13  1  0
 13 14  2  0
 14 15  1  0
 15 16  2  0
  5 17  1  0
 17 18  1  0
 18 19  1  0
 19 20  1  0
 20 21  2  0
 20 22  1  0
 22 23  1  0
 23 24  2  0
 24 25  1  0
 25 26  2  0
 26 27  1  0
 26 28  1  0
 28 29  2  0
 19 30  1  0
  9  3  1  0
 16 11  1  0
 29 23  1  0
 30  4  1  0
 16  8  1  0
 10 31  1  0
 12 32  1  0
 13 33  1  0
 14 34  1  0
 15 35  1  0
 17 36  1  0
 17 37  1  0
 18 38  1  0
 18 39  1  0
 22 40  1  0
 24 41  1  0
 25 42  1  0
 28 43  1  0
 29 44  1  0
 30 45  1  0
 30 46  1  0
M  END
>  <UniqueID>  (89) 
81

>  <SMILES>  (89) 
N#Cc1c2n(c(=O)c3c1[nH]c1ccccc13)CCN(C(=O)Nc1ccc(Cl)cc1)C2

>  <Energy>  (89) 
104.4331456764223

>  <Genealogy>  (89) 
N#Cc1c2n(c(=O)c3c1[nH]c1ccccc13)CCN(C(=O)Nc1ccc(Cl)cc1)C2 (3D coordinates assigned)
N#Cc1c2n(c(=O)c3c1[nH]c1ccccc13)CCN(C(=O)Nc1ccc(Cl)cc1)C2 (nonaromatic ring conformer: 104.4331456764223 kcal/mol)

>  <smiles>  (89) 
N#Cc1c2n(c(=O)c3c1[nH]c1ccccc13)CCN(C(=O)Nc1ccc(Cl)cc1)C2

>  <score_type>  (89) 
oracle

>  <origin>  (89) 
adg

>  <m_score__min__energy>  (89) 
-8.0600000000000005

>  <m_primary>  (89) 
energy

$$$$
89:0
     RDKit          3D

 26 28  0  0  1  0  0  0  0  0999 V2000
   55.6600   26.2050   46.0300 O   0  0  0  0  0  0  0  0  0  0  0  0
   56.5010   27.0960   45.7590 C   0  0  0  0  0  0  0  0  0  0  0  0
   56.1730   28.3280   45.3470 N   0  0  0  0  0  0  0  0  0  0  0  0
   57.0670   29.2880   45.0550 C   0  0  0  0  0  0  0  0  0  0  0  0
   56.7230   30.4640   44.6610 N   0  0  0  0  0  0  0  0  0  0  0  0
   57.4600   31.6410   44.9780 C   0  0  0  0  0  0  0  0  0  0  0  0
   57.7840   32.0290   46.2460 C   0  0  0  0  0  0  0  0  0  0  0  0
   58.4980   33.1720   46.5220 C   0  0  0  0  0  0  0  0  0  0  0  0
   58.8980   33.9580   45.4430 C   0  0  0  0  0  0  0  0  0  0  0  0
   58.5870   33.5960   44.1330 C   0  0  0  0  0  0  0  0  0  0  0  0
   57.8620   32.4290   43.8940 C   0  0  0  0  0  0  0  0  0  0  0  0
   57.4520   31.9460   42.2410 Cl  0  0  0  0  0  0  0  0  0  0  0  0
   58.3670   28.9840   45.1860 N   0  0  0  0  0  0  0  0  0  0  0  0
   58.7670   27.7680   45.5930 C   0  0  0  0  0  0  0  0  0  0  0  0
   60.0120   27.2680   45.7880 N   0  0  0  0  0  0  0  0  0  0  0  0
   59.8520   25.9940   46.2020 C   0  0  0  0  0  0  0  0  0  0  0  0
   58.5380   25.6930   46.2680 N   0  0  0  0  0  0  0  0  0  0  0  0
   57.8430   26.7850   45.8930 C   0  0  0  0  0  0  0  0  0  0  0  0
   55.1490   28.5590   45.2470 H   0  0  0  0  0  0  0  0  0  0  0  0
   57.4589   31.3982   47.0865 H   0  0  0  0  0  0  0  0  0  0  0  0
   58.7441   33.4551   47.5561 H   0  0  0  0  0  0  0  0  0  0  0  0
   59.4689   34.8799   45.6280 H   0  0  0  0  0  0  0  0  0  0  0  0
   58.9117   34.2273   43.2928 H   0  0  0  0  0  0  0  0  0  0  0  0
   59.1010   29.6920   44.9720 H   0  0  0  0  0  0  0  0  0  0  0  0
   60.9120   27.7630   45.6480 H   0  0  0  0  0  0  0  0  0  0  0  0
   60.6713   25.3028   46.4492 H   0  0  0  0  0  0  0  0  0  0  0  0
  1  2  2  0
  2  3  1  0
  3  4  1  0
  4  5  2  0
  5  6  1  0
  6  7  2  0
  7  8  1  0
  8  9  2  0
  9 10  1  0
 10 11  2  0
 11 12  1  0
  4 13  1  0
 13 14  1  0
 14 15  1  0
 15 16  1  0
 16 17  2  0
 17 18  1  0
 18  2  1  0
 11  6  1  0
 18 14  2  0
  3 19  1  0
  7 20  1  0
  8 21  1  0
  9 22  1  0
 10 23  1  0
 13 24  1  0
 15 25  1  0
 16 26  1  0
M  END
>  <smiles>  (90) 
O=c1[nH]c(=Nc2ccccc2Cl)[nH]c2[nH]cnc12

>  <score_type>  (90) 
oracle

>  <origin>  (90) 
adg

>  <m_score__min__energy>  (90) 
-6.9000000000000004

>  <m_primary>  (90) 
energy

$$$$
90:0
     RDKit          3D

 67 72  0  0  0  0  0  0  0  0999 V2000
   61.9220   30.7200   46.7480 C   0  0  0  0  0  0  0  0  0  0  0  0
   61.4420   32.0020   47.2730 N   0  0  0  0  0  0  0  0  0  0  0  0
   62.3520   32.6500   48.1820 C   0  0  0  0  0  0  0  0  0  0  0  0
   63.6770   32.3560   48.2350 N   0  0  0  0  0  0  0  0  0  0  0  0
   64.2760   32.9130   49.3190 C   0  0  0  0  0  0  0  0  0  0  0  0
   65.6330   32.7930   49.6310 C   0  0  0  0  0  0  0  0  0  0  0  0
   66.1120   33.4020   50.8050 C   0  0  0  0  0  0  0  0  0  0  0  0
   67.8120   33.2760   51.2210 Cl  0  0  0  0  0  0  0  0  0  0  0  0
   65.2330   34.1110   51.6520 C   0  0  0  0  0  0  0  0  0  0  0  0
   63.8700   34.2140   51.3320 C   0  0  0  0  0  0  0  0  0  0  0  0
   63.4230   33.6090   50.1610 C   0  0  0  0  0  0  0  0  0  0  0  0
   61.8610   33.5270   49.5490 S   0  0  0  0  0  0  0  0  0  0  0  0
   60.4140   32.7470   46.4980 C   0  0  2  0  0  0  0  0  0  0  0  0
   60.8550   34.2310   46.3900 C   0  0  0  0  0  0  0  0  0  0  0  0
   59.8440   35.0770   45.6910 C   0  0  0  0  0  0  0  0  0  0  0  0
   60.0090   36.2860   45.6150 O   0  0  0  0  0  0  0  0  0  0  0  0
   58.6690   34.4380   45.0450 C   0  0  0  0  0  0  0  0  0  0  0  0
   57.9450   33.4490   45.9980 C   0  0  1  0  0  0  0  0  0  0  0  0
   56.9900   32.5890   45.1420 C   0  0  0  0  0  0  0  0  0  0  0  0
   57.7100   31.3620   44.5950 C   0  0  0  0  0  0  0  0  0  0  0  0
   57.9990   30.3710   45.7330 C   0  0  1  0  0  0  0  0  0  0  0  0
   59.0310   29.2630   45.3610 C   0  0  2  0  0  0  0  0  0  0  0  0
   58.6200   28.4500   44.1090 C   0  0  0  0  0  0  0  0  0  0  0  0
   57.8380   27.2400   44.6050 C   0  0  0  0  0  0  0  0  0  0  0  0
   58.3060   27.0710   46.0000 C   0  0  0  0  0  0  0  0  0  0  0  0
   58.0270   26.0900   46.6730 O   0  0  0  0  0  0  0  0  0  0  0  0
   59.1660   28.1930   46.4930 C   0  0  1  0  0  0  0  0  0  0  0  0
   60.6200   27.6840   46.5960 C   0  0  0  0  0  0  0  0  0  0  0  0
   58.6620   28.6980   47.8730 C   0  0  0  0  0  0  0  0  0  0  0  0
   59.0590   30.1590   48.0910 C   0  0  0  0  0  0  0  0  0  0  0  0
   58.3440   31.1000   47.0850 C   0  0  1  0  0  0  0  0  0  0  0  0
   58.8970   32.6020   46.9850 C   0  0  1  0  0  0  0  0  0  0  0  0
   58.7380   33.2430   48.3970 C   0  0  0  0  0  0  0  0  0  0  0  0
   62.1723   30.0516   47.5850 H   0  0  0  0  0  0  0  0  0  0  0  0
   61.1358   30.2583   46.1325 H   0  0  0  0  0  0  0  0  0  0  0  0
   62.8181   30.8882   46.1325 H   0  0  0  0  0  0  0  0  0  0  0  0
   64.1710   31.7320   47.5580 H   0  0  0  0  0  0  0  0  0  0  0  0
   66.3129   32.2335   48.9717 H   0  0  0  0  0  0  0  0  0  0  0  0
   65.6178   34.5850   52.5670 H   0  0  0  0  0  0  0  0  0  0  0  0
   63.1747   34.7577   51.9884 H   0  0  0  0  0  0  0  0  0  0  0  0
   60.3785   32.2692   45.5078 H   0  0  0  0  0  0  0  0  0  0  0  0
   61.0074   34.6286   47.4042 H   0  0  0  0  0  0  0  0  0  0  0  0
   61.7830   34.2623   45.8002 H   0  0  0  0  0  0  0  0  0  0  0  0
   57.9599   35.2228   44.7428 H   0  0  0  0  0  0  0  0  0  0  0  0
   59.0285   33.8686   44.1752 H   0  0  0  0  0  0  0  0  0  0  0  0
   57.3683   34.0348   46.7290 H   0  0  0  0  0  0  0  0  0  0  0  0
   56.1432   32.2629   45.7638 H   0  0  0  0  0  0  0  0  0  0  0  0
   56.6329   33.1946   44.2960 H   0  0  0  0  0  0  0  0  0  0  0  0
   57.0762   30.8744   43.8396 H   0  0  0  0  0  0  0  0  0  0  0  0
   58.6608   31.6750   44.1388 H   0  0  0  0  0  0  0  0  0  0  0  0
   57.0555   29.8298   45.8970 H   0  0  0  0  0  0  0  0  0  0  0  0
   59.9656   29.8173   45.1899 H   0  0  0  0  0  0  0  0  0  0  0  0
   59.5151   28.1228   43.5596 H   0  0  0  0  0  0  0  0  0  0  0  0
   58.0107   29.0598   43.4257 H   0  0  0  0  0  0  0  0  0  0  0  0
   58.0691   26.3491   44.0025 H   0  0  0  0  0  0  0  0  0  0  0  0
   56.7488   27.3761   44.5330 H   0  0  0  0  0  0  0  0  0  0  0  0
   60.9000   27.5860   47.6552 H   0  0  0  0  0  0  0  0  0  0  0  0
   60.7012   26.7040   46.1031 H   0  0  0  0  0  0  0  0  0  0  0  0
   61.2947   28.3994   46.1031 H   0  0  0  0  0  0  0  0  0  0  0  0
   59.1060   28.0806   48.6678 H   0  0  0  0  0  0  0  0  0  0  0  0
   57.5650   28.6216   47.8988 H   0  0  0  0  0  0  0  0  0  0  0  0
   60.1468   30.2569   47.9605 H   0  0  0  0  0  0  0  0  0  0  0  0
   58.7584   30.4497   49.1084 H   0  0  0  0  0  0  0  0  0  0  0  0
   57.3671   31.3212   47.5397 H   0  0  0  0  0  0  0  0  0  0  0  0
   58.9268   32.4820   49.1685 H   0  0  0  0  0  0  0  0  0  0  0  0
   59.4592   34.0659   48.5094 H   0  0  0  0  0  0  0  0  0  0  0  0
   57.7158   33.6334   48.5094 H   0  0  0  0  0  0  0  0  0  0  0  0
  1  2  1  0
  2  3  1  0
  3  4  2  0
  4  5  1  0
  5  6  2  0
  6  7  1  0
  7  8  1  0
  7  9  2  0
  9 10  1  0
 10 11  2  0
 11 12  1  0
  2 13  1  0
 13 14  1  0
 14 15  1  0
 15 16  2  0
 15 17  1  0
 17 18  1  0
 18 19  1  0
 19 20  1  0
 20 21  1  0
 21 22  1  0
 22 23  1  0
 23 24  1  0
 24 25  1  0
 25 26  2  0
 25 27  1  0
 27 28  1  1
 27 29  1  0
 29 30  1  0
 30 31  1  0
 31 32  1  0
 32 33  1  1
 12  3  1  0
 32 13  1  0
 11  5  1  0
 32 18  1  0
 31 21  1  0
 27 22  1  0
  1 34  1  0
  1 35  1  0
  1 36  1  0
  4 37  1  0
  6 38  1  0
  9 39  1  0
 10 40  1  0
 13 41  1  6
 14 42  1  0
 14 43  1  0
 17 44  1  0
 17 45  1  0
 18 46  1  1
 19 47  1  0
 19 48  1  0
 20 49  1  0
 20 50  1  0
 21 51  1  1
 22 52  1  6
 23 53  1  0
 23 54  1  0
 24 55  1  0
 24 56  1  0
 28 57  1  0
 28 58  1  0
 28 59  1  0
 29 60  1  0
 29 61  1  0
 30 62  1  0
 30 63  1  0
 31 64  1  1
 33 65  1  0
 33 66  1  0
 33 67  1  0
M  CHG  1   4   1
M  END
>  <UniqueID>  (91) 
82

>  <SMILES>  (91) 
CN(c1[nH+]c2cc(Cl)ccc2s1)[C@@H]1CC(=O)C[C@H]2CCC3C4CCC(=O)C4(C)CCC3C21C

>  <Energy>  (91) 
147.02068571723015

>  <Genealogy>  (91) 
CN(c1[nH+]c2cc(Cl)ccc2s1)C1CC(=O)CC2CCC3C4CCC(=O)C4(C)CCC3C21C (protonated)
CN(c1[nH+]c2cc(Cl)ccc2s1)[C@@H]1CC(=O)C[C@H]2CCC3C4CCC(=O)C4(C)CCC3C21C (chirality)
CN(c1[nH+]c2cc(Cl)ccc2s1)[C@@H]1CC(=O)C[C@H]2CCC3C4CCC(=O)C4(C)CCC3C21C (3D coordinates assigned)
CN(c1[nH+]c2cc(Cl)ccc2s1)[C@@H]1CC(=O)C[C@H]2CCC3C4CCC(=O)C4(C)CCC3C21C (nonaromatic ring conformer: 147.02068571723015 kcal/mol)

>  <smiles>  (91) 
CN(c1nc2cc(Cl)ccc2s1)C1CC(=O)CC2CCC3C4CCC(=O)C4(C)CCC3C21C

>  <score_type>  (91) 
oracle

>  <origin>  (91) 
adg

>  <m_score__min__energy>  (91) 
-10.210000000000001

>  <m_primary>  (91) 
energy

$$$$
91:0
     RDKit          3D

 42 44  0  0  0  0  0  0  0  0999 V2000
   57.0010   20.8820   47.0530 C   0  0  0  0  0  0  0  0  0  0  0  0
   57.3070   22.2590   47.0640 O   0  0  0  0  0  0  0  0  0  0  0  0
   57.4810   22.7320   45.7420 C   0  0  0  0  0  0  0  0  0  0  0  0
   57.2870   24.2240   45.6850 C   0  0  0  0  0  0  0  0  0  0  0  0
   56.2230   24.8200   46.3790 C   0  0  0  0  0  0  0  0  0  0  0  0
   56.0240   26.2030   46.3140 C   0  0  0  0  0  0  0  0  0  0  0  0
   56.8920   27.0090   45.5610 C   0  0  0  0  0  0  0  0  0  0  0  0
   56.6840   28.4680   45.4710 C   0  0  0  0  0  0  0  0  0  0  0  0
   57.5410   29.2390   45.9760 O   0  0  0  0  0  0  0  0  0  0  0  0
   55.5180   29.0370   44.8630 N   0  0  0  0  0  0  0  0  0  0  0  0
   55.4950   29.6950   43.5630 C   0  0  0  0  0  0  0  0  0  0  0  0
   56.5070   30.7920   43.5490 C   0  0  0  0  0  0  0  0  0  0  0  0
   56.9420   31.4300   44.6570 N   0  0  0  0  0  0  0  0  0  0  0  0
   57.8190   32.4370   44.3750 C   0  0  0  0  0  0  0  0  0  0  0  0
   58.4330   33.2820   45.4300 C   0  0  0  0  0  0  0  0  0  0  0  0
   58.3990   32.8830   46.7800 C   0  0  0  0  0  0  0  0  0  0  0  0
   58.9770   33.6840   47.7700 C   0  0  0  0  0  0  0  0  0  0  0  0
   59.5960   34.8880   47.4260 C   0  0  0  0  0  0  0  0  0  0  0  0
   59.6380   35.2930   46.0900 C   0  0  0  0  0  0  0  0  0  0  0  0
   59.0610   34.4980   45.0960 C   0  0  0  0  0  0  0  0  0  0  0  0
   58.0760   32.6060   43.0110 C   0  0  0  0  0  0  0  0  0  0  0  0
   57.1710   31.4680   42.1640 S   0  0  0  0  0  0  0  0  0  0  0  0
   57.9380   26.4080   44.8430 C   0  0  0  0  0  0  0  0  0  0  0  0
   58.1370   25.0250   44.9080 C   0  0  0  0  0  0  0  0  0  0  0  0
   56.9197   20.5162   48.0872 H   0  0  0  0  0  0  0  0  0  0  0  0
   56.0456   20.7229   46.5316 H   0  0  0  0  0  0  0  0  0  0  0  0
   57.7991   20.3332   46.5316 H   0  0  0  0  0  0  0  0  0  0  0  0
   58.4973   22.4860   45.4005 H   0  0  0  0  0  0  0  0  0  0  0  0
   56.7352   22.2516   45.0916 H   0  0  0  0  0  0  0  0  0  0  0  0
   55.5421   24.1966   46.9771 H   0  0  0  0  0  0  0  0  0  0  0  0
   55.1833   26.6611   46.8556 H   0  0  0  0  0  0  0  0  0  0  0  0
   55.7342   28.9640   42.7766 H   0  0  0  0  0  0  0  0  0  0  0  0
   54.4945   30.1134   43.3788 H   0  0  0  0  0  0  0  0  0  0  0  0
   56.6440   31.1610   45.6210 H   0  0  0  0  0  0  0  0  0  0  0  0
   57.9147   31.9352   47.0577 H   0  0  0  0  0  0  0  0  0  0  0  0
   58.9441   33.3651   48.8222 H   0  0  0  0  0  0  0  0  0  0  0  0
   60.0499   35.5165   48.2064 H   0  0  0  0  0  0  0  0  0  0  0  0
   60.1267   36.2406   45.8194 H   0  0  0  0  0  0  0  0  0  0  0  0
   59.0974   34.8238   44.0460 H   0  0  0  0  0  0  0  0  0  0  0  0
   58.7519   33.3527   42.5688 H   0  0  0  0  0  0  0  0  0  0  0  0
   58.6048   27.0281   44.2259 H   0  0  0  0  0  0  0  0  0  0  0  0
   58.9634   24.5636   44.3475 H   0  0  0  0  0  0  0  0  0  0  0  0
  1  2  1  0
  2  3  1  0
  3  4  1  0
  4  5  2  0
  5  6  1  0
  6  7  2  0
  7  8  1  0
  8  9  2  0
  8 10  1  0
 10 11  1  0
 11 12  1  0
 12 13  2  0
 13 14  1  0
 14 15  1  0
 15 16  2  0
 16 17  1  0
 17 18  2  0
 18 19  1  0
 19 20  2  0
 14 21  2  0
 21 22  1  0
  7 23  1  0
 23 24  2  0
 24  4  1  0
 22 12  1  0
 20 15  1  0
  1 25  1  0
  1 26  1  0
  1 27  1  0
  3 28  1  0
  3 29  1  0
  5 30  1  0
  6 31  1  0
 11 32  1  0
 11 33  1  0
 13 34  1  0
 16 35  1  0
 17 36  1  0
 18 37  1  0
 19 38  1  0
 20 39  1  0
 21 40  1  0
 23 41  1  0
 24 42  1  0
M  CHG  2  10  -1  13   1
M  END
>  <UniqueID>  (92) 
83

>  <SMILES>  (92) 
COCc1ccc(C(=O)[N-]Cc2[nH+]c(-c3ccccc3)cs2)cc1

>  <Energy>  (92) 
80.67495992041194

>  <Genealogy>  (92) 
COCc1ccc(C(=O)[N-]Cc2[nH+]c(-c3ccccc3)cs2)cc1 (protonated)
COCc1ccc(C(=O)[N-]Cc2[nH+]c(-c3ccccc3)cs2)cc1 (3D coordinates assigned)
COCc1ccc(C(=O)[N-]Cc2[nH+]c(-c3ccccc3)cs2)cc1 (optimized conformer: 80.67495992041194 kcal/mol)

>  <smiles>  (92) 
COCc1ccc(C(=O)NCc2nc(-c3ccccc3)cs2)cc1

>  <score_type>  (92) 
oracle

>  <origin>  (92) 
adg

>  <m_score__min__energy>  (92) 
-8.9000000000000004

>  <m_primary>  (92) 
energy

$$$$
92:0
     RDKit          3D

 45 47  0  0  1  0  0  0  0  0999 V2000
   57.9050   24.9090   44.9030 C   0  0  0  0  0  0  0  0  0  0  0  0
   57.7840   26.3220   44.4150 C   0  0  0  0  0  0  0  0  0  0  0  0
   58.0110   27.0940   43.5920 N   0  0  0  0  0  0  0  0  0  0  0  0
   57.7510   28.3470   43.4480 N   0  0  0  0  0  0  0  0  0  0  0  0
   57.0600   28.8860   44.4860 C   0  0  0  0  0  0  0  0  0  0  0  0
   56.6260   30.0490   44.7170 N   0  0  0  0  0  0  0  0  0  0  0  0
   57.1330   31.2110   44.0580 C   0  0  0  0  0  0  0  0  0  0  0  0
   56.9860   31.4130   42.8210 O   0  0  0  0  0  0  0  0  0  0  0  0
   57.8450   32.1690   44.9240 C   0  0  0  0  0  0  0  0  0  0  0  0
   58.0240   33.4520   44.4540 C   0  0  0  0  0  0  0  0  0  0  0  0
   58.6940   34.3410   45.2690 C   0  0  0  0  0  0  0  0  0  0  0  0
   59.1610   33.9390   46.5080 C   0  0  0  0  0  0  0  0  0  0  0  0
   59.8690   34.9640   47.3150 C   0  0  0  0  0  0  0  0  0  0  0  0
   58.9970   32.6660   47.0030 C   0  0  0  0  0  0  0  0  0  0  0  0
   59.5910   32.1900   48.5410 S   0  0  0  0  0  0  0  0  0  0  0  0
   59.0980   30.7700   48.7880 O   0  0  0  0  0  0  0  0  0  0  0  0
   58.9020   33.0430   49.5960 O   0  0  0  0  0  0  0  0  0  0  0  0
   61.2630   32.1760   48.7420 N   0  0  0  0  0  0  0  0  0  0  0  0
   62.0440   31.5820   47.7310 C   0  0  0  0  0  0  0  0  0  0  0  0
   63.1510   32.3650   47.1330 C   0  0  0  0  0  0  0  0  0  0  0  0
   63.2520   33.7930   47.5640 C   0  0  0  0  0  0  0  0  0  0  0  0
   63.1060   33.7970   49.0730 C   0  0  0  0  0  0  0  0  0  0  0  0
   61.8060   33.2260   49.5160 C   0  0  0  0  0  0  0  0  0  0  0  0
   58.3150   31.7750   46.1620 C   0  0  0  0  0  0  0  0  0  0  0  0
   56.8300   27.4470   45.6540 S   0  0  0  0  0  0  0  0  0  0  0  0
   57.9058   24.8998   46.0030 H   0  0  0  0  0  0  0  0  0  0  0  0
   57.0541   24.3188   44.5320 H   0  0  0  0  0  0  0  0  0  0  0  0
   58.8438   24.4721   44.5320 H   0  0  0  0  0  0  0  0  0  0  0  0
   58.0100   28.9810   42.6320 H   0  0  0  0  0  0  0  0  0  0  0  0
   57.6469   33.7559   43.4663 H   0  0  0  0  0  0  0  0  0  0  0  0
   58.8579   35.3752   44.9320 H   0  0  0  0  0  0  0  0  0  0  0  0
   59.7234   34.7533   48.3848 H   0  0  0  0  0  0  0  0  0  0  0  0
   60.9431   34.9387   47.0791 H   0  0  0  0  0  0  0  0  0  0  0  0
   59.4651   35.9596   47.0791 H   0  0  0  0  0  0  0  0  0  0  0  0
   62.4866   30.6699   48.1579 H   0  0  0  0  0  0  0  0  0  0  0  0
   61.3389   31.4388   46.8989 H   0  0  0  0  0  0  0  0  0  0  0  0
   64.0958   31.8667   47.3958 H   0  0  0  0  0  0  0  0  0  0  0  0
   62.9428   32.3954   46.0533 H   0  0  0  0  0  0  0  0  0  0  0  0
   64.2284   34.2092   47.2753 H   0  0  0  0  0  0  0  0  0  0  0  0
   62.4755   34.4090   47.0870 H   0  0  0  0  0  0  0  0  0  0  0  0
   63.9211   33.2007   49.5088 H   0  0  0  0  0  0  0  0  0  0  0  0
   63.1473   34.8426   49.4122 H   0  0  0  0  0  0  0  0  0  0  0  0
   61.9434   32.8457   50.5390 H   0  0  0  0  0  0  0  0  0  0  0  0
   61.0860   34.0518   49.4172 H   0  0  0  0  0  0  0  0  0  0  0  0
   58.1506   30.7397   46.4953 H   0  0  0  0  0  0  0  0  0  0  0  0
  1  2  1  0
  2  3  2  0
  3  4  1  0
  4  5  1  0
  5  6  2  0
  6  7  1  0
  7  8  2  0
  7  9  1  0
  9 10  2  0
 10 11  1  0
 11 12  2  0
 12 13  1  0
 12 14  1  0
 14 15  1  0
 15 16  2  0
 15 17  2  0
 15 18  1  0
 18 19  1  0
 19 20  1  0
 20 21  1  0
 21 22  1  0
 22 23  1  0
 14 24  2  0
  5 25  1  0
 25  2  1  0
 24  9  1  0
 23 18  1  0
  1 26  1  0
  1 27  1  0
  1 28  1  0
  4 29  1  0
 10 30  1  0
 11 31  1  0
 13 32  1  0
 13 33  1  0
 13 34  1  0
 19 35  1  0
 19 36  1  0
 20 37  1  0
 20 38  1  0
 21 39  1  0
 21 40  1  0
 22 41  1  0
 22 42  1  0
 23 43  1  0
 23 44  1  0
 24 45  1  0
M  END
>  <smiles>  (93) 
Cc1n[nH]c(=NC(=O)c2ccc(C)c(S(=O)(=O)N3CCCCC3)c2)s1

>  <score_type>  (93) 
oracle

>  <origin>  (93) 
adg

>  <m_score__min__energy>  (93) 
-10.07

>  <m_primary>  (93) 
energy

$$$$
93:0
     RDKit          3D

 57 61  0  0  0  0  0  0  0  0999 V2000
   56.7210   21.2720   42.6500 C   0  0  0  0  0  0  0  0  0  0  0  0
   57.0120   22.3220   43.6230 N   0  0  0  0  0  0  0  0  0  0  0  0
   56.9730   23.6480   43.3840 C   0  0  0  0  0  0  0  0  0  0  0  0
   57.3110   24.3430   44.5370 C   0  0  0  0  0  0  0  0  0  0  0  0
   57.3720   25.8180   44.7020 C   0  0  0  0  0  0  0  0  0  0  0  0
   56.9200   26.4390   45.8760 C   0  0  0  0  0  0  0  0  0  0  0  0
   56.9850   27.7900   46.0060 N   0  0  0  0  0  0  0  0  0  0  0  0
   57.4770   28.5710   45.0110 C   0  0  0  0  0  0  0  0  0  0  0  0
   57.5400   29.8590   45.1900 N   0  0  0  0  0  0  0  0  0  0  0  0
   58.5920   30.5910   45.8420 C   0  0  0  0  0  0  0  0  0  0  0  0
   58.4530   31.9450   46.1900 C   0  0  0  0  0  0  0  0  0  0  0  0
   59.4860   32.6130   46.8570 C   0  0  0  0  0  0  0  0  0  0  0  0
   60.6680   31.9350   47.2060 C   0  0  0  0  0  0  0  0  0  0  0  0
   61.7330   32.6210   47.8990 N   0  0  0  0  0  0  0  0  0  0  0  0
   61.6420   32.8540   49.3470 C   0  0  0  0  0  0  0  0  0  0  0  0
   62.5570   34.0090   49.7790 C   0  0  0  0  0  0  0  0  0  0  0  0
   63.9600   33.8370   49.3280 N   0  0  0  0  0  0  0  0  0  0  0  0
   64.8600   33.4420   50.4460 C   0  0  0  0  0  0  0  0  0  0  0  0
   66.2760   33.0560   50.0650 C   0  0  0  0  0  0  0  0  0  0  0  0
   66.0950   31.7250   50.4900 O   0  0  0  0  0  0  0  0  0  0  0  0
   64.7710   31.9960   50.8890 C   0  0  0  0  0  0  0  0  0  0  0  0
   64.1340   33.1340   48.0280 C   0  0  0  0  0  0  0  0  0  0  0  0
   62.8730   33.1770   47.1590 C   0  0  0  0  0  0  0  0  0  0  0  0
   60.7850   30.5710   46.8870 C   0  0  0  0  0  0  0  0  0  0  0  0
   59.7520   29.9060   46.2200 C   0  0  0  0  0  0  0  0  0  0  0  0
   57.9330   27.9910   43.8680 N   0  0  0  0  0  0  0  0  0  0  0  0
   57.8890   26.6460   43.6930 C   0  0  0  0  0  0  0  0  0  0  0  0
   57.5700   23.3880   45.5100 C   0  0  0  0  0  0  0  0  0  0  0  0
   57.3940   22.1550   44.9070 C   0  0  0  0  0  0  0  0  0  0  0  0
   57.5010   20.8310   45.6040 C   0  0  0  0  0  0  0  0  0  0  0  0
   57.7890   21.0150   46.9440 F   0  0  0  0  0  0  0  0  0  0  0  0
   56.3060   20.1500   45.4830 F   0  0  0  0  0  0  0  0  0  0  0  0
   56.4635   20.3428   43.1793 H   0  0  0  0  0  0  0  0  0  0  0  0
   55.8747   21.5812   42.0190 H   0  0  0  0  0  0  0  0  0  0  0  0
   57.6057   21.1014   42.0190 H   0  0  0  0  0  0  0  0  0  0  0  0
   56.7125   24.1098   42.4202 H   0  0  0  0  0  0  0  0  0  0  0  0
   56.5110   25.8293   46.6952 H   0  0  0  0  0  0  0  0  0  0  0  0
   57.5274   32.4828   45.9369 H   0  0  0  0  0  0  0  0  0  0  0  0
   59.3727   33.6774   47.1105 H   0  0  0  0  0  0  0  0  0  0  0  0
   60.6024   33.1028   49.6063 H   0  0  0  0  0  0  0  0  0  0  0  0
   61.9622   31.9402   49.8690 H   0  0  0  0  0  0  0  0  0  0  0  0
   62.1645   34.9448   49.3544 H   0  0  0  0  0  0  0  0  0  0  0  0
   62.5650   34.0287   50.8788 H   0  0  0  0  0  0  0  0  0  0  0  0
   64.6144   34.2989   51.0906 H   0  0  0  0  0  0  0  0  0  0  0  0
   66.4816   33.1489   48.9884 H   0  0  0  0  0  0  0  0  0  0  0  0
   67.1159   33.6372   50.4735 H   0  0  0  0  0  0  0  0  0  0  0  0
   64.0185   31.4136   50.3371 H   0  0  0  0  0  0  0  0  0  0  0  0
   64.4694   31.7727   51.9230 H   0  0  0  0  0  0  0  0  0  0  0  0
   64.9575   33.6118   47.4770 H   0  0  0  0  0  0  0  0  0  0  0  0
   64.3502   32.0781   48.2477 H   0  0  0  0  0  0  0  0  0  0  0  0
   62.6553   34.2197   46.8845 H   0  0  0  0  0  0  0  0  0  0  0  0
   63.0400   32.5789   46.2510 H   0  0  0  0  0  0  0  0  0  0  0  0
   61.6971   30.0223   47.1646 H   0  0  0  0  0  0  0  0  0  0  0  0
   59.8520   28.8349   45.9903 H   0  0  0  0  0  0  0  0  0  0  0  0
   58.2598   26.2028   42.7570 H   0  0  0  0  0  0  0  0  0  0  0  0
   57.8585   23.5745   46.5550 H   0  0  0  0  0  0  0  0  0  0  0  0
   58.3116   20.2497   45.1404 H   0  0  0  0  0  0  0  0  0  0  0  0
  1  2  1  0
  2  3  1  0
  3  4  2  0
  4  5  1  0
  5  6  1  0
  6  7  2  0
  7  8  1  0
  8  9  2  3
  9 10  1  0
 10 11  2  0
 11 12  1  0
 12 13  2  0
 13 14  1  0
 14 15  1  0
 15 16  1  0
 16 17  1  0
 17 18  1  0
 18 19  1  0
 19 20  1  0
 20 21  1  0
 17 22  1  0
 22 23  1  0
 13 24  1  0
 24 25  2  0
  8 26  1  0
 26 27  1  0
  4 28  1  0
 28 29  2  0
 29 30  1  0
 30 31  1  0
 30 32  1  0
 29  2  1  0
 27  5  2  0
 25 10  1  0
 23 14  1  0
 21 18  1  0
  1 33  1  0
  1 34  1  0
  1 35  1  0
  3 36  1  0
  6 37  1  0
 11 38  1  0
 12 39  1  0
 15 40  1  0
 15 41  1  0
 16 42  1  0
 16 43  1  0
 18 44  1  0
 19 45  1  0
 19 46  1  0
 21 47  1  0
 21 48  1  0
 22 49  1  0
 22 50  1  0
 23 51  1  0
 23 52  1  0
 24 53  1  0
 25 54  1  0
 27 55  1  0
 28 56  1  0
 30 57  1  0
M  CHG  1  26  -1
M  END
>  <UniqueID>  (94) 
84

>  <SMILES>  (94) 
Cn1cc(-c2cnc(=Nc3ccc(N4CCN(C5COC5)CC4)cc3)[n-]c2)cc1C(F)F

>  <Energy>  (94) 
177.15721327951132

>  <Genealogy>  (94) 
Cn1cc(-c2cnc(=Nc3ccc(N4CCN(C5COC5)CC4)cc3)[n-]c2)cc1C(F)F (protonated)
Cn1cc(-c2cnc(=Nc3ccc(N4CCN(C5COC5)CC4)cc3)[n-]c2)cc1C(F)F (3D coordinates assigned)
Cn1cc(-c2cnc(=Nc3ccc(N4CCN(C5COC5)CC4)cc3)[n-]c2)cc1C(F)F (nonaromatic ring conformer: 177.15721327951132 kcal/mol)

>  <smiles>  (94) 
Cn1cc(-c2cnc(=Nc3ccc(N4CCN(C5COC5)CC4)cc3)[nH]c2)cc1C(F)F

>  <score_type>  (94) 
oracle

>  <origin>  (94) 
adg

>  <m_score__min__energy>  (94) 
-8.4499999999999993

>  <m_primary>  (94) 
energy

$$$$
94:0
     RDKit          3D

 36 38  0  0  0  0  0  0  0  0999 V2000
   55.1440   26.7160   46.0000 N   0  0  0  0  0  0  0  0  0  0  0  0
   56.7640   26.1310   46.1430 S   0  0  0  0  0  0  0  0  0  0  0  0
   56.9920   25.0330   45.1420 O   0  0  0  0  0  0  0  0  0  0  0  0
   56.9730   25.5750   47.5230 O   0  0  0  0  0  0  0  0  0  0  0  0
   57.8940   27.4480   45.8490 C   0  0  0  0  0  0  0  0  0  0  0  0
   59.1460   27.1910   45.2760 C   0  0  0  0  0  0  0  0  0  0  0  0
   60.0480   28.2360   45.0650 C   0  0  0  0  0  0  0  0  0  0  0  0
   59.7070   29.5430   45.4230 C   0  0  0  0  0  0  0  0  0  0  0  0
   58.4480   29.8180   45.9890 C   0  0  0  0  0  0  0  0  0  0  0  0
   58.0850   31.1470   46.3970 N   0  0  0  0  0  0  0  0  0  0  0  0
   57.3850   32.0770   45.5530 C   0  0  0  0  0  0  0  0  0  0  0  0
   56.6400   31.6490   44.6300 O   0  0  0  0  0  0  0  0  0  0  0  0
   57.4890   33.5670   45.7770 C   0  0  2  0  0  0  0  0  0  0  0  0
   58.4690   34.1990   44.7680 C   0  0  0  0  0  0  0  0  0  0  0  0
   59.8170   33.8570   45.1000 O   0  0  0  0  0  0  0  0  0  0  0  0
   60.2420   33.8210   46.4320 C   0  0  0  0  0  0  0  0  0  0  0  0
   61.6010   33.7540   46.7490 C   0  0  0  0  0  0  0  0  0  0  0  0
   62.0030   33.7460   48.0900 C   0  0  0  0  0  0  0  0  0  0  0  0
   61.0450   33.8050   49.1100 C   0  0  0  0  0  0  0  0  0  0  0  0
   59.6830   33.8580   48.7920 C   0  0  0  0  0  0  0  0  0  0  0  0
   59.2820   33.8490   47.4530 C   0  0  0  0  0  0  0  0  0  0  0  0
   57.9240   33.8560   47.1120 O   0  0  0  0  0  0  0  0  0  0  0  0
   57.5550   28.7580   46.2150 C   0  0  0  0  0  0  0  0  0  0  0  0
   54.8700   27.0860   46.9380 H   0  0  0  0  0  0  0  0  0  0  0  0
   59.4192   26.1641   44.9917 H   0  0  0  0  0  0  0  0  0  0  0  0
   61.0305   28.0296   44.6154 H   0  0  0  0  0  0  0  0  0  0  0  0
   60.4254   30.3602   45.2618 H   0  0  0  0  0  0  0  0  0  0  0  0
   58.2840   31.4250   47.3840 H   0  0  0  0  0  0  0  0  0  0  0  0
   56.4880   33.9985   45.6290 H   0  0  0  0  0  0  0  0  0  0  0  0
   58.2392   33.8276   43.7584 H   0  0  0  0  0  0  0  0  0  0  0  0
   58.3600   35.2930   44.8027 H   0  0  0  0  0  0  0  0  0  0  0  0
   62.3528   33.7077   45.9474 H   0  0  0  0  0  0  0  0  0  0  0  0
   63.0723   33.6933   48.3428 H   0  0  0  0  0  0  0  0  0  0  0  0
   61.3636   33.8097   50.1628 H   0  0  0  0  0  0  0  0  0  0  0  0
   58.9307   33.9066   49.5931 H   0  0  0  0  0  0  0  0  0  0  0  0
   56.5801   28.9576   46.6838 H   0  0  0  0  0  0  0  0  0  0  0  0
  1  2  1  0
  2  3  2  0
  2  4  2  0
  2  5  1  0
  5  6  2  0
  6  7  1  0
  7  8  2  0
  8  9  1  0
  9 10  1  0
 10 11  1  0
 11 12  2  0
 11 13  1  0
 13 14  1  0
 14 15  1  0
 15 16  1  0
 16 17  2  0
 17 18  1  0
 18 19  2  0
 19 20  1  0
 20 21  2  0
 21 22  1  0
  9 23  2  0
 23  5  1  0
 22 13  1  0
 21 16  1  0
  1 24  1  0
  6 25  1  0
  7 26  1  0
  8 27  1  0
 10 28  1  0
 13 29  1  6
 14 30  1  0
 14 31  1  0
 17 32  1  0
 18 33  1  0
 19 34  1  0
 20 35  1  0
 23 36  1  0
M  CHG  1   1  -1
M  END
>  <UniqueID>  (95) 
85

>  <SMILES>  (95) 
[NH-]S(=O)(=O)c1cccc(NC(=O)[C@@H]2COc3ccccc3O2)c1

>  <Energy>  (95) 
42.85056570113508

>  <Genealogy>  (95) 
[NH-]S(=O)(=O)c1cccc(NC(=O)C2COc3ccccc3O2)c1 (protonated)
[NH-]S(=O)(=O)c1cccc(NC(=O)[C@@H]2COc3ccccc3O2)c1 (chirality)
[NH-]S(=O)(=O)c1cccc(NC(=O)[C@@H]2COc3ccccc3O2)c1 (3D coordinates assigned)
[NH-]S(=O)(=O)c1cccc(NC(=O)[C@@H]2COc3ccccc3O2)c1 (nonaromatic ring conformer: 42.85056570113508 kcal/mol)

>  <smiles>  (95) 
NS(=O)(=O)c1cccc(NC(=O)C2COc3ccccc3O2)c1

>  <score_type>  (95) 
oracle

>  <origin>  (95) 
adg

>  <m_score__min__energy>  (95) 
-10.66

>  <m_primary>  (95) 
energy

$$$$
