0:0
     RDKit          3D

 67 71  0  0  0  0  0  0  0  0999 V2000
   56.5742   30.0263   43.2596 H   0  0  0  0  0  0  0  0  0  0  0  0
   56.8260   29.0220   43.6310 C   0  0  0  0  0  0  0  0  0  0  0  0
   56.2809   28.1438   43.2546 H   0  0  0  0  0  0  0  0  0  0  0  0
   57.7990   28.8680   44.5440 C   0  0  0  0  0  0  0  0  0  0  0  0
   58.2150   27.6480   45.0960 C   0  0  0  0  0  0  0  0  0  0  0  0
   57.7840   26.4080   44.7890 C   0  0  0  0  0  0  0  0  0  0  0  0
   57.9469   26.0368   43.7664 H   0  0  0  0  0  0  0  0  0  0  0  0
   57.1050   25.5240   45.7550 C   0  0  0  0  0  0  0  0  0  0  0  0
   57.6640   24.3970   46.2450 N   0  0  0  0  0  0  0  0  0  0  0  0
   56.7280   23.9260   47.0930 C   0  0  0  0  0  0  0  0  0  0  0  0
   56.8980   22.8760   47.7730 O   0  0  0  0  0  0  0  0  0  0  0  0
   55.6010   24.6670   47.1600 N   0  0  0  0  0  0  0  0  0  0  0  0
   55.8500   25.6680   46.3000 C   0  0  0  0  0  0  0  0  0  0  0  0
   54.9360   26.6740   45.9980 O   0  0  0  0  0  0  0  0  0  0  0  0
   59.2540   27.9500   45.9560 C   0  0  0  0  0  0  0  0  0  0  0  0
   59.8220   27.2370   46.5717 H   0  0  0  0  0  0  0  0  0  0  0  0
   59.4430   29.3100   45.8960 C   0  0  0  0  0  0  0  0  0  0  0  0
   60.5730   29.9830   46.5570 C   0  0  0  0  0  0  0  0  0  0  0  0
   61.1330   30.9650   46.0000 O   0  0  0  0  0  0  0  0  0  0  0  0
   60.9550   29.6000   47.8910 N   0  0  0  0  0  0  0  0  0  0  0  0
   61.1470   30.6420   48.9090 C   0  0  0  0  0  0  0  0  0  0  0  0
   62.0964   31.1624   48.7146 H   0  0  0  0  0  0  0  0  0  0  0  0
   60.3009   31.3427   48.8529 H   0  0  0  0  0  0  0  0  0  0  0  0
   61.1860   30.0410   50.3210 C   0  0  0  0  0  0  0  0  0  0  0  0
   62.1781   29.6024   50.5037 H   0  0  0  0  0  0  0  0  0  0  0  0
   60.9891   30.8335   51.0580 H   0  0  0  0  0  0  0  0  0  0  0  0
   60.1610   28.9970   50.4470 N   0  0  0  0  0  0  0  0  0  0  0  0
   59.4190   28.8570   51.6630 C   0  0  0  0  0  0  0  0  0  0  0  0
   59.7000   27.9010   52.4380 O   0  0  0  0  0  0  0  0  0  0  0  0
   58.2990   29.7240   51.9460 N   0  0  0  0  0  0  0  0  0  0  0  0
   57.5150   29.5270   53.1800 C   0  0  0  0  0  0  0  0  0  0  0  0
   57.5387   28.4592   53.4430 H   0  0  0  0  0  0  0  0  0  0  0  0
   57.9699   30.1540   53.9609 H   0  0  0  0  0  0  0  0  0  0  0  0
   56.0360   29.9670   53.0380 C   0  0  0  0  0  0  0  0  0  0  0  0
   55.3948   29.0962   53.2391 H   0  0  0  0  0  0  0  0  0  0  0  0
   55.8758   30.7845   53.7564 H   0  0  0  0  0  0  0  0  0  0  0  0
   55.7090   30.4750   51.7580 O   0  0  0  0  0  0  0  0  0  0  0  0
   56.6410   31.4620   51.3850 C   0  0  0  0  0  0  0  0  0  0  0  0
   56.2495   32.0361   50.5323 H   0  0  0  0  0  0  0  0  0  0  0  0
   56.8175   32.1458   52.2284 H   0  0  0  0  0  0  0  0  0  0  0  0
   57.9450   30.7840   50.9890 C   0  0  0  0  0  0  0  0  0  0  0  0
   57.8313   30.3420   49.9882 H   0  0  0  0  0  0  0  0  0  0  0  0
   58.7462   31.5378   50.9882 H   0  0  0  0  0  0  0  0  0  0  0  0
   60.0600   27.9300   49.4470 C   0  0  0  0  0  0  0  0  0  0  0  0
   60.3215   26.9709   49.9179 H   0  0  0  0  0  0  0  0  0  0  0  0
   59.0284   27.9061   49.0658 H   0  0  0  0  0  0  0  0  0  0  0  0
   61.0050   28.1830   48.2720 C   0  0  0  0  0  0  0  0  0  0  0  0
   62.0318   27.9197   48.5657 H   0  0  0  0  0  0  0  0  0  0  0  0
   60.6948   27.5652   47.4163 H   0  0  0  0  0  0  0  0  0  0  0  0
   58.5600   29.8840   45.0410 N   0  0  0  0  0  0  0  0  0  0  0  0
   58.5420   31.3070   44.6600 C   0  0  0  0  0  0  0  0  0  0  0  0
   59.3727   31.5035   43.9663 H   0  0  0  0  0  0  0  0  0  0  0  0
   57.5769   31.5277   44.1806 H   0  0  0  0  0  0  0  0  0  0  0  0
   58.6900   32.1970   45.8710 C   0  0  0  0  0  0  0  0  0  0  0  0
   58.2540   31.7610   47.1340 C   0  0  0  0  0  0  0  0  0  0  0  0
   57.8232   30.7552   47.2471 H   0  0  0  0  0  0  0  0  0  0  0  0
   58.3650   32.5990   48.2470 C   0  0  0  0  0  0  0  0  0  0  0  0
   58.0224   32.2510   49.2326 H   0  0  0  0  0  0  0  0  0  0  0  0
   58.9100   33.8770   48.1100 C   0  0  0  0  0  0  0  0  0  0  0  0
   58.9891   34.5359   48.9873 H   0  0  0  0  0  0  0  0  0  0  0  0
   59.3570   34.3240   46.8580 C   0  0  0  0  0  0  0  0  0  0  0  0
   59.9070   35.7130   46.7020 C   0  0  0  0  0  0  0  0  0  0  0  0
   60.0809   36.1522   47.6954 H   0  0  0  0  0  0  0  0  0  0  0  0
   60.8565   35.6713   46.1482 H   0  0  0  0  0  0  0  0  0  0  0  0
   59.1864   36.3327   46.1482 H   0  0  0  0  0  0  0  0  0  0  0  0
   59.2300   33.4870   45.7390 C   0  0  0  0  0  0  0  0  0  0  0  0
   59.5558   33.8438   44.7508 H   0  0  0  0  0  0  0  0  0  0  0  0
  1  2  1  0
  2  3  1  0
  2  4  2  0
  4  5  1  0
  5  6  2  0
  6  7  1  0
  6  8  1  0
  8  9  1  0
  9 10  1  0
 10 11  2  0
 10 12  1  0
 12 13  1  0
 13 14  1  0
  5 15  1  0
 15 16  1  0
 15 17  2  0
 17 18  1  0
 18 19  2  0
 18 20  1  0
 20 21  1  0
 21 22  1  0
 21 23  1  0
 21 24  1  0
 24 25  1  0
 24 26  1  0
 24 27  1  0
 27 28  1  0
 28 29  2  0
 28 30  1  0
 30 31  1  0
 31 32  1  0
 31 33  1  0
 31 34  1  0
 34 35  1  0
 34 36  1  0
 34 37  1  0
 37 38  1  0
 38 39  1  0
 38 40  1  0
 38 41  1  0
 41 42  1  0
 41 43  1  0
 27 44  1  0
 44 45  1  0
 44 46  1  0
 44 47  1  0
 47 48  1  0
 47 49  1  0
 17 50  1  0
 50 51  1  0
 51 52  1  0
 51 53  1  0
 51 54  1  0
 54 55  2  0
 55 56  1  0
 55 57  1  0
 57 58  1  0
 57 59  2  0
 59 60  1  0
 59 61  1  0
 61 62  1  0
 62 63  1  0
 62 64  1  0
 62 65  1  0
 61 66  2  0
 66 67  1  0
 50  4  1  0
 66 54  1  0
 13  8  2  0
 47 20  1  0
 41 30  1  0
M  CHG  3   9  -1  12  -1  14  -1
M  END
>  <UniqueID>  (1) 
1

>  <SMILES>  (1) 
C=c1/c(=C/c2[n-]c(=O)[n-]c2[O-])cc(C(=O)N2CCN(C(=O)N3CCOCC3)CC2)n1Cc1cccc(C)c1

>  <Energy>  (1) 
152.01436981288873

>  <Genealogy>  (1) 
C=c1c(=Cc2[n-]c(=O)[n-]c2[O-])cc(C(=O)N2CCN(C(=O)N3CCOCC3)CC2)n1Cc1cccc(C)c1 (protonated)
C=c1/c(=C/c2[n-]c(=O)[n-]c2[O-])cc(C(=O)N2CCN(C(=O)N3CCOCC3)CC2)n1Cc1cccc(C)c1 (cis-trans isomerization)
C=c1/c(=C/c2[n-]c(=O)[n-]c2[O-])cc(C(=O)N2CCN(C(=O)N3CCOCC3)CC2)n1Cc1cccc(C)c1 (3D coordinates assigned)
C=c1/c(=C/c2[n-]c(=O)[n-]c2[O-])cc(C(=O)N2CCN(C(=O)N3CCOCC3)CC2)n1Cc1cccc(C)c1 (nonaromatic ring conformer: 152.01436981288873 kcal/mol)

>  <smiles>  (1) 
C=c1c(=Cc2[nH]c(=O)[nH]c2O)cc(C(=O)N2CCN(C(=O)N3CCOCC3)CC2)n1Cc1cccc(C)c1

>  <score_type>  (1) 
oracle

>  <origin>  (1) 
adg

>  <m_score__min__energy>  (1) 
-17.16

>  <m_primary>  (1) 
energy

$$$$
1:0
     RDKit          3D

 53 56  0  0  0  0  0  0  0  0999 V2000
   56.0440   30.4870   44.8220 O   0  0  0  0  0  0  0  0  0  0  0  0
   57.0680   30.2890   44.1130 C   0  0  0  0  0  0  0  0  0  0  0  0
   57.0060   29.2860   42.9950 C   0  0  0  0  0  0  0  0  0  0  0  0
   57.4260   27.8880   43.4650 C   0  0  0  0  0  0  0  0  0  0  0  0
   58.4930   27.9640   44.5210 C   0  0  0  0  0  0  0  0  0  0  0  0
   59.6870   28.5540   44.3130 N   0  0  0  0  0  0  0  0  0  0  0  0
   60.3320   28.5460   45.4690 N   0  0  0  0  0  0  0  0  0  0  0  0
   59.5260   27.9500   46.3690 C   0  0  0  0  0  0  0  0  0  0  0  0
   59.8660   27.8510   47.8280 C   0  0  0  0  0  0  0  0  0  0  0  0
   59.9400   29.2190   48.4550 C   0  0  0  0  0  0  0  0  0  0  0  0
   61.0020   30.0880   48.1570 C   0  0  0  0  0  0  0  0  0  0  0  0
   61.0630   31.3480   48.7540 C   0  0  0  0  0  0  0  0  0  0  0  0
   60.0690   31.7260   49.6570 C   0  0  0  0  0  0  0  0  0  0  0  0
   59.0510   30.8720   49.9450 N   0  0  0  0  0  0  0  0  0  0  0  0
   58.9650   29.6420   49.3730 C   0  0  0  0  0  0  0  0  0  0  0  0
   58.3530   27.5760   45.8080 N   0  0  0  0  0  0  0  0  0  0  0  0
   57.2220   26.8810   46.4330 C   0  0  0  0  0  0  0  0  0  0  0  0
   56.8160   25.6800   45.6180 C   0  0  0  0  0  0  0  0  0  0  0  0
   57.7710   24.9790   44.8640 C   0  0  0  0  0  0  0  0  0  0  0  0
   57.3970   23.8580   44.1160 C   0  0  0  0  0  0  0  0  0  0  0  0
   56.0680   23.4240   44.1220 C   0  0  0  0  0  0  0  0  0  0  0  0
   55.6970   22.3090   43.3800 O   0  0  0  0  0  0  0  0  0  0  0  0
   55.1130   24.1110   44.8780 C   0  0  0  0  0  0  0  0  0  0  0  0
   55.4850   25.2320   45.6260 C   0  0  0  0  0  0  0  0  0  0  0  0
   58.2860   31.0040   44.3660 N   0  0  0  0  0  0  0  0  0  0  0  0
   58.3870   32.1490   45.2300 C   0  0  0  0  0  0  0  0  0  0  0  0
   58.1470   31.9930   46.6050 C   0  0  0  0  0  0  0  0  0  0  0  0
   58.2670   33.0820   47.4740 C   0  0  0  0  0  0  0  0  0  0  0  0
   58.6430   34.3340   46.9790 C   0  0  0  0  0  0  0  0  0  0  0  0
   58.9040   34.4960   45.6170 C   0  0  0  0  0  0  0  0  0  0  0  0
   58.7830   33.4110   44.7430 C   0  0  0  0  0  0  0  0  0  0  0  0
   55.9751   29.2396   42.6142 H   0  0  0  0  0  0  0  0  0  0  0  0
   57.7027   29.6070   42.2066 H   0  0  0  0  0  0  0  0  0  0  0  0
   56.5481   27.3706   43.8793 H   0  0  0  0  0  0  0  0  0  0  0  0
   57.8304   27.3387   42.6020 H   0  0  0  0  0  0  0  0  0  0  0  0
   59.0909   27.2614   48.3396 H   0  0  0  0  0  0  0  0  0  0  0  0
   60.8471   27.3638   47.9288 H   0  0  0  0  0  0  0  0  0  0  0  0
   61.7866   29.7753   47.4523 H   0  0  0  0  0  0  0  0  0  0  0  0
   61.8869   32.0365   48.5149 H   0  0  0  0  0  0  0  0  0  0  0  0
   60.1089   32.7153   50.1362 H   0  0  0  0  0  0  0  0  0  0  0  0
   58.1286   28.9754   49.6301 H   0  0  0  0  0  0  0  0  0  0  0  0
   57.5138   26.5510   47.4410 H   0  0  0  0  0  0  0  0  0  0  0  0
   56.3695   27.5739   46.4890 H   0  0  0  0  0  0  0  0  0  0  0  0
   58.8189   25.3134   44.8617 H   0  0  0  0  0  0  0  0  0  0  0  0
   58.1490   23.3174   43.5225 H   0  0  0  0  0  0  0  0  0  0  0  0
   54.0676   23.7689   44.8841 H   0  0  0  0  0  0  0  0  0  0  0  0
   54.7315   25.7658   46.2237 H   0  0  0  0  0  0  0  0  0  0  0  0
   59.1660   30.6270   43.9460 H   0  0  0  0  0  0  0  0  0  0  0  0
   57.8626   31.0070   47.0012 H   0  0  0  0  0  0  0  0  0  0  0  0
   58.0654   32.9533   48.5477 H   0  0  0  0  0  0  0  0  0  0  0  0
   58.7332   35.1913   47.6623 H   0  0  0  0  0  0  0  0  0  0  0  0
   59.2058   35.4805   45.2301 H   0  0  0  0  0  0  0  0  0  0  0  0
   58.9975   33.5429   43.6722 H   0  0  0  0  0  0  0  0  0  0  0  0
  1  2  2  0
  2  3  1  0
  3  4  1  0
  4  5  1  0
  5  6  2  0
  6  7  1  0
  7  8  2  0
  8  9  1  0
  9 10  1  0
 10 11  2  0
 11 12  1  0
 12 13  2  0
 13 14  1  0
 14 15  2  0
  8 16  1  0
 16 17  1  0
 17 18  1  0
 18 19  2  0
 19 20  1  0
 20 21  2  0
 21 22  1  0
 21 23  1  0
 23 24  2  0
  2 25  1  0
 25 26  1  0
 26 27  2  0
 27 28  1  0
 28 29  2  0
 29 30  1  0
 30 31  2  0
 16  5  1  0
 24 18  1  0
 31 26  1  0
 15 10  1  0
  3 32  1  0
  3 33  1  0
  4 34  1  0
  4 35  1  0
  9 36  1  0
  9 37  1  0
 11 38  1  0
 12 39  1  0
 13 40  1  0
 15 41  1  0
 17 42  1  0
 17 43  1  0
 19 44  1  0
 20 45  1  0
 23 46  1  0
 24 47  1  0
 25 48  1  0
 27 49  1  0
 28 50  1  0
 29 51  1  0
 30 52  1  0
 31 53  1  0
M  CHG  1  22  -1
M  END
>  <UniqueID>  (2) 
2

>  <SMILES>  (2) 
O=C(CCc1nnc(Cc2cccnc2)n1Cc1ccc([O-])cc1)Nc1ccccc1

>  <Energy>  (2) 
85.67001465243911

>  <Genealogy>  (2) 
O=C(CCc1nnc(Cc2cccnc2)n1Cc1ccc([O-])cc1)Nc1ccccc1 (protonated)
O=C(CCc1nnc(Cc2cccnc2)n1Cc1ccc([O-])cc1)Nc1ccccc1 (3D coordinates assigned)
O=C(CCc1nnc(Cc2cccnc2)n1Cc1ccc([O-])cc1)Nc1ccccc1 (optimized conformer: 85.67001465243911 kcal/mol)

>  <smiles>  (2) 
O=C(CCc1nnc(Cc2cccnc2)n1Cc1ccc(O)cc1)Nc1ccccc1

>  <score_type>  (2) 
oracle

>  <origin>  (2) 
adg

>  <m_score__min__energy>  (2) 
-11.140000000000001

>  <m_primary>  (2) 
energy

$$$$
2:0
     RDKit          3D

 49 53  0  0  1  0  0  0  0  0999 V2000
   60.5370   33.8380   49.9070 C   0  0  0  0  0  0  0  0  0  0  0  0
   61.4870   33.7630   48.7750 C   0  0  0  0  0  0  0  0  0  0  0  0
   62.8080   33.5410   49.0360 C   0  0  0  0  0  0  0  0  0  0  0  0
   63.7830   33.4520   48.0450 C   0  0  0  0  0  0  0  0  0  0  0  0
   63.3540   33.6040   46.7370 C   0  0  0  0  0  0  0  0  0  0  0  0
   62.0190   33.8310   46.4200 C   0  0  0  0  0  0  0  0  0  0  0  0
   61.1070   33.9070   47.4570 C   0  0  0  0  0  0  0  0  0  0  0  0
   59.7170   34.1400   47.2170 N   0  0  0  0  0  0  0  0  0  0  0  0
   59.1080   33.5530   46.2330 C   0  0  0  0  0  0  0  0  0  0  0  0
   58.8580   32.2250   46.4130 N   0  0  0  0  0  0  0  0  0  0  0  0
   58.2280   31.5760   45.4150 C   0  0  0  0  0  0  0  0  0  0  0  0
   57.8330   32.1860   44.2430 C   0  0  0  0  0  0  0  0  0  0  0  0
   58.1160   33.5370   44.1210 C   0  0  0  0  0  0  0  0  0  0  0  0
   58.7440   34.1950   45.1090 N   0  0  0  0  0  0  0  0  0  0  0  0
   57.1490   31.5250   43.1360 C   0  0  0  0  0  0  0  0  0  0  0  0
   56.8530   30.0850   43.2890 C   0  0  0  0  0  0  0  0  0  0  0  0
   57.2960   29.4870   44.5570 C   0  0  0  0  0  0  0  0  0  0  0  0
   57.1730   28.2130   44.9830 N   0  0  0  0  0  0  0  0  0  0  0  0
   57.7000   28.0950   46.1740 N   0  0  0  0  0  0  0  0  0  0  0  0
   57.7510   26.8590   46.9540 C   0  0  0  0  0  0  0  0  0  0  0  0
   57.3570   25.6950   46.1000 C   0  0  0  0  0  0  0  0  0  0  0  0
   58.3220   24.7850   45.7520 C   0  0  0  0  0  0  0  0  0  0  0  0
   59.5960   24.9560   46.1830 F   0  0  0  0  0  0  0  0  0  0  0  0
   58.0290   23.6880   44.9680 C   0  0  0  0  0  0  0  0  0  0  0  0
   56.7320   23.5390   44.5440 C   0  0  0  0  0  0  0  0  0  0  0  0
   55.7320   24.4310   44.8710 C   0  0  0  0  0  0  0  0  0  0  0  0
   56.0590   25.5210   45.6590 C   0  0  0  0  0  0  0  0  0  0  0  0
   55.1070   26.4180   46.0030 F   0  0  0  0  0  0  0  0  0  0  0  0
   58.2010   29.2910   46.5960 C   0  0  0  0  0  0  0  0  0  0  0  0
   57.9330   30.1560   45.5540 C   0  0  0  0  0  0  0  0  0  0  0  0
   61.0925   33.7941   50.8554 H   0  0  0  0  0  0  0  0  0  0  0  0
   59.9768   34.7832   49.8536 H   0  0  0  0  0  0  0  0  0  0  0  0
   59.8354   32.9924   49.8536 H   0  0  0  0  0  0  0  0  0  0  0  0
   63.1195   33.4262   50.0847 H   0  0  0  0  0  0  0  0  0  0  0  0
   64.8401   33.2702   48.2890 H   0  0  0  0  0  0  0  0  0  0  0  0
   64.0920   33.5433   45.9236 H   0  0  0  0  0  0  0  0  0  0  0  0
   61.6976   33.9468   45.3744 H   0  0  0  0  0  0  0  0  0  0  0  0
   57.8238   34.0750   43.2071 H   0  0  0  0  0  0  0  0  0  0  0  0
   58.9550   35.2300   45.0040 H   0  0  0  0  0  0  0  0  0  0  0  0
   56.1922   32.0449   42.9803 H   0  0  0  0  0  0  0  0  0  0  0  0
   57.8530   31.5820   42.2927 H   0  0  0  0  0  0  0  0  0  0  0  0
   55.7639   29.9512   43.2116 H   0  0  0  0  0  0  0  0  0  0  0  0
   57.4158   29.5713   42.4957 H   0  0  0  0  0  0  0  0  0  0  0  0
   58.7744   26.7064   47.3273 H   0  0  0  0  0  0  0  0  0  0  0  0
   57.0519   26.9379   47.7996 H   0  0  0  0  0  0  0  0  0  0  0  0
   58.8061   22.9597   44.6929 H   0  0  0  0  0  0  0  0  0  0  0  0
   56.4794   22.6714   43.9168 H   0  0  0  0  0  0  0  0  0  0  0  0
   54.7022   24.2802   44.5151 H   0  0  0  0  0  0  0  0  0  0  0  0
   58.7035   29.5152   47.5485 H   0  0  0  0  0  0  0  0  0  0  0  0
  1  2  1  0
  2  3  2  0
  3  4  1  0
  4  5  2  0
  5  6  1  0
  6  7  2  0
  7  8  1  0
  8  9  2  0
  9 10  1  0
 10 11  2  0
 11 12  1  0
 12 13  2  0
 13 14  1  0
 12 15  1  0
 15 16  1  0
 16 17  1  0
 17 18  2  0
 18 19  1  0
 19 20  1  0
 20 21  1  0
 21 22  2  0
 22 23  1  0
 22 24  1  0
 24 25  2  0
 25 26  1  0
 26 27  2  0
 27 28  1  0
 19 29  1  0
 29 30  2  0
  7  2  1  0
 14  9  1  0
 30 17  1  0
 30 11  1  0
 27 21  1  0
  1 31  1  0
  1 32  1  0
  1 33  1  0
  3 34  1  0
  4 35  1  0
  5 36  1  0
  6 37  1  0
 13 38  1  0
 14 39  1  0
 15 40  1  0
 15 41  1  0
 16 42  1  0
 16 43  1  0
 20 44  1  0
 20 45  1  0
 24 46  1  0
 25 47  1  0
 26 48  1  0
 29 49  1  0
M  END
>  <smiles>  (3) 
Cc1ccccc1N=c1nc2c(c[nH]1)CCc1nn(Cc3c(F)cccc3F)cc1-2

>  <score_type>  (3) 
oracle

>  <origin>  (3) 
adg

>  <m_score__min__energy>  (3) 
-9.3800000000000008

>  <m_primary>  (3) 
energy

$$$$
3:0
     RDKit          3D

 44 47  0  0  0  0  0  0  0  0999 V2000
   55.3710   31.5840   52.0630 C   0  0  0  0  0  0  0  0  0  0  0  0
   54.9340   30.4100   52.5470 C   0  0  0  0  0  0  0  0  0  0  0  0
   53.6010   30.0580   52.7840 C   0  0  0  0  0  0  0  0  0  0  0  0
   52.5060   30.8190   52.5840 C   0  0  0  0  0  0  0  0  0  0  0  0
   51.9310   31.1050   51.2580 C   0  0  0  0  0  0  0  0  0  0  0  0
   51.8770   30.1980   50.2660 N   0  0  0  0  0  0  0  0  0  0  0  0
   51.2090   30.8440   49.2860 C   0  0  0  0  0  0  0  0  0  0  0  0
   50.9660   30.3160   48.1700 O   0  0  0  0  0  0  0  0  0  0  0  0
   50.8120   32.0950   49.6010 N   0  0  0  0  0  0  0  0  0  0  0  0
   51.2650   32.2420   50.8560 C   0  0  0  0  0  0  0  0  0  0  0  0
   51.0310   33.3720   51.6290 O   0  0  0  0  0  0  0  0  0  0  0  0
   53.6270   28.7830   53.3330 C   0  0  0  0  0  0  0  0  0  0  0  0
   54.9520   28.4020   53.3890 C   0  0  0  0  0  0  0  0  0  0  0  0
   55.4310   27.0850   53.9210 C   0  0  0  0  0  0  0  0  0  0  0  0
   55.7480   29.3890   52.9170 N   0  0  0  0  0  0  0  0  0  0  0  0
   57.1810   29.3350   52.8050 C   0  0  0  0  0  0  0  0  0  0  0  0
   58.0790   29.2560   53.8560 C   0  0  0  0  0  0  0  0  0  0  0  0
   59.3150   29.1740   53.2430 C   0  0  0  0  0  0  0  0  0  0  0  0
   59.1390   29.2080   51.9050 N   0  0  0  0  0  0  0  0  0  0  0  0
   60.1820   29.0520   50.8970 C   0  0  0  0  0  0  0  0  0  0  0  0
   59.7280   29.6500   49.5940 C   0  0  0  0  0  0  0  0  0  0  0  0
   59.5920   28.8320   48.4590 C   0  0  0  0  0  0  0  0  0  0  0  0
   59.1290   29.3680   47.2540 C   0  0  0  0  0  0  0  0  0  0  0  0
   58.7900   30.7210   47.1730 C   0  0  0  0  0  0  0  0  0  0  0  0
   58.3390   31.2390   46.0040 F   0  0  0  0  0  0  0  0  0  0  0  0
   58.9080   31.5390   48.3010 C   0  0  0  0  0  0  0  0  0  0  0  0
   59.3700   31.0080   49.5100 C   0  0  0  0  0  0  0  0  0  0  0  0
   59.4650   31.8180   50.5940 F   0  0  0  0  0  0  0  0  0  0  0  0
   57.8460   29.2950   51.6360 N   0  0  0  0  0  0  0  0  0  0  0  0
   56.4482   31.7517   51.9163 H   0  0  0  0  0  0  0  0  0  0  0  0
   54.6517   32.3779   51.8133 H   0  0  0  0  0  0  0  0  0  0  0  0
   52.0114   31.2532   53.4654 H   0  0  0  0  0  0  0  0  0  0  0  0
   52.7593   28.1912   53.6600 H   0  0  0  0  0  0  0  0  0  0  0  0
   55.4224   27.1088   55.0207 H   0  0  0  0  0  0  0  0  0  0  0  0
   54.7670   26.2829   53.5663 H   0  0  0  0  0  0  0  0  0  0  0  0
   56.4551   26.8969   53.5663 H   0  0  0  0  0  0  0  0  0  0  0  0
   57.8588   29.2580   54.9337 H   0  0  0  0  0  0  0  0  0  0  0  0
   60.2826   29.0942   53.7601 H   0  0  0  0  0  0  0  0  0  0  0  0
   61.0951   29.5639   51.2347 H   0  0  0  0  0  0  0  0  0  0  0  0
   60.3881   27.9813   50.7518 H   0  0  0  0  0  0  0  0  0  0  0  0
   59.8512   27.7647   48.5194 H   0  0  0  0  0  0  0  0  0  0  0  0
   59.0314   28.7235   46.3679 H   0  0  0  0  0  0  0  0  0  0  0  0
   58.6368   32.6031   48.2375 H   0  0  0  0  0  0  0  0  0  0  0  0
   57.4300   29.2910   50.6780 H   0  0  0  0  0  0  0  0  0  0  0  0
  1  2  2  0
  2  3  1  0
  3  4  2  3
  4  5  1  0
  5  6  1  0
  6  7  1  0
  7  8  2  0
  7  9  1  0
  9 10  1  0
 10 11  1  0
  3 12  1  0
 12 13  2  0
 13 14  1  0
 13 15  1  0
 15 16  1  0
 16 17  1  0
 17 18  2  0
 18 19  1  0
 19 20  1  0
 20 21  1  0
 21 22  2  0
 22 23  1  0
 23 24  2  0
 24 25  1  0
 24 26  1  0
 26 27  2  0
 27 28  1  0
 19 29  1  0
 15  2  1  0
 29 16  2  0
 10  5  2  0
 27 21  1  0
  1 30  1  0
  1 31  1  0
  4 32  1  0
 12 33  1  0
 14 34  1  0
 14 35  1  0
 14 36  1  0
 17 37  1  0
 18 38  1  0
 20 39  1  0
 20 40  1  0
 22 41  1  0
 23 42  1  0
 26 43  1  0
 29 44  1  0
M  CHG  4   6  -1   9  -1  11  -1  29   1
M  END
>  <UniqueID>  (4) 
3

>  <SMILES>  (4) 
C=c1c(=Cc2[n-]c(=O)[n-]c2[O-])cc(C)n1-c1ccn(Cc2ccc(F)cc2F)[nH+]1

>  <Energy>  (4) 
147.65168014634997

>  <Genealogy>  (4) 
C=c1c(=Cc2[n-]c(=O)[n-]c2[O-])cc(C)n1-c1ccn(Cc2ccc(F)cc2F)[nH+]1 (protonated)
C=c1c(=Cc2[n-]c(=O)[n-]c2[O-])cc(C)n1-c1ccn(Cc2ccc(F)cc2F)[nH+]1 (3D coordinates assigned)
C=c1c(=Cc2[n-]c(=O)[n-]c2[O-])cc(C)n1-c1ccn(Cc2ccc(F)cc2F)[nH+]1 (optimized conformer: 147.65168014634997 kcal/mol)

>  <smiles>  (4) 
C=c1c(=Cc2[nH]c(=O)[nH]c2O)cc(C)n1-c1ccn(Cc2ccc(F)cc2F)n1

>  <score_type>  (4) 
oracle

>  <origin>  (4) 
adg

>  <m_score__min__energy>  (4) 
-15.08

>  <m_primary>  (4) 
energy

$$$$
4:0
     RDKit          3D

 61 64  0  0  0  0  0  0  0  0999 V2000
   55.8040   31.3600   44.4970 O   0  0  0  0  0  0  0  0  0  0  0  0
   57.0190   31.5720   44.7550 C   0  0  0  0  0  0  0  0  0  0  0  0
   58.0510   30.5940   44.2850 C   0  0  0  0  0  0  0  0  0  0  0  0
   58.0780   29.4280   45.1620 N   0  0  0  0  0  0  0  0  0  0  0  0
   56.9670   28.5390   45.3430 C   0  0  0  0  0  0  0  0  0  0  0  0
   55.7970   28.9530   45.1240 O   0  0  0  0  0  0  0  0  0  0  0  0
   57.1800   27.1440   45.8110 C   0  0  0  0  0  0  0  0  0  0  0  0
   58.4950   26.6630   45.9680 C   0  0  0  0  0  0  0  0  0  0  0  0
   58.7300   25.3590   46.4090 C   0  0  0  0  0  0  0  0  0  0  0  0
   57.6590   24.5160   46.7020 C   0  0  0  0  0  0  0  0  0  0  0  0
   56.3480   24.9740   46.5560 C   0  0  0  0  0  0  0  0  0  0  0  0
   55.2870   24.1250   46.8520 O   0  0  0  0  0  0  0  0  0  0  0  0
   56.0990   26.2810   46.1180 C   0  0  0  0  0  0  0  0  0  0  0  0
   54.7810   26.7130   46.0080 O   0  0  0  0  0  0  0  0  0  0  0  0
   57.4310   32.7790   45.4110 N   0  0  0  0  0  0  0  0  0  0  0  0
   58.4760   32.9200   46.3870 C   0  0  0  0  0  0  0  0  0  0  0  0
   58.7740   31.9120   47.3230 C   0  0  0  0  0  0  0  0  0  0  0  0
   59.8140   32.0890   48.2400 C   0  0  0  0  0  0  0  0  0  0  0  0
   60.5810   33.2610   48.2230 C   0  0  0  0  0  0  0  0  0  0  0  0
   61.8780   33.4810   49.3970 S   0  0  0  0  0  0  0  0  0  0  0  0
   63.0580   32.6540   48.9650 O   0  0  0  0  0  0  0  0  0  0  0  0
   62.2890   34.9270   49.4080 O   0  0  0  0  0  0  0  0  0  0  0  0
   61.4260   33.0120   51.0080 N   0  0  0  0  0  0  0  0  0  0  0  0
   60.0990   33.0480   51.5450 C   0  0  0  0  0  0  0  0  0  0  0  0
   59.5830   34.1980   52.1630 C   0  0  0  0  0  0  0  0  0  0  0  0
   58.2900   34.1910   52.6930 C   0  0  0  0  0  0  0  0  0  0  0  0
   57.5160   33.0290   52.6390 C   0  0  0  0  0  0  0  0  0  0  0  0
   58.0370   31.8640   52.0640 C   0  0  0  0  0  0  0  0  0  0  0  0
   57.0800   30.3850   52.0700 S   0  0  0  0  0  0  0  0  0  0  0  0
   55.7410   30.6820   51.4560 O   0  0  0  0  0  0  0  0  0  0  0  0
   57.7630   29.3290   51.2480 O   0  0  0  0  0  0  0  0  0  0  0  0
   56.8780   29.8420   53.7220 N   0  0  0  0  0  0  0  0  0  0  0  0
   57.2080   28.4090   53.8780 C   0  0  0  0  0  0  0  0  0  0  0  0
   55.9610   27.5050   53.8870 C   0  0  0  0  0  0  0  0  0  0  0  0
   54.9480   28.0630   53.0830 O   0  0  0  0  0  0  0  0  0  0  0  0
   54.4400   29.2400   53.6880 C   0  0  0  0  0  0  0  0  0  0  0  0
   55.5410   30.1720   54.2460 C   0  0  0  0  0  0  0  0  0  0  0  0
   59.3320   31.8760   51.5250 C   0  0  0  0  0  0  0  0  0  0  0  0
   60.3020   34.2550   47.2730 C   0  0  0  0  0  0  0  0  0  0  0  0
   59.2580   34.0820   46.3600 C   0  0  0  0  0  0  0  0  0  0  0  0
   57.8076   30.2730   43.2614 H   0  0  0  0  0  0  0  0  0  0  0  0
   59.0384   31.0786   44.3023 H   0  0  0  0  0  0  0  0  0  0  0  0
   59.3459   27.3219   45.7407 H   0  0  0  0  0  0  0  0  0  0  0  0
   59.7620   24.9964   46.5254 H   0  0  0  0  0  0  0  0  0  0  0  0
   57.8469   23.4891   47.0485 H   0  0  0  0  0  0  0  0  0  0  0  0
   58.1866   30.9820   47.3329 H   0  0  0  0  0  0  0  0  0  0  0  0
   60.0313   31.3037   48.9790 H   0  0  0  0  0  0  0  0  0  0  0  0
   60.1983   35.1073   52.2303 H   0  0  0  0  0  0  0  0  0  0  0  0
   57.8807   35.1022   53.1537 H   0  0  0  0  0  0  0  0  0  0  0  0
   56.4953   33.0297   53.0491 H   0  0  0  0  0  0  0  0  0  0  0  0
   57.8560   28.1050   53.0428 H   0  0  0  0  0  0  0  0  0  0  0  0
   57.7098   28.2894   54.8495 H   0  0  0  0  0  0  0  0  0  0  0  0
   56.2293   26.5124   53.4961 H   0  0  0  0  0  0  0  0  0  0  0  0
   55.5908   27.4156   54.9190 H   0  0  0  0  0  0  0  0  0  0  0  0
   53.8615   29.7962   52.9357 H   0  0  0  0  0  0  0  0  0  0  0  0
   53.8211   28.9240   54.5407 H   0  0  0  0  0  0  0  0  0  0  0  0
   55.2995   31.2088   53.9689 H   0  0  0  0  0  0  0  0  0  0  0  0
   55.5681   30.0412   55.3379 H   0  0  0  0  0  0  0  0  0  0  0  0
   59.7482   30.9585   51.0835 H   0  0  0  0  0  0  0  0  0  0  0  0
   60.9068   35.1734   47.2466 H   0  0  0  0  0  0  0  0  0  0  0  0
   59.0489   34.8638   45.6150 H   0  0  0  0  0  0  0  0  0  0  0  0
  1  2  2  0
  2  3  1  0
  3  4  1  0
  4  5  1  0
  5  6  2  0
  5  7  1  0
  7  8  2  0
  8  9  1  0
  9 10  2  0
 10 11  1  0
 11 12  1  0
 11 13  2  0
 13 14  1  0
  2 15  1  0
 15 16  1  0
 16 17  2  0
 17 18  1  0
 18 19  2  0
 19 20  1  0
 20 21  2  0
 20 22  2  0
 20 23  1  0
 23 24  1  0
 24 25  2  0
 25 26  1  0
 26 27  2  0
 27 28  1  0
 28 29  1  0
 29 30  2  0
 29 31  2  0
 29 32  1  0
 32 33  1  0
 33 34  1  0
 34 35  1  0
 35 36  1  0
 36 37  1  0
 28 38  2  0
 19 39  1  0
 39 40  2  0
 13  7  1  0
 40 16  1  0
 38 24  1  0
 37 32  1  0
  3 41  1  0
  3 42  1  0
  8 43  1  0
  9 44  1  0
 10 45  1  0
 17 46  1  0
 18 47  1  0
 25 48  1  0
 26 49  1  0
 27 50  1  0
 33 51  1  0
 33 52  1  0
 34 53  1  0
 34 54  1  0
 36 55  1  0
 36 56  1  0
 37 57  1  0
 37 58  1  0
 38 59  1  0
 39 60  1  0
 40 61  1  0
M  CHG  5   4  -1  12  -1  14  -1  15  -1  23  -1
M  END
>  <UniqueID>  (5) 
4

>  <SMILES>  (5) 
O=C(C[N-]C(=O)c1cccc([O-])c1[O-])[N-]c1ccc(S(=O)(=O)[N-]c2cccc(S(=O)(=O)N3CCOCC3)c2)cc1

>  <Energy>  (5) 
88.39883195854198

>  <Genealogy>  (5) 
O=C(C[N-]C(=O)c1cccc([O-])c1[O-])[N-]c1ccc(S(=O)(=O)[N-]c2cccc(S(=O)(=O)N3CCOCC3)c2)cc1 (protonated)
O=C(C[N-]C(=O)c1cccc([O-])c1[O-])[N-]c1ccc(S(=O)(=O)[N-]c2cccc(S(=O)(=O)N3CCOCC3)c2)cc1 (3D coordinates assigned)
O=C(C[N-]C(=O)c1cccc([O-])c1[O-])[N-]c1ccc(S(=O)(=O)[N-]c2cccc(S(=O)(=O)N3CCOCC3)c2)cc1 (nonaromatic ring conformer: 88.39883195854198 kcal/mol)

>  <smiles>  (5) 
O=C(CNC(=O)c1cccc(O)c1O)Nc1ccc(S(=O)(=O)Nc2cccc(S(=O)(=O)N3CCOCC3)c2)cc1

>  <score_type>  (5) 
oracle

>  <origin>  (5) 
adg

>  <m_score__min__energy>  (5) 
-22.600000000000001

>  <m_primary>  (5) 
energy

$$$$
5:0
     RDKit          3D

 52 54  0  0  0  0  0  0  0  0999 V2000
   57.3700   32.3310   41.6090 C   0  0  0  0  0  0  0  0  0  0  0  0
   57.5270   31.2110   42.6440 C   0  0  0  0  0  0  0  0  0  0  0  0
   56.3390   30.2420   42.5950 C   0  0  0  0  0  0  0  0  0  0  0  0
   57.7320   31.7740   43.9990 N   0  0  0  0  0  0  0  0  0  0  0  0
   57.9230   33.2250   44.1860 C   0  0  0  0  0  0  0  0  0  0  0  0
   58.6280   33.5150   45.4750 C   0  0  0  0  0  0  0  0  0  0  0  0
   59.9430   33.3060   45.6870 N   0  0  0  0  0  0  0  0  0  0  0  0
   60.0870   33.7020   46.9690 C   0  0  0  0  0  0  0  0  0  0  0  0
   61.3770   33.6720   47.6950 C   0  0  0  0  0  0  0  0  0  0  0  0
   62.5190   33.1360   47.0700 C   0  0  0  0  0  0  0  0  0  0  0  0
   63.7400   33.0870   47.7470 C   0  0  0  0  0  0  0  0  0  0  0  0
   63.8370   33.5740   49.0530 C   0  0  0  0  0  0  0  0  0  0  0  0
   62.7110   34.1090   49.6830 C   0  0  0  0  0  0  0  0  0  0  0  0
   61.4860   34.1590   49.0100 C   0  0  0  0  0  0  0  0  0  0  0  0
   58.9160   34.1280   47.4850 N   0  0  0  0  0  0  0  0  0  0  0  0
   58.0390   34.0030   46.5410 O   0  0  0  0  0  0  0  0  0  0  0  0
   57.9880   30.8580   45.0940 C   0  0  0  0  0  0  0  0  0  0  0  0
   57.0320   30.4800   45.8260 O   0  0  0  0  0  0  0  0  0  0  0  0
   59.3660   30.3270   45.3980 C   0  0  0  0  0  0  0  0  0  0  0  0
   59.3340   28.8500   45.8200 C   0  0  0  0  0  0  0  0  0  0  0  0
   58.6450   27.9570   44.7780 C   0  0  0  0  0  0  0  0  0  0  0  0
   57.8060   26.9490   45.4440 N   0  0  0  0  0  0  0  0  0  0  0  0
   58.3720   25.7700   45.8440 C   0  0  0  0  0  0  0  0  0  0  0  0
   57.6020   24.7890   46.4650 C   0  0  0  0  0  0  0  0  0  0  0  0
   56.2450   25.0320   46.6550 C   0  0  0  0  0  0  0  0  0  0  0  0
   55.5180   24.1690   47.2120 O   0  0  0  0  0  0  0  0  0  0  0  0
   55.7030   26.2030   46.2340 N   0  0  0  0  0  0  0  0  0  0  0  0
   56.4610   27.1540   45.6300 C   0  0  0  0  0  0  0  0  0  0  0  0
   55.9130   28.2220   45.2460 O   0  0  0  0  0  0  0  0  0  0  0  0
   57.2353   33.2923   42.1265 H   0  0  0  0  0  0  0  0  0  0  0  0
   58.2705   32.3769   40.9789 H   0  0  0  0  0  0  0  0  0  0  0  0
   56.4916   32.1275   40.9789 H   0  0  0  0  0  0  0  0  0  0  0  0
   58.4254   30.6286   42.3916 H   0  0  0  0  0  0  0  0  0  0  0  0
   56.0293   29.9894   43.6199 H   0  0  0  0  0  0  0  0  0  0  0  0
   55.5002   30.7168   42.0650 H   0  0  0  0  0  0  0  0  0  0  0  0
   56.6355   29.3248   42.0650 H   0  0  0  0  0  0  0  0  0  0  0  0
   58.5228   33.6187   43.3522 H   0  0  0  0  0  0  0  0  0  0  0  0
   56.9344   33.7066   44.2128 H   0  0  0  0  0  0  0  0  0  0  0  0
   62.4493   32.7530   46.0412 H   0  0  0  0  0  0  0  0  0  0  0  0
   64.6263   32.6644   47.2512 H   0  0  0  0  0  0  0  0  0  0  0  0
   64.7993   33.5361   49.5846 H   0  0  0  0  0  0  0  0  0  0  0  0
   62.7879   34.4921   50.7113 H   0  0  0  0  0  0  0  0  0  0  0  0
   60.6030   34.5815   49.5118 H   0  0  0  0  0  0  0  0  0  0  0  0
   58.7220   34.5070   48.4380 H   0  0  0  0  0  0  0  0  0  0  0  0
   59.9910   30.4257   44.4982 H   0  0  0  0  0  0  0  0  0  0  0  0
   59.7778   30.9104   46.2347 H   0  0  0  0  0  0  0  0  0  0  0  0
   60.3676   28.4995   45.9571 H   0  0  0  0  0  0  0  0  0  0  0  0
   58.7571   28.7810   46.7540 H   0  0  0  0  0  0  0  0  0  0  0  0
   58.0151   28.5799   44.1260 H   0  0  0  0  0  0  0  0  0  0  0  0
   59.4141   27.4446   44.1814 H   0  0  0  0  0  0  0  0  0  0  0  0
   59.4446   25.5948   45.6739 H   0  0  0  0  0  0  0  0  0  0  0  0
   58.0563   23.8440   46.7975 H   0  0  0  0  0  0  0  0  0  0  0  0
  1  2  1  0
  2  3  1  0
  2  4  1  0
  4  5  1  0
  5  6  1  0
  6  7  2  0
  7  8  1  0
  8  9  1  0
  9 10  2  0
 10 11  1  0
 11 12  2  0
 12 13  1  0
 13 14  2  0
  8 15  2  0
 15 16  1  0
  4 17  1  0
 17 18  2  0
 17 19  1  0
 19 20  1  0
 20 21  1  0
 21 22  1  0
 22 23  1  0
 23 24  2  0
 24 25  1  0
 25 26  2  0
 25 27  1  0
 27 28  1  0
 28 29  2  0
 16  6  1  0
 28 22  1  0
 14  9  1  0
  1 30  1  0
  1 31  1  0
  1 32  1  0
  2 33  1  0
  3 34  1  0
  3 35  1  0
  3 36  1  0
  5 37  1  0
  5 38  1  0
 10 39  1  0
 11 40  1  0
 12 41  1  0
 13 42  1  0
 14 43  1  0
 15 44  1  0
 19 45  1  0
 19 46  1  0
 20 47  1  0
 20 48  1  0
 21 49  1  0
 21 50  1  0
 23 51  1  0
 24 52  1  0
M  CHG  2  15   1  27  -1
M  END
>  <UniqueID>  (6) 
5

>  <SMILES>  (6) 
CC(C)N(Cc1nc(-c2ccccc2)[nH+]o1)C(=O)CCCn1ccc(=O)[n-]c1=O

>  <Energy>  (6) 
83.5918803725981

>  <Genealogy>  (6) 
CC(C)N(Cc1nc(-c2ccccc2)[nH+]o1)C(=O)CCCn1ccc(=O)[n-]c1=O (protonated)
CC(C)N(Cc1nc(-c2ccccc2)[nH+]o1)C(=O)CCCn1ccc(=O)[n-]c1=O (3D coordinates assigned)
CC(C)N(Cc1nc(-c2ccccc2)[nH+]o1)C(=O)CCCn1ccc(=O)[n-]c1=O (optimized conformer: 83.5918803725981 kcal/mol)

>  <smiles>  (6) 
CC(C)N(Cc1nc(-c2ccccc2)no1)C(=O)CCCn1ccc(=O)[nH]c1=O

>  <score_type>  (6) 
oracle

>  <origin>  (6) 
adg

>  <m_score__min__energy>  (6) 
-9.5800000000000001

>  <m_primary>  (6) 
energy

$$$$
6:0
     RDKit          3D

 42 44  0  0  0  0  0  0  0  0999 V2000
   58.5470   28.3240   53.5650 C   0  0  0  0  0  0  0  0  0  0  0  0
   57.3620   28.4730   54.1640 C   0  0  0  0  0  0  0  0  0  0  0  0
   56.8150   29.8310   54.5020 C   0  0  0  0  0  0  0  0  0  0  0  0
   55.7560   30.2150   53.5500 N   0  0  0  0  0  0  0  0  0  0  0  0
   55.9570   30.6440   52.2790 C   0  0  0  0  0  0  0  0  0  0  0  0
   57.2700   30.8580   51.6280 C   0  0  0  0  0  0  0  0  0  0  0  0
   57.6320   30.1090   50.6810 O   0  0  0  0  0  0  0  0  0  0  0  0
   58.1670   31.8760   52.1060 N   0  0  0  0  0  0  0  0  0  0  0  0
   57.6870   33.2490   52.2910 C   0  0  0  0  0  0  0  0  0  0  0  0
   58.5400   33.9500   53.3520 C   0  0  0  0  0  0  0  0  0  0  0  0
   59.9160   33.8530   53.0320 O   0  0  0  0  0  0  0  0  0  0  0  0
   60.3260   32.5000   53.0790 C   0  0  0  0  0  0  0  0  0  0  0  0
   59.6140   31.6750   52.0010 C   0  0  0  0  0  0  0  0  0  0  0  0
   54.7520   30.8290   51.6330 C   0  0  0  0  0  0  0  0  0  0  0  0
   53.7530   30.4870   52.5310 C   0  0  0  0  0  0  0  0  0  0  0  0
   52.4200   30.4950   52.3040 C   0  0  0  0  0  0  0  0  0  0  0  0
   51.7630   30.8450   51.0240 C   0  0  0  0  0  0  0  0  0  0  0  0
   51.7080   30.0710   49.9260 N   0  0  0  0  0  0  0  0  0  0  0  0
   51.0510   30.8380   49.0290 C   0  0  0  0  0  0  0  0  0  0  0  0
   50.7980   30.4480   47.8590 O   0  0  0  0  0  0  0  0  0  0  0  0
   50.6930   32.0570   49.4830 N   0  0  0  0  0  0  0  0  0  0  0  0
   51.1540   32.0460   50.7450 C   0  0  0  0  0  0  0  0  0  0  0  0
   51.0200   33.1140   51.6230 O   0  0  0  0  0  0  0  0  0  0  0  0
   54.4080   30.0950   53.7080 C   0  0  0  0  0  0  0  0  0  0  0  0
   53.8070   29.6460   54.8250 C   0  0  0  0  0  0  0  0  0  0  0  0
   58.9216   27.3169   53.3298 H   0  0  0  0  0  0  0  0  0  0  0  0
   59.1480   29.2085   53.3070 H   0  0  0  0  0  0  0  0  0  0  0  0
   56.7722   27.5793   54.4160 H   0  0  0  0  0  0  0  0  0  0  0  0
   56.3965   29.8094   55.5191 H   0  0  0  0  0  0  0  0  0  0  0  0
   57.6302   30.5670   54.4419 H   0  0  0  0  0  0  0  0  0  0  0  0
   57.7636   33.7954   51.3394 H   0  0  0  0  0  0  0  0  0  0  0  0
   56.6373   33.2291   52.6193 H   0  0  0  0  0  0  0  0  0  0  0  0
   58.2547   35.0112   53.4014 H   0  0  0  0  0  0  0  0  0  0  0  0
   58.3675   33.4629   54.3230 H   0  0  0  0  0  0  0  0  0  0  0  0
   61.4123   32.4469   52.9143 H   0  0  0  0  0  0  0  0  0  0  0  0
   60.0664   32.0881   54.0654 H   0  0  0  0  0  0  0  0  0  0  0  0
   59.9574   31.9971   51.0068 H   0  0  0  0  0  0  0  0  0  0  0  0
   59.8466   30.6093   52.1428 H   0  0  0  0  0  0  0  0  0  0  0  0
   54.6108   31.1813   50.6006 H   0  0  0  0  0  0  0  0  0  0  0  0
   51.7663   30.2171   53.1439 H   0  0  0  0  0  0  0  0  0  0  0  0
   54.4118   29.3624   55.6989 H   0  0  0  0  0  0  0  0  0  0  0  0
   52.7109   29.5625   54.8642 H   0  0  0  0  0  0  0  0  0  0  0  0
  1  2  2  0
  2  3  1  0
  3  4  1  0
  4  5  1  0
  5  6  1  0
  6  7  2  0
  6  8  1  0
  8  9  1  0
  9 10  1  0
 10 11  1  0
 11 12  1  0
 12 13  1  0
  5 14  2  0
 14 15  1  0
 15 16  2  3
 16 17  1  0
 17 18  1  0
 18 19  1  0
 19 20  2  0
 19 21  1  0
 21 22  1  0
 22 23  1  0
 15 24  1  0
 24 25  2  0
 24  4  1  0
 13  8  1  0
 22 17  2  0
  1 26  1  0
  1 27  1  0
  2 28  1  0
  3 29  1  0
  3 30  1  0
  9 31  1  0
  9 32  1  0
 10 33  1  0
 10 34  1  0
 12 35  1  0
 12 36  1  0
 13 37  1  0
 13 38  1  0
 14 39  1  0
 16 40  1  0
 25 41  1  0
 25 42  1  0
M  CHG  3  18  -1  21  -1  23  -1
M  END
>  <UniqueID>  (7) 
6

>  <SMILES>  (7) 
C=CCn1c(C(=O)N2CCOCC2)cc(=Cc2[n-]c(=O)[n-]c2[O-])c1=C

>  <Energy>  (7) 
109.63976868271573

>  <Genealogy>  (7) 
C=CCn1c(C(=O)N2CCOCC2)cc(=Cc2[n-]c(=O)[n-]c2[O-])c1=C (protonated)
C=CCn1c(C(=O)N2CCOCC2)cc(=Cc2[n-]c(=O)[n-]c2[O-])c1=C (3D coordinates assigned)
C=CCn1c(C(=O)N2CCOCC2)cc(=Cc2[n-]c(=O)[n-]c2[O-])c1=C (nonaromatic ring conformer: 109.63976868271573 kcal/mol)

>  <smiles>  (7) 
C=CCn1c(C(=O)N2CCOCC2)cc(=Cc2[nH]c(=O)[nH]c2O)c1=C

>  <score_type>  (7) 
oracle

>  <origin>  (7) 
adg

>  <m_score__min__energy>  (7) 
-15.91

>  <m_primary>  (7) 
energy

$$$$
7:0
     RDKit          3D

 31 32  0  0  0  0  0  0  0  0999 V2000
   58.2080   23.0270   45.9810 C   0  0  0  0  0  0  0  0  0  0  0  0
   57.9690   24.3230   45.8470 C   0  0  0  0  0  0  0  0  0  0  0  0
   59.0500   25.1830   45.5370 N   0  0  0  0  0  0  0  0  0  0  0  0
   58.8960   26.4560   45.3910 C   0  0  0  0  0  0  0  0  0  0  0  0
   57.5820   27.1140   45.5330 C   0  0  0  0  0  0  0  0  0  0  0  0
   57.5420   28.5340   45.3460 C   0  0  0  0  0  0  0  0  0  0  0  0
   56.4040   29.0900   45.3010 O   0  0  0  0  0  0  0  0  0  0  0  0
   58.6500   29.4020   45.2030 N   0  0  0  0  0  0  0  0  0  0  0  0
   58.4580   30.8120   45.0210 C   0  0  0  0  0  0  0  0  0  0  0  0
   57.9940   31.3180   43.8220 C   0  0  0  0  0  0  0  0  0  0  0  0
   57.8250   32.6820   43.6930 C   0  0  0  0  0  0  0  0  0  0  0  0
   58.1070   33.5460   44.7260 C   0  0  0  0  0  0  0  0  0  0  0  0
   58.5620   33.0270   45.8970 C   0  0  0  0  0  0  0  0  0  0  0  0
   58.9270   34.0990   47.2250 Cl  0  0  0  0  0  0  0  0  0  0  0  0
   58.7460   31.6630   46.0700 C   0  0  0  0  0  0  0  0  0  0  0  0
   56.5710   26.3250   45.8200 C   0  0  0  0  0  0  0  0  0  0  0  0
   55.2990   26.8420   45.9750 O   0  0  0  0  0  0  0  0  0  0  0  0
   56.6930   24.9060   45.9930 N   0  0  0  0  0  0  0  0  0  0  0  0
   55.5600   24.0910   46.3050 C   0  0  0  0  0  0  0  0  0  0  0  0
   57.3850   22.3380   46.2217 H   0  0  0  0  0  0  0  0  0  0  0  0
   59.2294   22.6398   45.8516 H   0  0  0  0  0  0  0  0  0  0  0  0
   59.7750   27.0727   45.1523 H   0  0  0  0  0  0  0  0  0  0  0  0
   59.6160   29.0490   45.2240 H   0  0  0  0  0  0  0  0  0  0  0  0
   57.7629   30.6446   42.9835 H   0  0  0  0  0  0  0  0  0  0  0  0
   57.4554   33.0885   42.7400 H   0  0  0  0  0  0  0  0  0  0  0  0
   57.9676   34.6306   44.6071 H   0  0  0  0  0  0  0  0  0  0  0  0
   59.1152   31.2657   47.0270 H   0  0  0  0  0  0  0  0  0  0  0  0
   55.1420   27.8440   45.9680 H   0  0  0  0  0  0  0  0  0  0  0  0
   55.4532   24.0142   47.3971 H   0  0  0  0  0  0  0  0  0  0  0  0
   54.6532   24.5451   45.8789 H   0  0  0  0  0  0  0  0  0  0  0  0
   55.7021   23.0869   45.8789 H   0  0  0  0  0  0  0  0  0  0  0  0
  1  2  2  0
  2  3  1  0
  3  4  2  0
  4  5  1  0
  5  6  1  0
  6  7  2  0
  6  8  1  0
  8  9  1  0
  9 10  2  0
 10 11  1  0
 11 12  2  0
 12 13  1  0
 13 14  1  0
 13 15  2  0
  5 16  2  0
 16 17  1  0
 16 18  1  0
 18 19  1  0
 18  2  1  0
 15  9  1  0
  1 20  1  0
  1 21  1  0
  4 22  1  0
  8 23  1  0
 10 24  1  0
 11 25  1  0
 12 26  1  0
 15 27  1  0
 17 28  1  0
 19 29  1  0
 19 30  1  0
 19 31  1  0
M  END
>  <smiles>  (8) 
C=C1N=CC(C(=O)Nc2cccc(Cl)c2)=C(O)N1C

>  <score_type>  (8) 
oracle

>  <origin>  (8) 
adg

>  <m_score__min__energy>  (8) 
-8.0700000000000003

>  <m_primary>  (8) 
energy

$$$$
8:0
     RDKit          3D

 50 52  0  0  0  0  0  0  0  0999 V2000
   54.4895   29.6390   55.5708 H   0  0  0  0  0  0  0  0  0  0  0  0
   53.9110   29.8990   54.6720 C   0  0  0  0  0  0  0  0  0  0  0  0
   52.8220   30.0385   54.7401 H   0  0  0  0  0  0  0  0  0  0  0  0
   54.5340   30.0460   53.4920 C   0  0  0  0  0  0  0  0  0  0  0  0
   53.9570   30.3730   52.2550 C   0  0  0  0  0  0  0  0  0  0  0  0
   52.6640   30.4310   51.8820 C   0  0  0  0  0  0  0  0  0  0  0  0
   52.3172   29.6615   51.1766 H   0  0  0  0  0  0  0  0  0  0  0  0
   51.6690   31.4210   52.3240 C   0  0  0  0  0  0  0  0  0  0  0  0
   51.4350   31.7070   53.6150 N   0  0  0  0  0  0  0  0  0  0  0  0
   50.5760   32.7480   53.5570 C   0  0  0  0  0  0  0  0  0  0  0  0
   50.1050   33.2960   54.5880 O   0  0  0  0  0  0  0  0  0  0  0  0
   50.2730   33.1650   52.3100 N   0  0  0  0  0  0  0  0  0  0  0  0
   50.9850   32.3250   51.5400 C   0  0  0  0  0  0  0  0  0  0  0  0
   51.0280   32.4050   50.1530 O   0  0  0  0  0  0  0  0  0  0  0  0
   54.9410   30.6260   51.3680 N   0  0  0  0  0  0  0  0  0  0  0  0
   56.0800   30.4010   52.0480 C   0  0  0  0  0  0  0  0  0  0  0  0
   57.2200   30.5230   51.5280 O   0  0  0  0  0  0  0  0  0  0  0  0
   55.8830   30.0370   53.3320 N   0  0  0  0  0  0  0  0  0  0  0  0
   56.9440   29.7090   54.2960 C   0  0  0  0  0  0  0  0  0  0  0  0
   57.6516   30.5494   54.3511 H   0  0  0  0  0  0  0  0  0  0  0  0
   56.4807   29.5284   55.2772 H   0  0  0  0  0  0  0  0  0  0  0  0
   57.7010   28.4440   53.8750 C   0  0  0  0  0  0  0  0  0  0  0  0
   58.2736   28.0688   54.7360 H   0  0  0  0  0  0  0  0  0  0  0  0
   56.9634   27.7016   53.5362 H   0  0  0  0  0  0  0  0  0  0  0  0
   58.6230   28.7040   52.7710 N   0  0  0  0  0  0  0  0  0  0  0  0
   58.5220   29.5710   52.1950 H   0  0  0  0  0  0  0  0  0  0  0  0
   59.7230   27.8280   52.4970 C   0  0  0  0  0  0  0  0  0  0  0  0
   59.7960   26.7040   53.0610 O   0  0  0  0  0  0  0  0  0  0  0  0
   60.8240   28.2670   51.5790 C   0  0  0  0  0  0  0  0  0  0  0  0
   61.4588   29.0016   52.0962 H   0  0  0  0  0  0  0  0  0  0  0  0
   61.4256   27.3921   51.2914 H   0  0  0  0  0  0  0  0  0  0  0  0
   60.2400   28.8960   50.3400 C   0  0  0  0  0  0  0  0  0  0  0  0
   60.1100   28.1190   49.1750 C   0  0  0  0  0  0  0  0  0  0  0  0
   60.4487   27.0725   49.1786 H   0  0  0  0  0  0  0  0  0  0  0  0
   59.5520   28.6650   48.0060 C   0  0  0  0  0  0  0  0  0  0  0  0
   59.4090   27.9290   46.8200 O   0  0  0  0  0  0  0  0  0  0  0  0
   60.4130   27.0780   46.2790 C   0  0  0  0  0  0  0  0  0  0  0  0
   60.9725   26.6038   47.0988 H   0  0  0  0  0  0  0  0  0  0  0  0
   59.9406   26.3011   45.6600 H   0  0  0  0  0  0  0  0  0  0  0  0
   61.1020   27.6713   45.6600 H   0  0  0  0  0  0  0  0  0  0  0  0
   59.1160   29.9940   48.0140 C   0  0  0  0  0  0  0  0  0  0  0  0
   58.6867   30.4326   47.1011 H   0  0  0  0  0  0  0  0  0  0  0  0
   59.2210   30.7680   49.1700 C   0  0  0  0  0  0  0  0  0  0  0  0
   58.8667   31.8094   49.1624 H   0  0  0  0  0  0  0  0  0  0  0  0
   59.7760   30.2290   50.3460 C   0  0  0  0  0  0  0  0  0  0  0  0
   59.8780   30.9830   51.5280 O   0  0  0  0  0  0  0  0  0  0  0  0
   59.8380   32.4060   51.5860 C   0  0  0  0  0  0  0  0  0  0  0  0
   59.8289   32.7300   52.6372 H   0  0  0  0  0  0  0  0  0  0  0  0
   60.7249   32.8186   51.0828 H   0  0  0  0  0  0  0  0  0  0  0  0
   58.9293   32.7681   51.0828 H   0  0  0  0  0  0  0  0  0  0  0  0
  1  2  1  0
  2  3  1  0
  2  4  2  0
  4  5  1  0
  5  6  2  0
  6  7  1  0
  6  8  1  0
  8  9  1  0
  9 10  1  0
 10 11  2  0
 10 12  1  0
 12 13  1  0
 13 14  1  0
  5 15  1  0
 15 16  1  0
 16 17  2  0
 16 18  1  0
 18 19  1  0
 19 20  1  0
 19 21  1  0
 19 22  1  0
 22 23  1  0
 22 24  1  0
 22 25  1  0
 25 26  1  0
 25 27  1  0
 27 28  2  0
 27 29  1  0
 29 30  1  0
 29 31  1  0
 29 32  1  0
 32 33  2  0
 33 34  1  0
 33 35  1  0
 35 36  1  0
 36 37  1  0
 37 38  1  0
 37 39  1  0
 37 40  1  0
 35 41  2  0
 41 42  1  0
 41 43  1  0
 43 44  1  0
 43 45  2  0
 45 46  1  0
 46 47  1  0
 47 48  1  0
 47 49  1  0
 47 50  1  0
 18  4  1  0
 45 32  1  0
 13  8  2  0
M  CHG  4   9  -1  12  -1  14  -1  15  -1
M  END
>  <UniqueID>  (9) 
7

>  <SMILES>  (9) 
C=c1/c(=C\c2[n-]c(=O)[n-]c2[O-])[n-]c(=O)n1CCNC(=O)Cc1cc(OC)ccc1OC

>  <Energy>  (9) 
117.55821508404503

>  <Genealogy>  (9) 
C=c1c(=Cc2[n-]c(=O)[n-]c2[O-])[n-]c(=O)n1CCNC(=O)Cc1cc(OC)ccc1OC (protonated)
C=c1/c(=C\c2[n-]c(=O)[n-]c2[O-])[n-]c(=O)n1CCNC(=O)Cc1cc(OC)ccc1OC (cis-trans isomerization)
C=c1/c(=C\c2[n-]c(=O)[n-]c2[O-])[n-]c(=O)n1CCNC(=O)Cc1cc(OC)ccc1OC (3D coordinates assigned)
C=c1/c(=C\c2[n-]c(=O)[n-]c2[O-])[n-]c(=O)n1CCNC(=O)Cc1cc(OC)ccc1OC (optimized conformer: 117.55821508404503 kcal/mol)

>  <smiles>  (9) 
C=c1c(=Cc2[nH]c(=O)[nH]c2O)[nH]c(=O)n1CCNC(=O)Cc1cc(OC)ccc1OC

>  <score_type>  (9) 
oracle

>  <origin>  (9) 
adg

>  <m_score__min__energy>  (9) 
-17.84

>  <m_primary>  (9) 
energy

$$$$
9:0
     RDKit          3D

 52 55  0  0  0  0  0  0  0  0999 V2000
   60.0670   27.3690   46.0300 C   0  0  0  0  0  0  0  0  0  0  0  0
   58.9210   28.2930   45.7550 C   0  0  0  0  0  0  0  0  0  0  0  0
   58.0750   28.2350   44.6670 C   0  0  0  0  0  0  0  0  0  0  0  0
   57.1540   29.2450   44.8580 C   0  0  0  0  0  0  0  0  0  0  0  0
   57.4080   29.8770   45.9820 O   0  0  0  0  0  0  0  0  0  0  0  0
   58.4610   29.3320   46.5520 C   0  0  0  0  0  0  0  0  0  0  0  0
   59.0350   29.7950   47.8340 C   0  0  0  0  0  0  0  0  0  0  0  0
   58.3260   29.7400   48.8760 O   0  0  0  0  0  0  0  0  0  0  0  0
   60.3930   30.2800   47.9230 N   0  0  0  0  0  0  0  0  0  0  0  0
   61.1650   29.9920   49.1450 C   0  0  0  0  0  0  0  0  0  0  0  0
   62.2980   31.0040   49.3990 C   0  0  0  0  0  0  0  0  0  0  0  0
   62.0740   32.3410   48.6500 C   0  0  0  0  0  0  0  0  0  0  0  0
   62.0970   31.9660   47.1420 C   0  0  0  0  0  0  0  0  0  0  0  0
   61.0100   30.9400   46.7580 C   0  0  0  0  0  0  0  0  0  0  0  0
   63.2050   33.2740   49.0000 C   0  0  0  0  0  0  0  0  0  0  0  0
   64.2720   33.3040   48.3300 O   0  0  0  0  0  0  0  0  0  0  0  0
   63.0630   34.1230   50.1350 N   0  0  0  0  0  0  0  0  0  0  0  0
   62.0040   33.9210   51.1200 C   0  0  0  0  0  0  0  0  0  0  0  0
   60.7060   33.3200   50.5190 C   0  0  0  0  0  0  0  0  0  0  0  0
   60.7810   32.9700   49.0740 N   0  0  0  0  0  0  0  0  0  0  0  0
   60.1940   34.0220   48.1990 C   0  0  0  0  0  0  0  0  0  0  0  0
   59.2420   33.4920   47.1590 C   0  0  0  0  0  0  0  0  0  0  0  0
   58.1290   32.6920   47.3720 C   0  0  0  0  0  0  0  0  0  0  0  0
   57.5200   32.4880   46.1910 N   0  0  0  0  0  0  0  0  0  0  0  0
   58.2160   33.0970   45.2440 N   0  0  0  0  0  0  0  0  0  0  0  0
   57.8130   33.1710   43.8450 C   0  0  0  0  0  0  0  0  0  0  0  0
   59.2700   33.7270   45.7960 C   0  0  0  0  0  0  0  0  0  0  0  0
   60.1993   27.2623   47.1168 H   0  0  0  0  0  0  0  0  0  0  0  0
   59.8580   26.3838   45.5876 H   0  0  0  0  0  0  0  0  0  0  0  0
   60.9855   27.7822   45.5876 H   0  0  0  0  0  0  0  0  0  0  0  0
   58.1242   27.5308   43.8234 H   0  0  0  0  0  0  0  0  0  0  0  0
   56.3292   29.4855   44.1710 H   0  0  0  0  0  0  0  0  0  0  0  0
   60.4791   30.0119   50.0048 H   0  0  0  0  0  0  0  0  0  0  0  0
   61.6319   29.0049   49.0119 H   0  0  0  0  0  0  0  0  0  0  0  0
   62.3535   31.2087   50.4784 H   0  0  0  0  0  0  0  0  0  0  0  0
   63.2329   30.5620   49.0241 H   0  0  0  0  0  0  0  0  0  0  0  0
   61.9399   32.8805   46.5512 H   0  0  0  0  0  0  0  0  0  0  0  0
   63.0732   31.5041   46.9331 H   0  0  0  0  0  0  0  0  0  0  0  0
   60.2221   31.4607   46.1940 H   0  0  0  0  0  0  0  0  0  0  0  0
   61.4986   30.1562   46.1606 H   0  0  0  0  0  0  0  0  0  0  0  0
   62.3769   33.2374   51.8969 H   0  0  0  0  0  0  0  0  0  0  0  0
   61.7452   34.9107   51.5243 H   0  0  0  0  0  0  0  0  0  0  0  0
   60.4634   32.4048   51.0789 H   0  0  0  0  0  0  0  0  0  0  0  0
   59.9382   34.1031   50.6046 H   0  0  0  0  0  0  0  0  0  0  0  0
   59.6498   34.7364   48.8342 H   0  0  0  0  0  0  0  0  0  0  0  0
   61.0299   34.4887   47.6573 H   0  0  0  0  0  0  0  0  0  0  0  0
   57.8004   32.2923   48.3427 H   0  0  0  0  0  0  0  0  0  0  0  0
   56.6350   31.9540   46.0360 H   0  0  0  0  0  0  0  0  0  0  0  0
   56.7327   33.3694   43.7846 H   0  0  0  0  0  0  0  0  0  0  0  0
   58.3633   33.9831   43.3474 H   0  0  0  0  0  0  0  0  0  0  0  0
   58.0389   32.2164   43.3474 H   0  0  0  0  0  0  0  0  0  0  0  0
   60.0213   34.3237   45.2579 H   0  0  0  0  0  0  0  0  0  0  0  0
  1  2  1  0
  2  3  1  0
  3  4  2  0
  4  5  1  0
  5  6  1  0
  6  7  1  0
  7  8  2  0
  7  9  1  0
  9 10  1  0
 10 11  1  0
 11 12  1  0
 12 13  1  0
 13 14  1  0
 12 15  1  0
 15 16  2  0
 15 17  1  0
 17 18  1  0
 18 19  1  0
 19 20  1  0
 20 21  1  0
 21 22  1  0
 22 23  1  0
 23 24  2  0
 24 25  1  0
 25 26  1  0
 25 27  1  0
  6  2  2  0
 14  9  1  0
 27 22  2  0
 20 12  1  0
  1 28  1  0
  1 29  1  0
  1 30  1  0
  3 31  1  0
  4 32  1  0
 10 33  1  0
 10 34  1  0
 11 35  1  0
 11 36  1  0
 13 37  1  0
 13 38  1  0
 14 39  1  0
 14 40  1  0
 18 41  1  0
 18 42  1  0
 19 43  1  0
 19 44  1  0
 21 45  1  0
 21 46  1  0
 23 47  1  0
 24 48  1  0
 26 49  1  0
 26 50  1  0
 26 51  1  0
 27 52  1  0
M  CHG  2  17  -1  24   1
M  END
>  <UniqueID>  (10) 
8

>  <SMILES>  (10) 
Cc1ccoc1C(=O)N1CCC2(CC1)C(=O)[N-]CCN2Cc1c[nH+]n(C)c1

>  <Energy>  (10) 
134.90074739222678

>  <Genealogy>  (10) 
Cc1ccoc1C(=O)N1CCC2(CC1)C(=O)[N-]CCN2Cc1c[nH+]n(C)c1 (protonated)
Cc1ccoc1C(=O)N1CCC2(CC1)C(=O)[N-]CCN2Cc1c[nH+]n(C)c1 (3D coordinates assigned)
Cc1ccoc1C(=O)N1CCC2(CC1)C(=O)[N-]CCN2Cc1c[nH+]n(C)c1 (nonaromatic ring conformer: 134.90074739222678 kcal/mol)

>  <smiles>  (10) 
Cc1ccoc1C(=O)N1CCC2(CC1)C(=O)NCCN2Cc1cnn(C)c1

>  <score_type>  (10) 
oracle

>  <origin>  (10) 
adg

>  <m_score__min__energy>  (10) 
-6.6200000000000001

>  <m_primary>  (10) 
energy

$$$$
10:0
     RDKit          3D

 49 52  0  0  0  0  0  0  0  0999 V2000
   53.6130   28.6480   54.3980 C   0  0  0  0  0  0  0  0  0  0  0  0
   54.2010   29.4910   53.5350 C   0  0  0  0  0  0  0  0  0  0  0  0
   53.5860   30.1810   52.4790 C   0  0  0  0  0  0  0  0  0  0  0  0
   52.2850   30.3730   52.1860 C   0  0  0  0  0  0  0  0  0  0  0  0
   51.7590   30.8540   50.8980 C   0  0  0  0  0  0  0  0  0  0  0  0
   51.6380   30.1000   49.7890 N   0  0  0  0  0  0  0  0  0  0  0  0
   50.9890   30.9150   48.9280 C   0  0  0  0  0  0  0  0  0  0  0  0
   50.7010   30.5660   47.7530 O   0  0  0  0  0  0  0  0  0  0  0  0
   50.6650   32.1250   49.4290 N   0  0  0  0  0  0  0  0  0  0  0  0
   51.1460   32.0640   50.6800 C   0  0  0  0  0  0  0  0  0  0  0  0
   51.0240   33.0910   51.6080 O   0  0  0  0  0  0  0  0  0  0  0  0
   54.6110   30.7040   51.7110 C   0  0  0  0  0  0  0  0  0  0  0  0
   55.7940   30.3730   52.3370 C   0  0  0  0  0  0  0  0  0  0  0  0
   57.1270   30.7400   51.8120 C   0  0  0  0  0  0  0  0  0  0  0  0
   57.8130   29.8480   51.2430 O   0  0  0  0  0  0  0  0  0  0  0  0
   57.6760   32.0620   52.0100 N   0  0  1  0  0  0  0  0  0  0  0  0
   58.9390   32.0200   52.7970 C   0  0  0  0  0  0  0  0  0  0  0  0
   59.7700   33.2730   52.5290 C   0  0  0  0  0  0  0  0  0  0  0  0
   60.0620   33.4050   51.0310 C   0  0  0  0  0  0  0  0  0  0  0  0
   59.0250   32.6300   50.1960 C   0  0  2  0  0  0  0  0  0  0  0  0
   58.9700   33.1760   48.7880 C   0  0  0  0  0  0  0  0  0  0  0  0
   59.7530   34.2850   48.4170 C   0  0  0  0  0  0  0  0  0  0  0  0
   59.7200   34.7650   47.1050 C   0  0  0  0  0  0  0  0  0  0  0  0
   58.9170   34.1390   46.1490 C   0  0  0  0  0  0  0  0  0  0  0  0
   58.1480   33.0280   46.5020 C   0  0  0  0  0  0  0  0  0  0  0  0
   58.1770   32.5430   47.8140 C   0  0  0  0  0  0  0  0  0  0  0  0
   57.7410   32.7240   50.7960 O   0  0  0  0  0  0  0  0  0  0  0  0
   55.5480   29.6680   53.4680 N   0  0  0  0  0  0  0  0  0  0  0  0
   56.5450   29.1770   54.4260 C   0  0  0  0  0  0  0  0  0  0  0  0
   54.2078   28.1663   55.1880 H   0  0  0  0  0  0  0  0  0  0  0  0
   52.5362   28.4388   54.3153 H   0  0  0  0  0  0  0  0  0  0  0  0
   51.5533   30.1514   52.9769 H   0  0  0  0  0  0  0  0  0  0  0  0
   54.5027   31.2757   50.7775 H   0  0  0  0  0  0  0  0  0  0  0  0
   57.0020   32.6130   52.5890 H   0  0  0  0  0  0  0  0  0  0  0  0
   58.6975   31.9667   53.8688 H   0  0  0  0  0  0  0  0  0  0  0  0
   59.5187   31.1343   52.4979 H   0  0  0  0  0  0  0  0  0  0  0  0
   59.2128   34.1581   52.8698 H   0  0  0  0  0  0  0  0  0  0  0  0
   60.7221   33.1951   53.0743 H   0  0  0  0  0  0  0  0  0  0  0  0
   60.0280   34.4680   50.7502 H   0  0  0  0  0  0  0  0  0  0  0  0
   61.0585   32.9849   50.8299 H   0  0  0  0  0  0  0  0  0  0  0  0
   59.3284   31.5733   50.1589 H   0  0  0  0  0  0  0  0  0  0  0  0
   60.3942   34.7765   49.1635 H   0  0  0  0  0  0  0  0  0  0  0  0
   60.3279   35.6379   46.8246 H   0  0  0  0  0  0  0  0  0  0  0  0
   58.8903   34.5211   45.1178 H   0  0  0  0  0  0  0  0  0  0  0  0
   57.5186   32.5335   45.7474 H   0  0  0  0  0  0  0  0  0  0  0  0
   57.5765   31.6621   48.0852 H   0  0  0  0  0  0  0  0  0  0  0  0
   56.1867   29.3535   55.4509 H   0  0  0  0  0  0  0  0  0  0  0  0
   56.7011   28.0990   54.2726 H   0  0  0  0  0  0  0  0  0  0  0  0
   57.4947   29.7105   54.2726 H   0  0  0  0  0  0  0  0  0  0  0  0
  1  2  2  0
  2  3  1  0
  3  4  2  3
  4  5  1  0
  5  6  1  0
  6  7  1  0
  7  8  2  0
  7  9  1  0
  9 10  1  0
 10 11  1  0
  3 12  1  0
 12 13  2  0
 13 14  1  0
 14 15  2  0
 14 16  1  0
 16 17  1  0
 17 18  1  0
 18 19  1  0
 19 20  1  0
 20 21  1  0
 21 22  2  0
 22 23  1  0
 23 24  2  0
 24 25  1  0
 25 26  2  0
 20 27  1  0
 13 28  1  0
 28 29  1  0
 28  2  1  0
 10  5  2  0
 27 16  1  0
 26 21  1  0
  1 30  1  0
  1 31  1  0
  4 32  1  0
 12 33  1  0
 16 34  1  1
 17 35  1  0
 17 36  1  0
 18 37  1  0
 18 38  1  0
 19 39  1  0
 19 40  1  0
 20 41  1  6
 22 42  1  0
 23 43  1  0
 24 44  1  0
 25 45  1  0
 26 46  1  0
 29 47  1  0
 29 48  1  0
 29 49  1  0
M  CHG  4   6  -1   9  -1  11  -1  16   1
M  END
>  <UniqueID>  (11) 
9

>  <SMILES>  (11) 
C=c1c(=Cc2[n-]c(=O)[n-]c2[O-])cc(C(=O)[N@H+]2CCC[C@H](c3ccccc3)O2)n1C

>  <Energy>  (11) 
142.2094620069132

>  <Genealogy>  (11) 
C=c1c(=Cc2[n-]c(=O)[n-]c2[O-])cc(C(=O)[NH+]2CCCC(c3ccccc3)O2)n1C (protonated)
C=c1c(=Cc2[n-]c(=O)[n-]c2[O-])cc(C(=O)[N@H+]2CCC[C@H](c3ccccc3)O2)n1C (chirality)
C=c1c(=Cc2[n-]c(=O)[n-]c2[O-])cc(C(=O)[N@H+]2CCC[C@H](c3ccccc3)O2)n1C (3D coordinates assigned)
C=c1c(=Cc2[n-]c(=O)[n-]c2[O-])cc(C(=O)[N@H+]2CCC[C@H](c3ccccc3)O2)n1C (nonaromatic ring conformer: 142.2094620069132 kcal/mol)

>  <smiles>  (11) 
C=c1c(=Cc2[nH]c(=O)[nH]c2O)cc(C(=O)N2CCCC(c3ccccc3)O2)n1C

>  <score_type>  (11) 
oracle

>  <origin>  (11) 
adg

>  <m_score__min__energy>  (11) 
-17.91

>  <m_primary>  (11) 
energy

$$$$
11:0
     RDKit          3D

 30 31  0  0  0  0  0  0  0  0999 V2000
   58.1340   32.1490   42.5230 C   0  0  0  0  0  0  0  0  0  0  0  0
   57.0570   31.5860   43.3970 C   0  0  0  0  0  0  0  0  0  0  0  0
   56.4480   30.5220   43.1120 O   0  0  0  0  0  0  0  0  0  0  0  0
   56.6890   32.2440   44.5850 O   0  0  0  0  0  0  0  0  0  0  0  0
   57.7480   32.7440   45.3440 C   0  0  0  0  0  0  0  0  0  0  0  0
   58.1610   34.0160   45.0810 C   0  0  0  0  0  0  0  0  0  0  0  0
   59.1960   34.5640   45.7920 C   0  0  0  0  0  0  0  0  0  0  0  0
   59.8160   33.8350   46.7670 C   0  0  0  0  0  0  0  0  0  0  0  0
   59.3800   32.5480   47.0180 C   0  0  0  0  0  0  0  0  0  0  0  0
   58.3500   31.9380   46.3440 C   0  0  0  0  0  0  0  0  0  0  0  0
   57.8470   30.7210   46.4920 O   0  0  0  0  0  0  0  0  0  0  0  0
   58.0410   29.4380   46.2630 C   0  0  0  0  0  0  0  0  0  0  0  0
   59.1160   28.6380   46.5770 C   0  0  0  0  0  0  0  0  0  0  0  0
   59.1890   27.3260   46.2840 N   0  0  0  0  0  0  0  0  0  0  0  0
   56.9930   28.7520   45.5910 C   0  0  0  0  0  0  0  0  0  0  0  0
   58.2630   25.1660   45.3010 S   0  0  0  0  0  0  0  0  0  0  0  0
   57.0720   27.4540   45.3040 N   0  0  0  0  0  0  0  0  0  0  0  0
   58.1600   26.7530   45.6490 C   0  0  0  0  0  0  0  0  0  0  0  0
   55.9280   29.3810   45.2380 N   0  0  0  0  0  0  0  0  0  0  0  0
   58.9344   32.5674   43.1509 H   0  0  0  0  0  0  0  0  0  0  0  0
   58.5456   31.3507   41.8879 H   0  0  0  0  0  0  0  0  0  0  0  0
   57.7134   32.9426   41.8879 H   0  0  0  0  0  0  0  0  0  0  0  0
   57.6623   34.6038   44.2963 H   0  0  0  0  0  0  0  0  0  0  0  0
   59.5277   35.5907   45.5779 H   0  0  0  0  0  0  0  0  0  0  0  0
   60.6486   34.2655   47.3428 H   0  0  0  0  0  0  0  0  0  0  0  0
   59.8898   31.9759   47.8072 H   0  0  0  0  0  0  0  0  0  0  0  0
   59.9675   29.0987   47.0992 H   0  0  0  0  0  0  0  0  0  0  0  0
   60.0230   26.7610   46.5420 H   0  0  0  0  0  0  0  0  0  0  0  0
   56.2730   26.9830   44.8050 H   0  0  0  0  0  0  0  0  0  0  0  0
   55.8540   30.4210   45.2450 H   0  0  0  0  0  0  0  0  0  0  0  0
  1  2  1  0
  2  3  2  0
  2  4  1  0
  4  5  1  0
  5  6  2  0
  6  7  1  0
  7  8  2  0
  8  9  1  0
  9 10  2  0
 10 11  1  0
 11 12  1  0
 12 13  2  0
 13 14  1  0
 14 15  1  0
 15 16  2  0
 15 17  1  0
 17 18  1  0
 18 19  2  3
 10  5  1  0
 18 12  1  0
  1 20  1  0
  1 21  1  0
  1 22  1  0
  6 23  1  0
  7 24  1  0
  8 25  1  0
  9 26  1  0
 13 27  1  0
 14 28  1  0
 17 29  1  0
 19 30  1  0
M  END
>  <smiles>  (12) 
CC(=O)Oc1ccccc1Oc1c[nH]c(=S)[nH]c1=N

>  <score_type>  (12) 
oracle

>  <origin>  (12) 
adg

>  <m_score__min__energy>  (12) 
-6.2599999999999998

>  <m_primary>  (12) 
energy

$$$$
12:0
     RDKit          3D

 43 45  0  0  0  0  0  0  0  0999 V2000
   58.2160   21.8320   44.5060 C   0  0  0  0  0  0  0  0  0  0  0  0
   58.5040   23.0820   44.8910 C   0  0  0  0  0  0  0  0  0  0  0  0
   59.7550   23.2980   45.3820 N   0  0  0  0  0  0  0  0  0  0  0  0
   60.1020   24.4370   45.9800 N   0  0  0  0  0  0  0  0  0  0  0  0
   59.2140   25.4440   46.1590 C   0  0  0  0  0  0  0  0  0  0  0  0
   59.6390   26.6670   46.8710 C   0  0  0  0  0  0  0  0  0  0  0  0
   60.1560   26.5630   48.0170 O   0  0  0  0  0  0  0  0  0  0  0  0
   59.4670   27.9700   46.2930 N   0  0  0  0  0  0  0  0  0  0  0  0
   58.7560   29.0090   47.0430 C   0  0  0  0  0  0  0  0  0  0  0  0
   59.1250   30.4120   46.5330 C   0  0  0  0  0  0  0  0  0  0  0  0
   59.0320   30.5600   45.0600 N   0  0  0  0  0  0  0  0  0  0  0  0
   57.5760   31.4040   44.5850 S   0  0  0  0  0  0  0  0  0  0  0  0
   57.3610   32.9180   45.5020 C   0  0  0  0  0  0  0  0  0  0  0  0
   57.6520   31.7310   43.1200 O   0  0  0  0  0  0  0  0  0  0  0  0
   56.3830   30.5190   44.8200 O   0  0  0  0  0  0  0  0  0  0  0  0
   59.1930   29.3130   44.2790 C   0  0  0  0  0  0  0  0  0  0  0  0
   60.0760   28.2960   45.0020 C   0  0  0  0  0  0  0  0  0  0  0  0
   57.9110   25.2930   45.6760 C   0  0  0  0  0  0  0  0  0  0  0  0
   57.5490   24.1430   44.9500 C   0  0  0  0  0  0  0  0  0  0  0  0
   56.3330   24.1500   44.3460 C   0  0  0  0  0  0  0  0  0  0  0  0
   55.0450   23.8280   44.9890 C   0  0  0  0  0  0  0  0  0  0  0  0
   54.4500   22.6210   44.9440 N   0  0  0  0  0  0  0  0  0  0  0  0
   53.2640   22.8330   45.5520 C   0  0  0  0  0  0  0  0  0  0  0  0
   52.4140   21.9200   45.7180 O   0  0  0  0  0  0  0  0  0  0  0  0
   53.0570   24.1030   45.9620 N   0  0  0  0  0  0  0  0  0  0  0  0
   54.1870   24.7240   45.5880 C   0  0  0  0  0  0  0  0  0  0  0  0
   54.4220   26.0800   45.7980 O   0  0  0  0  0  0  0  0  0  0  0  0
   57.2207   21.5968   44.1010 H   0  0  0  0  0  0  0  0  0  0  0  0
   58.9748   21.0405   44.5948 H   0  0  0  0  0  0  0  0  0  0  0  0
   57.6726   28.8581   46.9266 H   0  0  0  0  0  0  0  0  0  0  0  0
   59.0457   28.9352   48.1016 H   0  0  0  0  0  0  0  0  0  0  0  0
   58.4436   31.1398   46.9979 H   0  0  0  0  0  0  0  0  0  0  0  0
   60.1767   30.5842   46.8053 H   0  0  0  0  0  0  0  0  0  0  0  0
   57.3918   32.7013   46.5800 H   0  0  0  0  0  0  0  0  0  0  0  0
   58.1685   33.6196   45.2459 H   0  0  0  0  0  0  0  0  0  0  0  0
   56.3901   33.3671   45.2459 H   0  0  0  0  0  0  0  0  0  0  0  0
   58.2012   28.8675   44.1123 H   0  0  0  0  0  0  0  0  0  0  0  0
   59.6789   29.5687   43.3258 H   0  0  0  0  0  0  0  0  0  0  0  0
   60.1620   27.3836   44.3937 H   0  0  0  0  0  0  0  0  0  0  0  0
   61.0787   28.7197   45.1600 H   0  0  0  0  0  0  0  0  0  0  0  0
   57.1638   26.0780   45.8645 H   0  0  0  0  0  0  0  0  0  0  0  0
   56.3058   24.4204   43.2801 H   0  0  0  0  0  0  0  0  0  0  0  0
   53.6650   26.7220   46.0020 H   0  0  0  0  0  0  0  0  0  0  0  0
  1  2  2  0
  2  3  1  0
  3  4  2  0
  4  5  1  0
  5  6  1  0
  6  7  2  0
  6  8  1  0
  8  9  1  0
  9 10  1  0
 10 11  1  0
 11 12  1  0
 12 13  1  0
 12 14  2  0
 12 15  2  0
 11 16  1  0
 16 17  1  0
  5 18  2  0
 18 19  1  0
 19 20  2  3
 20 21  1  0
 21 22  1  0
 22 23  1  0
 23 24  2  0
 23 25  1  0
 25 26  1  0
 26 27  1  0
 19  2  1  0
 26 21  2  0
 17  8  1  0
  1 28  1  0
  1 29  1  0
  9 30  1  0
  9 31  1  0
 10 32  1  0
 10 33  1  0
 13 34  1  0
 13 35  1  0
 13 36  1  0
 16 37  1  0
 16 38  1  0
 17 39  1  0
 17 40  1  0
 18 41  1  0
 20 42  1  0
 27 43  1  0
M  CHG  2  22  -1  25  -1
M  END
>  <UniqueID>  (13) 
10

>  <SMILES>  (13) 
C=c1nnc(C(=O)N2CCN(S(C)(=O)=O)CC2)cc1=Cc1[n-]c(=O)[n-]c1O

>  <Energy>  (13) 
98.6404401816088

>  <Genealogy>  (13) 
C=c1nnc(C(=O)N2CCN(S(C)(=O)=O)CC2)cc1=Cc1[n-]c(=O)[n-]c1O (protonated)
C=c1nnc(C(=O)N2CCN(S(C)(=O)=O)CC2)cc1=Cc1[n-]c(=O)[n-]c1O (3D coordinates assigned)
C=c1nnc(C(=O)N2CCN(S(C)(=O)=O)CC2)cc1=Cc1[n-]c(=O)[n-]c1O (nonaromatic ring conformer: 98.6404401816088 kcal/mol)

>  <smiles>  (13) 
C=c1nnc(C(=O)N2CCN(S(C)(=O)=O)CC2)cc1=Cc1[nH]c(=O)[nH]c1O

>  <score_type>  (13) 
oracle

>  <origin>  (13) 
adg

>  <m_score__min__energy>  (13) 
-13.68

>  <m_primary>  (13) 
energy

$$$$
13:0
     RDKit          3D

 51 54  0  0  0  0  0  0  0  0999 V2000
   59.5530   29.5950   44.5250 C   0  0  0  0  0  0  0  0  0  0  0  0
   59.4400   29.2240   45.8090 C   0  0  0  0  0  0  0  0  0  0  0  0
   58.6730   28.1570   46.3050 C   0  0  0  0  0  0  0  0  0  0  0  0
   57.7760   27.3480   45.7060 C   0  0  0  0  0  0  0  0  0  0  0  0
   57.1780   26.1390   46.2920 C   0  0  0  0  0  0  0  0  0  0  0  0
   57.8710   25.0500   46.6750 N   0  0  0  0  0  0  0  0  0  0  0  0
   56.9050   24.1640   47.0000 C   0  0  0  0  0  0  0  0  0  0  0  0
   57.1610   23.0090   47.4290 O   0  0  0  0  0  0  0  0  0  0  0  0
   55.6430   24.6090   46.8190 N   0  0  0  0  0  0  0  0  0  0  0  0
   55.8360   25.8550   46.3550 C   0  0  0  0  0  0  0  0  0  0  0  0
   54.8060   26.7130   45.9920 O   0  0  0  0  0  0  0  0  0  0  0  0
   58.9530   28.0740   47.6550 C   0  0  0  0  0  0  0  0  0  0  0  0
   59.8010   29.1180   47.9540 C   0  0  0  0  0  0  0  0  0  0  0  0
   60.2210   29.4470   49.3300 C   0  0  0  0  0  0  0  0  0  0  0  0
   60.9000   28.6020   49.9710 O   0  0  0  0  0  0  0  0  0  0  0  0
   59.8210   30.6760   49.9680 N   0  0  0  0  0  0  0  0  0  0  0  0
   60.7140   31.3400   50.9230 C   0  0  0  0  0  0  0  0  0  0  0  0
   59.8880   31.9730   52.0470 C   0  0  0  0  0  0  0  0  0  0  0  0
   58.8650   32.7960   51.5180 O   0  0  0  0  0  0  0  0  0  0  0  0
   57.9390   32.0050   50.7970 C   0  0  0  0  0  0  0  0  0  0  0  0
   58.6010   31.3820   49.5650 C   0  0  0  0  0  0  0  0  0  0  0  0
   60.1450   29.7950   46.8280 N   0  0  0  0  0  0  0  0  0  0  0  0
   61.1120   30.9090   46.7520 C   0  0  0  0  0  0  0  0  0  0  0  0
   60.4690   32.2830   46.9140 C   0  0  0  0  0  0  0  0  0  0  0  0
   59.1440   32.4350   46.4580 C   0  0  0  0  0  0  0  0  0  0  0  0
   58.4900   33.6620   46.5370 C   0  0  0  0  0  0  0  0  0  0  0  0
   59.1390   34.7620   47.0850 C   0  0  0  0  0  0  0  0  0  0  0  0
   60.4350   34.6320   47.5840 C   0  0  0  0  0  0  0  0  0  0  0  0
   61.1090   33.3930   47.5450 C   0  0  0  0  0  0  0  0  0  0  0  0
   62.4970   33.3080   48.1520 C   0  0  0  0  0  0  0  0  0  0  0  0
   62.7120   34.3580   49.0220 F   0  0  0  0  0  0  0  0  0  0  0  0
   62.6400   32.1070   48.8190 F   0  0  0  0  0  0  0  0  0  0  0  0
   63.4810   33.3760   47.1800 F   0  0  0  0  0  0  0  0  0  0  0  0
   60.1868   30.4522   44.2539 H   0  0  0  0  0  0  0  0  0  0  0  0
   59.0119   29.0420   43.7431 H   0  0  0  0  0  0  0  0  0  0  0  0
   57.4630   27.6167   44.6863 H   0  0  0  0  0  0  0  0  0  0  0  0
   58.5716   27.3184   48.3576 H   0  0  0  0  0  0  0  0  0  0  0  0
   61.4073   30.6006   51.3504 H   0  0  0  0  0  0  0  0  0  0  0  0
   61.2847   32.1242   50.4039 H   0  0  0  0  0  0  0  0  0  0  0  0
   59.4322   31.1756   52.6523 H   0  0  0  0  0  0  0  0  0  0  0  0
   60.5530   32.5923   52.6668 H   0  0  0  0  0  0  0  0  0  0  0  0
   57.5645   31.2028   51.4498 H   0  0  0  0  0  0  0  0  0  0  0  0
   57.1094   32.6468   50.4654 H   0  0  0  0  0  0  0  0  0  0  0  0
   57.9050   30.6716   49.0950 H   0  0  0  0  0  0  0  0  0  0  0  0
   58.8574   32.1750   48.8471 H   0  0  0  0  0  0  0  0  0  0  0  0
   61.8585   30.7774   47.5491 H   0  0  0  0  0  0  0  0  0  0  0  0
   61.5636   30.8785   45.7495 H   0  0  0  0  0  0  0  0  0  0  0  0
   58.6169   31.5686   46.0319 H   0  0  0  0  0  0  0  0  0  0  0  0
   57.4593   33.7606   46.1655 H   0  0  0  0  0  0  0  0  0  0  0  0
   58.6300   35.7363   47.1253 H   0  0  0  0  0  0  0  0  0  0  0  0
   60.9397   35.5094   48.0148 H   0  0  0  0  0  0  0  0  0  0  0  0
  1  2  2  0
  2  3  1  0
  3  4  2  3
  4  5  1  0
  5  6  1  0
  6  7  1  0
  7  8  2  0
  7  9  1  0
  9 10  1  0
 10 11  1  0
  3 12  1  0
 12 13  2  0
 13 14  1  0
 14 15  2  0
 14 16  1  0
 16 17  1  0
 17 18  1  0
 18 19  1  0
 19 20  1  0
 20 21  1  0
 13 22  1  0
 22 23  1  0
 23 24  1  0
 24 25  2  0
 25 26  1  0
 26 27  2  0
 27 28  1  0
 28 29  2  0
 29 30  1  0
 30 31  1  0
 30 32  1  0
 30 33  1  0
 22  2  1  0
 29 24  1  0
 10  5  2  0
 21 16  1  0
  1 34  1  0
  1 35  1  0
  4 36  1  0
 12 37  1  0
 17 38  1  0
 17 39  1  0
 18 40  1  0
 18 41  1  0
 20 42  1  0
 20 43  1  0
 21 44  1  0
 21 45  1  0
 23 46  1  0
 23 47  1  0
 25 48  1  0
 26 49  1  0
 27 50  1  0
 28 51  1  0
M  CHG  3   6  -1   9  -1  11  -1
M  END
>  <UniqueID>  (14) 
11

>  <SMILES>  (14) 
C=c1c(=Cc2[n-]c(=O)[n-]c2[O-])cc(C(=O)N2CCOCC2)n1Cc1ccccc1C(F)(F)F

>  <Energy>  (14) 
137.38746927422218

>  <Genealogy>  (14) 
C=c1c(=Cc2[n-]c(=O)[n-]c2[O-])cc(C(=O)N2CCOCC2)n1Cc1ccccc1C(F)(F)F (protonated)
C=c1c(=Cc2[n-]c(=O)[n-]c2[O-])cc(C(=O)N2CCOCC2)n1Cc1ccccc1C(F)(F)F (3D coordinates assigned)
C=c1c(=Cc2[n-]c(=O)[n-]c2[O-])cc(C(=O)N2CCOCC2)n1Cc1ccccc1C(F)(F)F (nonaromatic ring conformer: 137.38746927422218 kcal/mol)

>  <smiles>  (14) 
C=c1c(=Cc2[nH]c(=O)[nH]c2O)cc(C(=O)N2CCOCC2)n1Cc1ccccc1C(F)(F)F

>  <score_type>  (14) 
oracle

>  <origin>  (14) 
adg

>  <m_score__min__energy>  (14) 
-16.199999999999999

>  <m_primary>  (14) 
energy

$$$$
14:0
     RDKit          3D

 63 66  0  0  0  0  0  0  0  0999 V2000
   61.0970   30.4470   47.0020 C   0  0  0  0  0  0  0  0  0  0  0  0
   60.9950   29.6530   48.2270 N   0  0  0  0  0  0  0  0  0  0  0  0
   60.7590   28.2030   48.1530 C   0  0  0  0  0  0  0  0  0  0  0  0
   59.2510   27.9050   48.1490 C   0  0  0  0  0  0  0  0  0  0  0  0
   58.9140   27.1250   46.9950 O   0  0  0  0  0  0  0  0  0  0  0  0
   58.4420   27.6610   45.7870 C   0  0  0  0  0  0  0  0  0  0  0  0
   58.3260   26.8050   44.6920 C   0  0  0  0  0  0  0  0  0  0  0  0
   57.7970   27.2670   43.4920 C   0  0  0  0  0  0  0  0  0  0  0  0
   57.3920   28.5940   43.3620 C   0  0  0  0  0  0  0  0  0  0  0  0
   56.8390   29.0010   42.1920 F   0  0  0  0  0  0  0  0  0  0  0  0
   57.5350   29.4820   44.4400 C   0  0  0  0  0  0  0  0  0  0  0  0
   57.0980   30.8900   44.3260 C   0  0  0  0  0  0  0  0  0  0  0  0
   56.7720   31.3450   43.1990 O   0  0  0  0  0  0  0  0  0  0  0  0
   57.1450   31.7780   45.4540 N   0  0  0  0  0  0  0  0  0  0  0  0
   58.0400   32.6980   45.6780 C   0  0  0  0  0  0  0  0  0  0  0  0
   58.7150   32.8060   46.9090 C   0  0  0  0  0  0  0  0  0  0  0  0
   59.6780   33.8090   47.0990 C   0  0  0  0  0  0  0  0  0  0  0  0
   60.3790   33.9620   48.4000 C   0  0  0  0  0  0  0  0  0  0  0  0
   59.7240   34.3350   49.4110 O   0  0  0  0  0  0  0  0  0  0  0  0
   61.8220   33.6890   48.5550 C   0  0  0  0  0  0  0  0  0  0  0  0
   62.4450   33.8230   49.8040 C   0  0  0  0  0  0  0  0  0  0  0  0
   63.7980   33.5110   49.9510 C   0  0  0  0  0  0  0  0  0  0  0  0
   64.5240   33.0880   48.8400 C   0  0  0  0  0  0  0  0  0  0  0  0
   63.9140   32.9760   47.6280 N   0  0  0  0  0  0  0  0  0  0  0  0
   62.5920   33.2500   47.4680 C   0  0  0  0  0  0  0  0  0  0  0  0
   59.9320   34.7090   46.0490 C   0  0  0  0  0  0  0  0  0  0  0  0
   59.2270   34.5910   44.8550 C   0  0  0  0  0  0  0  0  0  0  0  0
   58.3030   33.6050   44.7010 N   0  0  0  0  0  0  0  0  0  0  0  0
   58.0690   29.0100   45.6500 C   0  0  0  0  0  0  0  0  0  0  0  0
   61.0320   30.3210   49.4950 C   0  0  0  0  0  0  0  0  0  0  0  0
   62.1140   30.8130   49.9130 O   0  0  0  0  0  0  0  0  0  0  0  0
   59.8510   30.4150   50.2970 N   0  0  0  0  0  0  0  0  0  0  0  0
   59.9040   30.0380   51.7110 C   0  0  0  0  0  0  0  0  0  0  0  0
   58.5050   29.6730   52.2750 C   0  0  0  0  0  0  0  0  0  0  0  0
   57.3830   30.1760   51.5540 O   0  0  0  0  0  0  0  0  0  0  0  0
   57.6810   31.3700   50.8650 C   0  0  0  0  0  0  0  0  0  0  0  0
   58.6640   31.0670   49.7460 C   0  0  0  0  0  0  0  0  0  0  0  0
   61.2332   31.5070   47.2624 H   0  0  0  0  0  0  0  0  0  0  0  0
   61.9581   30.1010   46.4114 H   0  0  0  0  0  0  0  0  0  0  0  0
   60.1764   30.3298   46.4114 H   0  0  0  0  0  0  0  0  0  0  0  0
   61.2087   27.8093   47.2296 H   0  0  0  0  0  0  0  0  0  0  0  0
   61.2154   27.7220   49.0307 H   0  0  0  0  0  0  0  0  0  0  0  0
   58.9869   27.3451   49.0582 H   0  0  0  0  0  0  0  0  0  0  0  0
   58.6933   28.8528   48.1226 H   0  0  0  0  0  0  0  0  0  0  0  0
   58.6548   25.7588   44.7782 H   0  0  0  0  0  0  0  0  0  0  0  0
   57.6974   26.5798   42.6388 H   0  0  0  0  0  0  0  0  0  0  0  0
   58.4870   32.1027   47.7235 H   0  0  0  0  0  0  0  0  0  0  0  0
   61.8661   34.1750   50.6706 H   0  0  0  0  0  0  0  0  0  0  0  0
   64.2852   33.5983   50.9333 H   0  0  0  0  0  0  0  0  0  0  0  0
   65.5918   32.8441   48.9420 H   0  0  0  0  0  0  0  0  0  0  0  0
   64.4780   32.6760   46.8000 H   0  0  0  0  0  0  0  0  0  0  0  0
   62.1236   33.1267   46.4804 H   0  0  0  0  0  0  0  0  0  0  0  0
   60.6842   35.5024   46.1707 H   0  0  0  0  0  0  0  0  0  0  0  0
   59.4176   35.2972   44.0334 H   0  0  0  0  0  0  0  0  0  0  0  0
   58.1965   29.7005   46.4968 H   0  0  0  0  0  0  0  0  0  0  0  0
   60.5679   29.1678   51.8206 H   0  0  0  0  0  0  0  0  0  0  0  0
   60.2800   30.9033   52.2766 H   0  0  0  0  0  0  0  0  0  0  0  0
   58.4269   28.5759   52.2938 H   0  0  0  0  0  0  0  0  0  0  0  0
   58.4546   30.1487   53.2655 H   0  0  0  0  0  0  0  0  0  0  0  0
   56.7575   31.7903   50.4401 H   0  0  0  0  0  0  0  0  0  0  0  0
   58.1242   32.0981   51.5603 H   0  0  0  0  0  0  0  0  0  0  0  0
   58.1882   30.4004   49.0116 H   0  0  0  0  0  0  0  0  0  0  0  0
   58.9586   32.0063   49.2552 H   0  0  0  0  0  0  0  0  0  0  0  0
  1  2  1  0
  2  3  1  0
  3  4  1  0
  4  5  1  0
  5  6  1  0
  6  7  2  0
  7  8  1  0
  8  9  2  0
  9 10  1  0
  9 11  1  0
 11 12  1  0
 12 13  2  0
 12 14  1  0
 14 15  2  3
 15 16  1  0
 16 17  2  0
 17 18  1  0
 18 19  2  0
 18 20  1  0
 20 21  2  0
 21 22  1  0
 22 23  2  0
 23 24  1  0
 24 25  2  0
 17 26  1  0
 26 27  2  0
 27 28  1  0
 11 29  2  0
  2 30  1  0
 30 31  2  0
 30 32  1  0
 32 33  1  0
 33 34  1  0
 34 35  1  0
 35 36  1  0
 36 37  1  0
 29  6  1  0
 37 32  1  0
 28 15  1  0
 25 20  1  0
  1 38  1  0
  1 39  1  0
  1 40  1  0
  3 41  1  0
  3 42  1  0
  4 43  1  0
  4 44  1  0
  7 45  1  0
  8 46  1  0
 16 47  1  0
 21 48  1  0
 22 49  1  0
 23 50  1  0
 24 51  1  0
 25 52  1  0
 26 53  1  0
 27 54  1  0
 29 55  1  0
 33 56  1  0
 33 57  1  0
 34 58  1  0
 34 59  1  0
 36 60  1  0
 36 61  1  0
 37 62  1  0
 37 63  1  0
M  CHG  2  24   1  28  -1
M  END
>  <UniqueID>  (15) 
12

>  <SMILES>  (15) 
CN(CCOc1ccc(F)c(C(=O)N=c2cc(C(=O)c3ccc[nH+]c3)cc[n-]2)c1)C(=O)N1CCOCC1

>  <Energy>  (15) 
92.95733733382593

>  <Genealogy>  (15) 
CN(CCOc1ccc(F)c(C(=O)N=c2cc(C(=O)c3ccc[nH+]c3)cc[n-]2)c1)C(=O)N1CCOCC1 (protonated)
CN(CCOc1ccc(F)c(C(=O)N=c2cc(C(=O)c3ccc[nH+]c3)cc[n-]2)c1)C(=O)N1CCOCC1 (3D coordinates assigned)
CN(CCOc1ccc(F)c(C(=O)N=c2cc(C(=O)c3ccc[nH+]c3)cc[n-]2)c1)C(=O)N1CCOCC1 (nonaromatic ring conformer: 92.95733733382593 kcal/mol)

>  <smiles>  (15) 
CN(CCOc1ccc(F)c(C(=O)N=c2cc(C(=O)c3cccnc3)cc[nH]2)c1)C(=O)N1CCOCC1

>  <score_type>  (15) 
oracle

>  <origin>  (15) 
adg

>  <m_score__min__energy>  (15) 
-9.6300000000000008

>  <m_primary>  (15) 
energy

$$$$
15:0
     RDKit          3D

 64 68  0  0  0  0  0  0  0  0999 V2000
   60.5300   34.4420   48.2050 O   0  0  0  0  0  0  0  0  0  0  0  0
   60.2570   33.3590   47.6180 C   0  0  0  0  0  0  0  0  0  0  0  0
   60.9590   32.1540   47.9650 N   0  0  0  0  0  0  0  0  0  0  0  0
   62.2710   32.1340   48.5480 C   0  0  0  0  0  0  0  0  0  0  0  0
   62.5830   31.2680   49.6100 C   0  0  0  0  0  0  0  0  0  0  0  0
   63.8490   31.3030   50.2010 C   0  0  0  0  0  0  0  0  0  0  0  0
   64.8330   32.1900   49.7300 C   0  0  0  0  0  0  0  0  0  0  0  0
   66.1730   32.2490   50.3640 C   0  0  0  0  0  0  0  0  0  0  0  0
   66.8490   31.1900   50.4630 O   0  0  0  0  0  0  0  0  0  0  0  0
   66.7200   33.4800   50.8760 N   0  0  0  0  0  0  0  0  0  0  0  0
   65.8800   34.4830   51.5390 C   0  0  0  0  0  0  0  0  0  0  0  0
   66.5970   35.0000   52.7890 C   0  0  0  0  0  0  0  0  0  0  0  0
   67.9050   35.4440   52.4730 O   0  0  0  0  0  0  0  0  0  0  0  0
   68.6910   34.3530   52.0300 C   0  0  0  0  0  0  0  0  0  0  0  0
   68.1440   33.7840   50.7170 C   0  0  0  0  0  0  0  0  0  0  0  0
   64.5090   33.0680   48.6830 C   0  0  0  0  0  0  0  0  0  0  0  0
   63.2370   33.0430   48.1010 C   0  0  0  0  0  0  0  0  0  0  0  0
   59.1650   33.3140   46.6280 C   0  0  0  0  0  0  0  0  0  0  0  0
   58.5300   34.4920   46.2080 C   0  0  0  0  0  0  0  0  0  0  0  0
   57.4620   34.4330   45.3100 C   0  0  0  0  0  0  0  0  0  0  0  0
   57.0230   33.2000   44.8260 C   0  0  0  0  0  0  0  0  0  0  0  0
   57.6460   32.0150   45.2300 C   0  0  0  0  0  0  0  0  0  0  0  0
   57.1890   30.7720   44.6740 N   0  0  0  0  0  0  0  0  0  0  0  0
   56.8810   29.5570   45.3740 C   0  0  0  0  0  0  0  0  0  0  0  0
   55.7370   29.0490   45.2280 O   0  0  0  0  0  0  0  0  0  0  0  0
   57.8360   28.9200   46.2980 C   0  0  0  0  0  0  0  0  0  0  0  0
   58.0810   27.5460   46.3070 C   0  0  0  0  0  0  0  0  0  0  0  0
   59.2610   27.2310   47.4650 S   0  0  0  0  0  0  0  0  0  0  0  0
   59.3880   28.8530   47.9170 C   0  0  0  0  0  0  0  0  0  0  0  0
   60.1830   29.3290   48.8290 N   0  0  0  0  0  0  0  0  0  0  0  0
   59.9780   29.2030   50.2730 C   0  0  0  0  0  0  0  0  0  0  0  0
   59.1540   30.3480   50.8050 C   0  0  0  0  0  0  0  0  0  0  0  0
   59.6930   31.6450   50.8670 C   0  0  0  0  0  0  0  0  0  0  0  0
   58.9350   32.6980   51.3840 C   0  0  0  0  0  0  0  0  0  0  0  0
   57.6340   32.4680   51.8400 C   0  0  0  0  0  0  0  0  0  0  0  0
   56.9070   33.4960   52.3450 F   0  0  0  0  0  0  0  0  0  0  0  0
   57.0840   31.1820   51.7710 C   0  0  0  0  0  0  0  0  0  0  0  0
   55.4530   30.8850   52.3520 Cl  0  0  0  0  0  0  0  0  0  0  0  0
   57.8410   30.1260   51.2510 C   0  0  0  0  0  0  0  0  0  0  0  0
   58.5580   29.6400   47.2030 N   0  0  0  0  0  0  0  0  0  0  0  0
   58.7440   32.0810   46.1070 C   0  0  0  0  0  0  0  0  0  0  0  0
   60.4580   31.2440   47.8440 H   0  0  0  0  0  0  0  0  0  0  0  0
   61.8268   30.5589   49.9780 H   0  0  0  0  0  0  0  0  0  0  0  0
   64.0774   30.6311   51.0415 H   0  0  0  0  0  0  0  0  0  0  0  0
   65.6943   35.3199   50.8497 H   0  0  0  0  0  0  0  0  0  0  0  0
   64.9212   34.0272   51.8272 H   0  0  0  0  0  0  0  0  0  0  0  0
   66.0242   35.8384   53.2122 H   0  0  0  0  0  0  0  0  0  0  0  0
   66.6704   34.1791   53.5175 H   0  0  0  0  0  0  0  0  0  0  0  0
   69.7247   34.6943   51.8719 H   0  0  0  0  0  0  0  0  0  0  0  0
   68.6604   33.5636   52.7954 H   0  0  0  0  0  0  0  0  0  0  0  0
   68.2741   34.5240   49.9136 H   0  0  0  0  0  0  0  0  0  0  0  0
   68.6900   32.8647   50.4585 H   0  0  0  0  0  0  0  0  0  0  0  0
   65.2619   33.7817   48.3173 H   0  0  0  0  0  0  0  0  0  0  0  0
   62.9945   33.7421   47.2870 H   0  0  0  0  0  0  0  0  0  0  0  0
   58.8743   35.4655   46.5871 H   0  0  0  0  0  0  0  0  0  0  0  0
   56.9664   35.3593   44.9839 H   0  0  0  0  0  0  0  0  0  0  0  0
   56.1798   33.1598   44.1207 H   0  0  0  0  0  0  0  0  0  0  0  0
   57.5882   26.7985   45.6679 H   0  0  0  0  0  0  0  0  0  0  0  0
   59.4559   28.2574   50.4808 H   0  0  0  0  0  0  0  0  0  0  0  0
   60.9600   29.2187   50.7685 H   0  0  0  0  0  0  0  0  0  0  0  0
   60.7156   31.8312   50.5070 H   0  0  0  0  0  0  0  0  0  0  0  0
   59.3627   33.7103   51.4324 H   0  0  0  0  0  0  0  0  0  0  0  0
   57.4056   29.1176   51.1914 H   0  0  0  0  0  0  0  0  0  0  0  0
   59.2762   31.1597   46.3862 H   0  0  0  0  0  0  0  0  0  0  0  0
  1  2  2  0
  2  3  1  0
  3  4  1  0
  4  5  2  0
  5  6  1  0
  6  7  2  0
  7  8  1  0
  8  9  2  0
  8 10  1  0
 10 11  1  0
 11 12  1  0
 12 13  1  0
 13 14  1  0
 14 15  1  0
  7 16  1  0
 16 17  2  0
  2 18  1  0
 18 19  2  0
 19 20  1  0
 20 21  2  0
 21 22  1  0
 22 23  1  0
 23 24  1  0
 24 25  2  0
 24 26  1  0
 26 27  2  0
 27 28  1  0
 28 29  1  0
 29 30  2  3
 30 31  1  0
 31 32  1  0
 32 33  2  0
 33 34  1  0
 34 35  2  0
 35 36  1  0
 35 37  1  0
 37 38  1  0
 37 39  2  0
 29 40  1  0
 22 41  2  0
 17  4  1  0
 41 18  1  0
 15 10  1  0
 40 26  1  0
 39 32  1  0
  3 42  1  0
  5 43  1  0
  6 44  1  0
 11 45  1  0
 11 46  1  0
 12 47  1  0
 12 48  1  0
 14 49  1  0
 14 50  1  0
 15 51  1  0
 15 52  1  0
 16 53  1  0
 17 54  1  0
 19 55  1  0
 20 56  1  0
 21 57  1  0
 27 58  1  0
 31 59  1  0
 31 60  1  0
 33 61  1  0
 34 62  1  0
 39 63  1  0
 41 64  1  0
M  CHG  2  23  -1  40  -1
M  END
>  <UniqueID>  (16) 
13

>  <SMILES>  (16) 
O=C(Nc1ccc(C(=O)N2CCOCC2)cc1)c1cccc([N-]C(=O)c2csc(=NCc3ccc(F)c(Cl)c3)[n-]2)c1

>  <Energy>  (16) 
115.86065818501946

>  <Genealogy>  (16) 
O=C(Nc1ccc(C(=O)N2CCOCC2)cc1)c1cccc([N-]C(=O)c2csc(=NCc3ccc(F)c(Cl)c3)[n-]2)c1 (protonated)
O=C(Nc1ccc(C(=O)N2CCOCC2)cc1)c1cccc([N-]C(=O)c2csc(=NCc3ccc(F)c(Cl)c3)[n-]2)c1 (3D coordinates assigned)
O=C(Nc1ccc(C(=O)N2CCOCC2)cc1)c1cccc([N-]C(=O)c2csc(=NCc3ccc(F)c(Cl)c3)[n-]2)c1 (nonaromatic ring conformer: 115.86065818501946 kcal/mol)

>  <smiles>  (16) 
O=C(Nc1ccc(C(=O)N2CCOCC2)cc1)c1cccc(NC(=O)c2csc(=NCc3ccc(F)c(Cl)c3)[nH]2)c1

>  <score_type>  (16) 
oracle

>  <origin>  (16) 
adg

>  <m_score__min__energy>  (16) 
-13.26

>  <m_primary>  (16) 
energy

$$$$
16:0
     RDKit          3D

 50 52  0  0  0  0  0  0  0  0999 V2000
   59.4170   29.4670   49.4530 O   0  0  0  0  0  0  0  0  0  0  0  0
   59.9580   29.7720   48.3520 C   0  0  0  0  0  0  0  0  0  0  0  0
   59.4210   29.1760   47.1010 C   0  0  0  0  0  0  0  0  0  0  0  0
   58.3400   29.7750   46.4280 C   0  0  0  0  0  0  0  0  0  0  0  0
   57.8360   29.2150   45.2450 C   0  0  0  0  0  0  0  0  0  0  0  0
   56.5060   29.9950   44.3920 S   0  0  0  0  0  0  0  0  0  0  0  0
   56.6840   29.7970   42.9120 O   0  0  0  0  0  0  0  0  0  0  0  0
   55.1980   29.3760   44.7980 O   0  0  0  0  0  0  0  0  0  0  0  0
   56.4860   31.6980   44.7370 N   0  0  0  0  0  0  0  0  0  0  0  0
   57.6650   32.3370   44.1560 C   0  0  0  0  0  0  0  0  0  0  0  0
   58.3010   33.2240   45.1860 C   0  0  0  0  0  0  0  0  0  0  0  0
   59.0970   34.3120   44.7890 C   0  0  0  0  0  0  0  0  0  0  0  0
   59.6590   35.1600   45.7490 C   0  0  0  0  0  0  0  0  0  0  0  0
   59.4220   34.9340   47.1070 C   0  0  0  0  0  0  0  0  0  0  0  0
   58.6190   33.8630   47.5090 C   0  0  0  0  0  0  0  0  0  0  0  0
   58.0540   33.0130   46.5520 C   0  0  0  0  0  0  0  0  0  0  0  0
   58.4120   28.0500   44.7290 C   0  0  0  0  0  0  0  0  0  0  0  0
   59.4750   27.4390   45.3960 C   0  0  0  0  0  0  0  0  0  0  0  0
   59.9790   27.9930   46.5770 C   0  0  0  0  0  0  0  0  0  0  0  0
   61.0290   27.3870   47.1880 F   0  0  0  0  0  0  0  0  0  0  0  0
   61.0570   30.7210   48.3290 N   0  0  0  0  0  0  0  0  0  0  0  0
   61.1150   31.4030   47.0080 C   0  0  0  0  0  0  0  0  0  0  0  0
   61.9350   32.7130   46.9840 C   0  0  0  0  0  0  0  0  0  0  0  0
   63.3720   32.6290   47.5590 C   0  0  0  0  0  0  0  0  0  0  0  0
   63.4970   31.9650   48.9430 C   0  0  0  0  0  0  0  0  0  0  0  0
   62.3180   32.2480   49.9010 C   0  0  0  0  0  0  0  0  0  0  0  0
   60.9700   31.6150   49.5080 C   0  0  0  0  0  0  0  0  0  0  0  0
   57.8860   30.6912   46.8336 H   0  0  0  0  0  0  0  0  0  0  0  0
   58.3833   31.5663   43.8396 H   0  0  0  0  0  0  0  0  0  0  0  0
   57.3688   32.9367   43.2827 H   0  0  0  0  0  0  0  0  0  0  0  0
   59.2786   34.4973   43.7200 H   0  0  0  0  0  0  0  0  0  0  0  0
   60.2882   36.0056   45.4343 H   0  0  0  0  0  0  0  0  0  0  0  0
   59.8678   35.5996   47.8608 H   0  0  0  0  0  0  0  0  0  0  0  0
   58.4311   33.6882   48.5786 H   0  0  0  0  0  0  0  0  0  0  0  0
   57.4143   32.1768   46.8707 H   0  0  0  0  0  0  0  0  0  0  0  0
   58.0266   27.6141   43.7955 H   0  0  0  0  0  0  0  0  0  0  0  0
   59.9184   26.5174   44.9908 H   0  0  0  0  0  0  0  0  0  0  0  0
   61.9510   30.1860   48.4460 H   0  0  0  0  0  0  0  0  0  0  0  0
   61.5632   30.7067   46.2840 H   0  0  0  0  0  0  0  0  0  0  0  0
   60.0804   31.6837   46.7615 H   0  0  0  0  0  0  0  0  0  0  0  0
   62.0106   33.0430   45.9374 H   0  0  0  0  0  0  0  0  0  0  0  0
   61.3948   33.4116   47.6399 H   0  0  0  0  0  0  0  0  0  0  0  0
   63.9868   32.0540   46.8509 H   0  0  0  0  0  0  0  0  0  0  0  0
   63.7038   33.6692   47.6931 H   0  0  0  0  0  0  0  0  0  0  0  0
   63.5666   30.8770   48.7966 H   0  0  0  0  0  0  0  0  0  0  0  0
   64.3926   32.3949   49.4153 H   0  0  0  0  0  0  0  0  0  0  0  0
   62.5925   31.8676   50.8960 H   0  0  0  0  0  0  0  0  0  0  0  0
   62.1591   33.3359   49.8670 H   0  0  0  0  0  0  0  0  0  0  0  0
   60.5983   31.0296   50.3619 H   0  0  0  0  0  0  0  0  0  0  0  0
   60.2922   32.4387   49.2396 H   0  0  0  0  0  0  0  0  0  0  0  0
  1  2  2  0
  2  3  1  0
  3  4  2  0
  4  5  1  0
  5  6  1  0
  6  7  2  0
  6  8  2  0
  6  9  1  0
  9 10  1  0
 10 11  1  0
 11 12  2  0
 12 13  1  0
 13 14  2  0
 14 15  1  0
 15 16  2  0
  5 17  2  0
 17 18  1  0
 18 19  2  0
 19 20  1  0
  2 21  1  0
 21 22  1  0
 22 23  1  0
 23 24  1  0
 24 25  1  0
 25 26  1  0
 26 27  1  0
 19  3  1  0
 27 21  1  0
 16 11  1  0
  4 28  1  0
 10 29  1  0
 10 30  1  0
 12 31  1  0
 13 32  1  0
 14 33  1  0
 15 34  1  0
 16 35  1  0
 17 36  1  0
 18 37  1  0
 21 38  1  0
 22 39  1  0
 22 40  1  0
 23 41  1  0
 23 42  1  0
 24 43  1  0
 24 44  1  0
 25 45  1  0
 25 46  1  0
 26 47  1  0
 26 48  1  0
 27 49  1  0
 27 50  1  0
M  CHG  2   9  -1  21   1
M  END
>  <UniqueID>  (17) 
14

>  <SMILES>  (17) 
O=C(c1cc(S(=O)(=O)[N-]Cc2ccccc2)ccc1F)[NH+]1CCCCCC1

>  <Energy>  (17) 
67.76920155108468

>  <Genealogy>  (17) 
O=C(c1cc(S(=O)(=O)[N-]Cc2ccccc2)ccc1F)[NH+]1CCCCCC1 (protonated)
O=C(c1cc(S(=O)(=O)[N-]Cc2ccccc2)ccc1F)[NH+]1CCCCCC1 (3D coordinates assigned)
O=C(c1cc(S(=O)(=O)[N-]Cc2ccccc2)ccc1F)[NH+]1CCCCCC1 (nonaromatic ring conformer: 67.76920155108468 kcal/mol)

>  <smiles>  (17) 
O=C(c1cc(S(=O)(=O)NCc2ccccc2)ccc1F)N1CCCCCC1

>  <score_type>  (17) 
oracle

>  <origin>  (17) 
adg

>  <m_score__min__energy>  (17) 
-7.21

>  <m_primary>  (17) 
energy

$$$$
17:0
     RDKit          3D

 59 63  0  0  0  0  0  0  0  0999 V2000
   55.5900   30.9343   43.9305 H   0  0  0  0  0  0  0  0  0  0  0  0
   56.6840   30.8240   43.9610 C   0  0  0  0  0  0  0  0  0  0  0  0
   57.4250   31.9140   43.6820 C   0  0  0  0  0  0  0  0  0  0  0  0
   57.7790   32.1720   42.3090 C   0  0  0  0  0  0  0  0  0  0  0  0
   58.0630   32.3800   41.2060 N   0  0  0  0  0  0  0  0  0  0  0  0
   57.9370   32.8490   44.7110 C   0  0  0  0  0  0  0  0  0  0  0  0
   57.5790   32.6940   46.0600 C   0  0  0  0  0  0  0  0  0  0  0  0
   56.9125   31.8740   46.3657 H   0  0  0  0  0  0  0  0  0  0  0  0
   58.0750   33.5880   47.0100 C   0  0  0  0  0  0  0  0  0  0  0  0
   57.7979   33.4780   48.0688 H   0  0  0  0  0  0  0  0  0  0  0  0
   58.9220   34.6200   46.6130 C   0  0  0  0  0  0  0  0  0  0  0  0
   59.3068   35.3381   47.3521 H   0  0  0  0  0  0  0  0  0  0  0  0
   59.2780   34.7340   45.2670 C   0  0  0  0  0  0  0  0  0  0  0  0
   59.9560   35.5385   44.9458 H   0  0  0  0  0  0  0  0  0  0  0  0
   58.7900   33.8550   44.3530 N   0  0  0  0  0  0  0  0  0  0  0  0
   59.0680   33.9700   43.3520 H   0  0  0  0  0  0  0  0  0  0  0  0
   57.2260   29.4870   44.3060 C   0  0  0  0  0  0  0  0  0  0  0  0
   57.4320   28.5540   43.2790 C   0  0  0  0  0  0  0  0  0  0  0  0
   57.2185   28.8320   42.2363 H   0  0  0  0  0  0  0  0  0  0  0  0
   57.9060   27.2760   43.5730 C   0  0  0  0  0  0  0  0  0  0  0  0
   58.0710   26.5526   42.7609 H   0  0  0  0  0  0  0  0  0  0  0  0
   58.1720   26.9110   44.8940 C   0  0  0  0  0  0  0  0  0  0  0  0
   58.5422   25.9001   45.1197 H   0  0  0  0  0  0  0  0  0  0  0  0
   57.9680   27.8320   45.9370 C   0  0  0  0  0  0  0  0  0  0  0  0
   58.1960   27.4940   47.3120 N   0  0  0  0  0  0  0  0  0  0  0  0
   59.3810   27.7490   48.0810 C   0  0  0  0  0  0  0  0  0  0  0  0
   59.9790   26.8020   48.6630 O   0  0  0  0  0  0  0  0  0  0  0  0
   59.9410   29.1190   48.1440 C   0  0  0  0  0  0  0  0  0  0  0  0
   59.7450   29.9220   49.2820 C   0  0  0  0  0  0  0  0  0  0  0  0
   59.1854   29.5239   50.1413 H   0  0  0  0  0  0  0  0  0  0  0  0
   60.2560   31.2220   49.3290 C   0  0  0  0  0  0  0  0  0  0  0  0
   60.0837   31.8456   50.2186 H   0  0  0  0  0  0  0  0  0  0  0  0
   60.9860   31.7350   48.2500 C   0  0  0  0  0  0  0  0  0  0  0  0
   61.5810   33.3890   48.3060 S   0  0  0  0  0  0  0  0  0  0  0  0
   61.7980   33.8860   46.9040 O   0  0  0  0  0  0  0  0  0  0  0  0
   60.5860   34.2920   48.9790 O   0  0  0  0  0  0  0  0  0  0  0  0
   63.0810   33.4240   49.1740 N   0  0  0  0  0  0  0  0  0  0  0  0
   63.2280   33.4890   50.5820 C   0  0  0  0  0  0  0  0  0  0  0  0
   62.2260   33.7000   51.5350 C   0  0  0  0  0  0  0  0  0  0  0  0
   61.1786   33.8405   51.2297 H   0  0  0  0  0  0  0  0  0  0  0  0
   62.5900   33.7280   52.8910 C   0  0  0  0  0  0  0  0  0  0  0  0
   61.8220   33.8904   53.6616 H   0  0  0  0  0  0  0  0  0  0  0  0
   63.9340   33.5490   53.2670 C   0  0  0  0  0  0  0  0  0  0  0  0
   64.2135   33.5736   54.3306 H   0  0  0  0  0  0  0  0  0  0  0  0
   64.9200   33.3390   52.2890 C   0  0  0  0  0  0  0  0  0  0  0  0
   65.9731   33.1974   52.5735 H   0  0  0  0  0  0  0  0  0  0  0  0
   64.5330   33.3140   50.9460 C   0  0  0  0  0  0  0  0  0  0  0  0
   65.3900   33.1050   49.7450 C   0  0  0  0  0  0  0  0  0  0  0  0
   65.9031   32.1331   49.7921 H   0  0  0  0  0  0  0  0  0  0  0  0
   66.1862   33.8580   49.6498 H   0  0  0  0  0  0  0  0  0  0  0  0
   64.3790   33.1420   48.5700 C   0  0  0  0  0  0  0  0  0  0  0  0
   64.3580   32.1721   48.0515 H   0  0  0  0  0  0  0  0  0  0  0  0
   64.6526   33.9017   47.8230 H   0  0  0  0  0  0  0  0  0  0  0  0
   61.1940   30.9380   47.1170 C   0  0  0  0  0  0  0  0  0  0  0  0
   61.7712   31.3329   46.2680 H   0  0  0  0  0  0  0  0  0  0  0  0
   60.6710   29.6430   47.0610 C   0  0  0  0  0  0  0  0  0  0  0  0
   60.8314   29.0284   46.1629 H   0  0  0  0  0  0  0  0  0  0  0  0
   57.4620   29.1040   45.6380 C   0  0  0  0  0  0  0  0  0  0  0  0
   57.2473   29.8101   46.4537 H   0  0  0  0  0  0  0  0  0  0  0  0
  1  2  1  0
  2  3  2  0
  3  4  1  0
  4  5  3  0
  3  6  1  0
  6  7  2  0
  7  8  1  0
  7  9  1  0
  9 10  1  0
  9 11  2  0
 11 12  1  0
 11 13  1  0
 13 14  1  0
 13 15  2  0
 15 16  1  0
  2 17  1  0
 17 18  2  0
 18 19  1  0
 18 20  1  0
 20 21  1  0
 20 22  2  0
 22 23  1  0
 22 24  1  0
 24 25  1  0
 25 26  1  0
 26 27  2  0
 26 28  1  0
 28 29  2  0
 29 30  1  0
 29 31  1  0
 31 32  1  0
 31 33  2  0
 33 34  1  0
 34 35  2  0
 34 36  2  0
 34 37  1  0
 37 38  1  0
 38 39  2  0
 39 40  1  0
 39 41  1  0
 41 42  1  0
 41 43  2  0
 43 44  1  0
 43 45  1  0
 45 46  1  0
 45 47  2  0
 47 48  1  0
 48 49  1  0
 48 50  1  0
 48 51  1  0
 51 52  1  0
 51 53  1  0
 33 54  1  0
 54 55  1  0
 54 56  2  0
 56 57  1  0
 24 58  2  0
 58 59  1  0
 15  6  1  0
 58 17  1  0
 56 28  1  0
 51 37  1  0
 47 38  1  0
M  CHG  2  15   1  25  -1
M  END
>  <UniqueID>  (18) 
15

>  <SMILES>  (18) 
N#C/C(=C/c1cccc([N-]C(=O)c2ccc(S(=O)(=O)N3CCc4ccccc43)cc2)c1)c1cccc[nH+]1

>  <Energy>  (18) 
94.84908368002209

>  <Genealogy>  (18) 
N#CC(=Cc1cccc([N-]C(=O)c2ccc(S(=O)(=O)N3CCc4ccccc43)cc2)c1)c1cccc[nH+]1 (protonated)
N#C/C(=C/c1cccc([N-]C(=O)c2ccc(S(=O)(=O)N3CCc4ccccc43)cc2)c1)c1cccc[nH+]1 (cis-trans isomerization)
N#C/C(=C/c1cccc([N-]C(=O)c2ccc(S(=O)(=O)N3CCc4ccccc43)cc2)c1)c1cccc[nH+]1 (3D coordinates assigned)
N#C/C(=C/c1cccc([N-]C(=O)c2ccc(S(=O)(=O)N3CCc4ccccc43)cc2)c1)c1cccc[nH+]1 (nonaromatic ring conformer: 94.84908368002209 kcal/mol)

>  <smiles>  (18) 
N#CC(=Cc1cccc(NC(=O)c2ccc(S(=O)(=O)N3CCc4ccccc43)cc2)c1)c1ccccn1

>  <score_type>  (18) 
oracle

>  <origin>  (18) 
adg

>  <m_score__min__energy>  (18) 
-11.73

>  <m_primary>  (18) 
energy

$$$$
18:0
     RDKit          3D

 39 41  0  0  0  0  0  0  0  0999 V2000
   58.8730   34.6040   45.2310 C   0  0  0  0  0  0  0  0  0  0  0  0
   59.4220   33.4460   46.0560 C   0  0  0  0  0  0  0  0  0  0  0  0
   58.8060   32.1920   45.6360 N   0  0  0  0  0  0  0  0  0  0  0  0
   57.7000   32.0690   44.8810 C   0  0  0  0  0  0  0  0  0  0  0  0
   57.3940   30.7260   44.7760 C   0  0  0  0  0  0  0  0  0  0  0  0
   56.1890   30.1710   44.1340 C   0  0  0  0  0  0  0  0  0  0  0  0
   55.2940   29.3320   44.8600 N   0  0  0  0  0  0  0  0  0  0  0  0
   55.9200   30.4760   42.9400 O   0  0  0  0  0  0  0  0  0  0  0  0
   58.3870   30.0790   45.5100 C   0  0  0  0  0  0  0  0  0  0  0  0
   58.5920   28.6280   45.6860 C   0  0  0  0  0  0  0  0  0  0  0  0
   59.3630   28.1580   46.7590 C   0  0  0  0  0  0  0  0  0  0  0  0
   59.5830   26.7880   46.9210 C   0  0  0  0  0  0  0  0  0  0  0  0
   59.0570   25.8790   45.9990 C   0  0  0  0  0  0  0  0  0  0  0  0
   58.3260   26.3350   44.8950 C   0  0  0  0  0  0  0  0  0  0  0  0
   57.8040   25.3740   43.9650 N   0  0  0  0  0  0  0  0  0  0  0  0
   57.1170   24.1590   44.2950 C   0  0  0  0  0  0  0  0  0  0  0  0
   56.6350   23.4680   43.3590 O   0  0  0  0  0  0  0  0  0  0  0  0
   56.9050   23.7330   45.7010 C   0  0  0  0  0  0  0  0  0  0  0  0
   57.5820   22.6180   46.2190 C   0  0  0  0  0  0  0  0  0  0  0  0
   57.3860   22.2360   47.5070 N   0  0  0  0  0  0  0  0  0  0  0  0
   56.5400   22.9210   48.3180 C   0  0  0  0  0  0  0  0  0  0  0  0
   56.3700   22.5480   49.5080 O   0  0  0  0  0  0  0  0  0  0  0  0
   55.8780   24.0080   47.8460 N   0  0  0  0  0  0  0  0  0  0  0  0
   56.0410   24.4300   46.5660 C   0  0  0  0  0  0  0  0  0  0  0  0
   55.4000   25.4380   46.1640 O   0  0  0  0  0  0  0  0  0  0  0  0
   58.0830   27.7120   44.7500 C   0  0  0  0  0  0  0  0  0  0  0  0
   59.2240   30.9990   46.0320 N   0  0  0  0  0  0  0  0  0  0  0  0
   58.5004   35.3898   45.9046 H   0  0  0  0  0  0  0  0  0  0  0  0
   59.6727   35.0137   44.5965 H   0  0  0  0  0  0  0  0  0  0  0  0
   58.0496   34.2442   44.5965 H   0  0  0  0  0  0  0  0  0  0  0  0
   60.5108   33.3819   45.9129 H   0  0  0  0  0  0  0  0  0  0  0  0
   59.1926   33.6209   47.1175 H   0  0  0  0  0  0  0  0  0  0  0  0
   57.1357   32.8960   44.4252 H   0  0  0  0  0  0  0  0  0  0  0  0
   55.5270   28.3320   45.0440 H   0  0  0  0  0  0  0  0  0  0  0  0
   59.7963   28.8709   47.4759 H   0  0  0  0  0  0  0  0  0  0  0  0
   60.1715   26.4240   47.7761 H   0  0  0  0  0  0  0  0  0  0  0  0
   59.2179   24.8002   46.1411 H   0  0  0  0  0  0  0  0  0  0  0  0
   58.2742   22.0513   45.5789 H   0  0  0  0  0  0  0  0  0  0  0  0
   57.4901   28.0750   43.8976 H   0  0  0  0  0  0  0  0  0  0  0  0
  1  2  1  0
  2  3  1  0
  3  4  1  0
  4  5  2  0
  5  6  1  0
  6  7  1  0
  6  8  2  0
  5  9  1  0
  9 10  1  0
 10 11  2  0
 11 12  1  0
 12 13  2  0
 13 14  1  0
 14 15  1  0
 15 16  1  0
 16 17  2  0
 16 18  1  0
 18 19  2  0
 19 20  1  0
 20 21  1  0
 21 22  2  0
 21 23  1  0
 23 24  1  0
 24 25  2  0
 14 26  2  0
  9 27  2  0
 27  3  1  0
 26 10  1  0
 24 18  1  0
  1 28  1  0
  1 29  1  0
  1 30  1  0
  2 31  1  0
  2 32  1  0
  4 33  1  0
  7 34  1  0
 11 35  1  0
 12 36  1  0
 13 37  1  0
 19 38  1  0
 26 39  1  0
M  CHG  4   7  -1  15  -1  20  -1  23  -1
M  END
>  <UniqueID>  (19) 
16

>  <SMILES>  (19) 
CCn1cc(C([NH-])=O)c(-c2cccc([N-]C(=O)c3c[n-]c(=O)[n-]c3=O)c2)n1

>  <Energy>  (19) 
81.98058642781542

>  <Genealogy>  (19) 
CCn1cc(C([NH-])=O)c(-c2cccc([N-]C(=O)c3c[n-]c(=O)[n-]c3=O)c2)n1 (protonated)
CCn1cc(C([NH-])=O)c(-c2cccc([N-]C(=O)c3c[n-]c(=O)[n-]c3=O)c2)n1 (3D coordinates assigned)
CCn1cc(C([NH-])=O)c(-c2cccc([N-]C(=O)c3c[n-]c(=O)[n-]c3=O)c2)n1 (optimized conformer: 81.98058642781542 kcal/mol)

>  <smiles>  (19) 
CCn1cc(C(N)=O)c(-c2cccc(NC(=O)c3c[nH]c(=O)[nH]c3=O)c2)n1

>  <score_type>  (19) 
oracle

>  <origin>  (19) 
adg

>  <m_score__min__energy>  (19) 
-16.48

>  <m_primary>  (19) 
energy

$$$$
19:0
     RDKit          3D

 57 60  0  0  0  0  0  0  0  0999 V2000
   51.5461   28.9472   52.6597 H   0  0  0  0  0  0  0  0  0  0  0  0
   52.3860   28.3460   53.0380 C   0  0  0  0  0  0  0  0  0  0  0  0
   52.2202   27.3041   53.3493 H   0  0  0  0  0  0  0  0  0  0  0  0
   53.6160   28.8850   53.1200 C   0  0  0  0  0  0  0  0  0  0  0  0
   53.9310   30.1820   52.6060 C   0  0  0  0  0  0  0  0  0  0  0  0
   53.0320   31.1590   52.3260 C   0  0  0  0  0  0  0  0  0  0  0  0
   52.8932   31.9422   53.0858 H   0  0  0  0  0  0  0  0  0  0  0  0
   52.2230   31.2680   51.0960 C   0  0  0  0  0  0  0  0  0  0  0  0
   52.1750   30.3420   50.1200 N   0  0  0  0  0  0  0  0  0  0  0  0
   51.2330   30.8230   49.2790 C   0  0  0  0  0  0  0  0  0  0  0  0
   50.9060   30.2320   48.2180 O   0  0  0  0  0  0  0  0  0  0  0  0
   50.6630   31.9830   49.6710 N   0  0  0  0  0  0  0  0  0  0  0  0
   51.2930   32.2430   50.8280 C   0  0  0  0  0  0  0  0  0  0  0  0
   51.0200   33.3470   51.6250 O   0  0  0  0  0  0  0  0  0  0  0  0
   55.2880   30.4800   52.3880 C   0  0  0  0  0  0  0  0  0  0  0  0
   55.5587   31.4140   51.8739 H   0  0  0  0  0  0  0  0  0  0  0  0
   56.2990   29.6140   52.8110 C   0  0  0  0  0  0  0  0  0  0  0  0
   57.7060   29.9950   52.5690 C   0  0  0  0  0  0  0  0  0  0  0  0
   58.5580   29.7780   53.4740 O   0  0  0  0  0  0  0  0  0  0  0  0
   58.1120   30.6240   51.3370 N   0  0  0  0  0  0  0  0  0  0  0  0
   58.8590   29.8590   50.3290 C   0  0  0  0  0  0  0  0  0  0  0  0
   59.9364   29.9781   50.5161 H   0  0  0  0  0  0  0  0  0  0  0  0
   58.5621   28.8028   50.4077 H   0  0  0  0  0  0  0  0  0  0  0  0
   58.5440   30.3420   48.9100 C   0  0  0  0  0  0  0  0  0  0  0  0
   59.2673   29.8877   48.2168 H   0  0  0  0  0  0  0  0  0  0  0  0
   57.5108   30.0408   48.6826 H   0  0  0  0  0  0  0  0  0  0  0  0
   58.6160   31.8090   48.7690 N   0  0  0  0  0  0  0  0  0  0  0  0
   58.6210   32.4000   47.4350 C   0  0  0  0  0  0  0  0  0  0  0  0
   58.1490   31.6720   46.3200 C   0  0  0  0  0  0  0  0  0  0  0  0
   57.7643   30.6513   46.4621 H   0  0  0  0  0  0  0  0  0  0  0  0
   58.1640   32.2300   45.0400 C   0  0  0  0  0  0  0  0  0  0  0  0
   57.7982   31.6449   44.1834 H   0  0  0  0  0  0  0  0  0  0  0  0
   58.6400   33.5240   44.8430 C   0  0  0  0  0  0  0  0  0  0  0  0
   58.6610   33.9530   43.8303 H   0  0  0  0  0  0  0  0  0  0  0  0
   59.0920   34.2800   45.9320 C   0  0  0  0  0  0  0  0  0  0  0  0
   59.6400   35.6610   45.7150 C   0  0  0  0  0  0  0  0  0  0  0  0
   59.8291   36.1375   46.6882 H   0  0  0  0  0  0  0  0  0  0  0  0
   60.5810   35.5973   45.1489 H   0  0  0  0  0  0  0  0  0  0  0  0
   58.9114   36.2598   45.1489 H   0  0  0  0  0  0  0  0  0  0  0  0
   59.0940   33.7140   47.2160 C   0  0  0  0  0  0  0  0  0  0  0  0
   59.4698   34.3024   48.0660 H   0  0  0  0  0  0  0  0  0  0  0  0
   58.5310   32.6640   49.9720 C   0  0  2  0  0  0  0  0  0  0  0  0
   58.0428   33.6074   49.6861 H   0  0  0  0  0  0  0  0  0  0  0  0
   59.9320   33.0080   50.5060 C   0  0  0  0  0  0  0  0  0  0  0  0
   59.9163   33.0041   51.6059 H   0  0  0  0  0  0  0  0  0  0  0  0
   60.6549   32.2607   50.1470 H   0  0  0  0  0  0  0  0  0  0  0  0
   60.2266   34.0052   50.1470 H   0  0  0  0  0  0  0  0  0  0  0  0
   57.6690   31.9960   51.0580 C   0  0  0  0  0  0  0  0  0  0  0  0
   57.7390   32.5879   51.9825 H   0  0  0  0  0  0  0  0  0  0  0  0
   56.6319   31.9536   50.6939 H   0  0  0  0  0  0  0  0  0  0  0  0
   55.9430   28.4330   53.4890 C   0  0  0  0  0  0  0  0  0  0  0  0
   56.9790   27.4980   54.0580 C   0  0  0  0  0  0  0  0  0  0  0  0
   56.9404   27.5329   55.1568 H   0  0  0  0  0  0  0  0  0  0  0  0
   56.7746   26.4726   53.7163 H   0  0  0  0  0  0  0  0  0  0  0  0
   57.9781   27.8061   53.7163 H   0  0  0  0  0  0  0  0  0  0  0  0
   54.6280   28.0940   53.5980 N   0  0  0  0  0  0  0  0  0  0  0  0
   54.3970   27.1680   54.0280 H   0  0  0  0  0  0  0  0  0  0  0  0
  1  2  1  0
  2  3  1  0
  2  4  2  0
  4  5  1  0
  5  6  2  0
  6  7  1  0
  6  8  1  0
  8  9  1  0
  9 10  1  0
 10 11  2  0
 10 12  1  0
 12 13  1  0
 13 14  1  0
  5 15  1  0
 15 16  1  0
 15 17  2  0
 17 18  1  0
 18 19  2  0
 18 20  1  0
 20 21  1  0
 21 22  1  0
 21 23  1  0
 21 24  1  0
 24 25  1  0
 24 26  1  0
 24 27  1  0
 27 28  1  0
 28 29  2  0
 29 30  1  0
 29 31  1  0
 31 32  1  0
 31 33  2  0
 33 34  1  0
 33 35  1  0
 35 36  1  0
 36 37  1  0
 36 38  1  0
 36 39  1  0
 35 40  2  0
 40 41  1  0
 27 42  1  0
 42 43  1  6
 42 44  1  0
 44 45  1  0
 44 46  1  0
 44 47  1  0
 42 48  1  0
 48 49  1  0
 48 50  1  0
 17 51  1  0
 51 52  1  0
 52 53  1  0
 52 54  1  0
 52 55  1  0
 51 56  2  0
 56 57  1  0
 56  4  1  0
 13  8  2  0
 48 20  1  0
 40 28  1  0
M  CHG  4   9  -1  12  -1  14  -1  56   1
M  END
>  <UniqueID>  (20) 
17

>  <SMILES>  (20) 
C=c1[nH+]c(C)c(C(=O)N2CCN(c3cccc(C)c3)[C@H](C)C2)c/c1=C/c1[n-]c(=O)[n-]c1[O-]

>  <Energy>  (20) 
119.83466286962546

>  <Genealogy>  (20) 
C=c1[nH+]c(C)c(C(=O)N2CCN(c3cccc(C)c3)C(C)C2)cc1=Cc1[n-]c(=O)[n-]c1[O-] (protonated)
C=c1[nH+]c(C)c(C(=O)N2CCN(c3cccc(C)c3)[C@H](C)C2)cc1=Cc1[n-]c(=O)[n-]c1[O-] (chirality)
C=c1[nH+]c(C)c(C(=O)N2CCN(c3cccc(C)c3)[C@H](C)C2)c/c1=C/c1[n-]c(=O)[n-]c1[O-] (cis-trans isomerization)
C=c1[nH+]c(C)c(C(=O)N2CCN(c3cccc(C)c3)[C@H](C)C2)c/c1=C/c1[n-]c(=O)[n-]c1[O-] (3D coordinates assigned)
C=c1[nH+]c(C)c(C(=O)N2CCN(c3cccc(C)c3)[C@H](C)C2)c/c1=C/c1[n-]c(=O)[n-]c1[O-] (nonaromatic ring conformer: 119.83466286962546 kcal/mol)

>  <smiles>  (20) 
C=c1nc(C)c(C(=O)N2CCN(c3cccc(C)c3)C(C)C2)cc1=Cc1[nH]c(=O)[nH]c1O

>  <score_type>  (20) 
oracle

>  <origin>  (20) 
adg

>  <m_score__min__energy>  (20) 
-17.77

>  <m_primary>  (20) 
energy

$$$$
20:0
     RDKit          3D

 57 60  0  0  0  0  0  0  0  0999 V2000
   56.5590   30.7990   42.9720 O   0  0  0  0  0  0  0  0  0  0  0  0
   56.7910   30.7440   44.2210 C   0  0  0  0  0  0  0  0  0  0  0  0
   56.2670   29.6520   44.9220 N   0  0  0  0  0  0  0  0  0  0  0  0
   56.8960   28.5920   45.2460 C   0  0  0  0  0  0  0  0  0  0  0  0
   58.2420   28.5070   45.2610 N   0  0  0  0  0  0  0  0  0  0  0  0
   58.8410   27.3430   45.6190 C   0  0  0  0  0  0  0  0  0  0  0  0
   58.1150   26.2270   45.9740 C   0  0  0  0  0  0  0  0  0  0  0  0
   56.7480   26.3310   45.9540 C   0  0  0  0  0  0  0  0  0  0  0  0
   56.1920   27.5120   45.5900 N   0  0  0  0  0  0  0  0  0  0  0  0
   57.5730   31.8180   44.7850 C   0  0  0  0  0  0  0  0  0  0  0  0
   58.4770   31.5630   45.8080 C   0  0  0  0  0  0  0  0  0  0  0  0
   59.2430   32.5750   46.3830 C   0  0  0  0  0  0  0  0  0  0  0  0
   59.1370   33.8970   45.9580 C   0  0  0  0  0  0  0  0  0  0  0  0
   59.8620   35.0190   46.5350 C   0  0  0  0  0  0  0  0  0  0  0  0
   60.7860   34.7330   47.5760 N   0  0  0  0  0  0  0  0  0  0  0  0
   60.2660   34.0290   48.7240 C   0  0  0  0  0  0  0  0  0  0  0  0
   61.3490   33.9740   49.7600 C   0  0  0  0  0  0  0  0  0  0  0  0
   62.6800   33.9330   49.3260 N   0  0  0  0  0  0  0  0  0  0  0  0
   63.6060   33.1720   50.1530 C   0  0  0  0  0  0  0  0  0  0  0  0
   64.8370   32.9090   49.3780 C   0  0  0  0  0  0  0  0  0  0  0  0
   66.0840   32.6750   50.1760 C   0  0  0  0  0  0  0  0  0  0  0  0
   66.2680   33.8900   51.0840 C   0  0  0  0  0  0  0  0  0  0  0  0
   65.1230   33.7810   52.0800 C   0  0  0  0  0  0  0  0  0  0  0  0
   63.7750   33.8910   51.4470 C   0  0  0  0  0  0  0  0  0  0  0  0
   62.9450   33.8150   47.9380 C   0  0  0  0  0  0  0  0  0  0  0  0
   61.7810   33.7650   47.0340 C   0  0  0  0  0  0  0  0  0  0  0  0
   58.2290   34.1310   44.9340 C   0  0  0  0  0  0  0  0  0  0  0  0
   57.4750   33.1320   44.3670 C   0  0  0  0  0  0  0  0  0  0  0  0
   59.9396   27.2888   45.6260 H   0  0  0  0  0  0  0  0  0  0  0  0
   58.6127   25.2893   46.2622 H   0  0  0  0  0  0  0  0  0  0  0  0
   56.1157   25.4735   46.2278 H   0  0  0  0  0  0  0  0  0  0  0  0
   55.1450   27.5440   45.5810 H   0  0  0  0  0  0  0  0  0  0  0  0
   58.5916   30.5324   46.1749 H   0  0  0  0  0  0  0  0  0  0  0  0
   59.9468   32.3243   47.1903 H   0  0  0  0  0  0  0  0  0  0  0  0
   60.4210   35.5045   45.7214 H   0  0  0  0  0  0  0  0  0  0  0  0
   59.0882   35.6414   47.0080 H   0  0  0  0  0  0  0  0  0  0  0  0
   59.3917   34.5625   49.1252 H   0  0  0  0  0  0  0  0  0  0  0  0
   59.9539   33.0128   48.4414 H   0  0  0  0  0  0  0  0  0  0  0  0
   61.2400   34.8669   50.3932 H   0  0  0  0  0  0  0  0  0  0  0  0
   61.1966   33.0071   50.2618 H   0  0  0  0  0  0  0  0  0  0  0  0
   63.2315   32.1736   50.4230 H   0  0  0  0  0  0  0  0  0  0  0  0
   64.6607   32.0155   48.7611 H   0  0  0  0  0  0  0  0  0  0  0  0
   65.0241   33.8273   48.8020 H   0  0  0  0  0  0  0  0  0  0  0  0
   65.9791   31.7630   50.7820 H   0  0  0  0  0  0  0  0  0  0  0  0
   66.9537   32.5433   49.5155 H   0  0  0  0  0  0  0  0  0  0  0  0
   67.2393   33.8501   51.5988 H   0  0  0  0  0  0  0  0  0  0  0  0
   66.2575   34.8394   50.5286 H   0  0  0  0  0  0  0  0  0  0  0  0
   65.1923   32.8067   52.5860 H   0  0  0  0  0  0  0  0  0  0  0  0
   65.2219   34.6217   52.7824 H   0  0  0  0  0  0  0  0  0  0  0  0
   63.0356   33.4893   52.1555 H   0  0  0  0  0  0  0  0  0  0  0  0
   63.6394   34.9579   51.2160 H   0  0  0  0  0  0  0  0  0  0  0  0
   63.5570   34.6800   47.6427 H   0  0  0  0  0  0  0  0  0  0  0  0
   63.4362   32.8374   47.8240 H   0  0  0  0  0  0  0  0  0  0  0  0
   62.0777   34.0547   46.0152 H   0  0  0  0  0  0  0  0  0  0  0  0
   61.3612   32.7497   46.9798 H   0  0  0  0  0  0  0  0  0  0  0  0
   58.1082   35.1588   44.5612 H   0  0  0  0  0  0  0  0  0  0  0  0
   56.7739   33.3849   43.5580 H   0  0  0  0  0  0  0  0  0  0  0  0
  1  2  2  0
  2  3  1  0
  3  4  2  3
  4  5  1  0
  5  6  2  0
  6  7  1  0
  7  8  2  0
  8  9  1  0
  2 10  1  0
 10 11  2  0
 11 12  1  0
 12 13  2  0
 13 14  1  0
 14 15  1  0
 15 16  1  0
 16 17  1  0
 17 18  1  0
 18 19  1  0
 19 20  1  0
 20 21  1  0
 21 22  1  0
 22 23  1  0
 23 24  1  0
 18 25  1  0
 25 26  1  0
 13 27  1  0
 27 28  2  0
  9  4  1  0
 28 10  1  0
 26 15  1  0
 24 19  1  0
  6 29  1  0
  7 30  1  0
  8 31  1  0
  9 32  1  0
 11 33  1  0
 12 34  1  0
 14 35  1  0
 14 36  1  0
 16 37  1  0
 16 38  1  0
 17 39  1  0
 17 40  1  0
 19 41  1  0
 20 42  1  0
 20 43  1  0
 21 44  1  0
 21 45  1  0
 22 46  1  0
 22 47  1  0
 23 48  1  0
 23 49  1  0
 24 50  1  0
 24 51  1  0
 25 52  1  0
 25 53  1  0
 26 54  1  0
 26 55  1  0
 27 56  1  0
 28 57  1  0
M  END
>  <smiles>  (21) 
O=C(N=c1nccc[nH]1)c1ccc(CN2CCN(C3CCCCC3)CC2)cc1

>  <score_type>  (21) 
oracle

>  <origin>  (21) 
adg

>  <m_score__min__energy>  (21) 
-9.4399999999999995

>  <m_primary>  (21) 
energy

$$$$
21:0
     RDKit          3D

 65 70  0  0  0  0  0  0  0  0999 V2000
   58.0920   26.8500   43.2470 C   0  0  0  0  0  0  0  0  0  0  0  0
   58.3050   26.7440   44.5690 C   0  0  0  0  0  0  0  0  0  0  0  0
   57.8430   25.7130   45.3980 C   0  0  0  0  0  0  0  0  0  0  0  0
   57.1380   24.6230   45.0250 C   0  0  0  0  0  0  0  0  0  0  0  0
   55.6730   24.4740   45.1530 C   0  0  0  0  0  0  0  0  0  0  0  0
   54.9760   23.3440   44.9250 N   0  0  0  0  0  0  0  0  0  0  0  0
   53.7110   23.6830   45.2500 C   0  0  0  0  0  0  0  0  0  0  0  0
   52.7480   22.8770   45.1600 O   0  0  0  0  0  0  0  0  0  0  0  0
   53.5590   24.9510   45.6860 N   0  0  0  0  0  0  0  0  0  0  0  0
   54.8100   25.4330   45.6260 C   0  0  0  0  0  0  0  0  0  0  0  0
   55.1570   26.7270   45.9960 O   0  0  0  0  0  0  0  0  0  0  0  0
   58.2950   26.0150   46.6740 C   0  0  0  0  0  0  0  0  0  0  0  0
   58.9870   27.2030   46.5820 C   0  0  0  0  0  0  0  0  0  0  0  0
   59.6230   27.8590   47.7420 C   0  0  0  0  0  0  0  0  0  0  0  0
   59.9400   27.1480   48.7340 O   0  0  0  0  0  0  0  0  0  0  0  0
   59.7770   29.2990   47.7850 N   0  0  1  0  0  0  0  0  0  0  0  0
   58.6020   29.9850   48.3960 C   0  0  0  0  0  0  0  0  0  0  0  0
   59.2220   30.8670   49.5030 C   0  0  1  0  0  0  0  0  0  0  0  0
   58.2540   31.4080   50.5550 C   0  0  0  0  0  0  0  0  0  0  0  0
   60.2800   29.9120   50.0240 C   0  0  0  0  0  0  0  0  0  0  0  0
   60.9130   29.7280   48.6440 C   0  0  2  0  0  0  0  0  0  0  0  0
   61.1790   31.1730   48.3280 C   0  0  0  0  0  0  0  0  0  0  0  0
   62.1250   31.7690   47.4980 C   0  0  0  0  0  0  0  0  0  0  0  0
   61.9960   33.1440   47.2360 C   0  0  0  0  0  0  0  0  0  0  0  0
   60.9070   33.8740   47.7610 C   0  0  0  0  0  0  0  0  0  0  0  0
   59.9350   33.2340   48.5510 C   0  0  0  0  0  0  0  0  0  0  0  0
   60.1120   31.8790   48.8340 C   0  0  0  0  0  0  0  0  0  0  0  0
   59.0070   27.6500   45.3030 N   0  0  0  0  0  0  0  0  0  0  0  0
   59.7810   28.7930   44.7840 C   0  0  0  0  0  0  0  0  0  0  0  0
   58.8740   30.0160   44.5330 C   0  0  0  0  0  0  0  0  0  0  0  0
   57.3900   29.6320   44.6860 C   0  0  0  0  0  0  0  0  0  0  0  0
   56.4570   30.7980   44.2990 C   0  0  0  0  0  0  0  0  0  0  0  0
   57.0870   32.1880   44.5160 C   0  0  0  0  0  0  0  0  0  0  0  0
   58.0660   32.1840   45.6940 C   0  0  0  0  0  0  0  0  0  0  0  0
   59.2300   31.1960   45.4760 C   0  0  0  0  0  0  0  0  0  0  0  0
   58.5029   27.7053   42.6905 H   0  0  0  0  0  0  0  0  0  0  0  0
   57.5067   26.0815   42.7209 H   0  0  0  0  0  0  0  0  0  0  0  0
   57.6976   23.7806   44.5923 H   0  0  0  0  0  0  0  0  0  0  0  0
   58.1322   25.4201   47.5849 H   0  0  0  0  0  0  0  0  0  0  0  0
   59.9030   29.6580   46.8070 H   0  0  0  0  0  0  0  0  0  0  0  0
   58.0781   30.6021   47.6513 H   0  0  0  0  0  0  0  0  0  0  0  0
   57.8533   29.2792   48.7850 H   0  0  0  0  0  0  0  0  0  0  0  0
   58.6449   31.1896   51.5597 H   0  0  0  0  0  0  0  0  0  0  0  0
   58.1484   32.4959   50.4312 H   0  0  0  0  0  0  0  0  0  0  0  0
   57.2721   30.9279   50.4312 H   0  0  0  0  0  0  0  0  0  0  0  0
   60.9588   30.3706   50.7581 H   0  0  0  0  0  0  0  0  0  0  0  0
   59.9584   29.0198   50.5812 H   0  0  0  0  0  0  0  0  0  0  0  0
   61.7715   29.0473   48.5457 H   0  0  0  0  0  0  0  0  0  0  0  0
   62.9469   31.1826   47.0614 H   0  0  0  0  0  0  0  0  0  0  0  0
   62.7486   33.6550   46.6176 H   0  0  0  0  0  0  0  0  0  0  0  0
   60.8183   34.9501   47.5508 H   0  0  0  0  0  0  0  0  0  0  0  0
   59.0628   33.7843   48.9337 H   0  0  0  0  0  0  0  0  0  0  0  0
   60.5543   29.0648   45.5175 H   0  0  0  0  0  0  0  0  0  0  0  0
   60.2383   28.4976   43.8282 H   0  0  0  0  0  0  0  0  0  0  0  0
   59.0477   30.3505   43.4996 H   0  0  0  0  0  0  0  0  0  0  0  0
   57.1751   28.7720   44.0346 H   0  0  0  0  0  0  0  0  0  0  0  0
   57.2072   29.3819   45.7415 H   0  0  0  0  0  0  0  0  0  0  0  0
   56.1957   30.6964   43.2353 H   0  0  0  0  0  0  0  0  0  0  0  0
   55.5748   30.7371   44.9532 H   0  0  0  0  0  0  0  0  0  0  0  0
   57.6269   32.4819   43.6038 H   0  0  0  0  0  0  0  0  0  0  0  0
   56.2800   32.9009   44.7409 H   0  0  0  0  0  0  0  0  0  0  0  0
   58.4781   33.1965   45.8165 H   0  0  0  0  0  0  0  0  0  0  0  0
   57.5153   31.8667   46.5918 H   0  0  0  0  0  0  0  0  0  0  0  0
   60.0766   31.7466   45.0400 H   0  0  0  0  0  0  0  0  0  0  0  0
   59.4740   30.7629   46.4573 H   0  0  0  0  0  0  0  0  0  0  0  0
  1  2  2  0
  2  3  1  0
  3  4  2  3
  4  5  1  0
  5  6  1  0
  6  7  1  0
  7  8  2  0
  7  9  1  0
  9 10  1  0
 10 11  1  0
  3 12  1  0
 12 13  2  0
 13 14  1  0
 14 15  2  0
 14 16  1  0
 16 17  1  0
 17 18  1  0
 18 19  1  1
 18 20  1  0
 20 21  1  0
 21 22  1  0
 22 23  2  0
 23 24  1  0
 24 25  2  0
 25 26  1  0
 26 27  2  0
 13 28  1  0
 28 29  1  0
 29 30  1  0
 30 31  1  0
 31 32  1  0
 32 33  1  0
 33 34  1  0
 34 35  1  0
 28  2  1  0
 35 30  1  0
 10  5  2  0
 21 16  1  0
 27 22  1  0
 27 18  1  0
  1 36  1  0
  1 37  1  0
  4 38  1  0
 12 39  1  0
 16 40  1  6
 17 41  1  0
 17 42  1  0
 19 43  1  0
 19 44  1  0
 19 45  1  0
 20 46  1  0
 20 47  1  0
 21 48  1  1
 23 49  1  0
 24 50  1  0
 25 51  1  0
 26 52  1  0
 29 53  1  0
 29 54  1  0
 30 55  1  0
 31 56  1  0
 31 57  1  0
 32 58  1  0
 32 59  1  0
 33 60  1  0
 33 61  1  0
 34 62  1  0
 34 63  1  0
 35 64  1  0
 35 65  1  0
M  CHG  4   6  -1   9  -1  11  -1  16   1
M  END
>  <UniqueID>  (22) 
18

>  <SMILES>  (22) 
C=c1c(=Cc2[n-]c(=O)[n-]c2[O-])cc(C(=O)[N@H+]2C[C@@]3(C)CC2c2ccccc23)n1CC1CCCCC1

>  <Energy>  (22) 
191.57538629872008

>  <Genealogy>  (22) 
C=c1c(=Cc2[n-]c(=O)[n-]c2[O-])cc(C(=O)[NH+]2CC3(C)CC2c2ccccc23)n1CC1CCCCC1 (protonated)
C=c1c(=Cc2[n-]c(=O)[n-]c2[O-])cc(C(=O)[N@H+]2C[C@@]3(C)CC2c2ccccc23)n1CC1CCCCC1 (chirality)
C=c1c(=Cc2[n-]c(=O)[n-]c2[O-])cc(C(=O)[N@H+]2C[C@@]3(C)CC2c2ccccc23)n1CC1CCCCC1 (3D coordinates assigned)
C=c1c(=Cc2[n-]c(=O)[n-]c2[O-])cc(C(=O)[N@H+]2C[C@@]3(C)CC2c2ccccc23)n1CC1CCCCC1 (nonaromatic ring conformer: 191.57538629872008 kcal/mol)

>  <smiles>  (22) 
C=c1c(=Cc2[nH]c(=O)[nH]c2O)cc(C(=O)N2CC3(C)CC2c2ccccc23)n1CC1CCCCC1

>  <score_type>  (22) 
oracle

>  <origin>  (22) 
adg

>  <m_score__min__energy>  (22) 
-17.149999999999999

>  <m_primary>  (22) 
energy

$$$$
22:0
     RDKit          3D

 47 49  0  0  0  0  0  0  0  0999 V2000
   61.4142   34.2783   48.9978 H   0  0  0  0  0  0  0  0  0  0  0  0
   60.8030   34.1450   48.0930 C   0  0  0  0  0  0  0  0  0  0  0  0
   59.1250   34.2040   48.0150 S   0  0  0  0  0  0  0  0  0  0  0  0
   59.0840   33.9190   46.3510 C   0  0  0  0  0  0  0  0  0  0  0  0
   58.0230   33.7880   45.6100 N   0  0  0  0  0  0  0  0  0  0  0  0
   57.6900   32.6930   44.7420 C   0  0  0  0  0  0  0  0  0  0  0  0
   56.9400   31.6430   45.1770 N   0  0  0  0  0  0  0  0  0  0  0  0
   56.5750   30.6180   44.3580 C   0  0  0  0  0  0  0  0  0  0  0  0
   55.7140   29.4960   44.8670 C   0  0  0  0  0  0  0  0  0  0  0  0
   55.3893   29.7316   45.8912 H   0  0  0  0  0  0  0  0  0  0  0  0
   54.8496   29.3935   44.1945 H   0  0  0  0  0  0  0  0  0  0  0  0
   56.4360   28.2270   44.8790 N   0  0  0  0  0  0  0  0  0  0  0  0
   56.3680   27.2750   45.9470 C   0  0  0  0  0  0  0  0  0  0  0  0
   55.3760   26.5030   46.0120 O   0  0  0  0  0  0  0  0  0  0  0  0
   57.3950   27.1660   46.9440 N   0  0  0  0  0  0  0  0  0  0  0  0
   58.8260   27.0580   46.6780 C   0  0  0  0  0  0  0  0  0  0  0  0
   59.3653   27.7740   47.3155 H   0  0  0  0  0  0  0  0  0  0  0  0
   59.1463   26.0288   46.8975 H   0  0  0  0  0  0  0  0  0  0  0  0
   59.1370   27.3630   45.2070 C   0  0  0  0  0  0  0  0  0  0  0  0
   60.0878   26.8804   44.9368 H   0  0  0  0  0  0  0  0  0  0  0  0
   58.3087   26.9758   44.5955 H   0  0  0  0  0  0  0  0  0  0  0  0
   59.2550   28.8720   44.9490 C   0  0  0  0  0  0  0  0  0  0  0  0
   60.0354   29.0494   44.1943 H   0  0  0  0  0  0  0  0  0  0  0  0
   58.2850   29.2465   44.5900 H   0  0  0  0  0  0  0  0  0  0  0  0
   59.6170   29.6010   46.2150 C   0  0  0  0  0  0  0  0  0  0  0  0
   58.6070   30.0410   47.0880 C   0  0  0  0  0  0  0  0  0  0  0  0
   57.5509   29.8584   46.8405 H   0  0  0  0  0  0  0  0  0  0  0  0
   58.9400   30.7100   48.2700 C   0  0  0  0  0  0  0  0  0  0  0  0
   58.1455   31.0665   48.9421 H   0  0  0  0  0  0  0  0  0  0  0  0
   60.2800   30.9260   48.5980 C   0  0  0  0  0  0  0  0  0  0  0  0
   60.5397   31.4526   49.5282 H   0  0  0  0  0  0  0  0  0  0  0  0
   61.2920   30.4740   47.7460 C   0  0  0  0  0  0  0  0  0  0  0  0
   62.3470   30.6390   48.0099 H   0  0  0  0  0  0  0  0  0  0  0  0
   60.9640   29.8120   46.5580 C   0  0  0  0  0  0  0  0  0  0  0  0
   61.7623   29.4556   45.8904 H   0  0  0  0  0  0  0  0  0  0  0  0
   56.9920   30.6240   43.0200 C   0  0  0  0  0  0  0  0  0  0  0  0
   56.7250   29.7923   42.3515 H   0  0  0  0  0  0  0  0  0  0  0  0
   57.7490   31.6950   42.5440 C   0  0  0  0  0  0  0  0  0  0  0  0
   58.0766   31.7143   41.4941 H   0  0  0  0  0  0  0  0  0  0  0  0
   58.0900   32.7420   43.4020 C   0  0  0  0  0  0  0  0  0  0  0  0
   58.6688   33.5992   43.0275 H   0  0  0  0  0  0  0  0  0  0  0  0
   60.3270   33.7710   45.8460 N   0  0  0  0  0  0  0  0  0  0  0  0
   61.2830   33.8970   46.8070 C   0  0  0  0  0  0  0  0  0  0  0  0
   62.7350   33.7710   46.4830 C   0  0  0  0  0  0  0  0  0  0  0  0
   63.3158   33.7206   47.4158 H   0  0  0  0  0  0  0  0  0  0  0  0
   62.9018   32.8550   45.8972 H   0  0  0  0  0  0  0  0  0  0  0  0
   63.0571   34.6446   45.8972 H   0  0  0  0  0  0  0  0  0  0  0  0
  1  2  1  0
  2  3  1  0
  3  4  1  0
  4  5  2  0
  5  6  1  0
  6  7  2  0
  7  8  1  0
  8  9  1  0
  9 10  1  0
  9 11  1  0
  9 12  1  0
 12 13  1  0
 13 14  2  0
 13 15  1  0
 15 16  1  0
 16 17  1  0
 16 18  1  0
 16 19  1  0
 19 20  1  0
 19 21  1  0
 19 22  1  0
 22 23  1  0
 22 24  1  0
 22 25  1  0
 25 26  2  0
 26 27  1  0
 26 28  1  0
 28 29  1  0
 28 30  2  0
 30 31  1  0
 30 32  1  0
 32 33  1  0
 32 34  2  0
 34 35  1  0
  8 36  2  0
 36 37  1  0
 36 38  1  0
 38 39  1  0
 38 40  2  0
 40 41  1  0
  4 42  1  0
 42 43  1  0
 43 44  1  0
 44 45  1  0
 44 46  1  0
 44 47  1  0
 43  2  2  0
 40  6  1  0
 34 25  1  0
M  CHG  3  12  -1  15  -1  42  -1
M  END
>  <UniqueID>  (23) 
19

>  <SMILES>  (23) 
Cc1cs/c(=N\c2cccc(C[N-]C(=O)[N-]CCCc3ccccc3)n2)[n-]1

>  <Energy>  (23) 
76.5010455802507

>  <Genealogy>  (23) 
Cc1csc(=Nc2cccc(C[N-]C(=O)[N-]CCCc3ccccc3)n2)[n-]1 (protonated)
Cc1cs/c(=N\c2cccc(C[N-]C(=O)[N-]CCCc3ccccc3)n2)[n-]1 (cis-trans isomerization)
Cc1cs/c(=N\c2cccc(C[N-]C(=O)[N-]CCCc3ccccc3)n2)[n-]1 (3D coordinates assigned)
Cc1cs/c(=N\c2cccc(C[N-]C(=O)[N-]CCCc3ccccc3)n2)[n-]1 (optimized conformer: 76.5010455802507 kcal/mol)

>  <smiles>  (23) 
Cc1csc(=Nc2cccc(CNC(=O)NCCCc3ccccc3)n2)[nH]1

>  <score_type>  (23) 
oracle

>  <origin>  (23) 
adg

>  <m_score__min__energy>  (23) 
-13.220000000000001

>  <m_primary>  (23) 
energy

$$$$
23:0
     RDKit          3D

 66 69  0  0  0  0  0  0  0  0999 V2000
   60.4400   26.4380   48.5320 O   0  0  0  0  0  0  0  0  0  0  0  0
   60.4320   27.7000   48.5430 C   0  0  0  0  0  0  0  0  0  0  0  0
   61.1230   28.4260   49.6690 C   0  0  0  0  0  0  0  0  0  0  0  0
   60.2320   29.4120   50.2810 N   0  0  0  0  0  0  0  0  0  0  0  0
   58.8850   29.4350   50.2050 C   0  0  0  0  0  0  0  0  0  0  0  0
   58.4490   30.5880   50.8290 C   0  0  0  0  0  0  0  0  0  0  0  0
   57.1260   31.0000   50.9480 O   0  0  0  0  0  0  0  0  0  0  0  0
   59.5080   31.2810   51.2950 N   0  0  0  0  0  0  0  0  0  0  0  0
   59.4930   32.6060   51.9140 C   0  0  0  0  0  0  0  0  0  0  0  0
   60.2390   33.5790   51.0430 C   0  0  0  0  0  0  0  0  0  0  0  0
   59.5920   34.2330   50.1810 O   0  0  0  0  0  0  0  0  0  0  0  0
   61.6720   33.7140   51.1170 N   0  0  0  0  0  0  0  0  0  0  0  0
   62.3630   33.5910   52.4110 C   0  0  0  0  0  0  0  0  0  0  0  0
   63.8080   34.0950   52.3290 C   0  0  0  0  0  0  0  0  0  0  0  0
   64.5640   33.4310   51.1680 C   0  0  0  0  0  0  0  0  0  0  0  0
   63.7560   33.3760   49.8510 C   0  0  0  0  0  0  0  0  0  0  0  0
   62.4240   34.1320   49.9240 C   0  0  0  0  0  0  0  0  0  0  0  0
   60.5790   30.5450   50.9300 C   0  0  0  0  0  0  0  0  0  0  0  0
   61.7720   30.8840   51.1540 O   0  0  0  0  0  0  0  0  0  0  0  0
   59.7080   28.4340   47.4740 C   0  0  0  0  0  0  0  0  0  0  0  0
   58.3240   28.2450   47.3050 C   0  0  0  0  0  0  0  0  0  0  0  0
   57.6340   28.9140   46.2900 C   0  0  0  0  0  0  0  0  0  0  0  0
   58.3130   29.7860   45.4310 C   0  0  0  0  0  0  0  0  0  0  0  0
   57.4500   30.6270   44.1480 S   0  0  0  0  0  0  0  0  0  0  0  0
   58.4410   31.3130   43.2470 O   0  0  0  0  0  0  0  0  0  0  0  0
   56.6610   29.6220   43.3560 O   0  0  0  0  0  0  0  0  0  0  0  0
   56.3810   31.8010   44.8640 N   0  0  0  0  0  0  0  0  0  0  0  0
   57.0220   33.1080   45.0100 C   0  0  0  0  0  0  0  0  0  0  0  0
   57.2990   33.4260   46.4820 C   0  0  0  0  0  0  0  0  0  0  0  0
   58.7640   33.2700   46.7920 C   0  0  0  0  0  0  0  0  0  0  0  0
   59.1890   32.3500   47.7650 C   0  0  0  0  0  0  0  0  0  0  0  0
   60.5530   32.1820   48.0260 C   0  0  0  0  0  0  0  0  0  0  0  0
   61.5000   32.9220   47.3110 C   0  0  0  0  0  0  0  0  0  0  0  0
   61.0850   33.8280   46.3320 C   0  0  0  0  0  0  0  0  0  0  0  0
   59.7220   34.0000   46.0680 C   0  0  0  0  0  0  0  0  0  0  0  0
   59.6850   30.0000   45.6080 C   0  0  0  0  0  0  0  0  0  0  0  0
   60.3790   29.3300   46.6200 C   0  0  0  0  0  0  0  0  0  0  0  0
   61.4308   27.6963   50.4324 H   0  0  0  0  0  0  0  0  0  0  0  0
   62.0001   28.9506   49.2621 H   0  0  0  0  0  0  0  0  0  0  0  0
   58.2486   28.6729   49.7315 H   0  0  0  0  0  0  0  0  0  0  0  0
   56.8140   31.8710   50.5330 H   0  0  0  0  0  0  0  0  0  0  0  0
   58.4526   32.9432   52.0316 H   0  0  0  0  0  0  0  0  0  0  0  0
   59.9771   32.5536   52.9003 H   0  0  0  0  0  0  0  0  0  0  0  0
   61.8206   34.1829   53.1630 H   0  0  0  0  0  0  0  0  0  0  0  0
   62.3850   32.5271   52.6896 H   0  0  0  0  0  0  0  0  0  0  0  0
   63.7997   35.1842   52.1753 H   0  0  0  0  0  0  0  0  0  0  0  0
   64.3195   33.8393   53.2687 H   0  0  0  0  0  0  0  0  0  0  0  0
   65.4880   33.9992   50.9851 H   0  0  0  0  0  0  0  0  0  0  0  0
   64.7630   32.3912   51.4668 H   0  0  0  0  0  0  0  0  0  0  0  0
   64.3651   33.8187   49.0491 H   0  0  0  0  0  0  0  0  0  0  0  0
   63.5203   32.3191   49.6575 H   0  0  0  0  0  0  0  0  0  0  0  0
   62.6213   35.2128   49.9781 H   0  0  0  0  0  0  0  0  0  0  0  0
   61.8308   33.9051   49.0259 H   0  0  0  0  0  0  0  0  0  0  0  0
   57.7804   27.5650   47.9773 H   0  0  0  0  0  0  0  0  0  0  0  0
   56.5527   28.7545   46.1658 H   0  0  0  0  0  0  0  0  0  0  0  0
   57.9735   33.1049   44.4581 H   0  0  0  0  0  0  0  0  0  0  0  0
   56.3442   33.8758   44.6087 H   0  0  0  0  0  0  0  0  0  0  0  0
   56.9936   34.4617   46.6916 H   0  0  0  0  0  0  0  0  0  0  0  0
   56.7276   32.7260   47.1093 H   0  0  0  0  0  0  0  0  0  0  0  0
   58.4471   31.7601   48.3232 H   0  0  0  0  0  0  0  0  0  0  0  0
   60.8811   31.4668   48.7947 H   0  0  0  0  0  0  0  0  0  0  0  0
   62.5720   32.7906   47.5195 H   0  0  0  0  0  0  0  0  0  0  0  0
   61.8310   34.4070   45.7679 H   0  0  0  0  0  0  0  0  0  0  0  0
   59.3991   34.7089   45.2913 H   0  0  0  0  0  0  0  0  0  0  0  0
   60.2197   30.6987   44.9477 H   0  0  0  0  0  0  0  0  0  0  0  0
   61.4573   29.5042   46.7500 H   0  0  0  0  0  0  0  0  0  0  0  0
  1  2  2  0
  2  3  1  0
  3  4  1  0
  4  5  1  0
  5  6  2  0
  6  7  1  0
  6  8  1  0
  8  9  1  0
  9 10  1  0
 10 11  2  0
 10 12  1  0
 12 13  1  0
 13 14  1  0
 14 15  1  0
 15 16  1  0
 16 17  1  0
  8 18  1  0
 18 19  2  0
  2 20  1  0
 20 21  2  0
 21 22  1  0
 22 23  2  0
 23 24  1  0
 24 25  2  0
 24 26  2  0
 24 27  1  0
 27 28  1  0
 28 29  1  0
 29 30  1  0
 30 31  2  0
 31 32  1  0
 32 33  2  0
 33 34  1  0
 34 35  2  0
 23 36  1  0
 36 37  2  0
 18  4  1  0
 37 20  1  0
 17 12  1  0
 35 30  1  0
  3 38  1  0
  3 39  1  0
  5 40  1  0
  7 41  1  0
  9 42  1  0
  9 43  1  0
 13 44  1  0
 13 45  1  0
 14 46  1  0
 14 47  1  0
 15 48  1  0
 15 49  1  0
 16 50  1  0
 16 51  1  0
 17 52  1  0
 17 53  1  0
 21 54  1  0
 22 55  1  0
 28 56  1  0
 28 57  1  0
 29 58  1  0
 29 59  1  0
 31 60  1  0
 32 61  1  0
 33 62  1  0
 34 63  1  0
 35 64  1  0
 36 65  1  0
 37 66  1  0
M  CHG  1  27  -1
M  END
>  <UniqueID>  (24) 
20

>  <SMILES>  (24) 
O=C(Cn1cc(O)n(CC(=O)N2CCCCC2)c1=O)c1ccc(S(=O)(=O)[N-]CCc2ccccc2)cc1

>  <Energy>  (24) 
101.73652824786835

>  <Genealogy>  (24) 
O=C(Cn1cc(O)n(CC(=O)N2CCCCC2)c1=O)c1ccc(S(=O)(=O)[N-]CCc2ccccc2)cc1 (protonated)
O=C(Cn1cc(O)n(CC(=O)N2CCCCC2)c1=O)c1ccc(S(=O)(=O)[N-]CCc2ccccc2)cc1 (3D coordinates assigned)
O=C(Cn1cc(O)n(CC(=O)N2CCCCC2)c1=O)c1ccc(S(=O)(=O)[N-]CCc2ccccc2)cc1 (nonaromatic ring conformer: 101.73652824786835 kcal/mol)

>  <smiles>  (24) 
O=C(Cn1cc(O)n(CC(=O)N2CCCCC2)c1=O)c1ccc(S(=O)(=O)NCCc2ccccc2)cc1

>  <score_type>  (24) 
oracle

>  <origin>  (24) 
adg

>  <m_score__min__energy>  (24) 
-11.02

>  <m_primary>  (24) 
energy

$$$$
24:0
     RDKit          3D

 49 52  0  0  0  0  0  0  0  0999 V2000
   57.7730   26.9570   42.8330 C   0  0  0  0  0  0  0  0  0  0  0  0
   58.3890   27.1940   44.1740 C   0  0  0  0  0  0  0  0  0  0  0  0
   59.0130   26.2700   44.8670 O   0  0  0  0  0  0  0  0  0  0  0  0
   59.4360   26.7390   46.0050 N   0  0  0  0  0  0  0  0  0  0  0  0
   59.0770   28.0380   46.0620 C   0  0  0  0  0  0  0  0  0  0  0  0
   59.4450   28.9220   47.1870 C   0  0  0  0  0  0  0  0  0  0  0  0
   58.5590   29.1340   48.2580 C   0  0  0  0  0  0  0  0  0  0  0  0
   58.9150   29.9850   49.3090 C   0  0  0  0  0  0  0  0  0  0  0  0
   60.1470   30.6440   49.2900 C   0  0  0  0  0  0  0  0  0  0  0  0
   61.0220   30.4590   48.2180 C   0  0  0  0  0  0  0  0  0  0  0  0
   60.6700   29.6080   47.1640 C   0  0  0  0  0  0  0  0  0  0  0  0
   58.3900   28.3730   44.9010 C   0  0  0  0  0  0  0  0  0  0  0  0
   57.7120   29.6380   44.5610 C   0  0  0  0  0  0  0  0  0  0  0  0
   57.3590   29.8600   43.3710 O   0  0  0  0  0  0  0  0  0  0  0  0
   57.3810   30.5710   45.5970 N   0  0  0  0  0  0  0  0  0  0  0  0
   57.8420   31.9250   45.6980 C   0  0  0  0  0  0  0  0  0  0  0  0
   57.3630   32.8680   44.7820 C   0  0  0  0  0  0  0  0  0  0  0  0
   57.7630   34.2020   44.8670 C   0  0  0  0  0  0  0  0  0  0  0  0
   58.6380   34.6100   45.8760 C   0  0  0  0  0  0  0  0  0  0  0  0
   59.1220   33.6810   46.8120 C   0  0  0  0  0  0  0  0  0  0  0  0
   60.0280   34.1230   47.8970 C   0  0  0  0  0  0  0  0  0  0  0  0
   59.5970   34.9390   48.7570 O   0  0  0  0  0  0  0  0  0  0  0  0
   61.3880   33.6540   47.9880 N   0  0  0  0  0  0  0  0  0  0  0  0
   62.1810   33.3630   46.7870 C   0  0  0  0  0  0  0  0  0  0  0  0
   63.6210   33.8380   47.0010 C   0  0  0  0  0  0  0  0  0  0  0  0
   64.1530   33.3060   48.2000 O   0  0  0  0  0  0  0  0  0  0  0  0
   63.4430   33.8200   49.3110 C   0  0  0  0  0  0  0  0  0  0  0  0
   61.9840   33.3510   49.2920 C   0  0  0  0  0  0  0  0  0  0  0  0
   58.7000   32.3430   46.7310 C   0  0  0  0  0  0  0  0  0  0  0  0
   56.7534   26.5647   42.9620 H   0  0  0  0  0  0  0  0  0  0  0  0
   57.7336   27.9042   42.2750 H   0  0  0  0  0  0  0  0  0  0  0  0
   58.3786   26.2277   42.2750 H   0  0  0  0  0  0  0  0  0  0  0  0
   57.5821   28.6285   48.2692 H   0  0  0  0  0  0  0  0  0  0  0  0
   58.2243   30.1358   50.1517 H   0  0  0  0  0  0  0  0  0  0  0  0
   60.4276   31.3089   50.1202 H   0  0  0  0  0  0  0  0  0  0  0  0
   61.9892   30.9827   48.2017 H   0  0  0  0  0  0  0  0  0  0  0  0
   61.3558   29.4760   46.3141 H   0  0  0  0  0  0  0  0  0  0  0  0
   56.6666   32.5557   43.9898 H   0  0  0  0  0  0  0  0  0  0  0  0
   57.3880   34.9345   44.1371 H   0  0  0  0  0  0  0  0  0  0  0  0
   58.9495   35.6631   45.9381 H   0  0  0  0  0  0  0  0  0  0  0  0
   62.1763   32.2794   46.5977 H   0  0  0  0  0  0  0  0  0  0  0  0
   61.7457   33.8870   45.9233 H   0  0  0  0  0  0  0  0  0  0  0  0
   64.2396   33.5068   46.1539 H   0  0  0  0  0  0  0  0  0  0  0  0
   63.6234   34.9358   47.0709 H   0  0  0  0  0  0  0  0  0  0  0  0
   63.9217   33.4702   50.2375 H   0  0  0  0  0  0  0  0  0  0  0  0
   63.4597   34.9187   49.2611 H   0  0  0  0  0  0  0  0  0  0  0  0
   61.9458   32.2660   49.4689 H   0  0  0  0  0  0  0  0  0  0  0  0
   61.4220   33.8724   50.0809 H   0  0  0  0  0  0  0  0  0  0  0  0
   59.0437   31.6164   47.4820 H   0  0  0  0  0  0  0  0  0  0  0  0
  1  2  1  0
  2  3  1  0
  3  4  1  0
  4  5  2  0
  5  6  1  0
  6  7  2  0
  7  8  1  0
  8  9  2  0
  9 10  1  0
 10 11  2  0
  5 12  1  0
 12 13  1  0
 13 14  2  0
 13 15  1  0
 15 16  1  0
 16 17  2  0
 17 18  1  0
 18 19  2  0
 19 20  1  0
 20 21  1  0
 21 22  2  0
 21 23  1  0
 23 24  1  0
 24 25  1  0
 25 26  1  0
 26 27  1  0
 27 28  1  0
 20 29  2  0
 12  2  2  0
 29 16  1  0
 11  6  1  0
 28 23  1  0
  1 30  1  0
  1 31  1  0
  1 32  1  0
  7 33  1  0
  8 34  1  0
  9 35  1  0
 10 36  1  0
 11 37  1  0
 17 38  1  0
 18 39  1  0
 19 40  1  0
 24 41  1  0
 24 42  1  0
 25 43  1  0
 25 44  1  0
 27 45  1  0
 27 46  1  0
 28 47  1  0
 28 48  1  0
 29 49  1  0
M  CHG  1  15  -1
M  END
>  <UniqueID>  (25) 
21

>  <SMILES>  (25) 
Cc1onc(-c2ccccc2)c1C(=O)[N-]c1cccc(C(=O)N2CCOCC2)c1

>  <Energy>  (25) 
97.335654939184

>  <Genealogy>  (25) 
Cc1onc(-c2ccccc2)c1C(=O)[N-]c1cccc(C(=O)N2CCOCC2)c1 (protonated)
Cc1onc(-c2ccccc2)c1C(=O)[N-]c1cccc(C(=O)N2CCOCC2)c1 (3D coordinates assigned)
Cc1onc(-c2ccccc2)c1C(=O)[N-]c1cccc(C(=O)N2CCOCC2)c1 (nonaromatic ring conformer: 97.335654939184 kcal/mol)

>  <smiles>  (25) 
Cc1onc(-c2ccccc2)c1C(=O)Nc1cccc(C(=O)N2CCOCC2)c1

>  <score_type>  (25) 
oracle

>  <origin>  (25) 
adg

>  <m_score__min__energy>  (25) 
-10.380000000000001

>  <m_primary>  (25) 
energy

$$$$
25:0
     RDKit          3D

 54 58  0  0  0  0  0  0  0  0999 V2000
   52.7260   24.2940   43.9940 H   0  0  0  0  0  0  0  0  0  0  0  0
   53.3240   23.5110   44.3440 N   0  0  0  0  0  0  0  0  0  0  0  0
   54.6100   23.5220   44.1920 C   0  0  0  0  0  0  0  0  0  0  0  0
   55.1860   22.7690   43.2160 N   0  0  0  0  0  0  0  0  0  0  0  0
   56.5290   22.7590   43.0200 C   0  0  0  0  0  0  0  0  0  0  0  0
   56.9620   22.1399   42.2205 H   0  0  0  0  0  0  0  0  0  0  0  0
   57.3620   23.5320   43.8300 C   0  0  0  0  0  0  0  0  0  0  0  0
   58.4500   23.5264   43.6677 H   0  0  0  0  0  0  0  0  0  0  0  0
   56.8060   24.3170   44.8530 C   0  0  0  0  0  0  0  0  0  0  0  0
   57.6870   25.1350   45.7220 C   0  0  0  0  0  0  0  0  0  0  0  0
   59.0680   24.8820   45.7710 C   0  0  0  0  0  0  0  0  0  0  0  0
   59.4975   24.0770   45.1566 H   0  0  0  0  0  0  0  0  0  0  0  0
   59.9000   25.6450   46.5940 C   0  0  0  0  0  0  0  0  0  0  0  0
   60.9820   25.4478   46.6120 H   0  0  0  0  0  0  0  0  0  0  0  0
   59.3620   26.6620   47.3980 C   0  0  0  0  0  0  0  0  0  0  0  0
   60.2470   27.4710   48.2570 C   0  0  0  0  0  0  0  0  0  0  0  0
   61.1290   26.8880   48.9450 O   0  0  0  0  0  0  0  0  0  0  0  0
   60.1240   28.9040   48.3330 N   0  0  0  0  0  0  0  0  0  0  0  0
   59.6590   29.5660   49.5370 C   0  0  0  0  0  0  0  0  0  0  0  0
   58.6822   29.1619   49.8413 H   0  0  0  0  0  0  0  0  0  0  0  0
   60.3546   29.4094   50.3746 H   0  0  0  0  0  0  0  0  0  0  0  0
   59.5340   31.0410   49.1890 C   0  0  0  0  0  0  0  0  0  0  0  0
   58.4752   31.3109   49.0619 H   0  0  0  0  0  0  0  0  0  0  0  0
   59.9485   31.6702   49.9904 H   0  0  0  0  0  0  0  0  0  0  0  0
   60.3020   31.2590   47.8610 C   0  0  2  0  0  0  0  0  0  0  0  0
   61.7290   31.7860   48.1750 C   0  0  0  0  0  0  0  0  0  0  0  0
   61.8692   31.8378   49.2648 H   0  0  0  0  0  0  0  0  0  0  0  0
   62.4753   31.1042   47.7413 H   0  0  0  0  0  0  0  0  0  0  0  0
   61.8530   32.7892   47.7413 H   0  0  0  0  0  0  0  0  0  0  0  0
   59.4980   32.2350   46.9770 C   0  0  0  0  0  0  0  0  0  0  0  0
   59.7080   33.6290   47.0430 C   0  0  0  0  0  0  0  0  0  0  0  0
   60.5307   34.0249   47.6565 H   0  0  0  0  0  0  0  0  0  0  0  0
   58.8880   34.5110   46.3420 C   0  0  0  0  0  0  0  0  0  0  0  0
   59.0960   35.5908   46.3679 H   0  0  0  0  0  0  0  0  0  0  0  0
   57.8080   34.0310   45.6100 C   0  0  0  0  0  0  0  0  0  0  0  0
   57.1631   34.7353   45.0640 H   0  0  0  0  0  0  0  0  0  0  0  0
   57.5350   32.6630   45.5620 C   0  0  0  0  0  0  0  0  0  0  0  0
   56.3810   32.2600   44.8840 O   0  0  0  0  0  0  0  0  0  0  0  0
   55.7190   31.5900   45.2490 H   0  0  0  0  0  0  0  0  0  0  0  0
   58.4090   31.7490   46.2060 C   0  0  0  0  0  0  0  0  0  0  0  0
   58.1990   30.2580   46.1140 C   0  0  0  0  0  0  0  0  0  0  0  0
   57.6679   29.9068   47.0110 H   0  0  0  0  0  0  0  0  0  0  0  0
   57.6021   30.0271   45.2194 H   0  0  0  0  0  0  0  0  0  0  0  0
   59.5490   29.5580   46.0170 C   0  0  0  0  0  0  0  0  0  0  0  0
   59.3798   28.4742   45.9345 H   0  0  0  0  0  0  0  0  0  0  0  0
   60.0689   29.9533   45.1319 H   0  0  0  0  0  0  0  0  0  0  0  0
   60.4410   29.8280   47.2460 C   0  0  2  0  0  0  0  0  0  0  0  0
   61.4610   29.7036   46.8534 H   0  0  0  0  0  0  0  0  0  0  0  0
   57.9850   26.9270   47.3400 C   0  0  0  0  0  0  0  0  0  0  0  0
   57.5584   27.7393   47.9468 H   0  0  0  0  0  0  0  0  0  0  0  0
   57.1530   26.1650   46.5160 C   0  0  0  0  0  0  0  0  0  0  0  0
   56.0731   26.3723   46.4883 H   0  0  0  0  0  0  0  0  0  0  0  0
   55.4090   24.3120   45.0300 C   0  0  0  0  0  0  0  0  0  0  0  0
   54.8260   25.0920   45.9790 F   0  0  0  0  0  0  0  0  0  0  0  0
  1  2  1  0
  2  3  2  0
  3  4  1  0
  4  5  1  0
  5  6  1  0
  5  7  2  0
  7  8  1  0
  7  9  1  0
  9 10  1  0
 10 11  2  0
 11 12  1  0
 11 13  1  0
 13 14  1  0
 13 15  2  0
 15 16  1  0
 16 17  2  0
 16 18  1  0
 18 19  1  0
 19 20  1  0
 19 21  1  0
 19 22  1  0
 22 23  1  0
 22 24  1  0
 22 25  1  0
 25 26  1  1
 26 27  1  0
 26 28  1  0
 26 29  1  0
 25 30  1  0
 30 31  2  0
 31 32  1  0
 31 33  1  0
 33 34  1  0
 33 35  2  0
 35 36  1  0
 35 37  1  0
 37 38  1  0
 38 39  1  0
 37 40  2  0
 40 41  1  0
 41 42  1  0
 41 43  1  0
 41 44  1  0
 44 45  1  0
 44 46  1  0
 44 47  1  0
 47 48  1  6
 15 49  1  0
 49 50  1  0
 49 51  2  0
 51 52  1  0
  9 53  2  0
 53 54  1  0
 53  3  1  0
 51 10  1  0
 47 18  1  0
 47 25  1  0
 40 30  1  0
M  CHG  1   4  -1
M  END
>  <UniqueID>  (26) 
22

>  <SMILES>  (26) 
[H]/N=c1\[n-]ccc(-c2ccc(C(=O)N3CC[C@]4(C)c5cccc(O)c5CC[C@H]34)cc2)c1F

>  <Energy>  (26) 
83.3950259875891

>  <Genealogy>  (26) 
CC12CCN(C(=O)c3ccc(-c4cc[n-]c(=N)c4F)cc3)C1CCc1c(O)cccc12 (protonated)
C[C@]12CCN(C(=O)c3ccc(-c4cc[n-]c(=N)c4F)cc3)[C@H]1CCc1c(O)cccc12 (chirality)
[H]/N=c1\[n-]ccc(-c2ccc(C(=O)N3CC[C@]4(C)c5cccc(O)c5CC[C@H]34)cc2)c1F (cis-trans isomerization)
[H]/N=c1\[n-]ccc(-c2ccc(C(=O)N3CC[C@]4(C)c5cccc(O)c5CC[C@H]34)cc2)c1F (3D coordinates assigned)
[H]/N=c1\[n-]ccc(-c2ccc(C(=O)N3CC[C@]4(C)c5cccc(O)c5CC[C@H]34)cc2)c1F (nonaromatic ring conformer: 83.3950259875891 kcal/mol)

>  <smiles>  (26) 
CC12CCN(C(=O)c3ccc(-c4cc[nH]c(=N)c4F)cc3)C1CCc1c(O)cccc12

>  <score_type>  (26) 
oracle

>  <origin>  (26) 
adg

>  <m_score__min__energy>  (26) 
-10.43

>  <m_primary>  (26) 
energy

$$$$
26:0
     RDKit          3D

 59 62  0  0  0  0  0  0  0  0999 V2000
   55.2860   25.0040   47.1270 H   0  0  0  0  0  0  0  0  0  0  0  0
   56.2350   25.3390   47.2260 O   0  0  0  0  0  0  0  0  0  0  0  0
   56.9270   25.9470   46.1770 C   0  0  0  0  0  0  0  0  0  0  0  0
   56.9530   25.5370   44.8600 C   0  0  0  0  0  0  0  0  0  0  0  0
   56.2590   24.3540   44.3080 C   0  0  0  0  0  0  0  0  0  0  0  0
   55.1680   23.9680   44.8090 O   0  0  0  0  0  0  0  0  0  0  0  0
   56.8300   23.6540   43.2390 O   0  0  0  0  0  0  0  0  0  0  0  0
   56.9930   22.2380   43.2190 C   0  0  0  0  0  0  0  0  0  0  0  0
   56.0491   21.7617   43.5226 H   0  0  0  0  0  0  0  0  0  0  0  0
   57.2666   21.9281   42.1996 H   0  0  0  0  0  0  0  0  0  0  0  0
   58.1000   21.8090   44.1750 C   0  0  0  0  0  0  0  0  0  0  0  0
   57.7598   21.9408   45.2127 H   0  0  0  0  0  0  0  0  0  0  0  0
   58.3450   20.7508   44.0011 H   0  0  0  0  0  0  0  0  0  0  0  0
   58.9941   22.4257   44.0011 H   0  0  0  0  0  0  0  0  0  0  0  0
   57.7310   26.4780   44.1870 C   0  0  0  0  0  0  0  0  0  0  0  0
   58.0120   26.4310   42.8730 C   0  0  0  0  0  0  0  0  0  0  0  0
   58.6349   27.2137   42.4154 H   0  0  0  0  0  0  0  0  0  0  0  0
   57.6190   25.6098   42.2556 H   0  0  0  0  0  0  0  0  0  0  0  0
   58.1700   27.4450   45.0540 N   0  0  0  0  0  0  0  0  0  0  0  0
   59.1100   28.5350   44.7300 C   0  0  0  0  0  0  0  0  0  0  0  0
   60.0475   28.3519   45.2755 H   0  0  0  0  0  0  0  0  0  0  0  0
   59.2342   28.5222   43.6371 H   0  0  0  0  0  0  0  0  0  0  0  0
   58.6180   29.9300   45.0890 C   0  0  0  0  0  0  0  0  0  0  0  0
   59.5720   30.8120   45.6360 C   0  0  0  0  0  0  0  0  0  0  0  0
   60.5738   30.4350   45.8896 H   0  0  0  0  0  0  0  0  0  0  0  0
   59.2680   32.1530   45.8610 C   0  0  0  0  0  0  0  0  0  0  0  0
   60.0265   32.8220   46.2936 H   0  0  0  0  0  0  0  0  0  0  0  0
   58.0070   32.6490   45.5400 C   0  0  0  0  0  0  0  0  0  0  0  0
   57.7711   33.7089   45.7160 H   0  0  0  0  0  0  0  0  0  0  0  0
   57.0450   31.8020   44.9960 C   0  0  0  0  0  0  0  0  0  0  0  0
   56.0469   32.1965   44.7546 H   0  0  0  0  0  0  0  0  0  0  0  0
   57.3350   30.4490   44.7520 C   0  0  0  0  0  0  0  0  0  0  0  0
   56.2840   29.6520   44.1150 C   0  0  0  0  0  0  0  0  0  0  0  0
   56.3850   29.3280   42.9030 O   0  0  0  0  0  0  0  0  0  0  0  0
   55.2260   29.1690   44.8740 O   0  0  0  0  0  0  0  0  0  0  0  0
   57.6760   27.1060   46.2840 C   0  0  0  0  0  0  0  0  0  0  0  0
   57.8100   27.7610   47.4590 C   0  0  0  0  0  0  0  0  0  0  0  0
   56.8769   27.9947   47.9925 H   0  0  0  0  0  0  0  0  0  0  0  0
   59.0510   28.1970   48.1070 C   0  0  0  0  0  0  0  0  0  0  0  0
   60.1180   27.1690   48.9200 S   0  0  0  0  0  0  0  0  0  0  0  0
   60.8510   28.4250   49.7590 C   0  0  0  0  0  0  0  0  0  0  0  0
   61.8040   28.2700   50.5690 O   0  0  0  0  0  0  0  0  0  0  0  0
   60.2670   29.6200   49.4980 N   0  0  0  0  0  0  0  0  0  0  0  0
   60.5850   30.8700   50.1970 C   0  0  0  0  0  0  0  0  0  0  0  0
   59.6722   31.2578   50.6728 H   0  0  0  0  0  0  0  0  0  0  0  0
   61.3562   30.6611   50.9530 H   0  0  0  0  0  0  0  0  0  0  0  0
   61.1180   31.9020   49.2440 C   0  0  0  0  0  0  0  0  0  0  0  0
   60.4780   33.1450   49.1170 C   0  0  0  0  0  0  0  0  0  0  0  0
   59.6041   33.3778   49.7431 H   0  0  0  0  0  0  0  0  0  0  0  0
   60.9470   34.0880   48.1980 C   0  0  0  0  0  0  0  0  0  0  0  0
   60.4375   35.0576   48.0970 H   0  0  0  0  0  0  0  0  0  0  0  0
   62.0620   33.8000   47.4080 C   0  0  0  0  0  0  0  0  0  0  0  0
   62.4284   34.5417   46.6830 H   0  0  0  0  0  0  0  0  0  0  0  0
   62.7120   32.5710   47.5380 C   0  0  0  0  0  0  0  0  0  0  0  0
   63.5903   32.3457   46.9152 H   0  0  0  0  0  0  0  0  0  0  0  0
   62.2480   31.6260   48.4590 C   0  0  0  0  0  0  0  0  0  0  0  0
   62.7702   30.6640   48.5682 H   0  0  0  0  0  0  0  0  0  0  0  0
   59.2560   29.4910   48.5900 C   0  0  0  0  0  0  0  0  0  0  0  0
   58.4560   30.5630   48.2080 O   0  0  0  0  0  0  0  0  0  0  0  0
  1  2  1  0
  2  3  1  0
  3  4  2  0
  4  5  1  0
  5  6  2  0
  5  7  1  0
  7  8  1  0
  8  9  1  0
  8 10  1  0
  8 11  1  0
 11 12  1  0
 11 13  1  0
 11 14  1  0
  4 15  1  0
 15 16  2  0
 16 17  1  0
 16 18  1  0
 15 19  1  0
 19 20  1  0
 20 21  1  0
 20 22  1  0
 20 23  1  0
 23 24  2  0
 24 25  1  0
 24 26  1  0
 26 27  1  0
 26 28  2  0
 28 29  1  0
 28 30  1  0
 30 31  1  0
 30 32  2  0
 32 33  1  0
 33 34  2  0
 33 35  1  0
 19 36  1  0
 36 37  2  0
 37 38  1  0
 37 39  1  0
 39 40  1  0
 40 41  1  0
 41 42  2  0
 41 43  1  0
 43 44  1  0
 44 45  1  0
 44 46  1  0
 44 47  1  0
 47 48  2  0
 48 49  1  0
 48 50  1  0
 50 51  1  0
 50 52  2  0
 52 53  1  0
 52 54  1  0
 54 55  1  0
 54 56  2  0
 56 57  1  0
 43 58  1  0
 58 59  1  0
 36  3  1  0
 58 39  2  0
 32 23  1  0
 56 47  1  0
M  CHG  2  35  -1  59  -1
M  END
>  <UniqueID>  (27) 
23

>  <SMILES>  (27) 
C=c1c(C(=O)OCC)c(O)/c(=C/c2sc(=O)n(Cc3ccccc3)c2[O-])n1Cc1ccccc1C(=O)[O-]

>  <Energy>  (27) 
148.1698984111182

>  <Genealogy>  (27) 
C=c1c(C(=O)OCC)c(O)c(=Cc2sc(=O)n(Cc3ccccc3)c2[O-])n1Cc1ccccc1C(=O)[O-] (protonated)
C=c1c(C(=O)OCC)c(O)/c(=C/c2sc(=O)n(Cc3ccccc3)c2[O-])n1Cc1ccccc1C(=O)[O-] (cis-trans isomerization)
C=c1c(C(=O)OCC)c(O)/c(=C/c2sc(=O)n(Cc3ccccc3)c2[O-])n1Cc1ccccc1C(=O)[O-] (3D coordinates assigned)
C=c1c(C(=O)OCC)c(O)/c(=C/c2sc(=O)n(Cc3ccccc3)c2[O-])n1Cc1ccccc1C(=O)[O-] (optimized conformer: 148.1698984111182 kcal/mol)

>  <smiles>  (27) 
C=c1c(C(=O)OCC)c(O)c(=Cc2sc(=O)n(Cc3ccccc3)c2O)n1Cc1ccccc1C(=O)O

>  <score_type>  (27) 
oracle

>  <origin>  (27) 
adg

>  <m_score__min__energy>  (27) 
-13.19

>  <m_primary>  (27) 
energy

$$$$
27:0
     RDKit          3D

 46 49  0  0  0  0  0  0  0  0999 V2000
   56.2530   21.7390   42.6210 N   0  0  0  0  0  0  0  0  0  0  0  0
   56.8410   22.0230   43.7460 C   0  0  0  0  0  0  0  0  0  0  0  0
   56.9630   23.3690   44.0710 C   0  0  0  0  0  0  0  0  0  0  0  0
   57.5720   23.7040   45.2420 C   0  0  0  0  0  0  0  0  0  0  0  0
   57.7960   25.0330   45.7020 N   0  0  0  0  0  0  0  0  0  0  0  0
   59.0560   25.6970   45.6570 C   0  0  0  0  0  0  0  0  0  0  0  0
   59.0890   27.1420   45.9280 C   0  0  0  0  0  0  0  0  0  0  0  0
   57.7680   27.8010   46.2510 C   0  0  0  0  0  0  0  0  0  0  0  0
   57.7210   29.2280   45.8580 C   0  0  0  0  0  0  0  0  0  0  0  0
   58.3880   30.2450   46.4550 N   0  0  0  0  0  0  0  0  0  0  0  0
   58.0910   31.3820   45.8210 C   0  0  0  0  0  0  0  0  0  0  0  0
   58.6010   32.7430   46.0610 C   0  0  0  0  0  0  0  0  0  0  0  0
   58.7280   33.6760   45.0660 C   0  0  0  0  0  0  0  0  0  0  0  0
   59.2350   34.9450   45.2550 C   0  0  0  0  0  0  0  0  0  0  0  0
   59.6490   35.3200   46.5290 C   0  0  0  0  0  0  0  0  0  0  0  0
   59.5330   34.4020   47.5600 C   0  0  0  0  0  0  0  0  0  0  0  0
   59.0160   33.1250   47.3440 C   0  0  0  0  0  0  0  0  0  0  0  0
   57.2300   31.0770   44.8200 C   0  0  0  0  0  0  0  0  0  0  0  0
   57.0070   29.7450   44.8500 N   0  0  0  0  0  0  0  0  0  0  0  0
   56.6600   27.0870   45.5620 C   0  0  0  0  0  0  0  0  0  0  0  0
   56.5930   25.7060   46.2280 C   0  0  0  0  0  0  0  0  0  0  0  0
   58.0360   22.7150   46.0430 N   0  0  0  0  0  0  0  0  0  0  0  0
   57.9170   21.4190   45.7260 C   0  0  0  0  0  0  0  0  0  0  0  0
   58.3730   20.5350   46.5160 N   0  0  0  0  0  0  0  0  0  0  0  0
   57.3150   21.0740   44.5700 N   0  0  0  0  0  0  0  0  0  0  0  0
   56.3640   22.4460   41.8520 H   0  0  0  0  0  0  0  0  0  0  0  0
   56.5758   24.1470   43.3966 H   0  0  0  0  0  0  0  0  0  0  0  0
   59.7076   25.2110   46.3981 H   0  0  0  0  0  0  0  0  0  0  0  0
   59.3738   25.6087   44.6076 H   0  0  0  0  0  0  0  0  0  0  0  0
   59.7613   27.3057   46.7831 H   0  0  0  0  0  0  0  0  0  0  0  0
   59.4217   27.6056   44.9875 H   0  0  0  0  0  0  0  0  0  0  0  0
   57.6550   27.7459   47.3438 H   0  0  0  0  0  0  0  0  0  0  0  0
   58.4054   33.3956   44.0524 H   0  0  0  0  0  0  0  0  0  0  0  0
   59.3106   35.6483   44.4126 H   0  0  0  0  0  0  0  0  0  0  0  0
   60.0596   36.3236   46.7138 H   0  0  0  0  0  0  0  0  0  0  0  0
   59.8561   34.6869   48.5722 H   0  0  0  0  0  0  0  0  0  0  0  0
   58.9338   32.4167   48.1816 H   0  0  0  0  0  0  0  0  0  0  0  0
   56.7895   31.7898   44.1073 H   0  0  0  0  0  0  0  0  0  0  0  0
   56.3660   29.2360   44.1710 H   0  0  0  0  0  0  0  0  0  0  0  0
   55.7110   27.6265   45.6971 H   0  0  0  0  0  0  0  0  0  0  0  0
   56.8316   27.0119   44.4781 H   0  0  0  0  0  0  0  0  0  0  0  0
   56.6338   25.7918   47.3239 H   0  0  0  0  0  0  0  0  0  0  0  0
   55.6606   25.1631   46.0139 H   0  0  0  0  0  0  0  0  0  0  0  0
   58.5080   22.9490   46.9550 H   0  0  0  0  0  0  0  0  0  0  0  0
   58.8980   19.6900   46.2690 H   0  0  0  0  0  0  0  0  0  0  0  0
   57.2230   20.0700   44.3310 H   0  0  0  0  0  0  0  0  0  0  0  0
  1  2  2  3
  2  3  1  0
  3  4  2  0
  4  5  1  0
  5  6  1  0
  6  7  1  0
  7  8  1  0
  8  9  1  0
  9 10  2  0
 10 11  1  0
 11 12  1  0
 12 13  2  0
 13 14  1  0
 14 15  2  0
 15 16  1  0
 16 17  2  0
 11 18  2  0
 18 19  1  0
  8 20  1  0
 20 21  1  0
  4 22  1  0
 22 23  1  0
 23 24  2  3
 23 25  1  0
 25  2  1  0
 21  5  1  0
 19  9  1  0
 17 12  1  0
  1 26  1  0
  3 27  1  0
  6 28  1  0
  6 29  1  0
  7 30  1  0
  7 31  1  0
  8 32  1  0
 13 33  1  0
 14 34  1  0
 15 35  1  0
 16 36  1  0
 17 37  1  0
 18 38  1  0
 19 39  1  0
 20 40  1  0
 20 41  1  0
 21 42  1  0
 21 43  1  0
 22 44  1  0
 24 45  1  0
 25 46  1  0
M  END
>  <smiles>  (28) 
N=c1cc(N2CCC(c3nc(-c4ccccc4)c[nH]3)CC2)[nH]c(=N)[nH]1

>  <score_type>  (28) 
oracle

>  <origin>  (28) 
adg

>  <m_score__min__energy>  (28) 
-8.7699999999999996

>  <m_primary>  (28) 
energy

$$$$
28:0
     RDKit          3D

 64 67  0  0  0  0  0  0  0  0999 V2000
   60.8414   27.9400   51.3064 H   0  0  0  0  0  0  0  0  0  0  0  0
   60.5970   27.8580   50.2370 C   0  0  0  0  0  0  0  0  0  0  0  0
   60.7260   26.7440   49.6620 O   0  0  0  0  0  0  0  0  0  0  0  0
   58.5760   29.6840   47.6420 C   0  0  0  0  0  0  0  0  0  0  0  0
   57.1770   31.6820   44.0300 C   0  0  0  0  0  0  0  0  0  0  0  0
   58.6435   30.0956   45.5906 H   0  0  0  0  0  0  0  0  0  0  0  0
   57.0090   32.7250   44.8720 C   0  0  0  0  0  0  0  0  0  0  0  0
   56.4876   33.6165   44.4933 H   0  0  0  0  0  0  0  0  0  0  0  0
   57.4850   32.7400   46.2750 C   0  0  0  0  0  0  0  0  0  0  0  0
   56.9669   33.3954   46.9905 H   0  0  0  0  0  0  0  0  0  0  0  0
   58.5110   32.0010   46.7240 C   0  0  0  0  0  0  0  0  0  0  0  0
   59.3487   32.5207   47.2121 H   0  0  0  0  0  0  0  0  0  0  0  0
   58.5820   30.5260   46.6010 C   0  0  0  0  0  0  0  0  0  0  0  0
   57.6085   29.4598   48.1149 H   0  0  0  0  0  0  0  0  0  0  0  0
   59.7830   29.0350   48.1990 C   0  0  0  0  0  0  0  0  0  0  0  0
   60.4448   28.4947   47.5061 H   0  0  0  0  0  0  0  0  0  0  0  0
   60.1230   29.0650   49.5080 C   0  0  0  0  0  0  0  0  0  0  0  0
   56.3990   30.4250   44.2060 C   0  0  0  0  0  0  0  0  0  0  0  0
   55.3094   30.4480   44.0569 H   0  0  0  0  0  0  0  0  0  0  0  0
   56.9690   29.2950   44.5320 C   0  0  0  0  0  0  0  0  0  0  0  0
   57.5100   28.1440   44.8240 C   0  0  0  0  0  0  0  0  0  0  0  0
   57.0970   26.8540   45.4590 C   0  0  0  0  0  0  0  0  0  0  0  0
   56.0400   26.1610   46.0160 C   0  0  0  0  0  0  0  0  0  0  0  0
   54.7690   26.7160   46.1180 O   0  0  0  0  0  0  0  0  0  0  0  0
   56.3290   24.8520   46.4760 C   0  0  0  0  0  0  0  0  0  0  0  0
   55.5284   24.2511   46.9321 H   0  0  0  0  0  0  0  0  0  0  0  0
   57.6440   24.2970   46.3580 C   0  0  0  0  0  0  0  0  0  0  0  0
   57.8840   23.0080   46.8170 O   0  0  0  0  0  0  0  0  0  0  0  0
   58.7070   25.0380   45.7810 C   0  0  0  0  0  0  0  0  0  0  0  0
   59.7230   24.6280   45.6827 H   0  0  0  0  0  0  0  0  0  0  0  0
   58.3800   26.3090   45.3510 C   0  0  0  0  0  0  0  0  0  0  0  0
   58.8230   27.5470   44.7350 C   0  0  0  0  0  0  0  0  0  0  0  0
   59.1771   27.4197   43.7014 H   0  0  0  0  0  0  0  0  0  0  0  0
   59.6802   28.0807   45.1712 H   0  0  0  0  0  0  0  0  0  0  0  0
   58.1720   31.7410   42.8990 C   0  0  0  0  0  0  0  0  0  0  0  0
   59.1907   31.8014   43.3096 H   0  0  0  0  0  0  0  0  0  0  0  0
   58.0788   30.8358   42.2811 H   0  0  0  0  0  0  0  0  0  0  0  0
   57.9725   32.6289   42.2811 H   0  0  0  0  0  0  0  0  0  0  0  0
   59.9710   30.3680   50.2820 C   0  0  2  0  0  0  0  0  0  0  0  0
   60.5156   30.2598   51.2316 H   0  0  0  0  0  0  0  0  0  0  0  0
   58.4970   30.6570   50.6170 C   0  0  0  0  0  0  0  0  0  0  0  0
   57.9127   30.6598   49.6850 H   0  0  0  0  0  0  0  0  0  0  0  0
   58.1390   29.8740   51.3016 H   0  0  0  0  0  0  0  0  0  0  0  0
   58.3370   31.9860   51.2970 C   0  0  0  0  0  0  0  0  0  0  0  0
   57.3630   32.1680   52.0720 O   0  0  0  0  0  0  0  0  0  0  0  0
   59.2800   33.0880   51.0350 C   0  0  0  0  0  0  0  0  0  0  0  0
   59.0260   34.2330   51.5020 O   0  0  0  0  0  0  0  0  0  0  0  0
   60.5920   32.8440   50.3160 C   0  0  2  0  0  0  0  0  0  0  0  0
   61.3563   32.7109   51.0958 H   0  0  0  0  0  0  0  0  0  0  0  0
   61.0160   34.0670   49.4600 C   0  0  1  0  0  0  0  0  0  0  0  0
   61.2343   34.8585   50.1920 H   0  0  0  0  0  0  0  0  0  0  0  0
   62.1430   33.7330   48.6490 O   0  0  0  0  0  0  0  0  0  0  0  0
   61.8840   33.9610   47.3150 C   0  0  0  0  0  0  0  0  0  0  0  0
   62.7030   33.7160   46.3920 O   0  0  0  0  0  0  0  0  0  0  0  0
   60.5470   34.4690   47.1370 C   0  0  0  0  0  0  0  0  0  0  0  0
   59.9730   34.7800   45.9780 C   0  0  0  0  0  0  0  0  0  0  0  0
   60.5323   34.6624   45.0382 H   0  0  0  0  0  0  0  0  0  0  0  0
   58.9390   35.1548   45.9594 H   0  0  0  0  0  0  0  0  0  0  0  0
   59.9110   34.5780   48.4820 C   0  0  0  0  0  0  0  0  0  0  0  0
   59.6425   35.6212   48.7050 H   0  0  0  0  0  0  0  0  0  0  0  0
   58.9766   34.0025   48.5583 H   0  0  0  0  0  0  0  0  0  0  0  0
   60.5790   31.5370   49.4870 C   0  0  0  0  0  0  0  0  0  0  0  0
   59.9831   31.6977   48.5765 H   0  0  0  0  0  0  0  0  0  0  0  0
   61.6183   31.2786   49.2357 H   0  0  0  0  0  0  0  0  0  0  0  0
  1  2  1  0
  2  3  2  0
  2  4  1  0
  4  5  2  0
  5  6  1  0
  5  7  1  0
  7  8  1  0
  7  9  2  3
  9 10  1  0
  9 11  1  0
 11 12  1  0
 11 13  2  0
 13 14  1  0
 13 15  1  0
 15 16  1  0
 15 17  2  0
 17 18  1  0
 18 19  1  0
 18 20  2  0
 20 21  2  0
 21 22  1  0
 22 23  2  0
 23 24  1  0
 23 25  1  0
 25 26  1  0
 25 27  2  0
 27 28  1  0
 27 29  1  0
 29 30  1  0
 29 31  2  0
 31 32  1  0
 32 33  1  0
 32 34  1  0
 17 35  1  0
 35 36  1  0
 35 37  1  0
 35 38  1  0
  4 39  1  0
 39 40  1  1
 39 41  1  0
 41 42  1  0
 41 43  1  0
 41 44  1  0
 44 45  2  0
 44 46  1  0
 46 47  2  0
 46 48  1  0
 48 49  1  1
 48 50  1  0
 50 51  1  1
 50 52  1  0
 52 53  1  0
 53 54  2  0
 53 55  1  0
 55 56  2  0
 56 57  1  0
 56 58  1  0
 55 59  1  0
 59 60  1  0
 59 61  1  0
 48 62  1  0
 62 63  1  0
 62 64  1  0
 32 21  1  0
 62 39  1  0
 31 22  1  0
 59 50  1  0
M  CHG  2  24  -1  28  -1
M  END
>  <UniqueID>  (29) 
24

>  <SMILES>  (29) 
C=C1C[C@@H]([C@@H]2CC(/C(C=O)=C/C=CC=C/C=C(\C)C=C=C3Cc4cc([O-])cc([O-])c43)CC(=O)C2=O)OC1=O

>  <Energy>  (29) 
112.45173812411062

>  <Genealogy>  (29) 
C=C1CC(C2CC(C(C=O)=CC=CC=CC=C(C)C=C=C3Cc4cc([O-])cc([O-])c43)CC(=O)C2=O)OC1=O (protonated)
C=C1C[C@@H]([C@@H]2CC(C(C=O)=CC=CC=CC=C(C)C=C=C3Cc4cc([O-])cc([O-])c43)CC(=O)C2=O)OC1=O (chirality)
C=C1C[C@@H]([C@@H]2CC(/C(C=O)=C/C=CC=C/C=C(\C)C=C=C3Cc4cc([O-])cc([O-])c43)CC(=O)C2=O)OC1=O (cis-trans isomerization)
C=C1C[C@@H]([C@@H]2CC(/C(C=O)=C/C=CC=C/C=C(\C)C=C=C3Cc4cc([O-])cc([O-])c43)CC(=O)C2=O)OC1=O (3D coordinates assigned)
C=C1C[C@@H]([C@@H]2CC(/C(C=O)=C/C=CC=C/C=C(\C)C=C=C3Cc4cc([O-])cc([O-])c43)CC(=O)C2=O)OC1=O (nonaromatic ring conformer: 112.45173812411062 kcal/mol)

>  <smiles>  (29) 
C=C1CC(C2CC(C(C=O)=CC=CC=CC=C(C)C=C=C3Cc4cc(O)cc(O)c43)CC(=O)C2=O)OC1=O

>  <score_type>  (29) 
oracle

>  <origin>  (29) 
adg

>  <m_score__min__energy>  (29) 
-16.629999999999999

>  <m_primary>  (29) 
energy

$$$$
29:0
     RDKit          3D

 43 45  0  0  0  0  0  0  0  0999 V2000
   63.9697   34.3349   45.5296 H   0  0  0  0  0  0  0  0  0  0  0  0
   63.4210   33.8510   46.3510 C   0  0  0  0  0  0  0  0  0  0  0  0
   63.9605   33.2332   47.0840 H   0  0  0  0  0  0  0  0  0  0  0  0
   62.1040   34.0130   46.4580 C   0  0  0  0  0  0  0  0  0  0  0  0
   61.5875   34.6355   45.7125 H   0  0  0  0  0  0  0  0  0  0  0  0
   61.3080   33.3930   47.5340 C   0  0  0  0  0  0  0  0  0  0  0  0
   61.6910   33.5370   48.7260 O   0  0  0  0  0  0  0  0  0  0  0  0
   60.1210   32.6290   47.2590 N   0  0  0  0  0  0  0  0  0  0  0  0
   59.0220   33.2240   46.4860 C   0  0  0  0  0  0  0  0  0  0  0  0
   58.2551   33.6032   47.1775 H   0  0  0  0  0  0  0  0  0  0  0  0
   59.4182   34.0488   45.8755 H   0  0  0  0  0  0  0  0  0  0  0  0
   58.3950   32.1730   45.5610 C   0  0  0  0  0  0  0  0  0  0  0  0
   57.4108   32.5338   45.2277 H   0  0  0  0  0  0  0  0  0  0  0  0
   59.0712   32.0227   44.7065 H   0  0  0  0  0  0  0  0  0  0  0  0
   58.2230   30.8810   46.2400 N   0  0  0  0  0  0  0  0  0  0  0  0
   57.5520   29.8130   45.5450 C   0  0  0  0  0  0  0  0  0  0  0  0
   56.5550   30.0790   44.8200 O   0  0  0  0  0  0  0  0  0  0  0  0
   58.0220   28.4120   45.6460 C   0  0  0  0  0  0  0  0  0  0  0  0
   59.2340   28.1090   46.2660 C   0  0  0  0  0  0  0  0  0  0  0  0
   59.8422   28.9146   46.7031 H   0  0  0  0  0  0  0  0  0  0  0  0
   59.6650   26.8270   46.3320 N   0  0  0  0  0  0  0  0  0  0  0  0
   58.9690   25.7780   45.8120 C   0  0  0  0  0  0  0  0  0  0  0  0
   59.5000   24.5590   45.9940 C   0  0  0  0  0  0  0  0  0  0  0  0
   58.9863   23.6706   45.5980 H   0  0  0  0  0  0  0  0  0  0  0  0
   60.4490   24.4483   46.5391 H   0  0  0  0  0  0  0  0  0  0  0  0
   57.7250   26.0250   45.1460 C   0  0  0  0  0  0  0  0  0  0  0  0
   57.0040   25.0360   44.5530 C   0  0  0  0  0  0  0  0  0  0  0  0
   57.4854   24.4798   43.7351 H   0  0  0  0  0  0  0  0  0  0  0  0
   55.6270   24.6490   44.9190 C   0  0  0  0  0  0  0  0  0  0  0  0
   55.1380   23.4070   44.7520 N   0  0  0  0  0  0  0  0  0  0  0  0
   53.9110   23.4750   45.3110 C   0  0  0  0  0  0  0  0  0  0  0  0
   53.1230   22.4940   45.3390 O   0  0  0  0  0  0  0  0  0  0  0  0
   53.5980   24.6740   45.8490 N   0  0  0  0  0  0  0  0  0  0  0  0
   54.6990   25.4010   45.6050 C   0  0  0  0  0  0  0  0  0  0  0  0
   54.8650   26.7130   46.0340 O   0  0  0  0  0  0  0  0  0  0  0  0
   57.2850   27.3680   45.0730 C   0  0  0  0  0  0  0  0  0  0  0  0
   56.3425   27.5972   44.5543 H   0  0  0  0  0  0  0  0  0  0  0  0
   58.5410   30.7540   47.6690 C   0  0  0  0  0  0  0  0  0  0  0  0
   57.7824   31.2891   48.2590 H   0  0  0  0  0  0  0  0  0  0  0  0
   58.5463   29.6885   47.9423 H   0  0  0  0  0  0  0  0  0  0  0  0
   59.9230   31.3520   47.9590 C   0  0  0  0  0  0  0  0  0  0  0  0
   60.0183   31.5206   49.0418 H   0  0  0  0  0  0  0  0  0  0  0  0
   60.6848   30.6436   47.6016 H   0  0  0  0  0  0  0  0  0  0  0  0
  1  2  1  0
  2  3  1  0
  2  4  2  0
  4  5  1  0
  4  6  1  0
  6  7  2  0
  6  8  1  0
  8  9  1  0
  9 10  1  0
  9 11  1  0
  9 12  1  0
 12 13  1  0
 12 14  1  0
 12 15  1  0
 15 16  1  0
 16 17  2  0
 16 18  1  0
 18 19  1  0
 19 20  1  0
 19 21  2  0
 21 22  1  0
 22 23  2  0
 23 24  1  0
 23 25  1  0
 22 26  1  0
 26 27  2  0
 27 28  1  0
 27 29  1  0
 29 30  1  0
 30 31  1  0
 31 32  2  0
 31 33  1  0
 33 34  1  0
 34 35  1  0
 26 36  1  0
 36 37  1  0
 15 38  1  0
 38 39  1  0
 38 40  1  0
 38 41  1  0
 41 42  1  0
 41 43  1  0
 41  8  1  0
 36 18  2  0
 34 29  2  0
M  CHG  3  30  -1  33  -1  35  -1
M  END
>  <UniqueID>  (30) 
25

>  <SMILES>  (30) 
C=CC(=O)N1CCN(C(=O)c2cnc(=C)/c(=C/c3[n-]c(=O)[n-]c3[O-])c2)CC1

>  <Energy>  (30) 
97.40039940112356

>  <Genealogy>  (30) 
C=CC(=O)N1CCN(C(=O)c2cnc(=C)c(=Cc3[n-]c(=O)[n-]c3[O-])c2)CC1 (protonated)
C=CC(=O)N1CCN(C(=O)c2cnc(=C)/c(=C/c3[n-]c(=O)[n-]c3[O-])c2)CC1 (cis-trans isomerization)
C=CC(=O)N1CCN(C(=O)c2cnc(=C)/c(=C/c3[n-]c(=O)[n-]c3[O-])c2)CC1 (3D coordinates assigned)
C=CC(=O)N1CCN(C(=O)c2cnc(=C)/c(=C/c3[n-]c(=O)[n-]c3[O-])c2)CC1 (nonaromatic ring conformer: 97.40039940112356 kcal/mol)

>  <smiles>  (30) 
C=CC(=O)N1CCN(C(=O)c2cnc(=C)c(=Cc3[nH]c(=O)[nH]c3O)c2)CC1

>  <score_type>  (30) 
oracle

>  <origin>  (30) 
adg

>  <m_score__min__energy>  (30) 
-17.530000000000001

>  <m_primary>  (30) 
energy

$$$$
30:0
     RDKit          3D

 51 54  0  0  0  0  0  0  0  0999 V2000
   60.3117   25.9340   47.1782 H   0  0  0  0  0  0  0  0  0  0  0  0
   59.7290   26.6550   46.5860 C   0  0  0  0  0  0  0  0  0  0  0  0
   58.3360   26.5730   46.5650 C   0  0  0  0  0  0  0  0  0  0  0  0
   57.8211   25.7840   47.1328 H   0  0  0  0  0  0  0  0  0  0  0  0
   57.5960   27.4980   45.8190 C   0  0  0  0  0  0  0  0  0  0  0  0
   56.4979   27.4354   45.8046 H   0  0  0  0  0  0  0  0  0  0  0  0
   58.2490   28.5080   45.0870 C   0  0  0  0  0  0  0  0  0  0  0  0
   57.4450   29.4810   44.2660 C   0  0  0  0  0  0  0  0  0  0  0  0
   56.4072   29.1240   44.1917 H   0  0  0  0  0  0  0  0  0  0  0  0
   57.8873   29.5566   43.2617 H   0  0  0  0  0  0  0  0  0  0  0  0
   57.4590   30.8300   44.9100 C   0  0  0  0  0  0  0  0  0  0  0  0
   57.0880   31.9640   44.2750 N   0  0  0  0  0  0  0  0  0  0  0  0
   57.2920   32.9380   45.1420 N   0  0  0  0  0  0  0  0  0  0  0  0
   57.0190   34.3500   44.8840 C   0  0  0  0  0  0  0  0  0  0  0  0
   56.9157   34.8841   45.8400 H   0  0  0  0  0  0  0  0  0  0  0  0
   57.8497   34.7849   44.3089 H   0  0  0  0  0  0  0  0  0  0  0  0
   56.0861   34.4440   44.3089 H   0  0  0  0  0  0  0  0  0  0  0  0
   57.7850   32.3900   46.2660 C   0  0  0  0  0  0  0  0  0  0  0  0
   58.0840   33.0770   47.3250 N   0  0  0  0  0  0  0  0  0  0  0  0
   59.4210   34.1840   47.4310 S   0  0  0  0  0  0  0  0  0  0  0  0
   59.2700   34.9600   48.7110 O   0  0  0  0  0  0  0  0  0  0  0  0
   59.3930   35.1490   46.2770 O   0  0  0  0  0  0  0  0  0  0  0  0
   60.9500   33.2900   47.4140 C   0  0  0  0  0  0  0  0  0  0  0  0
   62.0700   33.8720   46.7900 C   0  0  0  0  0  0  0  0  0  0  0  0
   61.9802   34.8642   46.3237 H   0  0  0  0  0  0  0  0  0  0  0  0
   63.2960   33.1990   46.7580 C   0  0  0  0  0  0  0  0  0  0  0  0
   64.1622   33.6599   46.2607 H   0  0  0  0  0  0  0  0  0  0  0  0
   63.4230   31.9410   47.3570 C   0  0  0  0  0  0  0  0  0  0  0  0
   64.3881   31.4138   47.3311 H   0  0  0  0  0  0  0  0  0  0  0  0
   62.3230   31.3550   47.9880 C   0  0  0  0  0  0  0  0  0  0  0  0
   62.4264   30.3671   48.4606 H   0  0  0  0  0  0  0  0  0  0  0  0
   61.0840   32.0200   48.0230 C   0  0  0  0  0  0  0  0  0  0  0  0
   59.9770   31.3780   48.6780 N   0  0  0  0  0  0  0  0  0  0  0  0
   59.3890   32.0490   49.8520 C   0  0  0  0  0  0  0  0  0  0  0  0
   60.1858   32.2334   50.5876 H   0  0  0  0  0  0  0  0  0  0  0  0
   58.9315   32.9869   49.5040 H   0  0  0  0  0  0  0  0  0  0  0  0
   58.2860   31.2150   50.5210 C   0  0  0  0  0  0  0  0  0  0  0  0
   58.2004   31.5220   51.5738 H   0  0  0  0  0  0  0  0  0  0  0  0
   57.3500   31.3942   49.9716 H   0  0  0  0  0  0  0  0  0  0  0  0
   58.5550   29.8300   50.4730 O   0  0  0  0  0  0  0  0  0  0  0  0
   58.5310   29.4080   49.1210 C   0  0  0  0  0  0  0  0  0  0  0  0
   58.5524   28.3088   49.0837 H   0  0  0  0  0  0  0  0  0  0  0  0
   57.6130   29.7839   48.6456 H   0  0  0  0  0  0  0  0  0  0  0  0
   59.7430   29.9620   48.3690 C   0  0  0  0  0  0  0  0  0  0  0  0
   60.6339   29.3835   48.6546 H   0  0  0  0  0  0  0  0  0  0  0  0
   59.5442   29.8762   47.2905 H   0  0  0  0  0  0  0  0  0  0  0  0
   57.9140   31.0490   46.1650 N   0  0  0  0  0  0  0  0  0  0  0  0
   59.6530   28.5730   45.1000 C   0  0  0  0  0  0  0  0  0  0  0  0
   60.1735   29.3469   44.5168 H   0  0  0  0  0  0  0  0  0  0  0  0
   60.3880   27.6530   45.8550 C   0  0  0  0  0  0  0  0  0  0  0  0
   61.4862   27.7129   45.8751 H   0  0  0  0  0  0  0  0  0  0  0  0
  1  2  1  0
  2  3  2  0
  3  4  1  0
  3  5  1  0
  5  6  1  0
  5  7  2  0
  7  8  1  0
  8  9  1  0
  8 10  1  0
  8 11  1  0
 11 12  2  0
 12 13  1  0
 13 14  1  0
 14 15  1  0
 14 16  1  0
 14 17  1  0
 13 18  1  0
 18 19  2  0
 19 20  1  0
 20 21  2  0
 20 22  2  0
 20 23  1  0
 23 24  2  0
 24 25  1  0
 24 26  1  0
 26 27  1  0
 26 28  2  0
 28 29  1  0
 28 30  1  0
 30 31  1  0
 30 32  2  0
 32 33  1  0
 33 34  1  0
 34 35  1  0
 34 36  1  0
 34 37  1  0
 37 38  1  0
 37 39  1  0
 37 40  1  0
 40 41  1  0
 41 42  1  0
 41 43  1  0
 41 44  1  0
 44 45  1  0
 44 46  1  0
 18 47  1  0
  7 48  1  0
 48 49  1  0
 48 50  2  0
 50 51  1  0
 50  2  1  0
 47 11  1  0
 32 23  1  0
 44 33  1  0
M  CHG  1  47  -1
M  END
>  <UniqueID>  (31) 
26

>  <SMILES>  (31) 
Cn1nc(Cc2ccccc2)[n-]/c1=N\S(=O)(=O)c1ccccc1N1CCOCC1

>  <Energy>  (31) 
98.42906822985172

>  <Genealogy>  (31) 
Cn1nc(Cc2ccccc2)[n-]c1=NS(=O)(=O)c1ccccc1N1CCOCC1 (protonated)
Cn1nc(Cc2ccccc2)[n-]/c1=N\S(=O)(=O)c1ccccc1N1CCOCC1 (cis-trans isomerization)
Cn1nc(Cc2ccccc2)[n-]/c1=N\S(=O)(=O)c1ccccc1N1CCOCC1 (3D coordinates assigned)
Cn1nc(Cc2ccccc2)[n-]/c1=N\S(=O)(=O)c1ccccc1N1CCOCC1 (nonaromatic ring conformer: 98.42906822985172 kcal/mol)

>  <smiles>  (31) 
Cn1nc(Cc2ccccc2)[nH]c1=NS(=O)(=O)c1ccccc1N1CCOCC1

>  <score_type>  (31) 
oracle

>  <origin>  (31) 
adg

>  <m_score__min__energy>  (31) 
-10.4

>  <m_primary>  (31) 
energy

$$$$
31:0
     RDKit          3D

 49 51  0  0  0  0  0  0  0  0999 V2000
   59.4110   26.2210   46.8290 C   0  0  0  0  0  0  0  0  0  0  0  0
   57.9400   26.1070   46.5380 C   0  0  0  0  0  0  0  0  0  0  0  0
   57.2570   24.9060   46.7710 C   0  0  0  0  0  0  0  0  0  0  0  0
   55.9310   24.8110   46.4940 N   0  0  0  0  0  0  0  0  0  0  0  0
   55.2450   25.8680   45.9900 C   0  0  0  0  0  0  0  0  0  0  0  0
   54.0170   25.7600   45.7430 O   0  0  0  0  0  0  0  0  0  0  0  0
   55.8850   27.0410   45.7480 N   0  0  0  0  0  0  0  0  0  0  0  0
   57.2120   27.1850   46.0000 C   0  0  0  0  0  0  0  0  0  0  0  0
   57.8480   28.4350   45.7140 N   0  0  0  0  0  0  0  0  0  0  0  0
   58.0360   28.8380   44.3150 C   0  0  0  0  0  0  0  0  0  0  0  0
   59.0180   30.0130   44.1950 C   0  0  0  0  0  0  0  0  0  0  0  0
   58.6850   31.1810   45.1590 C   0  0  0  0  0  0  0  0  0  0  0  0
   57.7510   32.1700   44.5120 C   0  0  0  0  0  0  0  0  0  0  0  0
   57.6480   32.2130   43.2560 O   0  0  0  0  0  0  0  0  0  0  0  0
   56.9510   33.0270   45.3310 N   0  0  0  0  0  0  0  0  0  0  0  0
   57.4740   34.2060   46.0110 C   0  0  0  0  0  0  0  0  0  0  0  0
   58.8320   33.9080   46.5840 C   0  0  0  0  0  0  0  0  0  0  0  0
   58.9660   33.4420   47.9030 C   0  0  0  0  0  0  0  0  0  0  0  0
   60.2350   33.2010   48.4390 C   0  0  0  0  0  0  0  0  0  0  0  0
   61.3820   33.4200   47.6630 C   0  0  0  0  0  0  0  0  0  0  0  0
   62.9860   33.1280   48.3300 S   0  0  0  0  0  0  0  0  0  0  0  0
   64.1440   33.0530   47.0500 N   0  0  0  0  0  0  0  0  0  0  0  0
   62.9840   31.8280   49.0840 O   0  0  0  0  0  0  0  0  0  0  0  0
   63.3640   34.2340   49.2760 O   0  0  0  0  0  0  0  0  0  0  0  0
   61.2510   33.8980   46.3530 C   0  0  0  0  0  0  0  0  0  0  0  0
   59.9850   34.1440   45.8180 C   0  0  0  0  0  0  0  0  0  0  0  0
   58.1230   30.7210   46.5310 C   0  0  0  0  0  0  0  0  0  0  0  0
   58.3990   29.2430   46.8060 C   0  0  0  0  0  0  0  0  0  0  0  0
   59.5696   26.2333   47.9174 H   0  0  0  0  0  0  0  0  0  0  0  0
   59.9391   25.3611   46.3912 H   0  0  0  0  0  0  0  0  0  0  0  0
   59.8003   27.1520   46.3912 H   0  0  0  0  0  0  0  0  0  0  0  0
   57.7960   24.0383   47.1791 H   0  0  0  0  0  0  0  0  0  0  0  0
   58.4306   27.9829   43.7466 H   0  0  0  0  0  0  0  0  0  0  0  0
   57.0631   29.1589   43.9144 H   0  0  0  0  0  0  0  0  0  0  0  0
   60.0306   29.6484   44.4226 H   0  0  0  0  0  0  0  0  0  0  0  0
   58.9428   30.4015   43.1686 H   0  0  0  0  0  0  0  0  0  0  0  0
   59.6461   31.6733   45.3687 H   0  0  0  0  0  0  0  0  0  0  0  0
   57.5555   35.0349   45.2925 H   0  0  0  0  0  0  0  0  0  0  0  0
   56.7909   34.4856   46.8266 H   0  0  0  0  0  0  0  0  0  0  0  0
   58.0697   33.2662   48.5159 H   0  0  0  0  0  0  0  0  0  0  0  0
   60.3336   32.8384   49.4728 H   0  0  0  0  0  0  0  0  0  0  0  0
   65.0360   33.4530   47.4170 H   0  0  0  0  0  0  0  0  0  0  0  0
   64.3240   32.0410   46.8580 H   0  0  0  0  0  0  0  0  0  0  0  0
   62.1485   34.0802   45.7436 H   0  0  0  0  0  0  0  0  0  0  0  0
   59.8903   34.5249   44.7904 H   0  0  0  0  0  0  0  0  0  0  0  0
   58.5916   31.3218   47.3244 H   0  0  0  0  0  0  0  0  0  0  0  0
   57.0321   30.8612   46.5114 H   0  0  0  0  0  0  0  0  0  0  0  0
   59.4845   29.0784   46.8731 H   0  0  0  0  0  0  0  0  0  0  0  0
   57.9261   28.9506   47.7551 H   0  0  0  0  0  0  0  0  0  0  0  0
  1  2  1  0
  2  3  2  0
  3  4  1  0
  4  5  1  0
  5  6  2  0
  5  7  1  0
  7  8  2  0
  8  9  1  0
  9 10  1  0
 10 11  1  0
 11 12  1  0
 12 13  1  0
 13 14  2  0
 13 15  1  0
 15 16  1  0
 16 17  1  0
 17 18  2  0
 18 19  1  0
 19 20  2  0
 20 21  1  0
 21 22  1  0
 21 23  2  0
 21 24  2  0
 20 25  1  0
 25 26  2  0
 12 27  1  0
 27 28  1  0
  8  2  1  0
 28  9  1  0
 26 17  1  0
  1 29  1  0
  1 30  1  0
  1 31  1  0
  3 32  1  0
 10 33  1  0
 10 34  1  0
 11 35  1  0
 11 36  1  0
 12 37  1  0
 16 38  1  0
 16 39  1  0
 18 40  1  0
 19 41  1  0
 22 42  1  0
 22 43  1  0
 25 44  1  0
 26 45  1  0
 27 46  1  0
 27 47  1  0
 28 48  1  0
 28 49  1  0
M  CHG  2   4  -1  15  -1
M  END
>  <UniqueID>  (32) 
27

>  <SMILES>  (32) 
Cc1c[n-]c(=O)nc1N1CCC(C(=O)[N-]Cc2ccc(S(N)(=O)=O)cc2)CC1

>  <Energy>  (32) 
54.2201898678608

>  <Genealogy>  (32) 
Cc1c[n-]c(=O)nc1N1CCC(C(=O)[N-]Cc2ccc(S(N)(=O)=O)cc2)CC1 (protonated)
Cc1c[n-]c(=O)nc1N1CCC(C(=O)[N-]Cc2ccc(S(N)(=O)=O)cc2)CC1 (3D coordinates assigned)
Cc1c[n-]c(=O)nc1N1CCC(C(=O)[N-]Cc2ccc(S(N)(=O)=O)cc2)CC1 (nonaromatic ring conformer: 54.2201898678608 kcal/mol)

>  <smiles>  (32) 
Cc1c[nH]c(=O)nc1N1CCC(C(=O)NCc2ccc(S(N)(=O)=O)cc2)CC1

>  <score_type>  (32) 
oracle

>  <origin>  (32) 
adg

>  <m_score__min__energy>  (32) 
-11.960000000000001

>  <m_primary>  (32) 
energy

$$$$
32:0
     RDKit          3D

 47 49  0  0  0  0  0  0  0  0999 V2000
   60.4230   28.5420   50.8480 C   0  0  0  0  0  0  0  0  0  0  0  0
   61.0250   28.9050   49.5240 C   0  0  0  0  0  0  0  0  0  0  0  0
   61.8190   29.8800   49.4600 O   0  0  0  0  0  0  0  0  0  0  0  0
   60.6950   28.1990   48.3190 N   0  0  0  0  0  0  0  0  0  0  0  0
   59.6810   28.5690   47.3770 C   0  0  0  0  0  0  0  0  0  0  0  0
   59.9460   29.5900   46.4560 C   0  0  0  0  0  0  0  0  0  0  0  0
   58.9700   29.9840   45.5360 C   0  0  0  0  0  0  0  0  0  0  0  0
   57.7240   29.3430   45.5140 C   0  0  0  0  0  0  0  0  0  0  0  0
   56.4520   29.9000   44.4310 S   0  0  0  0  0  0  0  0  0  0  0  0
   56.7390   29.4760   43.0170 O   0  0  0  0  0  0  0  0  0  0  0  0
   55.1440   29.3070   44.8710 O   0  0  0  0  0  0  0  0  0  0  0  0
   56.3440   31.6310   44.4880 N   0  0  0  0  0  0  0  0  0  0  0  0
   57.3420   32.4920   45.0510 C   0  0  0  0  0  0  0  0  0  0  0  0
   58.2580   33.1960   44.2480 C   0  0  0  0  0  0  0  0  0  0  0  0
   59.2680   33.9610   44.8370 C   0  0  0  0  0  0  0  0  0  0  0  0
   59.3770   34.0340   46.2360 C   0  0  0  0  0  0  0  0  0  0  0  0
   60.3940   34.7730   46.8570 O   0  0  0  0  0  0  0  0  0  0  0  0
   61.4580   34.2220   47.5870 C   0  0  0  0  0  0  0  0  0  0  0  0
   62.6480   33.8020   46.9650 C   0  0  0  0  0  0  0  0  0  0  0  0
   63.6810   33.2450   47.7240 C   0  0  0  0  0  0  0  0  0  0  0  0
   63.5400   33.0790   49.1120 C   0  0  0  0  0  0  0  0  0  0  0  0
   64.6480   32.4910   49.9040 C   0  0  0  0  0  0  0  0  0  0  0  0
   64.5180   31.2200   50.5450 N   0  0  0  0  0  0  0  0  0  0  0  0
   65.7400   33.1140   50.0050 O   0  0  0  0  0  0  0  0  0  0  0  0
   62.3430   33.4930   49.7270 C   0  0  0  0  0  0  0  0  0  0  0  0
   61.3110   34.0500   48.9650 C   0  0  0  0  0  0  0  0  0  0  0  0
   58.4280   33.3840   47.0320 C   0  0  0  0  0  0  0  0  0  0  0  0
   57.4190   32.6140   46.4430 C   0  0  0  0  0  0  0  0  0  0  0  0
   57.4780   28.2810   46.3940 C   0  0  0  0  0  0  0  0  0  0  0  0
   58.4500   27.8930   47.3190 C   0  0  0  0  0  0  0  0  0  0  0  0
   61.0602   28.9262   51.6582 H   0  0  0  0  0  0  0  0  0  0  0  0
   59.4198   28.9858   50.9287 H   0  0  0  0  0  0  0  0  0  0  0  0
   60.3473   27.4476   50.9287 H   0  0  0  0  0  0  0  0  0  0  0  0
   60.9283   30.0851   46.4565 H   0  0  0  0  0  0  0  0  0  0  0  0
   59.1805   30.7989   44.8278 H   0  0  0  0  0  0  0  0  0  0  0  0
   58.1787   33.1439   43.1521 H   0  0  0  0  0  0  0  0  0  0  0  0
   59.9808   34.5084   44.2028 H   0  0  0  0  0  0  0  0  0  0  0  0
   62.7659   33.9124   45.8769 H   0  0  0  0  0  0  0  0  0  0  0  0
   64.6132   32.9336   47.2300 H   0  0  0  0  0  0  0  0  0  0  0  0
   63.7030   30.5930   50.3660 H   0  0  0  0  0  0  0  0  0  0  0  0
   65.2930   30.8590   51.1450 H   0  0  0  0  0  0  0  0  0  0  0  0
   62.2187   33.3776   50.8138 H   0  0  0  0  0  0  0  0  0  0  0  0
   60.3750   34.3554   49.4556 H   0  0  0  0  0  0  0  0  0  0  0  0
   58.4752   33.4787   48.1269 H   0  0  0  0  0  0  0  0  0  0  0  0
   56.6816   32.1013   47.0781 H   0  0  0  0  0  0  0  0  0  0  0  0
   56.5152   27.7504   46.3563 H   0  0  0  0  0  0  0  0  0  0  0  0
   58.2515   27.0557   48.0043 H   0  0  0  0  0  0  0  0  0  0  0  0
  1  2  1  0
  2  3  2  0
  2  4  1  0
  4  5  1  0
  5  6  2  0
  6  7  1  0
  7  8  2  0
  8  9  1  0
  9 10  2  0
  9 11  2  0
  9 12  1  0
 12 13  1  0
 13 14  2  0
 14 15  1  0
 15 16  2  0
 16 17  1  0
 17 18  1  0
 18 19  2  0
 19 20  1  0
 20 21  2  0
 21 22  1  0
 22 23  1  0
 22 24  2  0
 21 25  1  0
 25 26  2  0
 16 27  1  0
 27 28  2  0
  8 29  1  0
 29 30  2  0
 30  5  1  0
 28 13  1  0
 26 18  1  0
  1 31  1  0
  1 32  1  0
  1 33  1  0
  6 34  1  0
  7 35  1  0
 14 36  1  0
 15 37  1  0
 19 38  1  0
 20 39  1  0
 23 40  1  0
 23 41  1  0
 25 42  1  0
 26 43  1  0
 27 44  1  0
 28 45  1  0
 29 46  1  0
 30 47  1  0
M  CHG  2   4  -1  12  -1
M  END
>  <UniqueID>  (33) 
28

>  <SMILES>  (33) 
CC(=O)[N-]c1ccc(S(=O)(=O)[N-]c2ccc(Oc3ccc(C(N)=O)cc3)cc2)cc1

>  <Energy>  (33) 
62.65325238007887

>  <Genealogy>  (33) 
CC(=O)[N-]c1ccc(S(=O)(=O)[N-]c2ccc(Oc3ccc(C(N)=O)cc3)cc2)cc1 (protonated)
CC(=O)[N-]c1ccc(S(=O)(=O)[N-]c2ccc(Oc3ccc(C(N)=O)cc3)cc2)cc1 (3D coordinates assigned)
CC(=O)[N-]c1ccc(S(=O)(=O)[N-]c2ccc(Oc3ccc(C(N)=O)cc3)cc2)cc1 (optimized conformer: 62.65325238007887 kcal/mol)

>  <smiles>  (33) 
CC(=O)Nc1ccc(S(=O)(=O)Nc2ccc(Oc3ccc(C(N)=O)cc3)cc2)cc1

>  <score_type>  (33) 
oracle

>  <origin>  (33) 
adg

>  <m_score__min__energy>  (33) 
-11.390000000000001

>  <m_primary>  (33) 
energy

$$$$
33:0
     RDKit          3D

 66 70  0  0  0  0  0  0  0  0999 V2000
   57.1270   32.7180   51.6100 N   0  0  0  0  0  0  0  0  0  0  0  0
   56.8620   31.4470   52.2900 C   0  0  0  0  0  0  0  0  0  0  0  0
   57.6090   30.2930   51.6970 C   0  0  0  0  0  0  0  0  0  0  0  0
   58.4910   30.0650   52.8600 N   0  0  0  0  0  0  0  0  0  0  0  0
   59.6400   29.2860   53.2040 C   0  0  0  0  0  0  0  0  0  0  0  0
   60.2510   29.5390   54.2760 O   0  0  0  0  0  0  0  0  0  0  0  0
   60.1520   28.2320   52.3050 C   0  0  0  0  0  0  0  0  0  0  0  0
   60.3600   26.9340   52.7990 C   0  0  0  0  0  0  0  0  0  0  0  0
   60.8600   25.9330   51.9640 C   0  0  0  0  0  0  0  0  0  0  0  0
   61.1350   26.2080   50.6240 C   0  0  0  0  0  0  0  0  0  0  0  0
   60.8850   27.4890   50.1000 C   0  0  0  0  0  0  0  0  0  0  0  0
   61.1390   27.8040   48.7230 N   0  0  0  0  0  0  0  0  0  0  0  0
   60.4900   27.2160   47.5870 C   0  0  0  0  0  0  0  0  0  0  0  0
   60.9010   26.1030   47.1650 O   0  0  0  0  0  0  0  0  0  0  0  0
   59.3880   27.9030   46.8720 C   0  0  0  0  0  0  0  0  0  0  0  0
   58.5870   27.2100   45.9510 C   0  0  0  0  0  0  0  0  0  0  0  0
   57.5640   27.8690   45.2640 C   0  0  0  0  0  0  0  0  0  0  0  0
   57.3110   29.2310   45.4990 C   0  0  0  0  0  0  0  0  0  0  0  0
   56.2460   29.9290   44.7390 C   0  0  0  0  0  0  0  0  0  0  0  0
   55.1590   29.3320   44.5110 O   0  0  0  0  0  0  0  0  0  0  0  0
   56.4310   31.2440   44.1990 N   0  0  0  0  0  0  0  0  0  0  0  0
   57.2880   32.2630   44.7320 C   0  0  0  0  0  0  0  0  0  0  0  0
   57.0360   32.7540   46.0180 C   0  0  0  0  0  0  0  0  0  0  0  0
   57.8660   33.7270   46.5810 C   0  0  0  0  0  0  0  0  0  0  0  0
   58.9850   34.2020   45.8750 C   0  0  0  0  0  0  0  0  0  0  0  0
   59.8860   35.2220   46.4660 C   0  0  0  0  0  0  0  0  0  0  0  0
   59.9550   36.3610   45.9350 O   0  0  0  0  0  0  0  0  0  0  0  0
   60.6650   34.9670   47.6430 N   0  0  0  0  0  0  0  0  0  0  0  0
   61.2340   33.7050   48.0250 C   0  0  0  0  0  0  0  0  0  0  0  0
   62.4010   33.2850   47.3740 C   0  0  0  0  0  0  0  0  0  0  0  0
   63.0540   32.1180   47.7710 C   0  0  0  0  0  0  0  0  0  0  0  0
   62.5430   31.3520   48.8180 C   0  0  0  0  0  0  0  0  0  0  0  0
   61.3590   31.7360   49.4520 C   0  0  0  0  0  0  0  0  0  0  0  0
   60.6750   32.8960   49.0490 C   0  0  0  0  0  0  0  0  0  0  0  0
   59.4030   33.2010   49.6440 N   0  0  0  0  0  0  0  0  0  0  0  0
   58.4190   32.4610   49.4380 O   0  0  0  0  0  0  0  0  0  0  0  0
   59.3070   34.1830   50.6020 O   0  0  0  0  0  0  0  0  0  0  0  0
   59.2360   33.7100   44.5830 C   0  0  0  0  0  0  0  0  0  0  0  0
   58.4010   32.7410   44.0200 C   0  0  0  0  0  0  0  0  0  0  0  0
   58.1090   29.9220   46.4260 C   0  0  0  0  0  0  0  0  0  0  0  0
   59.1290   29.2600   47.1160 C   0  0  0  0  0  0  0  0  0  0  0  0
   60.4140   28.4990   50.9500 C   0  0  0  0  0  0  0  0  0  0  0  0
   57.7560   31.1920   53.4660 C   0  0  0  0  0  0  0  0  0  0  0  0
   56.7580   32.6940   50.6290 H   0  0  0  0  0  0  0  0  0  0  0  0
   58.1640   32.8320   51.5420 H   0  0  0  0  0  0  0  0  0  0  0  0
   55.7657   31.5103   52.3549 H   0  0  0  0  0  0  0  0  0  0  0  0
   56.9592   29.4320   51.4814 H   0  0  0  0  0  0  0  0  0  0  0  0
   58.0947   30.4569   50.7237 H   0  0  0  0  0  0  0  0  0  0  0  0
   60.1277   26.7047   53.8495 H   0  0  0  0  0  0  0  0  0  0  0  0
   61.0378   24.9238   52.3640 H   0  0  0  0  0  0  0  0  0  0  0  0
   61.5483   25.4211   49.9759 H   0  0  0  0  0  0  0  0  0  0  0  0
   58.7659   26.1401   45.7686 H   0  0  0  0  0  0  0  0  0  0  0  0
   56.9527   27.3178   44.5343 H   0  0  0  0  0  0  0  0  0  0  0  0
   56.1780   32.3711   46.5900 H   0  0  0  0  0  0  0  0  0  0  0  0
   57.6425   34.1236   47.5824 H   0  0  0  0  0  0  0  0  0  0  0  0
   62.8060   33.8805   46.5426 H   0  0  0  0  0  0  0  0  0  0  0  0
   63.9737   31.8015   47.2572 H   0  0  0  0  0  0  0  0  0  0  0  0
   63.0725   30.4449   49.1449 H   0  0  0  0  0  0  0  0  0  0  0  0
   60.9582   31.1250   50.2742 H   0  0  0  0  0  0  0  0  0  0  0  0
   60.0953   34.0900   44.0110 H   0  0  0  0  0  0  0  0  0  0  0  0
   58.6162   32.3506   43.0144 H   0  0  0  0  0  0  0  0  0  0  0  0
   57.9300   30.9916   46.6103 H   0  0  0  0  0  0  0  0  0  0  0  0
   59.7326   29.8070   47.8553 H   0  0  0  0  0  0  0  0  0  0  0  0
   60.2476   29.5111   50.5526 H   0  0  0  0  0  0  0  0  0  0  0  0
   57.1985   30.8997   54.3681 H   0  0  0  0  0  0  0  0  0  0  0  0
   58.3525   32.0391   53.8357 H   0  0  0  0  0  0  0  0  0  0  0  0
  1  2  1  0
  2  3  1  0
  3  4  1  0
  4  5  1  0
  5  6  2  0
  5  7  1  0
  7  8  2  0
  8  9  1  0
  9 10  2  0
 10 11  1  0
 11 12  1  0
 12 13  1  0
 13 14  2  0
 13 15  1  0
 15 16  2  0
 16 17  1  0
 17 18  2  0
 18 19  1  0
 19 20  2  0
 19 21  1  0
 21 22  1  0
 22 23  2  0
 23 24  1  0
 24 25  2  0
 25 26  1  0
 26 27  2  0
 26 28  1  0
 28 29  1  0
 29 30  2  0
 30 31  1  0
 31 32  2  0
 32 33  1  0
 33 34  2  0
 34 35  1  0
 35 36  2  0
 35 37  1  0
 25 38  1  0
 38 39  2  0
 18 40  1  0
 40 41  2  0
 11 42  2  0
  4 43  1  0
 43  2  1  0
 42  7  1  0
 41 15  1  0
 39 22  1  0
 34 29  1  0
  1 44  1  0
  1 45  1  0
  2 46  1  0
  3 47  1  0
  3 48  1  0
  8 49  1  0
  9 50  1  0
 10 51  1  0
 16 52  1  0
 17 53  1  0
 23 54  1  0
 24 55  1  0
 30 56  1  0
 31 57  1  0
 32 58  1  0
 33 59  1  0
 38 60  1  0
 39 61  1  0
 40 62  1  0
 41 63  1  0
 42 64  1  0
 43 65  1  0
 43 66  1  0
M  CHG  5  12  -1  21  -1  28  -1  35   1  37  -1
M  END
>  <UniqueID>  (34) 
29

>  <SMILES>  (34) 
NC1CN(C(=O)c2cccc([N-]C(=O)c3ccc(C(=O)[N-]c4ccc(C(=O)[N-]c5ccccc5[N+](=O)[O-])cc4)cc3)c2)C1

>  <Energy>  (34) 
147.0942053186867

>  <Genealogy>  (34) 
NC1CN(C(=O)c2cccc([N-]C(=O)c3ccc(C(=O)[N-]c4ccc(C(=O)[N-]c5ccccc5[N+](=O)[O-])cc4)cc3)c2)C1 (protonated)
NC1CN(C(=O)c2cccc([N-]C(=O)c3ccc(C(=O)[N-]c4ccc(C(=O)[N-]c5ccccc5[N+](=O)[O-])cc4)cc3)c2)C1 (3D coordinates assigned)
NC1CN(C(=O)c2cccc([N-]C(=O)c3ccc(C(=O)[N-]c4ccc(C(=O)[N-]c5ccccc5[N+](=O)[O-])cc4)cc3)c2)C1 (nonaromatic ring conformer: 147.0942053186867 kcal/mol)

>  <smiles>  (34) 
NC1CN(C(=O)c2cccc(NC(=O)c3ccc(C(=O)Nc4ccc(C(=O)Nc5ccccc5[N+](=O)[O-])cc4)cc3)c2)C1

>  <score_type>  (34) 
oracle

>  <origin>  (34) 
adg

>  <m_score__min__energy>  (34) 
-15.16

>  <m_primary>  (34) 
energy

$$$$
34:0
     RDKit          3D

 38 40  0  0  0  0  0  0  0  0999 V2000
   56.9380   31.5840   42.3680 O   0  0  0  0  0  0  0  0  0  0  0  0
   56.9810   31.0420   43.5040 C   0  0  0  0  0  0  0  0  0  0  0  0
   56.6380   29.6550   43.6190 N   0  0  0  0  0  0  0  0  0  0  0  0
   55.9600   29.0380   44.7570 C   0  0  0  0  0  0  0  0  0  0  0  0
   56.8050   27.9360   45.3470 C   0  0  0  0  0  0  0  0  0  0  0  0
   58.2080   28.0260   45.3110 C   0  0  0  0  0  0  0  0  0  0  0  0
   58.9940   27.0170   45.8750 C   0  0  0  0  0  0  0  0  0  0  0  0
   58.3900   25.9120   46.4780 C   0  0  0  0  0  0  0  0  0  0  0  0
   56.9970   25.8120   46.5170 C   0  0  0  0  0  0  0  0  0  0  0  0
   56.2030   26.8170   45.9540 C   0  0  0  0  0  0  0  0  0  0  0  0
   54.8180   26.6980   46.0040 O   0  0  0  0  0  0  0  0  0  0  0  0
   57.3540   31.8590   44.6710 C   0  0  0  0  0  0  0  0  0  0  0  0
   57.9620   31.3770   45.8140 C   0  0  0  0  0  0  0  0  0  0  0  0
   58.0940   32.4610   46.6610 C   0  0  0  0  0  0  0  0  0  0  0  0
   58.6690   32.4380   48.0190 C   0  0  0  0  0  0  0  0  0  0  0  0
   57.9320   32.7000   49.0070 O   0  0  0  0  0  0  0  0  0  0  0  0
   60.1010   32.1640   48.2470 C   0  0  0  0  0  0  0  0  0  0  0  0
   60.4560   31.1030   49.0940 C   0  0  0  0  0  0  0  0  0  0  0  0
   61.7980   30.8190   49.3490 C   0  0  0  0  0  0  0  0  0  0  0  0
   62.8010   31.5840   48.7510 C   0  0  0  0  0  0  0  0  0  0  0  0
   62.4680   32.6300   47.8860 C   0  0  0  0  0  0  0  0  0  0  0  0
   63.7670   33.5500   47.1370 Cl  0  0  0  0  0  0  0  0  0  0  0  0
   61.1150   32.9240   47.6210 C   0  0  0  0  0  0  0  0  0  0  0  0
   60.7100   34.1930   46.4620 Cl  0  0  0  0  0  0  0  0  0  0  0  0
   57.5350   33.5480   46.0110 C   0  0  0  0  0  0  0  0  0  0  0  0
   57.0860   33.1730   44.8000 N   0  0  0  0  0  0  0  0  0  0  0  0
   55.7758   29.8029   45.5258 H   0  0  0  0  0  0  0  0  0  0  0  0
   55.0084   28.6078   44.4113 H   0  0  0  0  0  0  0  0  0  0  0  0
   58.6890   28.8943   44.8369 H   0  0  0  0  0  0  0  0  0  0  0  0
   60.0909   27.0937   45.8437 H   0  0  0  0  0  0  0  0  0  0  0  0
   59.0109   25.1202   46.9224 H   0  0  0  0  0  0  0  0  0  0  0  0
   56.5230   24.9403   46.9919 H   0  0  0  0  0  0  0  0  0  0  0  0
   58.2769   30.3414   46.0100 H   0  0  0  0  0  0  0  0  0  0  0  0
   59.6703   30.4906   49.5604 H   0  0  0  0  0  0  0  0  0  0  0  0
   62.0660   29.9913   50.0221 H   0  0  0  0  0  0  0  0  0  0  0  0
   63.8577   31.3626   48.9615 H   0  0  0  0  0  0  0  0  0  0  0  0
   57.4681   34.5657   46.4232 H   0  0  0  0  0  0  0  0  0  0  0  0
   56.5750   33.7830   44.1240 H   0  0  0  0  0  0  0  0  0  0  0  0
  1  2  2  0
  2  3  1  0
  3  4  1  0
  4  5  1  0
  5  6  2  0
  6  7  1  0
  7  8  2  0
  8  9  1  0
  9 10  2  0
 10 11  1  0
  2 12  1  0
 12 13  2  0
 13 14  1  0
 14 15  1  0
 15 16  2  0
 15 17  1  0
 17 18  2  0
 18 19  1  0
 19 20  2  0
 20 21  1  0
 21 22  1  0
 21 23  2  0
 23 24  1  0
 14 25  2  0
 25 26  1  0
 10  5  1  0
 26 12  1  0
 23 17  1  0
  4 27  1  0
  4 28  1  0
  6 29  1  0
  7 30  1  0
  8 31  1  0
  9 32  1  0
 13 33  1  0
 18 34  1  0
 19 35  1  0
 20 36  1  0
 25 37  1  0
 26 38  1  0
M  CHG  2   3  -1  11  -1
M  END
>  <UniqueID>  (35) 
30

>  <SMILES>  (35) 
O=C([N-]Cc1ccccc1[O-])c1cc(C(=O)c2cccc(Cl)c2Cl)c[nH]1

>  <Energy>  (35) 
75.19175078977322

>  <Genealogy>  (35) 
O=C([N-]Cc1ccccc1[O-])c1cc(C(=O)c2cccc(Cl)c2Cl)c[nH]1 (protonated)
O=C([N-]Cc1ccccc1[O-])c1cc(C(=O)c2cccc(Cl)c2Cl)c[nH]1 (3D coordinates assigned)
O=C([N-]Cc1ccccc1[O-])c1cc(C(=O)c2cccc(Cl)c2Cl)c[nH]1 (optimized conformer: 75.19175078977322 kcal/mol)

>  <smiles>  (35) 
O=C(NCc1ccccc1O)c1cc(C(=O)c2cccc(Cl)c2Cl)c[nH]1

>  <score_type>  (35) 
oracle

>  <origin>  (35) 
adg

>  <m_score__min__energy>  (35) 
-14.58

>  <m_primary>  (35) 
energy

$$$$
35:0
     RDKit          3D

 68 73  0  0  0  0  0  0  0  0999 V2000
   59.6000   26.6846   48.9414 H   0  0  0  0  0  0  0  0  0  0  0  0
   59.1310   26.6510   47.9470 C   0  0  0  0  0  0  0  0  0  0  0  0
   58.7029   25.7095   47.5723 H   0  0  0  0  0  0  0  0  0  0  0  0
   59.0810   27.7600   47.1900 C   0  0  0  0  0  0  0  0  0  0  0  0
   58.5170   27.8670   45.9080 C   0  0  0  0  0  0  0  0  0  0  0  0
   57.7080   27.0330   45.2270 C   0  0  0  0  0  0  0  0  0  0  0  0
   57.5178   27.2681   44.1694 H   0  0  0  0  0  0  0  0  0  0  0  0
   57.0560   25.8320   45.7790 C   0  0  0  0  0  0  0  0  0  0  0  0
   57.7060   24.7170   46.1630 N   0  0  0  0  0  0  0  0  0  0  0  0
   56.7370   23.9740   46.7390 C   0  0  0  0  0  0  0  0  0  0  0  0
   56.9540   22.8310   47.2170 O   0  0  0  0  0  0  0  0  0  0  0  0
   55.5200   24.5570   46.7710 N   0  0  0  0  0  0  0  0  0  0  0  0
   55.7450   25.7380   46.1720 C   0  0  0  0  0  0  0  0  0  0  0  0
   54.7710   26.7130   45.9970 O   0  0  0  0  0  0  0  0  0  0  0  0
   58.8990   29.1010   45.4170 C   0  0  0  0  0  0  0  0  0  0  0  0
   58.6824   29.5035   44.4164 H   0  0  0  0  0  0  0  0  0  0  0  0
   59.6030   29.7310   46.4200 C   0  0  0  0  0  0  0  0  0  0  0  0
   60.1170   31.1120   46.3300 C   0  0  0  0  0  0  0  0  0  0  0  0
   61.3550   31.3130   46.4450 O   0  0  0  0  0  0  0  0  0  0  0  0
   59.2330   32.2290   46.1250 N   0  0  0  0  0  0  0  0  0  0  0  0
   57.7990   32.1370   46.3520 C   0  0  0  0  0  0  0  0  0  0  0  0
   57.3261   31.5276   45.5677 H   0  0  0  0  0  0  0  0  0  0  0  0
   57.5735   31.6589   47.3167 H   0  0  0  0  0  0  0  0  0  0  0  0
   57.2740   33.5650   46.3010 C   0  0  0  0  0  0  0  0  0  0  0  0
   56.3609   33.6140   45.6896 H   0  0  0  0  0  0  0  0  0  0  0  0
   57.0170   33.9338   47.3050 H   0  0  0  0  0  0  0  0  0  0  0  0
   58.3810   34.4030   45.6670 C   0  0  0  0  0  0  0  0  0  0  0  0
   58.1632   34.5820   44.6037 H   0  0  0  0  0  0  0  0  0  0  0  0
   58.4695   35.3861   46.1524 H   0  0  0  0  0  0  0  0  0  0  0  0
   59.6680   33.5870   45.8160 C   0  0  1  0  0  0  0  0  0  0  0  0
   60.2763   33.6201   44.9001 H   0  0  0  0  0  0  0  0  0  0  0  0
   60.5420   34.1410   46.9130 C   0  0  0  0  0  0  0  0  0  0  0  0
   60.0670   35.0080   47.6990 O   0  0  0  0  0  0  0  0  0  0  0  0
   61.8840   33.6640   47.0950 N   0  0  0  0  0  0  0  0  0  0  0  0
   62.2730   32.9850   46.4010 H   0  0  0  0  0  0  0  0  0  0  0  0
   62.7130   34.0930   48.2260 C   0  0  1  0  0  0  0  0  0  0  0  0
   62.7007   35.1927   48.2054 H   0  0  0  0  0  0  0  0  0  0  0  0
   62.1980   33.5240   49.4980 C   0  0  0  0  0  0  0  0  0  0  0  0
   61.0000   33.8510   50.1410 C   0  0  0  0  0  0  0  0  0  0  0  0
   60.3229   34.6064   49.7156 H   0  0  0  0  0  0  0  0  0  0  0  0
   60.6790   33.1960   51.3400 C   0  0  0  0  0  0  0  0  0  0  0  0
   59.7433   33.4397   51.8645 H   0  0  0  0  0  0  0  0  0  0  0  0
   61.5500   32.2290   51.8730 C   0  0  0  0  0  0  0  0  0  0  0  0
   61.2944   31.7192   52.8136 H   0  0  0  0  0  0  0  0  0  0  0  0
   62.7440   31.9130   51.2080 C   0  0  0  0  0  0  0  0  0  0  0  0
   63.4273   31.1527   51.6143 H   0  0  0  0  0  0  0  0  0  0  0  0
   63.0490   32.5820   50.0200 C   0  0  0  0  0  0  0  0  0  0  0  0
   64.2550   32.3950   49.1820 C   0  0  0  0  0  0  0  0  0  0  0  0
   64.2526   31.4026   48.7074 H   0  0  0  0  0  0  0  0  0  0  0  0
   65.1886   32.4499   49.7612 H   0  0  0  0  0  0  0  0  0  0  0  0
   64.1430   33.5090   48.1250 C   0  0  0  0  0  0  0  0  0  0  0  0
   64.3104   33.0936   47.1203 H   0  0  0  0  0  0  0  0  0  0  0  0
   64.8973   34.2904   48.2995 H   0  0  0  0  0  0  0  0  0  0  0  0
   59.7090   28.9270   47.5070 N   0  0  0  0  0  0  0  0  0  0  0  0
   60.4220   29.2680   48.7500 C   0  0  0  0  0  0  0  0  0  0  0  0
   60.7751   28.3410   49.2253 H   0  0  0  0  0  0  0  0  0  0  0  0
   61.2675   29.9235   48.4941 H   0  0  0  0  0  0  0  0  0  0  0  0
   59.5270   30.0050   49.7170 C   0  0  0  0  0  0  0  0  0  0  0  0
   58.9040   31.2130   49.3540 C   0  0  0  0  0  0  0  0  0  0  0  0
   59.0868   31.6448   48.3590 H   0  0  0  0  0  0  0  0  0  0  0  0
   58.0540   31.8680   50.2500 C   0  0  0  0  0  0  0  0  0  0  0  0
   57.5836   32.8202   49.9637 H   0  0  0  0  0  0  0  0  0  0  0  0
   57.8010   31.3170   51.5060 C   0  0  0  0  0  0  0  0  0  0  0  0
   57.1329   31.8350   52.2098 H   0  0  0  0  0  0  0  0  0  0  0  0
   58.3970   30.1060   51.8700 C   0  0  0  0  0  0  0  0  0  0  0  0
   58.1938   29.6692   52.8589 H   0  0  0  0  0  0  0  0  0  0  0  0
   59.2500   29.4500   50.9800 C   0  0  0  0  0  0  0  0  0  0  0  0
   59.7086   28.4926   51.2683 H   0  0  0  0  0  0  0  0  0  0  0  0
  1  2  1  0
  2  3  1  0
  2  4  2  0
  4  5  1  0
  5  6  2  0
  6  7  1  0
  6  8  1  0
  8  9  1  0
  9 10  1  0
 10 11  2  0
 10 12  1  0
 12 13  1  0
 13 14  1  0
  5 15  1  0
 15 16  1  0
 15 17  2  0
 17 18  1  0
 18 19  2  0
 18 20  1  0
 20 21  1  0
 21 22  1  0
 21 23  1  0
 21 24  1  0
 24 25  1  0
 24 26  1  0
 24 27  1  0
 27 28  1  0
 27 29  1  0
 27 30  1  0
 30 31  1  6
 30 32  1  0
 32 33  2  0
 32 34  1  0
 34 35  1  0
 34 36  1  0
 36 37  1  1
 36 38  1  0
 38 39  2  0
 39 40  1  0
 39 41  1  0
 41 42  1  0
 41 43  2  0
 43 44  1  0
 43 45  1  0
 45 46  1  0
 45 47  2  0
 47 48  1  0
 48 49  1  0
 48 50  1  0
 48 51  1  0
 51 52  1  0
 51 53  1  0
 17 54  1  0
 54 55  1  0
 55 56  1  0
 55 57  1  0
 55 58  1  0
 58 59  2  0
 59 60  1  0
 59 61  1  0
 61 62  1  0
 61 63  2  0
 63 64  1  0
 63 65  1  0
 65 66  1  0
 65 67  2  0
 67 68  1  0
 54  4  1  0
 67 58  1  0
 13  8  2  0
 30 20  1  0
 51 36  1  0
 47 38  1  0
M  CHG  3   9  -1  12  -1  14  -1
M  END
>  <UniqueID>  (36) 
31

>  <SMILES>  (36) 
C=c1/c(=C\c2[n-]c(=O)[n-]c2[O-])cc(C(=O)N2CCC[C@H]2C(=O)N[C@@H]2CCc3ccccc32)n1Cc1ccccc1

>  <Energy>  (36) 
151.73219010426897

>  <Genealogy>  (36) 
C=c1c(=Cc2[n-]c(=O)[n-]c2[O-])cc(C(=O)N2CCCC2C(=O)NC2CCc3ccccc32)n1Cc1ccccc1 (protonated)
C=c1c(=Cc2[n-]c(=O)[n-]c2[O-])cc(C(=O)N2CCC[C@H]2C(=O)N[C@@H]2CCc3ccccc32)n1Cc1ccccc1 (chirality)
C=c1/c(=C\c2[n-]c(=O)[n-]c2[O-])cc(C(=O)N2CCC[C@H]2C(=O)N[C@@H]2CCc3ccccc32)n1Cc1ccccc1 (cis-trans isomerization)
C=c1/c(=C\c2[n-]c(=O)[n-]c2[O-])cc(C(=O)N2CCC[C@H]2C(=O)N[C@@H]2CCc3ccccc32)n1Cc1ccccc1 (3D coordinates assigned)
C=c1/c(=C\c2[n-]c(=O)[n-]c2[O-])cc(C(=O)N2CCC[C@H]2C(=O)N[C@@H]2CCc3ccccc32)n1Cc1ccccc1 (nonaromatic ring conformer: 151.73219010426897 kcal/mol)

>  <smiles>  (36) 
C=c1c(=Cc2[nH]c(=O)[nH]c2O)cc(C(=O)N2CCCC2C(=O)NC2CCc3ccccc32)n1Cc1ccccc1

>  <score_type>  (36) 
oracle

>  <origin>  (36) 
adg

>  <m_score__min__energy>  (36) 
-19.52

>  <m_primary>  (36) 
energy

$$$$
36:0
     RDKit          3D

 85 90  0  0  0  0  0  0  0  0999 V2000
   56.5360   26.5340   45.9440 C   0  0  0  0  0  0  0  0  0  0  0  0
   55.9030   27.7660   45.6110 O   0  0  0  0  0  0  0  0  0  0  0  0
   56.5740   28.9330   45.2050 C   0  0  0  0  0  0  0  0  0  0  0  0
   56.0470   29.7340   44.1780 C   0  0  0  0  0  0  0  0  0  0  0  0
   56.6860   30.9050   43.7950 C   0  0  0  0  0  0  0  0  0  0  0  0
   57.8620   31.3180   44.4260 C   0  0  0  0  0  0  0  0  0  0  0  0
   58.4700   32.6340   43.9990 C   0  0  0  0  0  0  0  0  0  0  0  0
   57.8050   33.7430   44.7150 N   0  0  0  0  0  0  0  0  0  0  0  0
   57.2350   33.3220   46.0230 C   0  0  0  0  0  0  0  0  0  0  0  0
   58.0340   33.8120   47.2470 C   0  0  0  0  0  0  0  0  0  0  0  0
   59.4640   33.9310   46.9280 N   0  0  0  0  0  0  0  0  0  0  0  0
   60.4680   33.4480   47.8480 C   0  0  0  0  0  0  0  0  0  0  0  0
   60.1260   33.1110   49.1680 C   0  0  0  0  0  0  0  0  0  0  0  0
   61.1040   32.6730   50.0670 C   0  0  0  0  0  0  0  0  0  0  0  0
   62.4410   32.5450   49.6570 C   0  0  0  0  0  0  0  0  0  0  0  0
   63.4960   32.0680   50.6220 C   0  0  0  0  0  0  0  0  0  0  0  0
   62.8930   31.2660   51.6880 N   0  0  0  0  0  0  0  0  0  0  0  0
   62.1820   30.0460   51.4320 C   0  0  0  0  0  0  0  0  0  0  0  0
   61.9970   29.6600   50.2470 O   0  0  0  0  0  0  0  0  0  0  0  0
   61.6650   29.2120   52.5300 C   0  0  0  0  0  0  0  0  0  0  0  0
   60.3780   28.7360   52.6990 C   0  0  0  0  0  0  0  0  0  0  0  0
   60.4550   28.0190   53.8800 C   0  0  0  0  0  0  0  0  0  0  0  0
   59.3740   27.2550   54.5220 C   0  0  0  0  0  0  0  0  0  0  0  0
   59.6500   26.1720   55.1050 O   0  0  0  0  0  0  0  0  0  0  0  0
   58.0140   27.7110   54.4850 N   0  0  0  0  0  0  0  0  0  0  0  0
   56.9410   26.7270   54.2570 C   0  0  0  0  0  0  0  0  0  0  0  0
   55.5430   27.3630   54.2790 C   0  0  0  0  0  0  0  0  0  0  0  0
   55.5310   28.6470   53.4970 C   0  0  0  0  0  0  0  0  0  0  0  0
   54.4380   28.9970   52.6870 C   0  0  0  0  0  0  0  0  0  0  0  0
   54.4380   30.2130   51.9940 C   0  0  0  0  0  0  0  0  0  0  0  0
   55.5190   31.0890   52.1230 C   0  0  0  0  0  0  0  0  0  0  0  0
   56.6010   30.7570   52.9440 C   0  0  0  0  0  0  0  0  0  0  0  0
   56.6160   29.5300   53.6250 C   0  0  0  0  0  0  0  0  0  0  0  0
   57.7540   29.1600   54.5370 C   0  0  0  0  0  0  0  0  0  0  0  0
   61.7140   28.0670   54.3580 N   0  0  0  0  0  0  0  0  0  0  0  0
   62.4060   28.7920   53.5290 O   0  0  0  0  0  0  0  0  0  0  0  0
   62.7790   32.8420   48.3290 C   0  0  0  0  0  0  0  0  0  0  0  0
   61.8050   33.2960   47.4350 C   0  0  0  0  0  0  0  0  0  0  0  0
   59.8600   34.6940   45.7370 C   0  0  0  0  0  0  0  0  0  0  0  0
   58.6580   34.9430   44.8170 C   0  0  0  0  0  0  0  0  0  0  0  0
   58.4260   30.5300   45.4520 C   0  0  0  0  0  0  0  0  0  0  0  0
   59.6180   31.0030   46.0410 O   0  0  0  0  0  0  0  0  0  0  0  0
   60.7790   30.2460   46.3660 C   0  0  0  0  0  0  0  0  0  0  0  0
   57.7890   29.3160   45.8380 C   0  0  0  0  0  0  0  0  0  0  0  0
   58.3900   28.5330   46.8430 O   0  0  0  0  0  0  0  0  0  0  0  0
   58.6090   28.8940   48.2070 C   0  0  0  0  0  0  0  0  0  0  0  0
   56.5881   26.4325   47.0381 H   0  0  0  0  0  0  0  0  0  0  0  0
   55.9555   25.6986   45.5255 H   0  0  0  0  0  0  0  0  0  0  0  0
   57.5532   26.5195   45.5255 H   0  0  0  0  0  0  0  0  0  0  0  0
   55.1186   29.4299   43.6724 H   0  0  0  0  0  0  0  0  0  0  0  0
   56.2612   31.5155   42.9845 H   0  0  0  0  0  0  0  0  0  0  0  0
   59.5438   32.6358   44.2378 H   0  0  0  0  0  0  0  0  0  0  0  0
   58.3335   32.7649   42.9154 H   0  0  0  0  0  0  0  0  0  0  0  0
   56.2118   33.7190   46.0974 H   0  0  0  0  0  0  0  0  0  0  0  0
   57.2678   32.2227   46.0432 H   0  0  0  0  0  0  0  0  0  0  0  0
   57.6512   34.7957   47.5564 H   0  0  0  0  0  0  0  0  0  0  0  0
   57.9154   33.0800   48.0595 H   0  0  0  0  0  0  0  0  0  0  0  0
   59.0797   33.1923   49.4977 H   0  0  0  0  0  0  0  0  0  0  0  0
   60.8240   32.4272   51.1020 H   0  0  0  0  0  0  0  0  0  0  0  0
   64.2313   31.4551   50.0801 H   0  0  0  0  0  0  0  0  0  0  0  0
   63.9881   32.9432   51.0712 H   0  0  0  0  0  0  0  0  0  0  0  0
   63.0690   31.5630   52.6740 H   0  0  0  0  0  0  0  0  0  0  0  0
   59.5030   28.8902   52.0504 H   0  0  0  0  0  0  0  0  0  0  0  0
   57.0982   26.2551   53.2759 H   0  0  0  0  0  0  0  0  0  0  0  0
   56.9852   25.9904   55.0727 H   0  0  0  0  0  0  0  0  0  0  0  0
   54.8206   26.6626   53.8344 H   0  0  0  0  0  0  0  0  0  0  0  0
   55.2703   27.5816   55.3220 H   0  0  0  0  0  0  0  0  0  0  0  0
   53.5804   28.3140   52.5972 H   0  0  0  0  0  0  0  0  0  0  0  0
   53.5879   30.4788   51.3485 H   0  0  0  0  0  0  0  0  0  0  0  0
   55.5187   32.0436   51.5765 H   0  0  0  0  0  0  0  0  0  0  0  0
   57.4412   31.4581   53.0562 H   0  0  0  0  0  0  0  0  0  0  0  0
   58.6589   29.7006   54.2226 H   0  0  0  0  0  0  0  0  0  0  0  0
   57.4841   29.4338   55.5676 H   0  0  0  0  0  0  0  0  0  0  0  0
   63.8174   32.7169   47.9884 H   0  0  0  0  0  0  0  0  0  0  0  0
   62.0860   33.5367   46.3991 H   0  0  0  0  0  0  0  0  0  0  0  0
   60.2777   35.6615   46.0524 H   0  0  0  0  0  0  0  0  0  0  0  0
   60.6105   34.1118   45.1822 H   0  0  0  0  0  0  0  0  0  0  0  0
   58.0617   35.7734   45.2230 H   0  0  0  0  0  0  0  0  0  0  0  0
   59.0336   35.1891   43.8128 H   0  0  0  0  0  0  0  0  0  0  0  0
   60.8797   30.1803   47.4594 H   0  0  0  0  0  0  0  0  0  0  0  0
   60.6867   29.2340   45.9449 H   0  0  0  0  0  0  0  0  0  0  0  0
   61.6677   30.7387   45.9449 H   0  0  0  0  0  0  0  0  0  0  0  0
   58.1514   28.1397   48.8639 H   0  0  0  0  0  0  0  0  0  0  0  0
   59.6901   28.9444   48.4039 H   0  0  0  0  0  0  0  0  0  0  0  0
   58.1543   29.8761   48.4039 H   0  0  0  0  0  0  0  0  0  0  0  0
  1  2  1  0
  2  3  1  0
  3  4  2  0
  4  5  1  0
  5  6  2  0
  6  7  1  0
  7  8  1  0
  8  9  1  0
  9 10  1  0
 10 11  1  0
 11 12  1  0
 12 13  2  0
 13 14  1  0
 14 15  2  0
 15 16  1  0
 16 17  1  0
 17 18  1  0
 18 19  2  0
 18 20  1  0
 20 21  2  0
 21 22  1  0
 22 23  1  0
 23 24  2  0
 23 25  1  0
 25 26  1  0
 26 27  1  0
 27 28  1  0
 28 29  2  0
 29 30  1  0
 30 31  2  0
 31 32  1  0
 32 33  2  0
 33 34  1  0
 22 35  2  0
 35 36  1  0
 15 37  1  0
 37 38  2  0
 11 39  1  0
 39 40  1  0
  6 41  1  0
 41 42  1  0
 42 43  1  0
 41 44  2  0
 44 45  1  0
 45 46  1  0
 44  3  1  0
 40  8  1  0
 38 12  1  0
 36 20  1  0
 34 25  1  0
 33 28  1  0
  1 47  1  0
  1 48  1  0
  1 49  1  0
  4 50  1  0
  5 51  1  0
  7 52  1  0
  7 53  1  0
  9 54  1  0
  9 55  1  0
 10 56  1  0
 10 57  1  0
 13 58  1  0
 14 59  1  0
 16 60  1  0
 16 61  1  0
 17 62  1  0
 21 63  1  0
 26 64  1  0
 26 65  1  0
 27 66  1  0
 27 67  1  0
 29 68  1  0
 30 69  1  0
 31 70  1  0
 32 71  1  0
 34 72  1  0
 34 73  1  0
 37 74  1  0
 38 75  1  0
 39 76  1  0
 39 77  1  0
 40 78  1  0
 40 79  1  0
 43 80  1  0
 43 81  1  0
 43 82  1  0
 46 83  1  0
 46 84  1  0
 46 85  1  0
M  END
>  <UniqueID>  (37) 
32

>  <SMILES>  (37) 
COc1ccc(CN2CCN(c3ccc(CNC(=O)c4cc(C(=O)N5CCc6ccccc6C5)no4)cc3)CC2)c(OC)c1OC

>  <Energy>  (37) 
145.06414292576346

>  <Genealogy>  (37) 
COc1ccc(CN2CCN(c3ccc(CNC(=O)c4cc(C(=O)N5CCc6ccccc6C5)no4)cc3)CC2)c(OC)c1OC (3D coordinates assigned)
COc1ccc(CN2CCN(c3ccc(CNC(=O)c4cc(C(=O)N5CCc6ccccc6C5)no4)cc3)CC2)c(OC)c1OC (nonaromatic ring conformer: 145.06414292576346 kcal/mol)

>  <smiles>  (37) 
COc1ccc(CN2CCN(c3ccc(CNC(=O)c4cc(C(=O)N5CCc6ccccc6C5)no4)cc3)CC2)c(OC)c1OC

>  <score_type>  (37) 
oracle

>  <origin>  (37) 
adg

>  <m_score__min__energy>  (37) 
-9.4100000000000001

>  <m_primary>  (37) 
energy

$$$$
37:0
     RDKit          3D

 45 48  0  0  0  0  0  0  0  0999 V2000
   58.6570   23.1540   45.6610 C   0  0  0  0  0  0  0  0  0  0  0  0
   58.3970   24.4400   45.4100 C   0  0  0  0  0  0  0  0  0  0  0  0
   59.2190   25.4250   45.8260 N   0  0  0  0  0  0  0  0  0  0  0  0
   58.8000   26.5720   45.2580 C   0  0  0  0  0  0  0  0  0  0  0  0
   59.4820   27.8680   45.4580 C   0  0  0  0  0  0  0  0  0  0  0  0
   59.7230   28.5900   44.4550 O   0  0  0  0  0  0  0  0  0  0  0  0
   59.8790   28.3330   46.7520 N   0  0  0  0  0  0  0  0  0  0  0  0
   60.3110   27.8000   48.0610 C   0  0  0  0  0  0  0  0  0  0  0  0
   60.5280   29.1240   48.7180 C   0  0  0  0  0  0  0  0  0  0  0  0
   60.0910   29.6520   47.3840 C   0  0  2  0  0  0  0  0  0  0  0  0
   58.7980   30.4850   47.4230 C   0  0  0  0  0  0  0  0  0  0  0  0
   57.7680   29.8890   46.5700 N   0  0  0  0  0  0  0  0  0  0  0  0
   57.4530   30.2010   45.3430 C   0  0  0  0  0  0  0  0  0  0  0  0
   58.2160   31.1370   44.7150 N   0  0  0  0  0  0  0  0  0  0  0  0
   57.9790   31.5420   43.4400 C   0  0  0  0  0  0  0  0  0  0  0  0
   56.9200   30.9940   42.7210 C   0  0  0  0  0  0  0  0  0  0  0  0
   56.1130   30.0300   43.3240 C   0  0  0  0  0  0  0  0  0  0  0  0
   56.3670   29.6210   44.6370 C   0  0  0  0  0  0  0  0  0  0  0  0
   55.5390   28.6570   45.1990 O   0  0  0  0  0  0  0  0  0  0  0  0
   57.6840   26.3300   44.4740 C   0  0  0  0  0  0  0  0  0  0  0  0
   57.3940   24.9790   44.5940 C   0  0  0  0  0  0  0  0  0  0  0  0
   56.3250   24.4050   44.0090 C   0  0  0  0  0  0  0  0  0  0  0  0
   55.0150   24.1890   44.6440 C   0  0  0  0  0  0  0  0  0  0  0  0
   54.3220   23.0360   44.6000 N   0  0  0  0  0  0  0  0  0  0  0  0
   53.2810   23.2660   45.4300 C   0  0  0  0  0  0  0  0  0  0  0  0
   52.3830   22.4100   45.6450 O   0  0  0  0  0  0  0  0  0  0  0  0
   53.2850   24.4800   46.0200 N   0  0  0  0  0  0  0  0  0  0  0  0
   54.3970   25.0450   45.5220 C   0  0  0  0  0  0  0  0  0  0  0  0
   54.8460   26.3160   45.8660 O   0  0  0  0  0  0  0  0  0  0  0  0
   57.9663   22.3741   45.3079 H   0  0  0  0  0  0  0  0  0  0  0  0
   59.5618   22.8749   46.2208 H   0  0  0  0  0  0  0  0  0  0  0  0
   60.0650   25.3110   46.4300 H   0  0  0  0  0  0  0  0  0  0  0  0
   59.5282   27.2057   48.5551 H   0  0  0  0  0  0  0  0  0  0  0  0
   61.1603   27.1010   48.0578 H   0  0  0  0  0  0  0  0  0  0  0  0
   59.8598   29.3515   49.5616 H   0  0  0  0  0  0  0  0  0  0  0  0
   61.4616   29.4167   49.2208 H   0  0  0  0  0  0  0  0  0  0  0  0
   60.7831   30.3548   46.8971 H   0  0  0  0  0  0  0  0  0  0  0  0
   58.4282   30.5281   48.4581 H   0  0  0  0  0  0  0  0  0  0  0  0
   59.0198   31.4967   47.0525 H   0  0  0  0  0  0  0  0  0  0  0  0
   58.6237   32.3028   42.9757 H   0  0  0  0  0  0  0  0  0  0  0  0
   56.7222   31.3180   41.6886 H   0  0  0  0  0  0  0  0  0  0  0  0
   55.2739   29.5898   42.7652 H   0  0  0  0  0  0  0  0  0  0  0  0
   57.1334   27.0677   43.8718 H   0  0  0  0  0  0  0  0  0  0  0  0
   56.4410   24.0691   42.9680 H   0  0  0  0  0  0  0  0  0  0  0  0
   54.7650   27.0850   45.2120 H   0  0  0  0  0  0  0  0  0  0  0  0
  1  2  2  0
  2  3  1  0
  3  4  1  0
  4  5  1  0
  5  6  2  0
  5  7  1  0
  7  8  1  0
  8  9  1  0
  9 10  1  0
 10 11  1  0
 11 12  1  0
 12 13  2  3
 13 14  1  0
 14 15  1  0
 15 16  2  0
 16 17  1  0
 17 18  2  0
 18 19  1  0
  4 20  2  0
 20 21  1  0
 21 22  2  3
 22 23  1  0
 23 24  1  0
 24 25  1  0
 25 26  2  0
 25 27  1  0
 27 28  1  0
 28 29  1  0
 21  2  1  0
 28 23  2  0
 10  7  1  0
 18 13  1  0
  1 30  1  0
  1 31  1  0
  3 32  1  0
  8 33  1  0
  8 34  1  0
  9 35  1  0
  9 36  1  0
 10 37  1  6
 11 38  1  0
 11 39  1  0
 15 40  1  0
 16 41  1  0
 17 42  1  0
 20 43  1  0
 22 44  1  0
 29 45  1  0
M  CHG  4  14  -1  19  -1  24  -1  27  -1
M  END
>  <UniqueID>  (38) 
33

>  <SMILES>  (38) 
C=c1[nH]c(C(=O)N2CC[C@@H]2CN=c2[n-]cccc2[O-])cc1=Cc1[n-]c(=O)[n-]c1O

>  <Energy>  (38) 
162.33092491242076

>  <Genealogy>  (38) 
C=c1[nH]c(C(=O)N2CCC2CN=c2[n-]cccc2[O-])cc1=Cc1[n-]c(=O)[n-]c1O (protonated)
C=c1[nH]c(C(=O)N2CC[C@@H]2CN=c2[n-]cccc2[O-])cc1=Cc1[n-]c(=O)[n-]c1O (chirality)
C=c1[nH]c(C(=O)N2CC[C@@H]2CN=c2[n-]cccc2[O-])cc1=Cc1[n-]c(=O)[n-]c1O (3D coordinates assigned)
C=c1[nH]c(C(=O)N2CC[C@@H]2CN=c2[n-]cccc2[O-])cc1=Cc1[n-]c(=O)[n-]c1O (nonaromatic ring conformer: 162.33092491242076 kcal/mol)

>  <smiles>  (38) 
C=c1[nH]c(C(=O)N2CCC2CN=c2[nH]cccc2O)cc1=Cc1[nH]c(=O)[nH]c1O

>  <score_type>  (38) 
oracle

>  <origin>  (38) 
adg

>  <m_score__min__energy>  (38) 
-16.75

>  <m_primary>  (38) 
energy

$$$$
38:0
     RDKit          3D

 49 53  0  0  0  0  0  0  0  0999 V2000
   57.2460   23.0760   46.8300 N   0  0  0  0  0  0  0  0  0  0  0  0
   57.4060   24.3530   46.7130 C   0  0  0  0  0  0  0  0  0  0  0  0
   58.6530   24.8930   46.7370 N   0  0  0  0  0  0  0  0  0  0  0  0
   58.8390   26.2330   46.6140 C   0  0  0  0  0  0  0  0  0  0  0  0
   57.7360   27.0880   46.4630 C   0  0  0  0  0  0  0  0  0  0  0  0
   57.9120   28.5570   46.3300 C   0  0  0  0  0  0  0  0  0  0  0  0
   57.4220   29.2350   45.2000 C   0  0  0  0  0  0  0  0  0  0  0  0
   57.5860   30.6170   45.0740 C   0  0  0  0  0  0  0  0  0  0  0  0
   58.2760   31.3510   46.0570 C   0  0  0  0  0  0  0  0  0  0  0  0
   58.3820   32.8670   45.9570 C   0  0  0  0  0  0  0  0  0  0  0  0
   59.2970   33.4070   47.0280 C   0  0  0  0  0  0  0  0  0  0  0  0
   59.0470   34.5320   47.7270 N   0  0  0  0  0  0  0  0  0  0  0  0
   60.1040   34.7120   48.4590 O   0  0  0  0  0  0  0  0  0  0  0  0
   60.9770   33.7630   48.2180 C   0  0  0  0  0  0  0  0  0  0  0  0
   62.2950   33.6610   48.8720 C   0  0  0  0  0  0  0  0  0  0  0  0
   62.4630   34.0680   50.2030 C   0  0  0  0  0  0  0  0  0  0  0  0
   63.7150   33.9690   50.8140 C   0  0  0  0  0  0  0  0  0  0  0  0
   64.8030   33.4600   50.0870 C   0  0  0  0  0  0  0  0  0  0  0  0
   66.1420   33.3420   50.7020 C   0  0  0  0  0  0  0  0  0  0  0  0
   67.2720   32.9430   49.9210 N   0  0  0  0  0  0  0  0  0  0  0  0
   66.3010   33.5920   51.9270 O   0  0  0  0  0  0  0  0  0  0  0  0
   64.6150   33.0720   48.7960 N   0  0  0  0  0  0  0  0  0  0  0  0
   63.4060   33.1580   48.1790 C   0  0  0  0  0  0  0  0  0  0  0  0
   60.5190   32.8980   47.2920 N   0  0  0  0  0  0  0  0  0  0  0  0
   57.0320   33.6080   45.8860 C   0  0  0  0  0  0  0  0  0  0  0  0
   57.3940   34.1610   44.5160 C   0  0  0  0  0  0  0  0  0  0  0  0
   58.7120   33.4020   44.5490 C   0  0  0  0  0  0  0  0  0  0  0  0
   58.7190   30.6780   47.2110 C   0  0  0  0  0  0  0  0  0  0  0  0
   58.5540   29.2960   47.3380 C   0  0  0  0  0  0  0  0  0  0  0  0
   56.4600   26.5040   46.4450 C   0  0  0  0  0  0  0  0  0  0  0  0
   56.3220   25.1580   46.5680 N   0  0  0  0  0  0  0  0  0  0  0  0
   57.7460   22.5270   47.5650 H   0  0  0  0  0  0  0  0  0  0  0  0
   59.8570   26.6493   46.6328 H   0  0  0  0  0  0  0  0  0  0  0  0
   56.9051   28.6728   44.4083 H   0  0  0  0  0  0  0  0  0  0  0  0
   57.1716   31.1366   44.1975 H   0  0  0  0  0  0  0  0  0  0  0  0
   61.6069   34.4662   50.7673 H   0  0  0  0  0  0  0  0  0  0  0  0
   63.8479   34.2878   51.8584 H   0  0  0  0  0  0  0  0  0  0  0  0
   68.2130   32.8640   50.3660 H   0  0  0  0  0  0  0  0  0  0  0  0
   67.1830   32.7280   48.9040 H   0  0  0  0  0  0  0  0  0  0  0  0
   63.2991   32.8323   47.1338 H   0  0  0  0  0  0  0  0  0  0  0  0
   56.1561   32.9426   45.8826 H   0  0  0  0  0  0  0  0  0  0  0  0
   56.7323   34.2896   46.6957 H   0  0  0  0  0  0  0  0  0  0  0  0
   56.7145   33.8439   43.7112 H   0  0  0  0  0  0  0  0  0  0  0  0
   57.3839   35.2462   44.3362 H   0  0  0  0  0  0  0  0  0  0  0  0
   58.7966   32.6188   43.7813 H   0  0  0  0  0  0  0  0  0  0  0  0
   59.6592   33.9306   44.3664 H   0  0  0  0  0  0  0  0  0  0  0  0
   59.2000   31.2455   48.0213 H   0  0  0  0  0  0  0  0  0  0  0  0
   58.9301   28.7823   48.2350 H   0  0  0  0  0  0  0  0  0  0  0  0
   55.5685   27.1382   46.3309 H   0  0  0  0  0  0  0  0  0  0  0  0
  1  2  2  3
  2  3  1  0
  3  4  2  0
  4  5  1  0
  5  6  1  0
  6  7  2  0
  7  8  1  0
  8  9  2  0
  9 10  1  0
 10 11  1  0
 11 12  2  0
 12 13  1  0
 13 14  1  0
 14 15  1  0
 15 16  2  0
 16 17  1  0
 17 18  2  0
 18 19  1  0
 19 20  1  0
 19 21  2  0
 18 22  1  0
 22 23  2  0
 14 24  2  0
 10 25  1  0
 25 26  1  0
 26 27  1  0
  9 28  1  0
 28 29  2  0
  5 30  2  0
 30 31  1  0
 31  2  1  0
 29  6  1  0
 27 10  1  0
 24 11  1  0
 23 15  1  0
  1 32  1  0
  4 33  1  0
  7 34  1  0
  8 35  1  0
 16 36  1  0
 17 37  1  0
 20 38  1  0
 20 39  1  0
 23 40  1  0
 25 41  1  0
 25 42  1  0
 26 43  1  0
 26 44  1  0
 27 45  1  0
 27 46  1  0
 28 47  1  0
 29 48  1  0
 30 49  1  0
M  CHG  1  31  -1
M  END
>  <UniqueID>  (39) 
34

>  <SMILES>  (39) 
N=c1ncc(-c2ccc(C3(c4noc(-c5ccc(C(N)=O)nc5)n4)CCC3)cc2)c[n-]1

>  <Energy>  (39) 
156.79819484712954

>  <Genealogy>  (39) 
N=c1ncc(-c2ccc(C3(c4noc(-c5ccc(C(N)=O)nc5)n4)CCC3)cc2)c[n-]1 (protonated)
N=c1ncc(-c2ccc(C3(c4noc(-c5ccc(C(N)=O)nc5)n4)CCC3)cc2)c[n-]1 (3D coordinates assigned)
N=c1ncc(-c2ccc(C3(c4noc(-c5ccc(C(N)=O)nc5)n4)CCC3)cc2)c[n-]1 (nonaromatic ring conformer: 156.79819484712954 kcal/mol)

>  <smiles>  (39) 
N=c1ncc(-c2ccc(C3(c4noc(-c5ccc(C(N)=O)nc5)n4)CCC3)cc2)c[nH]1

>  <score_type>  (39) 
oracle

>  <origin>  (39) 
adg

>  <m_score__min__energy>  (39) 
-10.1

>  <m_primary>  (39) 
energy

$$$$
39:0
     RDKit          3D

 58 61  0  0  0  0  0  0  0  0999 V2000
   57.5400   24.3660   47.6000 C   0  0  0  0  0  0  0  0  0  0  0  0
   57.8060   25.2310   46.6070 C   0  0  0  0  0  0  0  0  0  0  0  0
   57.4430   25.1030   45.2550 C   0  0  0  0  0  0  0  0  0  0  0  0
   56.6100   24.2420   44.6360 C   0  0  0  0  0  0  0  0  0  0  0  0
   55.1720   24.0920   44.9150 C   0  0  0  0  0  0  0  0  0  0  0  0
   54.4760   22.9510   44.7410 N   0  0  0  0  0  0  0  0  0  0  0  0
   53.2600   23.2470   45.2470 C   0  0  0  0  0  0  0  0  0  0  0  0
   52.3090   22.4210   45.2540 O   0  0  0  0  0  0  0  0  0  0  0  0
   53.1460   24.4930   45.7570 N   0  0  0  0  0  0  0  0  0  0  0  0
   54.3680   25.0110   45.5520 C   0  0  0  0  0  0  0  0  0  0  0  0
   54.7320   26.2990   45.9400 O   0  0  0  0  0  0  0  0  0  0  0  0
   58.1170   26.1060   44.5790 C   0  0  0  0  0  0  0  0  0  0  0  0
   58.7880   26.8500   45.5280 C   0  0  0  0  0  0  0  0  0  0  0  0
   59.5860   28.0510   45.2160 C   0  0  0  0  0  0  0  0  0  0  0  0
   60.2730   28.0520   44.1570 O   0  0  0  0  0  0  0  0  0  0  0  0
   59.5880   29.2120   46.0760 N   0  0  0  0  0  0  0  0  0  0  0  0
   60.7090   30.1640   45.9790 C   0  0  0  0  0  0  0  0  0  0  0  0
   60.4610   31.4390   46.7950 C   0  0  0  0  0  0  0  0  0  0  0  0
   59.9260   31.1100   48.1250 N   0  0  0  0  0  0  0  0  0  0  0  0
   60.3390   31.8440   49.2930 C   0  0  0  0  0  0  0  0  0  0  0  0
   60.4140   31.2510   50.4050 O   0  0  0  0  0  0  0  0  0  0  0  0
   60.6160   33.3250   49.2410 C   0  0  0  0  0  0  0  0  0  0  0  0
   59.3290   34.1310   49.0160 C   0  0  0  0  0  0  0  0  0  0  0  0
   58.9200   34.1290   47.5620 C   0  0  0  0  0  0  0  0  0  0  0  0
   59.6360   34.8880   46.6210 C   0  0  0  0  0  0  0  0  0  0  0  0
   59.2310   34.9170   45.2820 C   0  0  0  0  0  0  0  0  0  0  0  0
   58.1110   34.1860   44.8750 C   0  0  0  0  0  0  0  0  0  0  0  0
   57.3890   33.4350   45.8050 C   0  0  0  0  0  0  0  0  0  0  0  0
   57.7900   33.4070   47.1450 C   0  0  0  0  0  0  0  0  0  0  0  0
   58.8990   30.0690   48.2770 C   0  0  0  0  0  0  0  0  0  0  0  0
   58.4280   29.5420   46.9180 C   0  0  0  0  0  0  0  0  0  0  0  0
   58.6110   26.3140   46.7600 N   0  0  0  0  0  0  0  0  0  0  0  0
   59.2850   26.7300   47.9960 C   0  0  0  0  0  0  0  0  0  0  0  0
   57.8808   24.5818   48.6234 H   0  0  0  0  0  0  0  0  0  0  0  0
   56.9814   23.4420   47.3896 H   0  0  0  0  0  0  0  0  0  0  0  0
   57.0414   23.5969   43.8564 H   0  0  0  0  0  0  0  0  0  0  0  0
   54.3850   26.7070   46.8000 H   0  0  0  0  0  0  0  0  0  0  0  0
   58.1175   26.2772   43.4924 H   0  0  0  0  0  0  0  0  0  0  0  0
   61.6211   29.6761   46.3533 H   0  0  0  0  0  0  0  0  0  0  0  0
   60.8138   30.4547   44.9233 H   0  0  0  0  0  0  0  0  0  0  0  0
   61.4099   31.9829   46.9121 H   0  0  0  0  0  0  0  0  0  0  0  0
   59.7268   32.0618   46.2630 H   0  0  0  0  0  0  0  0  0  0  0  0
   61.0713   33.6370   50.1925 H   0  0  0  0  0  0  0  0  0  0  0  0
   61.2964   33.5193   48.3988 H   0  0  0  0  0  0  0  0  0  0  0  0
   58.5203   33.6872   49.6151 H   0  0  0  0  0  0  0  0  0  0  0  0
   59.5166   35.1715   49.3197 H   0  0  0  0  0  0  0  0  0  0  0  0
   60.5190   35.4620   46.9384 H   0  0  0  0  0  0  0  0  0  0  0  0
   59.7937   35.5148   44.5498 H   0  0  0  0  0  0  0  0  0  0  0  0
   57.7980   34.2024   43.8206 H   0  0  0  0  0  0  0  0  0  0  0  0
   56.5046   32.8652   45.4838 H   0  0  0  0  0  0  0  0  0  0  0  0
   57.2174   32.8166   47.8755 H   0  0  0  0  0  0  0  0  0  0  0  0
   59.3191   29.2346   48.8578 H   0  0  0  0  0  0  0  0  0  0  0  0
   58.0344   30.5103   48.7944 H   0  0  0  0  0  0  0  0  0  0  0  0
   57.8189   28.6386   47.0690 H   0  0  0  0  0  0  0  0  0  0  0  0
   57.8286   30.3174   46.4185 H   0  0  0  0  0  0  0  0  0  0  0  0
   58.7103   26.3753   48.8643 H   0  0  0  0  0  0  0  0  0  0  0  0
   60.2966   26.2989   48.0249 H   0  0  0  0  0  0  0  0  0  0  0  0
   59.3531   27.8275   48.0249 H   0  0  0  0  0  0  0  0  0  0  0  0
  1  2  2  0
  2  3  1  0
  3  4  2  3
  4  5  1  0
  5  6  1  0
  6  7  1  0
  7  8  2  0
  7  9  1  0
  9 10  1  0
 10 11  1  0
  3 12  1  0
 12 13  2  0
 13 14  1  0
 14 15  2  0
 14 16  1  0
 16 17  1  0
 17 18  1  0
 18 19  1  0
 19 20  1  0
 20 21  2  0
 20 22  1  0
 22 23  1  0
 23 24  1  0
 24 25  2  0
 25 26  1  0
 26 27  2  0
 27 28  1  0
 28 29  2  0
 19 30  1  0
 30 31  1  0
 13 32  1  0
 32 33  1  0
 32  2  1  0
 10  5  2  0
 31 16  1  0
 29 24  1  0
  1 34  1  0
  1 35  1  0
  4 36  1  0
 11 37  1  0
 12 38  1  0
 17 39  1  0
 17 40  1  0
 18 41  1  0
 18 42  1  0
 22 43  1  0
 22 44  1  0
 23 45  1  0
 23 46  1  0
 25 47  1  0
 26 48  1  0
 27 49  1  0
 28 50  1  0
 29 51  1  0
 30 52  1  0
 30 53  1  0
 31 54  1  0
 31 55  1  0
 33 56  1  0
 33 57  1  0
 33 58  1  0
M  CHG  2   6  -1   9  -1
M  END
>  <UniqueID>  (40) 
35

>  <SMILES>  (40) 
C=c1c(=Cc2[n-]c(=O)[n-]c2O)cc(C(=O)N2CCN(C(=O)CCc3ccccc3)CC2)n1C

>  <Energy>  (40) 
132.64043241666866

>  <Genealogy>  (40) 
C=c1c(=Cc2[n-]c(=O)[n-]c2O)cc(C(=O)N2CCN(C(=O)CCc3ccccc3)CC2)n1C (protonated)
C=c1c(=Cc2[n-]c(=O)[n-]c2O)cc(C(=O)N2CCN(C(=O)CCc3ccccc3)CC2)n1C (3D coordinates assigned)
C=c1c(=Cc2[n-]c(=O)[n-]c2O)cc(C(=O)N2CCN(C(=O)CCc3ccccc3)CC2)n1C (nonaromatic ring conformer: 132.64043241666866 kcal/mol)

>  <smiles>  (40) 
C=c1c(=Cc2[nH]c(=O)[nH]c2O)cc(C(=O)N2CCN(C(=O)CCc3ccccc3)CC2)n1C

>  <score_type>  (40) 
oracle

>  <origin>  (40) 
adg

>  <m_score__min__energy>  (40) 
-14.48

>  <m_primary>  (40) 
energy

$$$$
40:0
     RDKit          3D

 36 38  0  0  1  0  0  0  0  0999 V2000
   56.4440   21.1850   42.9290 N   0  0  0  0  0  0  0  0  0  0  0  0
   56.4950   22.3570   43.5070 C   0  0  0  0  0  0  0  0  0  0  0  0
   56.3680   22.5960   44.8240 N   0  0  0  0  0  0  0  0  0  0  0  0
   56.4730   23.9050   45.0570 C   0  0  0  0  0  0  0  0  0  0  0  0
   56.3620   24.6470   46.6770 S   0  0  0  0  0  0  0  0  0  0  0  0
   57.9370   25.4820   47.0450 C   0  0  0  0  0  0  0  0  0  0  0  0
   58.1290   26.6570   46.1630 C   0  0  0  0  0  0  0  0  0  0  0  0
   57.2850   27.0160   45.2550 N   0  0  0  0  0  0  0  0  0  0  0  0
   57.6570   27.8070   44.1370 C   0  0  0  0  0  0  0  0  0  0  0  0
   58.0120   27.2180   43.0960 O   0  0  0  0  0  0  0  0  0  0  0  0
   57.6460   29.2640   44.1440 C   0  0  0  0  0  0  0  0  0  0  0  0
   58.3380   29.9010   45.1620 C   0  0  0  0  0  0  0  0  0  0  0  0
   58.3430   31.2810   45.1890 C   0  0  0  0  0  0  0  0  0  0  0  0
   57.6850   32.0340   44.2410 C   0  0  0  0  0  0  0  0  0  0  0  0
   57.0220   31.3880   43.2650 N   0  0  0  0  0  0  0  0  0  0  0  0
   56.9910   30.0240   43.2000 C   0  0  0  0  0  0  0  0  0  0  0  0
   56.3570   29.4380   42.2670 O   0  0  0  0  0  0  0  0  0  0  0  0
   57.8530   33.4850   44.5080 C   0  0  0  0  0  0  0  0  0  0  0  0
   58.5920   33.5750   45.8000 C   0  0  0  0  0  0  0  0  0  0  0  0
   59.0010   32.1800   46.1630 C   0  0  0  0  0  0  0  0  0  0  0  0
   56.6680   24.5000   43.8680 N   0  0  0  0  0  0  0  0  0  0  0  0
   56.6840   23.5610   42.9140 N   0  0  0  0  0  0  0  0  0  0  0  0
   57.0650   20.4370   43.3240 H   0  0  0  0  0  0  0  0  0  0  0  0
   57.9321   25.8151   48.0933 H   0  0  0  0  0  0  0  0  0  0  0  0
   58.7603   24.7733   46.8719 H   0  0  0  0  0  0  0  0  0  0  0  0
   59.0422   27.2571   46.2892 H   0  0  0  0  0  0  0  0  0  0  0  0
   58.8704   29.3207   45.9300 H   0  0  0  0  0  0  0  0  0  0  0  0
   56.4940   31.8920   42.5020 H   0  0  0  0  0  0  0  0  0  0  0  0
   58.4317   33.9588   43.7014 H   0  0  0  0  0  0  0  0  0  0  0  0
   56.8841   34.0034   44.5577 H   0  0  0  0  0  0  0  0  0  0  0  0
   59.4811   34.2122   45.6841 H   0  0  0  0  0  0  0  0  0  0  0  0
   57.9618   34.0184   46.5850 H   0  0  0  0  0  0  0  0  0  0  0  0
   60.0941   32.0756   46.0979 H   0  0  0  0  0  0  0  0  0  0  0  0
   58.7045   31.9345   47.1935 H   0  0  0  0  0  0  0  0  0  0  0  0
   56.7860   25.5260   43.7350 H   0  0  0  0  0  0  0  0  0  0  0  0
   56.8150   23.7090   41.8890 H   0  0  0  0  0  0  0  0  0  0  0  0
  1  2  2  3
  2  3  1  0
  3  4  2  0
  4  5  1  0
  5  6  1  0
  6  7  1  0
  7  8  2  0
  8  9  1  0
  9 10  2  0
  9 11  1  0
 11 12  2  0
 12 13  1  0
 13 14  2  0
 14 15  1  0
 15 16  1  0
 16 17  2  0
 14 18  1  0
 18 19  1  0
 19 20  1  0
  4 21  1  0
 21 22  1  0
 22  2  1  0
 16 11  1  0
 20 13  1  0
  1 23  1  0
  6 24  1  0
  6 25  1  0
  7 26  1  0
 12 27  1  0
 15 28  1  0
 18 29  1  0
 18 30  1  0
 19 31  1  0
 19 32  1  0
 20 33  1  0
 20 34  1  0
 21 35  1  0
 22 36  1  0
M  END
>  <smiles>  (41) 
N=c1nc(SCC=NC(=O)c2cc3c([nH]c2=O)CCC3)[nH][nH]1

>  <score_type>  (41) 
oracle

>  <origin>  (41) 
adg

>  <m_score__min__energy>  (41) 
-8.3300000000000001

>  <m_primary>  (41) 
energy

$$$$
41:0
     RDKit          3D

 39 41  0  0  0  0  0  0  0  0999 V2000
   59.5970   28.1630   45.9410 C   0  0  0  0  0  0  0  0  0  0  0  0
   58.4010   28.9710   45.5240 C   0  0  0  0  0  0  0  0  0  0  0  0
   58.5220   30.2810   45.1130 C   0  0  0  0  0  0  0  0  0  0  0  0
   57.3620   30.9480   44.7470 C   0  0  0  0  0  0  0  0  0  0  0  0
   57.4120   32.3650   44.2930 C   0  0  0  0  0  0  0  0  0  0  0  0
   57.2650   33.2100   45.5390 C   0  0  0  0  0  0  0  0  0  0  0  0
   58.5580   33.7200   46.0620 C   0  0  0  0  0  0  0  0  0  0  0  0
   59.0000   34.7740   45.5570 O   0  0  0  0  0  0  0  0  0  0  0  0
   59.1880   32.9720   47.0890 N   0  0  0  0  0  0  0  0  0  0  0  0
   58.4300   32.2950   48.1250 C   0  0  0  0  0  0  0  0  0  0  0  0
   59.0300   30.9720   48.5210 C   0  0  0  0  0  0  0  0  0  0  0  0
   60.2620   30.6840   47.8970 O   0  0  0  0  0  0  0  0  0  0  0  0
   61.1710   31.6620   47.5250 C   0  0  0  0  0  0  0  0  0  0  0  0
   62.5380   31.4950   47.5600 C   0  0  0  0  0  0  0  0  0  0  0  0
   63.3090   32.5670   47.1570 C   0  0  0  0  0  0  0  0  0  0  0  0
   62.7610   33.7700   46.7330 C   0  0  0  0  0  0  0  0  0  0  0  0
   61.3850   33.9350   46.6990 C   0  0  0  0  0  0  0  0  0  0  0  0
   60.6100   32.8720   47.0970 C   0  0  0  0  0  0  0  0  0  0  0  0
   56.1900   30.2770   44.8160 N   0  0  0  0  0  0  0  0  0  0  0  0
   56.0810   29.0260   45.2090 N   0  0  0  0  0  0  0  0  0  0  0  0
   57.1800   28.3280   45.5770 C   0  0  0  0  0  0  0  0  0  0  0  0
   57.0620   26.7940   46.0610 S   0  0  0  0  0  0  0  0  0  0  0  0
   59.6504   28.1269   47.0391 H   0  0  0  0  0  0  0  0  0  0  0  0
   59.5054   27.1410   45.5446 H   0  0  0  0  0  0  0  0  0  0  0  0
   60.5109   28.6295   45.5446 H   0  0  0  0  0  0  0  0  0  0  0  0
   59.5021   30.7792   45.0765 H   0  0  0  0  0  0  0  0  0  0  0  0
   58.3732   32.5745   43.8008 H   0  0  0  0  0  0  0  0  0  0  0  0
   56.6171   32.5818   43.5642 H   0  0  0  0  0  0  0  0  0  0  0  0
   56.6208   34.0699   45.3031 H   0  0  0  0  0  0  0  0  0  0  0  0
   56.8308   32.5664   46.3183 H   0  0  0  0  0  0  0  0  0  0  0  0
   58.3928   32.9432   49.0129 H   0  0  0  0  0  0  0  0  0  0  0  0
   57.4264   32.0946   47.7218 H   0  0  0  0  0  0  0  0  0  0  0  0
   59.1880   30.9772   49.6096 H   0  0  0  0  0  0  0  0  0  0  0  0
   58.3226   30.1950   48.1958 H   0  0  0  0  0  0  0  0  0  0  0  0
   62.9941   30.5512   47.8936 H   0  0  0  0  0  0  0  0  0  0  0  0
   64.4040   32.4635   47.1725 H   0  0  0  0  0  0  0  0  0  0  0  0
   63.4203   34.5943   46.4233 H   0  0  0  0  0  0  0  0  0  0  0  0
   60.9310   34.8801   46.3664 H   0  0  0  0  0  0  0  0  0  0  0  0
   55.1510   28.5570   45.2420 H   0  0  0  0  0  0  0  0  0  0  0  0
  1  2  1  0
  2  3  2  0
  3  4  1  0
  4  5  1  0
  5  6  1  0
  6  7  1  0
  7  8  2  0
  7  9  1  0
  9 10  1  0
 10 11  1  0
 11 12  1  0
 12 13  1  0
 13 14  2  0
 14 15  1  0
 15 16  2  0
 16 17  1  0
 17 18  2  0
  4 19  2  0
 19 20  1  0
 20 21  1  0
 21 22  2  0
 21  2  1  0
 18  9  1  0
 18 13  1  0
  1 23  1  0
  1 24  1  0
  1 25  1  0
  3 26  1  0
  5 27  1  0
  5 28  1  0
  6 29  1  0
  6 30  1  0
 10 31  1  0
 10 32  1  0
 11 33  1  0
 11 34  1  0
 14 35  1  0
 15 36  1  0
 16 37  1  0
 17 38  1  0
 20 39  1  0
M  END
>  <smiles>  (42) 
Cc1cc(CCC(=O)N2CCOc3ccccc32)n[nH]c1=S

>  <score_type>  (42) 
oracle

>  <origin>  (42) 
adg

>  <m_score__min__energy>  (42) 
-8.3599999999999994

>  <m_primary>  (42) 
energy

$$$$
42:0
     RDKit          3D

 59 61  0  0  0  0  0  0  0  0999 V2000
   56.3112   31.4539   53.4829 H   0  0  0  0  0  0  0  0  0  0  0  0
   56.1550   30.6770   52.7200 C   0  0  0  0  0  0  0  0  0  0  0  0
   57.2530   30.3710   51.7750 C   0  0  0  0  0  0  0  0  0  0  0  0
   57.7770   29.2210   51.7610 O   0  0  0  0  0  0  0  0  0  0  0  0
   57.7220   31.3930   50.7740 C   0  0  0  0  0  0  0  0  0  0  0  0
   57.3382   32.3803   51.0707 H   0  0  0  0  0  0  0  0  0  0  0  0
   57.3425   31.0937   49.7858 H   0  0  0  0  0  0  0  0  0  0  0  0
   59.1440   31.4600   50.6920 O   0  0  0  0  0  0  0  0  0  0  0  0
   59.9890   30.3940   51.0200 C   0  0  0  0  0  0  0  0  0  0  0  0
   60.6370   30.4160   52.1040 O   0  0  0  0  0  0  0  0  0  0  0  0
   60.1520   29.2560   50.0850 C   0  0  0  0  0  0  0  0  0  0  0  0
   60.4870   27.9870   50.5910 C   0  0  0  0  0  0  0  0  0  0  0  0
   60.6082   27.8472   51.6753 H   0  0  0  0  0  0  0  0  0  0  0  0
   60.6670   26.9040   49.7300 C   0  0  0  0  0  0  0  0  0  0  0  0
   60.9334   25.9176   50.1374 H   0  0  0  0  0  0  0  0  0  0  0  0
   60.5100   27.0690   48.3540 C   0  0  0  0  0  0  0  0  0  0  0  0
   60.6569   26.2138   47.6780 H   0  0  0  0  0  0  0  0  0  0  0  0
   60.1670   28.3170   47.8340 C   0  0  0  0  0  0  0  0  0  0  0  0
   60.0476   28.4416   46.7476 H   0  0  0  0  0  0  0  0  0  0  0  0
   59.9720   29.4210   48.6910 C   0  0  0  0  0  0  0  0  0  0  0  0
   59.5760   30.6770   48.1940 O   0  0  0  0  0  0  0  0  0  0  0  0
   59.1340   30.9390   46.8630 C   0  0  0  0  0  0  0  0  0  0  0  0
   58.0900   30.6073   46.7627 H   0  0  0  0  0  0  0  0  0  0  0  0
   59.7908   30.3920   46.1706 H   0  0  0  0  0  0  0  0  0  0  0  0
   59.2150   32.4150   46.5230 C   0  0  0  0  0  0  0  0  0  0  0  0
   58.1240   33.0360   45.8880 C   0  0  0  0  0  0  0  0  0  0  0  0
   57.2135   32.4545   45.6808 H   0  0  0  0  0  0  0  0  0  0  0  0
   58.1820   34.3790   45.5180 C   0  0  0  0  0  0  0  0  0  0  0  0
   57.3278   34.8453   45.0053 H   0  0  0  0  0  0  0  0  0  0  0  0
   59.3200   35.1300   45.7970 C   0  0  0  0  0  0  0  0  0  0  0  0
   59.3720   36.1845   45.4884 H   0  0  0  0  0  0  0  0  0  0  0  0
   60.3950   34.5460   46.4680 C   0  0  0  0  0  0  0  0  0  0  0  0
   61.2848   35.1501   46.6987 H   0  0  0  0  0  0  0  0  0  0  0  0
   60.3540   33.1930   46.8530 C   0  0  0  0  0  0  0  0  0  0  0  0
   61.4860   32.6330   47.6370 C   0  0  0  0  0  0  0  0  0  0  0  0
   62.5260   32.2550   47.0260 O   0  0  0  0  0  0  0  0  0  0  0  0
   61.4010   32.4810   49.0730 N   0  0  0  0  0  0  0  0  0  0  0  0
   60.6280   31.8180   49.3210 H   0  0  0  0  0  0  0  0  0  0  0  0
   61.0840   33.7730   49.7070 C   0  0  0  0  0  0  0  0  0  0  0  0
   61.1114   33.6611   50.8010 H   0  0  0  0  0  0  0  0  0  0  0  0
   61.8242   34.5251   49.3966 H   0  0  0  0  0  0  0  0  0  0  0  0
   60.0797   34.0971   49.3966 H   0  0  0  0  0  0  0  0  0  0  0  0
   62.6650   31.9400   49.5930 C   0  0  0  0  0  0  0  0  0  0  0  0
   62.6430   31.9494   50.6927 H   0  0  0  0  0  0  0  0  0  0  0  0
   62.7955   30.9072   49.2377 H   0  0  0  0  0  0  0  0  0  0  0  0
   63.5023   32.5586   49.2377 H   0  0  0  0  0  0  0  0  0  0  0  0
   54.9770   30.0390   52.6770 C   0  0  0  0  0  0  0  0  0  0  0  0
   54.9687   28.9460   52.8006 H   0  0  0  0  0  0  0  0  0  0  0  0
   53.6860   30.7350   52.4710 C   0  0  0  0  0  0  0  0  0  0  0  0
   52.8060   30.8530   53.5570 C   0  0  0  0  0  0  0  0  0  0  0  0
   53.0800   30.4258   54.5329 H   0  0  0  0  0  0  0  0  0  0  0  0
   51.5810   31.5120   53.4040 C   0  0  0  0  0  0  0  0  0  0  0  0
   50.8888   31.5859   54.2557 H   0  0  0  0  0  0  0  0  0  0  0  0
   51.2330   32.0770   52.1730 C   0  0  0  0  0  0  0  0  0  0  0  0
   50.0110   32.7280   52.0230 O   0  0  0  0  0  0  0  0  0  0  0  0
   52.1150   31.9880   51.0920 C   0  0  0  0  0  0  0  0  0  0  0  0
   51.8475   32.4412   50.1261 H   0  0  0  0  0  0  0  0  0  0  0  0
   53.3360   31.3240   51.2370 C   0  0  0  0  0  0  0  0  0  0  0  0
   54.0283   31.2600   50.3846 H   0  0  0  0  0  0  0  0  0  0  0  0
  1  2  1  0
  2  3  1  0
  3  4  2  0
  3  5  1  0
  5  6  1  0
  5  7  1  0
  5  8  1  0
  8  9  1  0
  9 10  2  0
  9 11  1  0
 11 12  2  0
 12 13  1  0
 12 14  1  0
 14 15  1  0
 14 16  2  0
 16 17  1  0
 16 18  1  0
 18 19  1  0
 18 20  2  0
 20 21  1  0
 21 22  1  0
 22 23  1  0
 22 24  1  0
 22 25  1  0
 25 26  2  0
 26 27  1  0
 26 28  1  0
 28 29  1  0
 28 30  2  0
 30 31  1  0
 30 32  1  0
 32 33  1  0
 32 34  2  0
 34 35  1  0
 35 36  2  0
 35 37  1  0
 37 38  1  0
 37 39  1  0
 39 40  1  0
 39 41  1  0
 39 42  1  0
 37 43  1  0
 43 44  1  0
 43 45  1  0
 43 46  1  0
  2 47  2  0
 47 48  1  0
 47 49  1  0
 49 50  2  0
 50 51  1  0
 50 52  1  0
 52 53  1  0
 52 54  2  0
 54 55  1  0
 54 56  1  0
 56 57  1  0
 56 58  2  0
 58 59  1  0
 20 11  1  0
 34 25  1  0
 58 49  1  0
M  CHG  2  37   1  55  -1
M  END
>  <UniqueID>  (43) 
36

>  <SMILES>  (43) 
C[NH+](C)C(=O)c1ccccc1COc1ccccc1C(=O)OCC(=O)/C=C/c1ccc([O-])cc1

>  <Energy>  (43) 
70.6347655940458

>  <Genealogy>  (43) 
C[NH+](C)C(=O)c1ccccc1COc1ccccc1C(=O)OCC(=O)C=Cc1ccc([O-])cc1 (protonated)
C[NH+](C)C(=O)c1ccccc1COc1ccccc1C(=O)OCC(=O)/C=C/c1ccc([O-])cc1 (cis-trans isomerization)
C[NH+](C)C(=O)c1ccccc1COc1ccccc1C(=O)OCC(=O)/C=C/c1ccc([O-])cc1 (3D coordinates assigned)
C[NH+](C)C(=O)c1ccccc1COc1ccccc1C(=O)OCC(=O)/C=C/c1ccc([O-])cc1 (optimized conformer: 70.6347655940458 kcal/mol)

>  <smiles>  (43) 
CN(C)C(=O)c1ccccc1COc1ccccc1C(=O)OCC(=O)C=Cc1ccc(O)cc1

>  <score_type>  (43) 
oracle

>  <origin>  (43) 
adg

>  <m_score__min__energy>  (43) 
-10.640000000000001

>  <m_primary>  (43) 
energy

$$$$
43:0
     RDKit          3D

 66 69  0  0  0  0  0  0  0  0999 V2000
   63.3990   31.9370   47.2200 C   0  0  0  0  0  0  0  0  0  0  0  0
   62.2150   32.6020   47.8610 C   0  0  0  0  0  0  0  0  0  0  0  0
   61.8140   32.2180   49.1490 C   0  0  0  0  0  0  0  0  0  0  0  0
   60.7170   32.8330   49.7590 C   0  0  0  0  0  0  0  0  0  0  0  0
   60.0200   33.8440   49.0930 C   0  0  0  0  0  0  0  0  0  0  0  0
   60.4260   34.2580   47.8150 C   0  0  0  0  0  0  0  0  0  0  0  0
   59.6620   35.3330   47.0840 C   0  0  0  0  0  0  0  0  0  0  0  0
   59.0990   34.8530   45.7650 C   0  0  0  0  0  0  0  0  0  0  0  0
   59.2780   35.5460   44.7220 O   0  0  0  0  0  0  0  0  0  0  0  0
   58.3680   33.6070   45.6800 N   0  0  0  0  0  0  0  0  0  0  0  0
   56.9370   33.5680   46.0140 C   0  0  0  0  0  0  0  0  0  0  0  0
   59.0820   32.3430   45.4310 C   0  0  0  0  0  0  0  0  0  0  0  0
   58.1850   31.2710   44.8370 C   0  0  0  0  0  0  0  0  0  0  0  0
   57.5110   31.5550   43.6320 C   0  0  0  0  0  0  0  0  0  0  0  0
   56.6970   30.5980   43.0230 C   0  0  0  0  0  0  0  0  0  0  0  0
   56.5390   29.3430   43.6030 C   0  0  0  0  0  0  0  0  0  0  0  0
   57.2050   29.0350   44.7930 C   0  0  0  0  0  0  0  0  0  0  0  0
   58.0500   29.9760   45.4060 C   0  0  0  0  0  0  0  0  0  0  0  0
   58.7740   29.5680   46.6270 C   0  0  0  0  0  0  0  0  0  0  0  0
   58.5160   30.2710   47.8160 C   0  0  0  0  0  0  0  0  0  0  0  0
   59.1760   29.9330   48.9950 C   0  0  0  0  0  0  0  0  0  0  0  0
   60.0970   28.8840   49.0060 C   0  0  0  0  0  0  0  0  0  0  0  0
   60.3490   28.1640   47.8360 C   0  0  0  0  0  0  0  0  0  0  0  0
   59.6860   28.4840   46.6390 C   0  0  0  0  0  0  0  0  0  0  0  0
   59.9710   27.6400   45.4170 C   0  0  0  0  0  0  0  0  0  0  0  0
   59.5140   26.2710   45.6340 N   0  0  0  0  0  0  0  0  0  0  0  0
   58.1330   25.9130   45.7620 C   0  0  0  0  0  0  0  0  0  0  0  0
   57.5540   25.9900   46.8790 O   0  0  0  0  0  0  0  0  0  0  0  0
   57.3670   25.4750   44.5520 C   0  0  0  0  0  0  0  0  0  0  0  0
   56.0890   24.7970   44.9570 C   0  0  0  0  0  0  0  0  0  0  0  0
   55.7160   23.4730   44.7780 C   0  0  0  0  0  0  0  0  0  0  0  0
   56.4660   22.3900   44.1150 C   0  0  0  0  0  0  0  0  0  0  0  0
   57.6390   22.1150   44.4880 O   0  0  0  0  0  0  0  0  0  0  0  0
   55.9010   21.6630   43.0770 O   0  0  0  0  0  0  0  0  0  0  0  0
   54.4600   23.3410   45.3500 C   0  0  0  0  0  0  0  0  0  0  0  0
   54.0420   24.5110   45.8740 N   0  0  0  0  0  0  0  0  0  0  0  0
   55.0380   25.3840   45.6330 C   0  0  0  0  0  0  0  0  0  0  0  0
   54.9840   26.7160   46.0160 O   0  0  0  0  0  0  0  0  0  0  0  0
   61.5190   33.6230   47.1970 C   0  0  0  0  0  0  0  0  0  0  0  0
   64.0741   31.5578   48.0013 H   0  0  0  0  0  0  0  0  0  0  0  0
   63.0553   31.0999   46.5946 H   0  0  0  0  0  0  0  0  0  0  0  0
   63.9349   32.6661   46.5946 H   0  0  0  0  0  0  0  0  0  0  0  0
   62.3654   31.4291   49.6816 H   0  0  0  0  0  0  0  0  0  0  0  0
   60.4019   32.5203   50.7654 H   0  0  0  0  0  0  0  0  0  0  0  0
   59.1501   34.3172   49.5719 H   0  0  0  0  0  0  0  0  0  0  0  0
   58.8301   35.6686   47.7207 H   0  0  0  0  0  0  0  0  0  0  0  0
   60.3641   36.1518   46.8679 H   0  0  0  0  0  0  0  0  0  0  0  0
   56.8156   33.5647   47.1073 H   0  0  0  0  0  0  0  0  0  0  0  0
   56.4378   34.4529   45.5923 H   0  0  0  0  0  0  0  0  0  0  0  0
   56.4867   32.6573   45.5923 H   0  0  0  0  0  0  0  0  0  0  0  0
   59.9086   32.5375   44.7318 H   0  0  0  0  0  0  0  0  0  0  0  0
   59.4478   31.9713   46.3996 H   0  0  0  0  0  0  0  0  0  0  0  0
   57.6280   32.5441   43.1651 H   0  0  0  0  0  0  0  0  0  0  0  0
   56.1792   30.8367   42.0823 H   0  0  0  0  0  0  0  0  0  0  0  0
   55.8905   28.5937   43.1255 H   0  0  0  0  0  0  0  0  0  0  0  0
   57.0662   28.0461   45.2542 H   0  0  0  0  0  0  0  0  0  0  0  0
   57.7870   31.0948   47.8156 H   0  0  0  0  0  0  0  0  0  0  0  0
   58.9712   30.4936   49.9190 H   0  0  0  0  0  0  0  0  0  0  0  0
   60.6242   28.6245   49.9359 H   0  0  0  0  0  0  0  0  0  0  0  0
   61.0745   27.3373   47.8517 H   0  0  0  0  0  0  0  0  0  0  0  0
   59.4447   28.0659   44.5501 H   0  0  0  0  0  0  0  0  0  0  0  0
   61.0550   27.6319   45.2305 H   0  0  0  0  0  0  0  0  0  0  0  0
   57.1307   26.3544   43.9349 H   0  0  0  0  0  0  0  0  0  0  0  0
   57.9813   24.7646   43.9792 H   0  0  0  0  0  0  0  0  0  0  0  0
   53.8812   22.4059   45.3733 H   0  0  0  0  0  0  0  0  0  0  0  0
   61.8296   33.9290   46.1871 H   0  0  0  0  0  0  0  0  0  0  0  0
  1  2  1  0
  2  3  2  0
  3  4  1  0
  4  5  2  0
  5  6  1  0
  6  7  1  0
  7  8  1  0
  8  9  2  0
  8 10  1  0
 10 11  1  0
 10 12  1  0
 12 13  1  0
 13 14  2  0
 14 15  1  0
 15 16  2  0
 16 17  1  0
 17 18  2  0
 18 19  1  0
 19 20  2  0
 20 21  1  0
 21 22  2  0
 22 23  1  0
 23 24  2  0
 24 25  1  0
 25 26  1  0
 26 27  1  0
 27 28  2  0
 27 29  1  0
 29 30  1  0
 30 31  1  0
 31 32  1  0
 32 33  2  0
 32 34  1  0
 31 35  2  0
 35 36  1  0
 36 37  1  0
 37 38  1  0
  6 39  2  0
 39  2  1  0
 18 13  1  0
 24 19  1  0
 37 30  2  0
  1 40  1  0
  1 41  1  0
  1 42  1  0
  3 43  1  0
  4 44  1  0
  5 45  1  0
  7 46  1  0
  7 47  1  0
 11 48  1  0
 11 49  1  0
 11 50  1  0
 12 51  1  0
 12 52  1  0
 14 53  1  0
 15 54  1  0
 16 55  1  0
 17 56  1  0
 20 57  1  0
 21 58  1  0
 22 59  1  0
 23 60  1  0
 25 61  1  0
 25 62  1  0
 29 63  1  0
 29 64  1  0
 35 65  1  0
 39 66  1  0
M  CHG  4  26  -1  34  -1  36  -1  38  -1
M  END
>  <UniqueID>  (44) 
37

>  <SMILES>  (44) 
Cc1cccc(CC(=O)N(C)Cc2ccccc2-c2ccccc2C[N-]C(=O)Cc2c(C(=O)[O-])c[n-]c2[O-])c1

>  <Energy>  (44) 
97.11902254918444

>  <Genealogy>  (44) 
Cc1cccc(CC(=O)N(C)Cc2ccccc2-c2ccccc2C[N-]C(=O)Cc2c(C(=O)[O-])c[n-]c2[O-])c1 (protonated)
Cc1cccc(CC(=O)N(C)Cc2ccccc2-c2ccccc2C[N-]C(=O)Cc2c(C(=O)[O-])c[n-]c2[O-])c1 (3D coordinates assigned)
Cc1cccc(CC(=O)N(C)Cc2ccccc2-c2ccccc2C[N-]C(=O)Cc2c(C(=O)[O-])c[n-]c2[O-])c1 (optimized conformer: 97.11902254918444 kcal/mol)

>  <smiles>  (44) 
Cc1cccc(CC(=O)N(C)Cc2ccccc2-c2ccccc2CNC(=O)Cc2c(C(=O)O)c[nH]c2O)c1

>  <score_type>  (44) 
oracle

>  <origin>  (44) 
adg

>  <m_score__min__energy>  (44) 
-18.739999999999998

>  <m_primary>  (44) 
energy

$$$$
44:0
     RDKit          3D

 47 50  0  0  1  0  0  0  0  0999 V2000
   59.6360   35.6750   46.0970 O   0  0  0  0  0  0  0  0  0  0  0  0
   59.4650   34.4600   46.4590 C   0  0  0  0  0  0  0  0  0  0  0  0
   58.6300   33.6570   45.5820 C   0  0  0  0  0  0  0  0  0  0  0  0
   57.8020   32.5950   45.8870 C   0  0  0  0  0  0  0  0  0  0  0  0
   57.2280   32.1740   44.7200 C   0  0  0  0  0  0  0  0  0  0  0  0
   56.3860   31.2190   44.5040 N   0  0  0  0  0  0  0  0  0  0  0  0
   56.6380   30.2040   43.4740 C   0  0  0  0  0  0  0  0  0  0  0  0
   57.0220   28.9290   44.2070 C   0  0  0  0  0  0  0  0  0  0  0  0
   58.1860   29.1530   45.1030 C   0  0  0  0  0  0  0  0  0  0  0  0
   59.4920   29.1170   44.6750 C   0  0  0  0  0  0  0  0  0  0  0  0
   60.4920   29.3380   45.6010 C   0  0  0  0  0  0  0  0  0  0  0  0
   60.2110   29.5910   46.9380 C   0  0  0  0  0  0  0  0  0  0  0  0
   58.8870   29.6180   47.3220 C   0  0  0  0  0  0  0  0  0  0  0  0
   57.9450   29.3990   46.3890 N   0  0  0  0  0  0  0  0  0  0  0  0
   57.6930   32.9550   43.7300 N   0  0  0  0  0  0  0  0  0  0  0  0
   58.5430   33.8540   44.2450 N   0  0  0  0  0  0  0  0  0  0  0  0
   60.0650   33.9560   47.6420 N   0  0  0  0  0  0  0  0  0  0  0  0
   59.7580   34.5470   48.9350 C   0  0  0  0  0  0  0  0  0  0  0  0
   60.4350   33.8230   50.0540 C   0  0  0  0  0  0  0  0  0  0  0  0
   61.8630   33.5710   49.7220 C   0  0  0  0  0  0  0  0  0  0  0  0
   62.8970   33.8030   50.5950 C   0  0  0  0  0  0  0  0  0  0  0  0
   64.2100   33.5590   50.2420 C   0  0  0  0  0  0  0  0  0  0  0  0
   64.4760   33.0680   48.9770 C   0  0  0  0  0  0  0  0  0  0  0  0
   63.4070   32.8370   48.1030 C   0  0  0  0  0  0  0  0  0  0  0  0
   62.1140   33.0780   48.4490 C   0  0  0  0  0  0  0  0  0  0  0  0
   60.9850   32.8460   47.5360 C   0  0  0  0  0  0  0  0  0  0  0  0
   57.6349   32.1662   46.8861 H   0  0  0  0  0  0  0  0  0  0  0  0
   55.7310   30.0386   42.8740 H   0  0  0  0  0  0  0  0  0  0  0  0
   57.4365   30.5237   42.7883 H   0  0  0  0  0  0  0  0  0  0  0  0
   56.1661   28.5898   44.8090 H   0  0  0  0  0  0  0  0  0  0  0  0
   57.2981   28.1688   43.4615 H   0  0  0  0  0  0  0  0  0  0  0  0
   59.7343   28.9171   43.6208 H   0  0  0  0  0  0  0  0  0  0  0  0
   61.5410   29.3131   45.2709 H   0  0  0  0  0  0  0  0  0  0  0  0
   61.0176   29.7639   47.6656 H   0  0  0  0  0  0  0  0  0  0  0  0
   58.6083   29.8143   48.3678 H   0  0  0  0  0  0  0  0  0  0  0  0
   57.4870   32.9350   42.7070 H   0  0  0  0  0  0  0  0  0  0  0  0
   59.0620   34.5940   43.7100 H   0  0  0  0  0  0  0  0  0  0  0  0
   60.0927   35.5949   48.9355 H   0  0  0  0  0  0  0  0  0  0  0  0
   58.6715   34.4775   49.0921 H   0  0  0  0  0  0  0  0  0  0  0  0
   60.3778   34.4334   50.9673 H   0  0  0  0  0  0  0  0  0  0  0  0
   59.9303   32.8583   50.2109 H   0  0  0  0  0  0  0  0  0  0  0  0
   62.6745   34.1924   51.5994 H   0  0  0  0  0  0  0  0  0  0  0  0
   65.0273   33.7514   50.9527 H   0  0  0  0  0  0  0  0  0  0  0  0
   65.5099   32.8624   48.6628 H   0  0  0  0  0  0  0  0  0  0  0  0
   63.6211   32.4455   47.0976 H   0  0  0  0  0  0  0  0  0  0  0  0
   61.3547   32.7695   46.5028 H   0  0  0  0  0  0  0  0  0  0  0  0
   60.4737   31.9097   47.8040 H   0  0  0  0  0  0  0  0  0  0  0  0
  1  2  2  0
  2  3  1  0
  3  4  2  0
  4  5  1  0
  5  6  2  0
  6  7  1  0
  7  8  1  0
  8  9  1  0
  9 10  2  0
 10 11  1  0
 11 12  2  0
 12 13  1  0
 13 14  2  0
  5 15  1  0
 15 16  1  0
  2 17  1  0
 17 18  1  0
 18 19  1  0
 19 20  1  0
 20 21  2  0
 21 22  1  0
 22 23  2  0
 23 24  1  0
 24 25  2  0
 25 26  1  0
 16  3  1  0
 26 17  1  0
 14  9  1  0
 25 20  1  0
  4 27  1  0
  7 28  1  0
  7 29  1  0
  8 30  1  0
  8 31  1  0
 10 32  1  0
 11 33  1  0
 12 34  1  0
 13 35  1  0
 15 36  1  0
 16 37  1  0
 18 38  1  0
 18 39  1  0
 19 40  1  0
 19 41  1  0
 21 42  1  0
 22 43  1  0
 23 44  1  0
 24 45  1  0
 26 46  1  0
 26 47  1  0
M  END
>  <smiles>  (45) 
O=C(c1cc(=NCCc2ccccn2)[nH][nH]1)N1CCc2ccccc2C1

>  <score_type>  (45) 
oracle

>  <origin>  (45) 
adg

>  <m_score__min__energy>  (45) 
-9.0500000000000007

>  <m_primary>  (45) 
energy

$$$$
45:0
     RDKit          3D

 42 43  0  0  0  0  0  0  0  0999 V2000
   54.2930   22.1860   47.0890 N   0  0  0  0  0  0  0  0  0  0  0  0
   53.8720   22.9930   45.9900 C   0  0  0  0  0  0  0  0  0  0  0  0
   52.9050   22.6190   45.2730 O   0  0  0  0  0  0  0  0  0  0  0  0
   54.5600   24.2910   45.6990 C   0  0  0  0  0  0  0  0  0  0  0  0
   55.5350   24.5860   46.7410 N   0  0  0  0  0  0  0  0  0  0  0  0
   56.8660   24.0560   46.7530 C   0  0  0  0  0  0  0  0  0  0  0  0
   57.1480   23.0990   47.5260 O   0  0  0  0  0  0  0  0  0  0  0  0
   57.9530   24.6900   45.9070 C   0  0  0  0  0  0  0  0  0  0  0  0
   57.3740   25.5940   44.8040 C   0  0  0  0  0  0  0  0  0  0  0  0
   56.7690   26.8830   45.3870 C   0  0  0  0  0  0  0  0  0  0  0  0
   57.7060   27.6220   46.2560 N   0  0  0  0  0  0  0  0  0  0  0  0
   58.8620   28.5890   45.3630 S   0  0  0  0  0  0  0  0  0  0  0  0
   58.9280   28.1320   43.9330 O   0  0  0  0  0  0  0  0  0  0  0  0
   60.2310   28.4460   45.9690 O   0  0  0  0  0  0  0  0  0  0  0  0
   58.3960   30.3010   45.4240 C   0  0  0  0  0  0  0  0  0  0  0  0
   59.2680   31.2020   46.0610 C   0  0  0  0  0  0  0  0  0  0  0  0
   58.9990   32.5700   46.0700 C   0  0  0  0  0  0  0  0  0  0  0  0
   57.8570   33.0610   45.4410 C   0  0  0  0  0  0  0  0  0  0  0  0
   56.9750   32.1840   44.8110 C   0  0  0  0  0  0  0  0  0  0  0  0
   57.2160   30.7980   44.8030 C   0  0  0  0  0  0  0  0  0  0  0  0
   56.2150   29.9270   44.1400 C   0  0  0  0  0  0  0  0  0  0  0  0
   56.2960   29.6590   42.9130 O   0  0  0  0  0  0  0  0  0  0  0  0
   55.1990   29.3470   44.8880 O   0  0  0  0  0  0  0  0  0  0  0  0
   58.3330   26.7880   47.2990 C   0  0  0  0  0  0  0  0  0  0  0  0
   58.9630   25.5000   46.7410 C   0  0  0  0  0  0  0  0  0  0  0  0
   53.8050   21.2870   47.3000 H   0  0  0  0  0  0  0  0  0  0  0  0
   55.0860   22.4870   47.6970 H   0  0  0  0  0  0  0  0  0  0  0  0
   55.0742   24.2207   44.7291 H   0  0  0  0  0  0  0  0  0  0  0  0
   53.8112   25.0962   45.6684 H   0  0  0  0  0  0  0  0  0  0  0  0
   58.4838   23.8461   45.4422 H   0  0  0  0  0  0  0  0  0  0  0  0
   58.1786   25.8624   44.1036 H   0  0  0  0  0  0  0  0  0  0  0  0
   56.5742   25.0405   44.2904 H   0  0  0  0  0  0  0  0  0  0  0  0
   56.4730   27.5383   44.5545 H   0  0  0  0  0  0  0  0  0  0  0  0
   55.9089   26.5900   46.0070 H   0  0  0  0  0  0  0  0  0  0  0  0
   60.1731   30.8229   46.5581 H   0  0  0  0  0  0  0  0  0  0  0  0
   59.6892   33.2624   46.5743 H   0  0  0  0  0  0  0  0  0  0  0  0
   57.6510   34.1415   45.4414 H   0  0  0  0  0  0  0  0  0  0  0  0
   56.0781   32.5814   44.3132 H   0  0  0  0  0  0  0  0  0  0  0  0
   59.1195   27.3773   47.7932 H   0  0  0  0  0  0  0  0  0  0  0  0
   57.5410   26.4892   48.0015 H   0  0  0  0  0  0  0  0  0  0  0  0
   59.8185   25.7682   46.1037 H   0  0  0  0  0  0  0  0  0  0  0  0
   59.2849   24.8788   47.5898 H   0  0  0  0  0  0  0  0  0  0  0  0
  1  2  1  0
  2  3  2  0
  2  4  1  0
  4  5  1  0
  5  6  1  0
  6  7  2  0
  6  8  1  0
  8  9  1  0
  9 10  1  0
 10 11  1  0
 11 12  1  0
 12 13  2  0
 12 14  2  0
 12 15  1  0
 15 16  2  0
 16 17  1  0
 17 18  2  0
 18 19  1  0
 19 20  2  0
 20 21  1  0
 21 22  2  0
 21 23  1  0
 11 24  1  0
 24 25  1  0
 25  8  1  0
 20 15  1  0
  1 26  1  0
  1 27  1  0
  4 28  1  0
  4 29  1  0
  8 30  1  0
  9 31  1  0
  9 32  1  0
 10 33  1  0
 10 34  1  0
 16 35  1  0
 17 36  1  0
 18 37  1  0
 19 38  1  0
 24 39  1  0
 24 40  1  0
 25 41  1  0
 25 42  1  0
M  CHG  2   5  -1  23  -1
M  END
>  <UniqueID>  (46) 
38

>  <SMILES>  (46) 
NC(=O)C[N-]C(=O)C1CCN(S(=O)(=O)c2ccccc2C(=O)[O-])CC1

>  <Energy>  (46) 
44.86071801663385

>  <Genealogy>  (46) 
NC(=O)C[N-]C(=O)C1CCN(S(=O)(=O)c2ccccc2C(=O)[O-])CC1 (protonated)
NC(=O)C[N-]C(=O)C1CCN(S(=O)(=O)c2ccccc2C(=O)[O-])CC1 (3D coordinates assigned)
NC(=O)C[N-]C(=O)C1CCN(S(=O)(=O)c2ccccc2C(=O)[O-])CC1 (nonaromatic ring conformer: 44.86071801663385 kcal/mol)

>  <smiles>  (46) 
NC(=O)CNC(=O)C1CCN(S(=O)(=O)c2ccccc2C(=O)O)CC1

>  <score_type>  (46) 
oracle

>  <origin>  (46) 
adg

>  <m_score__min__energy>  (46) 
-11.85

>  <m_primary>  (46) 
energy

$$$$
46:0
     RDKit          3D

 46 49  0  0  0  0  0  0  0  0999 V2000
   59.2160   34.0760   48.1380 C   0  0  0  0  0  0  0  0  0  0  0  0
   60.0690   33.5880   46.9490 C   0  0  0  0  0  0  0  0  0  0  0  0
   61.5590   33.7220   47.3150 C   0  0  0  0  0  0  0  0  0  0  0  0
   59.7510   32.1090   46.7260 C   0  0  0  0  0  0  0  0  0  0  0  0
   58.9790   31.6520   45.7180 C   0  0  0  0  0  0  0  0  0  0  0  0
   58.3440   30.3270   45.7900 C   0  0  0  0  0  0  0  0  0  0  0  0
   57.1270   30.1010   45.2040 C   0  0  0  0  0  0  0  0  0  0  0  0
   56.7310   28.8340   45.5830 C   0  0  0  0  0  0  0  0  0  0  0  0
   55.5190   28.2380   45.2550 O   0  0  0  0  0  0  0  0  0  0  0  0
   57.6820   28.2550   46.3470 N   0  0  0  0  0  0  0  0  0  0  0  0
   57.6040   26.9520   47.0040 C   0  0  0  0  0  0  0  0  0  0  0  0
   57.1280   25.9100   46.0280 C   0  0  0  0  0  0  0  0  0  0  0  0
   57.7800   25.7440   44.7940 C   0  0  0  0  0  0  0  0  0  0  0  0
   57.3100   24.8060   43.8700 C   0  0  0  0  0  0  0  0  0  0  0  0
   56.1840   24.0340   44.1670 C   0  0  0  0  0  0  0  0  0  0  0  0
   55.5230   24.2010   45.3870 C   0  0  0  0  0  0  0  0  0  0  0  0
   55.9890   25.1390   46.3140 C   0  0  0  0  0  0  0  0  0  0  0  0
   58.6630   29.1750   46.4900 C   0  0  0  0  0  0  0  0  0  0  0  0
   59.8160   28.9710   47.2400 O   0  0  0  0  0  0  0  0  0  0  0  0
   56.3670   31.1760   44.4980 C   0  0  0  0  0  0  0  0  0  0  0  0
   57.3570   32.0590   43.7130 C   0  0  0  0  0  0  0  0  0  0  0  0
   58.6070   32.5380   44.5320 C   0  0  1  0  0  0  0  0  0  0  0  0
   58.5470   33.9660   44.9950 C   0  0  0  0  0  0  0  0  0  0  0  0
   57.5570   34.6670   44.8500 O   0  0  0  0  0  0  0  0  0  0  0  0
   59.7630   34.4750   45.7070 C   0  0  0  0  0  0  0  0  0  0  0  0
   59.7071   33.7950   49.0813 H   0  0  0  0  0  0  0  0  0  0  0  0
   59.1123   35.1701   48.0903 H   0  0  0  0  0  0  0  0  0  0  0  0
   58.2203   33.6109   48.0903 H   0  0  0  0  0  0  0  0  0  0  0  0
   61.6683   33.7318   48.4095 H   0  0  0  0  0  0  0  0  0  0  0  0
   62.1169   32.8704   46.8984 H   0  0  0  0  0  0  0  0  0  0  0  0
   61.9560   34.6595   46.8984 H   0  0  0  0  0  0  0  0  0  0  0  0
   60.1758   31.3757   47.4273 H   0  0  0  0  0  0  0  0  0  0  0  0
   58.6000   26.6726   47.3780 H   0  0  0  0  0  0  0  0  0  0  0  0
   56.8939   27.0125   47.8419 H   0  0  0  0  0  0  0  0  0  0  0  0
   58.6632   26.3543   44.5544 H   0  0  0  0  0  0  0  0  0  0  0  0
   57.8273   24.6756   42.9080 H   0  0  0  0  0  0  0  0  0  0  0  0
   55.8175   23.2942   43.4401 H   0  0  0  0  0  0  0  0  0  0  0  0
   54.6353   23.5941   45.6185 H   0  0  0  0  0  0  0  0  0  0  0  0
   55.4619   25.2734   47.2701 H   0  0  0  0  0  0  0  0  0  0  0  0
   55.6464   30.7217   43.8021 H   0  0  0  0  0  0  0  0  0  0  0  0
   55.8235   31.7895   45.2316 H   0  0  0  0  0  0  0  0  0  0  0  0
   57.7158   31.4835   42.8470 H   0  0  0  0  0  0  0  0  0  0  0  0
   56.8047   32.9680   43.4327 H   0  0  0  0  0  0  0  0  0  0  0  0
   59.4019   32.4511   43.7766 H   0  0  0  0  0  0  0  0  0  0  0  0
   60.6229   34.4494   45.0214 H   0  0  0  0  0  0  0  0  0  0  0  0
   59.5786   35.5072   46.0396 H   0  0  0  0  0  0  0  0  0  0  0  0
  1  2  1  0
  2  3  1  0
  2  4  1  0
  4  5  2  0
  5  6  1  0
  6  7  1  0
  7  8  2  0
  8  9  1  0
  8 10  1  0
 10 11  1  0
 11 12  1  0
 12 13  2  0
 13 14  1  0
 14 15  2  0
 15 16  1  0
 16 17  2  0
 10 18  1  0
 18 19  1  0
  7 20  1  0
 20 21  1  0
 21 22  1  0
 22 23  1  0
 23 24  2  0
 23 25  1  0
 25  2  1  0
 22  5  1  0
 18  6  2  0
 17 12  1  0
  1 26  1  0
  1 27  1  0
  1 28  1  0
  3 29  1  0
  3 30  1  0
  3 31  1  0
  4 32  1  0
 11 33  1  0
 11 34  1  0
 13 35  1  0
 14 36  1  0
 15 37  1  0
 16 38  1  0
 17 39  1  0
 20 40  1  0
 20 41  1  0
 21 42  1  0
 21 43  1  0
 22 44  1  6
 25 45  1  0
 25 46  1  0
M  CHG  2   9  -1  19  -1
M  END
>  <UniqueID>  (47) 
39

>  <SMILES>  (47) 
CC1(C)C=C2c3c(c([O-])n(Cc4ccccc4)c3[O-])CC[C@H]2C(=O)C1

>  <Energy>  (47) 
92.17621596619088

>  <Genealogy>  (47) 
CC1(C)C=C2c3c(c([O-])n(Cc4ccccc4)c3[O-])CCC2C(=O)C1 (protonated)
CC1(C)C=C2c3c(c([O-])n(Cc4ccccc4)c3[O-])CC[C@H]2C(=O)C1 (chirality)
CC1(C)C=C2c3c(c([O-])n(Cc4ccccc4)c3[O-])CC[C@H]2C(=O)C1 (3D coordinates assigned)
CC1(C)C=C2c3c(c([O-])n(Cc4ccccc4)c3[O-])CC[C@H]2C(=O)C1 (nonaromatic ring conformer: 92.17621596619088 kcal/mol)

>  <smiles>  (47) 
CC1(C)C=C2c3c(c(O)n(Cc4ccccc4)c3O)CCC2C(=O)C1

>  <score_type>  (47) 
oracle

>  <origin>  (47) 
adg

>  <m_score__min__energy>  (47) 
-12.94

>  <m_primary>  (47) 
energy

$$$$
47:0
     RDKit          3D

 72 77  0  0  0  0  0  0  0  0999 V2000
   62.6360   30.3700   53.5070 O   0  0  0  0  0  0  0  0  0  0  0  0
   63.5560   30.8390   52.7830 C   0  0  0  0  0  0  0  0  0  0  0  0
   63.5660   32.2260   52.4250 N   0  0  0  0  0  0  0  0  0  0  0  0
   62.7790   32.8600   51.4070 C   0  0  0  0  0  0  0  0  0  0  0  0
   63.3070   33.1690   50.1390 C   0  0  0  0  0  0  0  0  0  0  0  0
   62.4820   33.7000   49.1440 C   0  0  0  0  0  0  0  0  0  0  0  0
   61.1150   33.9030   49.3880 C   0  0  0  0  0  0  0  0  0  0  0  0
   60.2140   34.4170   48.2980 C   0  0  0  0  0  0  0  0  0  0  0  0
   59.6630   33.2880   47.4700 C   0  0  0  0  0  0  0  0  0  0  0  0
   58.2780   33.1550   47.2840 C   0  0  0  0  0  0  0  0  0  0  0  0
   57.7720   32.1550   46.4470 C   0  0  0  0  0  0  0  0  0  0  0  0
   58.6450   31.2560   45.8060 C   0  0  0  0  0  0  0  0  0  0  0  0
   58.1750   30.2940   44.8530 N   0  0  0  0  0  0  0  0  0  0  0  0
   57.1070   29.3560   45.0330 C   0  0  0  0  0  0  0  0  0  0  0  0
   55.9360   29.8050   45.1640 O   0  0  0  0  0  0  0  0  0  0  0  0
   57.3400   27.8620   44.9010 C   0  0  0  0  0  0  0  0  0  0  0  0
   58.7610   27.5410   44.3920 C   0  0  0  0  0  0  0  0  0  0  0  0
   59.8610   27.7820   45.4520 C   0  0  0  0  0  0  0  0  0  0  0  0
   59.3160   27.9050   46.8260 N   0  0  0  0  0  0  0  0  0  0  0  0
   60.3910   27.8560   47.8390 C   0  0  0  0  0  0  0  0  0  0  0  0
   60.0970   28.8090   48.9710 C   0  0  0  0  0  0  0  0  0  0  0  0
   58.9510   29.6220   48.9410 C   0  0  0  0  0  0  0  0  0  0  0  0
   58.6600   30.4660   50.0180 C   0  0  0  0  0  0  0  0  0  0  0  0
   59.5020   30.4980   51.1320 C   0  0  0  0  0  0  0  0  0  0  0  0
   60.6450   29.6930   51.1670 C   0  0  0  0  0  0  0  0  0  0  0  0
   60.9430   28.8520   50.0910 C   0  0  0  0  0  0  0  0  0  0  0  0
   58.3060   26.8620   47.0780 C   0  0  0  0  0  0  0  0  0  0  0  0
   57.0450   27.1300   46.2360 C   0  0  0  0  0  0  0  0  0  0  0  0
   60.0230   31.3680   46.0250 C   0  0  0  0  0  0  0  0  0  0  0  0
   60.5300   32.3700   46.8570 C   0  0  0  0  0  0  0  0  0  0  0  0
   60.5920   33.6060   50.6570 C   0  0  0  0  0  0  0  0  0  0  0  0
   61.4200   33.0820   51.6530 C   0  0  0  0  0  0  0  0  0  0  0  0
   64.5990   29.9440   52.2610 C   0  0  0  0  0  0  0  0  0  0  0  0
   64.5450   28.5480   52.2520 C   0  0  0  0  0  0  0  0  0  0  0  0
   65.6840   27.9750   51.6740 C   0  0  0  0  0  0  0  0  0  0  0  0
   65.9310   26.6070   51.5190 C   0  0  0  0  0  0  0  0  0  0  0  0
   67.1320   26.2010   50.9130 C   0  0  0  0  0  0  0  0  0  0  0  0
   68.0690   27.1580   50.4750 C   0  0  0  0  0  0  0  0  0  0  0  0
   67.8090   28.5290   50.6270 C   0  0  0  0  0  0  0  0  0  0  0  0
   66.6140   28.9060   51.2340 C   0  0  0  0  0  0  0  0  0  0  0  0
   66.0520   30.4570   51.5530 S   0  0  0  0  0  0  0  0  0  0  0  0
   64.3725   32.9918   49.9309 H   0  0  0  0  0  0  0  0  0  0  0  0
   62.9067   33.9605   48.1633 H   0  0  0  0  0  0  0  0  0  0  0  0
   59.3786   34.9689   48.7535 H   0  0  0  0  0  0  0  0  0  0  0  0
   60.8019   35.0756   47.6418 H   0  0  0  0  0  0  0  0  0  0  0  0
   57.5879   33.8399   47.7985 H   0  0  0  0  0  0  0  0  0  0  0  0
   56.6867   32.0708   46.2890 H   0  0  0  0  0  0  0  0  0  0  0  0
   56.6336   27.4895   44.1446 H   0  0  0  0  0  0  0  0  0  0  0  0
   58.7929   26.4837   44.0903 H   0  0  0  0  0  0  0  0  0  0  0  0
   58.9660   28.2193   43.5506 H   0  0  0  0  0  0  0  0  0  0  0  0
   60.5647   26.9369   45.4271 H   0  0  0  0  0  0  0  0  0  0  0  0
   60.3570   28.7324   45.2054 H   0  0  0  0  0  0  0  0  0  0  0  0
   60.4661   26.8334   48.2374 H   0  0  0  0  0  0  0  0  0  0  0  0
   61.3391   28.1499   47.3649 H   0  0  0  0  0  0  0  0  0  0  0  0
   58.2814   29.5946   48.0687 H   0  0  0  0  0  0  0  0  0  0  0  0
   57.7659   31.1060   49.9875 H   0  0  0  0  0  0  0  0  0  0  0  0
   59.2662   31.1560   51.9813 H   0  0  0  0  0  0  0  0  0  0  0  0
   61.3104   29.7217   52.0424 H   0  0  0  0  0  0  0  0  0  0  0  0
   61.8438   28.2214   50.1217 H   0  0  0  0  0  0  0  0  0  0  0  0
   58.7219   25.8802   46.8075 H   0  0  0  0  0  0  0  0  0  0  0  0
   58.0355   26.8738   48.1441 H   0  0  0  0  0  0  0  0  0  0  0  0
   56.5673   26.1660   46.0069 H   0  0  0  0  0  0  0  0  0  0  0  0
   56.3920   27.7870   46.8292 H   0  0  0  0  0  0  0  0  0  0  0  0
   60.7121   30.6620   45.5385 H   0  0  0  0  0  0  0  0  0  0  0  0
   61.6137   32.4396   47.0323 H   0  0  0  0  0  0  0  0  0  0  0  0
   59.5275   33.7864   50.8675 H   0  0  0  0  0  0  0  0  0  0  0  0
   60.9990   32.8416   52.6404 H   0  0  0  0  0  0  0  0  0  0  0  0
   63.7029   27.9652   52.6536 H   0  0  0  0  0  0  0  0  0  0  0  0
   65.1986   25.8628   51.8651 H   0  0  0  0  0  0  0  0  0  0  0  0
   67.3420   25.1295   50.7797 H   0  0  0  0  0  0  0  0  0  0  0  0
   69.0103   26.8285   50.0109 H   0  0  0  0  0  0  0  0  0  0  0  0
   68.5285   29.2837   50.2767 H   0  0  0  0  0  0  0  0  0  0  0  0
  1  2  2  0
  2  3  1  0
  3  4  1  0
  4  5  2  0
  5  6  1  0
  6  7  2  0
  7  8  1  0
  8  9  1  0
  9 10  2  0
 10 11  1  0
 11 12  2  0
 12 13  1  0
 13 14  1  0
 14 15  2  0
 14 16  1  0
 16 17  1  0
 17 18  1  0
 18 19  1  0
 19 20  1  0
 20 21  1  0
 21 22  2  0
 22 23  1  0
 23 24  2  0
 24 25  1  0
 25 26  2  0
 19 27  1  0
 27 28  1  0
 12 29  1  0
 29 30  2  0
  7 31  1  0
 31 32  2  0
  2 33  1  0
 33 34  2  0
 34 35  1  0
 35 36  2  0
 36 37  1  0
 37 38  2  0
 38 39  1  0
 39 40  2  0
 40 41  1  0
 32  4  1  0
 41 33  1  0
 30  9  1  0
 40 35  1  0
 28 16  1  0
 26 21  1  0
  5 42  1  0
  6 43  1  0
  8 44  1  0
  8 45  1  0
 10 46  1  0
 11 47  1  0
 16 48  1  0
 17 49  1  0
 17 50  1  0
 18 51  1  0
 18 52  1  0
 20 53  1  0
 20 54  1  0
 22 55  1  0
 23 56  1  0
 24 57  1  0
 25 58  1  0
 26 59  1  0
 27 60  1  0
 27 61  1  0
 28 62  1  0
 28 63  1  0
 29 64  1  0
 30 65  1  0
 31 66  1  0
 32 67  1  0
 34 68  1  0
 36 69  1  0
 37 70  1  0
 38 71  1  0
 39 72  1  0
M  CHG  2   3  -1  13  -1
M  END
>  <UniqueID>  (48) 
40

>  <SMILES>  (48) 
O=C([N-]c1ccc(Cc2ccc([N-]C(=O)C3CCN(Cc4ccccc4)CC3)cc2)cc1)c1cc2ccccc2s1

>  <Energy>  (48) 
125.45228820649743

>  <Genealogy>  (48) 
O=C([N-]c1ccc(Cc2ccc([N-]C(=O)C3CCN(Cc4ccccc4)CC3)cc2)cc1)c1cc2ccccc2s1 (protonated)
O=C([N-]c1ccc(Cc2ccc([N-]C(=O)C3CCN(Cc4ccccc4)CC3)cc2)cc1)c1cc2ccccc2s1 (3D coordinates assigned)
O=C([N-]c1ccc(Cc2ccc([N-]C(=O)C3CCN(Cc4ccccc4)CC3)cc2)cc1)c1cc2ccccc2s1 (nonaromatic ring conformer: 125.45228820649743 kcal/mol)

>  <smiles>  (48) 
O=C(Nc1ccc(Cc2ccc(NC(=O)C3CCN(Cc4ccccc4)CC3)cc2)cc1)c1cc2ccccc2s1

>  <score_type>  (48) 
oracle

>  <origin>  (48) 
adg

>  <m_score__min__energy>  (48) 
-12.74

>  <m_primary>  (48) 
energy

$$$$
48:0
     RDKit          3D

 47 49  0  0  0  0  0  0  0  0999 V2000
   55.5350   28.1060   44.8930 H   0  0  0  0  0  0  0  0  0  0  0  0
   55.5190   29.1130   45.1830 N   0  0  0  0  0  0  0  0  0  0  0  0
   57.1050   29.7570   44.9350 S   0  0  0  0  0  0  0  0  0  0  0  0
   57.0770   31.2320   45.2220 O   0  0  0  0  0  0  0  0  0  0  0  0
   57.5250   29.5300   43.5090 O   0  0  0  0  0  0  0  0  0  0  0  0
   58.2390   28.9530   46.0190 C   0  0  0  0  0  0  0  0  0  0  0  0
   58.4010   27.5630   45.9610 C   0  0  0  0  0  0  0  0  0  0  0  0
   57.8247   26.9735   45.2328 H   0  0  0  0  0  0  0  0  0  0  0  0
   59.2930   26.9230   46.8260 C   0  0  0  0  0  0  0  0  0  0  0  0
   59.4208   25.8317   46.7732 H   0  0  0  0  0  0  0  0  0  0  0  0
   60.0230   27.6660   47.7580 C   0  0  0  0  0  0  0  0  0  0  0  0
   60.7325   27.1590   48.4286 H   0  0  0  0  0  0  0  0  0  0  0  0
   59.8540   29.0550   47.8410 C   0  0  0  0  0  0  0  0  0  0  0  0
   60.6530   29.8260   48.8190 C   0  0  0  0  0  0  0  0  0  0  0  0
   61.6823   30.0914   48.5359 H   0  0  0  0  0  0  0  0  0  0  0  0
   60.2200   30.2270   50.0250 C   0  0  0  0  0  0  0  0  0  0  0  0
   60.9686   30.6274   50.7245 H   0  0  0  0  0  0  0  0  0  0  0  0
   58.8170   30.1730   50.4870 C   0  0  0  0  0  0  0  0  0  0  0  0
   57.9150   29.7150   49.7330 O   0  0  0  0  0  0  0  0  0  0  0  0
   58.4900   30.6380   51.8060 N   0  0  0  0  0  0  0  0  0  0  0  0
   59.2190   31.1730   52.3310 H   0  0  0  0  0  0  0  0  0  0  0  0
   57.1600   30.6020   52.3460 C   0  0  0  0  0  0  0  0  0  0  0  0
   56.1030   31.1700   51.6210 C   0  0  0  0  0  0  0  0  0  0  0  0
   56.3025   31.6560   50.6545 H   0  0  0  0  0  0  0  0  0  0  0  0
   54.7970   31.1230   52.1180 C   0  0  0  0  0  0  0  0  0  0  0  0
   53.9719   31.5599   51.5364 H   0  0  0  0  0  0  0  0  0  0  0  0
   54.5380   30.5200   53.3560 C   0  0  0  0  0  0  0  0  0  0  0  0
   52.8900   30.3990   53.9640 S   0  0  0  0  0  0  0  0  0  0  0  0
   52.3650   29.0190   53.6860 O   0  0  0  0  0  0  0  0  0  0  0  0
   52.8490   30.6500   55.4470 O   0  0  0  0  0  0  0  0  0  0  0  0
   51.8850   31.5680   53.1660 N   0  0  0  0  0  0  0  0  0  0  0  0
   51.6420   31.5700   51.8890 C   0  0  0  0  0  0  0  0  0  0  0  0
   51.1770   32.6140   51.2460 O   0  0  0  0  0  0  0  0  0  0  0  0
   51.0090   32.3400   49.9840 N   0  0  0  0  0  0  0  0  0  0  0  0
   51.3960   31.0620   49.8040 C   0  0  0  0  0  0  0  0  0  0  0  0
   51.2830   30.3290   48.5090 C   0  0  0  0  0  0  0  0  0  0  0  0
   51.1181   29.2595   48.7062 H   0  0  0  0  0  0  0  0  0  0  0  0
   50.4361   30.7305   47.9331 H   0  0  0  0  0  0  0  0  0  0  0  0
   52.2115   30.4568   47.9331 H   0  0  0  0  0  0  0  0  0  0  0  0
   51.8050   30.5190   51.0060 C   0  0  0  0  0  0  0  0  0  0  0  0
   52.1702   29.5017   51.2103 H   0  0  0  0  0  0  0  0  0  0  0  0
   55.5970   29.9890   54.1030 C   0  0  0  0  0  0  0  0  0  0  0  0
   55.4009   29.5355   55.0858 H   0  0  0  0  0  0  0  0  0  0  0  0
   56.9010   30.0330   53.6050 C   0  0  0  0  0  0  0  0  0  0  0  0
   57.7289   29.6207   54.2005 H   0  0  0  0  0  0  0  0  0  0  0  0
   58.9860   29.7000   46.9390 C   0  0  0  0  0  0  0  0  0  0  0  0
   58.8941   30.7960   46.9569 H   0  0  0  0  0  0  0  0  0  0  0  0
  1  2  1  0
  2  3  1  0
  3  4  2  0
  3  5  2  0
  3  6  1  0
  6  7  2  0
  7  8  1  0
  7  9  1  0
  9 10  1  0
  9 11  2  0
 11 12  1  0
 11 13  1  0
 13 14  1  0
 14 15  1  0
 14 16  2  3
 16 17  1  0
 16 18  1  0
 18 19  2  0
 18 20  1  0
 20 21  1  0
 20 22  1  0
 22 23  2  0
 23 24  1  0
 23 25  1  0
 25 26  1  0
 25 27  2  0
 27 28  1  0
 28 29  2  0
 28 30  2  0
 28 31  1  0
 31 32  2  0
 32 33  1  0
 33 34  1  0
 34 35  1  0
 35 36  1  0
 36 37  1  0
 36 38  1  0
 36 39  1  0
 35 40  2  0
 40 41  1  0
 27 42  1  0
 42 43  1  0
 42 44  2  0
 44 45  1  0
 13 46  2  0
 46 47  1  0
 46  6  1  0
 44 22  1  0
 40 32  1  0
M  CHG  2   2  -1  34  -1
M  END
>  <UniqueID>  (49) 
41

>  <SMILES>  (49) 
Cc1c/c(=N\S(=O)(=O)c2ccc(NC(=O)C=Cc3cccc(S([NH-])(=O)=O)c3)cc2)o[n-]1

>  <Energy>  (49) 
92.26975979534387

>  <Genealogy>  (49) 
Cc1cc(=NS(=O)(=O)c2ccc(NC(=O)C=Cc3cccc(S([NH-])(=O)=O)c3)cc2)o[n-]1 (protonated)
Cc1c/c(=N\S(=O)(=O)c2ccc(NC(=O)C=Cc3cccc(S([NH-])(=O)=O)c3)cc2)o[n-]1 (cis-trans isomerization)
Cc1c/c(=N\S(=O)(=O)c2ccc(NC(=O)C=Cc3cccc(S([NH-])(=O)=O)c3)cc2)o[n-]1 (3D coordinates assigned)
Cc1c/c(=N\S(=O)(=O)c2ccc(NC(=O)C=Cc3cccc(S([NH-])(=O)=O)c3)cc2)o[n-]1 (optimized conformer: 92.26975979534387 kcal/mol)

>  <smiles>  (49) 
Cc1cc(=NS(=O)(=O)c2ccc(NC(=O)C=Cc3cccc(S(N)(=O)=O)c3)cc2)o[nH]1

>  <score_type>  (49) 
oracle

>  <origin>  (49) 
adg

>  <m_score__min__energy>  (49) 
-14.52

>  <m_primary>  (49) 
energy

$$$$
49:0
     RDKit          3D

 53 56  0  0  0  0  0  0  0  0999 V2000
   57.6910   24.5120   45.0710 C   0  0  0  0  0  0  0  0  0  0  0  0
   57.4100   25.9810   44.9580 C   0  0  0  0  0  0  0  0  0  0  0  0
   58.2190   26.8000   44.1630 C   0  0  0  0  0  0  0  0  0  0  0  0
   57.9760   28.1730   44.0980 C   0  0  0  0  0  0  0  0  0  0  0  0
   56.9310   28.7310   44.8640 C   0  0  0  0  0  0  0  0  0  0  0  0
   56.6630   30.0070   44.8620 N   0  0  0  0  0  0  0  0  0  0  0  0
   57.5260   31.0780   44.4480 C   0  0  0  0  0  0  0  0  0  0  0  0
   57.8300   31.1750   43.2290 O   0  0  0  0  0  0  0  0  0  0  0  0
   57.9750   32.1130   45.4060 C   0  0  0  0  0  0  0  0  0  0  0  0
   57.1030   33.0990   45.8770 C   0  0  0  0  0  0  0  0  0  0  0  0
   57.5800   34.0590   46.7660 C   0  0  0  0  0  0  0  0  0  0  0  0
   58.9130   34.0170   47.1690 C   0  0  0  0  0  0  0  0  0  0  0  0
   59.3570   34.9050   47.9480 O   0  0  0  0  0  0  0  0  0  0  0  0
   59.7290   33.0190   46.7030 N   0  0  0  0  0  0  0  0  0  0  0  0
   61.1160   32.9510   47.0730 C   0  0  0  0  0  0  0  0  0  0  0  0
   62.0430   33.7430   46.3760 C   0  0  0  0  0  0  0  0  0  0  0  0
   63.3940   33.7250   46.7260 C   0  0  0  0  0  0  0  0  0  0  0  0
   63.8340   32.9080   47.7670 C   0  0  0  0  0  0  0  0  0  0  0  0
   62.9270   32.0990   48.4560 C   0  0  0  0  0  0  0  0  0  0  0  0
   61.5630   32.1070   48.1180 C   0  0  0  0  0  0  0  0  0  0  0  0
   60.6370   31.1850   48.8150 C   0  0  0  0  0  0  0  0  0  0  0  0
   60.3410   31.4130   50.0190 O   0  0  0  0  0  0  0  0  0  0  0  0
   60.0530   30.0500   48.1440 N   0  0  0  0  0  0  0  0  0  0  0  0
   60.7410   29.3900   47.0230 C   0  0  0  0  0  0  0  0  0  0  0  0
   60.6940   27.8680   47.2040 C   0  0  0  0  0  0  0  0  0  0  0  0
   59.2710   27.3290   47.4560 C   0  0  0  0  0  0  0  0  0  0  0  0
   58.2240   28.4290   47.7010 C   0  0  0  0  0  0  0  0  0  0  0  0
   58.7680   29.5220   48.6280 C   0  0  0  0  0  0  0  0  0  0  0  0
   59.2610   32.1080   45.8460 N   0  0  0  0  0  0  0  0  0  0  0  0
   56.1570   27.9080   45.6210 N   0  0  0  0  0  0  0  0  0  0  0  0
   56.3710   26.5680   45.6910 C   0  0  0  0  0  0  0  0  0  0  0  0
   57.7450   24.2296   46.1328 H   0  0  0  0  0  0  0  0  0  0  0  0
   56.8849   23.9458   44.5816 H   0  0  0  0  0  0  0  0  0  0  0  0
   58.6492   24.2833   44.5816 H   0  0  0  0  0  0  0  0  0  0  0  0
   59.0479   26.3612   43.5882 H   0  0  0  0  0  0  0  0  0  0  0  0
   58.5949   28.8152   43.4542 H   0  0  0  0  0  0  0  0  0  0  0  0
   56.0530   33.1163   45.5494 H   0  0  0  0  0  0  0  0  0  0  0  0
   56.9099   34.8438   47.1468 H   0  0  0  0  0  0  0  0  0  0  0  0
   61.7018   34.3821   45.5483 H   0  0  0  0  0  0  0  0  0  0  0  0
   64.1118   34.3553   46.1806 H   0  0  0  0  0  0  0  0  0  0  0  0
   64.8979   32.9005   48.0463 H   0  0  0  0  0  0  0  0  0  0  0  0
   63.2835   31.4504   49.2698 H   0  0  0  0  0  0  0  0  0  0  0  0
   60.2437   29.6605   46.0799 H   0  0  0  0  0  0  0  0  0  0  0  0
   61.7903   29.7192   46.9982 H   0  0  0  0  0  0  0  0  0  0  0  0
   61.0905   27.3954   46.2933 H   0  0  0  0  0  0  0  0  0  0  0  0
   61.2969   27.6259   48.0917 H   0  0  0  0  0  0  0  0  0  0  0  0
   58.9609   26.7448   46.5771 H   0  0  0  0  0  0  0  0  0  0  0  0
   59.3166   26.7209   48.3715 H   0  0  0  0  0  0  0  0  0  0  0  0
   57.9482   28.8817   46.7372 H   0  0  0  0  0  0  0  0  0  0  0  0
   57.3471   27.9715   48.1823 H   0  0  0  0  0  0  0  0  0  0  0  0
   58.0393   30.3446   48.6767 H   0  0  0  0  0  0  0  0  0  0  0  0
   58.9290   29.0816   49.6231 H   0  0  0  0  0  0  0  0  0  0  0  0
   55.7261   25.9422   46.3254 H   0  0  0  0  0  0  0  0  0  0  0  0
  1  2  1  0
  2  3  1  0
  3  4  2  0
  4  5  1  0
  5  6  2  3
  6  7  1  0
  7  8  2  0
  7  9  1  0
  9 10  1  0
 10 11  2  0
 11 12  1  0
 12 13  2  0
 12 14  1  0
 14 15  1  0
 15 16  2  0
 16 17  1  0
 17 18  2  0
 18 19  1  0
 19 20  2  0
 20 21  1  0
 21 22  2  0
 21 23  1  0
 23 24  1  0
 24 25  1  0
 25 26  1  0
 26 27  1  0
 27 28  1  0
 14 29  1  0
  5 30  1  0
 30 31  1  0
 31  2  2  0
 29  9  2  0
 20 15  1  0
 28 23  1  0
  1 32  1  0
  1 33  1  0
  1 34  1  0
  3 35  1  0
  4 36  1  0
 10 37  1  0
 11 38  1  0
 16 39  1  0
 17 40  1  0
 18 41  1  0
 19 42  1  0
 24 43  1  0
 24 44  1  0
 25 45  1  0
 25 46  1  0
 26 47  1  0
 26 48  1  0
 27 49  1  0
 27 50  1  0
 28 51  1  0
 28 52  1  0
 31 53  1  0
M  CHG  1  30  -1
M  END
>  <UniqueID>  (50) 
42

>  <SMILES>  (50) 
Cc1ccc(=NC(=O)c2ccc(=O)n(-c3ccccc3C(=O)N3CCCCC3)n2)[n-]c1

>  <Energy>  (50) 
79.03717316435488

>  <Genealogy>  (50) 
Cc1ccc(=NC(=O)c2ccc(=O)n(-c3ccccc3C(=O)N3CCCCC3)n2)[n-]c1 (protonated)
Cc1ccc(=NC(=O)c2ccc(=O)n(-c3ccccc3C(=O)N3CCCCC3)n2)[n-]c1 (3D coordinates assigned)
Cc1ccc(=NC(=O)c2ccc(=O)n(-c3ccccc3C(=O)N3CCCCC3)n2)[n-]c1 (nonaromatic ring conformer: 79.03717316435488 kcal/mol)

>  <smiles>  (50) 
Cc1ccc(=NC(=O)c2ccc(=O)n(-c3ccccc3C(=O)N3CCCCC3)n2)[nH]c1

>  <score_type>  (50) 
oracle

>  <origin>  (50) 
adg

>  <m_score__min__energy>  (50) 
-10.98

>  <m_primary>  (50) 
energy

$$$$
50:0
     RDKit          3D

 36 38  0  0  0  0  0  0  0  0999 V2000
   59.7750   34.7920   46.2490 C   0  0  0  0  0  0  0  0  0  0  0  0
   60.9570   34.2160   46.9630 C   0  0  0  0  0  0  0  0  0  0  0  0
   62.1680   34.0880   46.3890 N   0  0  0  0  0  0  0  0  0  0  0  0
   62.9030   33.4820   47.3440 C   0  0  0  0  0  0  0  0  0  0  0  0
   64.1130   33.1810   47.1800 O   0  0  0  0  0  0  0  0  0  0  0  0
   62.2360   33.2180   48.4860 N   0  0  0  0  0  0  0  0  0  0  0  0
   61.0040   33.7050   48.2500 C   0  0  0  0  0  0  0  0  0  0  0  0
   59.9040   33.6020   49.2260 C   0  0  0  0  0  0  0  0  0  0  0  0
   59.6020   34.6300   49.8890 O   0  0  0  0  0  0  0  0  0  0  0  0
   59.1470   32.3410   49.4230 C   0  0  0  0  0  0  0  0  0  0  0  0
   58.6520   32.0870   50.5540 O   0  0  0  0  0  0  0  0  0  0  0  0
   58.9490   31.3620   48.3300 C   0  0  0  0  0  0  0  0  0  0  0  0
   58.5220   31.7660   47.0540 C   0  0  0  0  0  0  0  0  0  0  0  0
   58.3560   30.8260   46.0320 C   0  0  0  0  0  0  0  0  0  0  0  0
   58.6270   29.4690   46.2650 C   0  0  0  0  0  0  0  0  0  0  0  0
   58.4140   28.4510   45.1750 C   0  0  0  0  0  0  0  0  0  0  0  0
   57.5240   27.3300   45.6630 C   0  0  0  0  0  0  0  0  0  0  0  0
   56.1230   27.4570   45.6510 C   0  0  0  0  0  0  0  0  0  0  0  0
   55.5190   28.6340   45.2230 O   0  0  0  0  0  0  0  0  0  0  0  0
   55.3430   26.4260   46.0620 N   0  0  0  0  0  0  0  0  0  0  0  0
   55.8890   25.2580   46.4860 C   0  0  0  0  0  0  0  0  0  0  0  0
   55.1440   24.3160   46.8630 O   0  0  0  0  0  0  0  0  0  0  0  0
   57.2360   25.1050   46.5030 N   0  0  0  0  0  0  0  0  0  0  0  0
   58.0630   26.1050   46.1020 C   0  0  0  0  0  0  0  0  0  0  0  0
   59.3090   25.9220   46.1300 O   0  0  0  0  0  0  0  0  0  0  0  0
   59.0670   29.0650   47.5350 C   0  0  0  0  0  0  0  0  0  0  0  0
   59.2350   30.0060   48.5570 C   0  0  0  0  0  0  0  0  0  0  0  0
   59.0405   35.1500   46.9854 H   0  0  0  0  0  0  0  0  0  0  0  0
   60.1012   35.6321   45.6183 H   0  0  0  0  0  0  0  0  0  0  0  0
   59.3143   34.0174   45.6183 H   0  0  0  0  0  0  0  0  0  0  0  0
   58.3169   32.8287   46.8575 H   0  0  0  0  0  0  0  0  0  0  0  0
   58.0110   31.1522   45.0397 H   0  0  0  0  0  0  0  0  0  0  0  0
   57.9397   28.9396   44.3111 H   0  0  0  0  0  0  0  0  0  0  0  0
   59.3885   28.0309   44.8856 H   0  0  0  0  0  0  0  0  0  0  0  0
   59.2809   28.0034   47.7280 H   0  0  0  0  0  0  0  0  0  0  0  0
   59.5935   29.6813   49.5449 H   0  0  0  0  0  0  0  0  0  0  0  0
  1  2  1  0
  2  3  1  0
  3  4  1  0
  4  5  2  0
  4  6  1  0
  6  7  1  0
  7  8  1  0
  8  9  2  0
  8 10  1  0
 10 11  2  0
 10 12  1  0
 12 13  2  0
 13 14  1  0
 14 15  2  0
 15 16  1  0
 16 17  1  0
 17 18  2  0
 18 19  1  0
 18 20  1  0
 20 21  1  0
 21 22  2  0
 21 23  1  0
 23 24  1  0
 24 25  2  0
 15 26  1  0
 26 27  2  0
  7  2  2  0
 27 12  1  0
 24 17  1  0
  1 28  1  0
  1 29  1  0
  1 30  1  0
 13 31  1  0
 14 32  1  0
 16 33  1  0
 16 34  1  0
 26 35  1  0
 27 36  1  0
M  CHG  5   3  -1   6  -1  19  -1  20  -1  23  -1
M  END
>  <UniqueID>  (51) 
43

>  <SMILES>  (51) 
Cc1[n-]c(=O)[n-]c1C(=O)C(=O)c1ccc(Cc2c([O-])[n-]c(=O)[n-]c2=O)cc1

>  <Energy>  (51) 
77.46433081747566

>  <Genealogy>  (51) 
Cc1[n-]c(=O)[n-]c1C(=O)C(=O)c1ccc(Cc2c([O-])[n-]c(=O)[n-]c2=O)cc1 (protonated)
Cc1[n-]c(=O)[n-]c1C(=O)C(=O)c1ccc(Cc2c([O-])[n-]c(=O)[n-]c2=O)cc1 (3D coordinates assigned)
Cc1[n-]c(=O)[n-]c1C(=O)C(=O)c1ccc(Cc2c([O-])[n-]c(=O)[n-]c2=O)cc1 (optimized conformer: 77.46433081747566 kcal/mol)

>  <smiles>  (51) 
Cc1[nH]c(=O)[nH]c1C(=O)C(=O)c1ccc(Cc2c(O)[nH]c(=O)[nH]c2=O)cc1

>  <score_type>  (51) 
oracle

>  <origin>  (51) 
adg

>  <m_score__min__energy>  (51) 
-16.75

>  <m_primary>  (51) 
energy

$$$$
51:0
     RDKit          3D

 46 48  0  0  0  0  0  0  0  0999 V2000
   57.2619   32.5317   43.6406 H   0  0  0  0  0  0  0  0  0  0  0  0
   57.8120   32.8780   44.5280 C   0  0  0  0  0  0  0  0  0  0  0  0
   58.2290   34.4740   44.8680 S   0  0  0  0  0  0  0  0  0  0  0  0
   58.9840   34.0710   46.3080 C   0  0  0  0  0  0  0  0  0  0  0  0
   59.5670   34.9290   47.0880 N   0  0  0  0  0  0  0  0  0  0  0  0
   60.0230   34.6220   48.4420 C   0  0  0  0  0  0  0  0  0  0  0  0
   59.2564   34.0218   48.9538 H   0  0  0  0  0  0  0  0  0  0  0  0
   60.1913   35.5660   48.9811 H   0  0  0  0  0  0  0  0  0  0  0  0
   61.3160   33.8470   48.4060 C   0  0  0  0  0  0  0  0  0  0  0  0
   61.9880   33.7720   49.4270 O   0  0  0  0  0  0  0  0  0  0  0  0
   61.7480   33.1740   47.1950 N   0  0  0  0  0  0  0  0  0  0  0  0
   61.0210   33.2810   46.4480 H   0  0  0  0  0  0  0  0  0  0  0  0
   63.0000   33.7600   46.6890 C   0  0  0  0  0  0  0  0  0  0  0  0
   63.6347   34.0571   47.5369 H   0  0  0  0  0  0  0  0  0  0  0  0
   63.5312   33.0170   46.0760 H   0  0  0  0  0  0  0  0  0  0  0  0
   62.7697   34.6439   46.0760 H   0  0  0  0  0  0  0  0  0  0  0  0
   61.9200   31.7360   47.4560 C   0  0  0  0  0  0  0  0  0  0  0  0
   61.9410   31.5603   48.5417 H   0  0  0  0  0  0  0  0  0  0  0  0
   61.0820   31.1797   47.0107 H   0  0  0  0  0  0  0  0  0  0  0  0
   62.8656   31.3930   47.0107 H   0  0  0  0  0  0  0  0  0  0  0  0
   58.9300   32.7450   46.5560 N   0  0  0  0  0  0  0  0  0  0  0  0
   58.2850   32.0660   45.5680 C   0  0  0  0  0  0  0  0  0  0  0  0
   58.1310   30.5890   45.6270 C   0  0  0  0  0  0  0  0  0  0  0  0
   58.8830   29.8010   46.5210 C   0  0  0  0  0  0  0  0  0  0  0  0
   59.6185   30.2798   47.1842 H   0  0  0  0  0  0  0  0  0  0  0  0
   58.7020   28.4160   46.5720 C   0  0  0  0  0  0  0  0  0  0  0  0
   59.3042   27.8135   47.2680 H   0  0  0  0  0  0  0  0  0  0  0  0
   57.7640   27.7890   45.7480 C   0  0  0  0  0  0  0  0  0  0  0  0
   57.6230   26.3960   45.8370 O   0  0  0  0  0  0  0  0  0  0  0  0
   56.4330   25.6830   45.6260 C   0  0  0  0  0  0  0  0  0  0  0  0
   55.3280   26.1560   46.0120 O   0  0  0  0  0  0  0  0  0  0  0  0
   56.4840   24.3430   45.0030 C   0  0  0  0  0  0  0  0  0  0  0  0
   56.3970   23.1860   45.7980 C   0  0  0  0  0  0  0  0  0  0  0  0
   56.2945   23.2792   46.8892 H   0  0  0  0  0  0  0  0  0  0  0  0
   56.4400   21.9180   45.2100 C   0  0  0  0  0  0  0  0  0  0  0  0
   56.3689   21.0186   45.8393 H   0  0  0  0  0  0  0  0  0  0  0  0
   56.5730   21.7910   43.8260 C   0  0  0  0  0  0  0  0  0  0  0  0
   56.6108   20.7923   43.3664 H   0  0  0  0  0  0  0  0  0  0  0  0
   56.6580   22.9320   43.0250 C   0  0  0  0  0  0  0  0  0  0  0  0
   56.7613   22.8310   41.9345 H   0  0  0  0  0  0  0  0  0  0  0  0
   56.6120   24.2020   43.6070 C   0  0  0  0  0  0  0  0  0  0  0  0
   56.6761   25.0972   42.9710 H   0  0  0  0  0  0  0  0  0  0  0  0
   57.0260   28.5640   44.8380 C   0  0  0  0  0  0  0  0  0  0  0  0
   56.3069   28.0779   44.1623 H   0  0  0  0  0  0  0  0  0  0  0  0
   57.2010   29.9500   44.7870 C   0  0  0  0  0  0  0  0  0  0  0  0
   56.6047   30.5478   44.0820 H   0  0  0  0  0  0  0  0  0  0  0  0
  1  2  1  0
  2  3  1  0
  3  4  1  0
  4  5  2  0
  5  6  1  0
  6  7  1  0
  6  8  1  0
  6  9  1  0
  9 10  2  0
  9 11  1  0
 11 12  1  0
 11 13  1  0
 13 14  1  0
 13 15  1  0
 13 16  1  0
 11 17  1  0
 17 18  1  0
 17 19  1  0
 17 20  1  0
  4 21  1  0
 21 22  1  0
 22 23  1  0
 23 24  2  0
 24 25  1  0
 24 26  1  0
 26 27  1  0
 26 28  2  0
 28 29  1  0
 29 30  1  0
 30 31  2  0
 30 32  1  0
 32 33  2  0
 33 34  1  0
 33 35  1  0
 35 36  1  0
 35 37  2  0
 37 38  1  0
 37 39  1  0
 39 40  1  0
 39 41  2  0
 41 42  1  0
 28 43  1  0
 43 44  1  0
 43 45  2  0
 45 46  1  0
 22  2  2  0
 45 23  1  0
 41 32  1  0
M  CHG  2  11   1  21  -1
M  END
>  <UniqueID>  (52) 
44

>  <SMILES>  (52) 
C[NH+](C)C(=O)C/N=c1\[n-]c(-c2ccc(OC(=O)c3ccccc3)cc2)cs1

>  <Energy>  (52) 
82.01967890817066

>  <Genealogy>  (52) 
C[NH+](C)C(=O)CN=c1[n-]c(-c2ccc(OC(=O)c3ccccc3)cc2)cs1 (protonated)
C[NH+](C)C(=O)C/N=c1\[n-]c(-c2ccc(OC(=O)c3ccccc3)cc2)cs1 (cis-trans isomerization)
C[NH+](C)C(=O)C/N=c1\[n-]c(-c2ccc(OC(=O)c3ccccc3)cc2)cs1 (3D coordinates assigned)
C[NH+](C)C(=O)C/N=c1\[n-]c(-c2ccc(OC(=O)c3ccccc3)cc2)cs1 (optimized conformer: 82.01967890817066 kcal/mol)

>  <smiles>  (52) 
CN(C)C(=O)CN=c1[nH]c(-c2ccc(OC(=O)c3ccccc3)cc2)cs1

>  <score_type>  (52) 
oracle

>  <origin>  (52) 
adg

>  <m_score__min__energy>  (52) 
-8.3399999999999999

>  <m_primary>  (52) 
energy

$$$$
52:0
     RDKit          3D

 55 58  0  0  0  0  0  0  0  0999 V2000
   58.7637   34.9336   45.3028 H   0  0  0  0  0  0  0  0  0  0  0  0
   58.1730   34.0470   45.0290 C   0  0  0  0  0  0  0  0  0  0  0  0
   57.1096   34.1535   44.7684 H   0  0  0  0  0  0  0  0  0  0  0  0
   58.7460   32.8430   45.0130 C   0  0  0  0  0  0  0  0  0  0  0  0
   59.8112   32.7767   45.2795 H   0  0  0  0  0  0  0  0  0  0  0  0
   58.0400   31.5870   44.6590 C   0  0  0  0  0  0  0  0  0  0  0  0
   56.6490   31.6340   44.4610 C   0  0  0  0  0  0  0  0  0  0  0  0
   56.1151   32.5896   44.5689 H   0  0  0  0  0  0  0  0  0  0  0  0
   55.9400   30.4800   44.1290 C   0  0  0  0  0  0  0  0  0  0  0  0
   54.8500   30.5280   43.9887 H   0  0  0  0  0  0  0  0  0  0  0  0
   56.6080   29.2640   43.9740 C   0  0  0  0  0  0  0  0  0  0  0  0
   56.0406   28.3540   43.7290 H   0  0  0  0  0  0  0  0  0  0  0  0
   58.0030   29.1990   44.1300 C   0  0  0  0  0  0  0  0  0  0  0  0
   58.7130   27.9560   43.9840 N   0  0  0  0  0  0  0  0  0  0  0  0
   59.5360   27.9310   43.3390 H   0  0  0  0  0  0  0  0  0  0  0  0
   58.3380   26.7320   44.6430 C   0  0  0  0  0  0  0  0  0  0  0  0
   57.7500   25.6910   43.9020 C   0  0  0  0  0  0  0  0  0  0  0  0
   57.5288   25.8392   42.8347 H   0  0  0  0  0  0  0  0  0  0  0  0
   57.4450   24.4730   44.5080 C   0  0  0  0  0  0  0  0  0  0  0  0
   56.9769   23.6691   43.9210 H   0  0  0  0  0  0  0  0  0  0  0  0
   57.7330   24.2730   45.8580 C   0  0  0  0  0  0  0  0  0  0  0  0
   57.4899   23.3119   46.3347 H   0  0  0  0  0  0  0  0  0  0  0  0
   58.3290   25.2900   46.6050 C   0  0  0  0  0  0  0  0  0  0  0  0
   58.5537   25.1248   47.6690 H   0  0  0  0  0  0  0  0  0  0  0  0
   58.6450   26.5250   46.0090 C   0  0  0  0  0  0  0  0  0  0  0  0
   59.2400   27.6030   46.8340 C   0  0  0  0  0  0  0  0  0  0  0  0
   60.4630   27.5420   47.1360 O   0  0  0  0  0  0  0  0  0  0  0  0
   58.4460   28.7280   47.2530 N   0  0  0  0  0  0  0  0  0  0  0  0
   57.4960   28.8550   46.8370 H   0  0  0  0  0  0  0  0  0  0  0  0
   58.9050   29.7350   48.1710 C   0  0  0  0  0  0  0  0  0  0  0  0
   59.4720   29.3920   49.4100 C   0  0  0  0  0  0  0  0  0  0  0  0
   59.5780   28.3336   49.6903 H   0  0  0  0  0  0  0  0  0  0  0  0
   59.9010   30.3900   50.2860 C   0  0  0  0  0  0  0  0  0  0  0  0
   60.3608   30.1150   51.2467 H   0  0  0  0  0  0  0  0  0  0  0  0
   59.7490   31.7360   49.9480 C   0  0  0  0  0  0  0  0  0  0  0  0
   60.1054   32.5153   50.6377 H   0  0  0  0  0  0  0  0  0  0  0  0
   59.1450   32.1030   48.7350 C   0  0  0  0  0  0  0  0  0  0  0  0
   59.0040   33.5470   48.4230 C   0  0  0  0  0  0  0  0  0  0  0  0
   58.0233   34.0196   48.5805 H   0  0  0  0  0  0  0  0  0  0  0  0
   60.0080   34.3080   47.9590 C   0  0  0  0  0  0  0  0  0  0  0  0
   59.7555   35.2719   47.4929 H   0  0  0  0  0  0  0  0  0  0  0  0
   61.4390   33.9230   48.0390 C   0  0  0  0  0  0  0  0  0  0  0  0
   62.1250   34.1130   49.2500 C   0  0  0  0  0  0  0  0  0  0  0  0
   61.5993   34.5484   50.1126 H   0  0  0  0  0  0  0  0  0  0  0  0
   63.4330   33.7630   49.3640 N   0  0  0  0  0  0  0  0  0  0  0  0
   64.1200   33.2140   48.3290 C   0  0  0  0  0  0  0  0  0  0  0  0
   65.1801   32.9475   48.4523 H   0  0  0  0  0  0  0  0  0  0  0  0
   63.4810   32.9880   47.1090 C   0  0  0  0  0  0  0  0  0  0  0  0
   64.0308   32.5376   46.2694 H   0  0  0  0  0  0  0  0  0  0  0  0
   62.1370   33.3390   46.9640 C   0  0  0  0  0  0  0  0  0  0  0  0
   61.6226   33.1590   46.0085 H   0  0  0  0  0  0  0  0  0  0  0  0
   58.7300   31.0890   47.8470 C   0  0  0  0  0  0  0  0  0  0  0  0
   58.2636   31.3628   46.8891 H   0  0  0  0  0  0  0  0  0  0  0  0
   58.7100   30.3590   44.4850 C   0  0  0  0  0  0  0  0  0  0  0  0
   59.7994   30.3089   44.6290 H   0  0  0  0  0  0  0  0  0  0  0  0
  1  2  1  0
  2  3  1  0
  2  4  2  0
  4  5  1  0
  4  6  1  0
  6  7  2  0
  7  8  1  0
  7  9  1  0
  9 10  1  0
  9 11  2  0
 11 12  1  0
 11 13  1  0
 13 14  1  0
 14 15  1  0
 14 16  1  0
 16 17  2  0
 17 18  1  0
 17 19  1  0
 19 20  1  0
 19 21  2  0
 21 22  1  0
 21 23  1  0
 23 24  1  0
 23 25  2  0
 25 26  1  0
 26 27  2  0
 26 28  1  0
 28 29  1  0
 28 30  1  0
 30 31  2  0
 31 32  1  0
 31 33  1  0
 33 34  1  0
 33 35  2  0
 35 36  1  0
 35 37  1  0
 37 38  1  0
 38 39  1  0
 38 40  2  0
 40 41  1  0
 40 42  1  0
 42 43  2  0
 43 44  1  0
 43 45  1  0
 45 46  2  0
 46 47  1  0
 46 48  1  0
 48 49  1  0
 48 50  2  0
 50 51  1  0
 37 52  2  0
 52 53  1  0
 13 54  2  0
 54 55  1  0
 54  6  1  0
 25 16  1  0
 52 30  1  0
 50 42  1  0
M  END
>  <UniqueID>  (53) 
45

>  <SMILES>  (53) 
C=Cc1cccc(Nc2ccccc2C(=O)Nc2cccc(/C=C/c3cccnc3)c2)c1

>  <Energy>  (53) 
81.29031645458485

>  <Genealogy>  (53) 
C=Cc1cccc(Nc2ccccc2C(=O)Nc2cccc(/C=C/c3cccnc3)c2)c1 (cis-trans isomerization)
C=Cc1cccc(Nc2ccccc2C(=O)Nc2cccc(/C=C/c3cccnc3)c2)c1 (3D coordinates assigned)
C=Cc1cccc(Nc2ccccc2C(=O)Nc2cccc(/C=C/c3cccnc3)c2)c1 (optimized conformer: 81.29031645458485 kcal/mol)

>  <smiles>  (53) 
C=Cc1cccc(Nc2ccccc2C(=O)Nc2cccc(C=Cc3cccnc3)c2)c1

>  <score_type>  (53) 
oracle

>  <origin>  (53) 
adg

>  <m_score__min__energy>  (53) 
-9.6600000000000001

>  <m_primary>  (53) 
energy

$$$$
53:0
     RDKit          3D

 55 59  0  0  0  0  0  0  0  0999 V2000
   58.9990   23.6570   45.9930 H   0  0  0  0  0  0  0  0  0  0  0  0
   58.4550   24.0580   46.7460 O   0  0  0  0  0  0  0  0  0  0  0  0
   57.5340   25.0790   46.5260 C   0  0  0  0  0  0  0  0  0  0  0  0
   56.2200   24.8580   46.3630 N   0  0  0  0  0  0  0  0  0  0  0  0
   55.7260   26.1010   46.1830 C   0  0  0  0  0  0  0  0  0  0  0  0
   54.5030   26.3240   45.9960 O   0  0  0  0  0  0  0  0  0  0  0  0
   56.6480   27.0850   46.2260 N   0  0  0  0  0  0  0  0  0  0  0  0
   57.8050   26.4300   46.4340 C   0  0  0  0  0  0  0  0  0  0  0  0
   59.1230   27.0730   46.6290 C   0  0  0  0  0  0  0  0  0  0  0  0
   59.9906   26.6158   46.1308 H   0  0  0  0  0  0  0  0  0  0  0  0
   59.3410   28.1780   47.3720 C   0  0  0  0  0  0  0  0  0  0  0  0
   58.8360   28.4500   48.6400 C   0  0  0  0  0  0  0  0  0  0  0  0
   58.1875   27.7962   49.2418 H   0  0  0  0  0  0  0  0  0  0  0  0
   59.3050   29.6970   48.9970 C   0  0  0  0  0  0  0  0  0  0  0  0
   58.9620   30.3920   50.2790 C   0  0  0  0  0  0  0  0  0  0  0  0
   59.2708   29.7662   51.1293 H   0  0  0  0  0  0  0  0  0  0  0  0
   59.4871   31.3575   50.3245 H   0  0  0  0  0  0  0  0  0  0  0  0
   57.8763   30.5626   50.3245 H   0  0  0  0  0  0  0  0  0  0  0  0
   60.0470   30.2240   48.0000 N   0  0  0  0  0  0  0  0  0  0  0  0
   60.7220   31.4960   48.0240 C   0  0  0  0  0  0  0  0  0  0  0  0
   62.0060   31.5670   48.5870 C   0  0  0  0  0  0  0  0  0  0  0  0
   62.5770   30.4590   49.1230 F   0  0  0  0  0  0  0  0  0  0  0  0
   62.7090   32.7720   48.5920 C   0  0  0  0  0  0  0  0  0  0  0  0
   63.7100   32.8224   49.0453 H   0  0  0  0  0  0  0  0  0  0  0  0
   62.1440   33.9120   48.0230 C   0  0  0  0  0  0  0  0  0  0  0  0
   62.7050   34.8582   48.0176 H   0  0  0  0  0  0  0  0  0  0  0  0
   60.8680   33.8560   47.4600 C   0  0  0  0  0  0  0  0  0  0  0  0
   60.4367   34.7574   47.0000 H   0  0  0  0  0  0  0  0  0  0  0  0
   60.1270   32.6600   47.4740 C   0  0  0  0  0  0  0  0  0  0  0  0
   58.7670   32.6420   46.8760 C   0  0  0  0  0  0  0  0  0  0  0  0
   57.7570   32.7260   47.6240 O   0  0  0  0  0  0  0  0  0  0  0  0
   58.5770   32.5290   45.4520 N   0  0  0  0  0  0  0  0  0  0  0  0
   57.8470   31.4960   44.8030 C   0  0  0  0  0  0  0  0  0  0  0  0
   57.4000   30.2910   45.3620 C   0  0  0  0  0  0  0  0  0  0  0  0
   57.5781   30.0623   46.4231 H   0  0  0  0  0  0  0  0  0  0  0  0
   56.7190   29.3820   44.5350 C   0  0  0  0  0  0  0  0  0  0  0  0
   56.3469   28.4345   44.9520 H   0  0  0  0  0  0  0  0  0  0  0  0
   56.5110   29.6790   43.1750 C   0  0  0  0  0  0  0  0  0  0  0  0
   55.9734   28.9648   42.5340 H   0  0  0  0  0  0  0  0  0  0  0  0
   56.9870   30.8830   42.6340 C   0  0  0  0  0  0  0  0  0  0  0  0
   56.8352   31.1207   41.5708 H   0  0  0  0  0  0  0  0  0  0  0  0
   57.6580   31.7730   43.4760 C   0  0  0  0  0  0  0  0  0  0  0  0
   58.2690   33.0790   43.1160 C   0  0  0  0  0  0  0  0  0  0  0  0
   59.0424   32.9522   42.3441 H   0  0  0  0  0  0  0  0  0  0  0  0
   57.5434   33.7912   42.6962 H   0  0  0  0  0  0  0  0  0  0  0  0
   58.8940   33.5670   44.4560 C   0  0  1  0  0  0  0  0  0  0  0  0
   59.9804   33.7096   44.3592 H   0  0  0  0  0  0  0  0  0  0  0  0
   58.3290   34.9280   44.8730 C   0  0  0  0  0  0  0  0  0  0  0  0
   58.3020   34.9930   45.9707 H   0  0  0  0  0  0  0  0  0  0  0  0
   58.9691   35.7286   44.4739 H   0  0  0  0  0  0  0  0  0  0  0  0
   57.3101   35.0399   44.4739 H   0  0  0  0  0  0  0  0  0  0  0  0
   60.0930   29.3020   47.0080 C   0  0  0  0  0  0  0  0  0  0  0  0
   60.7690   29.4780   45.8610 C   0  0  0  0  0  0  0  0  0  0  0  0
   61.3265   30.4105   45.6887 H   0  0  0  0  0  0  0  0  0  0  0  0
   60.7652   28.6897   45.0938 H   0  0  0  0  0  0  0  0  0  0  0  0
  1  2  1  0
  2  3  1  0
  3  4  1  0
  4  5  1  0
  5  6  2  0
  5  7  1  0
  7  8  1  0
  8  9  1  0
  9 10  1  0
  9 11  2  0
 11 12  1  0
 12 13  1  0
 12 14  2  0
 14 15  1  0
 15 16  1  0
 15 17  1  0
 15 18  1  0
 14 19  1  0
 19 20  1  0
 20 21  2  0
 21 22  1  0
 21 23  1  0
 23 24  1  0
 23 25  2  0
 25 26  1  0
 25 27  1  0
 27 28  1  0
 27 29  2  0
 29 30  1  0
 30 31  2  0
 30 32  1  0
 32 33  1  0
 33 34  2  0
 34 35  1  0
 34 36  1  0
 36 37  1  0
 36 38  2  0
 38 39  1  0
 38 40  1  0
 40 41  1  0
 40 42  2  0
 42 43  1  0
 43 44  1  0
 43 45  1  0
 43 46  1  0
 46 47  1  6
 46 48  1  0
 48 49  1  0
 48 50  1  0
 48 51  1  0
 19 52  1  0
 52 53  2  0
 53 54  1  0
 53 55  1  0
  8  3  2  0
 52 11  1  0
 29 20  1  0
 46 32  1  0
 42 33  1  0
M  CHG  2   4  -1   7  -1
M  END
>  <UniqueID>  (54) 
46

>  <SMILES>  (54) 
C=c1/c(=C/c2[n-]c(=O)[n-]c2O)cc(C)n1-c1c(F)cccc1C(=O)N1c2ccccc2C[C@H]1C

>  <Energy>  (54) 
149.0976932245909

>  <Genealogy>  (54) 
C=c1c(=Cc2[n-]c(=O)[n-]c2O)cc(C)n1-c1c(F)cccc1C(=O)N1c2ccccc2CC1C (protonated)
C=c1c(=Cc2[n-]c(=O)[n-]c2O)cc(C)n1-c1c(F)cccc1C(=O)N1c2ccccc2C[C@H]1C (chirality)
C=c1/c(=C/c2[n-]c(=O)[n-]c2O)cc(C)n1-c1c(F)cccc1C(=O)N1c2ccccc2C[C@H]1C (cis-trans isomerization)
C=c1/c(=C/c2[n-]c(=O)[n-]c2O)cc(C)n1-c1c(F)cccc1C(=O)N1c2ccccc2C[C@H]1C (3D coordinates assigned)
C=c1/c(=C/c2[n-]c(=O)[n-]c2O)cc(C)n1-c1c(F)cccc1C(=O)N1c2ccccc2C[C@H]1C (nonaromatic ring conformer: 149.0976932245909 kcal/mol)

>  <smiles>  (54) 
C=c1c(=Cc2[nH]c(=O)[nH]c2O)cc(C)n1-c1c(F)cccc1C(=O)N1c2ccccc2CC1C

>  <score_type>  (54) 
oracle

>  <origin>  (54) 
adg

>  <m_score__min__energy>  (54) 
-14.94

>  <m_primary>  (54) 
energy

$$$$
54:0
     RDKit          3D

 60 63  0  0  0  0  0  0  0  0999 V2000
   60.1350   28.0250   46.7520 C   0  0  0  0  0  0  0  0  0  0  0  0
   59.2590   28.8390   46.1390 C   0  0  0  0  0  0  0  0  0  0  0  0
   58.0860   28.4490   45.4720 C   0  0  0  0  0  0  0  0  0  0  0  0
   57.6480   27.2340   45.0860 C   0  0  0  0  0  0  0  0  0  0  0  0
   57.1780   26.1660   45.9820 C   0  0  0  0  0  0  0  0  0  0  0  0
   57.9460   25.1620   46.4480 N   0  0  0  0  0  0  0  0  0  0  0  0
   57.0650   24.3760   47.1030 C   0  0  0  0  0  0  0  0  0  0  0  0
   57.4100   23.3230   47.6990 O   0  0  0  0  0  0  0  0  0  0  0  0
   55.7840   24.8000   47.0580 N   0  0  0  0  0  0  0  0  0  0  0  0
   55.8730   25.9250   46.3330 C   0  0  0  0  0  0  0  0  0  0  0  0
   54.7820   26.7140   45.9920 O   0  0  0  0  0  0  0  0  0  0  0  0
   57.3870   29.6110   45.2040 C   0  0  0  0  0  0  0  0  0  0  0  0
   58.1690   30.6590   45.6400 C   0  0  0  0  0  0  0  0  0  0  0  0
   57.8140   32.1050   45.4660 C   0  0  0  0  0  0  0  0  0  0  0  0
   59.3110   30.1990   46.2060 N   0  0  0  0  0  0  0  0  0  0  0  0
   60.3920   31.0460   46.7400 C   0  0  0  0  0  0  0  0  0  0  0  0
   60.0210   31.5810   48.0980 C   0  0  0  0  0  0  0  0  0  0  0  0
   59.9040   32.9650   48.3110 C   0  0  0  0  0  0  0  0  0  0  0  0
   59.5680   33.4600   49.5750 C   0  0  0  0  0  0  0  0  0  0  0  0
   59.3500   32.5790   50.6420 C   0  0  0  0  0  0  0  0  0  0  0  0
   58.8950   33.2110   52.2220 S   0  0  0  0  0  0  0  0  0  0  0  0
   59.9860   32.9260   53.2170 O   0  0  0  0  0  0  0  0  0  0  0  0
   58.7210   34.7010   52.1170 O   0  0  0  0  0  0  0  0  0  0  0  0
   57.3970   32.4790   52.7450 N   0  0  0  0  0  0  0  0  0  0  0  0
   56.6440   31.9660   51.5790 C   0  0  0  0  0  0  0  0  0  0  0  0
   55.6920   30.8390   51.9850 C   0  0  0  0  0  0  0  0  0  0  0  0
   56.4690   29.6870   52.4810 N   0  0  0  0  0  0  0  0  0  0  0  0
   55.6530   28.5710   53.0090 C   0  0  0  0  0  0  0  0  0  0  0  0
   54.4160   28.9950   53.8220 C   0  0  0  0  0  0  0  0  0  0  0  0
   54.6930   30.1130   54.6160 O   0  0  0  0  0  0  0  0  0  0  0  0
   57.6740   30.0300   53.2730 C   0  0  0  0  0  0  0  0  0  0  0  0
   57.6340   31.4730   53.8100 C   0  0  0  0  0  0  0  0  0  0  0  0
   59.4590   31.1980   50.4320 C   0  0  0  0  0  0  0  0  0  0  0  0
   59.7930   30.7020   49.1690 C   0  0  0  0  0  0  0  0  0  0  0  0
   61.0242   28.4451   47.2447 H   0  0  0  0  0  0  0  0  0  0  0  0
   59.9628   26.9386   46.7611 H   0  0  0  0  0  0  0  0  0  0  0  0
   57.6414   27.0226   44.0065 H   0  0  0  0  0  0  0  0  0  0  0  0
   56.3958   29.6852   44.7327 H   0  0  0  0  0  0  0  0  0  0  0  0
   57.6985   32.5756   46.4535 H   0  0  0  0  0  0  0  0  0  0  0  0
   58.6138   32.6144   44.9084 H   0  0  0  0  0  0  0  0  0  0  0  0
   56.8693   32.1861   44.9084 H   0  0  0  0  0  0  0  0  0  0  0  0
   61.3116   30.4484   46.8252 H   0  0  0  0  0  0  0  0  0  0  0  0
   60.5518   31.8923   46.0557 H   0  0  0  0  0  0  0  0  0  0  0  0
   60.0777   33.6630   47.4788 H   0  0  0  0  0  0  0  0  0  0  0  0
   59.4746   34.5447   49.7319 H   0  0  0  0  0  0  0  0  0  0  0  0
   56.0597   32.7880   51.1398 H   0  0  0  0  0  0  0  0  0  0  0  0
   57.3635   31.5670   50.8489 H   0  0  0  0  0  0  0  0  0  0  0  0
   55.0200   31.1962   52.7793 H   0  0  0  0  0  0  0  0  0  0  0  0
   55.0993   30.5300   51.1114 H   0  0  0  0  0  0  0  0  0  0  0  0
   55.3098   27.9665   52.1565 H   0  0  0  0  0  0  0  0  0  0  0  0
   56.3022   28.0185   53.7041 H   0  0  0  0  0  0  0  0  0  0  0  0
   53.5978   29.2406   53.1290 H   0  0  0  0  0  0  0  0  0  0  0  0
   54.1288   28.1619   54.4804 H   0  0  0  0  0  0  0  0  0  0  0  0
   55.5670   30.4650   54.3030 H   0  0  0  0  0  0  0  0  0  0  0  0
   57.7451   29.3380   54.1251 H   0  0  0  0  0  0  0  0  0  0  0  0
   58.5468   29.9439   52.6091 H   0  0  0  0  0  0  0  0  0  0  0  0
   56.8249   31.5494   54.5513 H   0  0  0  0  0  0  0  0  0  0  0  0
   58.6174   31.6875   54.2539 H   0  0  0  0  0  0  0  0  0  0  0  0
   59.2810   30.5015   51.2646 H   0  0  0  0  0  0  0  0  0  0  0  0
   59.8778   29.6164   49.0129 H   0  0  0  0  0  0  0  0  0  0  0  0
  1  2  2  0
  2  3  1  0
  3  4  2  3
  4  5  1  0
  5  6  1  0
  6  7  1  0
  7  8  2  0
  7  9  1  0
  9 10  1  0
 10 11  1  0
  3 12  1  0
 12 13  2  0
 13 14  1  0
 13 15  1  0
 15 16  1  0
 16 17  1  0
 17 18  2  0
 18 19  1  0
 19 20  2  0
 20 21  1  0
 21 22  2  0
 21 23  2  0
 21 24  1  0
 24 25  1  0
 25 26  1  0
 26 27  1  0
 27 28  1  0
 28 29  1  0
 29 30  1  0
 27 31  1  0
 31 32  1  0
 20 33  1  0
 33 34  2  0
 15  2  1  0
 34 17  1  0
 10  5  2  0
 32 24  1  0
  1 35  1  0
  1 36  1  0
  4 37  1  0
 12 38  1  0
 14 39  1  0
 14 40  1  0
 14 41  1  0
 16 42  1  0
 16 43  1  0
 18 44  1  0
 19 45  1  0
 25 46  1  0
 25 47  1  0
 26 48  1  0
 26 49  1  0
 28 50  1  0
 28 51  1  0
 29 52  1  0
 29 53  1  0
 30 54  1  0
 31 55  1  0
 31 56  1  0
 32 57  1  0
 32 58  1  0
 33 59  1  0
 34 60  1  0
M  CHG  3   6  -1   9  -1  11  -1
M  END
>  <UniqueID>  (55) 
47

>  <SMILES>  (55) 
C=c1c(=Cc2[n-]c(=O)[n-]c2[O-])cc(C)n1Cc1ccc(S(=O)(=O)N2CCN(CCO)CC2)cc1

>  <Energy>  (55) 
144.83875866189695

>  <Genealogy>  (55) 
C=c1c(=Cc2[n-]c(=O)[n-]c2[O-])cc(C)n1Cc1ccc(S(=O)(=O)N2CCN(CCO)CC2)cc1 (protonated)
C=c1c(=Cc2[n-]c(=O)[n-]c2[O-])cc(C)n1Cc1ccc(S(=O)(=O)N2CCN(CCO)CC2)cc1 (3D coordinates assigned)
C=c1c(=Cc2[n-]c(=O)[n-]c2[O-])cc(C)n1Cc1ccc(S(=O)(=O)N2CCN(CCO)CC2)cc1 (nonaromatic ring conformer: 144.83875866189695 kcal/mol)

>  <smiles>  (55) 
C=c1c(=Cc2[nH]c(=O)[nH]c2O)cc(C)n1Cc1ccc(S(=O)(=O)N2CCN(CCO)CC2)cc1

>  <score_type>  (55) 
oracle

>  <origin>  (55) 
adg

>  <m_score__min__energy>  (55) 
-18.120000000000001

>  <m_primary>  (55) 
energy

$$$$
55:0
     RDKit          3D

 41 43  0  0  0  0  0  0  0  0999 V2000
   57.8540   27.0480   43.2370 C   0  0  0  0  0  0  0  0  0  0  0  0
   57.8850   27.2810   44.5580 C   0  0  0  0  0  0  0  0  0  0  0  0
   57.7040   26.3320   45.5700 C   0  0  0  0  0  0  0  0  0  0  0  0
   57.3810   25.0320   45.4240 C   0  0  0  0  0  0  0  0  0  0  0  0
   55.9870   24.5470   45.3090 C   0  0  0  0  0  0  0  0  0  0  0  0
   54.9190   25.4120   45.5870 C   0  0  0  0  0  0  0  0  0  0  0  0
   55.1530   26.7180   46.0040 O   0  0  0  0  0  0  0  0  0  0  0  0
   53.6390   24.9730   45.4630 N   0  0  0  0  0  0  0  0  0  0  0  0
   53.3690   23.7060   45.0560 C   0  0  0  0  0  0  0  0  0  0  0  0
   52.1770   23.3200   44.9520 O   0  0  0  0  0  0  0  0  0  0  0  0
   54.3850   22.8580   44.7560 N   0  0  0  0  0  0  0  0  0  0  0  0
   55.6820   23.2480   44.8630 C   0  0  0  0  0  0  0  0  0  0  0  0
   56.5980   22.4440   44.5430 O   0  0  0  0  0  0  0  0  0  0  0  0
   57.8650   27.0040   46.7740 C   0  0  0  0  0  0  0  0  0  0  0  0
   58.1310   28.3160   46.4470 C   0  0  0  0  0  0  0  0  0  0  0  0
   58.3660   29.3300   47.3700 O   0  0  0  0  0  0  0  0  0  0  0  0
   58.1230   28.4990   45.1110 N   0  0  0  0  0  0  0  0  0  0  0  0
   58.2990   29.7890   44.4260 C   0  0  0  0  0  0  0  0  0  0  0  0
   57.3930   30.8480   45.0040 C   0  0  0  0  0  0  0  0  0  0  0  0
   56.2630   31.0360   44.4810 O   0  0  0  0  0  0  0  0  0  0  0  0
   57.7560   31.6150   46.1580 N   0  0  0  0  0  0  0  0  0  0  0  0
   58.4140   32.8870   46.1240 C   0  0  0  0  0  0  0  0  0  0  0  0
   58.3430   33.6650   44.9570 C   0  0  0  0  0  0  0  0  0  0  0  0
   58.9700   34.9090   44.8960 C   0  0  0  0  0  0  0  0  0  0  0  0
   59.6700   35.3920   45.9990 C   0  0  0  0  0  0  0  0  0  0  0  0
   59.7390   34.6360   47.1720 C   0  0  0  0  0  0  0  0  0  0  0  0
   59.1090   33.3800   47.2580 C   0  0  0  0  0  0  0  0  0  0  0  0
   59.2300   32.6010   48.5190 C   0  0  0  0  0  0  0  0  0  0  0  0
   58.8910   33.0950   49.6260 O   0  0  0  0  0  0  0  0  0  0  0  0
   59.7190   31.3000   48.4940 O   0  0  0  0  0  0  0  0  0  0  0  0
   58.0103   27.8751   42.5288 H   0  0  0  0  0  0  0  0  0  0  0  0
   57.6723   26.0299   42.8622 H   0  0  0  0  0  0  0  0  0  0  0  0
   58.1950   24.2930   45.3884 H   0  0  0  0  0  0  0  0  0  0  0  0
   57.7945   26.5758   47.7848 H   0  0  0  0  0  0  0  0  0  0  0  0
   58.4290   30.2970   47.0760 H   0  0  0  0  0  0  0  0  0  0  0  0
   59.3443   30.1132   44.5366 H   0  0  0  0  0  0  0  0  0  0  0  0
   58.0417   29.6552   43.3649 H   0  0  0  0  0  0  0  0  0  0  0  0
   57.7884   33.2901   44.0842 H   0  0  0  0  0  0  0  0  0  0  0  0
   58.9117   35.5093   43.9761 H   0  0  0  0  0  0  0  0  0  0  0  0
   60.1695   36.3706   45.9465 H   0  0  0  0  0  0  0  0  0  0  0  0
   60.2922   35.0269   48.0387 H   0  0  0  0  0  0  0  0  0  0  0  0
  1  2  2  0
  2  3  1  0
  3  4  2  3
  4  5  1  0
  5  6  2  0
  6  7  1  0
  6  8  1  0
  8  9  1  0
  9 10  2  0
  9 11  1  0
 11 12  1  0
 12 13  2  0
  3 14  1  0
 14 15  2  0
 15 16  1  0
 15 17  1  0
 17 18  1  0
 18 19  1  0
 19 20  2  0
 19 21  1  0
 21 22  1  0
 22 23  2  0
 23 24  1  0
 24 25  2  0
 25 26  1  0
 26 27  2  0
 27 28  1  0
 28 29  2  0
 28 30  1  0
 17  2  1  0
 27 22  1  0
 12  5  1  0
  1 31  1  0
  1 32  1  0
  4 33  1  0
 14 34  1  0
 16 35  1  0
 18 36  1  0
 18 37  1  0
 23 38  1  0
 24 39  1  0
 25 40  1  0
 26 41  1  0
M  CHG  5   7  -1   8  -1  11  -1  21  -1  30  -1
M  END
>  <UniqueID>  (56) 
48

>  <SMILES>  (56) 
C=c1c(=Cc2c([O-])[n-]c(=O)[n-]c2=O)cc(O)n1CC(=O)[N-]c1ccccc1C(=O)[O-]

>  <Energy>  (56) 
87.83986372328593

>  <Genealogy>  (56) 
C=c1c(=Cc2c([O-])[n-]c(=O)[n-]c2=O)cc(O)n1CC(=O)[N-]c1ccccc1C(=O)[O-] (protonated)
C=c1c(=Cc2c([O-])[n-]c(=O)[n-]c2=O)cc(O)n1CC(=O)[N-]c1ccccc1C(=O)[O-] (3D coordinates assigned)
C=c1c(=Cc2c([O-])[n-]c(=O)[n-]c2=O)cc(O)n1CC(=O)[N-]c1ccccc1C(=O)[O-] (optimized conformer: 87.83986372328593 kcal/mol)

>  <smiles>  (56) 
C=c1c(=Cc2c(O)[nH]c(=O)[nH]c2=O)cc(O)n1CC(=O)Nc1ccccc1C(=O)O

>  <score_type>  (56) 
oracle

>  <origin>  (56) 
adg

>  <m_score__min__energy>  (56) 
-17.59

>  <m_primary>  (56) 
energy

$$$$
56:0
     RDKit          3D

 53 56  0  0  0  0  0  0  0  0999 V2000
   57.3130   25.6930   44.4010 O   0  0  0  0  0  0  0  0  0  0  0  0
   56.8330   26.2700   45.4150 C   0  0  0  0  0  0  0  0  0  0  0  0
   55.6040   25.8030   45.9950 N   0  0  0  0  0  0  0  0  0  0  0  0
   54.9160   24.6070   45.5140 C   0  0  0  0  0  0  0  0  0  0  0  0
   55.9150   23.5630   45.0800 C   0  0  0  0  0  0  0  0  0  0  0  0
   55.8740   23.0200   43.7800 C   0  0  0  0  0  0  0  0  0  0  0  0
   54.9260   23.4140   42.8910 F   0  0  0  0  0  0  0  0  0  0  0  0
   56.8170   22.0640   43.3880 C   0  0  0  0  0  0  0  0  0  0  0  0
   57.8040   21.6420   44.2820 C   0  0  0  0  0  0  0  0  0  0  0  0
   57.8540   22.1770   45.5710 C   0  0  0  0  0  0  0  0  0  0  0  0
   56.9180   23.1350   45.9710 C   0  0  0  0  0  0  0  0  0  0  0  0
   56.9900   23.6460   47.2290 F   0  0  0  0  0  0  0  0  0  0  0  0
   57.5460   27.4710   45.9830 C   0  0  0  0  0  0  0  0  0  0  0  0
   58.6400   27.9810   45.0270 C   0  0  0  0  0  0  0  0  0  0  0  0
   59.2360   29.2920   45.5650 C   0  0  0  0  0  0  0  0  0  0  0  0
   59.4010   29.2510   47.0260 N   0  0  0  0  0  0  0  0  0  0  0  0
   59.5160   30.4800   47.7680 C   0  0  0  0  0  0  0  0  0  0  0  0
   59.1130   30.5360   48.9610 O   0  0  0  0  0  0  0  0  0  0  0  0
   60.0370   31.6660   47.1460 N   0  0  0  0  0  0  0  0  0  0  0  0
   61.4870   31.8990   47.1500 C   0  0  0  0  0  0  0  0  0  0  0  0
   61.7750   33.3910   47.3360 C   0  0  0  0  0  0  0  0  0  0  0  0
   61.0290   34.1670   46.3970 O   0  0  0  0  0  0  0  0  0  0  0  0
   59.7200   33.8300   46.0360 C   0  0  0  0  0  0  0  0  0  0  0  0
   58.9480   34.7260   45.2910 C   0  0  0  0  0  0  0  0  0  0  0  0
   57.6490   34.3840   44.9070 C   0  0  0  0  0  0  0  0  0  0  0  0
   57.1190   33.1410   45.2670 C   0  0  0  0  0  0  0  0  0  0  0  0
   57.8860   32.2370   46.0090 C   0  0  0  0  0  0  0  0  0  0  0  0
   59.1940   32.5780   46.4080 C   0  0  0  0  0  0  0  0  0  0  0  0
   59.3900   27.9540   47.7180 C   0  0  0  0  0  0  0  0  0  0  0  0
   58.1070   27.1700   47.3960 C   0  0  0  0  0  0  0  0  0  0  0  0
   55.1650   26.3440   46.7720 H   0  0  0  0  0  0  0  0  0  0  0  0
   54.2926   24.1978   46.3227 H   0  0  0  0  0  0  0  0  0  0  0  0
   54.2881   24.8792   44.6528 H   0  0  0  0  0  0  0  0  0  0  0  0
   56.7812   21.6431   42.3723 H   0  0  0  0  0  0  0  0  0  0  0  0
   58.5420   20.8881   43.9706 H   0  0  0  0  0  0  0  0  0  0  0  0
   58.6321   21.8436   46.2734 H   0  0  0  0  0  0  0  0  0  0  0  0
   56.8095   28.2812   46.0885 H   0  0  0  0  0  0  0  0  0  0  0  0
   59.4350   27.2251   44.9462 H   0  0  0  0  0  0  0  0  0  0  0  0
   58.1984   28.1639   44.0362 H   0  0  0  0  0  0  0  0  0  0  0  0
   60.2189   29.4553   45.0990 H   0  0  0  0  0  0  0  0  0  0  0  0
   58.5444   30.1113   45.3192 H   0  0  0  0  0  0  0  0  0  0  0  0
   61.9449   31.3336   47.9750 H   0  0  0  0  0  0  0  0  0  0  0  0
   61.9098   31.5656   46.1908 H   0  0  0  0  0  0  0  0  0  0  0  0
   61.4932   33.6893   48.3566 H   0  0  0  0  0  0  0  0  0  0  0  0
   62.8479   33.5688   47.1707 H   0  0  0  0  0  0  0  0  0  0  0  0
   59.3645   35.7034   45.0062 H   0  0  0  0  0  0  0  0  0  0  0  0
   57.0436   35.0919   44.3219 H   0  0  0  0  0  0  0  0  0  0  0  0
   56.0955   32.8734   44.9656 H   0  0  0  0  0  0  0  0  0  0  0  0
   57.4672   31.2571   46.2819 H   0  0  0  0  0  0  0  0  0  0  0  0
   60.2618   27.3661   47.3948 H   0  0  0  0  0  0  0  0  0  0  0  0
   59.4283   28.1344   48.8024 H   0  0  0  0  0  0  0  0  0  0  0  0
   58.3285   26.0946   47.4624 H   0  0  0  0  0  0  0  0  0  0  0  0
   57.3429   27.4802   48.1240 H   0  0  0  0  0  0  0  0  0  0  0  0
  1  2  2  0
  2  3  1  0
  3  4  1  0
  4  5  1  0
  5  6  2  0
  6  7  1  0
  6  8  1  0
  8  9  2  0
  9 10  1  0
 10 11  2  0
 11 12  1  0
  2 13  1  0
 13 14  1  0
 14 15  1  0
 15 16  1  0
 16 17  1  0
 17 18  2  0
 17 19  1  0
 19 20  1  0
 20 21  1  0
 21 22  1  0
 22 23  1  0
 23 24  2  0
 24 25  1  0
 25 26  2  0
 26 27  1  0
 27 28  2  0
 16 29  1  0
 29 30  1  0
 11  5  1  0
 30 13  1  0
 28 19  1  0
 28 23  1  0
  3 31  1  0
  4 32  1  0
  4 33  1  0
  8 34  1  0
  9 35  1  0
 10 36  1  0
 13 37  1  0
 14 38  1  0
 14 39  1  0
 15 40  1  0
 15 41  1  0
 20 42  1  0
 20 43  1  0
 21 44  1  0
 21 45  1  0
 24 46  1  0
 25 47  1  0
 26 48  1  0
 27 49  1  0
 29 50  1  0
 29 51  1  0
 30 52  1  0
 30 53  1  0
M  END
>  <UniqueID>  (57) 
49

>  <SMILES>  (57) 
O=C(NCc1c(F)cccc1F)C1CCN(C(=O)N2CCOc3ccccc32)CC1

>  <Energy>  (57) 
62.31408130043037

>  <Genealogy>  (57) 
O=C(NCc1c(F)cccc1F)C1CCN(C(=O)N2CCOc3ccccc32)CC1 (3D coordinates assigned)
O=C(NCc1c(F)cccc1F)C1CCN(C(=O)N2CCOc3ccccc32)CC1 (nonaromatic ring conformer: 62.31408130043037 kcal/mol)

>  <smiles>  (57) 
O=C(NCc1c(F)cccc1F)C1CCN(C(=O)N2CCOc3ccccc32)CC1

>  <score_type>  (57) 
oracle

>  <origin>  (57) 
adg

>  <m_score__min__energy>  (57) 
-8.1099999999999994

>  <m_primary>  (57) 
energy

$$$$
57:0
     RDKit          3D

 62 66  0  0  0  0  0  0  0  0999 V2000
   59.2540   35.0830   45.0800 C   0  0  0  0  0  0  0  0  0  0  0  0
   58.7050   33.6820   45.1160 C   0  0  0  0  0  0  0  0  0  0  0  0
   58.1550   33.1220   43.9530 C   0  0  0  0  0  0  0  0  0  0  0  0
   57.6320   31.8280   43.9650 C   0  0  0  0  0  0  0  0  0  0  0  0
   57.6490   31.0650   45.1420 C   0  0  0  0  0  0  0  0  0  0  0  0
   57.0560   29.7070   45.1710 C   0  0  0  0  0  0  0  0  0  0  0  0
   55.8360   29.5650   44.8880 O   0  0  0  0  0  0  0  0  0  0  0  0
   57.8390   28.5490   45.5120 N   0  0  0  0  0  0  0  0  0  0  0  0
   57.7060   27.3110   44.7370 C   0  0  0  0  0  0  0  0  0  0  0  0
   57.7900   26.1050   45.6790 C   0  0  0  0  0  0  0  0  0  0  0  0
   58.9500   26.1760   46.4870 O   0  0  0  0  0  0  0  0  0  0  0  0
   58.8650   27.2950   47.3500 C   0  0  0  0  0  0  0  0  0  0  0  0
   58.8700   28.6040   46.5510 C   0  0  0  0  0  0  0  0  0  0  0  0
   58.1780   31.6260   46.3130 C   0  0  0  0  0  0  0  0  0  0  0  0
   58.7180   32.9260   46.3100 C   0  0  0  0  0  0  0  0  0  0  0  0
   59.2250   33.4950   47.5290 N   0  0  0  0  0  0  0  0  0  0  0  0
   60.6130   33.4640   47.8890 C   0  0  0  0  0  0  0  0  0  0  0  0
   61.4930   33.2050   47.0230 O   0  0  0  0  0  0  0  0  0  0  0  0
   61.0320   33.7130   49.3050 C   0  0  0  0  0  0  0  0  0  0  0  0
   61.8090   32.5730   49.7990 N   0  0  0  0  0  0  0  0  0  0  0  0
   61.3600   31.4880   50.4910 C   0  0  0  0  0  0  0  0  0  0  0  0
   59.9430   31.1680   50.7120 C   0  0  0  0  0  0  0  0  0  0  0  0
   59.3040   30.1380   50.1190 N   0  0  0  0  0  0  0  0  0  0  0  0
   58.0400   30.1860   50.5160 N   0  0  0  0  0  0  0  0  0  0  0  0
   57.8530   31.2100   51.3350 N   0  0  0  0  0  0  0  0  0  0  0  0
   56.5580   31.5860   51.8930 C   0  0  0  0  0  0  0  0  0  0  0  0
   59.0210   31.8640   51.4710 C   0  0  0  0  0  0  0  0  0  0  0  0
   59.2060   33.1690   52.1880 C   0  0  0  0  0  0  0  0  0  0  0  0
   62.3550   30.7440   51.0390 N   0  0  0  0  0  0  0  0  0  0  0  0
   63.4670   31.3960   50.6560 C   0  0  0  0  0  0  0  0  0  0  0  0
   64.7860   31.0820   50.9780 C   0  0  0  0  0  0  0  0  0  0  0  0
   65.7960   31.9470   50.5200 C   0  0  0  0  0  0  0  0  0  0  0  0
   65.4650   33.0970   49.7680 C   0  0  0  0  0  0  0  0  0  0  0  0
   64.1230   33.3890   49.4640 C   0  0  0  0  0  0  0  0  0  0  0  0
   63.1470   32.5010   49.9220 C   0  0  0  0  0  0  0  0  0  0  0  0
   59.3968   35.4474   46.1080 H   0  0  0  0  0  0  0  0  0  0  0  0
   60.2195   35.0851   44.5528 H   0  0  0  0  0  0  0  0  0  0  0  0
   58.5470   35.7404   44.5528 H   0  0  0  0  0  0  0  0  0  0  0  0
   58.1358   33.7086   43.0226 H   0  0  0  0  0  0  0  0  0  0  0  0
   57.2035   31.4035   43.0451 H   0  0  0  0  0  0  0  0  0  0  0  0
   56.7352   27.3050   44.2199 H   0  0  0  0  0  0  0  0  0  0  0  0
   58.5173   27.2540   43.9963 H   0  0  0  0  0  0  0  0  0  0  0  0
   56.9005   26.0906   46.3260 H   0  0  0  0  0  0  0  0  0  0  0  0
   57.8388   25.1881   45.0732 H   0  0  0  0  0  0  0  0  0  0  0  0
   57.9333   27.2315   47.9314 H   0  0  0  0  0  0  0  0  0  0  0  0
   59.7373   27.2890   48.0202 H   0  0  0  0  0  0  0  0  0  0  0  0
   58.6636   29.4466   47.2273 H   0  0  0  0  0  0  0  0  0  0  0  0
   59.8551   28.7417   46.0814 H   0  0  0  0  0  0  0  0  0  0  0  0
   58.1710   31.0430   47.2458 H   0  0  0  0  0  0  0  0  0  0  0  0
   58.5550   33.9720   48.1760 H   0  0  0  0  0  0  0  0  0  0  0  0
   61.6492   34.6225   49.3489 H   0  0  0  0  0  0  0  0  0  0  0  0
   60.1373   33.8425   49.9317 H   0  0  0  0  0  0  0  0  0  0  0  0
   56.6134   31.5699   52.9915 H   0  0  0  0  0  0  0  0  0  0  0  0
   56.2927   32.5983   51.5541 H   0  0  0  0  0  0  0  0  0  0  0  0
   55.7918   30.8732   51.5541 H   0  0  0  0  0  0  0  0  0  0  0  0
   59.1816   32.9972   53.2742 H   0  0  0  0  0  0  0  0  0  0  0  0
   60.1752   33.6072   51.9077 H   0  0  0  0  0  0  0  0  0  0  0  0
   58.3967   33.8593   51.9077 H   0  0  0  0  0  0  0  0  0  0  0  0
   65.0291   30.1876   51.5705 H   0  0  0  0  0  0  0  0  0  0  0  0
   66.8494   31.7273   50.7483 H   0  0  0  0  0  0  0  0  0  0  0  0
   66.2627   33.7686   49.4179 H   0  0  0  0  0  0  0  0  0  0  0  0
   63.8518   34.2848   48.8861 H   0  0  0  0  0  0  0  0  0  0  0  0
  1  2  1  0
  2  3  2  0
  3  4  1  0
  4  5  2  0
  5  6  1  0
  6  7  2  0
  6  8  1  0
  8  9  1  0
  9 10  1  0
 10 11  1  0
 11 12  1  0
 12 13  1  0
  5 14  1  0
 14 15  2  0
 15 16  1  0
 16 17  1  0
 17 18  2  0
 17 19  1  0
 19 20  1  0
 20 21  1  0
 21 22  1  0
 22 23  1  0
 23 24  2  0
 24 25  1  0
 25 26  1  0
 25 27  1  0
 27 28  1  0
 21 29  2  0
 29 30  1  0
 30 31  2  0
 31 32  1  0
 32 33  2  0
 33 34  1  0
 34 35  2  0
 15  2  1  0
 35 20  1  0
 13  8  1  0
 27 22  2  0
 35 30  1  0
  1 36  1  0
  1 37  1  0
  1 38  1  0
  3 39  1  0
  4 40  1  0
  9 41  1  0
  9 42  1  0
 10 43  1  0
 10 44  1  0
 12 45  1  0
 12 46  1  0
 13 47  1  0
 13 48  1  0
 14 49  1  0
 16 50  1  0
 19 51  1  0
 19 52  1  0
 26 53  1  0
 26 54  1  0
 26 55  1  0
 28 56  1  0
 28 57  1  0
 28 58  1  0
 31 59  1  0
 32 60  1  0
 33 61  1  0
 34 62  1  0
M  END
>  <UniqueID>  (58) 
50

>  <SMILES>  (58) 
Cc1ccc(C(=O)N2CCOCC2)cc1NC(=O)Cn1c(-c2nnn(C)c2C)nc2ccccc21

>  <Energy>  (58) 
152.08414639052302

>  <Genealogy>  (58) 
Cc1ccc(C(=O)N2CCOCC2)cc1NC(=O)Cn1c(-c2nnn(C)c2C)nc2ccccc21 (3D coordinates assigned)
Cc1ccc(C(=O)N2CCOCC2)cc1NC(=O)Cn1c(-c2nnn(C)c2C)nc2ccccc21 (nonaromatic ring conformer: 152.08414639052302 kcal/mol)

>  <smiles>  (58) 
Cc1ccc(C(=O)N2CCOCC2)cc1NC(=O)Cn1c(-c2nnn(C)c2C)nc2ccccc21

>  <score_type>  (58) 
oracle

>  <origin>  (58) 
adg

>  <m_score__min__energy>  (58) 
-9.4000000000000004

>  <m_primary>  (58) 
energy

$$$$
58:0
     RDKit          3D

 40 43  0  0  1  0  0  0  0  0999 V2000
   59.0140   28.0190   47.1810 C   0  0  0  0  0  0  0  0  0  0  0  0
   58.8760   26.7090   46.7000 C   0  0  0  0  0  0  0  0  0  0  0  0
   57.9660   26.3910   45.7140 C   0  0  0  0  0  0  0  0  0  0  0  0
   57.8340   25.0290   45.2250 C   0  0  0  0  0  0  0  0  0  0  0  0
   58.6540   24.0020   45.6440 C   0  0  0  0  0  0  0  0  0  0  0  0
   58.5490   22.7350   45.2050 N   0  0  0  0  0  0  0  0  0  0  0  0
   57.6060   22.4130   44.3090 C   0  0  0  0  0  0  0  0  0  0  0  0
   57.2730   21.2570   43.7050 N   0  0  0  0  0  0  0  0  0  0  0  0
   56.2470   21.4680   42.8850 N   0  0  0  0  0  0  0  0  0  0  0  0
   55.8970   22.7660   42.9430 C   0  0  0  0  0  0  0  0  0  0  0  0
   56.7500   23.3690   43.8390 C   0  0  0  0  0  0  0  0  0  0  0  0
   56.8600   24.6870   44.2970 C   0  0  0  0  0  0  0  0  0  0  0  0
   57.2170   27.4020   45.2390 N   0  0  0  0  0  0  0  0  0  0  0  0
   57.3290   28.6730   45.6840 C   0  0  0  0  0  0  0  0  0  0  0  0
   56.5980   29.6150   45.2070 N   0  0  0  0  0  0  0  0  0  0  0  0
   56.9550   30.6170   44.2790 C   0  0  0  0  0  0  0  0  0  0  0  0
   56.6110   30.4030   42.8500 C   0  0  0  0  0  0  0  0  0  0  0  0
   57.0250   31.5560   41.9880 C   0  0  0  0  0  0  0  0  0  0  0  0
   58.2890   32.1500   42.3380 N   0  0  0  0  0  0  0  0  0  0  0  0
   58.0910   32.7040   43.6860 C   0  0  0  0  0  0  0  0  0  0  0  0
   58.1220   31.4800   44.5850 C   0  0  0  0  0  0  0  0  0  0  0  0
   58.2300   29.0220   46.6680 C   0  0  0  0  0  0  0  0  0  0  0  0
   59.7493   28.2423   47.9681 H   0  0  0  0  0  0  0  0  0  0  0  0
   59.5102   25.9145   47.1202 H   0  0  0  0  0  0  0  0  0  0  0  0
   59.4389   24.2325   46.3794 H   0  0  0  0  0  0  0  0  0  0  0  0
   57.7060   20.3220   43.8170 H   0  0  0  0  0  0  0  0  0  0  0  0
   55.0850   23.2518   42.3820 H   0  0  0  0  0  0  0  0  0  0  0  0
   56.1705   25.4564   43.9193 H   0  0  0  0  0  0  0  0  0  0  0  0
   56.5040   27.2530   44.4930 H   0  0  0  0  0  0  0  0  0  0  0  0
   56.1604   31.3324   44.5377 H   0  0  0  0  0  0  0  0  0  0  0  0
   57.1207   29.4950   42.4954 H   0  0  0  0  0  0  0  0  0  0  0  0
   55.5179   30.3036   42.7777 H   0  0  0  0  0  0  0  0  0  0  0  0
   57.0904   31.2001   40.9492 H   0  0  0  0  0  0  0  0  0  0  0  0
   56.2653   32.3383   42.1326 H   0  0  0  0  0  0  0  0  0  0  0  0
   59.0180   31.4170   42.4080 H   0  0  0  0  0  0  0  0  0  0  0  0
   58.9000   33.4025   43.9460 H   0  0  0  0  0  0  0  0  0  0  0  0
   57.1572   33.2780   43.7786 H   0  0  0  0  0  0  0  0  0  0  0  0
   59.0509   30.9179   44.4085 H   0  0  0  0  0  0  0  0  0  0  0  0
   58.0810   31.7952   45.6381 H   0  0  0  0  0  0  0  0  0  0  0  0
   58.3165   30.0585   47.0260 H   0  0  0  0  0  0  0  0  0  0  0  0
  1  2  1  0
  2  3  2  0
  3  4  1  0
  4  5  2  0
  5  6  1  0
  6  7  2  0
  7  8  1  0
  8  9  1  0
  9 10  2  0
 10 11  1  0
 11 12  2  0
  3 13  1  0
 13 14  1  0
 14 15  2  0
 15 16  1  0
 16 17  1  0
 17 18  1  0
 18 19  1  0
 19 20  1  0
 20 21  1  0
 14 22  1  0
 22  1  2  0
 12  4  1  0
 21 16  1  0
 11  7  1  0
  1 23  1  0
  2 24  1  0
  5 25  1  0
  8 26  1  0
 10 27  1  0
 12 28  1  0
 13 29  1  0
 16 30  1  0
 17 31  1  0
 17 32  1  0
 18 33  1  0
 18 34  1  0
 19 35  1  0
 20 36  1  0
 20 37  1  0
 21 38  1  0
 21 39  1  0
 22 40  1  0
M  END
>  <smiles>  (59) 
c1cc(-c2cnc3[nH]ncc3c2)[nH]c(=NC2CCNCC2)c1

>  <score_type>  (59) 
oracle

>  <origin>  (59) 
adg

>  <m_score__min__energy>  (59) 
-8.7599999999999998

>  <m_primary>  (59) 
energy

$$$$
59:0
     RDKit          3D

 49 51  0  0  0  0  0  0  0  0999 V2000
   55.1450   29.6530   44.8730 O   0  0  0  0  0  0  0  0  0  0  0  0
   56.1600   28.9260   45.0470 C   0  0  0  0  0  0  0  0  0  0  0  0
   55.9730   27.6240   45.6220 N   0  0  0  0  0  0  0  0  0  0  0  0
   57.0310   26.6880   45.9880 C   0  0  0  0  0  0  0  0  0  0  0  0
   56.4310   25.3480   46.4230 C   0  0  0  0  0  0  0  0  0  0  0  0
   56.6680   24.2970   45.3730 C   0  0  0  0  0  0  0  0  0  0  0  0
   57.8050   23.4750   45.4410 C   0  0  0  0  0  0  0  0  0  0  0  0
   58.0090   22.4750   44.4850 C   0  0  0  0  0  0  0  0  0  0  0  0
   57.0750   22.2840   43.4620 C   0  0  0  0  0  0  0  0  0  0  0  0
   55.9350   23.0890   43.3970 C   0  0  0  0  0  0  0  0  0  0  0  0
   55.7280   24.0890   44.3510 C   0  0  0  0  0  0  0  0  0  0  0  0
   57.5330   29.4840   44.7300 C   0  0  0  0  0  0  0  0  0  0  0  0
   57.4820   30.5030   43.5620 C   0  0  0  0  0  0  0  0  0  0  0  0
   57.4890   31.9450   44.0780 C   0  0  0  0  0  0  0  0  0  0  0  0
   58.7240   32.2480   44.8350 N   0  0  0  0  0  0  0  0  0  0  0  0
   58.4830   33.6700   45.8200 S   0  0  0  0  0  0  0  0  0  0  0  0
   58.3860   34.8910   44.9460 O   0  0  0  0  0  0  0  0  0  0  0  0
   57.2040   33.5350   46.5980 O   0  0  0  0  0  0  0  0  0  0  0  0
   59.8180   33.8520   46.9550 C   0  0  0  0  0  0  0  0  0  0  0  0
   59.5530   34.1010   48.3090 C   0  0  0  0  0  0  0  0  0  0  0  0
   60.6070   34.2260   49.2200 C   0  0  0  0  0  0  0  0  0  0  0  0
   61.9280   34.0980   48.7840 C   0  0  0  0  0  0  0  0  0  0  0  0
   62.1980   33.8430   47.4360 C   0  0  0  0  0  0  0  0  0  0  0  0
   61.1460   33.7180   46.5220 C   0  0  0  0  0  0  0  0  0  0  0  0
   59.2400   31.1180   45.6490 C   0  0  0  0  0  0  0  0  0  0  0  0
   58.1540   30.0930   46.0050 C   0  0  0  0  0  0  0  0  0  0  0  0
   57.6881   26.5265   45.1207 H   0  0  0  0  0  0  0  0  0  0  0  0
   57.6068   27.1097   46.8250 H   0  0  0  0  0  0  0  0  0  0  0  0
   56.9010   25.0302   47.3654 H   0  0  0  0  0  0  0  0  0  0  0  0
   55.3470   25.4728   46.5621 H   0  0  0  0  0  0  0  0  0  0  0  0
   58.5375   23.6184   46.2490 H   0  0  0  0  0  0  0  0  0  0  0  0
   58.9045   21.8384   44.5378 H   0  0  0  0  0  0  0  0  0  0  0  0
   57.2379   21.4997   42.7082 H   0  0  0  0  0  0  0  0  0  0  0  0
   55.1993   22.9355   42.5938 H   0  0  0  0  0  0  0  0  0  0  0  0
   54.8252   24.7155   44.3010 H   0  0  0  0  0  0  0  0  0  0  0  0
   58.1790   28.6610   44.3903 H   0  0  0  0  0  0  0  0  0  0  0  0
   58.3584   30.3501   42.9151 H   0  0  0  0  0  0  0  0  0  0  0  0
   56.5498   30.3405   43.0011 H   0  0  0  0  0  0  0  0  0  0  0  0
   57.4186   32.6309   43.2209 H   0  0  0  0  0  0  0  0  0  0  0  0
   56.6313   32.0718   44.7550 H   0  0  0  0  0  0  0  0  0  0  0  0
   58.5136   34.1983   48.6558 H   0  0  0  0  0  0  0  0  0  0  0  0
   60.3955   34.4253   50.2809 H   0  0  0  0  0  0  0  0  0  0  0  0
   62.7559   34.1978   49.5013 H   0  0  0  0  0  0  0  0  0  0  0  0
   63.2384   33.7406   47.0938 H   0  0  0  0  0  0  0  0  0  0  0  0
   61.3603   33.5144   45.4625 H   0  0  0  0  0  0  0  0  0  0  0  0
   60.0310   30.6078   45.0797 H   0  0  0  0  0  0  0  0  0  0  0  0
   59.6199   31.5373   46.5923 H   0  0  0  0  0  0  0  0  0  0  0  0
   58.6014   29.2886   46.6074 H   0  0  0  0  0  0  0  0  0  0  0  0
   57.3619   30.6028   46.5730 H   0  0  0  0  0  0  0  0  0  0  0  0
  1  2  2  0
  2  3  1  0
  3  4  1  0
  4  5  1  0
  5  6  1  0
  6  7  2  0
  7  8  1  0
  8  9  2  0
  9 10  1  0
 10 11  2  0
  2 12  1  0
 12 13  1  0
 13 14  1  0
 14 15  1  0
 15 16  1  0
 16 17  2  0
 16 18  2  0
 16 19  1  0
 19 20  2  0
 20 21  1  0
 21 22  2  0
 22 23  1  0
 23 24  2  0
 15 25  1  0
 25 26  1  0
 11  6  1  0
 26 12  1  0
 24 19  1  0
  4 27  1  0
  4 28  1  0
  5 29  1  0
  5 30  1  0
  7 31  1  0
  8 32  1  0
  9 33  1  0
 10 34  1  0
 11 35  1  0
 12 36  1  0
 13 37  1  0
 13 38  1  0
 14 39  1  0
 14 40  1  0
 20 41  1  0
 21 42  1  0
 22 43  1  0
 23 44  1  0
 24 45  1  0
 25 46  1  0
 25 47  1  0
 26 48  1  0
 26 49  1  0
M  CHG  1   3  -1
M  END
>  <UniqueID>  (60) 
51

>  <SMILES>  (60) 
O=C([N-]CCc1ccccc1)C1CCN(S(=O)(=O)c2ccccc2)CC1

>  <Energy>  (60) 
52.91092574508427

>  <Genealogy>  (60) 
O=C([N-]CCc1ccccc1)C1CCN(S(=O)(=O)c2ccccc2)CC1 (protonated)
O=C([N-]CCc1ccccc1)C1CCN(S(=O)(=O)c2ccccc2)CC1 (3D coordinates assigned)
O=C([N-]CCc1ccccc1)C1CCN(S(=O)(=O)c2ccccc2)CC1 (nonaromatic ring conformer: 52.91092574508427 kcal/mol)

>  <smiles>  (60) 
O=C(NCCc1ccccc1)C1CCN(S(=O)(=O)c2ccccc2)CC1

>  <score_type>  (60) 
oracle

>  <origin>  (60) 
adg

>  <m_score__min__energy>  (60) 
-11.56

>  <m_primary>  (60) 
energy

$$$$
60:0
     RDKit          3D

 54 57  0  0  0  0  0  0  0  0999 V2000
   60.1520   30.0530   45.9540 C   0  0  0  0  0  0  0  0  0  0  0  0
   61.0020   30.1950   47.2120 C   0  0  0  0  0  0  0  0  0  0  0  0
   60.1370   30.4420   48.4220 C   0  0  0  0  0  0  0  0  0  0  0  0
   59.6450   31.6900   48.8170 C   0  0  0  0  0  0  0  0  0  0  0  0
   59.8870   32.9950   48.1660 C   0  0  0  0  0  0  0  0  0  0  0  0
   60.7820   33.7500   48.6320 O   0  0  0  0  0  0  0  0  0  0  0  0
   59.1010   33.4390   46.9900 C   0  0  0  0  0  0  0  0  0  0  0  0
   57.7870   32.9750   46.8030 C   0  0  0  0  0  0  0  0  0  0  0  0
   57.0430   33.3850   45.6920 C   0  0  0  0  0  0  0  0  0  0  0  0
   57.6040   34.2530   44.7530 C   0  0  0  0  0  0  0  0  0  0  0  0
   58.9130   34.7110   44.9220 C   0  0  0  0  0  0  0  0  0  0  0  0
   59.6620   34.3040   46.0300 C   0  0  0  0  0  0  0  0  0  0  0  0
   58.8840   31.4490   49.9470 C   0  0  0  0  0  0  0  0  0  0  0  0
   58.1290   32.3130   50.7410 C   0  0  0  0  0  0  0  0  0  0  0  0
   57.4400   31.7750   51.8410 C   0  0  0  0  0  0  0  0  0  0  0  0
   56.6880   32.6120   52.6560 O   0  0  0  0  0  0  0  0  0  0  0  0
   57.5090   30.3920   52.1190 C   0  0  0  0  0  0  0  0  0  0  0  0
   56.8240   29.8770   53.2170 O   0  0  0  0  0  0  0  0  0  0  0  0
   58.2630   29.5380   51.2890 C   0  0  0  0  0  0  0  0  0  0  0  0
   58.9420   30.1000   50.1990 C   0  0  0  0  0  0  0  0  0  0  0  0
   59.7020   29.4700   49.2720 N   0  0  0  0  0  0  0  0  0  0  0  0
   60.0510   28.0430   49.2320 C   0  0  0  0  0  0  0  0  0  0  0  0
   59.5660   27.4090   47.9520 C   0  0  0  0  0  0  0  0  0  0  0  0
   60.4550   26.6920   47.1360 C   0  0  0  0  0  0  0  0  0  0  0  0
   60.0060   26.1070   45.9510 C   0  0  0  0  0  0  0  0  0  0  0  0
   58.6710   26.2370   45.5630 C   0  0  0  0  0  0  0  0  0  0  0  0
   57.7660   26.9610   46.3590 C   0  0  0  0  0  0  0  0  0  0  0  0
   56.3480   27.1040   45.9510 C   0  0  0  0  0  0  0  0  0  0  0  0
   55.5180   26.1910   46.2130 O   0  0  0  0  0  0  0  0  0  0  0  0
   55.9130   28.2770   45.2540 N   0  0  0  0  0  0  0  0  0  0  0  0
   56.8260   29.3280   44.8320 C   0  0  0  0  0  0  0  0  0  0  0  0
   58.2270   27.5500   47.5520 C   0  0  0  0  0  0  0  0  0  0  0  0
   59.1037   29.8779   46.2376 H   0  0  0  0  0  0  0  0  0  0  0  0
   60.2216   30.9752   45.3584 H   0  0  0  0  0  0  0  0  0  0  0  0
   60.5176   29.2035   45.3584 H   0  0  0  0  0  0  0  0  0  0  0  0
   61.5776   29.2700   47.3638 H   0  0  0  0  0  0  0  0  0  0  0  0
   61.6788   31.0526   47.0834 H   0  0  0  0  0  0  0  0  0  0  0  0
   57.3414   32.2853   47.5350 H   0  0  0  0  0  0  0  0  0  0  0  0
   56.0131   33.0227   45.5575 H   0  0  0  0  0  0  0  0  0  0  0  0
   57.0159   34.5758   43.8812 H   0  0  0  0  0  0  0  0  0  0  0  0
   59.3554   35.3935   44.1814 H   0  0  0  0  0  0  0  0  0  0  0  0
   60.6951   34.6612   46.1529 H   0  0  0  0  0  0  0  0  0  0  0  0
   58.0746   33.3875   50.5117 H   0  0  0  0  0  0  0  0  0  0  0  0
   56.2890   30.4740   53.8360 H   0  0  0  0  0  0  0  0  0  0  0  0
   58.3172   28.4581   51.4914 H   0  0  0  0  0  0  0  0  0  0  0  0
   61.1440   27.9371   49.2954 H   0  0  0  0  0  0  0  0  0  0  0  0
   59.5676   27.5377   50.0811 H   0  0  0  0  0  0  0  0  0  0  0  0
   61.5097   26.5908   47.4316 H   0  0  0  0  0  0  0  0  0  0  0  0
   60.7070   25.5410   45.3199 H   0  0  0  0  0  0  0  0  0  0  0  0
   58.3252   25.7702   44.6289 H   0  0  0  0  0  0  0  0  0  0  0  0
   57.2534   29.8200   45.7181 H   0  0  0  0  0  0  0  0  0  0  0  0
   57.6355   28.8903   44.2294 H   0  0  0  0  0  0  0  0  0  0  0  0
   56.2794   30.0684   44.2294 H   0  0  0  0  0  0  0  0  0  0  0  0
   57.5305   28.1272   48.1779 H   0  0  0  0  0  0  0  0  0  0  0  0
  1  2  1  0
  2  3  1  0
  3  4  2  0
  4  5  1  0
  5  6  2  0
  5  7  1  0
  7  8  2  0
  8  9  1  0
  9 10  2  0
 10 11  1  0
 11 12  2  0
  4 13  1  0
 13 14  2  0
 14 15  1  0
 15 16  1  0
 15 17  2  0
 17 18  1  0
 17 19  1  0
 19 20  2  0
 20 21  1  0
 21 22  1  0
 22 23  1  0
 23 24  2  0
 24 25  1  0
 25 26  2  0
 26 27  1  0
 27 28  1  0
 28 29  2  0
 28 30  1  0
 30 31  1  0
 27 32  2  0
 21  3  1  0
 32 23  1  0
 12  7  1  0
 20 13  1  0
  1 33  1  0
  1 34  1  0
  1 35  1  0
  2 36  1  0
  2 37  1  0
  8 38  1  0
  9 39  1  0
 10 40  1  0
 11 41  1  0
 12 42  1  0
 14 43  1  0
 18 44  1  0
 19 45  1  0
 22 46  1  0
 22 47  1  0
 24 48  1  0
 25 49  1  0
 26 50  1  0
 31 51  1  0
 31 52  1  0
 31 53  1  0
 32 54  1  0
M  CHG  2  16  -1  30  -1
M  END
>  <UniqueID>  (61) 
52

>  <SMILES>  (61) 
CCc1c(C(=O)c2ccccc2)c2cc([O-])c(O)cc2n1Cc1cccc(C(=O)[N-]C)c1

>  <Energy>  (61) 
92.0822030171072

>  <Genealogy>  (61) 
CCc1c(C(=O)c2ccccc2)c2cc([O-])c(O)cc2n1Cc1cccc(C(=O)[N-]C)c1 (protonated)
CCc1c(C(=O)c2ccccc2)c2cc([O-])c(O)cc2n1Cc1cccc(C(=O)[N-]C)c1 (3D coordinates assigned)
CCc1c(C(=O)c2ccccc2)c2cc([O-])c(O)cc2n1Cc1cccc(C(=O)[N-]C)c1 (optimized conformer: 92.0822030171072 kcal/mol)

>  <smiles>  (61) 
CCc1c(C(=O)c2ccccc2)c2cc(O)c(O)cc2n1Cc1cccc(C(=O)NC)c1

>  <score_type>  (61) 
oracle

>  <origin>  (61) 
adg

>  <m_score__min__energy>  (61) 
-12.74

>  <m_primary>  (61) 
energy

$$$$
61:0
     RDKit          3D

 47 49  0  0  0  0  0  0  0  0999 V2000
   60.9490   29.9200   48.0980 C   0  0  0  0  0  0  0  0  0  0  0  0
   61.7380   31.0590   48.7410 C   0  0  0  0  0  0  0  0  0  0  0  0
   61.9670   32.2450   47.7790 C   0  0  2  0  0  0  0  0  0  0  0  0
   63.4710   32.3550   47.3840 C   0  0  0  0  0  0  0  0  0  0  0  0
   64.0600   33.5880   47.7590 O   0  0  0  0  0  0  0  0  0  0  0  0
   63.8230   33.8310   49.1290 C   0  0  0  0  0  0  0  0  0  0  0  0
   62.3600   34.2260   49.3320 C   0  0  0  0  0  0  0  0  0  0  0  0
   61.4990   33.5050   48.3870 N   0  0  0  0  0  0  0  0  0  0  0  0
   60.1510   33.9740   48.1890 C   0  0  0  0  0  0  0  0  0  0  0  0
   59.7400   34.9680   48.8460 O   0  0  0  0  0  0  0  0  0  0  0  0
   59.2460   33.3270   47.2140 C   0  0  0  0  0  0  0  0  0  0  0  0
   58.7100   32.0540   47.4710 C   0  0  0  0  0  0  0  0  0  0  0  0
   57.8550   31.4460   46.5480 C   0  0  0  0  0  0  0  0  0  0  0  0
   57.5280   32.0990   45.3470 C   0  0  0  0  0  0  0  0  0  0  0  0
   56.6380   31.5210   44.3820 N   0  0  0  0  0  0  0  0  0  0  0  0
   56.3890   29.8210   44.1500 S   0  0  0  0  0  0  0  0  0  0  0  0
   56.2030   29.5480   42.6830 O   0  0  0  0  0  0  0  0  0  0  0  0
   55.1480   29.4000   44.8840 O   0  0  0  0  0  0  0  0  0  0  0  0
   57.7620   28.9190   44.7890 C   0  0  0  0  0  0  0  0  0  0  0  0
   59.0730   29.3110   44.4780 C   0  0  0  0  0  0  0  0  0  0  0  0
   60.1610   28.6080   45.0010 C   0  0  0  0  0  0  0  0  0  0  0  0
   59.9480   27.5080   45.8360 C   0  0  0  0  0  0  0  0  0  0  0  0
   61.0050   26.8280   46.3450 F   0  0  0  0  0  0  0  0  0  0  0  0
   58.6450   27.1080   46.1460 C   0  0  0  0  0  0  0  0  0  0  0  0
   57.5530   27.8090   45.6240 C   0  0  0  0  0  0  0  0  0  0  0  0
   56.2940   27.4060   45.9340 F   0  0  0  0  0  0  0  0  0  0  0  0
   58.0850   33.3540   45.0770 C   0  0  0  0  0  0  0  0  0  0  0  0
   58.9400   33.9640   46.0010 C   0  0  0  0  0  0  0  0  0  0  0  0
   60.5110   29.2877   48.8844 H   0  0  0  0  0  0  0  0  0  0  0  0
   60.1456   30.3375   47.4733 H   0  0  0  0  0  0  0  0  0  0  0  0
   61.6222   29.3146   47.4733 H   0  0  0  0  0  0  0  0  0  0  0  0
   61.1818   31.4204   49.6185 H   0  0  0  0  0  0  0  0  0  0  0  0
   62.7256   30.6624   49.0192 H   0  0  0  0  0  0  0  0  0  0  0  0
   61.3832   32.0618   46.8649 H   0  0  0  0  0  0  0  0  0  0  0  0
   64.0220   31.5406   47.8770 H   0  0  0  0  0  0  0  0  0  0  0  0
   63.5257   32.2878   46.2874 H   0  0  0  0  0  0  0  0  0  0  0  0
   64.0400   32.9198   49.7057 H   0  0  0  0  0  0  0  0  0  0  0  0
   64.4741   34.6477   49.4741 H   0  0  0  0  0  0  0  0  0  0  0  0
   62.0570   33.9781   50.3600 H   0  0  0  0  0  0  0  0  0  0  0  0
   62.2549   35.3069   49.1570 H   0  0  0  0  0  0  0  0  0  0  0  0
   58.9651   31.5323   48.4052 H   0  0  0  0  0  0  0  0  0  0  0  0
   57.4359   30.4518   46.7623 H   0  0  0  0  0  0  0  0  0  0  0  0
   59.2447   30.1754   43.8197 H   0  0  0  0  0  0  0  0  0  0  0  0
   61.1866   28.9207   44.7552 H   0  0  0  0  0  0  0  0  0  0  0  0
   58.4782   26.2406   46.8015 H   0  0  0  0  0  0  0  0  0  0  0  0
   57.8489   33.8644   44.1316 H   0  0  0  0  0  0  0  0  0  0  0  0
   59.3752   34.9488   45.7757 H   0  0  0  0  0  0  0  0  0  0  0  0
  1  2  1  0
  2  3  1  0
  3  4  1  0
  4  5  1  0
  5  6  1  0
  6  7  1  0
  7  8  1  0
  8  9  1  0
  9 10  2  0
  9 11  1  0
 11 12  2  0
 12 13  1  0
 13 14  2  0
 14 15  1  0
 15 16  1  0
 16 17  2  0
 16 18  2  0
 16 19  1  0
 19 20  2  0
 20 21  1  0
 21 22  2  0
 22 23  1  0
 22 24  1  0
 24 25  2  0
 25 26  1  0
 14 27  1  0
 27 28  2  0
  8  3  1  0
 28 11  1  0
 25 19  1  0
  1 29  1  0
  1 30  1  0
  1 31  1  0
  2 32  1  0
  2 33  1  0
  3 34  1  6
  4 35  1  0
  4 36  1  0
  6 37  1  0
  6 38  1  0
  7 39  1  0
  7 40  1  0
 12 41  1  0
 13 42  1  0
 20 43  1  0
 21 44  1  0
 24 45  1  0
 27 46  1  0
 28 47  1  0
M  CHG  1  15  -1
M  END
>  <UniqueID>  (62) 
53

>  <SMILES>  (62) 
CC[C@@H]1COCCN1C(=O)c1ccc([N-]S(=O)(=O)c2ccc(F)cc2F)cc1

>  <Energy>  (62) 
59.61689120929118

>  <Genealogy>  (62) 
CCC1COCCN1C(=O)c1ccc([N-]S(=O)(=O)c2ccc(F)cc2F)cc1 (protonated)
CC[C@@H]1COCCN1C(=O)c1ccc([N-]S(=O)(=O)c2ccc(F)cc2F)cc1 (chirality)
CC[C@@H]1COCCN1C(=O)c1ccc([N-]S(=O)(=O)c2ccc(F)cc2F)cc1 (3D coordinates assigned)
CC[C@@H]1COCCN1C(=O)c1ccc([N-]S(=O)(=O)c2ccc(F)cc2F)cc1 (nonaromatic ring conformer: 59.61689120929118 kcal/mol)

>  <smiles>  (62) 
CCC1COCCN1C(=O)c1ccc(NS(=O)(=O)c2ccc(F)cc2F)cc1

>  <score_type>  (62) 
oracle

>  <origin>  (62) 
adg

>  <m_score__min__energy>  (62) 
-10.550000000000001

>  <m_primary>  (62) 
energy

$$$$
62:0
     RDKit          3D

 63 66  0  0  0  0  0  0  0  0999 V2000
   55.1510   26.5850   45.9450 N   0  0  0  0  0  0  0  0  0  0  0  0
   56.8430   26.9240   46.0150 S   0  0  0  0  0  0  0  0  0  0  0  0
   57.3330   26.7750   47.4250 O   0  0  0  0  0  0  0  0  0  0  0  0
   57.5700   25.9300   45.1560 O   0  0  0  0  0  0  0  0  0  0  0  0
   57.1580   28.5710   45.4410 C   0  0  0  0  0  0  0  0  0  0  0  0
   56.4260   29.0560   44.3440 C   0  0  0  0  0  0  0  0  0  0  0  0
   56.6940   30.3180   43.8100 C   0  0  0  0  0  0  0  0  0  0  0  0
   57.6940   31.1140   44.3660 C   0  0  0  0  0  0  0  0  0  0  0  0
   58.4250   30.6540   45.4640 C   0  0  0  0  0  0  0  0  0  0  0  0
   58.1630   29.3880   46.0180 C   0  0  0  0  0  0  0  0  0  0  0  0
   58.9670   28.9440   47.1760 C   0  0  0  0  0  0  0  0  0  0  0  0
   58.7480   29.5040   48.4440 C   0  0  0  0  0  0  0  0  0  0  0  0
   59.5320   29.1140   49.5360 C   0  0  0  0  0  0  0  0  0  0  0  0
   60.5500   28.1690   49.3680 C   0  0  0  0  0  0  0  0  0  0  0  0
   61.3400   27.7970   50.5070 N   0  0  0  0  0  0  0  0  0  0  0  0
   61.4500   28.4870   51.7630 C   0  0  0  0  0  0  0  0  0  0  0  0
   60.4050   28.6330   52.4480 O   0  0  0  0  0  0  0  0  0  0  0  0
   62.7300   29.1580   52.2130 C   0  0  0  0  0  0  0  0  0  0  0  0
   62.9860   30.5040   51.4840 C   0  0  0  0  0  0  0  0  0  0  0  0
   61.9740   30.7380   50.3150 C   0  0  0  0  0  0  0  0  0  0  0  0
   62.6340   31.2370   49.0190 C   0  0  0  0  0  0  0  0  0  0  0  0
   63.6360   32.2610   49.3390 N   0  0  0  0  0  0  0  0  0  0  0  0
   63.3250   33.6390   49.0730 C   0  0  0  0  0  0  0  0  0  0  0  0
   63.0550   34.4070   50.0330 O   0  0  0  0  0  0  0  0  0  0  0  0
   63.2620   34.1570   47.6920 C   0  0  0  0  0  0  0  0  0  0  0  0
   62.4120   33.7070   46.7600 C   0  0  0  0  0  0  0  0  0  0  0  0
   60.9450   33.7890   46.8790 C   0  0  0  0  0  0  0  0  0  0  0  0
   60.2050   34.5470   45.9600 C   0  0  0  0  0  0  0  0  0  0  0  0
   58.8040   34.5490   46.0130 C   0  0  0  0  0  0  0  0  0  0  0  0
   58.1390   33.7590   46.9610 C   0  0  0  0  0  0  0  0  0  0  0  0
   58.8690   32.9790   47.8610 C   0  0  0  0  0  0  0  0  0  0  0  0
   60.2670   32.9900   47.8200 C   0  0  0  0  0  0  0  0  0  0  0  0
   64.7080   31.9380   50.2920 C   0  0  0  0  0  0  0  0  0  0  0  0
   64.4520   30.6030   51.0120 C   0  0  0  0  0  0  0  0  0  0  0  0
   60.7130   27.5470   48.1190 C   0  0  0  0  0  0  0  0  0  0  0  0
   59.9370   27.9440   47.0270 C   0  0  0  0  0  0  0  0  0  0  0  0
   54.7050   27.0780   46.7500 H   0  0  0  0  0  0  0  0  0  0  0  0
   55.6334   28.4349   43.9012 H   0  0  0  0  0  0  0  0  0  0  0  0
   56.1152   30.6845   42.9494 H   0  0  0  0  0  0  0  0  0  0  0  0
   57.9078   32.1053   43.9398 H   0  0  0  0  0  0  0  0  0  0  0  0
   59.2122   31.2873   45.8990 H   0  0  0  0  0  0  0  0  0  0  0  0
   57.9552   30.2542   48.5806 H   0  0  0  0  0  0  0  0  0  0  0  0
   59.3474   29.5514   50.5283 H   0  0  0  0  0  0  0  0  0  0  0  0
   62.6662   29.3495   53.2943 H   0  0  0  0  0  0  0  0  0  0  0  0
   63.5637   28.4831   51.9692 H   0  0  0  0  0  0  0  0  0  0  0  0
   62.8151   31.3144   52.2079 H   0  0  0  0  0  0  0  0  0  0  0  0
   61.4637   29.7872   50.1014 H   0  0  0  0  0  0  0  0  0  0  0  0
   61.2770   31.5226   50.6444 H   0  0  0  0  0  0  0  0  0  0  0  0
   63.1225   30.3937   48.5088 H   0  0  0  0  0  0  0  0  0  0  0  0
   61.8660   31.6704   48.3615 H   0  0  0  0  0  0  0  0  0  0  0  0
   63.9563   34.9626   47.4111 H   0  0  0  0  0  0  0  0  0  0  0  0
   62.8332   33.2495   45.8527 H   0  0  0  0  0  0  0  0  0  0  0  0
   60.7255   35.1419   45.1951 H   0  0  0  0  0  0  0  0  0  0  0  0
   58.2273   35.1698   45.3115 H   0  0  0  0  0  0  0  0  0  0  0  0
   57.0396   33.7533   46.9963 H   0  0  0  0  0  0  0  0  0  0  0  0
   58.3448   32.3567   48.6013 H   0  0  0  0  0  0  0  0  0  0  0  0
   60.8400   32.3714   48.5264 H   0  0  0  0  0  0  0  0  0  0  0  0
   65.6607   31.8708   49.7463 H   0  0  0  0  0  0  0  0  0  0  0  0
   64.7410   32.7338   51.0507 H   0  0  0  0  0  0  0  0  0  0  0  0
   64.6644   29.7744   50.3205 H   0  0  0  0  0  0  0  0  0  0  0  0
   65.1092   30.5469   51.8923 H   0  0  0  0  0  0  0  0  0  0  0  0
   61.4550   26.7437   48.0001 H   0  0  0  0  0  0  0  0  0  0  0  0
   60.0883   27.4695   46.0462 H   0  0  0  0  0  0  0  0  0  0  0  0
  1  2  1  0
  2  3  2  0
  2  4  2  0
  2  5  1  0
  5  6  2  0
  6  7  1  0
  7  8  2  0
  8  9  1  0
  9 10  2  0
 10 11  1  0
 11 12  2  0
 12 13  1  0
 13 14  2  0
 14 15  1  0
 15 16  1  0
 16 17  2  0
 16 18  1  0
 18 19  1  0
 19 20  1  0
 20 21  1  0
 21 22  1  0
 22 23  1  0
 23 24  2  0
 23 25  1  0
 25 26  2  3
 26 27  1  0
 27 28  2  0
 28 29  1  0
 29 30  2  0
 30 31  1  0
 31 32  2  0
 22 33  1  0
 33 34  1  0
 14 35  1  0
 35 36  2  0
 10  5  1  0
 36 11  1  0
 34 19  1  0
 32 27  1  0
  1 37  1  0
  6 38  1  0
  7 39  1  0
  8 40  1  0
  9 41  1  0
 12 42  1  0
 13 43  1  0
 18 44  1  0
 18 45  1  0
 19 46  1  0
 20 47  1  0
 20 48  1  0
 21 49  1  0
 21 50  1  0
 25 51  1  0
 26 52  1  0
 28 53  1  0
 29 54  1  0
 30 55  1  0
 31 56  1  0
 32 57  1  0
 33 58  1  0
 33 59  1  0
 34 60  1  0
 34 61  1  0
 35 62  1  0
 36 63  1  0
M  CHG  2   1  -1  15  -1
M  END
>  <UniqueID>  (63) 
54

>  <SMILES>  (63) 
[NH-]S(=O)(=O)c1ccccc1-c1ccc([N-]C(=O)CC2CCN(C(=O)C=Cc3ccccc3)CC2)cc1

>  <Energy>  (63) 
98.08893062092966

>  <Genealogy>  (63) 
[NH-]S(=O)(=O)c1ccccc1-c1ccc([N-]C(=O)CC2CCN(C(=O)C=Cc3ccccc3)CC2)cc1 (protonated)
[NH-]S(=O)(=O)c1ccccc1-c1ccc([N-]C(=O)CC2CCN(C(=O)C=Cc3ccccc3)CC2)cc1 (3D coordinates assigned)
[NH-]S(=O)(=O)c1ccccc1-c1ccc([N-]C(=O)CC2CCN(C(=O)C=Cc3ccccc3)CC2)cc1 (nonaromatic ring conformer: 98.08893062092966 kcal/mol)

>  <smiles>  (63) 
NS(=O)(=O)c1ccccc1-c1ccc(NC(=O)CC2CCN(C(=O)C=Cc3ccccc3)CC2)cc1

>  <score_type>  (63) 
oracle

>  <origin>  (63) 
adg

>  <m_score__min__energy>  (63) 
-13.91

>  <m_primary>  (63) 
energy

$$$$
63:0
     RDKit          3D

 54 56  0  0  0  0  0  0  0  0999 V2000
   58.2150   32.3390   49.7220 C   0  0  0  0  0  0  0  0  0  0  0  0
   58.5590   31.9140   48.2890 C   0  0  0  0  0  0  0  0  0  0  0  0
   59.7960   31.0100   48.2610 C   0  0  0  0  0  0  0  0  0  0  0  0
   58.7400   33.0830   47.4020 N   0  0  0  0  0  0  0  0  0  0  0  0
   59.4290   34.2790   47.9090 C   0  0  0  0  0  0  0  0  0  0  0  0
   60.9160   34.0540   47.9140 C   0  0  0  0  0  0  0  0  0  0  0  0
   61.5930   33.7490   46.7210 C   0  0  0  0  0  0  0  0  0  0  0  0
   62.9680   33.4990   46.7380 C   0  0  0  0  0  0  0  0  0  0  0  0
   63.6740   33.5400   47.9430 C   0  0  0  0  0  0  0  0  0  0  0  0
   63.0050   33.8320   49.1350 C   0  0  0  0  0  0  0  0  0  0  0  0
   61.6290   34.0840   49.1230 C   0  0  0  0  0  0  0  0  0  0  0  0
   58.2940   33.0480   46.0290 C   0  0  0  0  0  0  0  0  0  0  0  0
   57.4040   33.8470   45.6360 O   0  0  0  0  0  0  0  0  0  0  0  0
   58.9170   32.1100   45.0320 C   0  0  0  0  0  0  0  0  0  0  0  0
   58.3600   30.7570   45.1910 N   0  0  0  0  0  0  0  0  0  0  0  0
   59.2030   29.7180   45.4750 C   0  0  0  0  0  0  0  0  0  0  0  0
   58.7180   28.4160   45.5920 C   0  0  0  0  0  0  0  0  0  0  0  0
   57.3540   28.1660   45.4330 C   0  0  0  0  0  0  0  0  0  0  0  0
   56.8690   26.8180   45.5470 N   0  0  0  0  0  0  0  0  0  0  0  0
   57.1360   25.9820   46.6860 C   0  0  0  0  0  0  0  0  0  0  0  0
   57.9800   26.3480   47.5490 O   0  0  0  0  0  0  0  0  0  0  0  0
   56.4470   24.6820   46.8370 C   0  0  0  0  0  0  0  0  0  0  0  0
   57.0470   23.6200   47.5360 C   0  0  0  0  0  0  0  0  0  0  0  0
   56.3640   22.4090   47.6610 C   0  0  0  0  0  0  0  0  0  0  0  0
   55.0980   22.2610   47.0960 C   0  0  0  0  0  0  0  0  0  0  0  0
   54.5290   23.3350   46.4090 C   0  0  0  0  0  0  0  0  0  0  0  0
   55.2080   24.5070   46.2970 N   0  0  0  0  0  0  0  0  0  0  0  0
   56.4990   29.2300   45.1060 C   0  0  0  0  0  0  0  0  0  0  0  0
   55.1490   29.0050   44.8560 O   0  0  0  0  0  0  0  0  0  0  0  0
   57.0190   30.5270   44.9990 C   0  0  0  0  0  0  0  0  0  0  0  0
   56.2420   31.4790   44.7090 O   0  0  0  0  0  0  0  0  0  0  0  0
   58.7424   31.6874   50.4343 H   0  0  0  0  0  0  0  0  0  0  0  0
   58.5261   33.3822   49.8797 H   0  0  0  0  0  0  0  0  0  0  0  0
   57.1298   32.2521   49.8797 H   0  0  0  0  0  0  0  0  0  0  0  0
   57.7051   31.3356   47.9064 H   0  0  0  0  0  0  0  0  0  0  0  0
   60.1073   30.7825   49.2912 H   0  0  0  0  0  0  0  0  0  0  0  0
   59.5544   30.0741   47.7358 H   0  0  0  0  0  0  0  0  0  0  0  0
   60.6143   31.5244   47.7358 H   0  0  0  0  0  0  0  0  0  0  0  0
   59.1928   35.1369   47.2623 H   0  0  0  0  0  0  0  0  0  0  0  0
   59.0915   34.4814   48.9362 H   0  0  0  0  0  0  0  0  0  0  0  0
   61.0394   33.7069   45.7714 H   0  0  0  0  0  0  0  0  0  0  0  0
   63.4956   33.2694   45.8005 H   0  0  0  0  0  0  0  0  0  0  0  0
   64.7561   33.3425   47.9536 H   0  0  0  0  0  0  0  0  0  0  0  0
   63.5611   33.8637   50.0836 H   0  0  0  0  0  0  0  0  0  0  0  0
   61.1041   34.3063   50.0638 H   0  0  0  0  0  0  0  0  0  0  0  0
   58.7092   32.4713   44.0140 H   0  0  0  0  0  0  0  0  0  0  0  0
   60.0030   32.0737   45.2030 H   0  0  0  0  0  0  0  0  0  0  0  0
   60.2770   29.9120   45.6128 H   0  0  0  0  0  0  0  0  0  0  0  0
   59.4087   27.5878   45.8091 H   0  0  0  0  0  0  0  0  0  0  0  0
   56.4410   26.3830   44.6980 H   0  0  0  0  0  0  0  0  0  0  0  0
   58.0458   23.7422   47.9805 H   0  0  0  0  0  0  0  0  0  0  0  0
   56.8247   21.5714   48.2053 H   0  0  0  0  0  0  0  0  0  0  0  0
   54.5541   21.3096   47.1904 H   0  0  0  0  0  0  0  0  0  0  0  0
   53.5308   23.2326   45.9582 H   0  0  0  0  0  0  0  0  0  0  0  0
  1  2  1  0
  2  3  1  0
  2  4  1  0
  4  5  1  0
  5  6  1  0
  6  7  2  0
  7  8  1  0
  8  9  2  0
  9 10  1  0
 10 11  2  0
  4 12  1  0
 12 13  2  0
 12 14  1  0
 14 15  1  0
 15 16  1  0
 16 17  2  0
 17 18  1  0
 18 19  1  0
 19 20  1  0
 20 21  2  0
 20 22  1  0
 22 23  2  0
 23 24  1  0
 24 25  2  0
 25 26  1  0
 26 27  2  0
 18 28  2  0
 28 29  1  0
 28 30  1  0
 30 31  2  0
 11  6  1  0
 30 15  1  0
 27 22  1  0
  1 32  1  0
  1 33  1  0
  1 34  1  0
  2 35  1  0
  3 36  1  0
  3 37  1  0
  3 38  1  0
  5 39  1  0
  5 40  1  0
  7 41  1  0
  8 42  1  0
  9 43  1  0
 10 44  1  0
 11 45  1  0
 14 46  1  0
 14 47  1  0
 16 48  1  0
 17 49  1  0
 19 50  1  0
 23 51  1  0
 24 52  1  0
 25 53  1  0
 26 54  1  0
M  CHG  1  29  -1
M  END
>  <UniqueID>  (64) 
55

>  <SMILES>  (64) 
CC(C)N(Cc1ccccc1)C(=O)Cn1ccc(NC(=O)c2ccccn2)c([O-])c1=O

>  <Energy>  (64) 
60.453017659254854

>  <Genealogy>  (64) 
CC(C)N(Cc1ccccc1)C(=O)Cn1ccc(NC(=O)c2ccccn2)c([O-])c1=O (protonated)
CC(C)N(Cc1ccccc1)C(=O)Cn1ccc(NC(=O)c2ccccn2)c([O-])c1=O (3D coordinates assigned)
CC(C)N(Cc1ccccc1)C(=O)Cn1ccc(NC(=O)c2ccccn2)c([O-])c1=O (optimized conformer: 60.453017659254854 kcal/mol)

>  <smiles>  (64) 
CC(C)N(Cc1ccccc1)C(=O)Cn1ccc(NC(=O)c2ccccn2)c(O)c1=O

>  <score_type>  (64) 
oracle

>  <origin>  (64) 
adg

>  <m_score__min__energy>  (64) 
-12.73

>  <m_primary>  (64) 
energy

$$$$
64:0
     RDKit          3D

 69 72  0  0  0  0  0  0  0  0999 V2000
   62.2990   31.2020   47.1160 C   0  0  0  0  0  0  0  0  0  0  0  0
   61.1490   31.0080   47.7680 C   0  0  0  0  0  0  0  0  0  0  0  0
   61.1090   30.7260   49.2560 C   0  0  0  0  0  0  0  0  0  0  0  0
   59.7740   30.9250   49.8730 N   0  0  2  0  0  0  0  0  0  0  0  0
   59.8520   31.4430   51.2500 C   0  0  0  0  0  0  0  0  0  0  0  0
   58.9690   29.7170   49.8300 C   0  0  0  0  0  0  0  0  0  0  0  0
   58.0610   29.5320   50.6890 O   0  0  0  0  0  0  0  0  0  0  0  0
   59.1610   28.6910   48.7740 C   0  0  0  0  0  0  0  0  0  0  0  0
   60.1670   27.7160   48.8810 C   0  0  0  0  0  0  0  0  0  0  0  0
   60.3590   26.7840   47.8580 C   0  0  0  0  0  0  0  0  0  0  0  0
   59.5540   26.8190   46.7180 C   0  0  0  0  0  0  0  0  0  0  0  0
   58.5460   27.7800   46.5880 C   0  0  0  0  0  0  0  0  0  0  0  0
   57.7640   27.7570   45.4220 O   0  0  0  0  0  0  0  0  0  0  0  0
   57.9590   28.5710   44.2610 C   0  0  0  0  0  0  0  0  0  0  0  0
   56.6860   29.4050   43.9750 C   0  0  0  0  0  0  0  0  0  0  0  0
   57.0340   30.7570   43.3340 C   0  0  0  0  0  0  0  0  0  0  0  0
   57.9100   31.5940   44.2010 N   0  0  0  0  0  0  0  0  0  0  0  0
   57.1430   32.6110   44.9540 C   0  0  0  0  0  0  0  0  0  0  0  0
   58.0260   33.2700   45.9790 C   0  0  0  0  0  0  0  0  0  0  0  0
   58.9650   34.2400   45.6070 C   0  0  0  0  0  0  0  0  0  0  0  0
   59.8040   34.8080   46.5650 C   0  0  0  0  0  0  0  0  0  0  0  0
   59.6940   34.4070   47.9090 C   0  0  0  0  0  0  0  0  0  0  0  0
   60.5150   34.9290   48.9200 O   0  0  0  0  0  0  0  0  0  0  0  0
   60.9690   34.2040   50.0630 C   0  0  0  0  0  0  0  0  0  0  0  0
   62.3770   33.7130   49.8440 C   0  0  0  0  0  0  0  0  0  0  0  0
   63.0220   33.8940   48.6050 C   0  0  0  0  0  0  0  0  0  0  0  0
   64.3150   33.4020   48.4060 C   0  0  0  0  0  0  0  0  0  0  0  0
   64.9800   32.7380   49.4430 C   0  0  0  0  0  0  0  0  0  0  0  0
   64.3540   32.5680   50.6810 C   0  0  0  0  0  0  0  0  0  0  0  0
   63.0560   33.0530   50.8820 C   0  0  0  0  0  0  0  0  0  0  0  0
   58.7650   33.4710   48.2470 N   0  0  0  0  0  0  0  0  0  0  0  0
   57.9460   32.8960   47.3270 C   0  0  0  0  0  0  0  0  0  0  0  0
   58.7830   30.8100   45.1110 C   0  0  0  0  0  0  0  0  0  0  0  0
   59.1920   29.4700   44.4920 C   0  0  0  0  0  0  0  0  0  0  0  0
   58.3530   28.7180   47.6210 C   0  0  0  0  0  0  0  0  0  0  0  0
   62.2909   31.4046   46.0348 H   0  0  0  0  0  0  0  0  0  0  0  0
   63.2539   31.1591   47.6604 H   0  0  0  0  0  0  0  0  0  0  0  0
   60.2034   31.0544   47.2079 H   0  0  0  0  0  0  0  0  0  0  0  0
   61.4126   29.6813   49.4182 H   0  0  0  0  0  0  0  0  0  0  0  0
   61.7907   31.4447   49.7343 H   0  0  0  0  0  0  0  0  0  0  0  0
   59.3090   31.6640   49.2950 H   0  0  0  0  0  0  0  0  0  0  0  0
   59.7271   30.6134   51.9615 H   0  0  0  0  0  0  0  0  0  0  0  0
   60.8317   31.9174   51.4083 H   0  0  0  0  0  0  0  0  0  0  0  0
   59.0555   32.1849   51.4083 H   0  0  0  0  0  0  0  0  0  0  0  0
   60.8070   27.6863   49.7752 H   0  0  0  0  0  0  0  0  0  0  0  0
   61.1460   26.0211   47.9510 H   0  0  0  0  0  0  0  0  0  0  0  0
   59.7138   26.0844   45.9150 H   0  0  0  0  0  0  0  0  0  0  0  0
   58.1405   27.9419   43.3771 H   0  0  0  0  0  0  0  0  0  0  0  0
   56.0351   28.8413   43.2904 H   0  0  0  0  0  0  0  0  0  0  0  0
   56.1754   29.5960   44.9304 H   0  0  0  0  0  0  0  0  0  0  0  0
   57.5535   30.5722   42.3822 H   0  0  0  0  0  0  0  0  0  0  0  0
   56.0928   31.3059   43.1828 H   0  0  0  0  0  0  0  0  0  0  0  0
   56.7651   33.3724   44.2558 H   0  0  0  0  0  0  0  0  0  0  0  0
   56.3010   32.1215   45.4653 H   0  0  0  0  0  0  0  0  0  0  0  0
   59.0410   34.5549   44.5558 H   0  0  0  0  0  0  0  0  0  0  0  0
   60.5468   35.5645   46.2719 H   0  0  0  0  0  0  0  0  0  0  0  0
   60.9471   34.8632   50.9433 H   0  0  0  0  0  0  0  0  0  0  0  0
   60.3088   33.3390   50.2242 H   0  0  0  0  0  0  0  0  0  0  0  0
   62.5062   34.4245   47.7910 H   0  0  0  0  0  0  0  0  0  0  0  0
   64.8105   33.5369   47.4332 H   0  0  0  0  0  0  0  0  0  0  0  0
   65.9966   32.3494   49.2836 H   0  0  0  0  0  0  0  0  0  0  0  0
   64.8812   32.0530   51.4976 H   0  0  0  0  0  0  0  0  0  0  0  0
   62.5656   32.9167   51.8571 H   0  0  0  0  0  0  0  0  0  0  0  0
   57.2177   32.1342   47.6419 H   0  0  0  0  0  0  0  0  0  0  0  0
   59.6897   31.3946   45.3258 H   0  0  0  0  0  0  0  0  0  0  0  0
   58.2186   30.6031   46.0322 H   0  0  0  0  0  0  0  0  0  0  0  0
   59.6884   29.6551   43.5280 H   0  0  0  0  0  0  0  0  0  0  0  0
   59.8761   28.9573   45.1842 H   0  0  0  0  0  0  0  0  0  0  0  0
   57.5639   29.4785   47.5262 H   0  0  0  0  0  0  0  0  0  0  0  0
  1  2  2  0
  2  3  1  0
  3  4  1  0
  4  5  1  0
  4  6  1  0
  6  7  2  0
  6  8  1  0
  8  9  2  0
  9 10  1  0
 10 11  2  0
 11 12  1  0
 12 13  1  0
 13 14  1  0
 14 15  1  0
 15 16  1  0
 16 17  1  0
 17 18  1  0
 18 19  1  0
 19 20  2  0
 20 21  1  0
 21 22  2  0
 22 23  1  0
 23 24  1  0
 24 25  1  0
 25 26  2  0
 26 27  1  0
 27 28  2  0
 28 29  1  0
 29 30  2  0
 22 31  1  0
 31 32  2  0
 17 33  1  0
 33 34  1  0
 12 35  2  0
 35  8  1  0
 34 14  1  0
 32 19  1  0
 30 25  1  0
  1 36  1  0
  1 37  1  0
  2 38  1  0
  3 39  1  0
  3 40  1  0
  4 41  1  6
  5 42  1  0
  5 43  1  0
  5 44  1  0
  9 45  1  0
 10 46  1  0
 11 47  1  0
 14 48  1  0
 15 49  1  0
 15 50  1  0
 16 51  1  0
 16 52  1  0
 18 53  1  0
 18 54  1  0
 20 55  1  0
 21 56  1  0
 24 57  1  0
 24 58  1  0
 26 59  1  0
 27 60  1  0
 28 61  1  0
 29 62  1  0
 30 63  1  0
 32 64  1  0
 33 65  1  0
 33 66  1  0
 34 67  1  0
 34 68  1  0
 35 69  1  0
M  CHG  1   4   1
M  END
>  <UniqueID>  (65) 
56

>  <SMILES>  (65) 
C=CC[N@H+](C)C(=O)c1cccc(OC2CCN(Cc3ccc(OCc4ccccc4)nc3)CC2)c1

>  <Energy>  (65) 
88.06059346321251

>  <Genealogy>  (65) 
C=CC[NH+](C)C(=O)c1cccc(OC2CCN(Cc3ccc(OCc4ccccc4)nc3)CC2)c1 (protonated)
C=CC[N@H+](C)C(=O)c1cccc(OC2CCN(Cc3ccc(OCc4ccccc4)nc3)CC2)c1 (chirality)
C=CC[N@H+](C)C(=O)c1cccc(OC2CCN(Cc3ccc(OCc4ccccc4)nc3)CC2)c1 (3D coordinates assigned)
C=CC[N@H+](C)C(=O)c1cccc(OC2CCN(Cc3ccc(OCc4ccccc4)nc3)CC2)c1 (nonaromatic ring conformer: 88.06059346321251 kcal/mol)

>  <smiles>  (65) 
C=CCN(C)C(=O)c1cccc(OC2CCN(Cc3ccc(OCc4ccccc4)nc3)CC2)c1

>  <score_type>  (65) 
oracle

>  <origin>  (65) 
adg

>  <m_score__min__energy>  (65) 
-8.4199999999999999

>  <m_primary>  (65) 
energy

$$$$
65:0
     RDKit          3D

 42 44  0  0  0  0  0  0  0  0999 V2000
   54.9420   26.7120   45.0150 H   0  0  0  0  0  0  0  0  0  0  0  0
   55.1660   26.6680   46.0340 N   0  0  0  0  0  0  0  0  0  0  0  0
   56.5030   26.4530   46.4800 C   0  0  0  0  0  0  0  0  0  0  0  0
   56.7120   25.6600   47.4360 O   0  0  0  0  0  0  0  0  0  0  0  0
   57.6370   27.1240   45.8010 C   0  0  0  0  0  0  0  0  0  0  0  0
   57.7110   27.0810   44.3960 C   0  0  0  0  0  0  0  0  0  0  0  0
   56.9043   26.6005   43.8229 H   0  0  0  0  0  0  0  0  0  0  0  0
   58.7980   27.6420   43.7220 C   0  0  0  0  0  0  0  0  0  0  0  0
   58.8448   27.5989   42.6238 H   0  0  0  0  0  0  0  0  0  0  0  0
   59.8230   28.2560   44.4380 C   0  0  0  0  0  0  0  0  0  0  0  0
   60.6823   28.6893   43.9052 H   0  0  0  0  0  0  0  0  0  0  0  0
   59.7610   28.3220   45.8300 C   0  0  0  0  0  0  0  0  0  0  0  0
   60.5694   28.8169   46.3882 H   0  0  0  0  0  0  0  0  0  0  0  0
   58.6750   27.7620   46.5270 C   0  0  0  0  0  0  0  0  0  0  0  0
   58.5840   27.9370   47.9510 N   0  0  0  0  0  0  0  0  0  0  0  0
   58.1410   27.1770   48.5140 H   0  0  0  0  0  0  0  0  0  0  0  0
   59.0750   29.1050   48.6270 C   0  0  0  0  0  0  0  0  0  0  0  0
   59.7980   29.9370   48.0160 O   0  0  0  0  0  0  0  0  0  0  0  0
   58.7420   29.3460   50.0690 C   0  0  0  0  0  0  0  0  0  0  0  0
   57.9711   28.6287   50.3871 H   0  0  0  0  0  0  0  0  0  0  0  0
   59.6535   29.2155   50.6708 H   0  0  0  0  0  0  0  0  0  0  0  0
   58.2530   30.6740   50.2550 O   0  0  0  0  0  0  0  0  0  0  0  0
   58.8830   31.8470   49.8070 C   0  0  0  0  0  0  0  0  0  0  0  0
   59.8510   32.4310   50.6310 C   0  0  0  0  0  0  0  0  0  0  0  0
   60.0974   31.9655   51.5967 H   0  0  0  0  0  0  0  0  0  0  0  0
   60.5070   33.5990   50.2390 C   0  0  0  0  0  0  0  0  0  0  0  0
   61.2635   34.0509   50.8974 H   0  0  0  0  0  0  0  0  0  0  0  0
   60.2050   34.1950   49.0130 C   0  0  0  0  0  0  0  0  0  0  0  0
   60.7236   35.1164   48.7097 H   0  0  0  0  0  0  0  0  0  0  0  0
   59.2430   33.6240   48.1660 C   0  0  0  0  0  0  0  0  0  0  0  0
   58.9390   34.2750   46.8750 C   0  0  0  0  0  0  0  0  0  0  0  0
   58.6670   35.3407   46.8547 H   0  0  0  0  0  0  0  0  0  0  0  0
   58.9890   33.6040   45.7630 N   0  0  0  0  0  0  0  0  0  0  0  0
   58.1650   32.5020   45.4690 N   0  0  0  0  0  0  0  0  0  0  0  0
   56.9730   32.5570   44.8580 C   0  0  0  0  0  0  0  0  0  0  0  0
   56.4811   33.4828   44.5250 H   0  0  0  0  0  0  0  0  0  0  0  0
   56.4620   31.3190   44.7090 N   0  0  0  0  0  0  0  0  0  0  0  0
   57.3380   30.4670   45.2270 N   0  0  0  0  0  0  0  0  0  0  0  0
   58.3760   31.1920   45.6890 C   0  0  0  0  0  0  0  0  0  0  0  0
   59.2683   30.7723   46.1764 H   0  0  0  0  0  0  0  0  0  0  0  0
   58.5840   32.4460   48.5680 C   0  0  0  0  0  0  0  0  0  0  0  0
   57.8301   31.9904   47.9092 H   0  0  0  0  0  0  0  0  0  0  0  0
  1  2  1  0
  2  3  1  0
  3  4  2  0
  3  5  1  0
  5  6  2  0
  6  7  1  0
  6  8  1  0
  8  9  1  0
  8 10  2  0
 10 11  1  0
 10 12  1  0
 12 13  1  0
 12 14  2  0
 14 15  1  0
 15 16  1  0
 15 17  1  0
 17 18  2  0
 17 19  1  0
 19 20  1  0
 19 21  1  0
 19 22  1  0
 22 23  1  0
 23 24  2  0
 24 25  1  0
 24 26  1  0
 26 27  1  0
 26 28  2  0
 28 29  1  0
 28 30  1  0
 30 31  1  0
 31 32  1  0
 31 33  2  0
 33 34  1  0
 34 35  1  0
 35 36  1  0
 35 37  2  0
 37 38  1  0
 38 39  2  0
 39 40  1  0
 30 41  2  0
 41 42  1  0
 14  5  1  0
 41 23  1  0
 39 34  1  0
M  CHG  1   2  -1
M  END
>  <UniqueID>  (66) 
57

>  <SMILES>  (66) 
[NH-]C(=O)c1ccccc1NC(=O)COc1cccc(/C=N/n2cnnc2)c1

>  <Energy>  (66) 
86.0549503707424

>  <Genealogy>  (66) 
[NH-]C(=O)c1ccccc1NC(=O)COc1cccc(C=Nn2cnnc2)c1 (protonated)
[NH-]C(=O)c1ccccc1NC(=O)COc1cccc(/C=N/n2cnnc2)c1 (cis-trans isomerization)
[NH-]C(=O)c1ccccc1NC(=O)COc1cccc(/C=N/n2cnnc2)c1 (3D coordinates assigned)
[NH-]C(=O)c1ccccc1NC(=O)COc1cccc(/C=N/n2cnnc2)c1 (optimized conformer: 86.0549503707424 kcal/mol)

>  <smiles>  (66) 
NC(=O)c1ccccc1NC(=O)COc1cccc(C=Nn2cnnc2)c1

>  <score_type>  (66) 
oracle

>  <origin>  (66) 
adg

>  <m_score__min__energy>  (66) 
-11.56

>  <m_primary>  (66) 
energy

$$$$
66:0
     RDKit          3D

 52 55  0  0  0  0  0  0  0  0999 V2000
   60.6715   34.4707   47.7733 H   0  0  0  0  0  0  0  0  0  0  0  0
   59.9060   33.9200   47.2070 C   0  0  0  0  0  0  0  0  0  0  0  0
   58.9930   33.0830   47.8780 C   0  0  0  0  0  0  0  0  0  0  0  0
   59.0050   32.9300   49.3220 N   0  0  0  0  0  0  0  0  0  0  0  0
   58.1660   31.9030   49.9550 C   0  0  0  0  0  0  0  0  0  0  0  0
   57.1246   32.2573   49.9543 H   0  0  0  0  0  0  0  0  0  0  0  0
   58.2972   30.9790   49.3727 H   0  0  0  0  0  0  0  0  0  0  0  0
   58.5660   31.5800   51.4010 C   0  0  0  0  0  0  0  0  0  0  0  0
   57.8459   32.0684   52.0739 H   0  0  0  0  0  0  0  0  0  0  0  0
   58.5619   30.4836   51.4892 H   0  0  0  0  0  0  0  0  0  0  0  0
   59.9220   32.0260   51.7750 N   0  0  0  0  0  0  0  0  0  0  0  0
   59.9400   31.9350   52.8200 H   0  0  0  0  0  0  0  0  0  0  0  0
   61.0350   31.1370   51.3390 C   0  0  0  0  0  0  0  0  0  0  0  0
   61.9309   31.4093   51.9163 H   0  0  0  0  0  0  0  0  0  0  0  0
   60.6848   30.1095   51.5166 H   0  0  0  0  0  0  0  0  0  0  0  0
   61.3910   31.2030   49.8700 C   0  0  0  0  0  0  0  0  0  0  0  0
   60.7860   30.3250   48.9480 C   0  0  0  0  0  0  0  0  0  0  0  0
   60.0700   29.5688   49.3025 H   0  0  0  0  0  0  0  0  0  0  0  0
   61.0900   30.4090   47.5860 C   0  0  0  0  0  0  0  0  0  0  0  0
   60.6143   29.7189   46.8737 H   0  0  0  0  0  0  0  0  0  0  0  0
   61.9970   31.3680   47.1280 C   0  0  0  0  0  0  0  0  0  0  0  0
   62.2451   31.4236   46.0578 H   0  0  0  0  0  0  0  0  0  0  0  0
   62.5900   32.2580   48.0310 C   0  0  0  0  0  0  0  0  0  0  0  0
   63.7410   33.4450   47.4530 Cl  0  0  0  0  0  0  0  0  0  0  0  0
   62.2690   32.1930   49.3940 C   0  0  0  0  0  0  0  0  0  0  0  0
   62.7060   32.9198   50.0945 H   0  0  0  0  0  0  0  0  0  0  0  0
   60.1250   33.4660   51.5280 C   0  0  0  0  0  0  0  0  0  0  0  0
   59.5385   34.0268   52.2706 H   0  0  0  0  0  0  0  0  0  0  0  0
   61.2076   33.6445   51.6062 H   0  0  0  0  0  0  0  0  0  0  0  0
   59.7060   33.9450   50.1250 C   0  0  0  0  0  0  0  0  0  0  0  0
   59.0394   34.8122   50.2420 H   0  0  0  0  0  0  0  0  0  0  0  0
   60.6333   34.1878   49.5854 H   0  0  0  0  0  0  0  0  0  0  0  0
   58.0650   32.4120   47.1410 N   0  0  0  0  0  0  0  0  0  0  0  0
   57.9800   32.5060   45.7840 C   0  0  0  0  0  0  0  0  0  0  0  0
   57.0580   31.8680   45.1210 N   0  0  0  0  0  0  0  0  0  0  0  0
   56.9700   30.4440   44.9350 C   0  0  0  0  0  0  0  0  0  0  0  0
   55.9140   29.9670   44.4370 O   0  0  0  0  0  0  0  0  0  0  0  0
   58.0810   29.5260   45.2800 C   0  0  0  0  0  0  0  0  0  0  0  0
   59.2790   29.5680   44.5390 C   0  0  0  0  0  0  0  0  0  0  0  0
   59.3930   30.2976   43.7237 H   0  0  0  0  0  0  0  0  0  0  0  0
   60.3230   28.6870   44.8350 C   0  0  0  0  0  0  0  0  0  0  0  0
   61.2470   28.7086   44.2386 H   0  0  0  0  0  0  0  0  0  0  0  0
   60.1920   27.7770   45.8910 C   0  0  0  0  0  0  0  0  0  0  0  0
   61.2050   26.9230   46.1730 F   0  0  0  0  0  0  0  0  0  0  0  0
   59.0150   27.7480   46.6500 C   0  0  0  0  0  0  0  0  0  0  0  0
   58.9193   27.0409   47.4872 H   0  0  0  0  0  0  0  0  0  0  0  0
   57.9610   28.6160   46.3460 C   0  0  0  0  0  0  0  0  0  0  0  0
   57.0367   28.5869   46.9416 H   0  0  0  0  0  0  0  0  0  0  0  0
   58.8690   33.3400   45.1000 C   0  0  0  0  0  0  0  0  0  0  0  0
   58.8088   33.4384   44.0061 H   0  0  0  0  0  0  0  0  0  0  0  0
   59.8330   34.0460   45.8190 C   0  0  0  0  0  0  0  0  0  0  0  0
   60.5381   34.7043   45.2904 H   0  0  0  0  0  0  0  0  0  0  0  0
  1  2  1  0
  2  3  2  0
  3  4  1  0
  4  5  1  0
  5  6  1  0
  5  7  1  0
  5  8  1  0
  8  9  1  0
  8 10  1  0
  8 11  1  0
 11 12  1  0
 11 13  1  0
 13 14  1  0
 13 15  1  0
 13 16  1  0
 16 17  2  0
 17 18  1  0
 17 19  1  0
 19 20  1  0
 19 21  2  0
 21 22  1  0
 21 23  1  0
 23 24  1  0
 23 25  2  0
 25 26  1  0
 11 27  1  0
 27 28  1  0
 27 29  1  0
 27 30  1  0
 30 31  1  0
 30 32  1  0
  3 33  1  0
 33 34  1  0
 34 35  2  0
 35 36  1  0
 36 37  2  0
 36 38  1  0
 38 39  2  0
 39 40  1  0
 39 41  1  0
 41 42  1  0
 41 43  2  0
 43 44  1  0
 43 45  1  0
 45 46  1  0
 45 47  2  0
 47 48  1  0
 34 49  1  0
 49 50  1  0
 49 51  2  0
 51 52  1  0
 51  2  1  0
 30  4  1  0
 47 38  1  0
 25 16  1  0
M  CHG  2  11   1  33  -1
M  END
>  <UniqueID>  (67) 
58

>  <SMILES>  (67) 
O=C(/N=c1/cccc(N2CC[NH+](Cc3cccc(Cl)c3)CC2)[n-]1)c1ccc(F)cc1

>  <Energy>  (67) 
74.35123226906329

>  <Genealogy>  (67) 
O=C(N=c1cccc(N2CC[NH+](Cc3cccc(Cl)c3)CC2)[n-]1)c1ccc(F)cc1 (protonated)
O=C(/N=c1/cccc(N2CC[NH+](Cc3cccc(Cl)c3)CC2)[n-]1)c1ccc(F)cc1 (cis-trans isomerization)
O=C(/N=c1/cccc(N2CC[NH+](Cc3cccc(Cl)c3)CC2)[n-]1)c1ccc(F)cc1 (3D coordinates assigned)
O=C(/N=c1/cccc(N2CC[NH+](Cc3cccc(Cl)c3)CC2)[n-]1)c1ccc(F)cc1 (nonaromatic ring conformer: 74.35123226906329 kcal/mol)

>  <smiles>  (67) 
O=C(N=c1cccc(N2CCN(Cc3cccc(Cl)c3)CC2)[nH]1)c1ccc(F)cc1

>  <score_type>  (67) 
oracle

>  <origin>  (67) 
adg

>  <m_score__min__energy>  (67) 
-9.2899999999999991

>  <m_primary>  (67) 
energy

$$$$
67:0
     RDKit          3D

 52 55  0  0  0  0  0  0  0  0999 V2000
   57.0573   29.2408   43.4898 H   0  0  0  0  0  0  0  0  0  0  0  0
   56.7410   30.2640   43.7410 C   0  0  0  0  0  0  0  0  0  0  0  0
   55.8376   30.6893   43.2796 H   0  0  0  0  0  0  0  0  0  0  0  0
   57.4570   30.9930   44.6100 C   0  0  0  0  0  0  0  0  0  0  0  0
   57.0060   32.2440   44.8700 N   0  0  0  0  0  0  0  0  0  0  0  0
   57.4990   33.0030   45.8740 C   0  0  0  0  0  0  0  0  0  0  0  0
   57.0390   34.1650   46.0380 O   0  0  0  0  0  0  0  0  0  0  0  0
   58.4560   32.5010   46.7140 N   0  0  0  0  0  0  0  0  0  0  0  0
   58.9650   33.3340   47.8240 C   0  0  0  0  0  0  0  0  0  0  0  0
   58.5146   34.3356   47.7608 H   0  0  0  0  0  0  0  0  0  0  0  0
   58.6971   32.8570   48.7783 H   0  0  0  0  0  0  0  0  0  0  0  0
   60.4650   33.4590   47.7460 C   0  0  0  0  0  0  0  0  0  0  0  0
   61.0940   33.7350   46.5200 C   0  0  0  0  0  0  0  0  0  0  0  0
   60.4867   33.8842   45.6151 H   0  0  0  0  0  0  0  0  0  0  0  0
   62.4880   33.8210   46.4440 C   0  0  0  0  0  0  0  0  0  0  0  0
   62.9735   34.0416   45.4819 H   0  0  0  0  0  0  0  0  0  0  0  0
   63.2640   33.6270   47.5890 C   0  0  0  0  0  0  0  0  0  0  0  0
   64.3603   33.6930   47.5278 H   0  0  0  0  0  0  0  0  0  0  0  0
   62.6480   33.3490   48.8130 C   0  0  0  0  0  0  0  0  0  0  0  0
   63.2603   33.1969   49.7141 H   0  0  0  0  0  0  0  0  0  0  0  0
   61.2540   33.2640   48.8930 C   0  0  0  0  0  0  0  0  0  0  0  0
   60.7732   33.0436   49.8575 H   0  0  0  0  0  0  0  0  0  0  0  0
   58.9780   31.2520   46.4790 C   0  0  0  0  0  0  0  0  0  0  0  0
   59.8730   30.7990   47.2500 O   0  0  0  0  0  0  0  0  0  0  0  0
   58.5560   30.4830   45.3620 C   0  0  0  0  0  0  0  0  0  0  0  0
   59.2290   29.3370   45.0640 C   0  0  0  0  0  0  0  0  0  0  0  0
   60.2525   29.4439   44.6753 H   0  0  0  0  0  0  0  0  0  0  0  0
   58.7080   27.9650   45.2160 C   0  0  0  0  0  0  0  0  0  0  0  0
   58.0980   27.2870   46.6350 S   0  0  0  0  0  0  0  0  0  0  0  0
   57.5450   25.8640   45.9260 C   0  0  0  0  0  0  0  0  0  0  0  0
   56.8960   24.7490   46.6360 C   0  0  0  0  0  0  0  0  0  0  0  0
   57.5320   24.1140   47.5180 O   0  0  0  0  0  0  0  0  0  0  0  0
   55.5260   24.4130   46.3870 N   0  0  0  0  0  0  0  0  0  0  0  0
   55.0680   23.8780   45.2920 C   0  0  0  0  0  0  0  0  0  0  0  0
   54.3458   24.4525   44.6933 H   0  0  0  0  0  0  0  0  0  0  0  0
   55.4780   22.5060   44.8000 C   0  0  1  0  0  0  0  0  0  0  0  0
   54.5990   21.8522   44.8995 H   0  0  0  0  0  0  0  0  0  0  0  0
   55.9130   22.5770   43.4030 N   0  0  0  0  0  0  0  0  0  0  0  0
   55.1440   22.2160   42.7890 H   0  0  0  0  0  0  0  0  0  0  0  0
   57.0610   21.6810   43.2910 C   0  0  0  0  0  0  0  0  0  0  0  0
   56.8444   20.8776   42.5716 H   0  0  0  0  0  0  0  0  0  0  0  0
   57.9489   22.2234   42.9340 H   0  0  0  0  0  0  0  0  0  0  0  0
   57.3020   21.0960   44.6670 C   0  0  0  0  0  0  0  0  0  0  0  0
   56.9148   20.0677   44.7195 H   0  0  0  0  0  0  0  0  0  0  0  0
   58.3748   21.0502   44.9059 H   0  0  0  0  0  0  0  0  0  0  0  0
   56.5830   21.9560   45.5930 N   0  0  0  0  0  0  0  0  0  0  0  0
   57.2340   22.7090   45.9230 H   0  0  0  0  0  0  0  0  0  0  0  0
   56.2250   21.4080   46.4110 H   0  0  0  0  0  0  0  0  0  0  0  0
   57.8150   25.9120   44.5630 C   0  0  0  0  0  0  0  0  0  0  0  0
   57.5599   25.0989   43.8674 H   0  0  0  0  0  0  0  0  0  0  0  0
   58.4440   27.0980   44.1630 C   0  0  0  0  0  0  0  0  0  0  0  0
   58.7035   27.3210   43.1176 H   0  0  0  0  0  0  0  0  0  0  0  0
  1  2  1  0
  2  3  1  0
  2  4  2  0
  4  5  1  0
  5  6  1  0
  6  7  2  0
  6  8  1  0
  8  9  1  0
  9 10  1  0
  9 11  1  0
  9 12  1  0
 12 13  2  0
 13 14  1  0
 13 15  1  0
 15 16  1  0
 15 17  2  0
 17 18  1  0
 17 19  1  0
 19 20  1  0
 19 21  2  0
 21 22  1  0
  8 23  1  0
 23 24  2  0
 23 25  1  0
 25 26  2  3
 26 27  1  0
 26 28  1  0
 28 29  1  0
 29 30  1  0
 30 31  1  0
 31 32  2  0
 31 33  1  0
 33 34  2  0
 34 35  1  0
 34 36  1  0
 36 37  1  6
 36 38  1  0
 38 39  1  0
 38 40  1  0
 40 41  1  0
 40 42  1  0
 40 43  1  0
 43 44  1  0
 43 45  1  0
 43 46  1  0
 46 47  1  0
 46 48  1  0
 30 49  2  0
 49 50  1  0
 49 51  1  0
 51 52  1  0
 25  4  1  0
 51 28  2  0
 21 12  1  0
 46 36  1  0
M  CHG  2   5  -1  46   1
M  END
>  <UniqueID>  (68) 
59

>  <SMILES>  (68) 
C=c1[n-]c(=O)n(Cc2ccccc2)c(=O)c1=Cc1ccc(C(=O)/N=C\[C@H]2NCC[NH2+]2)s1

>  <Energy>  (68) 
114.48469024205605

>  <Genealogy>  (68) 
C=c1[n-]c(=O)n(Cc2ccccc2)c(=O)c1=Cc1ccc(C(=O)N=CC2NCC[NH2+]2)s1 (protonated)
C=c1[n-]c(=O)n(Cc2ccccc2)c(=O)c1=Cc1ccc(C(=O)N=C[C@H]2NCC[NH2+]2)s1 (chirality)
C=c1[n-]c(=O)n(Cc2ccccc2)c(=O)c1=Cc1ccc(C(=O)/N=C\[C@H]2NCC[NH2+]2)s1 (cis-trans isomerization)
C=c1[n-]c(=O)n(Cc2ccccc2)c(=O)c1=Cc1ccc(C(=O)/N=C\[C@H]2NCC[NH2+]2)s1 (3D coordinates assigned)
C=c1[n-]c(=O)n(Cc2ccccc2)c(=O)c1=Cc1ccc(C(=O)/N=C\[C@H]2NCC[NH2+]2)s1 (nonaromatic ring conformer: 114.48469024205605 kcal/mol)

>  <smiles>  (68) 
C=c1[nH]c(=O)n(Cc2ccccc2)c(=O)c1=Cc1ccc(C(=O)N=CC2NCCN2)s1

>  <score_type>  (68) 
oracle

>  <origin>  (68) 
adg

>  <m_score__min__energy>  (68) 
-9.0899999999999999

>  <m_primary>  (68) 
energy

$$$$
68:0
     RDKit          3D

 34 36  0  0  0  0  0  0  0  0999 V2000
   54.7740   27.0520   45.2080 H   0  0  0  0  0  0  0  0  0  0  0  0
   55.1430   26.4740   45.9950 N   0  0  0  0  0  0  0  0  0  0  0  0
   56.3990   26.1980   46.1640 C   0  0  0  0  0  0  0  0  0  0  0  0
   56.7380   25.1920   47.0150 N   0  0  0  0  0  0  0  0  0  0  0  0
   58.0320   24.8760   47.2840 C   0  0  0  0  0  0  0  0  0  0  0  0
   58.2649   24.0463   47.9676 H   0  0  0  0  0  0  0  0  0  0  0  0
   59.0650   25.6040   46.6930 C   0  0  0  0  0  0  0  0  0  0  0  0
   60.1142   25.3631   46.9191 H   0  0  0  0  0  0  0  0  0  0  0  0
   58.7540   26.6410   45.8120 C   0  0  0  0  0  0  0  0  0  0  0  0
   59.5604   27.2287   45.3490 H   0  0  0  0  0  0  0  0  0  0  0  0
   57.4190   26.9340   45.5170 C   0  0  0  0  0  0  0  0  0  0  0  0
   57.1450   27.9620   44.6050 O   0  0  0  0  0  0  0  0  0  0  0  0
   57.3880   29.3270   44.8310 C   0  0  0  0  0  0  0  0  0  0  0  0
   58.1870   29.7920   45.8990 C   0  0  0  0  0  0  0  0  0  0  0  0
   58.7320   28.9330   46.7960 F   0  0  0  0  0  0  0  0  0  0  0  0
   58.4030   31.1630   46.0660 C   0  0  0  0  0  0  0  0  0  0  0  0
   59.0285   31.5201   46.8974 H   0  0  0  0  0  0  0  0  0  0  0  0
   57.8290   32.0840   45.1830 C   0  0  0  0  0  0  0  0  0  0  0  0
   58.1310   33.8060   45.3910 S   0  0  0  0  0  0  0  0  0  0  0  0
   56.8430   34.5540   45.1930 O   0  0  0  0  0  0  0  0  0  0  0  0
   59.1390   34.2910   44.3870 O   0  0  0  0  0  0  0  0  0  0  0  0
   58.7290   34.1150   46.9900 N   0  0  0  0  0  0  0  0  0  0  0  0
   59.9730   33.9890   47.3430 C   0  0  0  0  0  0  0  0  0  0  0  0
   60.5710   34.0470   48.9190 S   0  0  0  0  0  0  0  0  0  0  0  0
   62.1660   33.8130   48.4310 C   0  0  0  0  0  0  0  0  0  0  0  0
   63.0426   33.7629   49.0936 H   0  0  0  0  0  0  0  0  0  0  0  0
   62.1830   33.6940   47.0450 C   0  0  0  0  0  0  0  0  0  0  0  0
   63.1100   33.5331   46.4751 H   0  0  0  0  0  0  0  0  0  0  0  0
   60.9650   33.7920   46.4500 N   0  0  0  0  0  0  0  0  0  0  0  0
   60.8190   33.7250   45.4180 H   0  0  0  0  0  0  0  0  0  0  0  0
   57.0150   31.6270   44.1390 C   0  0  0  0  0  0  0  0  0  0  0  0
   56.5480   32.3481   43.4521 H   0  0  0  0  0  0  0  0  0  0  0  0
   56.7940   30.2570   43.9670 C   0  0  0  0  0  0  0  0  0  0  0  0
   56.0100   29.8290   42.9460 F   0  0  0  0  0  0  0  0  0  0  0  0
  1  2  1  0
  2  3  2  3
  3  4  1  0
  4  5  1  0
  5  6  1  0
  5  7  2  0
  7  8  1  0
  7  9  1  0
  9 10  1  0
  9 11  2  0
 11 12  1  0
 12 13  1  0
 13 14  2  0
 14 15  1  0
 14 16  1  0
 16 17  1  0
 16 18  2  0
 18 19  1  0
 19 20  2  0
 19 21  2  0
 19 22  1  0
 22 23  2  0
 23 24  1  0
 24 25  1  0
 25 26  1  0
 25 27  2  0
 27 28  1  0
 27 29  1  0
 29 30  1  0
 18 31  1  0
 31 32  1  0
 31 33  2  0
 33 34  1  0
 11  3  1  0
 33 13  1  0
 29 23  1  0
M  CHG  1   4  -1
M  END
>  <UniqueID>  (69) 
60

>  <SMILES>  (69) 
N=c1[n-]cccc1Oc1c(F)cc(S(=O)(=O)/N=c2/[nH]ccs2)cc1F

>  <Energy>  (69) 
81.78914538978333

>  <Genealogy>  (69) 
N=c1[n-]cccc1Oc1c(F)cc(S(=O)(=O)N=c2[nH]ccs2)cc1F (protonated)
N=c1[n-]cccc1Oc1c(F)cc(S(=O)(=O)/N=c2/[nH]ccs2)cc1F (cis-trans isomerization)
N=c1[n-]cccc1Oc1c(F)cc(S(=O)(=O)/N=c2/[nH]ccs2)cc1F (3D coordinates assigned)
N=c1[n-]cccc1Oc1c(F)cc(S(=O)(=O)/N=c2/[nH]ccs2)cc1F (optimized conformer: 81.78914538978333 kcal/mol)

>  <smiles>  (69) 
N=c1[nH]cccc1Oc1c(F)cc(S(=O)(=O)N=c2[nH]ccs2)cc1F

>  <score_type>  (69) 
oracle

>  <origin>  (69) 
adg

>  <m_score__min__energy>  (69) 
-9.8800000000000008

>  <m_primary>  (69) 
energy

$$$$
69:0
     RDKit          3D

 45 46  0  0  0  0  0  0  0  0999 V2000
   61.8270   33.9890   49.3780 C   0  0  0  0  0  0  0  0  0  0  0  0
   60.4270   34.2340   49.2940 O   0  0  0  0  0  0  0  0  0  0  0  0
   59.6420   33.9520   48.1680 C   0  0  0  0  0  0  0  0  0  0  0  0
   59.9430   34.6030   46.9660 C   0  0  0  0  0  0  0  0  0  0  0  0
   59.2080   34.3340   45.8090 C   0  0  0  0  0  0  0  0  0  0  0  0
   58.1460   33.4180   45.8420 C   0  0  0  0  0  0  0  0  0  0  0  0
   57.4320   33.0460   44.5720 C   0  0  0  0  0  0  0  0  0  0  0  0
   56.9340   31.6760   44.6740 N   0  0  0  0  0  0  0  0  0  0  0  0
   56.5830   30.9080   43.5150 C   0  0  0  0  0  0  0  0  0  0  0  0
   57.0450   31.2200   42.3830 O   0  0  0  0  0  0  0  0  0  0  0  0
   55.6750   29.7220   43.6360 C   0  0  0  0  0  0  0  0  0  0  0  0
   55.7040   29.2040   45.0000 N   0  0  0  0  0  0  0  0  0  0  0  0
   56.2930   27.9580   45.3960 C   0  0  0  0  0  0  0  0  0  0  0  0
   55.5510   27.0840   45.9160 O   0  0  0  0  0  0  0  0  0  0  0  0
   57.7620   27.6830   45.1720 C   0  0  0  0  0  0  0  0  0  0  0  0
   58.6180   28.9440   44.9540 C   0  0  0  0  0  0  0  0  0  0  0  0
   59.2850   29.4110   46.2250 C   0  0  0  0  0  0  0  0  0  0  0  0
   58.7080   29.1400   47.4770 C   0  0  0  0  0  0  0  0  0  0  0  0
   59.3340   29.5730   48.6510 C   0  0  0  0  0  0  0  0  0  0  0  0
   60.5350   30.2830   48.5830 C   0  0  0  0  0  0  0  0  0  0  0  0
   61.1120   30.5640   47.3420 C   0  0  0  0  0  0  0  0  0  0  0  0
   60.4900   30.1330   46.1660 C   0  0  0  0  0  0  0  0  0  0  0  0
   57.8380   32.7660   47.0450 C   0  0  0  0  0  0  0  0  0  0  0  0
   58.5760   33.0310   48.2020 C   0  0  0  0  0  0  0  0  0  0  0  0
   62.1273   33.9364   50.4349 H   0  0  0  0  0  0  0  0  0  0  0  0
   62.0629   33.0359   48.8820 H   0  0  0  0  0  0  0  0  0  0  0  0
   62.3725   34.8053   48.8820 H   0  0  0  0  0  0  0  0  0  0  0  0
   60.7654   35.3327   46.9322 H   0  0  0  0  0  0  0  0  0  0  0  0
   59.4631   34.8428   44.8677 H   0  0  0  0  0  0  0  0  0  0  0  0
   56.5870   33.7319   44.4125 H   0  0  0  0  0  0  0  0  0  0  0  0
   58.1301   33.1193   43.7251 H   0  0  0  0  0  0  0  0  0  0  0  0
   56.6440   31.3310   45.6170 H   0  0  0  0  0  0  0  0  0  0  0  0
   54.6477   30.0232   43.3832 H   0  0  0  0  0  0  0  0  0  0  0  0
   56.0158   28.9363   42.9457 H   0  0  0  0  0  0  0  0  0  0  0  0
   58.1508   27.1510   46.0528 H   0  0  0  0  0  0  0  0  0  0  0  0
   57.8336   27.0907   44.2478 H   0  0  0  0  0  0  0  0  0  0  0  0
   59.3952   28.7193   44.2087 H   0  0  0  0  0  0  0  0  0  0  0  0
   57.9509   29.7479   44.6093 H   0  0  0  0  0  0  0  0  0  0  0  0
   57.7600   28.5850   47.5345 H   0  0  0  0  0  0  0  0  0  0  0  0
   58.8798   29.3540   49.6287 H   0  0  0  0  0  0  0  0  0  0  0  0
   61.0268   30.6211   49.5070 H   0  0  0  0  0  0  0  0  0  0  0  0
   62.0568   31.1250   47.2899 H   0  0  0  0  0  0  0  0  0  0  0  0
   60.9454   30.3598   45.1907 H   0  0  0  0  0  0  0  0  0  0  0  0
   57.0107   32.0418   47.0781 H   0  0  0  0  0  0  0  0  0  0  0  0
   58.3238   32.5189   49.1423 H   0  0  0  0  0  0  0  0  0  0  0  0
  1  2  1  0
  2  3  1  0
  3  4  2  0
  4  5  1  0
  5  6  2  0
  6  7  1  0
  7  8  1  0
  8  9  1  0
  9 10  2  0
  9 11  1  0
 11 12  1  0
 12 13  1  0
 13 14  2  0
 13 15  1  0
 15 16  1  0
 16 17  1  0
 17 18  2  0
 18 19  1  0
 19 20  2  0
 20 21  1  0
 21 22  2  0
  6 23  1  0
 23 24  2  0
 24  3  1  0
 22 17  1  0
  1 25  1  0
  1 26  1  0
  1 27  1  0
  4 28  1  0
  5 29  1  0
  7 30  1  0
  7 31  1  0
  8 32  1  0
 11 33  1  0
 11 34  1  0
 15 35  1  0
 15 36  1  0
 16 37  1  0
 16 38  1  0
 18 39  1  0
 19 40  1  0
 20 41  1  0
 21 42  1  0
 22 43  1  0
 23 44  1  0
 24 45  1  0
M  CHG  1  12  -1
M  END
>  <UniqueID>  (70) 
61

>  <SMILES>  (70) 
COc1ccc(CNC(=O)C[N-]C(=O)CCc2ccccc2)cc1

>  <Energy>  (70) 
34.918985270329976

>  <Genealogy>  (70) 
COc1ccc(CNC(=O)C[N-]C(=O)CCc2ccccc2)cc1 (protonated)
COc1ccc(CNC(=O)C[N-]C(=O)CCc2ccccc2)cc1 (3D coordinates assigned)
COc1ccc(CNC(=O)C[N-]C(=O)CCc2ccccc2)cc1 (optimized conformer: 34.918985270329976 kcal/mol)

>  <smiles>  (70) 
COc1ccc(CNC(=O)CNC(=O)CCc2ccccc2)cc1

>  <score_type>  (70) 
oracle

>  <origin>  (70) 
adg

>  <m_score__min__energy>  (70) 
-10.970000000000001

>  <m_primary>  (70) 
energy

$$$$
70:0
     RDKit          3D

 66 70  0  0  0  0  0  0  0  0999 V2000
   57.7581   29.9413   48.4358 H   0  0  0  0  0  0  0  0  0  0  0  0
   58.5480   29.2000   48.6270 C   0  0  0  0  0  0  0  0  0  0  0  0
   58.5060   27.9940   48.0080 N   0  0  0  0  0  0  0  0  0  0  0  0
   59.4760   27.0620   48.2150 C   0  0  0  0  0  0  0  0  0  0  0  0
   59.4230   25.9010   47.6330 N   0  0  0  0  0  0  0  0  0  0  0  0
   59.0290   25.6760   46.2410 C   0  0  0  0  0  0  0  0  0  0  0  0
   59.3412   26.5391   45.6348 H   0  0  0  0  0  0  0  0  0  0  0  0
   59.5164   24.7571   45.8830 H   0  0  0  0  0  0  0  0  0  0  0  0
   57.5100   25.5020   46.1210 C   0  0  0  0  0  0  0  0  0  0  0  0
   57.2921   24.4905   45.7478 H   0  0  0  0  0  0  0  0  0  0  0  0
   57.0604   25.6513   47.1137 H   0  0  0  0  0  0  0  0  0  0  0  0
   56.9410   26.4860   45.1980 N   0  0  0  0  0  0  0  0  0  0  0  0
   57.2670   27.7450   45.1600 C   0  0  0  0  0  0  0  0  0  0  0  0
   58.5460   28.1450   45.3910 N   0  0  0  0  0  0  0  0  0  0  0  0
   58.9030   29.4560   45.3650 C   0  0  0  0  0  0  0  0  0  0  0  0
   60.3280   29.7840   45.5760 C   0  0  0  0  0  0  0  0  0  0  0  0
   61.1910   29.2840   44.8050 O   0  0  0  0  0  0  0  0  0  0  0  0
   60.7270   30.7170   46.5940 N   0  0  0  0  0  0  0  0  0  0  0  0
   59.9970   31.2760   47.0930 H   0  0  0  0  0  0  0  0  0  0  0  0
   62.1270   30.9850   46.9090 C   0  0  0  0  0  0  0  0  0  0  0  0
   62.5850   30.0779   47.3303 H   0  0  0  0  0  0  0  0  0  0  0  0
   62.6530   31.2776   45.9883 H   0  0  0  0  0  0  0  0  0  0  0  0
   62.2280   32.1030   47.9090 C   0  0  0  0  0  0  0  0  0  0  0  0
   62.9440   31.9180   49.1050 C   0  0  0  0  0  0  0  0  0  0  0  0
   63.4146   30.9467   49.3173 H   0  0  0  0  0  0  0  0  0  0  0  0
   63.0600   32.9650   50.0260 C   0  0  0  0  0  0  0  0  0  0  0  0
   63.6102   32.8117   50.9661 H   0  0  0  0  0  0  0  0  0  0  0  0
   62.4770   34.2060   49.7520 C   0  0  0  0  0  0  0  0  0  0  0  0
   62.5714   35.0294   50.4753 H   0  0  0  0  0  0  0  0  0  0  0  0
   61.7740   34.4010   48.5590 C   0  0  0  0  0  0  0  0  0  0  0  0
   61.3187   35.3788   48.3431 H   0  0  0  0  0  0  0  0  0  0  0  0
   61.6490   33.3530   47.6390 C   0  0  0  0  0  0  0  0  0  0  0  0
   61.0953   33.5096   46.7015 H   0  0  0  0  0  0  0  0  0  0  0  0
   57.9140   30.4370   45.1290 C   0  0  0  0  0  0  0  0  0  0  0  0
   58.1960   31.8870   45.2690 C   0  0  0  0  0  0  0  0  0  0  0  0
   58.1270   32.4990   46.5310 C   0  0  0  0  0  0  0  0  0  0  0  0
   57.8823   31.8976   47.4190 H   0  0  0  0  0  0  0  0  0  0  0  0
   58.3680   33.8690   46.6630 C   0  0  0  0  0  0  0  0  0  0  0  0
   58.2994   34.3456   47.6520 H   0  0  0  0  0  0  0  0  0  0  0  0
   58.6960   34.6350   45.5410 C   0  0  0  0  0  0  0  0  0  0  0  0
   58.8972   35.7111   45.6485 H   0  0  0  0  0  0  0  0  0  0  0  0
   58.7680   34.0320   44.2820 C   0  0  0  0  0  0  0  0  0  0  0  0
   59.0265   34.6346   43.3988 H   0  0  0  0  0  0  0  0  0  0  0  0
   58.5120   32.6640   44.1430 C   0  0  0  0  0  0  0  0  0  0  0  0
   58.5584   32.1956   43.1488 H   0  0  0  0  0  0  0  0  0  0  0  0
   56.6010   29.9950   44.8720 C   0  0  0  0  0  0  0  0  0  0  0  0
   55.6750   30.8210   44.6510 O   0  0  0  0  0  0  0  0  0  0  0  0
   56.3140   28.6700   44.8880 N   0  0  0  0  0  0  0  0  0  0  0  0
   60.5110   27.3430   49.0460 N   0  0  0  0  0  0  0  0  0  0  0  0
   60.6070   28.5390   49.6890 C   0  0  0  0  0  0  0  0  0  0  0  0
   61.7930   28.7750   50.5800 C   0  0  0  0  0  0  0  0  0  0  0  0
   61.4791   28.7125   51.6324 H   0  0  0  0  0  0  0  0  0  0  0  0
   62.5595   28.0118   50.3800 H   0  0  0  0  0  0  0  0  0  0  0  0
   62.2089   29.7735   50.3800 H   0  0  0  0  0  0  0  0  0  0  0  0
   59.5930   29.5060   49.5090 C   0  0  0  0  0  0  0  0  0  0  0  0
   59.5950   30.8080   50.2130 C   0  0  0  0  0  0  0  0  0  0  0  0
   59.9850   30.8820   51.5600 C   0  0  0  0  0  0  0  0  0  0  0  0
   60.2790   29.9678   52.0964 H   0  0  0  0  0  0  0  0  0  0  0  0
   60.0010   32.1140   52.2220 C   0  0  0  0  0  0  0  0  0  0  0  0
   60.2986   32.1648   53.2798 H   0  0  0  0  0  0  0  0  0  0  0  0
   59.6400   33.2800   51.5430 C   0  0  0  0  0  0  0  0  0  0  0  0
   59.6517   34.2475   52.0663 H   0  0  0  0  0  0  0  0  0  0  0  0
   59.2640   33.2170   50.1990 C   0  0  0  0  0  0  0  0  0  0  0  0
   58.9825   34.1358   49.6637 H   0  0  0  0  0  0  0  0  0  0  0  0
   59.2450   31.9870   49.5330 C   0  0  0  0  0  0  0  0  0  0  0  0
   58.9550   31.9425   48.4729 H   0  0  0  0  0  0  0  0  0  0  0  0
  1  2  1  0
  2  3  1  0
  3  4  1  0
  4  5  2  3
  5  6  1  0
  6  7  1  0
  6  8  1  0
  6  9  1  0
  9 10  1  0
  9 11  1  0
  9 12  1  0
 12 13  2  0
 13 14  1  0
 14 15  1  0
 15 16  1  0
 16 17  2  0
 16 18  1  0
 18 19  1  0
 18 20  1  0
 20 21  1  0
 20 22  1  0
 20 23  1  0
 23 24  2  0
 24 25  1  0
 24 26  1  0
 26 27  1  0
 26 28  2  0
 28 29  1  0
 28 30  1  0
 30 31  1  0
 30 32  2  0
 32 33  1  0
 15 34  2  0
 34 35  1  0
 35 36  2  0
 36 37  1  0
 36 38  1  0
 38 39  1  0
 38 40  2  0
 40 41  1  0
 40 42  1  0
 42 43  1  0
 42 44  2  0
 44 45  1  0
 34 46  1  0
 46 47  2  0
 46 48  1  0
  4 49  1  0
 49 50  2  0
 50 51  1  0
 51 52  1  0
 51 53  1  0
 51 54  1  0
 50 55  1  0
 55 56  1  0
 56 57  2  0
 57 58  1  0
 57 59  1  0
 59 60  1  0
 59 61  2  0
 61 62  1  0
 61 63  1  0
 63 64  1  0
 63 65  2  0
 65 66  1  0
 55  2  2  0
 65 56  1  0
 48 13  1  0
 32 23  1  0
 44 35  1  0
M  CHG  3   3  -1  14  -1  48  -1
M  END
>  <UniqueID>  (71) 
62

>  <SMILES>  (71) 
Cc1nc(=NCC/N=c2\[n-]c(C(=O)NCc3ccccc3)c(-c3ccccc3)c(=O)[n-]2)[n-]cc1-c1ccccc1

>  <Energy>  (71) 
85.52647448970832

>  <Genealogy>  (71) 
Cc1nc(=NCCN=c2[n-]c(C(=O)NCc3ccccc3)c(-c3ccccc3)c(=O)[n-]2)[n-]cc1-c1ccccc1 (protonated)
Cc1nc(=NCC/N=c2\[n-]c(C(=O)NCc3ccccc3)c(-c3ccccc3)c(=O)[n-]2)[n-]cc1-c1ccccc1 (cis-trans isomerization)
Cc1nc(=NCC/N=c2\[n-]c(C(=O)NCc3ccccc3)c(-c3ccccc3)c(=O)[n-]2)[n-]cc1-c1ccccc1 (3D coordinates assigned)
Cc1nc(=NCC/N=c2\[n-]c(C(=O)NCc3ccccc3)c(-c3ccccc3)c(=O)[n-]2)[n-]cc1-c1ccccc1 (optimized conformer: 85.52647448970832 kcal/mol)

>  <smiles>  (71) 
Cc1nc(=NCCN=c2[nH]c(C(=O)NCc3ccccc3)c(-c3ccccc3)c(=O)[nH]2)[nH]cc1-c1ccccc1

>  <score_type>  (71) 
oracle

>  <origin>  (71) 
adg

>  <m_score__min__energy>  (71) 
-13.19

>  <m_primary>  (71) 
energy

$$$$
71:0
     RDKit          3D

 47 49  0  0  0  0  0  0  0  0999 V2000
   59.1100   31.1130   49.1850 O   0  0  0  0  0  0  0  0  0  0  0  0
   59.1390   30.6750   48.0040 C   0  0  0  0  0  0  0  0  0  0  0  0
   58.4550   29.3850   47.6700 C   0  0  0  0  0  0  0  0  0  0  0  0
   59.6630   28.1390   47.0960 S   0  0  0  0  0  0  0  0  0  0  0  0
   58.4350   26.8760   46.7690 C   0  0  0  0  0  0  0  0  0  0  0  0
   58.7930   25.5670   46.7630 N   0  0  0  0  0  0  0  0  0  0  0  0
   57.8830   24.5920   46.5090 C   0  0  0  0  0  0  0  0  0  0  0  0
   58.2560   23.3880   46.5120 O   0  0  0  0  0  0  0  0  0  0  0  0
   56.5420   24.9310   46.2410 C   0  0  0  0  0  0  0  0  0  0  0  0
   55.4980   23.8690   45.9760 C   0  0  0  0  0  0  0  0  0  0  0  0
   55.9820   22.8990   44.9290 C   0  0  0  0  0  0  0  0  0  0  0  0
   56.1520   21.5410   45.2430 C   0  0  0  0  0  0  0  0  0  0  0  0
   56.5790   20.6370   44.2640 C   0  0  0  0  0  0  0  0  0  0  0  0
   56.8340   21.0830   42.9660 C   0  0  0  0  0  0  0  0  0  0  0  0
   56.6650   22.4320   42.6440 C   0  0  0  0  0  0  0  0  0  0  0  0
   56.2380   23.3380   43.6190 C   0  0  0  0  0  0  0  0  0  0  0  0
   56.1980   26.2950   46.2690 C   0  0  0  0  0  0  0  0  0  0  0  0
   54.8940   26.7050   46.0220 O   0  0  0  0  0  0  0  0  0  0  0  0
   57.1470   27.2300   46.5330 N   0  0  0  0  0  0  0  0  0  0  0  0
   59.8490   31.4030   46.9950 N   0  0  0  0  0  0  0  0  0  0  0  0
   61.3160   31.3150   46.9670 C   0  0  0  0  0  0  0  0  0  0  0  0
   61.9550   32.6800   47.2540 C   0  0  0  0  0  0  0  0  0  0  0  0
   61.3260   33.8140   46.4390 C   0  0  0  0  0  0  0  0  0  0  0  0
   60.0620   34.3920   47.0910 C   0  0  0  0  0  0  0  0  0  0  0  0
   58.7840   33.6720   46.6370 C   0  0  0  0  0  0  0  0  0  0  0  0
   59.0590   32.2610   46.0980 C   0  0  0  0  0  0  0  0  0  0  0  0
   57.9438   29.0052   48.5669 H   0  0  0  0  0  0  0  0  0  0  0  0
   57.7290   29.5693   46.8644 H   0  0  0  0  0  0  0  0  0  0  0  0
   55.2937   23.3223   46.9084 H   0  0  0  0  0  0  0  0  0  0  0  0
   54.5814   24.3559   45.6117 H   0  0  0  0  0  0  0  0  0  0  0  0
   55.9484   21.1859   46.2640 H   0  0  0  0  0  0  0  0  0  0  0  0
   56.7137   19.5750   44.5172 H   0  0  0  0  0  0  0  0  0  0  0  0
   57.1682   20.3719   42.1962 H   0  0  0  0  0  0  0  0  0  0  0  0
   56.8684   22.7818   41.6211 H   0  0  0  0  0  0  0  0  0  0  0  0
   56.1019   24.3983   43.3599 H   0  0  0  0  0  0  0  0  0  0  0  0
   61.6477   30.5952   47.7298 H   0  0  0  0  0  0  0  0  0  0  0  0
   61.6280   30.9861   45.9647 H   0  0  0  0  0  0  0  0  0  0  0  0
   61.8335   32.9068   48.3235 H   0  0  0  0  0  0  0  0  0  0  0  0
   63.0152   32.6156   46.9678 H   0  0  0  0  0  0  0  0  0  0  0  0
   62.0658   34.6211   46.3324 H   0  0  0  0  0  0  0  0  0  0  0  0
   61.0318   33.3953   45.4653 H   0  0  0  0  0  0  0  0  0  0  0  0
   60.1525   34.2950   48.1830 H   0  0  0  0  0  0  0  0  0  0  0  0
   59.9793   35.4450   46.7838 H   0  0  0  0  0  0  0  0  0  0  0  0
   58.1002   33.5939   47.4951 H   0  0  0  0  0  0  0  0  0  0  0  0
   58.3438   34.2605   45.8186 H   0  0  0  0  0  0  0  0  0  0  0  0
   58.0920   31.7689   45.9170 H   0  0  0  0  0  0  0  0  0  0  0  0
   59.6574   32.3889   45.1839 H   0  0  0  0  0  0  0  0  0  0  0  0
  1  2  2  0
  2  3  1  0
  3  4  1  0
  4  5  1  0
  5  6  2  0
  6  7  1  0
  7  8  2  0
  7  9  1  0
  9 10  1  0
 10 11  1  0
 11 12  2  0
 12 13  1  0
 13 14  2  0
 14 15  1  0
 15 16  2  0
  9 17  2  0
 17 18  1  0
 17 19  1  0
  2 20  1  0
 20 21  1  0
 21 22  1  0
 22 23  1  0
 23 24  1  0
 24 25  1  0
 25 26  1  0
 19  5  1  0
 26 20  1  0
 16 11  1  0
  3 27  1  0
  3 28  1  0
 10 29  1  0
 10 30  1  0
 12 31  1  0
 13 32  1  0
 14 33  1  0
 15 34  1  0
 16 35  1  0
 21 36  1  0
 21 37  1  0
 22 38  1  0
 22 39  1  0
 23 40  1  0
 23 41  1  0
 24 42  1  0
 24 43  1  0
 25 44  1  0
 25 45  1  0
 26 46  1  0
 26 47  1  0
M  CHG  2  18  -1  19  -1
M  END
>  <UniqueID>  (72) 
63

>  <SMILES>  (72) 
O=C(CSc1nc(=O)c(Cc2ccccc2)c([O-])[n-]1)N1CCCCCC1

>  <Energy>  (72) 
48.4113745506392

>  <Genealogy>  (72) 
O=C(CSc1nc(=O)c(Cc2ccccc2)c([O-])[n-]1)N1CCCCCC1 (protonated)
O=C(CSc1nc(=O)c(Cc2ccccc2)c([O-])[n-]1)N1CCCCCC1 (3D coordinates assigned)
O=C(CSc1nc(=O)c(Cc2ccccc2)c([O-])[n-]1)N1CCCCCC1 (nonaromatic ring conformer: 48.4113745506392 kcal/mol)

>  <smiles>  (72) 
O=C(CSc1nc(=O)c(Cc2ccccc2)c(O)[nH]1)N1CCCCCC1

>  <score_type>  (72) 
oracle

>  <origin>  (72) 
adg

>  <m_score__min__energy>  (72) 
-11.289999999999999

>  <m_primary>  (72) 
energy

$$$$
72:0
     RDKit          3D

 48 51  0  0  0  0  0  0  0  0999 V2000
   57.7430   29.4870   42.7330 H   0  0  0  0  0  0  0  0  0  0  0  0
   57.1150   29.8640   43.4790 N   0  0  0  0  0  0  0  0  0  0  0  0
   57.5110   30.7880   44.2970 C   0  0  0  0  0  0  0  0  0  0  0  0
   57.3610   32.1050   43.9450 N   0  0  0  0  0  0  0  0  0  0  0  0
   57.7590   33.1250   44.7540 C   0  0  0  0  0  0  0  0  0  0  0  0
   57.6294   34.1731   44.4462 H   0  0  0  0  0  0  0  0  0  0  0  0
   58.3320   32.8080   45.9760 C   0  0  0  0  0  0  0  0  0  0  0  0
   58.7690   33.6650   46.9130 N   0  0  0  0  0  0  0  0  0  0  0  0
   59.2090   32.8410   47.8940 C   0  0  0  0  0  0  0  0  0  0  0  0
   59.6512   33.2046   48.8333 H   0  0  0  0  0  0  0  0  0  0  0  0
   59.0520   31.5240   47.6070 N   0  0  0  0  0  0  0  0  0  0  0  0
   59.4640   30.4270   48.4870 C   0  0  0  0  0  0  0  0  0  0  0  0
   58.6830   30.2755   49.2467 H   0  0  0  0  0  0  0  0  0  0  0  0
   59.6043   29.5363   47.8570 H   0  0  0  0  0  0  0  0  0  0  0  0
   60.7710   30.6910   49.1890 C   0  0  0  0  0  0  0  0  0  0  0  0
   61.0940   29.9440   50.1510 O   0  0  0  0  0  0  0  0  0  0  0  0
   61.7310   31.6330   48.6830 N   0  0  0  0  0  0  0  0  0  0  0  0
   62.5130   32.4610   49.6210 C   0  0  0  0  0  0  0  0  0  0  0  0
   62.6491   31.9055   50.5606 H   0  0  0  0  0  0  0  0  0  0  0  0
   61.9633   33.3974   49.7970 H   0  0  0  0  0  0  0  0  0  0  0  0
   63.8580   32.8030   49.0580 C   0  0  0  0  0  0  0  0  0  0  0  0
   64.8400   32.9920   49.8240 O   0  0  0  0  0  0  0  0  0  0  0  0
   64.0130   32.9440   47.6470 N   0  0  0  0  0  0  0  0  0  0  0  0
   64.9600   33.0930   47.2300 H   0  0  0  0  0  0  0  0  0  0  0  0
   62.8450   32.8080   46.7910 C   0  0  0  0  0  0  0  0  0  0  0  0
   63.1692   32.6651   45.7496 H   0  0  0  0  0  0  0  0  0  0  0  0
   62.2309   33.7177   46.8645 H   0  0  0  0  0  0  0  0  0  0  0  0
   62.0180   31.6000   47.2370 C   0  0  0  0  0  0  0  0  0  0  0  0
   62.5776   30.6814   47.0065 H   0  0  0  0  0  0  0  0  0  0  0  0
   61.0591   31.6262   46.6987 H   0  0  0  0  0  0  0  0  0  0  0  0
   58.5030   31.5100   46.3700 C   0  0  0  0  0  0  0  0  0  0  0  0
   58.1000   30.4420   45.5410 C   0  0  0  0  0  0  0  0  0  0  0  0
   58.2590   29.0230   45.9150 C   0  0  0  0  0  0  0  0  0  0  0  0
   57.1330   28.2010   46.0410 C   0  0  0  0  0  0  0  0  0  0  0  0
   56.1245   28.6194   45.9072 H   0  0  0  0  0  0  0  0  0  0  0  0
   57.2990   26.8400   46.3390 C   0  0  0  0  0  0  0  0  0  0  0  0
   56.1390   25.9460   46.5060 C   0  0  0  0  0  0  0  0  0  0  0  0
   56.2610   24.8380   47.0920 O   0  0  0  0  0  0  0  0  0  0  0  0
   54.8630   26.3360   46.0000 N   0  0  0  0  0  0  0  0  0  0  0  0
   54.7640   26.7180   45.0330 H   0  0  0  0  0  0  0  0  0  0  0  0
   58.5560   26.3360   46.4840 N   0  0  0  0  0  0  0  0  0  0  0  0
   59.6680   27.1080   46.3450 C   0  0  0  0  0  0  0  0  0  0  0  0
   61.0240   26.4940   46.4940 C   0  0  0  0  0  0  0  0  0  0  0  0
   61.2623   26.3861   47.5625 H   0  0  0  0  0  0  0  0  0  0  0  0
   61.0329   25.5040   46.0146 H   0  0  0  0  0  0  0  0  0  0  0  0
   61.7739   27.1404   46.0146 H   0  0  0  0  0  0  0  0  0  0  0  0
   59.5380   28.4670   46.0390 C   0  0  0  0  0  0  0  0  0  0  0  0
   60.4317   29.0924   45.8972 H   0  0  0  0  0  0  0  0  0  0  0  0
  1  2  1  0
  2  3  2  0
  3  4  1  0
  4  5  1  0
  5  6  1  0
  5  7  2  0
  7  8  1  0
  8  9  2  0
  9 10  1  0
  9 11  1  0
 11 12  1  0
 12 13  1  0
 12 14  1  0
 12 15  1  0
 15 16  2  0
 15 17  1  0
 17 18  1  0
 18 19  1  0
 18 20  1  0
 18 21  1  0
 21 22  2  0
 21 23  1  0
 23 24  1  0
 23 25  1  0
 25 26  1  0
 25 27  1  0
 25 28  1  0
 28 29  1  0
 28 30  1  0
 11 31  1  0
 31 32  2  0
 32 33  1  0
 33 34  2  0
 34 35  1  0
 34 36  1  0
 36 37  1  0
 37 38  2  0
 37 39  1  0
 39 40  1  0
 36 41  2  0
 41 42  1  0
 42 43  1  0
 43 44  1  0
 43 45  1  0
 43 46  1  0
 42 47  2  0
 47 48  1  0
 32  3  1  0
 47 33  1  0
 31  7  1  0
 28 17  1  0
M  CHG  2   4  -1  39  -1
M  END
>  <UniqueID>  (73) 
64

>  <SMILES>  (73) 
[H]/N=c1\[n-]cc2ncn(CC(=O)N3CCNC(=O)C3)c2c1-c1cc(C)nc(C([NH-])=O)c1

>  <Energy>  (73) 
99.65391789929639

>  <Genealogy>  (73) 
Cc1cc(-c2c(=N)[n-]cc3ncn(CC(=O)N4CCNC(=O)C4)c23)cc(C([NH-])=O)n1 (protonated)
[H]/N=c1\[n-]cc2ncn(CC(=O)N3CCNC(=O)C3)c2c1-c1cc(C)nc(C([NH-])=O)c1 (cis-trans isomerization)
[H]/N=c1\[n-]cc2ncn(CC(=O)N3CCNC(=O)C3)c2c1-c1cc(C)nc(C([NH-])=O)c1 (3D coordinates assigned)
[H]/N=c1\[n-]cc2ncn(CC(=O)N3CCNC(=O)C3)c2c1-c1cc(C)nc(C([NH-])=O)c1 (nonaromatic ring conformer: 99.65391789929639 kcal/mol)

>  <smiles>  (73) 
Cc1cc(-c2c(=N)[nH]cc3ncn(CC(=O)N4CCNC(=O)C4)c23)cc(C(N)=O)n1

>  <score_type>  (73) 
oracle

>  <origin>  (73) 
adg

>  <m_score__min__energy>  (73) 
-12.91

>  <m_primary>  (73) 
energy

$$$$
73:0
     RDKit          3D

 51 54  0  0  0  0  0  0  0  0999 V2000
   63.7830   31.9030   47.1600 N   0  0  0  0  0  0  0  0  0  0  0  0
   63.1490   33.5180   47.2730 S   0  0  0  0  0  0  0  0  0  0  0  0
   63.5940   34.2260   46.0100 O   0  0  0  0  0  0  0  0  0  0  0  0
   63.8180   34.1790   48.4410 O   0  0  0  0  0  0  0  0  0  0  0  0
   61.4200   33.5350   47.4400 C   0  0  0  0  0  0  0  0  0  0  0  0
   60.9020   34.0830   48.6110 C   0  0  0  0  0  0  0  0  0  0  0  0
   59.5390   34.1450   48.8470 C   0  0  0  0  0  0  0  0  0  0  0  0
   58.7050   33.6360   47.8580 C   0  0  0  0  0  0  0  0  0  0  0  0
   59.1870   33.0880   46.6880 C   0  0  0  0  0  0  0  0  0  0  0  0
   58.2560   32.5880   45.7130 C   0  0  0  0  0  0  0  0  0  0  0  0
   57.6940   33.4560   44.9570 O   0  0  0  0  0  0  0  0  0  0  0  0
   57.8970   31.2510   45.5030 N   0  0  0  0  0  0  0  0  0  0  0  0
   56.9320   30.9530   44.4650 C   0  0  0  0  0  0  0  0  0  0  0  0
   57.2520   29.7500   43.6590 C   0  0  0  0  0  0  0  0  0  0  0  0
   58.1670   28.7390   44.2430 C   0  0  0  0  0  0  0  0  0  0  0  0
   57.3780   27.6630   44.8980 C   0  0  0  0  0  0  0  0  0  0  0  0
   57.6020   26.2990   44.7050 C   0  0  0  0  0  0  0  0  0  0  0  0
   56.6790   25.5770   45.4630 C   0  0  0  0  0  0  0  0  0  0  0  0
   56.5590   24.1260   45.5530 C   0  0  0  0  0  0  0  0  0  0  0  0
   56.7880   23.3800   44.4250 C   0  0  0  0  0  0  0  0  0  0  0  0
   56.6690   22.0070   44.5320 C   0  0  0  0  0  0  0  0  0  0  0  0
   56.3280   21.3890   45.7390 C   0  0  0  0  0  0  0  0  0  0  0  0
   56.0960   22.1560   46.8790 C   0  0  0  0  0  0  0  0  0  0  0  0
   56.2240   23.5120   46.7350 C   0  0  0  0  0  0  0  0  0  0  0  0
   55.9290   26.4990   46.0900 N   0  0  0  0  0  0  0  0  0  0  0  0
   56.3480   27.7190   45.7510 N   0  0  0  0  0  0  0  0  0  0  0  0
   59.1460   29.2720   45.2450 C   0  0  0  0  0  0  0  0  0  0  0  0
   58.4150   30.1210   46.2520 C   0  0  0  0  0  0  0  0  0  0  0  0
   60.5670   33.0360   46.4750 C   0  0  0  0  0  0  0  0  0  0  0  0
   64.4580   31.8730   46.3690 H   0  0  0  0  0  0  0  0  0  0  0  0
   64.3180   31.6720   48.0320 H   0  0  0  0  0  0  0  0  0  0  0  0
   61.5946   34.4773   49.3691 H   0  0  0  0  0  0  0  0  0  0  0  0
   59.1347   34.5771   49.7743 H   0  0  0  0  0  0  0  0  0  0  0  0
   57.6169   33.6718   48.0151 H   0  0  0  0  0  0  0  0  0  0  0  0
   55.9521   30.7982   44.9402 H   0  0  0  0  0  0  0  0  0  0  0  0
   56.9420   31.8073   43.7721 H   0  0  0  0  0  0  0  0  0  0  0  0
   56.3014   29.2418   43.4397 H   0  0  0  0  0  0  0  0  0  0  0  0
   57.7984   30.1421   42.7885 H   0  0  0  0  0  0  0  0  0  0  0  0
   58.7554   28.3663   43.3916 H   0  0  0  0  0  0  0  0  0  0  0  0
   58.3797   25.8637   44.0602 H   0  0  0  0  0  0  0  0  0  0  0  0
   57.0564   23.8566   43.4706 H   0  0  0  0  0  0  0  0  0  0  0  0
   56.8474   21.3836   43.6434 H   0  0  0  0  0  0  0  0  0  0  0  0
   56.2426   20.2935   45.7888 H   0  0  0  0  0  0  0  0  0  0  0  0
   55.8250   21.6977   47.8415 H   0  0  0  0  0  0  0  0  0  0  0  0
   56.0484   24.1458   47.6168 H   0  0  0  0  0  0  0  0  0  0  0  0
   55.1180   26.3290   46.7590 H   0  0  0  0  0  0  0  0  0  0  0  0
   59.6384   28.4337   45.7595 H   0  0  0  0  0  0  0  0  0  0  0  0
   59.9047   29.8806   44.7313 H   0  0  0  0  0  0  0  0  0  0  0  0
   57.5915   29.5524   46.7087 H   0  0  0  0  0  0  0  0  0  0  0  0
   59.0753   30.4423   47.0710 H   0  0  0  0  0  0  0  0  0  0  0  0
   60.9700   32.6020   45.5481 H   0  0  0  0  0  0  0  0  0  0  0  0
  1  2  1  0
  2  3  2  0
  2  4  2  0
  2  5  1  0
  5  6  2  0
  6  7  1  0
  7  8  2  0
  8  9  1  0
  9 10  1  0
 10 11  2  0
 10 12  1  0
 12 13  1  0
 13 14  1  0
 14 15  1  0
 15 16  1  0
 16 17  1  0
 17 18  2  0
 18 19  1  0
 19 20  2  0
 20 21  1  0
 21 22  2  0
 22 23  1  0
 23 24  2  0
 18 25  1  0
 25 26  1  0
 15 27  1  0
 27 28  1  0
  9 29  2  0
 29  5  1  0
 28 12  1  0
 26 16  2  0
 24 19  1  0
  1 30  1  0
  1 31  1  0
  6 32  1  0
  7 33  1  0
  8 34  1  0
 13 35  1  0
 13 36  1  0
 14 37  1  0
 14 38  1  0
 15 39  1  0
 17 40  1  0
 20 41  1  0
 21 42  1  0
 22 43  1  0
 23 44  1  0
 24 45  1  0
 25 46  1  0
 27 47  1  0
 27 48  1  0
 28 49  1  0
 28 50  1  0
 29 51  1  0
M  END
>  <smiles>  (74) 
NS(=O)(=O)c1cccc(C(=O)N2CCC(c3cc(-c4ccccc4)[nH]n3)CC2)c1

>  <score_type>  (74) 
oracle

>  <origin>  (74) 
adg

>  <m_score__min__energy>  (74) 
-10.199999999999999

>  <m_primary>  (74) 
energy

$$$$
74:0
     RDKit          3D

 70 76  0  0  0  0  0  0  0  0999 V2000
   54.9150   27.3060   46.3670 H   0  0  0  0  0  0  0  0  0  0  0  0
   56.7110   30.5330   45.1520 N   0  0  0  0  0  0  0  0  0  0  0  0
   57.2710   29.3620   45.1450 C   0  0  0  0  0  0  0  0  0  0  0  0
   56.6760   28.2290   45.5830 N   0  0  0  0  0  0  0  0  0  0  0  0
   56.2750   23.1770   46.5300 C   0  0  0  0  0  0  0  0  0  0  0  0
   55.9563   22.1614   46.8074 H   0  0  0  0  0  0  0  0  0  0  0  0
   57.6210   23.4450   46.2970 C   0  0  0  0  0  0  0  0  0  0  0  0
   58.3713   22.6466   46.3950 H   0  0  0  0  0  0  0  0  0  0  0  0
   58.0090   24.7360   45.9380 C   0  0  0  0  0  0  0  0  0  0  0  0
   59.0701   24.9518   45.7444 H   0  0  0  0  0  0  0  0  0  0  0  0
   57.0550   25.7660   45.8210 C   0  0  0  0  0  0  0  0  0  0  0  0
   57.4860   27.1420   45.4310 C   0  0  0  0  0  0  0  0  0  0  0  0
   55.3570   24.1680   46.4150 N   0  0  0  0  0  0  0  0  0  0  0  0
   55.6980   25.4410   46.0710 C   0  0  0  0  0  0  0  0  0  0  0  0
   54.7710   26.3400   45.9940 N   0  0  0  0  0  0  0  0  0  0  0  0
   57.3350   31.7540   44.7260 C   0  0  0  0  0  0  0  0  0  0  0  0
   57.0790   32.1920   43.5740 O   0  0  0  0  0  0  0  0  0  0  0  0
   58.3040   32.4350   45.5500 N   0  0  0  0  0  0  0  0  0  0  0  0
   58.5630   33.8620   45.3100 C   0  0  0  0  0  0  0  0  0  0  0  0
   59.0866   33.9736   44.3491 H   0  0  0  0  0  0  0  0  0  0  0  0
   57.5982   34.3901   45.2937 H   0  0  0  0  0  0  0  0  0  0  0  0
   59.4250   34.4700   46.4200 C   0  0  0  0  0  0  0  0  0  0  0  0
   59.6580   35.5128   46.1588 H   0  0  0  0  0  0  0  0  0  0  0  0
   58.8585   34.4147   47.3613 H   0  0  0  0  0  0  0  0  0  0  0  0
   60.7460   33.6960   46.6100 C   0  0  0  0  0  0  0  0  0  0  0  0
   61.4255   33.8830   45.7654 H   0  0  0  0  0  0  0  0  0  0  0  0
   61.4380   34.2140   47.8220 N   0  0  0  0  0  0  0  0  0  0  0  0
   62.3530   33.2640   48.4730 C   0  0  0  0  0  0  0  0  0  0  0  0
   62.3569   32.2682   48.0057 H   0  0  0  0  0  0  0  0  0  0  0  0
   63.4315   33.4805   48.4778 H   0  0  0  0  0  0  0  0  0  0  0  0
   61.5770   33.3160   49.7980 C   0  0  0  0  0  0  0  0  0  0  0  0
   60.9410   32.0400   50.1510 N   0  0  0  0  0  0  0  0  0  0  0  0
   61.0320   30.9400   49.4160 N   0  0  0  0  0  0  0  0  0  0  0  0
   60.2790   29.9900   50.0020 C   0  0  0  0  0  0  0  0  0  0  0  0
   60.1557   28.9599   49.6363 H   0  0  0  0  0  0  0  0  0  0  0  0
   59.6850   30.5130   51.1360 C   0  0  0  0  0  0  0  0  0  0  0  0
   58.7800   29.8190   52.0780 C   0  0  0  0  0  0  0  0  0  0  0  0
   59.2320   28.7380   52.8690 C   0  0  0  0  0  0  0  0  0  0  0  0
   60.5060   28.2830   52.7660 F   0  0  0  0  0  0  0  0  0  0  0  0
   58.3460   28.0930   53.7590 C   0  0  0  0  0  0  0  0  0  0  0  0
   58.7035   27.2487   54.3667 H   0  0  0  0  0  0  0  0  0  0  0  0
   57.0490   28.5070   53.8730 N   0  0  0  0  0  0  0  0  0  0  0  0
   56.4010   28.0310   54.5390 H   0  0  0  0  0  0  0  0  0  0  0  0
   56.6200   29.5490   53.1170 C   0  0  0  0  0  0  0  0  0  0  0  0
   57.4420   30.2030   52.2400 C   0  0  0  0  0  0  0  0  0  0  0  0
   56.6950   31.2320   51.6960 C   0  0  0  0  0  0  0  0  0  0  0  0
   57.0267   31.9775   50.9583 H   0  0  0  0  0  0  0  0  0  0  0  0
   55.4360   31.1260   52.2780 C   0  0  0  0  0  0  0  0  0  0  0  0
   54.5885   31.7919   52.0583 H   0  0  0  0  0  0  0  0  0  0  0  0
   55.3950   30.0940   53.1500 N   0  0  0  0  0  0  0  0  0  0  0  0
   54.5850   29.7980   53.7370 H   0  0  0  0  0  0  0  0  0  0  0  0
   60.1090   31.8260   51.1890 C   0  0  0  0  0  0  0  0  0  0  0  0
   59.8181   32.5683   51.9469 H   0  0  0  0  0  0  0  0  0  0  0  0
   62.3290   33.9270   51.0040 C   0  0  0  0  0  0  0  0  0  0  0  0
   62.0199   34.9775   51.1086 H   0  0  0  0  0  0  0  0  0  0  0  0
   62.0680   33.3199   51.8834 H   0  0  0  0  0  0  0  0  0  0  0  0
   63.7940   33.8860   50.8770 C   0  0  0  0  0  0  0  0  0  0  0  0
   64.9460   33.8540   50.7760 N   0  0  0  0  0  0  0  0  0  0  0  0
   60.6310   34.2660   49.0500 C   0  0  0  0  0  0  0  0  0  0  0  0
   59.6149   33.8637   48.9243 H   0  0  0  0  0  0  0  0  0  0  0  0
   60.3992   35.2454   49.4939 H   0  0  0  0  0  0  0  0  0  0  0  0
   60.5540   32.1420   46.5280 C   0  0  0  0  0  0  0  0  0  0  0  0
   61.0077   31.7852   45.5916 H   0  0  0  0  0  0  0  0  0  0  0  0
   61.0350   31.7118   47.4188 H   0  0  0  0  0  0  0  0  0  0  0  0
   59.0870   31.6990   46.5540 C   0  0  0  0  0  0  0  0  0  0  0  0
   59.0311   30.6221   46.3371 H   0  0  0  0  0  0  0  0  0  0  0  0
   58.6715   31.9096   47.5505 H   0  0  0  0  0  0  0  0  0  0  0  0
   58.8050   29.0780   44.5380 S   0  0  0  0  0  0  0  0  0  0  0  0
   58.7320   27.4300   44.8630 C   0  0  0  0  0  0  0  0  0  0  0  0
   59.5303   26.7002   44.6626 H   0  0  0  0  0  0  0  0  0  0  0  0
  1  2  1  0
  2  3  2  0
  3  4  1  0
  4  5  1  0
  5  6  1  0
  5  7  2  0
  7  8  1  0
  7  9  1  0
  9 10  1  0
  9 11  2  0
 11 12  1  0
 12 13  1  0
 13 14  1  0
 14 15  2  0
 15 16  1  0
 16 17  2  0
 16 18  1  0
 18 19  1  0
 19 20  1  0
 19 21  1  0
 19 22  1  0
 22 23  1  0
 22 24  1  0
 22 25  1  0
 25 26  1  0
 25 27  1  0
 27 28  1  0
 28 29  1  0
 28 30  1  0
 28 31  1  0
 31 32  1  0
 32 33  1  0
 33 34  2  0
 34 35  1  0
 34 36  1  0
 36 37  1  0
 37 38  2  0
 38 39  1  0
 38 40  1  0
 40 41  1  0
 40 42  2  0
 42 43  1  0
 42 44  1  0
 44 45  2  0
 45 46  1  0
 46 47  1  0
 46 48  2  0
 48 49  1  0
 48 50  1  0
 50 51  1  0
 36 52  2  0
 52 53  1  0
 31 54  1  0
 54 55  1  0
 54 56  1  0
 54 57  1  0
 57 58  3  0
 31 59  1  0
 59 60  1  0
 59 61  1  0
 25 62  1  0
 62 63  1  0
 62 64  1  0
 62 65  1  0
 65 66  1  0
 65 67  1  0
 14 68  1  0
 68 69  1  0
 69 70  1  0
 11  3  1  0
 69 12  2  0
 65 18  1  0
 59 27  1  0
 52 32  1  0
 45 37  1  0
 50 44  1  0
M  CHG  3   4  -1  13  -1  42   1
M  END
>  <UniqueID>  (75) 
65

>  <SMILES>  (75) 
[H]/N=c1\[n-]cccc1-c1cs/c(=N/C(=O)N2CCC(N3CC(CC#N)(n4cc(-c5c(F)c[nH+]c6[nH]ccc56)cn4)C3)CC2)[n-]1

>  <Energy>  (75) 
265.7356696084546

>  <Genealogy>  (75) 
N#CCC1(n2cc(-c3c(F)c[nH+]c4[nH]ccc34)cn2)CN(C2CCN(C(=O)N=c3[n-]c(-c4ccc[n-]c4=N)cs3)CC2)C1 (protonated)
[H]/N=c1\[n-]cccc1-c1cs/c(=N/C(=O)N2CCC(N3CC(CC#N)(n4cc(-c5c(F)c[nH+]c6[nH]ccc56)cn4)C3)CC2)[n-]1 (cis-trans isomerization)
[H]/N=c1\[n-]cccc1-c1cs/c(=N/C(=O)N2CCC(N3CC(CC#N)(n4cc(-c5c(F)c[nH+]c6[nH]ccc56)cn4)C3)CC2)[n-]1 (3D coordinates assigned)
[H]/N=c1\[n-]cccc1-c1cs/c(=N/C(=O)N2CCC(N3CC(CC#N)(n4cc(-c5c(F)c[nH+]c6[nH]ccc56)cn4)C3)CC2)[n-]1 (nonaromatic ring conformer: 265.7356696084546 kcal/mol)

>  <smiles>  (75) 
N#CCC1(n2cc(-c3c(F)cnc4[nH]ccc34)cn2)CN(C2CCN(C(=O)N=c3[nH]c(-c4ccc[nH]c4=N)cs3)CC2)C1

>  <score_type>  (75) 
oracle

>  <origin>  (75) 
adg

>  <m_score__min__energy>  (75) 
-14.640000000000001

>  <m_primary>  (75) 
energy

$$$$
75:0
     RDKit          3D

 54 57  0  0  0  0  0  0  0  0999 V2000
   58.8740   34.5950   45.6920 O   0  0  0  0  0  0  0  0  0  0  0  0
   58.2970   33.4750   45.7720 C   0  0  0  0  0  0  0  0  0  0  0  0
   57.6270   32.9140   44.5510 C   0  0  0  0  0  0  0  0  0  0  0  0
   56.9790   31.6330   44.8740 N   0  0  0  0  0  0  0  0  0  0  0  0
   57.4950   30.5150   44.0710 C   0  0  0  0  0  0  0  0  0  0  0  0
   57.8470   29.3240   44.9310 C   0  0  0  0  0  0  0  0  0  0  0  0
   56.9030   28.3060   45.1550 C   0  0  0  0  0  0  0  0  0  0  0  0
   57.2640   27.1270   45.8350 C   0  0  0  0  0  0  0  0  0  0  0  0
   56.2680   26.0550   46.0260 C   0  0  0  0  0  0  0  0  0  0  0  0
   55.0440   26.3510   46.0310 O   0  0  0  0  0  0  0  0  0  0  0  0
   56.6680   24.6860   46.1960 N   0  0  0  0  0  0  0  0  0  0  0  0
   56.5960   23.9850   47.4810 C   0  0  0  0  0  0  0  0  0  0  0  0
   56.6070   22.4690   47.1510 C   0  0  0  0  0  0  0  0  0  0  0  0
   56.6840   22.4380   45.6640 C   0  0  0  0  0  0  0  0  0  0  0  0
   56.6440   21.3180   44.8280 C   0  0  0  0  0  0  0  0  0  0  0  0
   56.6350   21.5180   43.4370 C   0  0  0  0  0  0  0  0  0  0  0  0
   56.6470   22.8270   42.9110 C   0  0  0  0  0  0  0  0  0  0  0  0
   56.6760   23.9370   43.7730 C   0  0  0  0  0  0  0  0  0  0  0  0
   56.7080   23.7120   45.1560 C   0  0  0  0  0  0  0  0  0  0  0  0
   58.5750   26.9760   46.3160 C   0  0  0  0  0  0  0  0  0  0  0  0
   58.9390   25.8480   46.9530 F   0  0  0  0  0  0  0  0  0  0  0  0
   59.5050   27.9980   46.1260 C   0  0  0  0  0  0  0  0  0  0  0  0
   59.1500   29.1630   45.4250 C   0  0  0  0  0  0  0  0  0  0  0  0
   60.0840   30.1220   45.2110 F   0  0  0  0  0  0  0  0  0  0  0  0
   58.2690   32.8080   47.0460 N   0  0  0  0  0  0  0  0  0  0  0  0
   59.1580   31.7330   47.4930 C   0  0  0  0  0  0  0  0  0  0  0  0
   60.5990   32.1520   47.3680 C   0  0  0  0  0  0  0  0  0  0  0  0
   61.6360   31.2600   47.6910 C   0  0  0  0  0  0  0  0  0  0  0  0
   62.9630   31.6590   47.5320 C   0  0  0  0  0  0  0  0  0  0  0  0
   63.2470   32.9610   47.1220 C   0  0  0  0  0  0  0  0  0  0  0  0
   62.1950   33.8420   46.8620 C   0  0  0  0  0  0  0  0  0  0  0  0
   60.9040   33.4220   46.9680 N   0  0  0  0  0  0  0  0  0  0  0  0
   56.8684   33.6255   44.1929 H   0  0  0  0  0  0  0  0  0  0  0  0
   58.3830   32.7483   43.7693 H   0  0  0  0  0  0  0  0  0  0  0  0
   55.9660   31.7240   44.6260 H   0  0  0  0  0  0  0  0  0  0  0  0
   56.7267   30.2145   43.3434 H   0  0  0  0  0  0  0  0  0  0  0  0
   58.4100   30.8524   43.5621 H   0  0  0  0  0  0  0  0  0  0  0  0
   55.8712   28.4321   44.7950 H   0  0  0  0  0  0  0  0  0  0  0  0
   57.4631   24.2451   48.1059 H   0  0  0  0  0  0  0  0  0  0  0  0
   55.6911   24.2661   48.0397 H   0  0  0  0  0  0  0  0  0  0  0  0
   57.4811   21.9750   47.6004 H   0  0  0  0  0  0  0  0  0  0  0  0
   55.7283   21.9380   47.5459 H   0  0  0  0  0  0  0  0  0  0  0  0
   56.6201   20.3024   45.2499 H   0  0  0  0  0  0  0  0  0  0  0  0
   56.6186   20.6530   42.7576 H   0  0  0  0  0  0  0  0  0  0  0  0
   56.6336   22.9797   41.8217 H   0  0  0  0  0  0  0  0  0  0  0  0
   56.6736   24.9607   43.3705 H   0  0  0  0  0  0  0  0  0  0  0  0
   60.5235   27.8913   46.5277 H   0  0  0  0  0  0  0  0  0  0  0  0
   58.9398   31.4971   48.5450 H   0  0  0  0  0  0  0  0  0  0  0  0
   58.9896   30.8476   46.8623 H   0  0  0  0  0  0  0  0  0  0  0  0
   61.4024   30.2530   48.0670 H   0  0  0  0  0  0  0  0  0  0  0  0
   63.7810   30.9504   47.7290 H   0  0  0  0  0  0  0  0  0  0  0  0
   64.2897   33.2911   47.0044 H   0  0  0  0  0  0  0  0  0  0  0  0
   62.4104   34.8805   46.5701 H   0  0  0  0  0  0  0  0  0  0  0  0
   60.1370   34.1000   46.7540 H   0  0  0  0  0  0  0  0  0  0  0  0
  1  2  2  0
  2  3  1  0
  3  4  1  0
  4  5  1  0
  5  6  1  0
  6  7  2  0
  7  8  1  0
  8  9  1  0
  9 10  2  0
  9 11  1  0
 11 12  1  0
 12 13  1  0
 13 14  1  0
 14 15  2  0
 15 16  1  0
 16 17  2  0
 17 18  1  0
 18 19  2  0
  8 20  2  0
 20 21  1  0
 20 22  1  0
 22 23  2  0
 23 24  1  0
  2 25  1  0
 25 26  1  0
 26 27  1  0
 27 28  2  0
 28 29  1  0
 29 30  2  0
 30 31  1  0
 31 32  2  0
 23  6  1  0
 32 27  1  0
 19 11  1  0
 19 14  1  0
  3 33  1  0
  3 34  1  0
  4 35  1  0
  5 36  1  0
  5 37  1  0
  7 38  1  0
 12 39  1  0
 12 40  1  0
 13 41  1  0
 13 42  1  0
 15 43  1  0
 16 44  1  0
 17 45  1  0
 18 46  1  0
 22 47  1  0
 26 48  1  0
 26 49  1  0
 28 50  1  0
 29 51  1  0
 30 52  1  0
 31 53  1  0
 32 54  1  0
M  CHG  2  25  -1  32   1
M  END
>  <UniqueID>  (76) 
66

>  <SMILES>  (76) 
O=C(CNCc1cc(C(=O)N2CCc3ccccc32)c(F)cc1F)[N-]Cc1cccc[nH+]1

>  <Energy>  (76) 
74.95245142776055

>  <Genealogy>  (76) 
O=C(CNCc1cc(C(=O)N2CCc3ccccc32)c(F)cc1F)[N-]Cc1cccc[nH+]1 (protonated)
O=C(CNCc1cc(C(=O)N2CCc3ccccc32)c(F)cc1F)[N-]Cc1cccc[nH+]1 (3D coordinates assigned)
O=C(CNCc1cc(C(=O)N2CCc3ccccc32)c(F)cc1F)[N-]Cc1cccc[nH+]1 (nonaromatic ring conformer: 74.95245142776055 kcal/mol)

>  <smiles>  (76) 
O=C(CNCc1cc(C(=O)N2CCc3ccccc32)c(F)cc1F)NCc1ccccn1

>  <score_type>  (76) 
oracle

>  <origin>  (76) 
adg

>  <m_score__min__energy>  (76) 
-9.2599999999999998

>  <m_primary>  (76) 
energy

$$$$
76:0
     RDKit          3D

 58 61  0  0  0  0  0  0  0  0999 V2000
   66.5030   34.2590   51.6380 C   0  0  0  0  0  0  0  0  0  0  0  0
   65.0030   34.3190   51.6950 C   0  0  0  0  0  0  0  0  0  0  0  0
   64.4760   35.2590   52.2760 O   0  0  0  0  0  0  0  0  0  0  0  0
   64.1820   33.2900   51.0800 N   0  0  0  0  0  0  0  0  0  0  0  0
   64.4560   33.2420   49.6190 C   0  0  0  0  0  0  0  0  0  0  0  0
   63.3100   32.5880   48.8390 C   0  0  0  0  0  0  0  0  0  0  0  0
   62.0560   33.3130   49.0850 N   0  0  0  0  0  0  0  0  0  0  0  0
   60.9890   33.2810   48.1130 C   0  0  0  0  0  0  0  0  0  0  0  0
   59.8480   34.0860   48.2800 C   0  0  0  0  0  0  0  0  0  0  0  0
   58.8240   34.0690   47.3270 C   0  0  0  0  0  0  0  0  0  0  0  0
   58.9190   33.2360   46.2060 C   0  0  0  0  0  0  0  0  0  0  0  0
   57.6410   33.2370   44.9950 S   0  0  0  0  0  0  0  0  0  0  0  0
   56.6720   34.3550   45.2620 O   0  0  0  0  0  0  0  0  0  0  0  0
   58.2580   33.4640   43.6440 O   0  0  0  0  0  0  0  0  0  0  0  0
   56.7750   31.7350   44.9700 N   0  0  0  0  0  0  0  0  0  0  0  0
   57.4010   30.4590   45.1260 C   0  0  0  0  0  0  0  0  0  0  0  0
   57.3860   29.5050   44.0960 C   0  0  0  0  0  0  0  0  0  0  0  0
   57.9900   28.2580   44.2820 C   0  0  0  0  0  0  0  0  0  0  0  0
   58.6240   27.9510   45.4980 C   0  0  0  0  0  0  0  0  0  0  0  0
   59.2420   26.5910   45.7110 C   0  0  0  0  0  0  0  0  0  0  0  0
   58.2710   25.6050   46.3220 C   0  0  0  0  0  0  0  0  0  0  0  0
   58.6410   24.4190   46.5410 O   0  0  0  0  0  0  0  0  0  0  0  0
   56.9190   25.9590   46.6630 N   0  0  0  0  0  0  0  0  0  0  0  0
   55.8110   25.3600   46.3330 C   0  0  0  0  0  0  0  0  0  0  0  0
   55.6370   24.0370   46.5250 N   0  0  0  0  0  0  0  0  0  0  0  0
   54.3910   23.8110   46.0740 C   0  0  0  0  0  0  0  0  0  0  0  0
   53.8490   24.9900   45.6230 C   0  0  0  0  0  0  0  0  0  0  0  0
   54.7440   25.9800   45.7850 N   0  0  0  0  0  0  0  0  0  0  0  0
   58.6080   28.8930   46.5370 C   0  0  0  0  0  0  0  0  0  0  0  0
   57.9940   30.1360   46.3540 C   0  0  0  0  0  0  0  0  0  0  0  0
   60.0480   32.4210   46.0410 C   0  0  0  0  0  0  0  0  0  0  0  0
   61.0770   32.4470   46.9840 C   0  0  0  0  0  0  0  0  0  0  0  0
   61.9240   34.1170   50.3070 C   0  0  0  0  0  0  0  0  0  0  0  0
   62.7460   33.4800   51.4370 C   0  0  0  0  0  0  0  0  0  0  0  0
   66.9084   34.2428   52.6604 H   0  0  0  0  0  0  0  0  0  0  0  0
   66.8136   33.3477   51.1059 H   0  0  0  0  0  0  0  0  0  0  0  0
   66.8853   35.1426   51.1059 H   0  0  0  0  0  0  0  0  0  0  0  0
   64.4680   32.3590   51.4700 H   0  0  0  0  0  0  0  0  0  0  0  0
   64.5954   34.2689   49.2503 H   0  0  0  0  0  0  0  0  0  0  0  0
   65.3608   32.6361   49.4636 H   0  0  0  0  0  0  0  0  0  0  0  0
   63.5404   32.6133   47.7637 H   0  0  0  0  0  0  0  0  0  0  0  0
   63.1956   31.5458   49.1719 H   0  0  0  0  0  0  0  0  0  0  0  0
   59.7602   34.7329   49.1653 H   0  0  0  0  0  0  0  0  0  0  0  0
   57.9415   34.7122   47.4589 H   0  0  0  0  0  0  0  0  0  0  0  0
   56.8971   29.7397   43.1390 H   0  0  0  0  0  0  0  0  0  0  0  0
   57.9689   27.5135   43.4725 H   0  0  0  0  0  0  0  0  0  0  0  0
   59.5781   26.1997   44.7394 H   0  0  0  0  0  0  0  0  0  0  0  0
   60.0826   26.7107   46.4103 H   0  0  0  0  0  0  0  0  0  0  0  0
   53.8845   22.8346   46.0671 H   0  0  0  0  0  0  0  0  0  0  0  0
   52.8416   25.1058   45.1966 H   0  0  0  0  0  0  0  0  0  0  0  0
   59.0808   28.6528   47.5007 H   0  0  0  0  0  0  0  0  0  0  0  0
   57.9764   30.8641   47.1783 H   0  0  0  0  0  0  0  0  0  0  0  0
   60.1231   31.7590   45.1657 H   0  0  0  0  0  0  0  0  0  0  0  0
   61.9631   31.8106   46.8430 H   0  0  0  0  0  0  0  0  0  0  0  0
   62.2927   35.1356   50.1161 H   0  0  0  0  0  0  0  0  0  0  0  0
   60.8657   34.1569   50.6043 H   0  0  0  0  0  0  0  0  0  0  0  0
   62.6883   34.1310   52.3218 H   0  0  0  0  0  0  0  0  0  0  0  0
   62.3213   32.4839   51.6304 H   0  0  0  0  0  0  0  0  0  0  0  0
  1  2  1  0
  2  3  2  0
  2  4  1  0
  4  5  1  0
  5  6  1  0
  6  7  1  0
  7  8  1  0
  8  9  2  0
  9 10  1  0
 10 11  2  0
 11 12  1  0
 12 13  2  0
 12 14  2  0
 12 15  1  0
 15 16  1  0
 16 17  2  0
 17 18  1  0
 18 19  2  0
 19 20  1  0
 20 21  1  0
 21 22  2  0
 21 23  1  0
 23 24  2  3
 24 25  1  0
 25 26  1  0
 26 27  2  0
 27 28  1  0
 19 29  1  0
 29 30  2  0
 11 31  1  0
 31 32  2  0
  7 33  1  0
 33 34  1  0
 34  4  1  0
 32  8  1  0
 30 16  1  0
 28 24  1  0
  1 35  1  0
  1 36  1  0
  1 37  1  0
  4 38  1  0
  5 39  1  0
  5 40  1  0
  6 41  1  0
  6 42  1  0
  9 43  1  0
 10 44  1  0
 17 45  1  0
 18 46  1  0
 20 47  1  0
 20 48  1  0
 26 49  1  0
 27 50  1  0
 29 51  1  0
 30 52  1  0
 31 53  1  0
 32 54  1  0
 33 55  1  0
 33 56  1  0
 34 57  1  0
 34 58  1  0
M  CHG  4   4   1  15  -1  25  -1  28  -1
M  END
>  <UniqueID>  (77) 
67

>  <SMILES>  (77) 
CC(=O)[NH+]1CCN(c2ccc(S(=O)(=O)[N-]c3ccc(CC(=O)N=c4[n-]cc[n-]4)cc3)cc2)CC1

>  <Energy>  (77) 
109.5861103219896

>  <Genealogy>  (77) 
CC(=O)[NH+]1CCN(c2ccc(S(=O)(=O)[N-]c3ccc(CC(=O)N=c4[n-]cc[n-]4)cc3)cc2)CC1 (protonated)
CC(=O)[NH+]1CCN(c2ccc(S(=O)(=O)[N-]c3ccc(CC(=O)N=c4[n-]cc[n-]4)cc3)cc2)CC1 (3D coordinates assigned)
CC(=O)[NH+]1CCN(c2ccc(S(=O)(=O)[N-]c3ccc(CC(=O)N=c4[n-]cc[n-]4)cc3)cc2)CC1 (nonaromatic ring conformer: 109.5861103219896 kcal/mol)

>  <smiles>  (77) 
CC(=O)N1CCN(c2ccc(S(=O)(=O)Nc3ccc(CC(=O)N=c4[nH]cc[nH]4)cc3)cc2)CC1

>  <score_type>  (77) 
oracle

>  <origin>  (77) 
adg

>  <m_score__min__energy>  (77) 
-12.52

>  <m_primary>  (77) 
energy

$$$$
77:0
     RDKit          3D

 58 60  0  0  0  0  0  0  0  0999 V2000
   58.1510   26.6120   44.9870 C   0  0  0  0  0  0  0  0  0  0  0  0
   57.8890   27.2150   46.3620 C   0  0  0  0  0  0  0  0  0  0  0  0
   58.8240   28.2550   46.6390 O   0  0  0  0  0  0  0  0  0  0  0  0
   59.3020   29.1440   45.6690 C   0  0  0  0  0  0  0  0  0  0  0  0
   60.2740   28.8090   44.9370 O   0  0  0  0  0  0  0  0  0  0  0  0
   58.7130   30.5040   45.5230 C   0  0  0  0  0  0  0  0  0  0  0  0
   57.5560   30.7450   44.8540 C   0  0  0  0  0  0  0  0  0  0  0  0
   56.7910   29.6730   44.1300 C   0  0  0  0  0  0  0  0  0  0  0  0
   57.0120   32.0730   44.8050 N   0  0  0  0  0  0  0  0  0  0  0  0
   57.6470   33.1400   45.1880 C   0  0  0  0  0  0  0  0  0  0  0  0
   56.9880   34.4670   44.9510 C   0  0  0  0  0  0  0  0  0  0  0  0
   59.0940   33.0260   45.6300 C   0  0  1  0  0  0  0  0  0  0  0  0
   59.5500   34.1450   46.5360 C   0  0  0  0  0  0  0  0  0  0  0  0
   58.7040   34.8820   47.1150 O   0  0  0  0  0  0  0  0  0  0  0  0
   60.9140   34.2710   46.8230 O   0  0  0  0  0  0  0  0  0  0  0  0
   61.4690   33.9550   48.0670 C   0  0  0  0  0  0  0  0  0  0  0  0
   60.6900   34.1370   49.2150 C   0  0  0  0  0  0  0  0  0  0  0  0
   61.2140   33.8440   50.4770 C   0  0  0  0  0  0  0  0  0  0  0  0
   62.5160   33.3540   50.5980 C   0  0  0  0  0  0  0  0  0  0  0  0
   63.2930   33.1470   49.4550 C   0  0  0  0  0  0  0  0  0  0  0  0
   62.7760   33.4400   48.1860 C   0  0  0  0  0  0  0  0  0  0  0  0
   63.7560   33.0860   46.7710 Cl  0  0  0  0  0  0  0  0  0  0  0  0
   59.3770   31.6420   46.2790 C   0  0  1  0  0  0  0  0  0  0  0  0
   58.9590   31.5790   47.7310 C   0  0  0  0  0  0  0  0  0  0  0  0
   59.2510   30.5390   48.5950 C   0  0  0  0  0  0  0  0  0  0  0  0
   58.7290   30.9080   49.8200 C   0  0  0  0  0  0  0  0  0  0  0  0
   58.7880   30.1340   51.0660 C   0  0  0  0  0  0  0  0  0  0  0  0
   57.7260   29.6850   51.5780 O   0  0  0  0  0  0  0  0  0  0  0  0
   60.0240   29.9000   51.6740 O   0  0  0  0  0  0  0  0  0  0  0  0
   61.1490   29.3980   50.9600 C   0  0  0  0  0  0  0  0  0  0  0  0
   60.7740   28.0990   50.2670 C   0  0  0  0  0  0  0  0  0  0  0  0
   58.1470   32.1510   49.6570 C   0  0  0  0  0  0  0  0  0  0  0  0
   58.2940   32.5560   48.3830 N   0  0  0  0  0  0  0  0  0  0  0  0
   58.5869   25.6088   45.1036 H   0  0  0  0  0  0  0  0  0  0  0  0
   57.2039   26.5381   44.4325 H   0  0  0  0  0  0  0  0  0  0  0  0
   58.8514   27.2539   44.4325 H   0  0  0  0  0  0  0  0  0  0  0  0
   56.8700   27.6285   46.3875 H   0  0  0  0  0  0  0  0  0  0  0  0
   57.9985   26.4273   47.1220 H   0  0  0  0  0  0  0  0  0  0  0  0
   56.3141   29.0048   44.8622 H   0  0  0  0  0  0  0  0  0  0  0  0
   56.0184   30.1365   43.4990 H   0  0  0  0  0  0  0  0  0  0  0  0
   57.4805   29.0931   43.4990 H   0  0  0  0  0  0  0  0  0  0  0  0
   56.7541   34.9380   45.9172 H   0  0  0  0  0  0  0  0  0  0  0  0
   57.6678   35.1174   44.3810 H   0  0  0  0  0  0  0  0  0  0  0  0
   56.0590   34.3184   44.3810 H   0  0  0  0  0  0  0  0  0  0  0  0
   59.6893   33.1201   44.7098 H   0  0  0  0  0  0  0  0  0  0  0  0
   59.6601   34.5125   49.1237 H   0  0  0  0  0  0  0  0  0  0  0  0
   60.5999   33.9996   51.3763 H   0  0  0  0  0  0  0  0  0  0  0  0
   62.9298   33.1311   51.5925 H   0  0  0  0  0  0  0  0  0  0  0  0
   64.3151   32.7522   49.5520 H   0  0  0  0  0  0  0  0  0  0  0  0
   60.4689   31.5207   46.2242 H   0  0  0  0  0  0  0  0  0  0  0  0
   59.7883   29.6094   48.3560 H   0  0  0  0  0  0  0  0  0  0  0  0
   61.4647   30.1363   50.2081 H   0  0  0  0  0  0  0  0  0  0  0  0
   61.9747   29.2123   51.6627 H   0  0  0  0  0  0  0  0  0  0  0  0
   60.5523   27.3310   51.0227 H   0  0  0  0  0  0  0  0  0  0  0  0
   59.8862   28.2619   49.6383 H   0  0  0  0  0  0  0  0  0  0  0  0
   61.6120   27.7636   49.6383 H   0  0  0  0  0  0  0  0  0  0  0  0
   57.6405   32.7222   50.4490 H   0  0  0  0  0  0  0  0  0  0  0  0
   57.9590   33.4620   47.9860 H   0  0  0  0  0  0  0  0  0  0  0  0
  1  2  1  0
  2  3  1  0
  3  4  1  0
  4  5  2  0
  4  6  1  0
  6  7  2  0
  7  8  1  0
  7  9  1  0
  9 10  2  0
 10 11  1  0
 10 12  1  0
 12 13  1  0
 13 14  2  0
 13 15  1  0
 15 16  1  0
 16 17  2  0
 17 18  1  0
 18 19  2  0
 19 20  1  0
 20 21  2  0
 21 22  1  0
 12 23  1  0
 23 24  1  0
 24 25  2  0
 25 26  1  0
 26 27  1  0
 27 28  2  0
 27 29  1  0
 29 30  1  0
 30 31  1  0
 26 32  2  0
 32 33  1  0
 23  6  1  0
 33 24  1  0
 21 16  1  0
  1 34  1  0
  1 35  1  0
  1 36  1  0
  2 37  1  0
  2 38  1  0
  8 39  1  0
  8 40  1  0
  8 41  1  0
 11 42  1  0
 11 43  1  0
 11 44  1  0
 12 45  1  6
 17 46  1  0
 18 47  1  0
 19 48  1  0
 20 49  1  0
 23 50  1  1
 25 51  1  0
 30 52  1  0
 30 53  1  0
 31 54  1  0
 31 55  1  0
 31 56  1  0
 32 57  1  0
 33 58  1  0
M  END
>  <UniqueID>  (78) 
68

>  <SMILES>  (78) 
CCOC(=O)C1=C(C)N=C(C)[C@@H](C(=O)Oc2ccccc2Cl)[C@H]1c1cc(C(=O)OCC)c[nH]1

>  <Energy>  (78) 
86.66509943717399

>  <Genealogy>  (78) 
CCOC(=O)C1=C(C)N=C(C)[C@@H](C(=O)Oc2ccccc2Cl)[C@H]1c1cc(C(=O)OCC)c[nH]1 (chirality)
CCOC(=O)C1=C(C)N=C(C)[C@@H](C(=O)Oc2ccccc2Cl)[C@H]1c1cc(C(=O)OCC)c[nH]1 (3D coordinates assigned)
CCOC(=O)C1=C(C)N=C(C)[C@@H](C(=O)Oc2ccccc2Cl)[C@H]1c1cc(C(=O)OCC)c[nH]1 (nonaromatic ring conformer: 86.66509943717399 kcal/mol)

>  <smiles>  (78) 
CCOC(=O)C1=C(C)N=C(C)C(C(=O)Oc2ccccc2Cl)C1c1cc(C(=O)OCC)c[nH]1

>  <score_type>  (78) 
oracle

>  <origin>  (78) 
adg

>  <m_score__min__energy>  (78) 
-7.96

>  <m_primary>  (78) 
energy

$$$$
78:0
     RDKit          3D

 55 57  0  0  0  0  0  0  0  0999 V2000
   55.8440   25.6320   46.0170 C   0  0  0  0  0  0  0  0  0  0  0  0
   56.0740   27.0680   46.0360 N   0  0  0  0  0  0  0  0  0  0  0  0
   57.3760   27.6460   46.2130 C   0  0  0  0  0  0  0  0  0  0  0  0
   57.8920   28.3430   45.3000 O   0  0  0  0  0  0  0  0  0  0  0  0
   58.1560   27.4020   47.4740 C   0  0  0  0  0  0  0  0  0  0  0  0
   59.2530   28.3590   47.6250 N   0  0  0  0  0  0  0  0  0  0  0  0
   59.2820   29.3250   48.5000 C   0  0  0  0  0  0  0  0  0  0  0  0
   58.5450   29.2500   49.6370 N   0  0  0  0  0  0  0  0  0  0  0  0
   58.5950   30.2150   50.5840 C   0  0  0  0  0  0  0  0  0  0  0  0
   57.6010   30.0220   52.0240 Cl  0  0  0  0  0  0  0  0  0  0  0  0
   59.4330   31.3310   50.3970 C   0  0  0  0  0  0  0  0  0  0  0  0
   59.5190   32.3430   51.4760 C   0  0  0  0  0  0  0  0  0  0  0  0
   60.6480   32.3920   52.3090 C   0  0  0  0  0  0  0  0  0  0  0  0
   60.7250   33.3380   53.3350 C   0  0  0  0  0  0  0  0  0  0  0  0
   59.6680   34.2300   53.5450 C   0  0  0  0  0  0  0  0  0  0  0  0
   58.5330   34.1720   52.7310 C   0  0  0  0  0  0  0  0  0  0  0  0
   58.4540   33.2290   51.7010 C   0  0  0  0  0  0  0  0  0  0  0  0
   60.1730   31.4370   49.2340 N   0  0  0  0  0  0  0  0  0  0  0  0
   61.1290   32.5480   49.0260 C   0  0  0  0  0  0  0  0  0  0  0  0
   60.4340   33.7200   48.4020 C   0  0  0  0  0  0  0  0  0  0  0  0
   59.6280   34.4160   49.0780 O   0  0  0  0  0  0  0  0  0  0  0  0
   60.7240   34.0610   47.0460 N   0  0  0  0  0  0  0  0  0  0  0  0
   59.7530   34.5960   46.1070 C   0  0  0  0  0  0  0  0  0  0  0  0
   58.9710   33.4500   45.5380 C   0  0  0  0  0  0  0  0  0  0  0  0
   58.6130   32.3590   46.3450 C   0  0  0  0  0  0  0  0  0  0  0  0
   57.7820   31.3530   45.8430 C   0  0  0  0  0  0  0  0  0  0  0  0
   57.2810   31.4290   44.5290 C   0  0  0  0  0  0  0  0  0  0  0  0
   56.3700   30.3820   44.0010 C   0  0  0  0  0  0  0  0  0  0  0  0
   55.5380   29.7670   44.7870 N   0  0  0  0  0  0  0  0  0  0  0  0
   56.3780   30.0530   42.6070 N   0  0  0  0  0  0  0  0  0  0  0  0
   57.6430   32.5250   43.7230 C   0  0  0  0  0  0  0  0  0  0  0  0
   58.4750   33.5280   44.2260 C   0  0  0  0  0  0  0  0  0  0  0  0
   60.1060   30.4390   48.2900 C   0  0  0  0  0  0  0  0  0  0  0  0
   60.8010   30.5040   47.2360 O   0  0  0  0  0  0  0  0  0  0  0  0
   55.7839   25.2566   47.0492 H   0  0  0  0  0  0  0  0  0  0  0  0
   54.9002   25.4187   45.4937 H   0  0  0  0  0  0  0  0  0  0  0  0
   56.6739   25.1346   45.4937 H   0  0  0  0  0  0  0  0  0  0  0  0
   57.4791   27.4965   48.3359 H   0  0  0  0  0  0  0  0  0  0  0  0
   58.5871   26.3914   47.4207 H   0  0  0  0  0  0  0  0  0  0  0  0
   61.4749   31.6834   52.1537 H   0  0  0  0  0  0  0  0  0  0  0  0
   61.6169   33.3811   53.9774 H   0  0  0  0  0  0  0  0  0  0  0  0
   59.7300   34.9767   54.3503 H   0  0  0  0  0  0  0  0  0  0  0  0
   57.6998   34.8698   52.9010 H   0  0  0  0  0  0  0  0  0  0  0  0
   57.5565   33.1818   51.0668 H   0  0  0  0  0  0  0  0  0  0  0  0
   61.5512   32.8502   49.9958 H   0  0  0  0  0  0  0  0  0  0  0  0
   61.9324   32.2089   48.3555 H   0  0  0  0  0  0  0  0  0  0  0  0
   59.0744   35.2882   46.6269 H   0  0  0  0  0  0  0  0  0  0  0  0
   60.2647   35.1438   45.3020 H   0  0  0  0  0  0  0  0  0  0  0  0
   58.9879   32.2951   47.3772 H   0  0  0  0  0  0  0  0  0  0  0  0
   57.5175   30.4955   46.4792 H   0  0  0  0  0  0  0  0  0  0  0  0
   55.8470   29.1650   45.5850 H   0  0  0  0  0  0  0  0  0  0  0  0
   55.6850   29.3700   42.2270 H   0  0  0  0  0  0  0  0  0  0  0  0
   57.0740   30.4750   41.9520 H   0  0  0  0  0  0  0  0  0  0  0  0
   57.2684   32.5919   42.6909 H   0  0  0  0  0  0  0  0  0  0  0  0
   58.7436   34.3847   43.5905 H   0  0  0  0  0  0  0  0  0  0  0  0
  1  2  1  0
  2  3  1  0
  3  4  2  0
  3  5  1  0
  5  6  1  0
  6  7  2  3
  7  8  1  0
  8  9  1  0
  9 10  1  0
  9 11  2  0
 11 12  1  0
 12 13  2  0
 13 14  1  0
 14 15  2  0
 15 16  1  0
 16 17  2  0
 11 18  1  0
 18 19  1  0
 19 20  1  0
 20 21  2  0
 20 22  1  0
 22 23  1  0
 23 24  1  0
 24 25  2  0
 25 26  1  0
 26 27  2  0
 27 28  1  0
 28 29  2  3
 28 30  1  0
 27 31  1  0
 31 32  2  0
 18 33  1  0
 33 34  2  0
 33  7  1  0
 17 12  1  0
 32 24  1  0
  1 35  1  0
  1 36  1  0
  1 37  1  0
  5 38  1  0
  5 39  1  0
 13 40  1  0
 14 41  1  0
 15 42  1  0
 16 43  1  0
 17 44  1  0
 19 45  1  0
 19 46  1  0
 23 47  1  0
 23 48  1  0
 25 49  1  0
 26 50  1  0
 29 51  1  0
 30 52  1  0
 30 53  1  0
 31 54  1  0
 32 55  1  0
M  CHG  3   2  -1   8  -1  22  -1
M  END
>  <UniqueID>  (79) 
69

>  <SMILES>  (79) 
C[N-]C(=O)CN=c1[n-]c(Cl)c(-c2ccccc2)n(CC(=O)[N-]Cc2ccc(C(=N)N)cc2)c1=O

>  <Energy>  (79) 
64.0701940519359

>  <Genealogy>  (79) 
C[N-]C(=O)CN=c1[n-]c(Cl)c(-c2ccccc2)n(CC(=O)[N-]Cc2ccc(C(=N)N)cc2)c1=O (protonated)
C[N-]C(=O)CN=c1[n-]c(Cl)c(-c2ccccc2)n(CC(=O)[N-]Cc2ccc(C(=N)N)cc2)c1=O (3D coordinates assigned)
C[N-]C(=O)CN=c1[n-]c(Cl)c(-c2ccccc2)n(CC(=O)[N-]Cc2ccc(C(=N)N)cc2)c1=O (optimized conformer: 64.0701940519359 kcal/mol)

>  <smiles>  (79) 
CNC(=O)CN=c1[nH]c(Cl)c(-c2ccccc2)n(CC(=O)NCc2ccc(C(=N)N)cc2)c1=O

>  <score_type>  (79) 
oracle

>  <origin>  (79) 
adg

>  <m_score__min__energy>  (79) 
-12.42

>  <m_primary>  (79) 
energy

$$$$
79:0
     RDKit          3D

 54 56  0  0  0  0  0  0  0  0999 V2000
   60.1870   33.1580   47.9460 C   0  0  0  0  0  0  0  0  0  0  0  0
   58.6780   33.3400   47.8170 C   0  0  0  0  0  0  0  0  0  0  0  0
   58.2220   33.0120   46.4240 C   0  0  0  0  0  0  0  0  0  0  0  0
   57.4260   31.9340   46.1790 N   0  0  0  0  0  0  0  0  0  0  0  0
   57.1060   31.8290   44.8710 C   0  0  0  0  0  0  0  0  0  0  0  0
   56.3270   30.8900   44.4230 N   0  0  0  0  0  0  0  0  0  0  0  0
   56.5330   29.4830   44.6100 C   0  0  0  0  0  0  0  0  0  0  0  0
   55.6530   28.8210   45.2230 O   0  0  0  0  0  0  0  0  0  0  0  0
   57.8320   28.8230   44.1890 C   0  0  1  0  0  0  0  0  0  0  0  0
   59.0370   29.3780   44.9560 C   0  0  0  0  0  0  0  0  0  0  0  0
   58.9970   29.0380   46.4500 C   0  0  0  0  0  0  0  0  0  0  0  0
   58.4180   27.6440   46.7700 C   0  0  0  0  0  0  0  0  0  0  0  0
   58.2920   26.7770   45.5850 N   0  0  0  0  0  0  0  0  0  0  0  0
   58.5290   25.3580   45.7030 C   0  0  0  0  0  0  0  0  0  0  0  0
   59.6880   24.9510   45.9950 O   0  0  0  0  0  0  0  0  0  0  0  0
   57.4520   24.3700   45.4500 C   0  0  0  0  0  0  0  0  0  0  0  0
   57.3740   23.7110   44.2840 C   0  0  0  0  0  0  0  0  0  0  0  0
   56.3320   22.6940   44.0850 C   0  0  0  0  0  0  0  0  0  0  0  0
   56.2160   22.1230   42.9680 O   0  0  0  0  0  0  0  0  0  0  0  0
   55.4600   22.2820   45.2360 C   0  0  0  0  0  0  0  0  0  0  0  0
   55.2450   23.4710   46.2050 C   0  0  0  0  0  0  0  0  0  0  0  0
   54.2540   24.4870   45.6060 C   0  0  0  0  0  0  0  0  0  0  0  0
   54.7000   22.9610   47.5450 C   0  0  0  0  0  0  0  0  0  0  0  0
   56.4940   24.1320   46.4500 O   0  0  0  0  0  0  0  0  0  0  0  0
   57.7860   27.2850   44.2980 C   0  0  0  0  0  0  0  0  0  0  0  0
   57.7700   33.0890   43.9590 S   0  0  0  0  0  0  0  0  0  0  0  0
   58.5060   33.7950   45.2980 C   0  0  0  0  0  0  0  0  0  0  0  0
   59.3660   35.0200   45.2500 C   0  0  0  0  0  0  0  0  0  0  0  0
   60.4626   33.1248   49.0104 H   0  0  0  0  0  0  0  0  0  0  0  0
   60.4857   32.2173   47.4603 H   0  0  0  0  0  0  0  0  0  0  0  0
   60.7008   34.0007   47.4603 H   0  0  0  0  0  0  0  0  0  0  0  0
   58.1714   32.6725   48.5296 H   0  0  0  0  0  0  0  0  0  0  0  0
   58.4280   34.3891   48.0337 H   0  0  0  0  0  0  0  0  0  0  0  0
   57.9573   29.0733   43.1252 H   0  0  0  0  0  0  0  0  0  0  0  0
   59.9550   28.9537   44.5233 H   0  0  0  0  0  0  0  0  0  0  0  0
   59.0120   30.4739   44.8646 H   0  0  0  0  0  0  0  0  0  0  0  0
   60.0243   29.0820   46.8407 H   0  0  0  0  0  0  0  0  0  0  0  0
   58.3276   29.7724   46.9218 H   0  0  0  0  0  0  0  0  0  0  0  0
   59.0807   27.1492   47.4953 H   0  0  0  0  0  0  0  0  0  0  0  0
   57.4048   27.7970   47.1699 H   0  0  0  0  0  0  0  0  0  0  0  0
   58.0892   23.9317   43.4779 H   0  0  0  0  0  0  0  0  0  0  0  0
   54.4853   21.9481   44.8506 H   0  0  0  0  0  0  0  0  0  0  0  0
   55.9526   21.4631   45.7808 H   0  0  0  0  0  0  0  0  0  0  0  0
   53.7366   25.0175   46.4189 H   0  0  0  0  0  0  0  0  0  0  0  0
   54.8019   25.2116   44.9857 H   0  0  0  0  0  0  0  0  0  0  0  0
   53.5160   23.9574   44.9857 H   0  0  0  0  0  0  0  0  0  0  0  0
   55.2313   23.4581   48.3700 H   0  0  0  0  0  0  0  0  0  0  0  0
   53.6253   23.1853   47.6130 H   0  0  0  0  0  0  0  0  0  0  0  0
   54.8526   21.8738   47.6130 H   0  0  0  0  0  0  0  0  0  0  0  0
   58.3983   26.8591   43.4894 H   0  0  0  0  0  0  0  0  0  0  0  0
   56.7307   26.9842   44.2210 H   0  0  0  0  0  0  0  0  0  0  0  0
   59.5957   35.3471   46.2748 H   0  0  0  0  0  0  0  0  0  0  0  0
   60.3021   34.7903   44.7200 H   0  0  0  0  0  0  0  0  0  0  0  0
   58.8319   35.8224   44.7200 H   0  0  0  0  0  0  0  0  0  0  0  0
  1  2  1  0
  2  3  1  0
  3  4  1  0
  4  5  1  0
  5  6  2  3
  6  7  1  0
  7  8  2  0
  7  9  1  0
  9 10  1  0
 10 11  1  0
 11 12  1  0
 12 13  1  0
 13 14  1  0
 14 15  2  0
 14 16  1  0
 16 17  2  0
 17 18  1  0
 18 19  2  0
 18 20  1  0
 20 21  1  0
 21 22  1  0
 21 23  1  0
 21 24  1  0
 13 25  1  0
  5 26  1  0
 26 27  1  0
 27 28  1  0
 27  3  2  0
 25  9  1  0
 24 16  1  0
  1 29  1  0
  1 30  1  0
  1 31  1  0
  2 32  1  0
  2 33  1  0
  9 34  1  6
 10 35  1  0
 10 36  1  0
 11 37  1  0
 11 38  1  0
 12 39  1  0
 12 40  1  0
 17 41  1  0
 20 42  1  0
 20 43  1  0
 22 44  1  0
 22 45  1  0
 22 46  1  0
 23 47  1  0
 23 48  1  0
 23 49  1  0
 25 50  1  0
 25 51  1  0
 28 52  1  0
 28 53  1  0
 28 54  1  0
M  CHG  1   4  -1
M  END
>  <UniqueID>  (80) 
70

>  <SMILES>  (80) 
CCc1[n-]c(=NC(=O)[C@H]2CCCN(C(=O)C3=CC(=O)CC(C)(C)O3)C2)sc1C

>  <Energy>  (80) 
90.35757011983051

>  <Genealogy>  (80) 
CCc1[n-]c(=NC(=O)C2CCCN(C(=O)C3=CC(=O)CC(C)(C)O3)C2)sc1C (protonated)
CCc1[n-]c(=NC(=O)[C@H]2CCCN(C(=O)C3=CC(=O)CC(C)(C)O3)C2)sc1C (chirality)
CCc1[n-]c(=NC(=O)[C@H]2CCCN(C(=O)C3=CC(=O)CC(C)(C)O3)C2)sc1C (3D coordinates assigned)
CCc1[n-]c(=NC(=O)[C@H]2CCCN(C(=O)C3=CC(=O)CC(C)(C)O3)C2)sc1C (nonaromatic ring conformer: 90.35757011983051 kcal/mol)

>  <smiles>  (80) 
CCc1[nH]c(=NC(=O)C2CCCN(C(=O)C3=CC(=O)CC(C)(C)O3)C2)sc1C

>  <score_type>  (80) 
oracle

>  <origin>  (80) 
adg

>  <m_score__min__energy>  (80) 
-11.699999999999999

>  <m_primary>  (80) 
energy

$$$$
80:0
     RDKit          3D

 38 40  0  0  0  0  0  0  0  0999 V2000
   56.2695   33.5981   45.7164 H   0  0  0  0  0  0  0  0  0  0  0  0
   57.2190   33.1780   45.3530 C   0  0  0  0  0  0  0  0  0  0  0  0
   57.2430   31.7830   44.8740 C   0  0  0  0  0  0  0  0  0  0  0  0
   56.1780   31.2190   44.4970 O   0  0  0  0  0  0  0  0  0  0  0  0
   58.5030   31.0990   44.7680 N   0  0  0  0  0  0  0  0  0  0  0  0
   59.3130   31.6880   44.4720 H   0  0  0  0  0  0  0  0  0  0  0  0
   58.6880   29.8070   44.8820 C   0  0  0  0  0  0  0  0  0  0  0  0
   59.1370   29.1360   46.1380 C   0  0  0  0  0  0  0  0  0  0  0  0
   60.0420   29.7330   47.0380 C   0  0  0  0  0  0  0  0  0  0  0  0
   60.4283   30.7431   46.8366 H   0  0  0  0  0  0  0  0  0  0  0  0
   60.4510   29.0480   48.1850 C   0  0  0  0  0  0  0  0  0  0  0  0
   61.1331   29.5323   48.8993 H   0  0  0  0  0  0  0  0  0  0  0  0
   59.9960   27.7500   48.4270 C   0  0  0  0  0  0  0  0  0  0  0  0
   60.2974   27.2247   49.3453 H   0  0  0  0  0  0  0  0  0  0  0  0
   59.1590   27.1180   47.5050 C   0  0  0  0  0  0  0  0  0  0  0  0
   58.8155   26.0896   47.6906 H   0  0  0  0  0  0  0  0  0  0  0  0
   58.7550   27.7920   46.3420 C   0  0  0  0  0  0  0  0  0  0  0  0
   57.9240   27.0850   45.3000 C   0  0  0  0  0  0  0  0  0  0  0  0
   56.8660   27.3564   45.4304 H   0  0  0  0  0  0  0  0  0  0  0  0
   58.0437   25.9976   45.4153 H   0  0  0  0  0  0  0  0  0  0  0  0
   58.3880   27.5010   43.8980 C   0  0  0  0  0  0  0  0  0  0  0  0
   57.7168   27.0578   43.1476 H   0  0  0  0  0  0  0  0  0  0  0  0
   59.4169   27.1445   43.7420 H   0  0  0  0  0  0  0  0  0  0  0  0
   58.3650   28.9580   43.7650 N   0  0  0  0  0  0  0  0  0  0  0  0
   57.9900   29.3730   42.8830 H   0  0  0  0  0  0  0  0  0  0  0  0
   58.3140   33.9520   45.3610 C   0  0  0  0  0  0  0  0  0  0  0  0
   58.4881   34.6138   44.4998 H   0  0  0  0  0  0  0  0  0  0  0  0
   59.3040   33.9660   46.4660 C   0  0  0  0  0  0  0  0  0  0  0  0
   58.9370   34.1850   47.8110 C   0  0  0  0  0  0  0  0  0  0  0  0
   57.8801   34.3447   48.0708 H   0  0  0  0  0  0  0  0  0  0  0  0
   59.9100   34.2000   48.8150 C   0  0  0  0  0  0  0  0  0  0  0  0
   59.6149   34.3636   49.8620 H   0  0  0  0  0  0  0  0  0  0  0  0
   61.2550   34.0080   48.4930 C   0  0  0  0  0  0  0  0  0  0  0  0
   62.0169   34.0150   49.2863 H   0  0  0  0  0  0  0  0  0  0  0  0
   61.6330   33.8070   47.1630 C   0  0  0  0  0  0  0  0  0  0  0  0
   63.3250   33.5750   46.7590 Cl  0  0  0  0  0  0  0  0  0  0  0  0
   60.6640   33.7910   46.1540 C   0  0  0  0  0  0  0  0  0  0  0  0
   60.9685   33.6403   45.1078 H   0  0  0  0  0  0  0  0  0  0  0  0
  1  2  1  0
  2  3  1  0
  3  4  2  0
  3  5  1  0
  5  6  1  0
  5  7  2  3
  7  8  1  0
  8  9  2  0
  9 10  1  0
  9 11  1  0
 11 12  1  0
 11 13  2  0
 13 14  1  0
 13 15  1  0
 15 16  1  0
 15 17  2  0
 17 18  1  0
 18 19  1  0
 18 20  1  0
 18 21  1  0
 21 22  1  0
 21 23  1  0
 21 24  1  0
 24 25  1  0
  2 26  2  0
 26 27  1  0
 26 28  1  0
 28 29  2  0
 29 30  1  0
 29 31  1  0
 31 32  1  0
 31 33  2  0
 33 34  1  0
 33 35  1  0
 35 36  1  0
 35 37  2  0
 37 38  1  0
 24  7  1  0
 37 28  1  0
 17  8  1  0
M  CHG  1   5   1
M  END
>  <UniqueID>  (81) 
71

>  <SMILES>  (81) 
O=C(/C=C/c1cccc(Cl)c1)[NH+]=C1NCCc2ccccc21

>  <Energy>  (81) 
53.52441758955985

>  <Genealogy>  (81) 
O=C(C=Cc1cccc(Cl)c1)[NH+]=C1NCCc2ccccc21 (protonated)
O=C(/C=C/c1cccc(Cl)c1)[NH+]=C1NCCc2ccccc21 (cis-trans isomerization)
O=C(/C=C/c1cccc(Cl)c1)[NH+]=C1NCCc2ccccc21 (3D coordinates assigned)
O=C(/C=C/c1cccc(Cl)c1)[NH+]=C1NCCc2ccccc21 (nonaromatic ring conformer: 53.52441758955985 kcal/mol)

>  <smiles>  (81) 
O=C(C=Cc1cccc(Cl)c1)N=C1NCCc2ccccc21

>  <score_type>  (81) 
oracle

>  <origin>  (81) 
adg

>  <m_score__min__energy>  (81) 
-7.71

>  <m_primary>  (81) 
energy

$$$$
81:0
     RDKit          3D

 45 47  0  0  0  0  0  0  0  0999 V2000
   55.8540   22.6390   42.6300 C   0  0  0  0  0  0  0  0  0  0  0  0
   55.8540   23.5820   43.5740 C   0  0  0  0  0  0  0  0  0  0  0  0
   56.9560   23.7600   44.5540 C   0  0  0  0  0  0  0  0  0  0  0  0
   58.1670   23.0550   44.3970 C   0  0  0  0  0  0  0  0  0  0  0  0
   59.2510   23.2980   45.2420 C   0  0  0  0  0  0  0  0  0  0  0  0
   59.1550   24.2620   46.2430 C   0  0  0  0  0  0  0  0  0  0  0  0
   57.9700   24.9760   46.4130 C   0  0  0  0  0  0  0  0  0  0  0  0
   56.8550   24.7230   45.5930 C   0  0  0  0  0  0  0  0  0  0  0  0
   55.6060   25.4760   45.8620 C   0  0  0  0  0  0  0  0  0  0  0  0
   54.5110   24.8550   45.8960 O   0  0  0  0  0  0  0  0  0  0  0  0
   55.6050   26.8900   46.1090 N   0  0  0  0  0  0  0  0  0  0  0  0
   56.5310   27.8520   45.5800 C   0  0  0  0  0  0  0  0  0  0  0  0
   57.8780   27.7600   45.9560 C   0  0  0  0  0  0  0  0  0  0  0  0
   58.8130   28.6980   45.4950 C   0  0  0  0  0  0  0  0  0  0  0  0
   60.5070   28.5970   45.9760 S   0  0  0  0  0  0  0  0  0  0  0  0
   60.8420   27.1500   46.2120 O   0  0  0  0  0  0  0  0  0  0  0  0
   61.3840   29.1110   44.8680 O   0  0  0  0  0  0  0  0  0  0  0  0
   60.7810   29.5030   47.4500 N   0  0  0  0  0  0  0  0  0  0  0  0
   59.5150   29.8740   48.1050 C   0  0  0  0  0  0  0  0  0  0  0  0
   58.7800   31.0130   47.3580 C   0  0  0  0  0  0  0  0  0  0  0  0
   59.6190   31.7610   46.4930 O   0  0  0  0  0  0  0  0  0  0  0  0
   60.8700   31.9930   47.1010 C   0  0  0  0  0  0  0  0  0  0  0  0
   61.6570   30.6740   47.2210 C   0  0  0  0  0  0  0  0  0  0  0  0
   58.3980   29.7280   44.6440 C   0  0  0  0  0  0  0  0  0  0  0  0
   57.0530   29.8440   44.2870 C   0  0  0  0  0  0  0  0  0  0  0  0
   56.1130   28.9290   44.7710 C   0  0  0  0  0  0  0  0  0  0  0  0
   54.7690   29.1270   44.4760 O   0  0  0  0  0  0  0  0  0  0  0  0
   55.0068   22.5585   41.9330 H   0  0  0  0  0  0  0  0  0  0  0  0
   56.7012   21.9421   42.5488 H   0  0  0  0  0  0  0  0  0  0  0  0
   54.9924   24.2636   43.6294 H   0  0  0  0  0  0  0  0  0  0  0  0
   58.2586   22.3040   43.5985 H   0  0  0  0  0  0  0  0  0  0  0  0
   60.1830   22.7271   45.1173 H   0  0  0  0  0  0  0  0  0  0  0  0
   60.0150   24.4599   46.8997 H   0  0  0  0  0  0  0  0  0  0  0  0
   57.9059   25.7454   47.1965 H   0  0  0  0  0  0  0  0  0  0  0  0
   58.2047   26.9449   46.6185 H   0  0  0  0  0  0  0  0  0  0  0  0
   58.8602   28.9906   48.1356 H   0  0  0  0  0  0  0  0  0  0  0  0
   59.7520   30.2331   49.1174 H   0  0  0  0  0  0  0  0  0  0  0  0
   57.9704   30.5700   46.7594 H   0  0  0  0  0  0  0  0  0  0  0  0
   58.4038   31.7088   48.1224 H   0  0  0  0  0  0  0  0  0  0  0  0
   61.4446   32.7044   46.4897 H   0  0  0  0  0  0  0  0  0  0  0  0
   60.7084   32.4069   48.1073 H   0  0  0  0  0  0  0  0  0  0  0  0
   62.2205   30.5148   46.2898 H   0  0  0  0  0  0  0  0  0  0  0  0
   62.3242   30.7640   48.0909 H   0  0  0  0  0  0  0  0  0  0  0  0
   59.1330   30.4482   44.2552 H   0  0  0  0  0  0  0  0  0  0  0  0
   56.7315   30.6590   43.6219 H   0  0  0  0  0  0  0  0  0  0  0  0
  1  2  2  0
  2  3  1  0
  3  4  2  0
  4  5  1  0
  5  6  2  0
  6  7  1  0
  7  8  2  0
  8  9  1  0
  9 10  2  0
  9 11  1  0
 11 12  1  0
 12 13  2  0
 13 14  1  0
 14 15  1  0
 15 16  2  0
 15 17  2  0
 15 18  1  0
 18 19  1  0
 19 20  1  0
 20 21  1  0
 21 22  1  0
 22 23  1  0
 14 24  2  0
 24 25  1  0
 25 26  2  0
 26 27  1  0
  8  3  1  0
 26 12  1  0
 23 18  1  0
  1 28  1  0
  1 29  1  0
  2 30  1  0
  4 31  1  0
  5 32  1  0
  6 33  1  0
  7 34  1  0
 13 35  1  0
 19 36  1  0
 19 37  1  0
 20 38  1  0
 20 39  1  0
 22 40  1  0
 22 41  1  0
 23 42  1  0
 23 43  1  0
 24 44  1  0
 25 45  1  0
M  CHG  2  11  -1  27  -1
M  END
>  <UniqueID>  (82) 
72

>  <SMILES>  (82) 
C=Cc1ccccc1C(=O)[N-]c1cc(S(=O)(=O)N2CCOCC2)ccc1[O-]

>  <Energy>  (82) 
69.4040820071922

>  <Genealogy>  (82) 
C=Cc1ccccc1C(=O)[N-]c1cc(S(=O)(=O)N2CCOCC2)ccc1[O-] (protonated)
C=Cc1ccccc1C(=O)[N-]c1cc(S(=O)(=O)N2CCOCC2)ccc1[O-] (3D coordinates assigned)
C=Cc1ccccc1C(=O)[N-]c1cc(S(=O)(=O)N2CCOCC2)ccc1[O-] (nonaromatic ring conformer: 69.4040820071922 kcal/mol)

>  <smiles>  (82) 
C=Cc1ccccc1C(=O)Nc1cc(S(=O)(=O)N2CCOCC2)ccc1O

>  <score_type>  (82) 
oracle

>  <origin>  (82) 
adg

>  <m_score__min__energy>  (82) 
-13.84

>  <m_primary>  (82) 
energy

$$$$
82:0
     RDKit          3D

 45 46  0  0  0  0  0  0  0  0999 V2000
   54.5301   24.7045   44.7089 H   0  0  0  0  0  0  0  0  0  0  0  0
   55.2690   23.8940   44.7930 C   0  0  0  0  0  0  0  0  0  0  0  0
   56.2470   23.7310   43.6920 C   0  0  0  0  0  0  0  0  0  0  0  0
   55.9445   23.1535   42.8060 H   0  0  0  0  0  0  0  0  0  0  0  0
   57.4800   24.2510   43.7210 C   0  0  0  0  0  0  0  0  0  0  0  0
   58.3303   23.5707   43.5655 H   0  0  0  0  0  0  0  0  0  0  0  0
   57.7720   25.6890   43.9500 C   0  0  0  0  0  0  0  0  0  0  0  0
   57.7720   26.1960   45.2110 C   0  0  0  0  0  0  0  0  0  0  0  0
   56.7800   27.2090   45.6500 C   0  0  0  0  0  0  0  0  0  0  0  0
   55.6830   26.8070   46.1250 O   0  0  0  0  0  0  0  0  0  0  0  0
   57.0230   28.6700   45.5180 C   0  0  0  0  0  0  0  0  0  0  0  0
   56.0480   29.4970   44.9280 C   0  0  0  0  0  0  0  0  0  0  0  0
   54.8460   28.9680   44.4690 O   0  0  0  0  0  0  0  0  0  0  0  0
   56.2620   30.8340   44.8170 N   0  0  0  0  0  0  0  0  0  0  0  0
   57.4020   31.4210   45.2580 C   0  0  0  0  0  0  0  0  0  0  0  0
   57.5313   32.5085   45.1552 H   0  0  0  0  0  0  0  0  0  0  0  0
   58.4170   30.6520   45.8440 C   0  0  0  0  0  0  0  0  0  0  0  0
   59.6590   31.3140   46.3140 C   0  0  0  0  0  0  0  0  0  0  0  0
   59.7420   32.7170   46.3550 C   0  0  0  0  0  0  0  0  0  0  0  0
   58.8802   33.3253   46.0432 H   0  0  0  0  0  0  0  0  0  0  0  0
   60.9140   33.3430   46.7900 C   0  0  0  0  0  0  0  0  0  0  0  0
   60.9699   34.4410   46.8241 H   0  0  0  0  0  0  0  0  0  0  0  0
   62.0160   32.5750   47.1820 C   0  0  0  0  0  0  0  0  0  0  0  0
   63.1780   33.1990   47.6180 O   0  0  0  0  0  0  0  0  0  0  0  0
   61.9450   31.1790   47.1360 C   0  0  0  0  0  0  0  0  0  0  0  0
   62.8127   30.5748   47.4394 H   0  0  0  0  0  0  0  0  0  0  0  0
   60.7730   30.5500   46.7050 C   0  0  0  0  0  0  0  0  0  0  0  0
   60.7221   29.4517   46.6716 H   0  0  0  0  0  0  0  0  0  0  0  0
   58.2200   29.2620   45.9740 C   0  0  0  0  0  0  0  0  0  0  0  0
   59.1150   28.5510   46.5090 O   0  0  0  0  0  0  0  0  0  0  0  0
   58.8500   25.8160   46.1960 C   0  0  0  0  0  0  0  0  0  0  0  0
   58.4734   25.9487   47.2210 H   0  0  0  0  0  0  0  0  0  0  0  0
   59.1326   24.7641   46.0425 H   0  0  0  0  0  0  0  0  0  0  0  0
   59.7298   26.4582   46.0425 H   0  0  0  0  0  0  0  0  0  0  0  0
   57.9910   26.5650   42.7380 C   0  0  0  0  0  0  0  0  0  0  0  0
   58.2458   27.5843   43.0636 H   0  0  0  0  0  0  0  0  0  0  0  0
   58.8146   26.1563   42.1342 H   0  0  0  0  0  0  0  0  0  0  0  0
   57.0719   26.5919   42.1342 H   0  0  0  0  0  0  0  0  0  0  0  0
   55.2260   23.1120   45.8930 C   0  0  0  0  0  0  0  0  0  0  0  0
   56.1360   23.3120   47.0500 C   0  0  0  0  0  0  0  0  0  0  0  0
   57.0560   22.4890   47.3010 O   0  0  0  0  0  0  0  0  0  0  0  0
   56.0110   24.4430   47.8480 O   0  0  0  0  0  0  0  0  0  0  0  0
   54.2090   22.0310   45.9700 C   0  0  0  0  0  0  0  0  0  0  0  0
   54.4920   20.9270   46.5040 O   0  0  0  0  0  0  0  0  0  0  0  0
   52.9300   22.2210   45.4580 O   0  0  0  0  0  0  0  0  0  0  0  0
  1  2  1  0
  2  3  1  0
  3  4  1  0
  3  5  2  0
  5  6  1  0
  5  7  1  0
  7  8  2  0
  8  9  1  0
  9 10  2  0
  9 11  1  0
 11 12  2  0
 12 13  1  0
 12 14  1  0
 14 15  1  0
 15 16  1  0
 15 17  2  0
 17 18  1  0
 18 19  2  0
 19 20  1  0
 19 21  1  0
 21 22  1  0
 21 23  2  0
 23 24  1  0
 23 25  1  0
 25 26  1  0
 25 27  2  0
 27 28  1  0
 17 29  1  0
 29 30  2  0
  8 31  1  0
 31 32  1  0
 31 33  1  0
 31 34  1  0
  7 35  1  0
 35 36  1  0
 35 37  1  0
 35 38  1  0
  2 39  2  3
 39 40  1  0
 40 41  2  0
 40 42  1  0
 39 43  1  0
 43 44  2  0
 43 45  1  0
 29 11  1  0
 27 18  1  0
M  CHG  5  13  -1  14  -1  24  -1  42  -1  45  -1
M  END
>  <UniqueID>  (83) 
73

>  <SMILES>  (83) 
C/C(C=CC=C(C(=O)[O-])C(=O)[O-])=C(/C)C(=O)c1c([O-])[n-]cc(-c2ccc([O-])cc2)c1=O

>  <Energy>  (83) 
76.94718926473138

>  <Genealogy>  (83) 
CC(C=CC=C(C(=O)[O-])C(=O)[O-])=C(C)C(=O)c1c([O-])[n-]cc(-c2ccc([O-])cc2)c1=O (protonated)
C/C(C=CC=C(C(=O)[O-])C(=O)[O-])=C(/C)C(=O)c1c([O-])[n-]cc(-c2ccc([O-])cc2)c1=O (cis-trans isomerization)
C/C(C=CC=C(C(=O)[O-])C(=O)[O-])=C(/C)C(=O)c1c([O-])[n-]cc(-c2ccc([O-])cc2)c1=O (3D coordinates assigned)
C/C(C=CC=C(C(=O)[O-])C(=O)[O-])=C(/C)C(=O)c1c([O-])[n-]cc(-c2ccc([O-])cc2)c1=O (optimized conformer: 76.94718926473138 kcal/mol)

>  <smiles>  (83) 
CC(C=CC=C(C(=O)O)C(=O)O)=C(C)C(=O)c1c(O)[nH]cc(-c2ccc(O)cc2)c1=O

>  <score_type>  (83) 
oracle

>  <origin>  (83) 
adg

>  <m_score__min__energy>  (83) 
-17.800000000000001

>  <m_primary>  (83) 
energy

$$$$
83:0
     RDKit          3D

 49 52  0  0  0  0  0  0  0  0999 V2000
   54.9120   30.4400   45.5310 H   0  0  0  0  0  0  0  0  0  0  0  0
   55.1470   29.6200   44.9860 O   0  0  0  0  0  0  0  0  0  0  0  0
   56.2880   28.8790   45.2780 C   0  0  0  0  0  0  0  0  0  0  0  0
   56.2740   27.5740   45.5920 N   0  0  0  0  0  0  0  0  0  0  0  0
   57.5870   27.2900   45.7350 C   0  0  0  0  0  0  0  0  0  0  0  0
   58.0040   26.1410   46.0290 O   0  0  0  0  0  0  0  0  0  0  0  0
   58.4190   28.3350   45.5260 N   0  0  0  0  0  0  0  0  0  0  0  0
   57.5800   29.3530   45.2640 C   0  0  0  0  0  0  0  0  0  0  0  0
   58.0300   30.6890   44.8490 C   0  0  0  0  0  0  0  0  0  0  0  0
   57.9869   30.9214   43.7747 H   0  0  0  0  0  0  0  0  0  0  0  0
   58.4910   31.6550   45.6690 C   0  0  0  0  0  0  0  0  0  0  0  0
   59.0130   31.3840   46.9220 C   0  0  0  0  0  0  0  0  0  0  0  0
   59.0800   30.3975   47.4040 H   0  0  0  0  0  0  0  0  0  0  0  0
   59.4330   32.5860   47.4510 C   0  0  0  0  0  0  0  0  0  0  0  0
   60.0590   32.7240   48.7810 C   0  0  0  0  0  0  0  0  0  0  0  0
   59.3720   33.2070   49.7220 O   0  0  0  0  0  0  0  0  0  0  0  0
   61.4310   32.3550   49.0180 N   0  0  0  0  0  0  0  0  0  0  0  0
   61.8330   31.9410   50.3710 C   0  0  0  0  0  0  0  0  0  0  0  0
   61.6442   32.7697   51.0692 H   0  0  0  0  0  0  0  0  0  0  0  0
   61.2460   31.0532   50.6489 H   0  0  0  0  0  0  0  0  0  0  0  0
   63.3170   31.5720   50.4270 C   0  0  0  0  0  0  0  0  0  0  0  0
   63.6339   31.4836   51.4767 H   0  0  0  0  0  0  0  0  0  0  0  0
   63.4765   30.6117   49.9147 H   0  0  0  0  0  0  0  0  0  0  0  0
   64.1060   32.6200   49.7630 N   0  0  0  0  0  0  0  0  0  0  0  0
   65.3010   33.1550   50.3620 C   0  0  0  0  0  0  0  0  0  0  0  0
   65.2040   34.1800   51.2560 N   0  0  0  0  0  0  0  0  0  0  0  0
   66.2970   34.7130   51.8660 C   0  0  0  0  0  0  0  0  0  0  0  0
   66.1795   35.5454   52.5754 H   0  0  0  0  0  0  0  0  0  0  0  0
   67.5670   34.2040   51.5920 C   0  0  0  0  0  0  0  0  0  0  0  0
   68.4552   34.6343   52.0777 H   0  0  0  0  0  0  0  0  0  0  0  0
   67.6980   33.1430   50.6950 C   0  0  0  0  0  0  0  0  0  0  0  0
   68.6925   32.7282   50.4738 H   0  0  0  0  0  0  0  0  0  0  0  0
   66.5650   32.6090   50.0790 C   0  0  0  0  0  0  0  0  0  0  0  0
   66.6605   31.7672   49.3774 H   0  0  0  0  0  0  0  0  0  0  0  0
   63.7130   33.0840   48.4220 C   0  0  0  0  0  0  0  0  0  0  0  0
   63.5473   34.1709   48.4560 H   0  0  0  0  0  0  0  0  0  0  0  0
   64.5219   32.8284   47.7217 H   0  0  0  0  0  0  0  0  0  0  0  0
   62.4280   32.4010   47.9350 C   0  0  0  0  0  0  0  0  0  0  0  0
   62.0159   32.9665   47.0863 H   0  0  0  0  0  0  0  0  0  0  0  0
   62.6654   31.3731   47.6236 H   0  0  0  0  0  0  0  0  0  0  0  0
   59.1960   33.5940   46.5790 N   0  0  0  0  0  0  0  0  0  0  0  0
   59.5540   35.0060   46.7540 C   0  0  0  0  0  0  0  0  0  0  0  0
   59.6131   35.2390   47.8274 H   0  0  0  0  0  0  0  0  0  0  0  0
   60.5293   35.1981   46.2829 H   0  0  0  0  0  0  0  0  0  0  0  0
   58.7881   35.6396   46.2829 H   0  0  0  0  0  0  0  0  0  0  0  0
   58.5760   33.0460   45.5020 C   0  0  0  0  0  0  0  0  0  0  0  0
   58.0340   33.7790   44.5170 C   0  0  0  0  0  0  0  0  0  0  0  0
   58.1759   34.8697   44.5011 H   0  0  0  0  0  0  0  0  0  0  0  0
   57.4478   33.2891   43.7255 H   0  0  0  0  0  0  0  0  0  0  0  0
  1  2  1  0
  2  3  1  0
  3  4  1  0
  4  5  1  0
  5  6  2  0
  5  7  1  0
  7  8  1  0
  8  9  1  0
  9 10  1  0
  9 11  2  0
 11 12  1  0
 12 13  1  0
 12 14  2  0
 14 15  1  0
 15 16  2  0
 15 17  1  0
 17 18  1  0
 18 19  1  0
 18 20  1  0
 18 21  1  0
 21 22  1  0
 21 23  1  0
 21 24  1  0
 24 25  1  0
 25 26  2  0
 26 27  1  0
 27 28  1  0
 27 29  2  0
 29 30  1  0
 29 31  1  0
 31 32  1  0
 31 33  2  0
 33 34  1  0
 24 35  1  0
 35 36  1  0
 35 37  1  0
 35 38  1  0
 38 39  1  0
 38 40  1  0
 14 41  1  0
 41 42  1  0
 42 43  1  0
 42 44  1  0
 42 45  1  0
 41 46  1  0
 46 47  2  0
 47 48  1  0
 47 49  1  0
  8  3  2  0
 46 11  1  0
 38 17  1  0
 33 25  1  0
M  CHG  2   4  -1   7  -1
M  END
>  <UniqueID>  (84) 
74

>  <SMILES>  (84) 
C=c1/c(=C\c2[n-]c(=O)[n-]c2O)cc(C(=O)N2CCN(c3ccccn3)CC2)n1C

>  <Energy>  (84) 
131.11141145374333

>  <Genealogy>  (84) 
C=c1c(=Cc2[n-]c(=O)[n-]c2O)cc(C(=O)N2CCN(c3ccccn3)CC2)n1C (protonated)
C=c1/c(=C\c2[n-]c(=O)[n-]c2O)cc(C(=O)N2CCN(c3ccccn3)CC2)n1C (cis-trans isomerization)
C=c1/c(=C\c2[n-]c(=O)[n-]c2O)cc(C(=O)N2CCN(c3ccccn3)CC2)n1C (3D coordinates assigned)
C=c1/c(=C\c2[n-]c(=O)[n-]c2O)cc(C(=O)N2CCN(c3ccccn3)CC2)n1C (nonaromatic ring conformer: 131.11141145374333 kcal/mol)

>  <smiles>  (84) 
C=c1c(=Cc2[nH]c(=O)[nH]c2O)cc(C(=O)N2CCN(c3ccccn3)CC2)n1C

>  <score_type>  (84) 
oracle

>  <origin>  (84) 
adg

>  <m_score__min__energy>  (84) 
-12.970000000000001

>  <m_primary>  (84) 
energy

$$$$
84:0
     RDKit          3D

 57 60  0  0  0  0  0  0  0  0999 V2000
   63.0180   32.7080   51.2850 N   0  0  0  0  0  0  0  0  0  0  0  0
   63.2900   33.8780   50.0410 S   0  0  0  0  0  0  0  0  0  0  0  0
   63.3550   35.2500   50.6520 O   0  0  0  0  0  0  0  0  0  0  0  0
   64.5990   33.5920   49.3610 O   0  0  0  0  0  0  0  0  0  0  0  0
   61.9820   33.8070   48.8650 C   0  0  0  0  0  0  0  0  0  0  0  0
   62.2710   33.7760   47.4950 C   0  0  0  0  0  0  0  0  0  0  0  0
   61.2380   33.7030   46.5580 C   0  0  0  0  0  0  0  0  0  0  0  0
   59.8970   33.6580   46.9780 C   0  0  0  0  0  0  0  0  0  0  0  0
   58.8310   33.5660   46.0120 N   0  0  0  0  0  0  0  0  0  0  0  0
   59.0500   33.9180   44.6050 C   0  0  0  0  0  0  0  0  0  0  0  0
   58.5390   32.7970   43.6770 C   0  0  0  0  0  0  0  0  0  0  0  0
   57.5160   31.9260   44.3180 N   0  0  0  0  0  0  0  0  0  0  0  0
   56.7120   31.1930   43.3100 C   0  0  0  0  0  0  0  0  0  0  0  0
   55.8530   30.1450   43.9560 C   0  0  0  0  0  0  0  0  0  0  0  0
   54.8120   29.7230   43.3830 O   0  0  0  0  0  0  0  0  0  0  0  0
   56.1930   29.6750   45.2650 N   0  0  0  0  0  0  0  0  0  0  0  0
   57.0560   28.5210   45.5140 C   0  0  1  0  0  0  0  0  0  0  0  0
   57.5290   27.9500   44.1680 C   0  0  0  0  0  0  0  0  0  0  0  0
   58.5170   26.7660   44.3120 C   0  0  0  0  0  0  0  0  0  0  0  0
   59.1390   26.6010   45.7160 C   0  0  0  0  0  0  0  0  0  0  0  0
   59.3090   27.9210   46.4220 C   0  0  0  0  0  0  0  0  0  0  0  0
   60.4460   28.1760   47.2030 C   0  0  0  0  0  0  0  0  0  0  0  0
   60.5650   29.3840   47.8940 C   0  0  0  0  0  0  0  0  0  0  0  0
   59.5470   30.3360   47.8210 C   0  0  0  0  0  0  0  0  0  0  0  0
   58.4030   30.0850   47.0580 C   0  0  0  0  0  0  0  0  0  0  0  0
   58.2720   28.8730   46.3520 C   0  0  0  0  0  0  0  0  0  0  0  0
   56.6530   32.6990   45.2330 C   0  0  0  0  0  0  0  0  0  0  0  0
   57.4820   33.1690   46.4340 C   0  0  0  0  0  0  0  0  0  0  0  0
   59.6130   33.6710   48.3540 C   0  0  0  0  0  0  0  0  0  0  0  0
   60.6480   33.7450   49.2910 C   0  0  0  0  0  0  0  0  0  0  0  0
   63.9510   32.3190   51.5460 H   0  0  0  0  0  0  0  0  0  0  0  0
   62.6630   33.2260   52.1200 H   0  0  0  0  0  0  0  0  0  0  0  0
   63.3167   33.8093   47.1553 H   0  0  0  0  0  0  0  0  0  0  0  0
   61.4751   33.6806   45.4841 H   0  0  0  0  0  0  0  0  0  0  0  0
   58.5105   34.8492   44.3775 H   0  0  0  0  0  0  0  0  0  0  0  0
   60.1289   34.0516   44.4375 H   0  0  0  0  0  0  0  0  0  0  0  0
   58.0945   33.2587   42.7830 H   0  0  0  0  0  0  0  0  0  0  0  0
   59.4008   32.1604   43.4281 H   0  0  0  0  0  0  0  0  0  0  0  0
   56.0667   31.9074   42.7778 H   0  0  0  0  0  0  0  0  0  0  0  0
   57.4005   30.6957   42.6110 H   0  0  0  0  0  0  0  0  0  0  0  0
   56.4660   27.7822   46.0762 H   0  0  0  0  0  0  0  0  0  0  0  0
   56.6481   27.6023   43.6085 H   0  0  0  0  0  0  0  0  0  0  0  0
   58.0642   28.7561   43.6448 H   0  0  0  0  0  0  0  0  0  0  0  0
   57.9770   25.8395   44.0671 H   0  0  0  0  0  0  0  0  0  0  0  0
   59.3526   26.9785   43.6290 H   0  0  0  0  0  0  0  0  0  0  0  0
   58.4828   25.9578   46.3207 H   0  0  0  0  0  0  0  0  0  0  0  0
   60.1361   26.1530   45.5930 H   0  0  0  0  0  0  0  0  0  0  0  0
   61.2452   27.4233   47.2714 H   0  0  0  0  0  0  0  0  0  0  0  0
   61.4628   29.5854   48.4969 H   0  0  0  0  0  0  0  0  0  0  0  0
   59.6452   31.2867   48.3655 H   0  0  0  0  0  0  0  0  0  0  0  0
   57.6017   30.8370   47.0086 H   0  0  0  0  0  0  0  0  0  0  0  0
   56.2451   33.5726   44.7034 H   0  0  0  0  0  0  0  0  0  0  0  0
   55.8245   32.0652   45.5821 H   0  0  0  0  0  0  0  0  0  0  0  0
   56.9825   34.0299   46.9024 H   0  0  0  0  0  0  0  0  0  0  0  0
   57.5664   32.3391   47.1510 H   0  0  0  0  0  0  0  0  0  0  0  0
   58.5688   33.6226   48.6965 H   0  0  0  0  0  0  0  0  0  0  0  0
   60.4147   33.7546   50.3659 H   0  0  0  0  0  0  0  0  0  0  0  0
  1  2  1  0
  2  3  2  0
  2  4  2  0
  2  5  1  0
  5  6  2  0
  6  7  1  0
  7  8  2  0
  8  9  1  0
  9 10  1  0
 10 11  1  0
 11 12  1  0
 12 13  1  0
 13 14  1  0
 14 15  2  0
 14 16  1  0
 16 17  1  0
 17 18  1  0
 18 19  1  0
 19 20  1  0
 20 21  1  0
 21 22  2  0
 22 23  1  0
 23 24  2  0
 24 25  1  0
 25 26  2  0
 12 27  1  0
 27 28  1  0
  8 29  1  0
 29 30  2  0
 30  5  1  0
 28  9  1  0
 26 17  1  0
 26 21  1  0
  1 31  1  0
  1 32  1  0
  6 33  1  0
  7 34  1  0
 10 35  1  0
 10 36  1  0
 11 37  1  0
 11 38  1  0
 13 39  1  0
 13 40  1  0
 17 41  1  1
 18 42  1  0
 18 43  1  0
 19 44  1  0
 19 45  1  0
 20 46  1  0
 20 47  1  0
 22 48  1  0
 23 49  1  0
 24 50  1  0
 25 51  1  0
 27 52  1  0
 27 53  1  0
 28 54  1  0
 28 55  1  0
 29 56  1  0
 30 57  1  0
M  CHG  1  16  -1
M  END
>  <UniqueID>  (85) 
75

>  <SMILES>  (85) 
NS(=O)(=O)c1ccc(N2CCN(CC(=O)[N-][C@H]3CCCc4ccccc43)CC2)cc1

>  <Energy>  (85) 
75.46278576007778

>  <Genealogy>  (85) 
NS(=O)(=O)c1ccc(N2CCN(CC(=O)[N-]C3CCCc4ccccc43)CC2)cc1 (protonated)
NS(=O)(=O)c1ccc(N2CCN(CC(=O)[N-][C@H]3CCCc4ccccc43)CC2)cc1 (chirality)
NS(=O)(=O)c1ccc(N2CCN(CC(=O)[N-][C@H]3CCCc4ccccc43)CC2)cc1 (3D coordinates assigned)
NS(=O)(=O)c1ccc(N2CCN(CC(=O)[N-][C@H]3CCCc4ccccc43)CC2)cc1 (nonaromatic ring conformer: 75.46278576007778 kcal/mol)

>  <smiles>  (85) 
NS(=O)(=O)c1ccc(N2CCN(CC(=O)NC3CCCc4ccccc43)CC2)cc1

>  <score_type>  (85) 
oracle

>  <origin>  (85) 
adg

>  <m_score__min__energy>  (85) 
-10.33

>  <m_primary>  (85) 
energy

$$$$
85:0
     RDKit          3D

 37 39  0  0  0  0  0  0  0  0999 V2000
   59.2360   30.3970   47.3540 C   0  0  0  0  0  0  0  0  0  0  0  0
   58.7840   31.1730   46.3540 C   0  0  0  0  0  0  0  0  0  0  0  0
   58.3900   30.7270   45.0850 C   0  0  0  0  0  0  0  0  0  0  0  0
   58.4190   29.4610   44.6190 C   0  0  0  0  0  0  0  0  0  0  0  0
   57.6430   28.3420   45.1920 C   0  0  0  0  0  0  0  0  0  0  0  0
   58.2580   26.8370   45.6490 S   0  0  0  0  0  0  0  0  0  0  0  0
   56.7360   26.2090   45.9690 C   0  0  0  0  0  0  0  0  0  0  0  0
   56.5220   25.0410   46.3860 O   0  0  0  0  0  0  0  0  0  0  0  0
   55.7490   27.0930   45.7200 N   0  0  0  0  0  0  0  0  0  0  0  0
   56.2480   28.2780   45.2770 C   0  0  0  0  0  0  0  0  0  0  0  0
   55.4010   29.3340   44.9480 O   0  0  0  0  0  0  0  0  0  0  0  0
   58.0160   31.8570   44.3750 C   0  0  0  0  0  0  0  0  0  0  0  0
   58.1780   32.9320   45.2240 C   0  0  0  0  0  0  0  0  0  0  0  0
   57.9270   34.3580   44.8360 C   0  0  0  0  0  0  0  0  0  0  0  0
   58.6420   32.5250   46.4290 N   0  0  0  0  0  0  0  0  0  0  0  0
   58.9560   33.4190   47.5570 C   0  0  0  0  0  0  0  0  0  0  0  0
   60.4530   33.5530   47.7370 C   0  0  0  0  0  0  0  0  0  0  0  0
   61.2680   33.6500   46.5940 C   0  0  0  0  0  0  0  0  0  0  0  0
   62.6530   33.7740   46.7140 C   0  0  0  0  0  0  0  0  0  0  0  0
   63.2470   33.7930   47.9750 C   0  0  0  0  0  0  0  0  0  0  0  0
   62.4580   33.6810   49.1200 C   0  0  0  0  0  0  0  0  0  0  0  0
   61.0660   33.5560   49.0150 C   0  0  0  0  0  0  0  0  0  0  0  0
   60.0780   33.3840   50.6530 Br  0  0  0  0  0  0  0  0  0  0  0  0
   59.5202   30.8492   48.3156 H   0  0  0  0  0  0  0  0  0  0  0  0
   59.3217   29.3097   47.2108 H   0  0  0  0  0  0  0  0  0  0  0  0
   59.0641   29.2477   43.7539 H   0  0  0  0  0  0  0  0  0  0  0  0
   55.1890   30.0750   45.6030 H   0  0  0  0  0  0  0  0  0  0  0  0
   57.6589   31.8902   43.3351 H   0  0  0  0  0  0  0  0  0  0  0  0
   57.8191   34.9712   45.7428 H   0  0  0  0  0  0  0  0  0  0  0  0
   58.7734   34.7303   44.2402 H   0  0  0  0  0  0  0  0  0  0  0  0
   57.0043   34.4189   44.2402 H   0  0  0  0  0  0  0  0  0  0  0  0
   58.5262   34.4123   47.3602 H   0  0  0  0  0  0  0  0  0  0  0  0
   58.5277   32.9912   48.4754 H   0  0  0  0  0  0  0  0  0  0  0  0
   60.8084   33.6279   45.5948 H   0  0  0  0  0  0  0  0  0  0  0  0
   63.2770   33.8569   45.8119 H   0  0  0  0  0  0  0  0  0  0  0  0
   64.3382   33.8963   48.0672 H   0  0  0  0  0  0  0  0  0  0  0  0
   62.9319   33.6909   50.1126 H   0  0  0  0  0  0  0  0  0  0  0  0
  1  2  2  0
  2  3  1  0
  3  4  2  3
  4  5  1  0
  5  6  1  0
  6  7  1  0
  7  8  2  0
  7  9  1  0
  9 10  1  0
 10 11  1  0
  3 12  1  0
 12 13  2  0
 13 14  1  0
 13 15  1  0
 15 16  1  0
 16 17  1  0
 17 18  2  0
 18 19  1  0
 19 20  2  0
 20 21  1  0
 21 22  2  0
 22 23  1  0
 15  2  1  0
 22 17  1  0
 10  5  2  0
  1 24  1  0
  1 25  1  0
  4 26  1  0
 11 27  1  0
 12 28  1  0
 14 29  1  0
 14 30  1  0
 14 31  1  0
 16 32  1  0
 16 33  1  0
 18 34  1  0
 19 35  1  0
 20 36  1  0
 21 37  1  0
M  CHG  1   9  -1
M  END
>  <UniqueID>  (86) 
76

>  <SMILES>  (86) 
C=c1c(=Cc2sc(=O)[n-]c2O)cc(C)n1Cc1ccccc1Br

>  <Energy>  (86) 
106.6939671783831

>  <Genealogy>  (86) 
C=c1c(=Cc2sc(=O)[n-]c2O)cc(C)n1Cc1ccccc1Br (protonated)
C=c1c(=Cc2sc(=O)[n-]c2O)cc(C)n1Cc1ccccc1Br (3D coordinates assigned)
C=c1c(=Cc2sc(=O)[n-]c2O)cc(C)n1Cc1ccccc1Br (optimized conformer: 106.6939671783831 kcal/mol)

>  <smiles>  (86) 
C=c1c(=Cc2sc(=O)[nH]c2O)cc(C)n1Cc1ccccc1Br

>  <score_type>  (86) 
oracle

>  <origin>  (86) 
adg

>  <m_score__min__energy>  (86) 
-11.890000000000001

>  <m_primary>  (86) 
energy

$$$$
86:0
     RDKit          3D

 55 58  0  0  0  0  0  0  0  0999 V2000
   53.0860   28.4280   54.1420 C   0  0  0  0  0  0  0  0  0  0  0  0
   54.0200   29.1260   53.4740 C   0  0  0  0  0  0  0  0  0  0  0  0
   53.8130   30.3330   52.7970 C   0  0  0  0  0  0  0  0  0  0  0  0
   52.6440   30.9790   52.6140 C   0  0  0  0  0  0  0  0  0  0  0  0
   52.0250   31.2060   51.2960 C   0  0  0  0  0  0  0  0  0  0  0  0
   51.9910   30.2740   50.3270 N   0  0  0  0  0  0  0  0  0  0  0  0
   51.2700   30.8640   49.3490 C   0  0  0  0  0  0  0  0  0  0  0  0
   51.0280   30.2980   48.2510 O   0  0  0  0  0  0  0  0  0  0  0  0
   50.8200   32.1010   49.6440 N   0  0  0  0  0  0  0  0  0  0  0  0
   51.2950   32.3000   50.8840 C   0  0  0  0  0  0  0  0  0  0  0  0
   51.0250   33.4350   51.6380 O   0  0  0  0  0  0  0  0  0  0  0  0
   55.0490   30.7180   52.3030 C   0  0  0  0  0  0  0  0  0  0  0  0
   55.9500   29.7470   52.6850 C   0  0  0  0  0  0  0  0  0  0  0  0
   57.3870   29.8030   52.3570 C   0  0  0  0  0  0  0  0  0  0  0  0
   58.2210   29.6410   53.2900 O   0  0  0  0  0  0  0  0  0  0  0  0
   57.8330   30.2190   51.0430 N   0  0  0  0  0  0  0  0  0  0  0  0
   58.1680   31.6580   51.0720 C   0  0  0  0  0  0  0  0  0  0  0  0
   58.4030   32.1740   49.6430 C   0  0  0  0  0  0  0  0  0  0  0  0
   59.0580   31.1460   48.8220 N   0  0  0  0  0  0  0  0  0  0  0  0
   58.7930   31.0620   47.4080 C   0  0  0  0  0  0  0  0  0  0  0  0
   58.6690   29.9300   46.8650 O   0  0  0  0  0  0  0  0  0  0  0  0
   58.6410   32.2770   46.5760 C   0  0  0  0  0  0  0  0  0  0  0  0
   57.6260   32.3610   45.6070 C   0  0  0  0  0  0  0  0  0  0  0  0
   57.4840   33.5160   44.8310 C   0  0  0  0  0  0  0  0  0  0  0  0
   58.3460   34.5980   45.0230 C   0  0  0  0  0  0  0  0  0  0  0  0
   59.3470   34.5310   45.9960 C   0  0  0  0  0  0  0  0  0  0  0  0
   59.4920   33.3780   46.7740 C   0  0  0  0  0  0  0  0  0  0  0  0
   59.8320   30.0990   49.4960 C   0  0  0  0  0  0  0  0  0  0  0  0
   58.9810   29.3940   50.5750 C   0  0  0  0  0  0  0  0  0  0  0  0
   55.3310   28.7710   53.3940 N   0  0  0  0  0  0  0  0  0  0  0  0
   55.9910   27.6600   54.0970 C   0  0  0  0  0  0  0  0  0  0  0  0
   56.4150   28.0920   55.4960 C   0  0  0  0  0  0  0  0  0  0  0  0
   53.3561   27.4861   54.6418 H   0  0  0  0  0  0  0  0  0  0  0  0
   52.0514   28.7986   54.1890 H   0  0  0  0  0  0  0  0  0  0  0  0
   52.1200   31.3600   53.5030 H   0  0  0  0  0  0  0  0  0  0  0  0
   55.2689   31.6237   51.7187 H   0  0  0  0  0  0  0  0  0  0  0  0
   57.0410   30.0910   50.3680 H   0  0  0  0  0  0  0  0  0  0  0  0
   57.3371   32.2160   51.5284 H   0  0  0  0  0  0  0  0  0  0  0  0
   59.0847   31.8027   51.6626 H   0  0  0  0  0  0  0  0  0  0  0  0
   57.4356   32.4361   49.1898 H   0  0  0  0  0  0  0  0  0  0  0  0
   59.0546   33.0591   49.6887 H   0  0  0  0  0  0  0  0  0  0  0  0
   56.9400   31.5141   45.4583 H   0  0  0  0  0  0  0  0  0  0  0  0
   56.6928   33.5722   44.0689 H   0  0  0  0  0  0  0  0  0  0  0  0
   58.2370   35.5035   44.4080 H   0  0  0  0  0  0  0  0  0  0  0  0
   60.0216   35.3861   46.1500 H   0  0  0  0  0  0  0  0  0  0  0  0
   60.2757   33.3325   47.5445 H   0  0  0  0  0  0  0  0  0  0  0  0
   60.1580   29.3568   48.7525 H   0  0  0  0  0  0  0  0  0  0  0  0
   60.7027   30.5631   49.9823 H   0  0  0  0  0  0  0  0  0  0  0  0
   58.5898   28.4557   50.1549 H   0  0  0  0  0  0  0  0  0  0  0  0
   59.6329   29.2157   51.4429 H   0  0  0  0  0  0  0  0  0  0  0  0
   55.2917   26.8145   54.1753 H   0  0  0  0  0  0  0  0  0  0  0  0
   56.8850   27.3606   53.5303 H   0  0  0  0  0  0  0  0  0  0  0  0
   55.8503   27.5166   56.2443 H   0  0  0  0  0  0  0  0  0  0  0  0
   57.4913   27.9064   55.6266 H   0  0  0  0  0  0  0  0  0  0  0  0
   56.2094   29.1647   55.6266 H   0  0  0  0  0  0  0  0  0  0  0  0
  1  2  2  0
  2  3  1  0
  3  4  2  3
  4  5  1  0
  5  6  1  0
  6  7  1  0
  7  8  2  0
  7  9  1  0
  9 10  1  0
 10 11  1  0
  3 12  1  0
 12 13  2  0
 13 14  1  0
 14 15  2  0
 14 16  1  0
 16 17  1  0
 17 18  1  0
 18 19  1  0
 19 20  1  0
 20 21  2  0
 20 22  1  0
 22 23  2  0
 23 24  1  0
 24 25  2  0
 25 26  1  0
 26 27  2  0
 19 28  1  0
 28 29  1  0
 13 30  1  0
 30 31  1  0
 31 32  1  0
 30  2  1  0
 10  5  2  0
 29 16  1  0
 27 22  1  0
  1 33  1  0
  1 34  1  0
  4 35  1  0
 12 36  1  0
 16 37  1  0
 17 38  1  0
 17 39  1  0
 18 40  1  0
 18 41  1  0
 23 42  1  0
 24 43  1  0
 25 44  1  0
 26 45  1  0
 27 46  1  0
 28 47  1  0
 28 48  1  0
 29 49  1  0
 29 50  1  0
 31 51  1  0
 31 52  1  0
 32 53  1  0
 32 54  1  0
 32 55  1  0
M  CHG  4   6  -1   9  -1  11  -1  16   1
M  END
>  <UniqueID>  (87) 
77

>  <SMILES>  (87) 
C=c1c(=Cc2[n-]c(=O)[n-]c2[O-])cc(C(=O)[NH+]2CCN(C(=O)c3ccccc3)CC2)n1CC

>  <Energy>  (87) 
140.6425014090115

>  <Genealogy>  (87) 
C=c1c(=Cc2[n-]c(=O)[n-]c2[O-])cc(C(=O)[NH+]2CCN(C(=O)c3ccccc3)CC2)n1CC (protonated)
C=c1c(=Cc2[n-]c(=O)[n-]c2[O-])cc(C(=O)[NH+]2CCN(C(=O)c3ccccc3)CC2)n1CC (3D coordinates assigned)
C=c1c(=Cc2[n-]c(=O)[n-]c2[O-])cc(C(=O)[NH+]2CCN(C(=O)c3ccccc3)CC2)n1CC (nonaromatic ring conformer: 140.6425014090115 kcal/mol)

>  <smiles>  (87) 
C=c1c(=Cc2[nH]c(=O)[nH]c2O)cc(C(=O)N2CCN(C(=O)c3ccccc3)CC2)n1CC

>  <score_type>  (87) 
oracle

>  <origin>  (87) 
adg

>  <m_score__min__energy>  (87) 
-17.239999999999998

>  <m_primary>  (87) 
energy

$$$$
87:0
     RDKit          3D

 49 52  0  0  0  0  0  0  0  0999 V2000
   59.7920   29.1580   47.7670 O   0  0  0  0  0  0  0  0  0  0  0  0
   58.9170   28.8000   46.9320 C   0  0  0  0  0  0  0  0  0  0  0  0
   58.9010   27.3720   46.4580 C   0  0  0  0  0  0  0  0  0  0  0  0
   57.7000   26.6290   47.0520 C   0  0  0  0  0  0  0  0  0  0  0  0
   57.2580   25.5580   46.1390 N   0  0  0  0  0  0  0  0  0  0  0  0
   55.9630   25.5440   45.6730 C   0  0  0  0  0  0  0  0  0  0  0  0
   55.1420   26.4400   46.0160 O   0  0  0  0  0  0  0  0  0  0  0  0
   55.5430   24.5590   44.8390 N   0  0  0  0  0  0  0  0  0  0  0  0
   56.3720   23.5610   44.4480 C   0  0  0  0  0  0  0  0  0  0  0  0
   55.9090   22.5680   43.5760 C   0  0  0  0  0  0  0  0  0  0  0  0
   56.7650   21.5360   43.1730 C   0  0  0  0  0  0  0  0  0  0  0  0
   58.0820   21.4890   43.6440 C   0  0  0  0  0  0  0  0  0  0  0  0
   58.5510   22.4760   44.5170 C   0  0  0  0  0  0  0  0  0  0  0  0
   57.6980   23.5220   44.9230 C   0  0  0  0  0  0  0  0  0  0  0  0
   58.1230   24.5450   45.7900 C   0  0  0  0  0  0  0  0  0  0  0  0
   59.3060   24.5280   46.2460 O   0  0  0  0  0  0  0  0  0  0  0  0
   57.8780   29.7240   46.5810 N   0  0  0  0  0  0  0  0  0  0  0  0
   57.5470   30.1570   45.2540 C   0  0  0  0  0  0  0  0  0  0  0  0
   56.9090   29.2900   44.3520 C   0  0  0  0  0  0  0  0  0  0  0  0
   56.6290   29.7140   43.0510 C   0  0  0  0  0  0  0  0  0  0  0  0
   56.9930   30.9970   42.6370 C   0  0  0  0  0  0  0  0  0  0  0  0
   57.6440   31.8590   43.5220 C   0  0  0  0  0  0  0  0  0  0  0  0
   57.9340   31.4410   44.8260 C   0  0  0  0  0  0  0  0  0  0  0  0
   58.5890   32.3450   45.7240 N   0  0  0  0  0  0  0  0  0  0  0  0
   57.8410   33.4760   46.2740 C   0  0  0  0  0  0  0  0  0  0  0  0
   58.8110   34.6060   46.6270 C   0  0  0  0  0  0  0  0  0  0  0  0
   59.8630   34.1290   47.4470 O   0  0  0  0  0  0  0  0  0  0  0  0
   60.6500   33.1970   46.7260 C   0  0  0  0  0  0  0  0  0  0  0  0
   59.8340   31.9460   46.3800 C   0  0  0  0  0  0  0  0  0  0  0  0
   58.8320   27.3546   45.3603 H   0  0  0  0  0  0  0  0  0  0  0  0
   59.8267   26.8757   46.7848 H   0  0  0  0  0  0  0  0  0  0  0  0
   57.9879   26.1871   48.0173 H   0  0  0  0  0  0  0  0  0  0  0  0
   56.8738   27.3410   47.1950 H   0  0  0  0  0  0  0  0  0  0  0  0
   54.8729   22.5988   43.2077 H   0  0  0  0  0  0  0  0  0  0  0  0
   56.4012   20.7596   42.4839 H   0  0  0  0  0  0  0  0  0  0  0  0
   58.7496   20.6742   43.3270 H   0  0  0  0  0  0  0  0  0  0  0  0
   59.5862   22.4359   44.8869 H   0  0  0  0  0  0  0  0  0  0  0  0
   56.6293   28.2750   44.6707 H   0  0  0  0  0  0  0  0  0  0  0  0
   56.1203   29.0354   42.3505 H   0  0  0  0  0  0  0  0  0  0  0  0
   56.7668   31.3289   41.6130 H   0  0  0  0  0  0  0  0  0  0  0  0
   57.9297   32.8692   43.1935 H   0  0  0  0  0  0  0  0  0  0  0  0
   57.1167   33.8343   45.5277 H   0  0  0  0  0  0  0  0  0  0  0  0
   57.3058   33.1558   47.1801 H   0  0  0  0  0  0  0  0  0  0  0  0
   59.2354   35.0194   45.7002 H   0  0  0  0  0  0  0  0  0  0  0  0
   58.2607   35.3837   47.1768 H   0  0  0  0  0  0  0  0  0  0  0  0
   61.0022   33.6663   45.7956 H   0  0  0  0  0  0  0  0  0  0  0  0
   61.5038   32.8984   47.3520 H   0  0  0  0  0  0  0  0  0  0  0  0
   60.4162   31.3036   45.7030 H   0  0  0  0  0  0  0  0  0  0  0  0
   59.6028   31.3913   47.3013 H   0  0  0  0  0  0  0  0  0  0  0  0
  1  2  2  0
  2  3  1  0
  3  4  1  0
  4  5  1  0
  5  6  1  0
  6  7  2  0
  6  8  1  0
  8  9  1  0
  9 10  2  0
 10 11  1  0
 11 12  2  0
 12 13  1  0
 13 14  2  0
 14 15  1  0
 15 16  2  0
  2 17  1  0
 17 18  1  0
 18 19  2  0
 19 20  1  0
 20 21  2  0
 21 22  1  0
 22 23  2  0
 23 24  1  0
 24 25  1  0
 25 26  1  0
 26 27  1  0
 27 28  1  0
 28 29  1  0
 15  5  1  0
 23 18  1  0
 29 24  1  0
 14  9  1  0
  3 30  1  0
  3 31  1  0
  4 32  1  0
  4 33  1  0
 10 34  1  0
 11 35  1  0
 12 36  1  0
 13 37  1  0
 19 38  1  0
 20 39  1  0
 21 40  1  0
 22 41  1  0
 25 42  1  0
 25 43  1  0
 26 44  1  0
 26 45  1  0
 28 46  1  0
 28 47  1  0
 29 48  1  0
 29 49  1  0
M  CHG  2   8  -1  17  -1
M  END
>  <UniqueID>  (88) 
78

>  <SMILES>  (88) 
O=C(CCn1c(=O)[n-]c2ccccc2c1=O)[N-]c1ccccc1N1CCOCC1

>  <Energy>  (88) 
69.16723628871611

>  <Genealogy>  (88) 
O=C(CCn1c(=O)[n-]c2ccccc2c1=O)[N-]c1ccccc1N1CCOCC1 (protonated)
O=C(CCn1c(=O)[n-]c2ccccc2c1=O)[N-]c1ccccc1N1CCOCC1 (3D coordinates assigned)
O=C(CCn1c(=O)[n-]c2ccccc2c1=O)[N-]c1ccccc1N1CCOCC1 (nonaromatic ring conformer: 69.16723628871611 kcal/mol)

>  <smiles>  (88) 
O=C(CCn1c(=O)[nH]c2ccccc2c1=O)Nc1ccccc1N1CCOCC1

>  <score_type>  (88) 
oracle

>  <origin>  (88) 
adg

>  <m_score__min__energy>  (88) 
-12.43

>  <m_primary>  (88) 
energy

$$$$
