0:0
     RDKit          3D

 47 49  0  0  0  0  0  0  0  0999 V2000
   59.5280   30.3930   48.4090 C   0  0  0  0  0  0  0  0  0  0  0  0
   60.1290   29.5300   47.3790 N   0  0  0  0  0  0  0  0  0  0  0  0
   59.7400   28.1110   47.5670 C   0  0  0  0  0  0  0  0  0  0  0  0
   58.6210   27.6820   46.6060 C   0  0  0  0  0  0  0  0  0  0  0  0
   59.0330   27.8280   45.1850 N   0  0  0  0  0  0  0  0  0  0  0  0
   57.8550   27.9200   44.2940 C   0  0  0  0  0  0  0  0  0  0  0  0
   56.6310   28.3860   45.0440 C   0  0  0  0  0  0  0  0  0  0  0  0
   55.9000   27.5350   45.6160 O   0  0  0  0  0  0  0  0  0  0  0  0
   56.2670   29.7740   45.1370 N   0  0  0  0  0  0  0  0  0  0  0  0
   56.8610   30.7880   44.5780 C   0  0  0  0  0  0  0  0  0  0  0  0
   57.2840   31.8170   45.3590 N   0  0  0  0  0  0  0  0  0  0  0  0
   57.8930   32.9090   44.8250 C   0  0  0  0  0  0  0  0  0  0  0  0
   58.3140   34.0340   45.7220 C   0  0  0  0  0  0  0  0  0  0  0  0
   58.4010   33.4790   47.4600 S   0  0  0  0  0  0  0  0  0  0  0  0
   60.1880   33.6170   47.5840 C   0  0  0  0  0  0  0  0  0  0  0  0
   60.9700   33.6780   46.4240 C   0  0  0  0  0  0  0  0  0  0  0  0
   62.3600   33.7960   46.5220 C   0  0  0  0  0  0  0  0  0  0  0  0
   62.9700   33.8480   47.7780 C   0  0  0  0  0  0  0  0  0  0  0  0
   62.1930   33.7780   48.9380 C   0  0  0  0  0  0  0  0  0  0  0  0
   60.8030   33.6580   48.8420 C   0  0  0  0  0  0  0  0  0  0  0  0
   58.0790   32.9860   43.4390 C   0  0  0  0  0  0  0  0  0  0  0  0
   57.6270   31.9300   42.6480 C   0  0  0  0  0  0  0  0  0  0  0  0
   57.7680   31.9690   41.3990 O   0  0  0  0  0  0  0  0  0  0  0  0
   57.0280   30.8590   43.2280 N   0  0  0  0  0  0  0  0  0  0  0  0
   59.9710   28.9580   44.9620 C   0  0  0  0  0  0  0  0  0  0  0  0
   59.8260   30.0530   46.0280 C   0  0  0  0  0  0  0  0  0  0  0  0
   59.7930   30.0125   49.4065 H   0  0  0  0  0  0  0  0  0  0  0  0
   59.9080   31.4190   48.2951 H   0  0  0  0  0  0  0  0  0  0  0  0
   58.4339   30.3924   48.2951 H   0  0  0  0  0  0  0  0  0  0  0  0
   60.6208   27.4762   47.3905 H   0  0  0  0  0  0  0  0  0  0  0  0
   59.3635   27.9981   48.5944 H   0  0  0  0  0  0  0  0  0  0  0  0
   58.3699   26.6284   46.7983 H   0  0  0  0  0  0  0  0  0  0  0  0
   57.7506   28.3318   46.7800 H   0  0  0  0  0  0  0  0  0  0  0  0
   58.0726   28.6338   43.4859 H   0  0  0  0  0  0  0  0  0  0  0  0
   57.6506   26.9189   43.8867 H   0  0  0  0  0  0  0  0  0  0  0  0
   59.3049   34.3941   45.4083 H   0  0  0  0  0  0  0  0  0  0  0  0
   57.5717   34.8422   45.6464 H   0  0  0  0  0  0  0  0  0  0  0  0
   60.4906   33.6331   45.4350 H   0  0  0  0  0  0  0  0  0  0  0  0
   62.9732   33.8479   45.6102 H   0  0  0  0  0  0  0  0  0  0  0  0
   64.0631   33.9441   47.8541 H   0  0  0  0  0  0  0  0  0  0  0  0
   62.6748   33.8173   49.9261 H   0  0  0  0  0  0  0  0  0  0  0  0
   60.1923   33.5958   49.7548 H   0  0  0  0  0  0  0  0  0  0  0  0
   58.5702   33.8592   42.9848 H   0  0  0  0  0  0  0  0  0  0  0  0
   61.0012   28.5732   44.9877 H   0  0  0  0  0  0  0  0  0  0  0  0
   59.7340   29.4050   43.9853 H   0  0  0  0  0  0  0  0  0  0  0  0
   60.5217   30.8730   45.7966 H   0  0  0  0  0  0  0  0  0  0  0  0
   58.7861   30.4115   46.0190 H   0  0  0  0  0  0  0  0  0  0  0  0
  1  2  1  0
  2  3  1  0
  3  4  1  0
  4  5  1  0
  5  6  1  0
  6  7  1  0
  7  8  2  0
  7  9  1  0
  9 10  2  3
 10 11  1  0
 11 12  1  0
 12 13  1  0
 13 14  1  0
 14 15  1  0
 15 16  2  0
 16 17  1  0
 17 18  2  0
 18 19  1  0
 19 20  2  0
 12 21  2  0
 21 22  1  0
 22 23  2  0
 22 24  1  0
  5 25  1  0
 25 26  1  0
 26  2  1  0
 24 10  1  0
 20 15  1  0
  1 27  1  0
  1 28  1  0
  1 29  1  0
  3 30  1  0
  3 31  1  0
  4 32  1  0
  4 33  1  0
  6 34  1  0
  6 35  1  0
 13 36  1  0
 13 37  1  0
 16 38  1  0
 17 39  1  0
 18 40  1  0
 19 41  1  0
 20 42  1  0
 21 43  1  0
 25 44  1  0
 25 45  1  0
 26 46  1  0
 26 47  1  0
M  CHG  2  11  -1  24  -1
M  END
>  <UniqueID>  (1) 
1

>  <SMILES>  (1) 
CN1CCN(CC(=O)N=c2[n-]c(CSc3ccccc3)cc(=O)[n-]2)CC1

>  <Energy>  (1) 
61.15042990438852

>  <Genealogy>  (1) 
CN1CCN(CC(=O)N=c2[n-]c(CSc3ccccc3)cc(=O)[n-]2)CC1 (protonated)
CN1CCN(CC(=O)N=c2[n-]c(CSc3ccccc3)cc(=O)[n-]2)CC1 (3D coordinates assigned)
CN1CCN(CC(=O)N=c2[n-]c(CSc3ccccc3)cc(=O)[n-]2)CC1 (nonaromatic ring conformer: 61.15042990438852 kcal/mol)

>  <smiles>  (1) 
CN1CCN(CC(=O)N=c2[nH]c(CSc3ccccc3)cc(=O)[nH]2)CC1

>  <score_type>  (1) 
oracle

>  <origin>  (1) 
adg

>  <m_score__min__energy>  (1) 
-11.859999999999999

>  <m_primary>  (1) 
energy

$$$$
1:0
     RDKit          3D

 45 48  0  0  0  0  0  0  0  0999 V2000
   59.5300   28.5750   46.8750 C   0  0  0  0  0  0  0  0  0  0  0  0
   59.4120   30.0180   46.4950 C   0  0  0  0  0  0  0  0  0  0  0  0
   60.2800   31.0190   46.9170 C   0  0  0  0  0  0  0  0  0  0  0  0
   59.7850   32.1870   46.3730 C   0  0  0  0  0  0  0  0  0  0  0  0
   60.2240   33.5090   46.4990 C   0  0  0  0  0  0  0  0  0  0  0  0
   61.4170   33.8430   47.2210 N   0  0  0  0  0  0  0  0  0  0  0  0
   61.3350   34.1790   48.6450 C   0  0  0  0  0  0  0  0  0  0  0  0
   62.7340   34.2080   49.2710 C   0  0  0  0  0  0  0  0  0  0  0  0
   63.5180   33.0550   48.8140 N   0  0  0  0  0  0  0  0  0  0  0  0
   63.7710   33.0720   47.3580 C   0  0  0  0  0  0  0  0  0  0  0  0
   62.7130   33.8430   46.5390 C   0  0  0  0  0  0  0  0  0  0  0  0
   59.4490   34.5180   45.8930 C   0  0  0  0  0  0  0  0  0  0  0  0
   58.2750   34.1900   45.1830 C   0  0  0  0  0  0  0  0  0  0  0  0
   57.8600   32.8520   45.0700 C   0  0  0  0  0  0  0  0  0  0  0  0
   58.6490   31.8640   45.6700 C   0  0  0  0  0  0  0  0  0  0  0  0
   58.4180   30.5350   45.7270 N   0  0  0  0  0  0  0  0  0  0  0  0
   57.3110   29.8150   45.1570 C   0  0  0  0  0  0  0  0  0  0  0  0
   56.2540   30.4380   44.8700 O   0  0  0  0  0  0  0  0  0  0  0  0
   57.3860   28.3530   44.9240 C   0  0  0  0  0  0  0  0  0  0  0  0
   58.0370   27.8480   43.7830 C   0  0  0  0  0  0  0  0  0  0  0  0
   58.1060   26.4700   43.5590 C   0  0  0  0  0  0  0  0  0  0  0  0
   57.5210   25.5820   44.4660 C   0  0  0  0  0  0  0  0  0  0  0  0
   57.6100   23.8530   44.1830 Cl  0  0  0  0  0  0  0  0  0  0  0  0
   56.8620   26.0730   45.5970 C   0  0  0  0  0  0  0  0  0  0  0  0
   56.7890   27.4500   45.8240 C   0  0  0  0  0  0  0  0  0  0  0  0
   59.5374   28.4839   47.9712 H   0  0  0  0  0  0  0  0  0  0  0  0
   58.6745   28.0171   46.4665 H   0  0  0  0  0  0  0  0  0  0  0  0
   60.4648   28.1635   46.4665 H   0  0  0  0  0  0  0  0  0  0  0  0
   61.1721   30.9043   47.5502 H   0  0  0  0  0  0  0  0  0  0  0  0
   60.8676   35.1684   48.7572 H   0  0  0  0  0  0  0  0  0  0  0  0
   60.7319   33.4146   49.1568 H   0  0  0  0  0  0  0  0  0  0  0  0
   63.2455   35.1356   48.9745 H   0  0  0  0  0  0  0  0  0  0  0  0
   62.6380   34.1653   50.3660 H   0  0  0  0  0  0  0  0  0  0  0  0
   62.9930   32.1800   49.0560 H   0  0  0  0  0  0  0  0  0  0  0  0
   64.7506   33.5410   47.1839 H   0  0  0  0  0  0  0  0  0  0  0  0
   63.7318   32.0263   47.0189 H   0  0  0  0  0  0  0  0  0  0  0  0
   63.0489   34.8819   46.4054 H   0  0  0  0  0  0  0  0  0  0  0  0
   62.5954   33.3469   45.5643 H   0  0  0  0  0  0  0  0  0  0  0  0
   59.7619   35.5694   45.9742 H   0  0  0  0  0  0  0  0  0  0  0  0
   57.6798   34.9875   44.7142 H   0  0  0  0  0  0  0  0  0  0  0  0
   56.9412   32.5888   44.5255 H   0  0  0  0  0  0  0  0  0  0  0  0
   58.4945   28.5422   43.0628 H   0  0  0  0  0  0  0  0  0  0  0  0
   58.6216   26.0838   42.6674 H   0  0  0  0  0  0  0  0  0  0  0  0
   56.4000   25.3740   46.3097 H   0  0  0  0  0  0  0  0  0  0  0  0
   56.2619   27.8306   46.7113 H   0  0  0  0  0  0  0  0  0  0  0  0
  1  2  1  0
  2  3  2  0
  3  4  1  0
  4  5  2  0
  5  6  1  0
  6  7  1  0
  7  8  1  0
  8  9  1  0
  9 10  1  0
 10 11  1  0
  5 12  1  0
 12 13  2  0
 13 14  1  0
 14 15  2  0
 15 16  1  0
 16 17  1  0
 17 18  2  0
 17 19  1  0
 19 20  2  0
 20 21  1  0
 21 22  2  0
 22 23  1  0
 22 24  1  0
 24 25  2  0
 16  2  1  0
 25 19  1  0
 15  4  1  0
 11  6  1  0
  1 26  1  0
  1 27  1  0
  1 28  1  0
  3 29  1  0
  7 30  1  0
  7 31  1  0
  8 32  1  0
  8 33  1  0
  9 34  1  0
 10 35  1  0
 10 36  1  0
 11 37  1  0
 11 38  1  0
 12 39  1  0
 13 40  1  0
 14 41  1  0
 20 42  1  0
 21 43  1  0
 24 44  1  0
 25 45  1  0
M  END
>  <UniqueID>  (2) 
2

>  <SMILES>  (2) 
Cc1cc2c(N3CCNCC3)cccc2n1C(=O)c1ccc(Cl)cc1

>  <Energy>  (2) 
96.60232341177073

>  <Genealogy>  (2) 
Cc1cc2c(N3CCNCC3)cccc2n1C(=O)c1ccc(Cl)cc1 (3D coordinates assigned)
Cc1cc2c(N3CCNCC3)cccc2n1C(=O)c1ccc(Cl)cc1 (nonaromatic ring conformer: 96.60232341177073 kcal/mol)

>  <smiles>  (2) 
Cc1cc2c(N3CCNCC3)cccc2n1C(=O)c1ccc(Cl)cc1

>  <score_type>  (2) 
oracle

>  <origin>  (2) 
adg

>  <m_score__min__energy>  (2) 
-9

>  <m_primary>  (2) 
energy

$$$$
2:0
     RDKit          3D

 39 41  0  0  0  0  0  0  0  0999 V2000
   59.8870   28.2680   48.6080 C   0  0  0  0  0  0  0  0  0  0  0  0
   59.0990   28.3890   47.3060 C   0  0  0  0  0  0  0  0  0  0  0  0
   59.6670   27.5160   46.2560 N   0  0  0  0  0  0  0  0  0  0  0  0
   59.4330   27.9880   44.8720 C   0  0  0  0  0  0  0  0  0  0  0  0
   58.3530   29.0400   44.7590 C   0  0  0  0  0  0  0  0  0  0  0  0
   58.6560   30.4020   44.9130 C   0  0  0  0  0  0  0  0  0  0  0  0
   57.6390   31.3520   44.7950 C   0  0  0  0  0  0  0  0  0  0  0  0
   56.3680   30.9610   44.5110 N   0  0  0  0  0  0  0  0  0  0  0  0
   56.0490   29.6520   44.3330 C   0  0  0  0  0  0  0  0  0  0  0  0
   57.0360   28.6690   44.4480 C   0  0  0  0  0  0  0  0  0  0  0  0
   59.5240   26.0520   46.4540 C   0  0  0  0  0  0  0  0  0  0  0  0
   58.2190   25.4820   45.9630 C   0  0  0  0  0  0  0  0  0  0  0  0
   57.0430   26.1530   46.1940 N   0  0  0  0  0  0  0  0  0  0  0  0
   55.8440   25.6640   45.7630 C   0  0  0  0  0  0  0  0  0  0  0  0
   54.7740   26.2860   45.9960 O   0  0  0  0  0  0  0  0  0  0  0  0
   55.8490   24.4660   45.0680 C   0  0  0  0  0  0  0  0  0  0  0  0
   54.8710   23.6660   44.5090 C   0  0  0  0  0  0  0  0  0  0  0  0
   55.4760   22.5790   43.9650 N   0  0  0  0  0  0  0  0  0  0  0  0
   56.7870   22.6900   44.1550 N   0  0  0  0  0  0  0  0  0  0  0  0
   57.7670   21.6820   43.7750 C   0  0  0  0  0  0  0  0  0  0  0  0
   57.0170   23.8260   44.8310 C   0  0  0  0  0  0  0  0  0  0  0  0
   58.2100   24.3050   45.2600 N   0  0  0  0  0  0  0  0  0  0  0  0
   59.2020   28.3732   49.4623 H   0  0  0  0  0  0  0  0  0  0  0  0
   60.3770   27.2841   48.6499 H   0  0  0  0  0  0  0  0  0  0  0  0
   60.6497   29.0596   48.6499 H   0  0  0  0  0  0  0  0  0  0  0  0
   58.0546   28.0968   47.4898 H   0  0  0  0  0  0  0  0  0  0  0  0
   59.1539   29.4318   46.9604 H   0  0  0  0  0  0  0  0  0  0  0  0
   60.3720   28.4126   44.4872 H   0  0  0  0  0  0  0  0  0  0  0  0
   59.0940   27.1180   44.2905 H   0  0  0  0  0  0  0  0  0  0  0  0
   59.6877   30.7190   45.1252 H   0  0  0  0  0  0  0  0  0  0  0  0
   57.8668   32.4194   44.9322 H   0  0  0  0  0  0  0  0  0  0  0  0
   55.0131   29.3658   44.0982 H   0  0  0  0  0  0  0  0  0  0  0  0
   56.7815   27.6098   44.2955 H   0  0  0  0  0  0  0  0  0  0  0  0
   60.3423   25.5506   45.9164 H   0  0  0  0  0  0  0  0  0  0  0  0
   59.5539   25.8777   47.5397 H   0  0  0  0  0  0  0  0  0  0  0  0
   53.7908   23.8735   44.5053 H   0  0  0  0  0  0  0  0  0  0  0  0
   58.2024   21.2342   44.6805 H   0  0  0  0  0  0  0  0  0  0  0  0
   57.2755   20.8991   43.1787 H   0  0  0  0  0  0  0  0  0  0  0  0
   58.5634   22.1513   43.1787 H   0  0  0  0  0  0  0  0  0  0  0  0
  1  2  1  0
  2  3  1  0
  3  4  1  0
  4  5  1  0
  5  6  2  0
  6  7  1  0
  7  8  2  0
  8  9  1  0
  9 10  2  0
  3 11  1  0
 11 12  1  0
 12 13  2  0
 13 14  1  0
 14 15  2  0
 14 16  1  0
 16 17  1  0
 17 18  2  0
 18 19  1  0
 19 20  1  0
 19 21  1  0
 21 22  1  0
 10  5  1  0
 22 12  1  0
 21 16  2  0
  1 23  1  0
  1 24  1  0
  1 25  1  0
  2 26  1  0
  2 27  1  0
  4 28  1  0
  4 29  1  0
  6 30  1  0
  7 31  1  0
  9 32  1  0
 10 33  1  0
 11 34  1  0
 11 35  1  0
 17 36  1  0
 20 37  1  0
 20 38  1  0
 20 39  1  0
M  CHG  1  22  -1
M  END
>  <UniqueID>  (3) 
3

>  <SMILES>  (3) 
CCN(Cc1ccncc1)Cc1nc(=O)c2cnn(C)c2[n-]1

>  <Energy>  (3) 
88.64848378517597

>  <Genealogy>  (3) 
CCN(Cc1ccncc1)Cc1nc(=O)c2cnn(C)c2[n-]1 (protonated)
CCN(Cc1ccncc1)Cc1nc(=O)c2cnn(C)c2[n-]1 (3D coordinates assigned)
CCN(Cc1ccncc1)Cc1nc(=O)c2cnn(C)c2[n-]1 (optimized conformer: 88.64848378517597 kcal/mol)

>  <smiles>  (3) 
CCN(Cc1ccncc1)Cc1nc(=O)c2cnn(C)c2[nH]1

>  <score_type>  (3) 
oracle

>  <origin>  (3) 
adg

>  <m_score__min__energy>  (3) 
-8.2899999999999991

>  <m_primary>  (3) 
energy

$$$$
3:0
     RDKit          3D

 35 36  0  0  0  0  0  0  0  0999 V2000
   56.3140   23.0870   43.1750 C   0  0  0  0  0  0  0  0  0  0  0  0
   56.8080   24.3730   43.8240 C   0  0  0  0  0  0  0  0  0  0  0  0
   56.6270   24.3240   45.2380 O   0  0  0  0  0  0  0  0  0  0  0  0
   55.5180   24.8690   45.8950 C   0  0  0  0  0  0  0  0  0  0  0  0
   54.5980   24.1200   46.3210 O   0  0  0  0  0  0  0  0  0  0  0  0
   55.4210   26.2790   46.1210 N   0  0  0  0  0  0  0  0  0  0  0  0
   56.3210   27.2810   45.6330 C   0  0  0  0  0  0  0  0  0  0  0  0
   57.6900   27.1770   45.4910 C   0  0  0  0  0  0  0  0  0  0  0  0
   58.1330   28.3320   44.9660 N   0  0  0  0  0  0  0  0  0  0  0  0
   59.5250   28.6360   44.6420 C   0  0  0  0  0  0  0  0  0  0  0  0
   57.0300   29.1040   44.7940 C   0  0  0  0  0  0  0  0  0  0  0  0
   57.0110   30.4710   44.2350 C   0  0  0  0  0  0  0  0  0  0  0  0
   57.3080   30.6360   43.0220 O   0  0  0  0  0  0  0  0  0  0  0  0
   56.6570   31.5930   45.0530 N   0  0  0  0  0  0  0  0  0  0  0  0
   57.4880   32.7100   45.3920 C   0  0  0  0  0  0  0  0  0  0  0  0
   57.7850   33.7620   44.5520 C   0  0  0  0  0  0  0  0  0  0  0  0
   58.5680   34.6370   45.2100 N   0  0  0  0  0  0  0  0  0  0  0  0
   58.7760   34.1550   46.4260 N   0  0  0  0  0  0  0  0  0  0  0  0
   59.5290   34.8540   47.4590 C   0  0  0  0  0  0  0  0  0  0  0  0
   58.1240   32.9880   46.5850 C   0  0  0  0  0  0  0  0  0  0  0  0
   55.8980   28.4810   45.1900 N   0  0  0  0  0  0  0  0  0  0  0  0
   56.0366   22.3648   43.9569 H   0  0  0  0  0  0  0  0  0  0  0  0
   55.4359   23.3057   42.5496 H   0  0  0  0  0  0  0  0  0  0  0  0
   57.1127   22.6616   42.5496 H   0  0  0  0  0  0  0  0  0  0  0  0
   57.8773   24.5029   43.6008 H   0  0  0  0  0  0  0  0  0  0  0  0
   56.2297   25.2178   43.4217 H   0  0  0  0  0  0  0  0  0  0  0  0
   58.3067   26.3064   45.7590 H   0  0  0  0  0  0  0  0  0  0  0  0
   60.0990   28.7613   45.5720 H   0  0  0  0  0  0  0  0  0  0  0  0
   59.9536   27.8103   44.0551 H   0  0  0  0  0  0  0  0  0  0  0  0
   59.5703   29.5652   44.0551 H   0  0  0  0  0  0  0  0  0  0  0  0
   57.4386   33.8689   43.5135 H   0  0  0  0  0  0  0  0  0  0  0  0
   59.1796   34.5296   48.4503 H   0  0  0  0  0  0  0  0  0  0  0  0
   60.5990   34.6218   47.3533 H   0  0  0  0  0  0  0  0  0  0  0  0
   59.3769   35.9383   47.3533 H   0  0  0  0  0  0  0  0  0  0  0  0
   58.1022   32.3712   47.4956 H   0  0  0  0  0  0  0  0  0  0  0  0
  1  2  1  0
  2  3  1  0
  3  4  1  0
  4  5  2  0
  4  6  1  0
  6  7  1  0
  7  8  2  0
  8  9  1  0
  9 10  1  0
  9 11  1  0
 11 12  1  0
 12 13  2  0
 12 14  1  0
 14 15  1  0
 15 16  1  0
 16 17  2  0
 17 18  1  0
 18 19  1  0
 18 20  1  0
 11 21  2  0
 21  7  1  0
 20 15  2  0
  1 22  1  0
  1 23  1  0
  1 24  1  0
  2 25  1  0
  2 26  1  0
  8 27  1  0
 10 28  1  0
 10 29  1  0
 10 30  1  0
 16 31  1  0
 19 32  1  0
 19 33  1  0
 19 34  1  0
 20 35  1  0
M  CHG  2   6  -1  14  -1
M  END
>  <UniqueID>  (4) 
4

>  <SMILES>  (4) 
CCOC(=O)[N-]c1cn(C)c(C(=O)[N-]c2cnn(C)c2)n1

>  <Energy>  (4) 
93.35363339394658

>  <Genealogy>  (4) 
CCOC(=O)[N-]c1cn(C)c(C(=O)[N-]c2cnn(C)c2)n1 (protonated)
CCOC(=O)[N-]c1cn(C)c(C(=O)[N-]c2cnn(C)c2)n1 (3D coordinates assigned)
CCOC(=O)[N-]c1cn(C)c(C(=O)[N-]c2cnn(C)c2)n1 (optimized conformer: 93.35363339394658 kcal/mol)

>  <smiles>  (4) 
CCOC(=O)Nc1cn(C)c(C(=O)Nc2cnn(C)c2)n1

>  <score_type>  (4) 
oracle

>  <origin>  (4) 
adg

>  <m_score__min__energy>  (4) 
-10.06

>  <m_primary>  (4) 
energy

$$$$
4:0
     RDKit          3D

 36 38  0  0  1  0  0  0  0  0999 V2000
   54.8050   26.3410   46.0050 O   0  0  0  0  0  0  0  0  0  0  0  0
   55.8830   25.6630   45.9380 C   0  0  0  0  0  0  0  0  0  0  0  0
   55.7500   24.2710   45.8140 N   0  0  0  0  0  0  0  0  0  0  0  0
   56.1060   23.5960   44.7950 C   0  0  0  0  0  0  0  0  0  0  0  0
   56.5300   22.2760   44.7200 C   0  0  0  0  0  0  0  0  0  0  0  0
   56.8210   21.9580   43.4080 C   0  0  0  0  0  0  0  0  0  0  0  0
   56.5730   23.0800   42.7100 N   0  0  0  0  0  0  0  0  0  0  0  0
   56.1550   24.0380   43.5250 N   0  0  0  0  0  0  0  0  0  0  0  0
   57.1470   26.3680   45.9910 C   0  0  0  0  0  0  0  0  0  0  0  0
   58.2910   25.5760   46.0560 C   0  0  0  0  0  0  0  0  0  0  0  0
   59.5410   26.1540   46.0860 C   0  0  0  0  0  0  0  0  0  0  0  0
   59.6060   27.5200   46.0510 C   0  0  0  0  0  0  0  0  0  0  0  0
   58.4650   28.3320   45.9870 C   0  0  0  0  0  0  0  0  0  0  0  0
   58.7140   29.7250   45.9330 N   0  0  0  0  0  0  0  0  0  0  0  0
   57.8190   30.6820   45.4020 C   0  0  0  0  0  0  0  0  0  0  0  0
   56.7100   30.2930   44.9370 O   0  0  0  0  0  0  0  0  0  0  0  0
   58.2010   32.0970   45.4130 C   0  0  0  0  0  0  0  0  0  0  0  0
   57.3870   33.0600   44.8520 C   0  0  0  0  0  0  0  0  0  0  0  0
   57.7370   34.4080   44.8990 C   0  0  0  0  0  0  0  0  0  0  0  0
   58.9190   34.7490   45.5240 C   0  0  0  0  0  0  0  0  0  0  0  0
   59.7350   33.7740   46.0860 C   0  0  0  0  0  0  0  0  0  0  0  0
   59.3490   32.4830   46.0110 N   0  0  0  0  0  0  0  0  0  0  0  0
   57.2200   27.7560   45.9560 C   0  0  0  0  0  0  0  0  0  0  0  0
   56.6203   21.5891   45.5744 H   0  0  0  0  0  0  0  0  0  0  0  0
   57.1788   20.9938   43.0178 H   0  0  0  0  0  0  0  0  0  0  0  0
   56.7040   23.1550   41.6640 H   0  0  0  0  0  0  0  0  0  0  0  0
   55.8970   25.0010   43.2340 H   0  0  0  0  0  0  0  0  0  0  0  0
   58.1955   24.4805   46.0836 H   0  0  0  0  0  0  0  0  0  0  0  0
   60.4525   25.5403   46.1362 H   0  0  0  0  0  0  0  0  0  0  0  0
   60.5948   28.0014   46.0740 H   0  0  0  0  0  0  0  0  0  0  0  0
   59.6350   30.0780   46.3150 H   0  0  0  0  0  0  0  0  0  0  0  0
   56.4495   32.7595   44.3613 H   0  0  0  0  0  0  0  0  0  0  0  0
   57.0905   35.1771   44.4513 H   0  0  0  0  0  0  0  0  0  0  0  0
   59.2194   35.8058   45.5782 H   0  0  0  0  0  0  0  0  0  0  0  0
   60.6772   34.0494   46.5823 H   0  0  0  0  0  0  0  0  0  0  0  0
   56.3100   28.3719   45.9052 H   0  0  0  0  0  0  0  0  0  0  0  0
  1  2  2  0
  2  3  1  0
  3  4  2  0
  4  5  1  0
  5  6  2  0
  6  7  1  0
  7  8  1  0
  2  9  1  0
  9 10  2  0
 10 11  1  0
 11 12  2  0
 12 13  1  0
 13 14  1  0
 14 15  1  0
 15 16  2  0
 15 17  1  0
 17 18  2  0
 18 19  1  0
 19 20  2  0
 20 21  1  0
 21 22  2  0
 13 23  2  0
  8  4  1  0
 23  9  1  0
 22 17  1  0
  5 24  1  0
  6 25  1  0
  7 26  1  0
  8 27  1  0
 10 28  1  0
 11 29  1  0
 12 30  1  0
 14 31  1  0
 18 32  1  0
 19 33  1  0
 20 34  1  0
 21 35  1  0
 23 36  1  0
M  END
>  <smiles>  (5) 
O=C(N=c1cc[nH][nH]1)c1cccc(NC(=O)c2ccccn2)c1

>  <score_type>  (5) 
oracle

>  <origin>  (5) 
adg

>  <m_score__min__energy>  (5) 
-8.3200000000000003

>  <m_primary>  (5) 
energy

$$$$
5:0
     RDKit          3D

 16 16  0  0  0  0  0  0  0  0999 V2000
   58.3500   27.2100   45.4740 C   0  0  0  0  0  0  0  0  0  0  0  0
   58.0020   27.8330   44.3410 C   0  0  0  0  0  0  0  0  0  0  0  0
   58.1280   27.1010   43.0310 C   0  0  0  0  0  0  0  0  0  0  0  0
   57.5520   29.2500   44.3600 C   0  0  0  0  0  0  0  0  0  0  0  0
   58.3260   30.3800   44.1450 C   0  0  0  0  0  0  0  0  0  0  0  0
   57.4760   31.4610   44.2770 C   0  0  0  0  0  0  0  0  0  0  0  0
   56.2620   31.0440   44.5510 O   0  0  0  0  0  0  0  0  0  0  0  0
   56.2780   29.7350   44.6070 C   0  0  0  0  0  0  0  0  0  0  0  0
   55.1480   28.9690   44.8650 O   0  0  0  0  0  0  0  0  0  0  0  0
   58.2631   27.7326   46.4380 H   0  0  0  0  0  0  0  0  0  0  0  0
   58.7227   26.1756   45.4407 H   0  0  0  0  0  0  0  0  0  0  0  0
   58.3117   26.0337   43.2236 H   0  0  0  0  0  0  0  0  0  0  0  0
   57.1970   27.2150   42.4563 H   0  0  0  0  0  0  0  0  0  0  0  0
   58.9673   27.5197   42.4563 H   0  0  0  0  0  0  0  0  0  0  0  0
   59.4013   30.4098   43.9153 H   0  0  0  0  0  0  0  0  0  0  0  0
   57.7726   32.5147   44.1686 H   0  0  0  0  0  0  0  0  0  0  0  0
  1  2  2  0
  2  3  1  0
  2  4  1  0
  4  5  1  0
  5  6  2  0
  6  7  1  0
  7  8  1  0
  8  9  1  0
  8  4  2  0
  1 10  1  0
  1 11  1  0
  3 12  1  0
  3 13  1  0
  3 14  1  0
  5 15  1  0
  6 16  1  0
M  CHG  1   9  -1
M  END
>  <UniqueID>  (6) 
5

>  <SMILES>  (6) 
C=C(C)c1ccoc1[O-]

>  <Energy>  (6) 
42.124550110556186

>  <Genealogy>  (6) 
C=C(C)c1ccoc1[O-] (protonated)
C=C(C)c1ccoc1[O-] (3D coordinates assigned)
C=C(C)c1ccoc1[O-] (optimized conformer: 42.124550110556186 kcal/mol)

>  <smiles>  (6) 
C=C(C)c1ccoc1O

>  <score_type>  (6) 
oracle

>  <origin>  (6) 
adg

>  <m_score__min__energy>  (6) 
-8.4299999999999997

>  <m_primary>  (6) 
energy

$$$$
6:0
     RDKit          3D

 41 43  0  0  0  0  0  0  0  0999 V2000
   57.7760   25.2540   47.1740 C   0  0  0  0  0  0  0  0  0  0  0  0
   57.9230   26.4950   46.3430 C   0  0  0  0  0  0  0  0  0  0  0  0
   57.7860   26.4330   44.9520 C   0  0  0  0  0  0  0  0  0  0  0  0
   57.9560   27.5800   44.1750 C   0  0  0  0  0  0  0  0  0  0  0  0
   58.2910   28.8110   44.7710 C   0  0  0  0  0  0  0  0  0  0  0  0
   58.4540   29.9980   43.9700 N   0  0  0  0  0  0  0  0  0  0  0  0
   57.2730   31.2670   43.8680 S   0  0  0  0  0  0  0  0  0  0  0  0
   57.0180   31.6000   42.4250 O   0  0  0  0  0  0  0  0  0  0  0  0
   55.9940   30.8300   44.5250 O   0  0  0  0  0  0  0  0  0  0  0  0
   57.8820   32.7000   44.6750 C   0  0  0  0  0  0  0  0  0  0  0  0
   58.8610   33.5510   44.1870 C   0  0  0  0  0  0  0  0  0  0  0  0
   59.1550   34.6040   45.0620 C   0  0  0  0  0  0  0  0  0  0  0  0
   58.4050   34.5820   46.2320 C   0  0  0  0  0  0  0  0  0  0  0  0
   57.3770   33.2520   46.1790 S   0  0  0  0  0  0  0  0  0  0  0  0
   58.4460   28.8660   46.1760 C   0  0  0  0  0  0  0  0  0  0  0  0
   58.8720   30.3970   47.0280 S   0  0  0  0  0  0  0  0  0  0  0  0
   60.6650   30.2760   46.7050 C   0  0  0  0  0  0  0  0  0  0  0  0
   61.3800   31.5240   47.1430 C   0  0  0  0  0  0  0  0  0  0  0  0
   62.7840   31.5710   47.1400 C   0  0  0  0  0  0  0  0  0  0  0  0
   63.4520   32.7310   47.5470 C   0  0  0  0  0  0  0  0  0  0  0  0
   62.7220   33.8480   47.9620 C   0  0  0  0  0  0  0  0  0  0  0  0
   61.3250   33.8050   47.9780 C   0  0  0  0  0  0  0  0  0  0  0  0
   60.6550   32.6480   47.5730 C   0  0  0  0  0  0  0  0  0  0  0  0
   58.2610   27.7120   46.9480 C   0  0  0  0  0  0  0  0  0  0  0  0
   57.8076   25.5211   48.2406 H   0  0  0  0  0  0  0  0  0  0  0  0
   56.8144   24.7713   46.9452 H   0  0  0  0  0  0  0  0  0  0  0  0
   58.5982   24.5600   46.9452 H   0  0  0  0  0  0  0  0  0  0  0  0
   57.5431   25.4754   44.4682 H   0  0  0  0  0  0  0  0  0  0  0  0
   57.8268   27.5216   43.0842 H   0  0  0  0  0  0  0  0  0  0  0  0
   59.3040   30.1110   43.3750 H   0  0  0  0  0  0  0  0  0  0  0  0
   59.3554   33.4136   43.2140 H   0  0  0  0  0  0  0  0  0  0  0  0
   59.9082   35.3755   44.8440 H   0  0  0  0  0  0  0  0  0  0  0  0
   58.4724   35.3108   47.0532 H   0  0  0  0  0  0  0  0  0  0  0  0
   61.0722   29.4162   47.2573 H   0  0  0  0  0  0  0  0  0  0  0  0
   60.8170   30.1481   45.6231 H   0  0  0  0  0  0  0  0  0  0  0  0
   63.3607   30.6920   46.8163 H   0  0  0  0  0  0  0  0  0  0  0  0
   64.5515   32.7637   47.5403 H   0  0  0  0  0  0  0  0  0  0  0  0
   63.2473   34.7619   48.2764 H   0  0  0  0  0  0  0  0  0  0  0  0
   60.7523   34.6835   48.3100 H   0  0  0  0  0  0  0  0  0  0  0  0
   59.5556   32.6169   47.5908 H   0  0  0  0  0  0  0  0  0  0  0  0
   58.3824   27.7621   48.0401 H   0  0  0  0  0  0  0  0  0  0  0  0
  1  2  1  0
  2  3  2  0
  3  4  1  0
  4  5  2  0
  5  6  1  0
  6  7  1  0
  7  8  2  0
  7  9  2  0
  7 10  1  0
 10 11  2  0
 11 12  1  0
 12 13  2  0
 13 14  1  0
  5 15  1  0
 15 16  1  0
 16 17  1  0
 17 18  1  0
 18 19  2  0
 19 20  1  0
 20 21  2  0
 21 22  1  0
 22 23  2  0
 15 24  2  0
 24  2  1  0
 14 10  1  0
 23 18  1  0
  1 25  1  0
  1 26  1  0
  1 27  1  0
  3 28  1  0
  4 29  1  0
  6 30  1  0
 11 31  1  0
 12 32  1  0
 13 33  1  0
 17 34  1  0
 17 35  1  0
 19 36  1  0
 20 37  1  0
 21 38  1  0
 22 39  1  0
 23 40  1  0
 24 41  1  0
M  END
>  <UniqueID>  (7) 
6

>  <SMILES>  (7) 
Cc1ccc(NS(=O)(=O)c2cccs2)c(SCc2ccccc2)c1

>  <Energy>  (7) 
63.83702719377881

>  <Genealogy>  (7) 
Cc1ccc(NS(=O)(=O)c2cccs2)c(SCc2ccccc2)c1 (3D coordinates assigned)
Cc1ccc(NS(=O)(=O)c2cccs2)c(SCc2ccccc2)c1 (optimized conformer: 63.83702719377881 kcal/mol)

>  <smiles>  (7) 
Cc1ccc(NS(=O)(=O)c2cccs2)c(SCc2ccccc2)c1

>  <score_type>  (7) 
oracle

>  <origin>  (7) 
adg

>  <m_score__min__energy>  (7) 
-9.0999999999999996

>  <m_primary>  (7) 
energy

$$$$
7:0
     RDKit          3D

 43 46  0  0  0  0  0  0  0  0999 V2000
   57.3890   24.5980   43.9660 C   0  0  0  0  0  0  0  0  0  0  0  0
   57.6960   25.9730   44.4810 C   0  0  0  0  0  0  0  0  0  0  0  0
   57.4500   26.2950   45.8230 C   0  0  0  0  0  0  0  0  0  0  0  0
   57.7000   27.5860   46.2970 C   0  0  0  0  0  0  0  0  0  0  0  0
   58.1900   28.5840   45.4330 C   0  0  0  0  0  0  0  0  0  0  0  0
   58.4490   29.9560   45.9330 C   0  0  0  0  0  0  0  0  0  0  0  0
   58.7750   30.1600   47.2390 N   0  0  0  0  0  0  0  0  0  0  0  0
   59.0320   31.4030   47.7300 C   0  0  0  0  0  0  0  0  0  0  0  0
   59.3750   31.5750   49.0780 O   0  0  0  0  0  0  0  0  0  0  0  0
   60.6760   31.3100   49.6010 C   0  0  0  0  0  0  0  0  0  0  0  0
   61.7180   32.1260   48.8840 C   0  0  0  0  0  0  0  0  0  0  0  0
   62.0060   33.4380   49.2960 C   0  0  0  0  0  0  0  0  0  0  0  0
   62.9840   34.1860   48.6340 C   0  0  0  0  0  0  0  0  0  0  0  0
   63.6730   33.6350   47.5500 C   0  0  0  0  0  0  0  0  0  0  0  0
   63.3830   32.3350   47.1260 C   0  0  0  0  0  0  0  0  0  0  0  0
   62.4080   31.5830   47.7870 C   0  0  0  0  0  0  0  0  0  0  0  0
   58.9560   32.5100   46.8740 C   0  0  0  0  0  0  0  0  0  0  0  0
   59.2100   33.8200   47.3160 C   0  0  0  0  0  0  0  0  0  0  0  0
   59.1220   34.8900   46.4200 C   0  0  0  0  0  0  0  0  0  0  0  0
   58.7820   34.6620   45.0830 C   0  0  0  0  0  0  0  0  0  0  0  0
   58.5290   33.3610   44.6340 C   0  0  0  0  0  0  0  0  0  0  0  0
   58.6150   32.2850   45.5240 C   0  0  0  0  0  0  0  0  0  0  0  0
   58.3740   31.0210   45.0890 N   0  0  0  0  0  0  0  0  0  0  0  0
   58.4190   28.2570   44.0830 C   0  0  0  0  0  0  0  0  0  0  0  0
   58.1670   26.9650   43.6110 C   0  0  0  0  0  0  0  0  0  0  0  0
   57.2364   23.9144   44.8142 H   0  0  0  0  0  0  0  0  0  0  0  0
   56.4762   24.6314   43.3531 H   0  0  0  0  0  0  0  0  0  0  0  0
   58.2293   24.2399   43.3531 H   0  0  0  0  0  0  0  0  0  0  0  0
   57.0581   25.5276   46.5067 H   0  0  0  0  0  0  0  0  0  0  0  0
   57.5123   27.8244   47.3543 H   0  0  0  0  0  0  0  0  0  0  0  0
   60.6929   31.5640   50.6712 H   0  0  0  0  0  0  0  0  0  0  0  0
   60.9031   30.2435   49.4564 H   0  0  0  0  0  0  0  0  0  0  0  0
   61.4596   33.8785   50.1430 H   0  0  0  0  0  0  0  0  0  0  0  0
   63.2116   35.2095   48.9667 H   0  0  0  0  0  0  0  0  0  0  0  0
   64.4432   34.2241   47.0307 H   0  0  0  0  0  0  0  0  0  0  0  0
   63.9231   31.9031   46.2706 H   0  0  0  0  0  0  0  0  0  0  0  0
   62.1798   30.5620   47.4472 H   0  0  0  0  0  0  0  0  0  0  0  0
   59.4780   34.0035   48.3669 H   0  0  0  0  0  0  0  0  0  0  0  0
   59.3209   35.9143   46.7681 H   0  0  0  0  0  0  0  0  0  0  0  0
   58.7132   35.5073   44.3825 H   0  0  0  0  0  0  0  0  0  0  0  0
   58.2626   33.1844   43.5815 H   0  0  0  0  0  0  0  0  0  0  0  0
   58.7996   29.0247   43.3932 H   0  0  0  0  0  0  0  0  0  0  0  0
   58.3395   26.7263   42.5511 H   0  0  0  0  0  0  0  0  0  0  0  0
  1  2  1  0
  2  3  2  0
  3  4  1  0
  4  5  2  0
  5  6  1  0
  6  7  2  0
  7  8  1  0
  8  9  1  0
  9 10  1  0
 10 11  1  0
 11 12  2  0
 12 13  1  0
 13 14  2  0
 14 15  1  0
 15 16  2  0
  8 17  2  0
 17 18  1  0
 18 19  2  0
 19 20  1  0
 20 21  2  0
 21 22  1  0
 22 23  2  0
  5 24  1  0
 24 25  2  0
 25  2  1  0
 23  6  1  0
 16 11  1  0
 22 17  1  0
  1 26  1  0
  1 27  1  0
  1 28  1  0
  3 29  1  0
  4 30  1  0
 10 31  1  0
 10 32  1  0
 12 33  1  0
 13 34  1  0
 14 35  1  0
 15 36  1  0
 16 37  1  0
 18 38  1  0
 19 39  1  0
 20 40  1  0
 21 41  1  0
 24 42  1  0
 25 43  1  0
M  END
>  <UniqueID>  (8) 
7

>  <SMILES>  (8) 
Cc1ccc(-c2nc(OCc3ccccc3)c3ccccc3n2)cc1

>  <Energy>  (8) 
49.19455349777473

>  <Genealogy>  (8) 
Cc1ccc(-c2nc(OCc3ccccc3)c3ccccc3n2)cc1 (3D coordinates assigned)
Cc1ccc(-c2nc(OCc3ccccc3)c3ccccc3n2)cc1 (optimized conformer: 49.19455349777473 kcal/mol)

>  <smiles>  (8) 
Cc1ccc(-c2nc(OCc3ccccc3)c3ccccc3n2)cc1

>  <score_type>  (8) 
oracle

>  <origin>  (8) 
adg

>  <m_score__min__energy>  (8) 
-8.0199999999999996

>  <m_primary>  (8) 
energy

$$$$
8:0
     RDKit          3D

 32 33  0  0  0  0  0  0  0  0999 V2000
   55.4840   25.5600   45.9410 C   0  0  0  0  0  0  0  0  0  0  0  0
   55.8600   26.9330   45.9240 O   0  0  0  0  0  0  0  0  0  0  0  0
   57.1740   27.3960   45.7460 C   0  0  0  0  0  0  0  0  0  0  0  0
   58.2940   26.6000   46.0610 C   0  0  0  0  0  0  0  0  0  0  0  0
   59.5870   27.0820   45.8400 C   0  0  0  0  0  0  0  0  0  0  0  0
   59.7780   28.3570   45.3060 C   0  0  0  0  0  0  0  0  0  0  0  0
   58.6770   29.1560   44.9930 C   0  0  0  0  0  0  0  0  0  0  0  0
   57.3750   28.6840   45.2130 C   0  0  0  0  0  0  0  0  0  0  0  0
   56.2230   29.5240   44.8450 C   0  0  0  0  0  0  0  0  0  0  0  0
   55.1430   28.9740   44.5050 O   0  0  0  0  0  0  0  0  0  0  0  0
   56.3140   30.9550   44.8290 N   0  0  0  0  0  0  0  0  0  0  0  0
   57.3360   31.7200   44.1180 C   0  0  0  0  0  0  0  0  0  0  0  0
   57.9850   32.7250   45.0350 C   0  0  0  0  0  0  0  0  0  0  0  0
   58.5820   33.8810   44.5140 C   0  0  0  0  0  0  0  0  0  0  0  0
   59.2240   34.7790   45.3680 C   0  0  0  0  0  0  0  0  0  0  0  0
   59.2580   34.5170   46.7390 C   0  0  0  0  0  0  0  0  0  0  0  0
   58.6640   33.3970   47.2350 N   0  0  0  0  0  0  0  0  0  0  0  0
   58.0320   32.5070   46.4220 C   0  0  0  0  0  0  0  0  0  0  0  0
   55.3904   25.2183   46.9824 H   0  0  0  0  0  0  0  0  0  0  0  0
   54.5193   25.4376   45.4269 H   0  0  0  0  0  0  0  0  0  0  0  0
   56.2518   24.9632   45.4269 H   0  0  0  0  0  0  0  0  0  0  0  0
   58.1495   25.5944   46.4829 H   0  0  0  0  0  0  0  0  0  0  0  0
   60.4562   26.4549   46.0876 H   0  0  0  0  0  0  0  0  0  0  0  0
   60.7970   28.7327   45.1316 H   0  0  0  0  0  0  0  0  0  0  0  0
   58.8314   30.1604   44.5719 H   0  0  0  0  0  0  0  0  0  0  0  0
   58.1037   31.0301   43.7375 H   0  0  0  0  0  0  0  0  0  0  0  0
   56.8591   32.2579   43.2854 H   0  0  0  0  0  0  0  0  0  0  0  0
   58.5446   34.0804   43.4329 H   0  0  0  0  0  0  0  0  0  0  0  0
   59.6991   35.6853   44.9645 H   0  0  0  0  0  0  0  0  0  0  0  0
   59.7655   35.2166   47.4194 H   0  0  0  0  0  0  0  0  0  0  0  0
   58.7000   33.2140   48.2630 H   0  0  0  0  0  0  0  0  0  0  0  0
   57.5562   31.6136   46.8526 H   0  0  0  0  0  0  0  0  0  0  0  0
  1  2  1  0
  2  3  1  0
  3  4  2  0
  4  5  1  0
  5  6  2  0
  6  7  1  0
  7  8  2  0
  8  9  1  0
  9 10  2  0
  9 11  1  0
 11 12  1  0
 12 13  1  0
 13 14  2  0
 14 15  1  0
 15 16  2  0
 16 17  1  0
 17 18  2  0
  8  3  1  0
 18 13  1  0
  1 19  1  0
  1 20  1  0
  1 21  1  0
  4 22  1  0
  5 23  1  0
  6 24  1  0
  7 25  1  0
 12 26  1  0
 12 27  1  0
 14 28  1  0
 15 29  1  0
 16 30  1  0
 17 31  1  0
 18 32  1  0
M  CHG  2  11  -1  17   1
M  END
>  <UniqueID>  (9) 
8

>  <SMILES>  (9) 
COc1ccccc1C(=O)[N-]Cc1ccc[nH+]c1

>  <Energy>  (9) 
33.911418290072724

>  <Genealogy>  (9) 
COc1ccccc1C(=O)[N-]Cc1ccc[nH+]c1 (protonated)
COc1ccccc1C(=O)[N-]Cc1ccc[nH+]c1 (3D coordinates assigned)
COc1ccccc1C(=O)[N-]Cc1ccc[nH+]c1 (optimized conformer: 33.911418290072724 kcal/mol)

>  <smiles>  (9) 
COc1ccccc1C(=O)NCc1cccnc1

>  <score_type>  (9) 
oracle

>  <origin>  (9) 
adg

>  <m_score__min__energy>  (9) 
-7.7999999999999998

>  <m_primary>  (9) 
energy

$$$$
9:0
     RDKit          3D

 45 48  0  0  0  0  0  0  0  0999 V2000
   62.0140   31.4580   47.1220 O   0  0  0  0  0  0  0  0  0  0  0  0
   60.9240   32.0690   47.2840 C   0  0  0  0  0  0  0  0  0  0  0  0
   60.6360   33.1720   46.4780 O   0  0  0  0  0  0  0  0  0  0  0  0
   59.4980   34.0000   46.7200 C   0  0  1  0  0  0  0  0  0  0  0  0
   59.1510   34.7970   45.4480 C   0  0  0  0  0  0  0  0  0  0  0  0
   58.1930   34.0360   44.5140 C   0  0  0  0  0  0  0  0  0  0  0  0
   58.3230   32.5790   44.7170 N   0  0  0  0  0  0  0  0  0  0  0  0
   57.6270   31.8270   43.6550 C   0  0  0  0  0  0  0  0  0  0  0  0
   57.0200   30.5780   44.2180 C   0  0  0  0  0  0  0  0  0  0  0  0
   57.6980   29.4680   44.6710 C   0  0  0  0  0  0  0  0  0  0  0  0
   56.7220   28.5770   45.0680 C   0  0  0  0  0  0  0  0  0  0  0  0
   55.5320   29.1020   44.8700 O   0  0  0  0  0  0  0  0  0  0  0  0
   55.6750   30.3030   44.3580 C   0  0  0  0  0  0  0  0  0  0  0  0
   57.8040   32.1950   46.0490 C   0  0  0  0  0  0  0  0  0  0  0  0
   58.3070   33.1380   47.1810 C   0  0  1  0  0  0  0  0  0  0  0  0
   58.7060   32.3550   48.4450 C   0  0  0  0  0  0  0  0  0  0  0  0
   59.9600   31.6080   48.2530 N   0  0  0  0  0  0  0  0  0  0  0  0
   60.3000   30.5260   49.1840 C   0  0  0  0  0  0  0  0  0  0  0  0
   60.2780   29.2060   48.4720 C   0  0  0  0  0  0  0  0  0  0  0  0
   60.4320   28.0030   49.1790 C   0  0  0  0  0  0  0  0  0  0  0  0
   60.3760   26.7910   48.4870 C   0  0  0  0  0  0  0  0  0  0  0  0
   60.1640   26.7870   47.1070 C   0  0  0  0  0  0  0  0  0  0  0  0
   60.0080   28.0030   46.4370 C   0  0  0  0  0  0  0  0  0  0  0  0
   60.0650   29.1730   47.1270 N   0  0  0  0  0  0  0  0  0  0  0  0
   59.7299   34.7166   47.5217 H   0  0  0  0  0  0  0  0  0  0  0  0
   58.6757   35.7437   45.7444 H   0  0  0  0  0  0  0  0  0  0  0  0
   60.0874   34.9676   44.8966 H   0  0  0  0  0  0  0  0  0  0  0  0
   57.1584   34.3409   44.7299 H   0  0  0  0  0  0  0  0  0  0  0  0
   58.4482   34.2745   43.4709 H   0  0  0  0  0  0  0  0  0  0  0  0
   56.8328   32.4554   43.2257 H   0  0  0  0  0  0  0  0  0  0  0  0
   58.3524   31.5533   42.8747 H   0  0  0  0  0  0  0  0  0  0  0  0
   58.7877   29.3225   44.7084 H   0  0  0  0  0  0  0  0  0  0  0  0
   56.9106   27.5776   45.4872 H   0  0  0  0  0  0  0  0  0  0  0  0
   54.8536   30.9815   44.0844 H   0  0  0  0  0  0  0  0  0  0  0  0
   56.7049   32.2308   46.0228 H   0  0  0  0  0  0  0  0  0  0  0  0
   58.1712   31.1821   46.2708 H   0  0  0  0  0  0  0  0  0  0  0  0
   57.4624   33.7990   47.4255 H   0  0  0  0  0  0  0  0  0  0  0  0
   58.8375   33.0636   49.2760 H   0  0  0  0  0  0  0  0  0  0  0  0
   57.9074   31.6312   48.6648 H   0  0  0  0  0  0  0  0  0  0  0  0
   61.3057   30.7014   49.5937 H   0  0  0  0  0  0  0  0  0  0  0  0
   59.5613   30.5074   49.9988 H   0  0  0  0  0  0  0  0  0  0  0  0
   60.5951   28.0147   50.2668 H   0  0  0  0  0  0  0  0  0  0  0  0
   60.4987   25.8413   49.0283 H   0  0  0  0  0  0  0  0  0  0  0  0
   60.1203   25.8373   46.5536 H   0  0  0  0  0  0  0  0  0  0  0  0
   59.8389   28.0138   45.3501 H   0  0  0  0  0  0  0  0  0  0  0  0
  1  2  2  0
  2  3  1  0
  3  4  1  0
  4  5  1  0
  5  6  1  0
  6  7  1  0
  7  8  1  0
  8  9  1  0
  9 10  1  0
 10 11  2  0
 11 12  1  0
 12 13  1  0
  7 14  1  0
 14 15  1  0
 15 16  1  0
 16 17  1  0
 17 18  1  0
 18 19  1  0
 19 20  2  0
 20 21  1  0
 21 22  2  0
 22 23  1  0
 23 24  2  0
 17  2  1  0
 24 19  1  0
 15  4  1  0
 13  9  2  0
  4 25  1  1
  5 26  1  0
  5 27  1  0
  6 28  1  0
  6 29  1  0
  8 30  1  0
  8 31  1  0
 10 32  1  0
 11 33  1  0
 13 34  1  0
 14 35  1  0
 14 36  1  0
 15 37  1  1
 16 38  1  0
 16 39  1  0
 18 40  1  0
 18 41  1  0
 20 42  1  0
 21 43  1  0
 22 44  1  0
 23 45  1  0
M  END
>  <UniqueID>  (10) 
9

>  <SMILES>  (10) 
O=C1O[C@H]2CCN(Cc3ccoc3)C[C@H]2CN1Cc1ccccn1

>  <Energy>  (10) 
78.69031776620804

>  <Genealogy>  (10) 
O=C1O[C@H]2CCN(Cc3ccoc3)C[C@H]2CN1Cc1ccccn1 (chirality)
O=C1O[C@H]2CCN(Cc3ccoc3)C[C@H]2CN1Cc1ccccn1 (3D coordinates assigned)
O=C1O[C@H]2CCN(Cc3ccoc3)C[C@H]2CN1Cc1ccccn1 (nonaromatic ring conformer: 78.69031776620804 kcal/mol)

>  <smiles>  (10) 
O=C1OC2CCN(Cc3ccoc3)CC2CN1Cc1ccccn1

>  <score_type>  (10) 
oracle

>  <origin>  (10) 
adg

>  <m_score__min__energy>  (10) 
-8.2899999999999991

>  <m_primary>  (10) 
energy

$$$$
10:0
     RDKit          3D

 30 32  0  0  0  0  0  0  0  0999 V2000
   60.4210   34.4590   48.7120 C   0  0  0  0  0  0  0  0  0  0  0  0
   59.2550   34.3460   47.8230 N   0  0  0  0  0  0  0  0  0  0  0  0
   59.5460   34.8980   46.4730 C   0  0  0  0  0  0  0  0  0  0  0  0
   59.6190   33.8300   45.3720 C   0  0  0  0  0  0  0  0  0  0  0  0
   58.4050   33.0060   45.3890 N   0  0  0  0  0  0  0  0  0  0  0  0
   57.9300   32.3870   44.1750 C   0  0  0  0  0  0  0  0  0  0  0  0
   58.2390   32.9160   42.9450 N   0  0  0  0  0  0  0  0  0  0  0  0
   57.7900   32.3380   41.7840 C   0  0  0  0  0  0  0  0  0  0  0  0
   57.0150   31.2140   41.8210 N   0  0  0  0  0  0  0  0  0  0  0  0
   56.7090   30.6890   43.0300 C   0  0  0  0  0  0  0  0  0  0  0  0
   55.9480   29.6110   43.2610 N   0  0  0  0  0  0  0  0  0  0  0  0
   55.9500   29.5510   44.6190 C   0  0  0  0  0  0  0  0  0  0  0  0
   56.6660   30.5340   45.2280 N   0  0  0  0  0  0  0  0  0  0  0  0
   57.1390   31.2360   44.1890 C   0  0  0  0  0  0  0  0  0  0  0  0
   57.7620   32.7160   46.6780 C   0  0  0  0  0  0  0  0  0  0  0  0
   58.7420   32.9570   47.8280 C   0  0  0  0  0  0  0  0  0  0  0  0
   60.0877   34.4267   49.7598 H   0  0  0  0  0  0  0  0  0  0  0  0
   61.1104   33.6235   48.5206 H   0  0  0  0  0  0  0  0  0  0  0  0
   60.9371   35.4114   48.5206 H   0  0  0  0  0  0  0  0  0  0  0  0
   58.7518   35.6127   46.2114 H   0  0  0  0  0  0  0  0  0  0  0  0
   60.5368   35.3727   46.5265 H   0  0  0  0  0  0  0  0  0  0  0  0
   59.7110   34.3224   44.3927 H   0  0  0  0  0  0  0  0  0  0  0  0
   60.4935   33.1872   45.5507 H   0  0  0  0  0  0  0  0  0  0  0  0
   58.8420   33.7650   42.8740 H   0  0  0  0  0  0  0  0  0  0  0  0
   58.0568   32.7842   40.8146 H   0  0  0  0  0  0  0  0  0  0  0  0
   55.4156   28.7703   45.1802 H   0  0  0  0  0  0  0  0  0  0  0  0
   56.8879   33.3720   46.8029 H   0  0  0  0  0  0  0  0  0  0  0  0
   57.4479   31.6619   46.6913 H   0  0  0  0  0  0  0  0  0  0  0  0
   58.2267   32.7699   48.7817 H   0  0  0  0  0  0  0  0  0  0  0  0
   59.5951   32.2740   47.7027 H   0  0  0  0  0  0  0  0  0  0  0  0
  1  2  1  0
  2  3  1  0
  3  4  1  0
  4  5  1  0
  5  6  1  0
  6  7  2  0
  7  8  1  0
  8  9  2  0
  9 10  1  0
 10 11  1  0
 11 12  1  0
 12 13  2  0
 13 14  1  0
  5 15  1  0
 15 16  1  0
 16  2  1  0
 14  6  1  0
 14 10  2  0
  1 17  1  0
  1 18  1  0
  1 19  1  0
  3 20  1  0
  3 21  1  0
  4 22  1  0
  4 23  1  0
  7 24  1  0
  8 25  1  0
 12 26  1  0
 15 27  1  0
 15 28  1  0
 16 29  1  0
 16 30  1  0
M  CHG  2   7   1  11  -1
M  END
>  <UniqueID>  (11) 
10

>  <SMILES>  (11) 
CN1CCN(c2[nH+]cnc3[n-]cnc23)CC1

>  <Energy>  (11) 
78.11184741455631

>  <Genealogy>  (11) 
CN1CCN(c2[nH+]cnc3[n-]cnc23)CC1 (protonated)
CN1CCN(c2[nH+]cnc3[n-]cnc23)CC1 (3D coordinates assigned)
CN1CCN(c2[nH+]cnc3[n-]cnc23)CC1 (nonaromatic ring conformer: 78.11184741455631 kcal/mol)

>  <smiles>  (11) 
CN1CCN(c2ncnc3[nH]cnc23)CC1

>  <score_type>  (11) 
oracle

>  <origin>  (11) 
adg

>  <m_score__min__energy>  (11) 
-6.1900000000000004

>  <m_primary>  (11) 
energy

$$$$
11:0
     RDKit          3D

 42 44  0  0  0  0  0  0  0  0999 V2000
   54.7500   25.8400   46.3720 H   0  0  0  0  0  0  0  0  0  0  0  0
   55.1160   26.7010   45.9880 O   0  0  0  0  0  0  0  0  0  0  0  0
   56.4770   27.0000   46.0020 C   0  0  0  0  0  0  0  0  0  0  0  0
   57.4650   26.1560   46.4970 C   0  0  0  0  0  0  0  0  0  0  0  0
   57.3010   24.8120   46.9660 N   0  0  0  0  0  0  0  0  0  0  0  0
   56.1840   24.2040   47.1050 N   0  0  0  0  0  0  0  0  0  0  0  0
   55.2780   23.8500   46.0450 C   0  0  0  0  0  0  0  0  0  0  0  0
   54.0840   24.2550   46.0690 O   0  0  0  0  0  0  0  0  0  0  0  0
   55.7270   22.9480   44.9580 C   0  0  0  0  0  0  0  0  0  0  0  0
   55.8870   23.4310   43.6480 C   0  0  0  0  0  0  0  0  0  0  0  0
   55.6772   24.4861   43.4182 H   0  0  0  0  0  0  0  0  0  0  0  0
   56.3140   22.5640   42.6390 C   0  0  0  0  0  0  0  0  0  0  0  0
   56.4385   22.9375   41.6119 H   0  0  0  0  0  0  0  0  0  0  0  0
   56.5760   21.2610   42.9220 N   0  0  0  0  0  0  0  0  0  0  0  0
   56.4320   20.7640   44.1790 C   0  0  0  0  0  0  0  0  0  0  0  0
   56.6508   19.7046   44.3784 H   0  0  0  0  0  0  0  0  0  0  0  0
   56.0070   21.5950   45.2180 C   0  0  0  0  0  0  0  0  0  0  0  0
   55.8919   21.1926   46.2353 H   0  0  0  0  0  0  0  0  0  0  0  0
   58.6630   26.7570   46.1820 C   0  0  0  0  0  0  0  0  0  0  0  0
   59.9740   26.3190   46.3590 C   0  0  0  0  0  0  0  0  0  0  0  0
   60.1911   25.3538   46.8398 H   0  0  0  0  0  0  0  0  0  0  0  0
   61.0100   27.1530   45.9020 C   0  0  0  0  0  0  0  0  0  0  0  0
   62.0576   26.8445   46.0334 H   0  0  0  0  0  0  0  0  0  0  0  0
   60.7150   28.3830   45.2760 C   0  0  0  0  0  0  0  0  0  0  0  0
   61.5348   29.0254   44.9221 H   0  0  0  0  0  0  0  0  0  0  0  0
   59.3820   28.7940   45.1010 C   0  0  0  0  0  0  0  0  0  0  0  0
   59.1442   29.7470   44.6057 H   0  0  0  0  0  0  0  0  0  0  0  0
   58.3660   27.9560   45.5750 C   0  0  0  0  0  0  0  0  0  0  0  0
   57.0270   28.1260   45.4770 N   0  0  0  0  0  0  0  0  0  0  0  0
   56.3230   29.2260   44.8110 C   0  0  0  0  0  0  0  0  0  0  0  0
   56.5279   30.1650   45.3460 H   0  0  0  0  0  0  0  0  0  0  0  0
   55.2431   29.0169   44.8182 H   0  0  0  0  0  0  0  0  0  0  0  0
   56.7960   29.3570   43.3610 C   0  0  0  0  0  0  0  0  0  0  0  0
   56.0173   28.9618   42.6921 H   0  0  0  0  0  0  0  0  0  0  0  0
   57.7303   28.7880   43.2457 H   0  0  0  0  0  0  0  0  0  0  0  0
   57.0700   30.8200   43.0000 C   0  0  0  0  0  0  0  0  0  0  0  0
   56.1762   31.2447   42.5197 H   0  0  0  0  0  0  0  0  0  0  0  0
   57.9308   30.8552   42.3161 H   0  0  0  0  0  0  0  0  0  0  0  0
   57.4050   31.6400   44.2420 C   0  0  0  0  0  0  0  0  0  0  0  0
   57.1662   31.0555   45.1427 H   0  0  0  0  0  0  0  0  0  0  0  0
   58.4766   31.8882   44.2394 H   0  0  0  0  0  0  0  0  0  0  0  0
   56.8137   32.5676   44.2394 H   0  0  0  0  0  0  0  0  0  0  0  0
  1  2  1  0
  2  3  1  0
  3  4  2  0
  4  5  1  0
  5  6  2  0
  6  7  1  0
  7  8  2  0
  7  9  1  0
  9 10  2  0
 10 11  1  0
 10 12  1  0
 12 13  1  0
 12 14  2  0
 14 15  1  0
 15 16  1  0
 15 17  2  0
 17 18  1  0
  4 19  1  0
 19 20  2  0
 20 21  1  0
 20 22  1  0
 22 23  1  0
 22 24  2  0
 24 25  1  0
 24 26  1  0
 26 27  1  0
 26 28  2  0
 28 29  1  0
 29 30  1  0
 30 31  1  0
 30 32  1  0
 30 33  1  0
 33 34  1  0
 33 35  1  0
 33 36  1  0
 36 37  1  0
 36 38  1  0
 36 39  1  0
 39 40  1  0
 39 41  1  0
 39 42  1  0
 29  3  1  0
 17  9  1  0
 28 19  1  0
M  END
>  <UniqueID>  (12) 
11

>  <SMILES>  (12) 
CCCCn1c(O)c(/N=N\C(=O)c2ccncc2)c2ccccc21

>  <Energy>  (12) 
85.08735323292042

>  <Genealogy>  (12) 
CCCCn1c(O)c(/N=N\C(=O)c2ccncc2)c2ccccc21 (cis-trans isomerization)
CCCCn1c(O)c(/N=N\C(=O)c2ccncc2)c2ccccc21 (3D coordinates assigned)
CCCCn1c(O)c(/N=N\C(=O)c2ccncc2)c2ccccc21 (optimized conformer: 85.08735323292042 kcal/mol)

>  <smiles>  (12) 
CCCCn1c(O)c(N=NC(=O)c2ccncc2)c2ccccc21

>  <score_type>  (12) 
oracle

>  <origin>  (12) 
adg

>  <m_score__min__energy>  (12) 
-8.9600000000000009

>  <m_primary>  (12) 
energy

$$$$
12:0
     RDKit          3D

 53 56  0  0  0  0  0  0  0  0999 V2000
   58.5050   27.6420   45.4390 C   0  0  0  0  0  0  0  0  0  0  0  0
   58.3370   28.5810   46.4970 O   0  0  0  0  0  0  0  0  0  0  0  0
   58.6780   29.9410   46.4320 C   0  0  0  0  0  0  0  0  0  0  0  0
   59.8240   30.4220   47.0920 C   0  0  0  0  0  0  0  0  0  0  0  0
   60.1770   31.7700   47.0400 C   0  0  0  0  0  0  0  0  0  0  0  0
   61.3560   32.2030   47.7320 N   0  0  0  0  0  0  0  0  0  0  0  0
   62.6760   31.8970   47.1750 C   0  0  0  0  0  0  0  0  0  0  0  0
   63.7370   32.8090   47.8020 C   0  0  0  0  0  0  0  0  0  0  0  0
   63.7230   32.7740   49.2850 N   0  0  0  0  0  0  0  0  0  0  0  0
   64.8810   32.0830   49.8970 C   0  0  0  0  0  0  0  0  0  0  0  0
   65.8930   33.0210   50.5220 C   0  0  0  0  0  0  0  0  0  0  0  0
   67.2410   32.9960   50.1290 C   0  0  0  0  0  0  0  0  0  0  0  0
   68.1590   33.8660   50.7190 C   0  0  0  0  0  0  0  0  0  0  0  0
   67.7210   34.7680   51.6880 C   0  0  0  0  0  0  0  0  0  0  0  0
   66.4090   34.8050   52.0440 N   0  0  0  0  0  0  0  0  0  0  0  0
   65.4960   33.9660   51.4830 C   0  0  0  0  0  0  0  0  0  0  0  0
   62.4250   32.4340   49.9160 C   0  0  0  0  0  0  0  0  0  0  0  0
   61.2390   32.8460   49.0430 C   0  0  0  0  0  0  0  0  0  0  0  0
   59.3830   32.6790   46.3170 C   0  0  0  0  0  0  0  0  0  0  0  0
   59.7210   34.0450   46.2490 C   0  0  0  0  0  0  0  0  0  0  0  0
   58.9250   34.9360   45.5310 C   0  0  0  0  0  0  0  0  0  0  0  0
   57.7840   34.4810   44.8720 C   0  0  0  0  0  0  0  0  0  0  0  0
   57.4330   33.1320   44.9250 C   0  0  0  0  0  0  0  0  0  0  0  0
   58.2230   32.2120   45.6460 C   0  0  0  0  0  0  0  0  0  0  0  0
   57.8650   30.8450   45.7000 C   0  0  0  0  0  0  0  0  0  0  0  0
   56.7010   30.4460   45.0100 O   0  0  0  0  0  0  0  0  0  0  0  0
   56.6070   30.0520   43.6450 C   0  0  0  0  0  0  0  0  0  0  0  0
   58.6839   26.6421   45.8611 H   0  0  0  0  0  0  0  0  0  0  0  0
   57.5963   27.6212   44.8194 H   0  0  0  0  0  0  0  0  0  0  0  0
   59.3645   27.9376   44.8194 H   0  0  0  0  0  0  0  0  0  0  0  0
   60.4535   29.7211   47.6599 H   0  0  0  0  0  0  0  0  0  0  0  0
   62.9265   30.8474   47.3884 H   0  0  0  0  0  0  0  0  0  0  0  0
   62.6553   32.0634   46.0879 H   0  0  0  0  0  0  0  0  0  0  0  0
   64.7287   32.4861   47.4524 H   0  0  0  0  0  0  0  0  0  0  0  0
   63.5107   33.8403   47.4934 H   0  0  0  0  0  0  0  0  0  0  0  0
   64.5070   31.4057   50.6789 H   0  0  0  0  0  0  0  0  0  0  0  0
   65.3984   31.5472   49.0876 H   0  0  0  0  0  0  0  0  0  0  0  0
   67.5740   32.2893   49.3546 H   0  0  0  0  0  0  0  0  0  0  0  0
   69.2180   33.8404   50.4225 H   0  0  0  0  0  0  0  0  0  0  0  0
   68.4385   35.4514   52.1657 H   0  0  0  0  0  0  0  0  0  0  0  0
   66.0940   35.4930   52.7630 H   0  0  0  0  0  0  0  0  0  0  0  0
   64.4398   34.0281   51.7841 H   0  0  0  0  0  0  0  0  0  0  0  0
   62.3841   31.3472   50.0810 H   0  0  0  0  0  0  0  0  0  0  0  0
   62.3547   32.9833   50.8664 H   0  0  0  0  0  0  0  0  0  0  0  0
   60.3015   32.5309   49.5244 H   0  0  0  0  0  0  0  0  0  0  0  0
   61.2355   33.9389   48.9182 H   0  0  0  0  0  0  0  0  0  0  0  0
   60.6199   34.4112   46.7665 H   0  0  0  0  0  0  0  0  0  0  0  0
   59.1978   36.0006   45.4843 H   0  0  0  0  0  0  0  0  0  0  0  0
   57.1581   35.1883   44.3081 H   0  0  0  0  0  0  0  0  0  0  0  0
   56.5320   32.7823   44.3998 H   0  0  0  0  0  0  0  0  0  0  0  0
   56.3521   28.9834   43.5885 H   0  0  0  0  0  0  0  0  0  0  0  0
   55.8245   30.6425   43.1460 H   0  0  0  0  0  0  0  0  0  0  0  0
   57.5718   30.2257   43.1460 H   0  0  0  0  0  0  0  0  0  0  0  0
  1  2  1  0
  2  3  1  0
  3  4  2  0
  4  5  1  0
  5  6  1  0
  6  7  1  0
  7  8  1  0
  8  9  1  0
  9 10  1  0
 10 11  1  0
 11 12  2  0
 12 13  1  0
 13 14  2  0
 14 15  1  0
 15 16  2  0
  9 17  1  0
 17 18  1  0
  5 19  2  0
 19 20  1  0
 20 21  2  0
 21 22  1  0
 22 23  2  0
 23 24  1  0
 24 25  2  0
 25 26  1  0
 26 27  1  0
 25  3  1  0
 18  6  1  0
 24 19  1  0
 16 11  1  0
  1 28  1  0
  1 29  1  0
  1 30  1  0
  4 31  1  0
  7 32  1  0
  7 33  1  0
  8 34  1  0
  8 35  1  0
 10 36  1  0
 10 37  1  0
 12 38  1  0
 13 39  1  0
 14 40  1  0
 15 41  1  0
 16 42  1  0
 17 43  1  0
 17 44  1  0
 18 45  1  0
 18 46  1  0
 20 47  1  0
 21 48  1  0
 22 49  1  0
 23 50  1  0
 27 51  1  0
 27 52  1  0
 27 53  1  0
M  CHG  1  15   1
M  END
>  <UniqueID>  (13) 
12

>  <SMILES>  (13) 
COc1cc(N2CCN(Cc3ccc[nH+]c3)CC2)c2ccccc2c1OC

>  <Energy>  (13) 
78.27473173883753

>  <Genealogy>  (13) 
COc1cc(N2CCN(Cc3ccc[nH+]c3)CC2)c2ccccc2c1OC (protonated)
COc1cc(N2CCN(Cc3ccc[nH+]c3)CC2)c2ccccc2c1OC (3D coordinates assigned)
COc1cc(N2CCN(Cc3ccc[nH+]c3)CC2)c2ccccc2c1OC (nonaromatic ring conformer: 78.27473173883753 kcal/mol)

>  <smiles>  (13) 
COc1cc(N2CCN(Cc3cccnc3)CC2)c2ccccc2c1OC

>  <score_type>  (13) 
oracle

>  <origin>  (13) 
adg

>  <m_score__min__energy>  (13) 
-6.7999999999999998

>  <m_primary>  (13) 
energy

$$$$
13:0
     RDKit          3D

 58 61  0  0  1  0  0  0  0  0999 V2000
   59.7910   28.5550   47.5930 C   0  0  0  0  0  0  0  0  0  0  0  0
   58.5350   29.1750   47.3890 O   0  0  0  0  0  0  0  0  0  0  0  0
   58.4580   30.3650   46.6850 C   0  0  0  0  0  0  0  0  0  0  0  0
   59.1030   31.5360   47.1260 C   0  0  0  0  0  0  0  0  0  0  0  0
   58.9800   32.6700   46.3760 C   0  0  0  0  0  0  0  0  0  0  0  0
   59.5940   33.8270   46.7770 C   0  0  0  0  0  0  0  0  0  0  0  0
   60.2620   33.8980   47.8030 N   0  0  0  0  0  0  0  0  0  0  0  0
   61.5780   33.7140   48.0970 C   0  0  0  0  0  0  0  0  0  0  0  0
   62.4330   33.2270   47.0760 C   0  0  0  0  0  0  0  0  0  0  0  0
   63.7400   32.9190   47.3510 C   0  0  0  0  0  0  0  0  0  0  0  0
   64.2460   33.0760   48.6160 C   0  0  0  0  0  0  0  0  0  0  0  0
   63.4210   33.5510   49.6170 C   0  0  0  0  0  0  0  0  0  0  0  0
   64.0480   33.6950   50.9710 C   0  0  0  0  0  0  0  0  0  0  0  0
   65.3940   33.4670   50.8350 F   0  0  0  0  0  0  0  0  0  0  0  0
   63.4550   32.7060   51.7560 F   0  0  0  0  0  0  0  0  0  0  0  0
   63.7780   34.9590   51.4620 F   0  0  0  0  0  0  0  0  0  0  0  0
   62.1150   33.8720   49.4020 C   0  0  0  0  0  0  0  0  0  0  0  0
   59.4540   34.9430   46.0080 N   0  0  0  0  0  0  0  0  0  0  0  0
   58.7440   34.9720   44.8740 C   0  0  0  0  0  0  0  0  0  0  0  0
   58.1350   33.8540   44.4630 N   0  0  0  0  0  0  0  0  0  0  0  0
   58.2580   32.7430   45.2040 C   0  0  0  0  0  0  0  0  0  0  0  0
   57.6300   31.6130   44.7690 C   0  0  0  0  0  0  0  0  0  0  0  0
   57.7580   30.4820   45.5260 C   0  0  0  0  0  0  0  0  0  0  0  0
   57.1120   29.3380   45.0700 O   0  0  0  0  0  0  0  0  0  0  0  0
   57.3550   28.8620   43.7540 C   0  0  0  0  0  0  0  0  0  0  0  0
   58.3940   27.7660   43.7940 C   0  0  0  0  0  0  0  0  0  0  0  0
   57.7960   26.3940   43.5250 C   0  0  0  0  0  0  0  0  0  0  0  0
   57.8140   25.6180   44.7640 N   0  0  0  0  0  0  0  0  0  0  0  0
   56.9090   24.4930   44.6790 C   0  0  0  0  0  0  0  0  0  0  0  0
   55.5430   24.8230   45.2310 C   0  0  0  0  0  0  0  0  0  0  0  0
   55.5640   25.3330   46.5070 O   0  0  0  0  0  0  0  0  0  0  0  0
   56.8660   25.5760   46.9460 C   0  0  0  0  0  0  0  0  0  0  0  0
   57.5610   26.4320   45.9130 C   0  0  0  0  0  0  0  0  0  0  0  0
   59.9823   28.4606   48.6721 H   0  0  0  0  0  0  0  0  0  0  0  0
   59.7858   27.5559   47.1327 H   0  0  0  0  0  0  0  0  0  0  0  0
   60.5809   29.1667   47.1327 H   0  0  0  0  0  0  0  0  0  0  0  0
   59.6930   31.5372   48.0544 H   0  0  0  0  0  0  0  0  0  0  0  0
   62.0444   33.0954   46.0554 H   0  0  0  0  0  0  0  0  0  0  0  0
   64.3903   32.5417   46.5481 H   0  0  0  0  0  0  0  0  0  0  0  0
   65.2956   32.8268   48.8308 H   0  0  0  0  0  0  0  0  0  0  0  0
   61.4877   34.2468   50.2242 H   0  0  0  0  0  0  0  0  0  0  0  0
   59.9130   35.8470   46.2880 H   0  0  0  0  0  0  0  0  0  0  0  0
   58.6625   35.9001   44.2893 H   0  0  0  0  0  0  0  0  0  0  0  0
   57.0404   31.6119   43.8403 H   0  0  0  0  0  0  0  0  0  0  0  0
   56.4207   28.4652   43.3301 H   0  0  0  0  0  0  0  0  0  0  0  0
   57.7215   29.6894   43.1287 H   0  0  0  0  0  0  0  0  0  0  0  0
   59.1580   27.9748   43.0306 H   0  0  0  0  0  0  0  0  0  0  0  0
   58.8291   27.7514   44.8042 H   0  0  0  0  0  0  0  0  0  0  0  0
   56.7594   26.5054   43.1742 H   0  0  0  0  0  0  0  0  0  0  0  0
   58.3838   25.8763   42.7526 H   0  0  0  0  0  0  0  0  0  0  0  0
   56.8044   24.2003   43.6238 H   0  0  0  0  0  0  0  0  0  0  0  0
   57.3291   23.6728   45.2797 H   0  0  0  0  0  0  0  0  0  0  0  0
   55.0727   25.5654   44.5695 H   0  0  0  0  0  0  0  0  0  0  0  0
   54.9809   23.8785   45.2750 H   0  0  0  0  0  0  0  0  0  0  0  0
   56.8412   26.1035   47.9109 H   0  0  0  0  0  0  0  0  0  0  0  0
   57.4057   24.6266   47.0779 H   0  0  0  0  0  0  0  0  0  0  0  0
   56.9171   27.2797   45.6358 H   0  0  0  0  0  0  0  0  0  0  0  0
   58.5045   26.8284   46.3164 H   0  0  0  0  0  0  0  0  0  0  0  0
  1  2  1  0
  2  3  1  0
  3  4  2  0
  4  5  1  0
  5  6  1  0
  6  7  2  0
  7  8  1  0
  8  9  2  0
  9 10  1  0
 10 11  2  0
 11 12  1  0
 12 13  1  0
 13 14  1  0
 13 15  1  0
 13 16  1  0
 12 17  2  0
  6 18  1  0
 18 19  1  0
 19 20  2  0
 20 21  1  0
 21 22  1  0
 22 23  2  0
 23 24  1  0
 24 25  1  0
 25 26  1  0
 26 27  1  0
 27 28  1  0
 28 29  1  0
 29 30  1  0
 30 31  1  0
 31 32  1  0
 32 33  1  0
 23  3  1  0
 33 28  1  0
 21  5  2  0
 17  8  1  0
  1 34  1  0
  1 35  1  0
  1 36  1  0
  4 37  1  0
  9 38  1  0
 10 39  1  0
 11 40  1  0
 17 41  1  0
 18 42  1  0
 19 43  1  0
 22 44  1  0
 25 45  1  0
 25 46  1  0
 26 47  1  0
 26 48  1  0
 27 49  1  0
 27 50  1  0
 29 51  1  0
 29 52  1  0
 30 53  1  0
 30 54  1  0
 32 55  1  0
 32 56  1  0
 33 57  1  0
 33 58  1  0
M  END
>  <smiles>  (14) 
COc1cc2c(=Nc3cccc(C(F)(F)F)c3)[nH]cnc2cc1OCCCN1CCOCC1

>  <score_type>  (14) 
oracle

>  <origin>  (14) 
adg

>  <m_score__min__energy>  (14) 
-7.96

>  <m_primary>  (14) 
energy

$$$$
14:0
     RDKit          3D

 71 75  0  0  1  0  0  0  0  0999 V2000
   58.2960   34.7890   44.8820 C   0  0  0  0  0  0  0  0  0  0  0  0
   57.8180   33.9220   46.0330 C   0  0  0  0  0  0  0  0  0  0  0  0
   56.6620   33.0780   45.5550 C   0  0  0  0  0  0  0  0  0  0  0  0
   58.9570   33.1450   46.5430 C   0  0  0  0  0  0  0  0  0  0  0  0
   59.1480   31.8790   46.1890 N   0  0  0  0  0  0  0  0  0  0  0  0
   60.2180   31.1620   46.6710 C   0  0  0  0  0  0  0  0  0  0  0  0
   60.2360   29.9680   46.3350 N   0  0  0  0  0  0  0  0  0  0  0  0
   59.2600   29.0310   46.3470 C   0  0  0  0  0  0  0  0  0  0  0  0
   58.4290   28.8760   45.2030 C   0  0  0  0  0  0  0  0  0  0  0  0
   57.5140   27.8500   45.1540 C   0  0  0  0  0  0  0  0  0  0  0  0
   57.3820   26.9500   46.2140 C   0  0  0  0  0  0  0  0  0  0  0  0
   56.1810   25.6940   46.0110 S   0  0  0  0  0  0  0  0  0  0  0  0
   56.1740   24.7330   47.1430 O   0  0  0  0  0  0  0  0  0  0  0  0
   54.8010   26.3000   45.9070 O   0  0  0  0  0  0  0  0  0  0  0  0
   56.4670   24.8650   44.5350 N   0  0  0  0  0  0  0  0  0  0  0  0
   55.5410   23.8190   44.2500 C   0  0  0  0  0  0  0  0  0  0  0  0
   56.1130   22.5700   44.8380 C   0  0  0  0  0  0  0  0  0  0  0  0
   57.6030   22.7720   44.7040 C   0  0  0  0  0  0  0  0  0  0  0  0
   57.7520   24.2460   44.4760 C   0  0  0  0  0  0  0  0  0  0  0  0
   58.1700   27.0880   47.3130 C   0  0  0  0  0  0  0  0  0  0  0  0
   59.1060   28.1010   47.4120 C   0  0  0  0  0  0  0  0  0  0  0  0
   61.1450   31.6850   47.5260 C   0  0  0  0  0  0  0  0  0  0  0  0
   60.9110   33.0260   47.8870 C   0  0  0  0  0  0  0  0  0  0  0  0
   59.8340   33.6970   47.3830 N   0  0  0  0  0  0  0  0  0  0  0  0
   61.5970   33.9270   48.8230 C   0  0  0  0  0  0  0  0  0  0  0  0
   62.9850   34.1880   48.3470 C   0  0  0  0  0  0  0  0  0  0  0  0
   63.6360   32.8670   48.4450 N   0  0  0  0  0  0  0  0  0  0  0  0
   64.4510   32.6040   49.5660 C   0  0  0  0  0  0  0  0  0  0  0  0
   65.7220   33.0950   49.7430 C   0  0  0  0  0  0  0  0  0  0  0  0
   66.4940   32.8090   50.8580 C   0  0  0  0  0  0  0  0  0  0  0  0
   65.9210   31.9910   51.8050 C   0  0  0  0  0  0  0  0  0  0  0  0
   66.6810   31.6620   52.9800 C   0  0  0  0  0  0  0  0  0  0  0  0
   66.0940   31.5450   54.2850 N   0  0  0  0  0  0  0  0  0  0  0  0
   67.9230   31.4560   52.9260 O   0  0  0  0  0  0  0  0  0  0  0  0
   64.6440   31.4940   51.6310 C   0  0  0  0  0  0  0  0  0  0  0  0
   63.9550   31.8130   50.5270 N   0  0  0  0  0  0  0  0  0  0  0  0
   63.4780   31.8390   47.4720 C   0  0  0  0  0  0  0  0  0  0  0  0
   62.2800   30.8890   47.9180 C   0  0  0  0  0  0  0  0  0  0  0  0
   58.7911   35.6869   45.2803 H   0  0  0  0  0  0  0  0  0  0  0  0
   59.0082   34.2205   44.2659 H   0  0  0  0  0  0  0  0  0  0  0  0
   57.4351   35.0878   44.2659 H   0  0  0  0  0  0  0  0  0  0  0  0
   57.4432   34.5206   46.8763 H   0  0  0  0  0  0  0  0  0  0  0  0
   56.1158   32.6792   46.4225 H   0  0  0  0  0  0  0  0  0  0  0  0
   55.9842   33.6952   44.9470 H   0  0  0  0  0  0  0  0  0  0  0  0
   57.0434   32.2444   44.9470 H   0  0  0  0  0  0  0  0  0  0  0  0
   58.5179   29.5755   44.3588 H   0  0  0  0  0  0  0  0  0  0  0  0
   56.8757   27.7365   44.2653 H   0  0  0  0  0  0  0  0  0  0  0  0
   54.5652   24.0411   44.7067 H   0  0  0  0  0  0  0  0  0  0  0  0
   55.3850   23.7118   43.1664 H   0  0  0  0  0  0  0  0  0  0  0  0
   55.8234   22.4633   45.8938 H   0  0  0  0  0  0  0  0  0  0  0  0
   55.7563   21.6572   44.3385 H   0  0  0  0  0  0  0  0  0  0  0  0
   58.1232   22.4643   45.6231 H   0  0  0  0  0  0  0  0  0  0  0  0
   58.0394   22.1725   43.8915 H   0  0  0  0  0  0  0  0  0  0  0  0
   58.4021   24.6741   45.2532 H   0  0  0  0  0  0  0  0  0  0  0  0
   58.2008   24.4223   43.4873 H   0  0  0  0  0  0  0  0  0  0  0  0
   58.0603   26.3761   48.1443 H   0  0  0  0  0  0  0  0  0  0  0  0
   59.7307   28.1875   48.3133 H   0  0  0  0  0  0  0  0  0  0  0  0
   59.6570   34.7070   47.6520 H   0  0  0  0  0  0  0  0  0  0  0  0
   61.0471   34.8777   48.8841 H   0  0  0  0  0  0  0  0  0  0  0  0
   61.6362   33.4570   49.8167 H   0  0  0  0  0  0  0  0  0  0  0  0
   62.9831   34.5495   47.3081 H   0  0  0  0  0  0  0  0  0  0  0  0
   63.5000   34.9643   48.9319 H   0  0  0  0  0  0  0  0  0  0  0  0
   66.1465   33.7451   48.9638 H   0  0  0  0  0  0  0  0  0  0  0  0
   67.5096   33.2138   50.9795 H   0  0  0  0  0  0  0  0  0  0  0  0
   66.3020   30.6280   54.7740 H   0  0  0  0  0  0  0  0  0  0  0  0
   65.5170   32.2960   54.7080 H   0  0  0  0  0  0  0  0  0  0  0  0
   64.1956   30.8405   52.3939 H   0  0  0  0  0  0  0  0  0  0  0  0
   63.2494   32.2877   46.4940 H   0  0  0  0  0  0  0  0  0  0  0  0
   64.4070   31.2556   47.3909 H   0  0  0  0  0  0  0  0  0  0  0  0
   62.3047   29.9280   47.3834 H   0  0  0  0  0  0  0  0  0  0  0  0
   62.2935   30.6070   48.9812 H   0  0  0  0  0  0  0  0  0  0  0  0
  1  2  1  0
  2  3  1  0
  2  4  1  0
  4  5  2  0
  5  6  1  0
  6  7  2  0
  7  8  1  0
  8  9  2  0
  9 10  1  0
 10 11  2  0
 11 12  1  0
 12 13  2  0
 12 14  2  0
 12 15  1  0
 15 16  1  0
 16 17  1  0
 17 18  1  0
 18 19  1  0
 11 20  1  0
 20 21  2  0
  6 22  1  0
 22 23  2  0
 23 24  1  0
 23 25  1  0
 25 26  1  0
 26 27  1  0
 27 28  1  0
 28 29  2  0
 29 30  1  0
 30 31  2  0
 31 32  1  0
 32 33  1  0
 32 34  2  0
 31 35  1  0
 35 36  2  0
 27 37  1  0
 37 38  1  0
 24  4  1  0
 36 28  1  0
 21  8  1  0
 38 22  1  0
 19 15  1  0
  1 39  1  0
  1 40  1  0
  1 41  1  0
  2 42  1  0
  3 43  1  0
  3 44  1  0
  3 45  1  0
  9 46  1  0
 10 47  1  0
 16 48  1  0
 16 49  1  0
 17 50  1  0
 17 51  1  0
 18 52  1  0
 18 53  1  0
 19 54  1  0
 19 55  1  0
 20 56  1  0
 21 57  1  0
 24 58  1  0
 25 59  1  0
 25 60  1  0
 26 61  1  0
 26 62  1  0
 29 63  1  0
 30 64  1  0
 33 65  1  0
 33 66  1  0
 35 67  1  0
 37 68  1  0
 37 69  1  0
 38 70  1  0
 38 71  1  0
M  END
>  <smiles>  (15) 
CC(C)c1nc(=Nc2ccc(S(=O)(=O)N3CCCC3)cc2)c2c([nH]1)CCN(c1ccc(C(N)=O)cn1)CC2

>  <score_type>  (15) 
oracle

>  <origin>  (15) 
adg

>  <m_score__min__energy>  (15) 
-8.7400000000000002

>  <m_primary>  (15) 
energy

$$$$
15:0
     RDKit          3D

 40 41  0  0  0  0  0  0  0  0999 V2000
   56.5850   29.7570   42.9650 C   0  0  0  0  0  0  0  0  0  0  0  0
   56.1820   30.2430   44.3240 C   0  0  0  0  0  0  0  0  0  0  0  0
   55.7920   29.4070   45.1800 O   0  0  0  0  0  0  0  0  0  0  0  0
   56.2660   31.6270   44.6930 N   0  0  0  0  0  0  0  0  0  0  0  0
   57.3790   32.2740   45.3220 C   0  0  0  0  0  0  0  0  0  0  0  0
   57.9020   33.4380   44.7460 C   0  0  0  0  0  0  0  0  0  0  0  0
   59.0150   34.0660   45.3120 C   0  0  0  0  0  0  0  0  0  0  0  0
   59.6190   33.5300   46.4520 C   0  0  0  0  0  0  0  0  0  0  0  0
   59.1130   32.3640   47.0380 C   0  0  0  0  0  0  0  0  0  0  0  0
   59.7870   31.8140   48.1790 N   0  0  0  0  0  0  0  0  0  0  0  0
   60.8150   30.8200   48.1460 C   0  0  0  0  0  0  0  0  0  0  0  0
   62.0190   31.1360   48.3540 O   0  0  0  0  0  0  0  0  0  0  0  0
   60.4690   29.4980   47.8440 O   0  0  0  0  0  0  0  0  0  0  0  0
   59.1830   28.9400   48.1110 C   0  0  0  0  0  0  0  0  0  0  0  0
   59.0890   27.4890   47.6210 C   0  0  0  0  0  0  0  0  0  0  0  0
   58.6900   27.4140   46.2080 N   0  0  0  0  0  0  0  0  0  0  0  0
   57.5450   26.9420   45.6600 C   0  0  0  0  0  0  0  0  0  0  0  0
   56.4320   26.3600   46.3610 N   0  0  0  0  0  0  0  0  0  0  0  0
   56.5960   25.5230   47.2700 O   0  0  0  0  0  0  0  0  0  0  0  0
   55.1500   26.6890   45.9880 O   0  0  0  0  0  0  0  0  0  0  0  0
   57.6140   27.0830   44.2910 C   0  0  0  0  0  0  0  0  0  0  0  0
   58.7960   27.6380   43.9630 N   0  0  0  0  0  0  0  0  0  0  0  0
   59.4250   27.8220   45.1440 C   0  0  0  0  0  0  0  0  0  0  0  0
   60.7790   28.4540   45.2370 C   0  0  0  0  0  0  0  0  0  0  0  0
   58.0080   31.7230   46.4510 C   0  0  0  0  0  0  0  0  0  0  0  0
   57.2840   28.9141   43.0694 H   0  0  0  0  0  0  0  0  0  0  0  0
   55.6921   29.4268   42.4140 H   0  0  0  0  0  0  0  0  0  0  0  0
   57.0748   30.5734   42.4140 H   0  0  0  0  0  0  0  0  0  0  0  0
   57.4349   33.8601   43.8440 H   0  0  0  0  0  0  0  0  0  0  0  0
   59.4163   34.9844   44.8588 H   0  0  0  0  0  0  0  0  0  0  0  0
   60.4966   34.0268   46.8913 H   0  0  0  0  0  0  0  0  0  0  0  0
   59.0008   28.9639   49.1955 H   0  0  0  0  0  0  0  0  0  0  0  0
   58.4294   29.5357   47.5750 H   0  0  0  0  0  0  0  0  0  0  0  0
   60.0716   27.0090   47.7393 H   0  0  0  0  0  0  0  0  0  0  0  0
   58.3228   26.9751   48.2201 H   0  0  0  0  0  0  0  0  0  0  0  0
   56.8284   26.7889   43.5794 H   0  0  0  0  0  0  0  0  0  0  0  0
   61.0522   28.5815   46.2949 H   0  0  0  0  0  0  0  0  0  0  0  0
   61.5197   27.8086   44.7422 H   0  0  0  0  0  0  0  0  0  0  0  0
   60.7599   29.4363   44.7422 H   0  0  0  0  0  0  0  0  0  0  0  0
   57.6326   30.7819   46.8794 H   0  0  0  0  0  0  0  0  0  0  0  0
  1  2  1  0
  2  3  2  0
  2  4  1  0
  4  5  1  0
  5  6  2  0
  6  7  1  0
  7  8  2  0
  8  9  1  0
  9 10  1  0
 10 11  1  0
 11 12  2  0
 11 13  1  0
 13 14  1  0
 14 15  1  0
 15 16  1  0
 16 17  1  0
 17 18  1  0
 18 19  2  0
 18 20  1  0
 17 21  2  0
 21 22  1  0
 22 23  2  0
 23 24  1  0
  9 25  2  0
 25  5  1  0
 23 16  1  0
  1 26  1  0
  1 27  1  0
  1 28  1  0
  6 29  1  0
  7 30  1  0
  8 31  1  0
 14 32  1  0
 14 33  1  0
 15 34  1  0
 15 35  1  0
 21 36  1  0
 24 37  1  0
 24 38  1  0
 24 39  1  0
 25 40  1  0
M  CHG  4   4  -1  10  -1  18   1  20  -1
M  END
>  <UniqueID>  (16) 
13

>  <SMILES>  (16) 
CC(=O)[N-]c1cccc([N-]C(=O)OCCn2c([N+](=O)[O-])cnc2C)c1

>  <Energy>  (16) 
71.81301577735839

>  <Genealogy>  (16) 
CC(=O)[N-]c1cccc([N-]C(=O)OCCn2c([N+](=O)[O-])cnc2C)c1 (protonated)
CC(=O)[N-]c1cccc([N-]C(=O)OCCn2c([N+](=O)[O-])cnc2C)c1 (3D coordinates assigned)
CC(=O)[N-]c1cccc([N-]C(=O)OCCn2c([N+](=O)[O-])cnc2C)c1 (optimized conformer: 71.81301577735839 kcal/mol)

>  <smiles>  (16) 
CC(=O)Nc1cccc(NC(=O)OCCn2c([N+](=O)[O-])cnc2C)c1

>  <score_type>  (16) 
oracle

>  <origin>  (16) 
adg

>  <m_score__min__energy>  (16) 
-10.210000000000001

>  <m_primary>  (16) 
energy

$$$$
16:0
     RDKit          3D

 42 43  0  0  0  0  0  0  0  0999 V2000
   60.2358   28.0940   48.9053 H   0  0  0  0  0  0  0  0  0  0  0  0
   59.6600   27.6650   48.0720 C   0  0  0  0  0  0  0  0  0  0  0  0
   58.5628   27.7426   48.0641 H   0  0  0  0  0  0  0  0  0  0  0  0
   60.2930   27.0500   47.0700 C   0  0  0  0  0  0  0  0  0  0  0  0
   61.3906   26.9804   47.0921 H   0  0  0  0  0  0  0  0  0  0  0  0
   59.5440   26.4500   45.9120 C   0  0  0  0  0  0  0  0  0  0  0  0
   60.1881   26.4611   45.0204 H   0  0  0  0  0  0  0  0  0  0  0  0
   59.2649   25.4172   46.1677 H   0  0  0  0  0  0  0  0  0  0  0  0
   58.3150   27.2190   45.6320 N   0  0  0  0  0  0  0  0  0  0  0  0
   57.0770   26.6750   45.8750 C   0  0  0  0  0  0  0  0  0  0  0  0
   56.9640   25.5050   46.3330 O   0  0  0  0  0  0  0  0  0  0  0  0
   55.9530   27.3900   45.6250 N   0  0  0  0  0  0  0  0  0  0  0  0
   56.0060   28.6540   45.1440 C   0  0  0  0  0  0  0  0  0  0  0  0
   54.8220   29.3440   44.9120 O   0  0  0  0  0  0  0  0  0  0  0  0
   57.2460   29.2560   44.9020 C   0  0  0  0  0  0  0  0  0  0  0  0
   57.3140   30.6400   44.3790 C   0  0  0  0  0  0  0  0  0  0  0  0
   57.3970   31.6190   45.2360 N   0  0  0  0  0  0  0  0  0  0  0  0
   58.5920   32.1180   45.8540 C   0  0  0  0  0  0  0  0  0  0  0  0
   58.9470   33.4570   45.6680 C   0  0  0  0  0  0  0  0  0  0  0  0
   58.3256   34.1035   45.0309 H   0  0  0  0  0  0  0  0  0  0  0  0
   60.0860   33.9800   46.2860 C   0  0  0  0  0  0  0  0  0  0  0  0
   60.3622   35.0310   46.1150 H   0  0  0  0  0  0  0  0  0  0  0  0
   60.8860   33.1780   47.1260 C   0  0  0  0  0  0  0  0  0  0  0  0
   62.0710   33.7190   47.7670 N   0  0  0  0  0  0  0  0  0  0  0  0
   62.0170   34.2030   49.1520 C   0  0  0  0  0  0  0  0  0  0  0  0
   62.1120   33.3515   49.8419 H   0  0  0  0  0  0  0  0  0  0  0  0
   62.8419   34.9096   49.3259 H   0  0  0  0  0  0  0  0  0  0  0  0
   61.0567   34.7105   49.3259 H   0  0  0  0  0  0  0  0  0  0  0  0
   63.3460   33.7890   47.0420 C   0  0  0  0  0  0  0  0  0  0  0  0
   64.1757   33.8346   47.7628 H   0  0  0  0  0  0  0  0  0  0  0  0
   63.4580   32.8957   46.4100 H   0  0  0  0  0  0  0  0  0  0  0  0
   63.3595   34.6892   46.4100 H   0  0  0  0  0  0  0  0  0  0  0  0
   60.4970   31.8370   47.3350 C   0  0  0  0  0  0  0  0  0  0  0  0
   61.0971   31.1930   47.9946 H   0  0  0  0  0  0  0  0  0  0  0  0
   59.3580   31.3190   46.7130 C   0  0  0  0  0  0  0  0  0  0  0  0
   59.0606   30.2764   46.8991 H   0  0  0  0  0  0  0  0  0  0  0  0
   57.2930   30.8720   42.8890 C   0  0  0  0  0  0  0  0  0  0  0  0
   57.1955   31.9489   42.6869 H   0  0  0  0  0  0  0  0  0  0  0  0
   58.2286   30.4991   42.4466 H   0  0  0  0  0  0  0  0  0  0  0  0
   56.4396   30.3372   42.4466 H   0  0  0  0  0  0  0  0  0  0  0  0
   58.4080   28.5020   45.1470 C   0  0  0  0  0  0  0  0  0  0  0  0
   59.5400   29.0060   44.9020 O   0  0  0  0  0  0  0  0  0  0  0  0
  1  2  1  0
  2  3  1  0
  2  4  2  0
  4  5  1  0
  4  6  1  0
  6  7  1  0
  6  8  1  0
  6  9  1  0
  9 10  1  0
 10 11  2  0
 10 12  1  0
 12 13  1  0
 13 14  1  0
 13 15  2  0
 15 16  1  0
 16 17  2  0
 17 18  1  0
 18 19  2  0
 19 20  1  0
 19 21  1  0
 21 22  1  0
 21 23  2  0
 23 24  1  0
 24 25  1  0
 25 26  1  0
 25 27  1  0
 25 28  1  0
 24 29  1  0
 29 30  1  0
 29 31  1  0
 29 32  1  0
 23 33  1  0
 33 34  1  0
 33 35  2  0
 35 36  1  0
 16 37  1  0
 37 38  1  0
 37 39  1  0
 37 40  1  0
 15 41  1  0
 41 42  2  0
 41  9  1  0
 35 18  1  0
M  CHG  2  12  -1  14  -1
M  END
>  <UniqueID>  (17) 
14

>  <SMILES>  (17) 
C=CCn1c(=O)[n-]c([O-])c(/C(C)=N/c2ccc(N(C)C)cc2)c1=O

>  <Energy>  (17) 
59.347203342070486

>  <Genealogy>  (17) 
C=CCn1c(=O)[n-]c([O-])c(C(C)=Nc2ccc(N(C)C)cc2)c1=O (protonated)
C=CCn1c(=O)[n-]c([O-])c(/C(C)=N/c2ccc(N(C)C)cc2)c1=O (cis-trans isomerization)
C=CCn1c(=O)[n-]c([O-])c(/C(C)=N/c2ccc(N(C)C)cc2)c1=O (3D coordinates assigned)
C=CCn1c(=O)[n-]c([O-])c(/C(C)=N/c2ccc(N(C)C)cc2)c1=O (optimized conformer: 59.347203342070486 kcal/mol)

>  <smiles>  (17) 
C=CCn1c(=O)[nH]c(O)c(C(C)=Nc2ccc(N(C)C)cc2)c1=O

>  <score_type>  (17) 
oracle

>  <origin>  (17) 
adg

>  <m_score__min__energy>  (17) 
-12.369999999999999

>  <m_primary>  (17) 
energy

$$$$
17:0
     RDKit          3D

 38 40  0  0  0  0  0  0  0  0999 V2000
   60.1120   35.4759   48.0342 H   0  0  0  0  0  0  0  0  0  0  0  0
   59.6640   34.8860   47.2210 C   0  0  0  0  0  0  0  0  0  0  0  0
   59.7290   35.3600   45.8960 C   0  0  0  0  0  0  0  0  0  0  0  0
   60.2266   36.3172   45.6812 H   0  0  0  0  0  0  0  0  0  0  0  0
   59.1620   34.6170   44.8480 C   0  0  0  0  0  0  0  0  0  0  0  0
   59.2075   34.9775   43.8097 H   0  0  0  0  0  0  0  0  0  0  0  0
   58.5400   33.4100   45.1610 C   0  0  0  0  0  0  0  0  0  0  0  0
   57.7840   32.3220   44.1310 S   0  0  0  0  0  0  0  0  0  0  0  0
   57.3990   31.2850   45.4100 C   0  0  0  0  0  0  0  0  0  0  0  0
   56.7590   30.1660   45.2470 N   0  0  0  0  0  0  0  0  0  0  0  0
   56.4810   29.5250   43.9920 C   0  0  0  0  0  0  0  0  0  0  0  0
   55.4000   29.7320   43.3760 O   0  0  0  0  0  0  0  0  0  0  0  0
   57.4790   28.5640   43.4280 C   0  0  0  0  0  0  0  0  0  0  0  0
   58.0694   29.0694   42.6495 H   0  0  0  0  0  0  0  0  0  0  0  0
   56.9441   27.7046   42.9975 H   0  0  0  0  0  0  0  0  0  0  0  0
   58.3760   28.0870   44.4800 N   0  0  0  0  0  0  0  0  0  0  0  0
   57.9670   27.3560   45.6160 C   0  0  0  0  0  0  0  0  0  0  0  0
   56.8490   26.7870   45.7210 O   0  0  0  0  0  0  0  0  0  0  0  0
   58.9150   27.3510   46.6110 O   0  0  0  0  0  0  0  0  0  0  0  0
   60.0600   28.0890   46.1920 C   0  0  2  0  0  0  0  0  0  0  0  0
   60.9699   27.4799   46.0871 H   0  0  0  0  0  0  0  0  0  0  0  0
   60.4090   29.1530   47.2560 C   0  0  0  0  0  0  0  0  0  0  0  0
   61.1311   29.8594   46.8207 H   0  0  0  0  0  0  0  0  0  0  0  0
   60.8239   28.6226   48.1258 H   0  0  0  0  0  0  0  0  0  0  0  0
   59.2340   29.9120   47.7240 N   0  0  0  0  0  0  0  0  0  0  0  0
   58.4070   29.7180   47.1120 H   0  0  0  0  0  0  0  0  0  0  0  0
   59.4560   30.9330   47.6510 H   0  0  0  0  0  0  0  0  0  0  0  0
   58.8880   29.6250   49.1200 C   0  0  0  0  0  0  0  0  0  0  0  0
   59.5613   30.1835   49.7869 H   0  0  0  0  0  0  0  0  0  0  0  0
   57.8482   29.9294   49.3101 H   0  0  0  0  0  0  0  0  0  0  0  0
   58.9950   28.5468   49.3101 H   0  0  0  0  0  0  0  0  0  0  0  0
   59.6640   28.6900   44.8100 C   0  0  0  0  0  0  0  0  0  0  0  0
   59.5706   29.7839   44.8785 H   0  0  0  0  0  0  0  0  0  0  0  0
   60.4223   28.4818   44.0408 H   0  0  0  0  0  0  0  0  0  0  0  0
   57.8330   31.7460   46.6100 N   0  0  0  0  0  0  0  0  0  0  0  0
   58.4700   32.9350   46.4630 C   0  0  0  0  0  0  0  0  0  0  0  0
   59.0310   33.6650   47.5120 C   0  0  0  0  0  0  0  0  0  0  0  0
   58.9789   33.2924   48.5457 H   0  0  0  0  0  0  0  0  0  0  0  0
  1  2  1  0
  2  3  2  0
  3  4  1  0
  3  5  1  0
  5  6  1  0
  5  7  2  0
  7  8  1  0
  8  9  1  0
  9 10  2  0
 10 11  1  0
 11 12  2  0
 11 13  1  0
 13 14  1  0
 13 15  1  0
 13 16  1  0
 16 17  1  0
 17 18  2  0
 17 19  1  0
 19 20  1  0
 20 21  1  6
 20 22  1  0
 22 23  1  0
 22 24  1  0
 22 25  1  0
 25 26  1  0
 25 27  1  0
 25 28  1  0
 28 29  1  0
 28 30  1  0
 28 31  1  0
 20 32  1  0
 32 33  1  0
 32 34  1  0
  9 35  1  0
 35 36  1  0
 36 37  2  0
 37 38  1  0
 37  2  1  0
 36  7  1  0
 32 16  1  0
M  CHG  2  25   1  35  -1
M  END
>  <UniqueID>  (18) 
15

>  <SMILES>  (18) 
C[NH2+]C[C@@H]1CN(CC(=O)/N=c2\[n-]c3ccccc3s2)C(=O)O1

>  <Energy>  (18) 
88.35855086334111

>  <Genealogy>  (18) 
C[NH2+]CC1CN(CC(=O)N=c2[n-]c3ccccc3s2)C(=O)O1 (protonated)
C[NH2+]C[C@@H]1CN(CC(=O)N=c2[n-]c3ccccc3s2)C(=O)O1 (chirality)
C[NH2+]C[C@@H]1CN(CC(=O)/N=c2\[n-]c3ccccc3s2)C(=O)O1 (cis-trans isomerization)
C[NH2+]C[C@@H]1CN(CC(=O)/N=c2\[n-]c3ccccc3s2)C(=O)O1 (3D coordinates assigned)
C[NH2+]C[C@@H]1CN(CC(=O)/N=c2\[n-]c3ccccc3s2)C(=O)O1 (nonaromatic ring conformer: 88.35855086334111 kcal/mol)

>  <smiles>  (18) 
CNCC1CN(CC(=O)N=c2[nH]c3ccccc3s2)C(=O)O1

>  <score_type>  (18) 
oracle

>  <origin>  (18) 
adg

>  <m_score__min__energy>  (18) 
-7.6900000000000004

>  <m_primary>  (18) 
energy

$$$$
18:0
     RDKit          3D

 34 36  0  0  0  0  0  0  0  0999 V2000
   58.9650   25.9891   46.5425 H   0  0  0  0  0  0  0  0  0  0  0  0
   58.7530   26.9460   46.0430 C   0  0  0  0  0  0  0  0  0  0  0  0
   57.7010   26.9870   45.2030 C   0  0  0  0  0  0  0  0  0  0  0  0
   57.9340   26.7390   43.8020 C   0  0  0  0  0  0  0  0  0  0  0  0
   58.1210   26.5390   42.6780 N   0  0  0  0  0  0  0  0  0  0  0  0
   56.3280   27.3380   45.6230 C   0  0  0  0  0  0  0  0  0  0  0  0
   55.6820   26.5720   46.3870 O   0  0  0  0  0  0  0  0  0  0  0  0
   55.7790   28.6070   45.2420 N   0  0  0  0  0  0  0  0  0  0  0  0
   56.4810   29.6740   44.5880 C   0  0  0  0  0  0  0  0  0  0  0  0
   56.2780   29.9770   43.2280 C   0  0  0  0  0  0  0  0  0  0  0  0
   55.5487   29.4004   42.6401 H   0  0  0  0  0  0  0  0  0  0  0  0
   57.0020   31.0100   42.6230 C   0  0  0  0  0  0  0  0  0  0  0  0
   56.8333   31.2501   41.5629 H   0  0  0  0  0  0  0  0  0  0  0  0
   57.9380   31.7370   43.3610 C   0  0  0  0  0  0  0  0  0  0  0  0
   58.5002   32.5539   42.8848 H   0  0  0  0  0  0  0  0  0  0  0  0
   58.1600   31.4260   44.7050 C   0  0  0  0  0  0  0  0  0  0  0  0
   58.9018   31.9943   45.2853 H   0  0  0  0  0  0  0  0  0  0  0  0
   57.4400   30.3930   45.3130 C   0  0  0  0  0  0  0  0  0  0  0  0
   57.6279   30.1433   46.3677 H   0  0  0  0  0  0  0  0  0  0  0  0
   59.6450   28.0840   46.3470 C   0  0  0  0  0  0  0  0  0  0  0  0
   60.6050   28.6640   45.5170 C   0  0  0  0  0  0  0  0  0  0  0  0
   60.8883   28.2829   44.5248 H   0  0  0  0  0  0  0  0  0  0  0  0
   61.1390   29.7610   46.1030 N   0  0  0  0  0  0  0  0  0  0  0  0
   61.8700   30.3900   45.7020 H   0  0  0  0  0  0  0  0  0  0  0  0
   60.5110   29.8930   47.2830 C   0  0  0  0  0  0  0  0  0  0  0  0
   60.7050   30.8930   48.2350 C   0  0  0  0  0  0  0  0  0  0  0  0
   61.4490   31.6882   48.0798 H   0  0  0  0  0  0  0  0  0  0  0  0
   59.9180   30.8520   49.4010 C   0  0  0  0  0  0  0  0  0  0  0  0
   60.0468   31.6236   50.1744 H   0  0  0  0  0  0  0  0  0  0  0  0
   58.9640   29.8270   49.5850 C   0  0  0  0  0  0  0  0  0  0  0  0
   58.3537   29.8065   50.4999 H   0  0  0  0  0  0  0  0  0  0  0  0
   58.7890   28.8320   48.6060 C   0  0  0  0  0  0  0  0  0  0  0  0
   58.0481   28.0297   48.7378 H   0  0  0  0  0  0  0  0  0  0  0  0
   59.5860   28.8960   47.4620 C   0  0  0  0  0  0  0  0  0  0  0  0
  1  2  1  0
  2  3  2  0
  3  4  1  0
  4  5  3  0
  3  6  1  0
  6  7  2  0
  6  8  1  0
  8  9  1  0
  9 10  2  0
 10 11  1  0
 10 12  1  0
 12 13  1  0
 12 14  2  0
 14 15  1  0
 14 16  1  0
 16 17  1  0
 16 18  2  0
 18 19  1  0
  2 20  1  0
 20 21  2  0
 21 22  1  0
 21 23  1  0
 23 24  1  0
 23 25  1  0
 25 26  2  0
 26 27  1  0
 26 28  1  0
 28 29  1  0
 28 30  2  0
 30 31  1  0
 30 32  1  0
 32 33  1  0
 32 34  2  0
 18  9  1  0
 34 20  1  0
 34 25  1  0
M  CHG  1   8  -1
M  END
>  <UniqueID>  (19) 
16

>  <SMILES>  (19) 
N#C/C(=C/c1c[nH]c2ccccc12)C(=O)[N-]c1ccccc1

>  <Energy>  (19) 
79.43935309074475

>  <Genealogy>  (19) 
N#CC(=Cc1c[nH]c2ccccc12)C(=O)[N-]c1ccccc1 (protonated)
N#C/C(=C/c1c[nH]c2ccccc12)C(=O)[N-]c1ccccc1 (cis-trans isomerization)
N#C/C(=C/c1c[nH]c2ccccc12)C(=O)[N-]c1ccccc1 (3D coordinates assigned)
N#C/C(=C/c1c[nH]c2ccccc12)C(=O)[N-]c1ccccc1 (optimized conformer: 79.43935309074475 kcal/mol)

>  <smiles>  (19) 
N#CC(=Cc1c[nH]c2ccccc12)C(=O)Nc1ccccc1

>  <score_type>  (19) 
oracle

>  <origin>  (19) 
adg

>  <m_score__min__energy>  (19) 
-9.0800000000000001

>  <m_primary>  (19) 
energy

$$$$
19:0
     RDKit          3D

 19 20  0  0  0  0  0  0  0  0999 V2000
   56.0000   23.7010   48.2460 C   0  0  0  0  0  0  0  0  0  0  0  0
   56.0620   23.0970   46.9030 N   0  0  0  0  0  0  0  0  0  0  0  0
   55.6260   23.7970   45.8050 C   0  0  0  0  0  0  0  0  0  0  0  0
   55.1490   24.9570   45.9250 O   0  0  0  0  0  0  0  0  0  0  0  0
   55.7060   23.2490   44.5640 N   0  0  0  0  0  0  0  0  0  0  0  0
   56.2250   22.0140   44.3610 C   0  0  0  0  0  0  0  0  0  0  0  0
   56.2730   21.5460   43.1910 O   0  0  0  0  0  0  0  0  0  0  0  0
   56.7060   21.2790   45.4500 C   0  0  0  0  0  0  0  0  0  0  0  0
   57.2580   20.0390   45.3010 N   0  0  0  0  0  0  0  0  0  0  0  0
   57.7300   19.3520   46.3750 C   0  0  0  0  0  0  0  0  0  0  0  0
   57.6530   19.9190   47.6470 C   0  0  0  0  0  0  0  0  0  0  0  0
   57.1020   21.1510   47.7980 N   0  0  0  0  0  0  0  0  0  0  0  0
   56.6200   21.8540   46.7340 C   0  0  0  0  0  0  0  0  0  0  0  0
   56.0811   22.9112   49.0073 H   0  0  0  0  0  0  0  0  0  0  0  0
   56.8298   24.4130   48.3665 H   0  0  0  0  0  0  0  0  0  0  0  0
   55.0429   24.2296   48.3665 H   0  0  0  0  0  0  0  0  0  0  0  0
   57.3300   19.5950   44.3580 H   0  0  0  0  0  0  0  0  0  0  0  0
   58.1708   18.3531   46.2414 H   0  0  0  0  0  0  0  0  0  0  0  0
   58.0358   19.3723   48.5214 H   0  0  0  0  0  0  0  0  0  0  0  0
  1  2  1  0
  2  3  1  0
  3  4  2  0
  3  5  1  0
  5  6  1  0
  6  7  2  0
  6  8  1  0
  8  9  2  0
  9 10  1  0
 10 11  2  0
 11 12  1  0
 12 13  2  0
 13  2  1  0
 13  8  1  0
  1 14  1  0
  1 15  1  0
  1 16  1  0
  9 17  1  0
 10 18  1  0
 11 19  1  0
M  CHG  2   5  -1   9   1
M  END
>  <UniqueID>  (20) 
17

>  <SMILES>  (20) 
Cn1c(=O)[n-]c(=O)c2[nH+]ccnc21

>  <Energy>  (20) 
28.51975716587932

>  <Genealogy>  (20) 
Cn1c(=O)[n-]c(=O)c2[nH+]ccnc21 (protonated)
Cn1c(=O)[n-]c(=O)c2[nH+]ccnc21 (3D coordinates assigned)
Cn1c(=O)[n-]c(=O)c2[nH+]ccnc21 (optimized conformer: 28.51975716587932 kcal/mol)

>  <smiles>  (20) 
Cn1c(=O)[nH]c(=O)c2nccnc21

>  <score_type>  (20) 
oracle

>  <origin>  (20) 
adg

>  <m_score__min__energy>  (20) 
-5.4800000000000004

>  <m_primary>  (20) 
energy

$$$$
20:0
     RDKit          3D

 29 31  0  0  0  0  0  0  0  0999 V2000
   56.9710   29.9800   43.3530 C   0  0  0  0  0  0  0  0  0  0  0  0
   58.0310   29.7020   44.2610 O   0  0  0  0  0  0  0  0  0  0  0  0
   58.3100   30.4600   45.4080 C   0  0  0  0  0  0  0  0  0  0  0  0
   58.6100   29.8670   46.6510 C   0  0  0  0  0  0  0  0  0  0  0  0
   58.8910   30.6650   47.7630 C   0  0  0  0  0  0  0  0  0  0  0  0
   58.8570   32.0580   47.6500 C   0  0  0  0  0  0  0  0  0  0  0  0
   58.5550   32.6540   46.4210 C   0  0  0  0  0  0  0  0  0  0  0  0
   58.2870   31.8570   45.3040 C   0  0  0  0  0  0  0  0  0  0  0  0
   58.4390   34.4430   46.3110 S   0  0  0  0  0  0  0  0  0  0  0  0
   60.2280   34.8890   46.3720 C   0  0  0  0  0  0  0  0  0  0  0  0
   61.2350   33.9200   46.9850 C   0  0  0  0  0  0  0  0  0  0  0  0
   62.5060   33.8470   46.3780 C   0  0  0  0  0  0  0  0  0  0  0  0
   63.5190   33.0560   46.9200 C   0  0  0  0  0  0  0  0  0  0  0  0
   63.2930   32.3310   48.0870 C   0  0  0  0  0  0  0  0  0  0  0  0
   62.0500   32.3960   48.7150 C   0  0  0  0  0  0  0  0  0  0  0  0
   61.0240   33.1920   48.1890 C   0  0  0  0  0  0  0  0  0  0  0  0
   59.4220   33.0990   48.9940 S   0  0  0  0  0  0  0  0  0  0  0  0
   56.0579   30.2195   43.9176 H   0  0  0  0  0  0  0  0  0  0  0  0
   57.2458   30.8365   42.7198 H   0  0  0  0  0  0  0  0  0  0  0  0
   56.7901   29.0989   42.7198 H   0  0  0  0  0  0  0  0  0  0  0  0
   58.6230   28.7712   46.7460 H   0  0  0  0  0  0  0  0  0  0  0  0
   59.1389   30.1972   48.7272 H   0  0  0  0  0  0  0  0  0  0  0  0
   58.0567   32.3296   44.3378 H   0  0  0  0  0  0  0  0  0  0  0  0
   60.5472   35.0643   45.3340 H   0  0  0  0  0  0  0  0  0  0  0  0
   60.2516   35.7471   47.0598 H   0  0  0  0  0  0  0  0  0  0  0  0
   62.7017   34.4235   45.4618 H   0  0  0  0  0  0  0  0  0  0  0  0
   64.4995   33.0048   46.4239 H   0  0  0  0  0  0  0  0  0  0  0  0
   64.0936   31.7082   48.5126 H   0  0  0  0  0  0  0  0  0  0  0  0
   61.8730   31.8163   49.6330 H   0  0  0  0  0  0  0  0  0  0  0  0
  1  2  1  0
  2  3  1  0
  3  4  2  0
  4  5  1  0
  5  6  2  0
  6  7  1  0
  7  8  2  0
  7  9  1  0
  9 10  1  0
 10 11  1  0
 11 12  2  0
 12 13  1  0
 13 14  2  0
 14 15  1  0
 15 16  2  0
 16 17  1  0
  8  3  1  0
 16 11  1  0
 17  6  1  0
  1 18  1  0
  1 19  1  0
  1 20  1  0
  4 21  1  0
  5 22  1  0
  8 23  1  0
 10 24  1  0
 10 25  1  0
 12 26  1  0
 13 27  1  0
 14 28  1  0
 15 29  1  0
M  END
>  <UniqueID>  (21) 
18

>  <SMILES>  (21) 
COc1ccc2c(c1)SCc1ccccc1S2

>  <Energy>  (21) 
41.63573788202316

>  <Genealogy>  (21) 
COc1ccc2c(c1)SCc1ccccc1S2 (3D coordinates assigned)
COc1ccc2c(c1)SCc1ccccc1S2 (nonaromatic ring conformer: 41.63573788202316 kcal/mol)

>  <smiles>  (21) 
COc1ccc2c(c1)SCc1ccccc1S2

>  <score_type>  (21) 
oracle

>  <origin>  (21) 
adg

>  <m_score__min__energy>  (21) 
-6.2599999999999998

>  <m_primary>  (21) 
energy

$$$$
21:0
     RDKit          3D

 53 53  0  0  0  0  0  0  0  0999 V2000
   56.2880   29.9780   42.6850 C   0  0  0  0  0  0  0  0  0  0  0  0
   57.0700   30.3780   43.8480 N   0  0  0  0  0  0  0  0  0  0  0  0
   57.8140   31.6020   43.8690 C   0  0  0  0  0  0  0  0  0  0  0  0
   57.8230   32.3540   42.8570 O   0  0  0  0  0  0  0  0  0  0  0  0
   58.5980   31.9890   45.1030 C   0  0  2  0  0  0  0  0  0  0  0  0
   58.3420   31.0210   46.1720 N   0  0  0  0  0  0  0  0  0  0  0  0
   58.8390   29.6760   46.2220 C   0  0  0  0  0  0  0  0  0  0  0  0
   59.9670   29.4380   45.7110 O   0  0  0  0  0  0  0  0  0  0  0  0
   58.0140   28.5420   46.7970 C   0  0  2  0  0  0  0  0  0  0  0  0
   58.8600   27.3490   47.2980 C   0  0  0  0  0  0  0  0  0  0  0  0
   60.0200   27.7850   48.2010 C   0  0  0  0  0  0  0  0  0  0  0  0
   59.5260   28.5510   49.2430 F   0  0  0  0  0  0  0  0  0  0  0  0
   60.6730   26.6860   48.7270 F   0  0  0  0  0  0  0  0  0  0  0  0
   57.0280   28.0890   45.8160 N   0  0  0  0  0  0  0  0  0  0  0  0
   56.5870   26.7370   45.6330 C   0  0  0  0  0  0  0  0  0  0  0  0
   55.5020   26.3520   46.1490 O   0  0  0  0  0  0  0  0  0  0  0  0
   57.3800   25.8180   44.8580 N   0  0  0  0  0  0  0  0  0  0  0  0
   57.8030   26.1910   43.5060 C   0  0  0  0  0  0  0  0  0  0  0  0
   57.7520   24.5090   45.4120 C   0  0  0  0  0  0  0  0  0  0  0  0
   57.4140   23.4210   44.4460 C   0  0  0  0  0  0  0  0  0  0  0  0
   56.3760   23.4840   43.5840 N   0  0  0  0  0  0  0  0  0  0  0  0
   56.3070   22.3810   42.7930 C   0  0  0  0  0  0  0  0  0  0  0  0
   57.2970   21.4310   43.0170 C   0  0  0  0  0  0  0  0  0  0  0  0
   58.2860   21.9960   44.2530 S   0  0  0  0  0  0  0  0  0  0  0  0
   58.2840   33.4400   45.5940 C   0  0  0  0  0  0  0  0  0  0  0  0
   56.8310   33.8270   45.2350 C   0  0  0  0  0  0  0  0  0  0  0  0
   58.4740   33.5790   47.1220 C   0  0  0  0  0  0  0  0  0  0  0  0
   59.2360   34.4320   44.8880 C   0  0  0  0  0  0  0  0  0  0  0  0
   55.3545   29.5005   43.0174 H   0  0  0  0  0  0  0  0  0  0  0  0
   56.0506   30.8654   42.0799 H   0  0  0  0  0  0  0  0  0  0  0  0
   56.8687   29.2662   42.0799 H   0  0  0  0  0  0  0  0  0  0  0  0
   57.0790   29.7540   44.6850 H   0  0  0  0  0  0  0  0  0  0  0  0
   59.6638   31.9757   44.8313 H   0  0  0  0  0  0  0  0  0  0  0  0
   57.5044   28.9486   47.6830 H   0  0  0  0  0  0  0  0  0  0  0  0
   58.2081   26.6690   47.8660 H   0  0  0  0  0  0  0  0  0  0  0  0
   59.2929   26.8546   46.4159 H   0  0  0  0  0  0  0  0  0  0  0  0
   60.7308   28.3684   47.5974 H   0  0  0  0  0  0  0  0  0  0  0  0
   58.6268   26.9174   43.5669 H   0  0  0  0  0  0  0  0  0  0  0  0
   58.1439   25.2942   42.9680 H   0  0  0  0  0  0  0  0  0  0  0  0
   56.9559   26.6415   42.9680 H   0  0  0  0  0  0  0  0  0  0  0  0
   58.8336   24.4937   45.6115 H   0  0  0  0  0  0  0  0  0  0  0  0
   57.1937   24.3443   46.3454 H   0  0  0  0  0  0  0  0  0  0  0  0
   55.5247   22.2495   42.0309 H   0  0  0  0  0  0  0  0  0  0  0  0
   57.4126   20.4779   42.4801 H   0  0  0  0  0  0  0  0  0  0  0  0
   56.2537   33.9808   46.1586 H   0  0  0  0  0  0  0  0  0  0  0  0
   56.8339   34.7557   44.6455 H   0  0  0  0  0  0  0  0  0  0  0  0
   56.3716   33.0199   44.6455 H   0  0  0  0  0  0  0  0  0  0  0  0
   57.6918   33.0068   47.6423 H   0  0  0  0  0  0  0  0  0  0  0  0
   59.4630   33.1897   47.4054 H   0  0  0  0  0  0  0  0  0  0  0  0
   58.4024   34.6394   47.4054 H   0  0  0  0  0  0  0  0  0  0  0  0
   59.7899   35.0091   45.6431 H   0  0  0  0  0  0  0  0  0  0  0  0
   59.9459   33.8746   44.2592 H   0  0  0  0  0  0  0  0  0  0  0  0
   58.6498   35.1183   44.2592 H   0  0  0  0  0  0  0  0  0  0  0  0
  1  2  1  0
  2  3  1  0
  3  4  2  0
  3  5  1  0
  5  6  1  0
  6  7  1  0
  7  8  2  0
  7  9  1  0
  9 10  1  0
 10 11  1  0
 11 12  1  0
 11 13  1  0
  9 14  1  0
 14 15  1  0
 15 16  2  0
 15 17  1  0
 17 18  1  0
 17 19  1  0
 19 20  1  0
 20 21  2  0
 21 22  1  0
 22 23  2  0
 23 24  1  0
  5 25  1  0
 25 26  1  0
 25 27  1  0
 25 28  1  0
 24 20  1  0
  1 29  1  0
  1 30  1  0
  1 31  1  0
  2 32  1  0
  5 33  1  6
  9 34  1  1
 10 35  1  0
 10 36  1  0
 11 37  1  0
 18 38  1  0
 18 39  1  0
 18 40  1  0
 19 41  1  0
 19 42  1  0
 22 43  1  0
 23 44  1  0
 26 45  1  0
 26 46  1  0
 26 47  1  0
 27 48  1  0
 27 49  1  0
 27 50  1  0
 28 51  1  0
 28 52  1  0
 28 53  1  0
M  CHG  2   6  -1  14  -1
M  END
>  <UniqueID>  (22) 
19

>  <SMILES>  (22) 
CNC(=O)[C@H]([N-]C(=O)[C@H](CC(F)F)[N-]C(=O)N(C)Cc1nccs1)C(C)(C)C

>  <Energy>  (22) 
60.19776159234195

>  <Genealogy>  (22) 
CNC(=O)C([N-]C(=O)C(CC(F)F)[N-]C(=O)N(C)Cc1nccs1)C(C)(C)C (protonated)
CNC(=O)[C@H]([N-]C(=O)[C@H](CC(F)F)[N-]C(=O)N(C)Cc1nccs1)C(C)(C)C (chirality)
CNC(=O)[C@H]([N-]C(=O)[C@H](CC(F)F)[N-]C(=O)N(C)Cc1nccs1)C(C)(C)C (3D coordinates assigned)
CNC(=O)[C@H]([N-]C(=O)[C@H](CC(F)F)[N-]C(=O)N(C)Cc1nccs1)C(C)(C)C (optimized conformer: 60.19776159234195 kcal/mol)

>  <smiles>  (22) 
CNC(=O)C(NC(=O)C(CC(F)F)NC(=O)N(C)Cc1nccs1)C(C)(C)C

>  <score_type>  (22) 
oracle

>  <origin>  (22) 
adg

>  <m_score__min__energy>  (22) 
-10.67

>  <m_primary>  (22) 
energy

$$$$
22:0
     RDKit          3D

 63 66  0  0  0  0  0  0  0  0999 V2000
   59.1890   34.6690   44.5030 C   0  0  0  0  0  0  0  0  0  0  0  0
   59.1850   34.1240   45.9030 C   0  0  0  0  0  0  0  0  0  0  0  0
   57.9890   33.7010   46.5010 C   0  0  0  0  0  0  0  0  0  0  0  0
   58.0000   33.1590   47.7910 C   0  0  0  0  0  0  0  0  0  0  0  0
   59.2030   33.0440   48.4930 C   0  0  0  0  0  0  0  0  0  0  0  0
   60.4140   33.4610   47.9110 C   0  0  0  0  0  0  0  0  0  0  0  0
   61.6620   33.2970   48.6250 N   0  0  0  0  0  0  0  0  0  0  0  0
   62.5990   32.2150   48.3070 C   0  0  0  0  0  0  0  0  0  0  0  0
   62.6230   31.1880   49.4590 C   0  0  0  0  0  0  0  0  0  0  0  0
   62.2920   31.7760   50.7930 N   0  0  0  0  0  0  0  0  0  0  0  0
   60.8520   31.6200   51.1360 C   0  0  0  0  0  0  0  0  0  0  0  0
   60.5590   30.3500   51.9500 C   0  0  0  0  0  0  0  0  0  0  0  0
   59.8420   29.4040   51.1060 N   0  0  0  0  0  0  0  0  0  0  0  0
   59.0320   29.8250   50.0030 C   0  0  0  0  0  0  0  0  0  0  0  0
   58.1540   30.7160   50.1790 O   0  0  0  0  0  0  0  0  0  0  0  0
   59.2510   29.2560   48.6510 C   0  0  0  0  0  0  0  0  0  0  0  0
   59.8860   28.0800   48.5120 C   0  0  0  0  0  0  0  0  0  0  0  0
   60.2080   27.5460   47.2180 N   0  0  0  0  0  0  0  0  0  0  0  0
   61.0990   26.3900   47.0970 C   0  0  0  0  0  0  0  0  0  0  0  0
   59.6920   28.1900   46.0460 C   0  0  0  0  0  0  0  0  0  0  0  0
   59.9770   27.7460   44.9000 O   0  0  0  0  0  0  0  0  0  0  0  0
   58.8600   29.3510   46.1930 N   0  0  0  0  0  0  0  0  0  0  0  0
   58.1170   29.8790   45.0720 C   0  0  0  0  0  0  0  0  0  0  0  0
   56.9730   29.2100   44.5940 C   0  0  0  0  0  0  0  0  0  0  0  0
   56.2570   29.7170   43.5020 C   0  0  0  0  0  0  0  0  0  0  0  0
   56.6710   30.8980   42.8810 C   0  0  0  0  0  0  0  0  0  0  0  0
   57.7980   31.5790   43.3540 C   0  0  0  0  0  0  0  0  0  0  0  0
   58.5210   31.0710   44.4380 C   0  0  0  0  0  0  0  0  0  0  0  0
   58.9420   30.1160   47.4420 C   0  0  0  0  0  0  0  0  0  0  0  0
   62.6990   33.2020   50.8690 C   0  0  0  0  0  0  0  0  0  0  0  0
   61.9280   34.0690   49.8480 C   0  0  0  0  0  0  0  0  0  0  0  0
   60.3930   33.9850   46.6030 C   0  0  0  0  0  0  0  0  0  0  0  0
   59.1971   35.7684   44.5375 H   0  0  0  0  0  0  0  0  0  0  0  0
   60.0846   34.3122   43.9732 H   0  0  0  0  0  0  0  0  0  0  0  0
   58.2883   34.3254   43.9732 H   0  0  0  0  0  0  0  0  0  0  0  0
   57.0392   33.7956   45.9542 H   0  0  0  0  0  0  0  0  0  0  0  0
   57.0602   32.8229   48.2534 H   0  0  0  0  0  0  0  0  0  0  0  0
   59.2030   32.6237   49.5095 H   0  0  0  0  0  0  0  0  0  0  0  0
   62.2798   31.7163   47.3799 H   0  0  0  0  0  0  0  0  0  0  0  0
   63.6069   32.6350   48.1741 H   0  0  0  0  0  0  0  0  0  0  0  0
   61.8906   30.3982   49.2359 H   0  0  0  0  0  0  0  0  0  0  0  0
   63.6504   30.8003   49.5237 H   0  0  0  0  0  0  0  0  0  0  0  0
   62.8520   31.2680   51.5190 H   0  0  0  0  0  0  0  0  0  0  0  0
   60.5360   32.4937   51.7250 H   0  0  0  0  0  0  0  0  0  0  0  0
   60.2971   31.5377   50.1898 H   0  0  0  0  0  0  0  0  0  0  0  0
   61.5049   29.9009   52.2871 H   0  0  0  0  0  0  0  0  0  0  0  0
   59.9478   30.6032   52.8288 H   0  0  0  0  0  0  0  0  0  0  0  0
   60.1662   27.5121   49.4115 H   0  0  0  0  0  0  0  0  0  0  0  0
   61.3744   26.0327   48.1003 H   0  0  0  0  0  0  0  0  0  0  0  0
   60.5846   25.5862   46.5499 H   0  0  0  0  0  0  0  0  0  0  0  0
   62.0073   26.6828   46.5499 H   0  0  0  0  0  0  0  0  0  0  0  0
   56.6395   28.2824   45.0821 H   0  0  0  0  0  0  0  0  0  0  0  0
   55.3679   29.1847   43.1330 H   0  0  0  0  0  0  0  0  0  0  0  0
   56.1110   31.2924   42.0203 H   0  0  0  0  0  0  0  0  0  0  0  0
   58.1159   32.5155   42.8725 H   0  0  0  0  0  0  0  0  0  0  0  0
   59.4119   31.6060   44.7986 H   0  0  0  0  0  0  0  0  0  0  0  0
   59.7355   30.8707   47.3380 H   0  0  0  0  0  0  0  0  0  0  0  0
   57.9557   30.5731   47.6101 H   0  0  0  0  0  0  0  0  0  0  0  0
   62.4951   33.5779   51.8825 H   0  0  0  0  0  0  0  0  0  0  0  0
   63.7718   33.2665   50.6344 H   0  0  0  0  0  0  0  0  0  0  0  0
   60.9732   34.3890   50.2906 H   0  0  0  0  0  0  0  0  0  0  0  0
   62.5366   34.9488   49.5920 H   0  0  0  0  0  0  0  0  0  0  0  0
   61.3358   34.2889   46.1247 H   0  0  0  0  0  0  0  0  0  0  0  0
  1  2  1  0
  2  3  2  0
  3  4  1  0
  4  5  2  0
  5  6  1  0
  6  7  1  0
  7  8  1  0
  8  9  1  0
  9 10  1  0
 10 11  1  0
 11 12  1  0
 12 13  1  0
 13 14  1  0
 14 15  2  0
 14 16  1  0
 16 17  2  0
 17 18  1  0
 18 19  1  0
 18 20  1  0
 20 21  2  0
 20 22  1  0
 22 23  1  0
 23 24  2  0
 24 25  1  0
 25 26  2  0
 26 27  1  0
 27 28  2  0
 22 29  1  0
 10 30  1  0
 30 31  1  0
  6 32  2  0
 32  2  1  0
 31  7  1  0
 29 16  1  0
 28 23  1  0
  1 33  1  0
  1 34  1  0
  1 35  1  0
  3 36  1  0
  4 37  1  0
  5 38  1  0
  8 39  1  0
  8 40  1  0
  9 41  1  0
  9 42  1  0
 10 43  1  0
 11 44  1  0
 11 45  1  0
 12 46  1  0
 12 47  1  0
 17 48  1  0
 19 49  1  0
 19 50  1  0
 19 51  1  0
 24 52  1  0
 25 53  1  0
 26 54  1  0
 27 55  1  0
 28 56  1  0
 29 57  1  0
 29 58  1  0
 30 59  1  0
 30 60  1  0
 31 61  1  0
 31 62  1  0
 32 63  1  0
M  CHG  2  10   1  13  -1
M  END
>  <UniqueID>  (23) 
20

>  <SMILES>  (23) 
Cc1cccc(N2CC[NH+](CC[N-]C(=O)C3=CN(C)C(=O)N(c4ccccc4)C3)CC2)c1

>  <Energy>  (23) 
83.15767320875226

>  <Genealogy>  (23) 
Cc1cccc(N2CC[NH+](CC[N-]C(=O)C3=CN(C)C(=O)N(c4ccccc4)C3)CC2)c1 (protonated)
Cc1cccc(N2CC[NH+](CC[N-]C(=O)C3=CN(C)C(=O)N(c4ccccc4)C3)CC2)c1 (3D coordinates assigned)
Cc1cccc(N2CC[NH+](CC[N-]C(=O)C3=CN(C)C(=O)N(c4ccccc4)C3)CC2)c1 (nonaromatic ring conformer: 83.15767320875226 kcal/mol)

>  <smiles>  (23) 
Cc1cccc(N2CCN(CCNC(=O)C3=CN(C)C(=O)N(c4ccccc4)C3)CC2)c1

>  <score_type>  (23) 
oracle

>  <origin>  (23) 
adg

>  <m_score__min__energy>  (23) 
-8.9499999999999993

>  <m_primary>  (23) 
energy

$$$$
23:0
     RDKit          3D

 35 37  0  0  0  0  0  0  0  0999 V2000
   57.9265   32.7014   42.5792 H   0  0  0  0  0  0  0  0  0  0  0  0
   57.4960   31.8600   43.1420 C   0  0  0  0  0  0  0  0  0  0  0  0
   56.9280   30.8160   42.4830 N   0  0  0  0  0  0  0  0  0  0  0  0
   56.3880   29.7650   43.1530 C   0  0  0  0  0  0  0  0  0  0  0  0
   55.9321   28.9305   42.6001 H   0  0  0  0  0  0  0  0  0  0  0  0
   56.4160   29.7520   44.5480 C   0  0  0  0  0  0  0  0  0  0  0  0
   55.9020   28.7500   45.1980 N   0  0  0  0  0  0  0  0  0  0  0  0
   56.6630   27.5800   45.6270 C   0  0  0  0  0  0  0  0  0  0  0  0
   56.2020   26.6714   45.2124 H   0  0  0  0  0  0  0  0  0  0  0  0
   56.6609   27.5257   46.7257 H   0  0  0  0  0  0  0  0  0  0  0  0
   58.1010   27.6930   45.1280 C   0  0  0  0  0  0  0  0  0  0  0  0
   58.0998   28.1313   44.1191 H   0  0  0  0  0  0  0  0  0  0  0  0
   58.5482   26.6882   45.1069 H   0  0  0  0  0  0  0  0  0  0  0  0
   58.9150   28.5660   46.0450 C   0  0  0  0  0  0  0  0  0  0  0  0
   59.9990   29.3060   45.5420 C   0  0  0  0  0  0  0  0  0  0  0  0
   60.2708   29.2275   44.4790 H   0  0  0  0  0  0  0  0  0  0  0  0
   60.7330   30.1420   46.3900 C   0  0  0  0  0  0  0  0  0  0  0  0
   61.5864   30.7123   45.9946 H   0  0  0  0  0  0  0  0  0  0  0  0
   60.3840   30.2540   47.7390 C   0  0  0  0  0  0  0  0  0  0  0  0
   60.9637   30.9106   48.4044 H   0  0  0  0  0  0  0  0  0  0  0  0
   59.2990   29.5320   48.2420 C   0  0  0  0  0  0  0  0  0  0  0  0
   59.0238   29.6227   49.3031 H   0  0  0  0  0  0  0  0  0  0  0  0
   58.5620   28.6940   47.3990 C   0  0  0  0  0  0  0  0  0  0  0  0
   57.7034   28.1334   47.7972 H   0  0  0  0  0  0  0  0  0  0  0  0
   56.9850   30.7990   45.2080 N   0  0  0  0  0  0  0  0  0  0  0  0
   57.5300   31.8580   44.5480 C   0  0  0  0  0  0  0  0  0  0  0  0
   58.1180   32.9370   45.2970 N   0  0  0  0  0  0  0  0  0  0  0  0
   58.8810   33.9300   44.7910 C   0  0  0  0  0  0  0  0  0  0  0  0
   59.1585   34.0521   43.7336 H   0  0  0  0  0  0  0  0  0  0  0  0
   59.2530   34.7640   45.8220 C   0  0  0  0  0  0  0  0  0  0  0  0
   59.8776   35.6645   45.7267 H   0  0  0  0  0  0  0  0  0  0  0  0
   58.7240   34.2920   46.9650 N   0  0  0  0  0  0  0  0  0  0  0  0
   58.8220   34.7010   47.9210 H   0  0  0  0  0  0  0  0  0  0  0  0
   58.0400   33.1840   46.6230 C   0  0  0  0  0  0  0  0  0  0  0  0
   57.4853   32.5564   47.3361 H   0  0  0  0  0  0  0  0  0  0  0  0
  1  2  1  0
  2  3  1  0
  3  4  2  0
  4  5  1  0
  4  6  1  0
  6  7  2  0
  7  8  1  0
  8  9  1  0
  8 10  1  0
  8 11  1  0
 11 12  1  0
 11 13  1  0
 11 14  1  0
 14 15  2  0
 15 16  1  0
 15 17  1  0
 17 18  1  0
 17 19  2  0
 19 20  1  0
 19 21  1  0
 21 22  1  0
 21 23  2  0
 23 24  1  0
  6 25  1  0
 25 26  1  0
 26 27  1  0
 27 28  1  0
 28 29  1  0
 28 30  2  0
 30 31  1  0
 30 32  1  0
 32 33  1  0
 32 34  2  0
 34 35  1  0
 26  2  2  0
 34 27  1  0
 23 14  1  0
M  CHG  2  25  -1  32   1
M  END
>  <UniqueID>  (24) 
21

>  <SMILES>  (24) 
c1ccc(CC/N=c2/cncc(-n3cc[nH+]c3)[n-]2)cc1

>  <Energy>  (24) 
67.29145882028416

>  <Genealogy>  (24) 
c1ccc(CCN=c2cncc(-n3cc[nH+]c3)[n-]2)cc1 (protonated)
c1ccc(CC/N=c2/cncc(-n3cc[nH+]c3)[n-]2)cc1 (cis-trans isomerization)
c1ccc(CC/N=c2/cncc(-n3cc[nH+]c3)[n-]2)cc1 (3D coordinates assigned)
c1ccc(CC/N=c2/cncc(-n3cc[nH+]c3)[n-]2)cc1 (optimized conformer: 67.29145882028416 kcal/mol)

>  <smiles>  (24) 
c1ccc(CCN=c2cncc(-n3ccnc3)[nH]2)cc1

>  <score_type>  (24) 
oracle

>  <origin>  (24) 
adg

>  <m_score__min__energy>  (24) 
-6.1500000000000004

>  <m_primary>  (24) 
energy

$$$$
24:0
     RDKit          3D

 37 39  0  0  0  0  0  0  0  0999 V2000
   56.9430   21.7910   42.9940 C   0  0  0  0  0  0  0  0  0  0  0  0
   56.4350   22.9270   43.8330 C   0  0  0  0  0  0  0  0  0  0  0  0
   55.1050   22.9430   44.2720 C   0  0  0  0  0  0  0  0  0  0  0  0
   54.6200   24.0240   45.0110 C   0  0  0  0  0  0  0  0  0  0  0  0
   55.4560   25.1070   45.3140 C   0  0  0  0  0  0  0  0  0  0  0  0
   54.9440   26.2040   46.0050 O   0  0  0  0  0  0  0  0  0  0  0  0
   56.8030   25.0890   44.8940 C   0  0  0  0  0  0  0  0  0  0  0  0
   57.7040   26.1680   45.1840 N   0  0  0  0  0  0  0  0  0  0  0  0
   57.5750   27.1190   46.2510 C   0  0  0  0  0  0  0  0  0  0  0  0
   57.2260   26.7040   47.3880 O   0  0  0  0  0  0  0  0  0  0  0  0
   57.7920   28.5700   46.0420 C   0  0  0  0  0  0  0  0  0  0  0  0
   58.8980   29.2310   46.6000 C   0  0  0  0  0  0  0  0  0  0  0  0
   59.0790   30.5980   46.3900 C   0  0  0  0  0  0  0  0  0  0  0  0
   58.1540   31.3000   45.6110 C   0  0  0  0  0  0  0  0  0  0  0  0
   58.3160   32.6980   45.3830 N   0  0  0  0  0  0  0  0  0  0  0  0
   57.5070   33.8120   44.8590 C   0  0  0  0  0  0  0  0  0  0  0  0
   58.5550   34.8630   45.0290 C   0  0  0  0  0  0  0  0  0  0  0  0
   59.3610   33.7230   45.5580 C   0  0  0  0  0  0  0  0  0  0  0  0
   57.0960   30.6450   45.0630 N   0  0  0  0  0  0  0  0  0  0  0  0
   56.8980   29.3140   45.2530 C   0  0  0  0  0  0  0  0  0  0  0  0
   57.2710   24.0150   44.1270 C   0  0  0  0  0  0  0  0  0  0  0  0
   57.3038   20.9842   43.6489 H   0  0  0  0  0  0  0  0  0  0  0  0
   56.1289   21.4114   42.3591 H   0  0  0  0  0  0  0  0  0  0  0  0
   57.7687   22.1447   42.3591 H   0  0  0  0  0  0  0  0  0  0  0  0
   54.4395   22.1002   44.0335 H   0  0  0  0  0  0  0  0  0  0  0  0
   53.5759   24.0254   45.3572 H   0  0  0  0  0  0  0  0  0  0  0  0
   55.1330   26.3470   46.9910 H   0  0  0  0  0  0  0  0  0  0  0  0
   59.6244   28.6687   47.2050 H   0  0  0  0  0  0  0  0  0  0  0  0
   59.9409   31.1187   46.8328 H   0  0  0  0  0  0  0  0  0  0  0  0
   57.2167   33.6681   43.8078 H   0  0  0  0  0  0  0  0  0  0  0  0
   56.5337   33.9930   45.3385 H   0  0  0  0  0  0  0  0  0  0  0  0
   58.9277   35.3168   44.0989 H   0  0  0  0  0  0  0  0  0  0  0  0
   58.3964   35.8071   45.5707 H   0  0  0  0  0  0  0  0  0  0  0  0
   60.2585   33.5216   44.9548 H   0  0  0  0  0  0  0  0  0  0  0  0
   59.7879   33.8363   46.5655 H   0  0  0  0  0  0  0  0  0  0  0  0
   56.0343   28.8168   44.7873 H   0  0  0  0  0  0  0  0  0  0  0  0
   58.3047   24.0243   43.7510 H   0  0  0  0  0  0  0  0  0  0  0  0
  1  2  1  0
  2  3  2  0
  3  4  1  0
  4  5  2  0
  5  6  1  0
  5  7  1  0
  7  8  1  0
  8  9  1  0
  9 10  2  0
  9 11  1  0
 11 12  2  0
 12 13  1  0
 13 14  2  0
 14 15  1  0
 15 16  1  0
 16 17  1  0
 17 18  1  0
 14 19  1  0
 19 20  2  0
  7 21  2  0
 21  2  1  0
 20 11  1  0
 18 15  1  0
  1 22  1  0
  1 23  1  0
  1 24  1  0
  3 25  1  0
  4 26  1  0
  6 27  1  0
 12 28  1  0
 13 29  1  0
 16 30  1  0
 16 31  1  0
 17 32  1  0
 17 33  1  0
 18 34  1  0
 18 35  1  0
 20 36  1  0
 21 37  1  0
M  CHG  1   8  -1
M  END
>  <UniqueID>  (25) 
22

>  <SMILES>  (25) 
Cc1ccc(O)c([N-]C(=O)c2ccc(N3CCC3)nc2)c1

>  <Energy>  (25) 
88.99871821805088

>  <Genealogy>  (25) 
Cc1ccc(O)c([N-]C(=O)c2ccc(N3CCC3)nc2)c1 (protonated)
Cc1ccc(O)c([N-]C(=O)c2ccc(N3CCC3)nc2)c1 (3D coordinates assigned)
Cc1ccc(O)c([N-]C(=O)c2ccc(N3CCC3)nc2)c1 (nonaromatic ring conformer: 88.99871821805088 kcal/mol)

>  <smiles>  (25) 
Cc1ccc(O)c(NC(=O)c2ccc(N3CCC3)nc2)c1

>  <score_type>  (25) 
oracle

>  <origin>  (25) 
adg

>  <m_score__min__energy>  (25) 
-9.7100000000000009

>  <m_primary>  (25) 
energy

$$$$
25:0
     RDKit          3D

 50 53  0  0  0  0  0  0  0  0999 V2000
   62.4830   33.5120   46.6320 C   0  0  0  0  0  0  0  0  0  0  0  0
   62.9030   32.9570   47.9660 C   0  0  0  0  0  0  0  0  0  0  0  0
   64.0810   33.4030   48.5780 C   0  0  0  0  0  0  0  0  0  0  0  0
   64.4760   32.8560   49.8080 C   0  0  0  0  0  0  0  0  0  0  0  0
   65.7180   33.2880   50.4990 C   0  0  0  0  0  0  0  0  0  0  0  0
   66.9570   32.7370   50.1170 C   0  0  0  0  0  0  0  0  0  0  0  0
   68.1350   33.1240   50.7620 C   0  0  0  0  0  0  0  0  0  0  0  0
   68.0910   34.0580   51.7990 C   0  0  0  0  0  0  0  0  0  0  0  0
   66.8690   34.6060   52.1950 C   0  0  0  0  0  0  0  0  0  0  0  0
   65.6870   34.2230   51.5540 C   0  0  0  0  0  0  0  0  0  0  0  0
   63.7050   31.8840   50.3680 N   0  0  0  0  0  0  0  0  0  0  0  0
   62.5840   31.4480   49.7930 N   0  0  0  0  0  0  0  0  0  0  0  0
   62.1500   31.9570   48.6070 C   0  0  0  0  0  0  0  0  0  0  0  0
   60.9410   31.4530   48.0240 N   0  0  0  0  0  0  0  0  0  0  0  0
   60.8860   30.0760   47.5220 C   0  0  0  0  0  0  0  0  0  0  0  0
   60.3290   30.0660   46.0950 C   0  0  0  0  0  0  0  0  0  0  0  0
   59.1360   30.9200   45.9780 N   0  0  0  0  0  0  0  0  0  0  0  0
   58.2810   30.7630   44.8380 C   0  0  0  0  0  0  0  0  0  0  0  0
   58.2300   31.7690   43.9200 N   0  0  0  0  0  0  0  0  0  0  0  0
   57.4300   31.7110   42.8260 C   0  0  0  0  0  0  0  0  0  0  0  0
   56.6130   30.6020   42.6180 C   0  0  0  0  0  0  0  0  0  0  0  0
   56.6450   29.5470   43.5300 C   0  0  0  0  0  0  0  0  0  0  0  0
   57.5030   29.5920   44.6440 C   0  0  0  0  0  0  0  0  0  0  0  0
   57.5210   28.4280   45.6130 C   0  0  0  0  0  0  0  0  0  0  0  0
   58.4810   27.4970   45.2600 F   0  0  0  0  0  0  0  0  0  0  0  0
   57.7820   28.8970   46.8870 F   0  0  0  0  0  0  0  0  0  0  0  0
   56.2960   27.7830   45.6230 F   0  0  0  0  0  0  0  0  0  0  0  0
   58.6370   31.6700   47.1360 C   0  0  0  0  0  0  0  0  0  0  0  0
   59.8000   32.3620   47.8580 C   0  0  0  0  0  0  0  0  0  0  0  0
   61.8258   34.3804   46.7866 H   0  0  0  0  0  0  0  0  0  0  0  0
   63.3743   33.8226   46.0671 H   0  0  0  0  0  0  0  0  0  0  0  0
   61.9419   32.7387   46.0671 H   0  0  0  0  0  0  0  0  0  0  0  0
   64.6940   34.1790   48.0963 H   0  0  0  0  0  0  0  0  0  0  0  0
   66.9976   31.9964   49.3047 H   0  0  0  0  0  0  0  0  0  0  0  0
   69.0981   32.6922   50.4523 H   0  0  0  0  0  0  0  0  0  0  0  0
   69.0194   34.3624   52.3044 H   0  0  0  0  0  0  0  0  0  0  0  0
   66.8364   35.3406   53.0131 H   0  0  0  0  0  0  0  0  0  0  0  0
   64.7270   34.6537   51.8747 H   0  0  0  0  0  0  0  0  0  0  0  0
   62.0280   30.7030   50.2700 H   0  0  0  0  0  0  0  0  0  0  0  0
   61.8987   29.6466   47.5218 H   0  0  0  0  0  0  0  0  0  0  0  0
   60.2303   29.4782   48.1721 H   0  0  0  0  0  0  0  0  0  0  0  0
   61.1028   30.4359   45.4062 H   0  0  0  0  0  0  0  0  0  0  0  0
   60.0423   29.0344   45.8426 H   0  0  0  0  0  0  0  0  0  0  0  0
   57.4264   32.5399   42.1029 H   0  0  0  0  0  0  0  0  0  0  0  0
   55.9486   30.5586   41.7424 H   0  0  0  0  0  0  0  0  0  0  0  0
   55.9945   28.6733   43.3770 H   0  0  0  0  0  0  0  0  0  0  0  0
   57.9174   32.4290   46.7951 H   0  0  0  0  0  0  0  0  0  0  0  0
   58.1457   30.9733   47.8311 H   0  0  0  0  0  0  0  0  0  0  0  0
   60.1194   33.2342   47.2688 H   0  0  0  0  0  0  0  0  0  0  0  0
   59.4546   32.6716   48.8554 H   0  0  0  0  0  0  0  0  0  0  0  0
  1  2  1  0
  2  3  2  0
  3  4  1  0
  4  5  1  0
  5  6  2  0
  6  7  1  0
  7  8  2  0
  8  9  1  0
  9 10  2  0
  4 11  2  0
 11 12  1  0
 12 13  2  0
 13 14  1  0
 14 15  1  0
 15 16  1  0
 16 17  1  0
 17 18  1  0
 18 19  2  0
 19 20  1  0
 20 21  2  0
 21 22  1  0
 22 23  2  0
 23 24  1  0
 24 25  1  0
 24 26  1  0
 24 27  1  0
 17 28  1  0
 28 29  1  0
 13  2  1  0
 29 14  1  0
 10  5  1  0
 23 18  1  0
  1 30  1  0
  1 31  1  0
  1 32  1  0
  3 33  1  0
  6 34  1  0
  7 35  1  0
  8 36  1  0
  9 37  1  0
 10 38  1  0
 12 39  1  0
 15 40  1  0
 15 41  1  0
 16 42  1  0
 16 43  1  0
 20 44  1  0
 21 45  1  0
 22 46  1  0
 28 47  1  0
 28 48  1  0
 29 49  1  0
 29 50  1  0
M  CHG  1  12   1
M  END
>  <UniqueID>  (26) 
23

>  <SMILES>  (26) 
Cc1cc(-c2ccccc2)n[nH+]c1N1CCN(c2ncccc2C(F)(F)F)CC1

>  <Energy>  (26) 
70.82381085724879

>  <Genealogy>  (26) 
Cc1cc(-c2ccccc2)n[nH+]c1N1CCN(c2ncccc2C(F)(F)F)CC1 (protonated)
Cc1cc(-c2ccccc2)n[nH+]c1N1CCN(c2ncccc2C(F)(F)F)CC1 (3D coordinates assigned)
Cc1cc(-c2ccccc2)n[nH+]c1N1CCN(c2ncccc2C(F)(F)F)CC1 (nonaromatic ring conformer: 70.82381085724879 kcal/mol)

>  <smiles>  (26) 
Cc1cc(-c2ccccc2)nnc1N1CCN(c2ncccc2C(F)(F)F)CC1

>  <score_type>  (26) 
oracle

>  <origin>  (26) 
adg

>  <m_score__min__energy>  (26) 
-6.0999999999999996

>  <m_primary>  (26) 
energy

$$$$
26:0
     RDKit          3D

 37 39  0  0  0  0  0  0  0  0999 V2000
   56.2590   31.1730   44.6470 O   0  0  0  0  0  0  0  0  0  0  0  0
   57.3390   30.5630   44.4240 C   0  0  0  0  0  0  0  0  0  0  0  0
   57.3010   29.2110   43.7790 C   0  0  0  0  0  0  0  0  0  0  0  0
   57.8780   28.2140   44.6810 N   0  0  0  0  0  0  0  0  0  0  0  0
   59.2690   28.0950   44.9720 C   0  0  0  0  0  0  0  0  0  0  0  0
   60.1470   28.7130   44.3140 O   0  0  0  0  0  0  0  0  0  0  0  0
   59.6960   27.0110   46.3350 S   0  0  0  0  0  0  0  0  0  0  0  0
   57.9490   26.6000   46.4780 C   0  0  0  0  0  0  0  0  0  0  0  0
   57.5350   25.6740   47.3580 C   0  0  0  0  0  0  0  0  0  0  0  0
   56.4660   24.6850   47.1200 C   0  0  0  0  0  0  0  0  0  0  0  0
   56.5710   23.4020   47.6740 C   0  0  0  0  0  0  0  0  0  0  0  0
   55.5880   22.4500   47.3950 C   0  0  0  0  0  0  0  0  0  0  0  0
   54.5230   22.7780   46.5550 C   0  0  0  0  0  0  0  0  0  0  0  0
   54.4620   24.0560   45.9980 C   0  0  0  0  0  0  0  0  0  0  0  0
   55.4300   24.9690   46.2810 N   0  0  0  0  0  0  0  0  0  0  0  0
   57.1210   27.4070   45.5730 C   0  0  0  0  0  0  0  0  0  0  0  0
   55.8630   27.4690   45.6240 O   0  0  0  0  0  0  0  0  0  0  0  0
   58.5980   31.1480   44.7910 N   0  0  0  0  0  0  0  0  0  0  0  0
   58.7320   32.2680   45.6830 C   0  0  0  0  0  0  0  0  0  0  0  0
   58.8180   33.5830   45.1920 C   0  0  0  0  0  0  0  0  0  0  0  0
   58.9190   34.6620   46.0760 C   0  0  0  0  0  0  0  0  0  0  0  0
   58.9230   34.4390   47.4550 C   0  0  0  0  0  0  0  0  0  0  0  0
   58.8170   33.1390   47.9520 C   0  0  0  0  0  0  0  0  0  0  0  0
   58.7140   32.0560   47.0730 C   0  0  0  0  0  0  0  0  0  0  0  0
   58.6120   30.7990   47.5750 F   0  0  0  0  0  0  0  0  0  0  0  0
   56.2578   28.9418   43.5568 H   0  0  0  0  0  0  0  0  0  0  0  0
   57.8842   29.2374   42.8467 H   0  0  0  0  0  0  0  0  0  0  0  0
   58.0343   25.6508   48.3379 H   0  0  0  0  0  0  0  0  0  0  0  0
   57.4212   23.1467   48.3236 H   0  0  0  0  0  0  0  0  0  0  0  0
   55.6531   21.4444   47.8361 H   0  0  0  0  0  0  0  0  0  0  0  0
   53.7402   22.0373   46.3344 H   0  0  0  0  0  0  0  0  0  0  0  0
   53.6308   24.3253   45.3298 H   0  0  0  0  0  0  0  0  0  0  0  0
   59.4610   30.7690   44.3390 H   0  0  0  0  0  0  0  0  0  0  0  0
   58.8058   33.7638   44.1070 H   0  0  0  0  0  0  0  0  0  0  0  0
   58.9954   35.6873   45.6850 H   0  0  0  0  0  0  0  0  0  0  0  0
   59.0097   35.2879   48.1492 H   0  0  0  0  0  0  0  0  0  0  0  0
   58.8145   32.9657   49.0383 H   0  0  0  0  0  0  0  0  0  0  0  0
  1  2  2  0
  2  3  1  0
  3  4  1  0
  4  5  1  0
  5  6  2  0
  5  7  1  0
  7  8  1  0
  8  9  2  3
  9 10  1  0
 10 11  2  0
 11 12  1  0
 12 13  2  0
 13 14  1  0
 14 15  2  0
  8 16  1  0
 16 17  2  0
  2 18  1  0
 18 19  1  0
 19 20  2  0
 20 21  1  0
 21 22  2  0
 22 23  1  0
 23 24  2  0
 24 25  1  0
 16  4  1  0
 24 19  1  0
 15 10  1  0
  3 26  1  0
  3 27  1  0
  9 28  1  0
 11 29  1  0
 12 30  1  0
 13 31  1  0
 14 32  1  0
 18 33  1  0
 20 34  1  0
 21 35  1  0
 22 36  1  0
 23 37  1  0
M  END
>  <UniqueID>  (27) 
24

>  <SMILES>  (27) 
O=C(CN1C(=O)SC(=Cc2ccccn2)C1=O)Nc1ccccc1F

>  <Energy>  (27) 
67.26023220350923

>  <Genealogy>  (27) 
O=C(CN1C(=O)SC(=Cc2ccccn2)C1=O)Nc1ccccc1F (3D coordinates assigned)
O=C(CN1C(=O)SC(=Cc2ccccn2)C1=O)Nc1ccccc1F (nonaromatic ring conformer: 67.26023220350923 kcal/mol)

>  <smiles>  (27) 
O=C(CN1C(=O)SC(=Cc2ccccn2)C1=O)Nc1ccccc1F

>  <score_type>  (27) 
oracle

>  <origin>  (27) 
adg

>  <m_score__min__energy>  (27) 
-7.8899999999999997

>  <m_primary>  (27) 
energy

$$$$
27:0
     RDKit          3D

 69 72  0  0  0  0  0  0  0  0999 V2000
   63.0710   29.4770   51.6290 C   0  0  0  0  0  0  0  0  0  0  0  0
   63.3100   30.6130   50.8060 O   0  0  0  0  0  0  0  0  0  0  0  0
   64.5410   31.2800   50.7050 C   0  0  0  0  0  0  0  0  0  0  0  0
   65.6620   30.8870   51.4650 C   0  0  0  0  0  0  0  0  0  0  0  0
   66.8660   31.5890   51.3680 C   0  0  0  0  0  0  0  0  0  0  0  0
   66.9670   32.6880   50.5150 C   0  0  0  0  0  0  0  0  0  0  0  0
   65.8670   33.0850   49.7530 C   0  0  0  0  0  0  0  0  0  0  0  0
   64.6520   32.3850   49.8340 C   0  0  0  0  0  0  0  0  0  0  0  0
   63.5290   32.8090   49.0370 N   0  0  0  0  0  0  0  0  0  0  0  0
   63.1060   32.0060   47.8800 C   0  0  0  0  0  0  0  0  0  0  0  0
   62.4300   32.8800   46.8190 C   0  0  0  0  0  0  0  0  0  0  0  0
   61.3620   33.6970   47.4120 N   0  0  0  0  0  0  0  0  0  0  0  0
   60.2740   34.1450   46.5760 C   0  0  0  0  0  0  0  0  0  0  0  0
   60.4410   34.2240   45.3280 O   0  0  0  0  0  0  0  0  0  0  0  0
   58.9550   34.5780   47.1660 C   0  0  0  0  0  0  0  0  0  0  0  0
   57.7480   34.0280   46.3960 C   0  0  0  0  0  0  0  0  0  0  0  0
   57.9640   32.6150   45.9220 C   0  0  0  0  0  0  0  0  0  0  0  0
   57.5440   32.1690   44.7200 N   0  0  0  0  0  0  0  0  0  0  0  0
   57.7810   30.8440   44.6970 C   0  0  0  0  0  0  0  0  0  0  0  0
   57.4140   29.9970   43.6070 N   0  0  0  0  0  0  0  0  0  0  0  0
   58.3710   30.4290   45.8760 C   0  0  0  0  0  0  0  0  0  0  0  0
   58.6840   29.0390   46.2500 C   0  0  0  0  0  0  0  0  0  0  0  0
   57.7440   28.2970   46.6390 O   0  0  0  0  0  0  0  0  0  0  0  0
   60.0870   28.4730   46.1950 C   0  0  0  0  0  0  0  0  0  0  0  0
   60.7700   28.8270   44.8700 C   0  0  0  0  0  0  0  0  0  0  0  0
   60.1250   26.9580   46.4460 C   0  0  0  0  0  0  0  0  0  0  0  0
   58.4980   31.5640   46.6620 C   0  0  0  0  0  0  0  0  0  0  0  0
   58.9090   31.6050   48.0730 C   0  0  0  0  0  0  0  0  0  0  0  0
   60.0730   30.9340   48.4810 C   0  0  0  0  0  0  0  0  0  0  0  0
   60.4800   30.9850   49.8170 C   0  0  0  0  0  0  0  0  0  0  0  0
   59.7290   31.7060   50.7520 C   0  0  0  0  0  0  0  0  0  0  0  0
   60.2470   31.7740   52.4260 Cl  0  0  0  0  0  0  0  0  0  0  0  0
   58.5690   32.3780   50.3480 C   0  0  0  0  0  0  0  0  0  0  0  0
   58.1620   32.3320   49.0120 C   0  0  0  0  0  0  0  0  0  0  0  0
   61.4530   34.1300   48.8150 C   0  0  0  0  0  0  0  0  0  0  0  0
   62.9010   34.1070   49.3120 C   0  0  0  0  0  0  0  0  0  0  0  0
   63.1329   29.7712   52.6871 H   0  0  0  0  0  0  0  0  0  0  0  0
   62.0688   29.0757   51.4180 H   0  0  0  0  0  0  0  0  0  0  0  0
   63.8266   28.7059   51.4180 H   0  0  0  0  0  0  0  0  0  0  0  0
   65.5879   30.0211   52.1393 H   0  0  0  0  0  0  0  0  0  0  0  0
   67.7350   31.2748   51.9648 H   0  0  0  0  0  0  0  0  0  0  0  0
   67.9144   33.2423   50.4428 H   0  0  0  0  0  0  0  0  0  0  0  0
   65.9524   33.9535   49.0833 H   0  0  0  0  0  0  0  0  0  0  0  0
   63.9887   31.5215   47.4371 H   0  0  0  0  0  0  0  0  0  0  0  0
   62.3826   31.2521   48.2240 H   0  0  0  0  0  0  0  0  0  0  0  0
   63.1820   33.5438   46.3673 H   0  0  0  0  0  0  0  0  0  0  0  0
   61.9865   32.2241   46.0554 H   0  0  0  0  0  0  0  0  0  0  0  0
   58.9010   34.2208   48.2050 H   0  0  0  0  0  0  0  0  0  0  0  0
   58.9116   35.6756   47.1079 H   0  0  0  0  0  0  0  0  0  0  0  0
   56.8686   34.0484   47.0565 H   0  0  0  0  0  0  0  0  0  0  0  0
   57.6004   34.6604   45.5082 H   0  0  0  0  0  0  0  0  0  0  0  0
   57.0710   32.7280   43.9750 H   0  0  0  0  0  0  0  0  0  0  0  0
   56.4760   29.5430   43.5880 H   0  0  0  0  0  0  0  0  0  0  0  0
   58.0830   29.8110   42.8270 H   0  0  0  0  0  0  0  0  0  0  0  0
   60.6496   28.9432   47.0150 H   0  0  0  0  0  0  0  0  0  0  0  0
   61.7297   29.3244   45.0736 H   0  0  0  0  0  0  0  0  0  0  0  0
   60.9486   27.9080   44.2925 H   0  0  0  0  0  0  0  0  0  0  0  0
   60.1220   29.5028   44.2925 H   0  0  0  0  0  0  0  0  0  0  0  0
   60.1298   26.7658   47.5291 H   0  0  0  0  0  0  0  0  0  0  0  0
   59.2383   26.4892   45.9943 H   0  0  0  0  0  0  0  0  0  0  0  0
   61.0341   26.5342   45.9943 H   0  0  0  0  0  0  0  0  0  0  0  0
   60.6656   30.3672   47.7478 H   0  0  0  0  0  0  0  0  0  0  0  0
   61.3919   30.4577   50.1340 H   0  0  0  0  0  0  0  0  0  0  0  0
   57.9772   32.9429   51.0833 H   0  0  0  0  0  0  0  0  0  0  0  0
   57.2542   32.8668   48.6960 H   0  0  0  0  0  0  0  0  0  0  0  0
   61.0614   35.1544   48.8999 H   0  0  0  0  0  0  0  0  0  0  0  0
   60.8635   33.4354   49.4314 H   0  0  0  0  0  0  0  0  0  0  0  0
   63.4698   34.8977   48.8008 H   0  0  0  0  0  0  0  0  0  0  0  0
   62.9020   34.2744   50.3992 H   0  0  0  0  0  0  0  0  0  0  0  0
  1  2  1  0
  2  3  1  0
  3  4  2  0
  4  5  1  0
  5  6  2  0
  6  7  1  0
  7  8  2  0
  8  9  1  0
  9 10  1  0
 10 11  1  0
 11 12  1  0
 12 13  1  0
 13 14  2  0
 13 15  1  0
 15 16  1  0
 16 17  1  0
 17 18  1  0
 18 19  1  0
 19 20  1  0
 19 21  2  0
 21 22  1  0
 22 23  2  0
 22 24  1  0
 24 25  1  0
 24 26  1  0
 21 27  1  0
 27 28  1  0
 28 29  2  0
 29 30  1  0
 30 31  2  0
 31 32  1  0
 31 33  1  0
 33 34  2  0
 12 35  1  0
 35 36  1  0
  8  3  1  0
 36  9  1  0
 27 17  2  0
 34 28  1  0
  1 37  1  0
  1 38  1  0
  1 39  1  0
  4 40  1  0
  5 41  1  0
  6 42  1  0
  7 43  1  0
 10 44  1  0
 10 45  1  0
 11 46  1  0
 11 47  1  0
 15 48  1  0
 15 49  1  0
 16 50  1  0
 16 51  1  0
 18 52  1  0
 20 53  1  0
 20 54  1  0
 24 55  1  0
 25 56  1  0
 25 57  1  0
 25 58  1  0
 26 59  1  0
 26 60  1  0
 26 61  1  0
 29 62  1  0
 30 63  1  0
 33 64  1  0
 34 65  1  0
 35 66  1  0
 35 67  1  0
 36 68  1  0
 36 69  1  0
M  END
>  <UniqueID>  (28) 
25

>  <SMILES>  (28) 
COc1ccccc1N1CCN(C(=O)CCc2[nH]c(N)c(C(=O)C(C)C)c2-c2ccc(Cl)cc2)CC1

>  <Energy>  (28) 
106.41298648194476

>  <Genealogy>  (28) 
COc1ccccc1N1CCN(C(=O)CCc2[nH]c(N)c(C(=O)C(C)C)c2-c2ccc(Cl)cc2)CC1 (3D coordinates assigned)
COc1ccccc1N1CCN(C(=O)CCc2[nH]c(N)c(C(=O)C(C)C)c2-c2ccc(Cl)cc2)CC1 (nonaromatic ring conformer: 106.41298648194476 kcal/mol)

>  <smiles>  (28) 
COc1ccccc1N1CCN(C(=O)CCc2[nH]c(N)c(C(=O)C(C)C)c2-c2ccc(Cl)cc2)CC1

>  <score_type>  (28) 
oracle

>  <origin>  (28) 
adg

>  <m_score__min__energy>  (28) 
-9.0899999999999999

>  <m_primary>  (28) 
energy

$$$$
28:0
     RDKit          3D

 32 34  0  0  1  0  0  0  0  0999 V2000
   57.9210   32.2540   43.6820 C   0  0  0  0  0  0  0  0  0  0  0  0
   57.2770   31.0680   44.2190 N   0  0  0  0  0  0  0  0  0  0  0  0
   56.0130   30.8700   44.4860 N   0  0  0  0  0  0  0  0  0  0  0  0
   55.8330   29.6530   44.9670 N   0  0  0  0  0  0  0  0  0  0  0  0
   57.0160   29.0270   45.0180 C   0  0  0  0  0  0  0  0  0  0  0  0
   57.4050   27.7650   45.4300 C   0  0  0  0  0  0  0  0  0  0  0  0
   56.5840   26.9500   45.8620 N   0  0  0  0  0  0  0  0  0  0  0  0
   56.6090   25.6540   46.3330 C   0  0  0  0  0  0  0  0  0  0  0  0
   56.7180   24.4660   45.4850 C   0  0  0  0  0  0  0  0  0  0  0  0
   55.6990   24.0710   44.5900 C   0  0  0  0  0  0  0  0  0  0  0  0
   55.8560   22.9900   43.7720 C   0  0  0  0  0  0  0  0  0  0  0  0
   57.0210   22.2270   43.7810 C   0  0  0  0  0  0  0  0  0  0  0  0
   57.1570   21.1030   42.9170 N   0  0  0  0  0  0  0  0  0  0  0  0
   58.0350   22.5970   44.6510 C   0  0  0  0  0  0  0  0  0  0  0  0
   57.8640   23.7090   45.4850 C   0  0  0  0  0  0  0  0  0  0  0  0
   58.8640   24.0630   46.3330 F   0  0  0  0  0  0  0  0  0  0  0  0
   58.6930   27.4250   45.3590 N   0  0  0  0  0  0  0  0  0  0  0  0
   59.5960   28.2930   44.8970 C   0  0  0  0  0  0  0  0  0  0  0  0
   59.2350   29.5410   44.4870 N   0  0  0  0  0  0  0  0  0  0  0  0
   57.9500   29.9460   44.5330 C   0  0  0  0  0  0  0  0  0  0  0  0
   58.2665   32.8903   44.5100 H   0  0  0  0  0  0  0  0  0  0  0  0
   58.7814   31.9563   43.0646 H   0  0  0  0  0  0  0  0  0  0  0  0
   57.2028   32.8135   43.0646 H   0  0  0  0  0  0  0  0  0  0  0  0
   57.4659   25.6059   47.0211 H   0  0  0  0  0  0  0  0  0  0  0  0
   55.5766   25.5498   46.6980 H   0  0  0  0  0  0  0  0  0  0  0  0
   54.7616   24.6454   44.5517 H   0  0  0  0  0  0  0  0  0  0  0  0
   55.0406   22.7139   43.0872 H   0  0  0  0  0  0  0  0  0  0  0  0
   57.3980   20.1760   43.3460 H   0  0  0  0  0  0  0  0  0  0  0  0
   57.0190   21.2010   41.8910 H   0  0  0  0  0  0  0  0  0  0  0  0
   58.9704   22.0193   44.6861 H   0  0  0  0  0  0  0  0  0  0  0  0
   58.9690   26.5050   45.6590 H   0  0  0  0  0  0  0  0  0  0  0  0
   60.6535   27.9943   44.8463 H   0  0  0  0  0  0  0  0  0  0  0  0
  1  2  1  0
  2  3  1  0
  3  4  2  0
  4  5  1  0
  5  6  1  0
  6  7  2  0
  7  8  1  0
  8  9  1  0
  9 10  2  0
 10 11  1  0
 11 12  2  0
 12 13  1  0
 12 14  1  0
 14 15  2  0
 15 16  1  0
  6 17  1  0
 17 18  1  0
 18 19  2  0
 19 20  1  0
 20  2  1  0
 20  5  2  0
 15  9  1  0
  1 21  1  0
  1 22  1  0
  1 23  1  0
  8 24  1  0
  8 25  1  0
 10 26  1  0
 11 27  1  0
 13 28  1  0
 13 29  1  0
 14 30  1  0
 17 31  1  0
 18 32  1  0
M  END
>  <smiles>  (29) 
Cn1nnc2c(=NCc3ccc(N)cc3F)[nH]cnc21

>  <score_type>  (29) 
oracle

>  <origin>  (29) 
adg

>  <m_score__min__energy>  (29) 
-6.7400000000000002

>  <m_primary>  (29) 
energy

$$$$
29:0
     RDKit          3D

 52 54  0  0  0  0  0  0  0  0999 V2000
   63.2250   33.8040   46.4220 C   0  0  0  0  0  0  0  0  0  0  0  0
   62.0720   33.4890   47.3300 C   0  0  0  0  0  0  0  0  0  0  0  0
   62.0600   33.9650   48.6440 C   0  0  0  0  0  0  0  0  0  0  0  0
   61.0060   33.6440   49.4990 C   0  0  0  0  0  0  0  0  0  0  0  0
   59.9420   32.8380   49.0590 C   0  0  0  0  0  0  0  0  0  0  0  0
   58.8400   32.5020   50.0300 C   0  0  0  0  0  0  0  0  0  0  0  0
   59.9560   32.3380   47.7310 C   0  0  0  0  0  0  0  0  0  0  0  0
   58.8490   31.4730   47.1680 C   0  0  0  0  0  0  0  0  0  0  0  0
   57.9930   32.3110   45.7860 S   0  0  0  0  0  0  0  0  0  0  0  0
   57.5680   30.7960   44.9230 C   0  0  0  0  0  0  0  0  0  0  0  0
   56.3220   30.5120   44.5030 N   0  0  0  0  0  0  0  0  0  0  0  0
   56.3770   29.3330   43.9010 N   0  0  0  0  0  0  0  0  0  0  0  0
   57.6590   28.9190   43.9570 C   0  0  0  0  0  0  0  0  0  0  0  0
   58.1210   27.5970   43.4100 C   0  0  0  0  0  0  0  0  0  0  0  0
   57.9500   26.4810   44.4410 C   0  0  0  0  0  0  0  0  0  0  0  0
   56.8840   26.8310   45.3880 N   0  0  0  0  0  0  0  0  0  0  0  0
   55.9990   25.4090   45.8520 S   0  0  0  0  0  0  0  0  0  0  0  0
   56.2480   25.1150   47.3050 O   0  0  0  0  0  0  0  0  0  0  0  0
   54.5260   25.6410   45.6480 O   0  0  0  0  0  0  0  0  0  0  0  0
   56.5560   24.0470   44.8820 C   0  0  0  0  0  0  0  0  0  0  0  0
   57.6220   23.2410   45.3150 C   0  0  0  0  0  0  0  0  0  0  0  0
   58.0140   22.1320   44.5600 C   0  0  0  0  0  0  0  0  0  0  0  0
   57.3410   21.8180   43.3750 C   0  0  0  0  0  0  0  0  0  0  0  0
   56.2800   22.6170   42.9400 C   0  0  0  0  0  0  0  0  0  0  0  0
   55.8850   23.7280   43.6930 C   0  0  0  0  0  0  0  0  0  0  0  0
   58.4320   29.8080   44.6130 N   0  0  0  0  0  0  0  0  0  0  0  0
   59.8620   29.7180   44.9050 C   0  0  0  0  0  0  0  0  0  0  0  0
   61.0330   32.6600   46.8870 C   0  0  0  0  0  0  0  0  0  0  0  0
   64.1118   34.0463   47.0260 H   0  0  0  0  0  0  0  0  0  0  0  0
   63.4408   32.9319   45.7873 H   0  0  0  0  0  0  0  0  0  0  0  0
   62.9674   34.6647   45.7873 H   0  0  0  0  0  0  0  0  0  0  0  0
   62.8856   34.5957   49.0054 H   0  0  0  0  0  0  0  0  0  0  0  0
   61.0074   34.0263   50.5304 H   0  0  0  0  0  0  0  0  0  0  0  0
   59.2111   32.6152   51.0593 H   0  0  0  0  0  0  0  0  0  0  0  0
   57.9902   33.1819   49.8698 H   0  0  0  0  0  0  0  0  0  0  0  0
   58.5141   31.4637   49.8698 H   0  0  0  0  0  0  0  0  0  0  0  0
   59.2812   30.5296   46.8031 H   0  0  0  0  0  0  0  0  0  0  0  0
   58.1168   31.2810   47.9661 H   0  0  0  0  0  0  0  0  0  0  0  0
   57.5295   27.3525   42.5154 H   0  0  0  0  0  0  0  0  0  0  0  0
   59.1889   27.6783   43.1590 H   0  0  0  0  0  0  0  0  0  0  0  0
   57.6864   25.5459   43.9252 H   0  0  0  0  0  0  0  0  0  0  0  0
   58.8934   26.3504   44.9915 H   0  0  0  0  0  0  0  0  0  0  0  0
   56.2130   27.4780   44.9140 H   0  0  0  0  0  0  0  0  0  0  0  0
   58.1490   23.4830   46.2497 H   0  0  0  0  0  0  0  0  0  0  0  0
   58.8526   21.5056   44.8982 H   0  0  0  0  0  0  0  0  0  0  0  0
   57.6469   20.9416   42.7849 H   0  0  0  0  0  0  0  0  0  0  0  0
   55.7551   22.3721   42.0048 H   0  0  0  0  0  0  0  0  0  0  0  0
   55.0463   24.3525   43.3515 H   0  0  0  0  0  0  0  0  0  0  0  0
   60.0139   29.7084   45.9944 H   0  0  0  0  0  0  0  0  0  0  0  0
   60.2675   28.7926   44.4701 H   0  0  0  0  0  0  0  0  0  0  0  0
   60.3803   30.5853   44.4701 H   0  0  0  0  0  0  0  0  0  0  0  0
   61.0604   32.2555   45.8645 H   0  0  0  0  0  0  0  0  0  0  0  0
  1  2  1  0
  2  3  2  0
  3  4  1  0
  4  5  2  0
  5  6  1  0
  5  7  1  0
  7  8  1  0
  8  9  1  0
  9 10  1  0
 10 11  2  0
 11 12  1  0
 12 13  2  0
 13 14  1  0
 14 15  1  0
 15 16  1  0
 16 17  1  0
 17 18  2  0
 17 19  2  0
 17 20  1  0
 20 21  2  0
 21 22  1  0
 22 23  2  0
 23 24  1  0
 24 25  2  0
 13 26  1  0
 26 27  1  0
  7 28  2  0
 28  2  1  0
 26 10  1  0
 25 20  1  0
  1 29  1  0
  1 30  1  0
  1 31  1  0
  3 32  1  0
  4 33  1  0
  6 34  1  0
  6 35  1  0
  6 36  1  0
  8 37  1  0
  8 38  1  0
 14 39  1  0
 14 40  1  0
 15 41  1  0
 15 42  1  0
 16 43  1  0
 21 44  1  0
 22 45  1  0
 23 46  1  0
 24 47  1  0
 25 48  1  0
 27 49  1  0
 27 50  1  0
 27 51  1  0
 28 52  1  0
M  END
>  <UniqueID>  (30) 
26

>  <SMILES>  (30) 
Cc1ccc(C)c(CSc2nnc(CCNS(=O)(=O)c3ccccc3)n2C)c1

>  <Energy>  (30) 
74.5254854516434

>  <Genealogy>  (30) 
Cc1ccc(C)c(CSc2nnc(CCNS(=O)(=O)c3ccccc3)n2C)c1 (3D coordinates assigned)
Cc1ccc(C)c(CSc2nnc(CCNS(=O)(=O)c3ccccc3)n2C)c1 (optimized conformer: 74.5254854516434 kcal/mol)

>  <smiles>  (30) 
Cc1ccc(C)c(CSc2nnc(CCNS(=O)(=O)c3ccccc3)n2C)c1

>  <score_type>  (30) 
oracle

>  <origin>  (30) 
adg

>  <m_score__min__energy>  (30) 
-10.69

>  <m_primary>  (30) 
energy

$$$$
30:0
     RDKit          3D

 63 67  0  0  0  0  0  0  0  0999 V2000
   56.9490   29.6610   52.9800 C   0  0  0  0  0  0  0  0  0  0  0  0
   56.9450   30.4750   51.8130 O   0  0  0  0  0  0  0  0  0  0  0  0
   57.9840   30.5110   50.8710 C   0  0  0  0  0  0  0  0  0  0  0  0
   58.3170   31.6780   50.1600 C   0  0  0  0  0  0  0  0  0  0  0  0
   59.3670   31.6640   49.2370 C   0  0  0  0  0  0  0  0  0  0  0  0
   60.1220   30.4950   49.0360 C   0  0  0  0  0  0  0  0  0  0  0  0
   61.2330   30.4480   48.0160 C   0  0  0  0  0  0  0  0  0  0  0  0
   60.9590   29.5120   46.9720 O   0  0  0  0  0  0  0  0  0  0  0  0
   59.7370   29.3680   46.2890 C   0  0  0  0  0  0  0  0  0  0  0  0
   58.9560   30.4880   45.9340 C   0  0  0  0  0  0  0  0  0  0  0  0
   57.7400   30.3300   45.2470 C   0  0  0  0  0  0  0  0  0  0  0  0
   56.9290   31.4160   44.8760 O   0  0  0  0  0  0  0  0  0  0  0  0
   57.3870   32.6320   44.2820 C   0  0  0  0  0  0  0  0  0  0  0  0
   58.1160   33.5090   45.2700 C   0  0  0  0  0  0  0  0  0  0  0  0
   57.8060   33.4110   46.6360 C   0  0  0  0  0  0  0  0  0  0  0  0
   58.5270   34.1500   47.5790 C   0  0  0  0  0  0  0  0  0  0  0  0
   59.5540   35.0000   47.1660 C   0  0  0  0  0  0  0  0  0  0  0  0
   59.8760   35.1010   45.8110 C   0  0  0  0  0  0  0  0  0  0  0  0
   59.1730   34.3470   44.8660 C   0  0  0  0  0  0  0  0  0  0  0  0
   57.3040   29.0490   44.9120 C   0  0  0  0  0  0  0  0  0  0  0  0
   58.0570   27.9260   45.2550 C   0  0  0  0  0  0  0  0  0  0  0  0
   57.6060   26.7200   44.9200 O   0  0  0  0  0  0  0  0  0  0  0  0
   58.2540   25.5920   45.2030 C   0  0  0  0  0  0  0  0  0  0  0  0
   57.6580   24.3000   44.7810 C   0  0  0  0  0  0  0  0  0  0  0  0
   56.8410   24.2560   43.6370 C   0  0  0  0  0  0  0  0  0  0  0  0
   56.2690   23.0510   43.2160 C   0  0  0  0  0  0  0  0  0  0  0  0
   56.5110   21.8630   43.9290 C   0  0  0  0  0  0  0  0  0  0  0  0
   55.9560   20.6310   43.5510 O   0  0  0  0  0  0  0  0  0  0  0  0
   55.8900   19.4870   44.3960 C   0  0  0  0  0  0  0  0  0  0  0  0
   57.3370   21.9020   45.0560 C   0  0  0  0  0  0  0  0  0  0  0  0
   57.9100   23.1040   45.4790 C   0  0  0  0  0  0  0  0  0  0  0  0
   59.4680   25.6530   45.9030 C   0  0  0  0  0  0  0  0  0  0  0  0
   59.9850   26.8940   46.2770 C   0  0  0  0  0  0  0  0  0  0  0  0
   61.0760   26.9350   46.9080 O   0  0  0  0  0  0  0  0  0  0  0  0
   59.2800   28.0720   45.9480 C   0  0  0  0  0  0  0  0  0  0  0  0
   59.7770   29.3300   49.7350 C   0  0  0  0  0  0  0  0  0  0  0  0
   58.7120   29.3400   50.6400 C   0  0  0  0  0  0  0  0  0  0  0  0
   56.9459   30.3018   53.8740 H   0  0  0  0  0  0  0  0  0  0  0  0
   56.0540   29.0215   52.9841 H   0  0  0  0  0  0  0  0  0  0  0  0
   57.8503   29.0303   52.9841 H   0  0  0  0  0  0  0  0  0  0  0  0
   57.7495   32.6047   50.3307 H   0  0  0  0  0  0  0  0  0  0  0  0
   59.6039   32.5730   48.6646 H   0  0  0  0  0  0  0  0  0  0  0  0
   61.3527   31.4483   47.5743 H   0  0  0  0  0  0  0  0  0  0  0  0
   62.1524   30.1278   48.5281 H   0  0  0  0  0  0  0  0  0  0  0  0
   59.3031   31.4978   46.1982 H   0  0  0  0  0  0  0  0  0  0  0  0
   58.0693   32.3872   43.4547 H   0  0  0  0  0  0  0  0  0  0  0  0
   56.5066   33.1858   43.9239 H   0  0  0  0  0  0  0  0  0  0  0  0
   56.9916   32.7493   46.9660 H   0  0  0  0  0  0  0  0  0  0  0  0
   58.2843   34.0613   48.6482 H   0  0  0  0  0  0  0  0  0  0  0  0
   60.1103   35.5909   47.9085 H   0  0  0  0  0  0  0  0  0  0  0  0
   60.6832   35.7742   45.4867 H   0  0  0  0  0  0  0  0  0  0  0  0
   59.4470   34.4088   43.8025 H   0  0  0  0  0  0  0  0  0  0  0  0
   56.3548   28.9222   44.3707 H   0  0  0  0  0  0  0  0  0  0  0  0
   56.6501   25.1779   43.0680 H   0  0  0  0  0  0  0  0  0  0  0  0
   55.6269   23.0324   42.3231 H   0  0  0  0  0  0  0  0  0  0  0  0
   55.9085   19.8069   45.4483 H   0  0  0  0  0  0  0  0  0  0  0  0
   54.9586   18.9369   44.1963 H   0  0  0  0  0  0  0  0  0  0  0  0
   56.7519   18.8334   44.1963 H   0  0  0  0  0  0  0  0  0  0  0  0
   57.5380   20.9766   45.6157 H   0  0  0  0  0  0  0  0  0  0  0  0
   58.5630   23.1157   46.3642 H   0  0  0  0  0  0  0  0  0  0  0  0
   60.0088   24.7289   46.1554 H   0  0  0  0  0  0  0  0  0  0  0  0
   60.3470   28.4037   49.5705 H   0  0  0  0  0  0  0  0  0  0  0  0
   58.4440   28.4175   51.1758 H   0  0  0  0  0  0  0  0  0  0  0  0
  1  2  1  0
  2  3  1  0
  3  4  2  0
  4  5  1  0
  5  6  2  0
  6  7  1  0
  7  8  1  0
  8  9  1  0
  9 10  2  0
 10 11  1  0
 11 12  1  0
 12 13  1  0
 13 14  1  0
 14 15  2  0
 15 16  1  0
 16 17  2  0
 17 18  1  0
 18 19  2  0
 11 20  2  0
 20 21  1  0
 21 22  1  0
 22 23  1  0
 23 24  1  0
 24 25  2  0
 25 26  1  0
 26 27  2  0
 27 28  1  0
 28 29  1  0
 27 30  1  0
 30 31  2  0
 23 32  2  0
 32 33  1  0
 33 34  2  0
 33 35  1  0
  6 36  1  0
 36 37  2  0
 37  3  1  0
 35  9  1  0
 19 14  1  0
 35 21  2  0
 31 24  1  0
  1 38  1  0
  1 39  1  0
  1 40  1  0
  4 41  1  0
  5 42  1  0
  7 43  1  0
  7 44  1  0
 10 45  1  0
 13 46  1  0
 13 47  1  0
 15 48  1  0
 16 49  1  0
 17 50  1  0
 18 51  1  0
 19 52  1  0
 20 53  1  0
 25 54  1  0
 26 55  1  0
 29 56  1  0
 29 57  1  0
 29 58  1  0
 30 59  1  0
 31 60  1  0
 32 61  1  0
 36 62  1  0
 37 63  1  0
M  END
>  <UniqueID>  (31) 
27

>  <SMILES>  (31) 
COc1ccc(COc2cc(OCc3ccccc3)cc3oc(-c4ccc(OC)cc4)cc(=O)c23)cc1

>  <Energy>  (31) 
75.01780482678134

>  <Genealogy>  (31) 
COc1ccc(COc2cc(OCc3ccccc3)cc3oc(-c4ccc(OC)cc4)cc(=O)c23)cc1 (3D coordinates assigned)
COc1ccc(COc2cc(OCc3ccccc3)cc3oc(-c4ccc(OC)cc4)cc(=O)c23)cc1 (optimized conformer: 75.01780482678134 kcal/mol)

>  <smiles>  (31) 
COc1ccc(COc2cc(OCc3ccccc3)cc3oc(-c4ccc(OC)cc4)cc(=O)c23)cc1

>  <score_type>  (31) 
oracle

>  <origin>  (31) 
adg

>  <m_score__min__energy>  (31) 
-9.4100000000000001

>  <m_primary>  (31) 
energy

$$$$
31:0
     RDKit          3D

 54 57  0  0  0  0  0  0  0  0999 V2000
   61.7290   30.8200   46.3750 O   0  0  0  0  0  0  0  0  0  0  0  0
   60.8710   30.2030   47.0660 C   0  0  0  0  0  0  0  0  0  0  0  0
   60.9100   30.3130   48.5080 N   0  0  0  0  0  0  0  0  0  0  0  0
   61.7380   31.3070   49.1360 C   0  0  0  0  0  0  0  0  0  0  0  0
   62.6710   30.9350   50.1190 C   0  0  0  0  0  0  0  0  0  0  0  0
   63.4800   31.9000   50.7240 C   0  0  0  0  0  0  0  0  0  0  0  0
   63.3700   33.2420   50.3490 C   0  0  0  0  0  0  0  0  0  0  0  0
   62.4500   33.6200   49.3670 C   0  0  0  0  0  0  0  0  0  0  0  0
   62.3470   34.9210   49.0000 F   0  0  0  0  0  0  0  0  0  0  0  0
   61.6370   32.6570   48.7600 C   0  0  0  0  0  0  0  0  0  0  0  0
   60.0310   29.4980   49.3520 C   0  0  0  0  0  0  0  0  0  0  0  0
   59.6050   28.2350   48.6210 C   0  0  0  0  0  0  0  0  0  0  0  0
   58.9710   28.6210   47.2870 C   0  0  0  0  0  0  0  0  0  0  0  0
   59.9240   29.3290   46.3950 N   0  0  1  0  0  0  0  0  0  0  0  0
   59.2170   29.9840   45.2540 C   0  0  0  0  0  0  0  0  0  0  0  0
   57.7060   30.3700   45.4550 C   0  0  2  0  0  0  0  0  0  0  0  0
   56.6630   29.3970   44.8360 C   0  0  0  0  0  0  0  0  0  0  0  0
   56.1510   29.8270   43.4430 C   0  0  0  0  0  0  0  0  0  0  0  0
   57.1330   30.6350   42.7120 N   0  0  0  0  0  0  0  0  0  0  0  0
   57.4520   31.9040   43.3960 C   0  0  0  0  0  0  0  0  0  0  0  0
   57.3950   31.8050   44.9480 C   0  0  2  0  0  0  0  0  0  0  0  0
   58.1840   32.8910   45.6730 C   0  0  0  0  0  0  0  0  0  0  0  0
   58.2300   32.9790   47.0810 C   0  0  0  0  0  0  0  0  0  0  0  0
   58.9450   34.0060   47.7050 C   0  0  0  0  0  0  0  0  0  0  0  0
   59.6140   34.9620   46.9400 C   0  0  0  0  0  0  0  0  0  0  0  0
   59.5630   34.8990   45.5470 C   0  0  0  0  0  0  0  0  0  0  0  0
   58.8490   33.8760   44.9160 C   0  0  0  0  0  0  0  0  0  0  0  0
   62.7647   29.8793   50.4133 H   0  0  0  0  0  0  0  0  0  0  0  0
   64.2046   31.6033   51.4966 H   0  0  0  0  0  0  0  0  0  0  0  0
   64.0074   34.0006   50.8267 H   0  0  0  0  0  0  0  0  0  0  0  0
   60.9160   32.9577   47.9855 H   0  0  0  0  0  0  0  0  0  0  0  0
   60.5685   29.2198   50.2706 H   0  0  0  0  0  0  0  0  0  0  0  0
   59.1334   30.0843   49.5981 H   0  0  0  0  0  0  0  0  0  0  0  0
   60.4843   27.5991   48.4408 H   0  0  0  0  0  0  0  0  0  0  0  0
   58.8768   27.6808   49.2313 H   0  0  0  0  0  0  0  0  0  0  0  0
   58.6256   27.7070   46.7817 H   0  0  0  0  0  0  0  0  0  0  0  0
   58.1347   29.3041   47.4966 H   0  0  0  0  0  0  0  0  0  0  0  0
   60.5160   28.5710   45.9770 H   0  0  0  0  0  0  0  0  0  0  0  0
   59.7634   30.9086   45.0162 H   0  0  0  0  0  0  0  0  0  0  0  0
   59.2062   29.2229   44.4599 H   0  0  0  0  0  0  0  0  0  0  0  0
   57.5908   30.3027   46.5469 H   0  0  0  0  0  0  0  0  0  0  0  0
   57.1287   28.4049   44.7422 H   0  0  0  0  0  0  0  0  0  0  0  0
   55.7922   29.3946   45.5081 H   0  0  0  0  0  0  0  0  0  0  0  0
   55.9275   28.9248   42.8547 H   0  0  0  0  0  0  0  0  0  0  0  0
   55.2524   30.4439   43.5913 H   0  0  0  0  0  0  0  0  0  0  0  0
   58.0050   30.0720   42.5800 H   0  0  0  0  0  0  0  0  0  0  0  0
   58.4670   32.2112   43.1039 H   0  0  0  0  0  0  0  0  0  0  0  0
   56.6900   32.6362   43.0907 H   0  0  0  0  0  0  0  0  0  0  0  0
   56.3491   32.0108   45.2195 H   0  0  0  0  0  0  0  0  0  0  0  0
   57.6993   32.2340   47.6921 H   0  0  0  0  0  0  0  0  0  0  0  0
   58.9802   34.0604   48.8031 H   0  0  0  0  0  0  0  0  0  0  0  0
   60.1810   35.7645   47.4345 H   0  0  0  0  0  0  0  0  0  0  0  0
   60.0858   35.6560   44.9440 H   0  0  0  0  0  0  0  0  0  0  0  0
   58.8059   33.8397   43.8174 H   0  0  0  0  0  0  0  0  0  0  0  0
  1  2  2  0
  2  3  1  0
  3  4  1  0
  4  5  2  0
  5  6  1  0
  6  7  2  0
  7  8  1  0
  8  9  1  0
  8 10  2  0
  3 11  1  0
 11 12  1  0
 12 13  1  0
 13 14  1  0
 14 15  1  0
 15 16  1  0
 16 17  1  0
 17 18  1  0
 18 19  1  0
 19 20  1  0
 20 21  1  0
 21 22  1  0
 22 23  2  0
 23 24  1  0
 24 25  2  0
 25 26  1  0
 26 27  2  0
 14  2  1  0
 21 16  1  0
 27 22  1  0
 10  4  1  0
  5 28  1  0
  6 29  1  0
  7 30  1  0
 10 31  1  0
 11 32  1  0
 11 33  1  0
 12 34  1  0
 12 35  1  0
 13 36  1  0
 13 37  1  0
 14 38  1  6
 15 39  1  0
 15 40  1  0
 16 41  1  1
 17 42  1  0
 17 43  1  0
 18 44  1  0
 18 45  1  0
 19 46  1  0
 20 47  1  0
 20 48  1  0
 21 49  1  1
 23 50  1  0
 24 51  1  0
 25 52  1  0
 26 53  1  0
 27 54  1  0
M  CHG  1  14   1
M  END
>  <UniqueID>  (32) 
28

>  <SMILES>  (32) 
O=C1N(c2cccc(F)c2)CCC[N@H+]1C[C@@H]1CCNCC1c1ccccc1

>  <Energy>  (32) 
86.79362833511945

>  <Genealogy>  (32) 
O=C1N(c2cccc(F)c2)CCC[NH+]1CC1CCNCC1c1ccccc1 (protonated)
O=C1N(c2cccc(F)c2)CCC[N@H+]1C[C@@H]1CCNCC1c1ccccc1 (chirality)
O=C1N(c2cccc(F)c2)CCC[N@H+]1C[C@@H]1CCNCC1c1ccccc1 (3D coordinates assigned)
O=C1N(c2cccc(F)c2)CCC[N@H+]1C[C@@H]1CCNCC1c1ccccc1 (nonaromatic ring conformer: 86.79362833511945 kcal/mol)

>  <smiles>  (32) 
O=C1N(CC2CCNCC2c2ccccc2)CCCN1c1cccc(F)c1

>  <score_type>  (32) 
oracle

>  <origin>  (32) 
adg

>  <m_score__min__energy>  (32) 
-7.3799999999999999

>  <m_primary>  (32) 
energy

$$$$
32:0
     RDKit          3D

 32 33  0  0  0  0  0  0  0  0999 V2000
   55.7300   29.3660   44.8700 O   0  0  0  0  0  0  0  0  0  0  0  0
   56.9260   29.5000   45.2500 C   0  0  0  0  0  0  0  0  0  0  0  0
   57.3680   30.7300   45.6330 N   0  0  0  0  0  0  0  0  0  0  0  0
   58.6530   30.9280   46.0400 C   0  0  0  0  0  0  0  0  0  0  0  0
   59.0930   32.2390   46.4390 N   0  0  0  0  0  0  0  0  0  0  0  0
   60.4550   32.4390   46.9530 C   0  0  0  0  0  0  0  0  0  0  0  0
   61.0320   33.7990   46.4950 C   0  0  0  0  0  0  0  0  0  0  0  0
   60.0810   34.6410   45.8630 O   0  0  0  0  0  0  0  0  0  0  0  0
   58.8890   34.6850   46.6180 C   0  0  0  0  0  0  0  0  0  0  0  0
   58.1430   33.3590   46.4630 C   0  0  0  0  0  0  0  0  0  0  0  0
   59.5320   29.8420   46.0710 C   0  0  0  0  0  0  0  0  0  0  0  0
   59.0690   28.5900   45.6760 C   0  0  0  0  0  0  0  0  0  0  0  0
   57.7730   28.4220   45.2800 N   0  0  0  0  0  0  0  0  0  0  0  0
   57.3250   27.0890   44.8430 C   0  0  0  0  0  0  0  0  0  0  0  0
   56.5920   26.3760   45.9800 C   0  0  0  0  0  0  0  0  0  0  0  0
   55.2410   26.7470   45.9950 O   0  0  0  0  0  0  0  0  0  0  0  0
   56.6960   31.5310   45.6320 H   0  0  0  0  0  0  0  0  0  0  0  0
   60.4312   32.4114   48.0524 H   0  0  0  0  0  0  0  0  0  0  0  0
   61.0972   31.6377   46.5585 H   0  0  0  0  0  0  0  0  0  0  0  0
   61.4268   34.3232   47.3778 H   0  0  0  0  0  0  0  0  0  0  0  0
   61.8121   33.5816   45.7506 H   0  0  0  0  0  0  0  0  0  0  0  0
   59.1316   34.8483   47.6784 H   0  0  0  0  0  0  0  0  0  0  0  0
   58.2550   35.5086   46.2579 H   0  0  0  0  0  0  0  0  0  0  0  0
   57.4519   33.2305   47.3091 H   0  0  0  0  0  0  0  0  0  0  0  0
   57.5822   33.3726   45.5168 H   0  0  0  0  0  0  0  0  0  0  0  0
   60.5726   29.9743   46.4021 H   0  0  0  0  0  0  0  0  0  0  0  0
   59.7530   27.7286   45.6829 H   0  0  0  0  0  0  0  0  0  0  0  0
   56.6452   27.1979   43.9851 H   0  0  0  0  0  0  0  0  0  0  0  0
   58.2035   26.4931   44.5546 H   0  0  0  0  0  0  0  0  0  0  0  0
   56.6681   25.2882   45.8351 H   0  0  0  0  0  0  0  0  0  0  0  0
   57.0524   26.6615   46.9374 H   0  0  0  0  0  0  0  0  0  0  0  0
   55.1420   27.4860   45.3390 H   0  0  0  0  0  0  0  0  0  0  0  0
  1  2  2  0
  2  3  1  0
  3  4  2  0
  4  5  1  0
  5  6  1  0
  6  7  1  0
  7  8  1  0
  8  9  1  0
  9 10  1  0
  4 11  1  0
 11 12  2  0
 12 13  1  0
 13 14  1  0
 14 15  1  0
 15 16  1  0
 13  2  1  0
 10  5  1  0
  3 17  1  0
  6 18  1  0
  6 19  1  0
  7 20  1  0
  7 21  1  0
  9 22  1  0
  9 23  1  0
 10 24  1  0
 10 25  1  0
 11 26  1  0
 12 27  1  0
 14 28  1  0
 14 29  1  0
 15 30  1  0
 15 31  1  0
 16 32  1  0
M  CHG  1   3   1
M  END
>  <UniqueID>  (33) 
29

>  <SMILES>  (33) 
O=c1[nH+]c(N2CCOCC2)ccn1CCO

>  <Energy>  (33) 
40.98812288435957

>  <Genealogy>  (33) 
O=c1[nH+]c(N2CCOCC2)ccn1CCO (protonated)
O=c1[nH+]c(N2CCOCC2)ccn1CCO (3D coordinates assigned)
O=c1[nH+]c(N2CCOCC2)ccn1CCO (nonaromatic ring conformer: 40.98812288435957 kcal/mol)

>  <smiles>  (33) 
O=c1nc(N2CCOCC2)ccn1CCO

>  <score_type>  (33) 
oracle

>  <origin>  (33) 
adg

>  <m_score__min__energy>  (33) 
-4.8600000000000003

>  <m_primary>  (33) 
energy

$$$$
33:0
     RDKit          3D

 41 43  0  0  0  0  0  0  0  0999 V2000
   63.0510   33.7070   47.1240 C   0  0  0  0  0  0  0  0  0  0  0  0
   62.5670   33.4440   48.5470 C   0  0  0  0  0  0  0  0  0  0  0  0
   61.5760   34.5240   49.0020 C   0  0  0  0  0  0  0  0  0  0  0  0
   60.1620   33.9650   49.2130 C   0  0  0  0  0  0  0  0  0  0  0  0
   59.7380   33.0820   48.0790 C   0  0  0  0  0  0  0  0  0  0  0  0
   59.9800   31.7550   48.0250 N   0  0  0  0  0  0  0  0  0  0  0  0
   59.4380   31.1580   46.9250 C   0  0  0  0  0  0  0  0  0  0  0  0
   59.5200   29.6940   46.7310 C   0  0  0  0  0  0  0  0  0  0  0  0
   60.3240   29.1650   45.7090 C   0  0  0  0  0  0  0  0  0  0  0  0
   60.4150   27.7810   45.5260 C   0  0  0  0  0  0  0  0  0  0  0  0
   59.7120   26.9160   46.3690 C   0  0  0  0  0  0  0  0  0  0  0  0
   58.9210   27.4330   47.3980 C   0  0  0  0  0  0  0  0  0  0  0  0
   58.8290   28.8150   47.5850 C   0  0  0  0  0  0  0  0  0  0  0  0
   58.7570   32.0450   46.0720 C   0  0  0  0  0  0  0  0  0  0  0  0
   58.1360   31.7530   44.7620 C   0  0  0  0  0  0  0  0  0  0  0  0
   58.3670   32.6070   43.6700 C   0  0  0  0  0  0  0  0  0  0  0  0
   57.7920   32.3320   42.4260 C   0  0  0  0  0  0  0  0  0  0  0  0
   56.9920   31.1990   42.2570 C   0  0  0  0  0  0  0  0  0  0  0  0
   56.7710   30.3350   43.3330 C   0  0  0  0  0  0  0  0  0  0  0  0
   57.3450   30.6050   44.5790 C   0  0  0  0  0  0  0  0  0  0  0  0
   58.8340   33.5850   46.7560 S   0  0  0  0  0  0  0  0  0  0  0  0
   64.0171   34.2320   47.1564 H   0  0  0  0  0  0  0  0  0  0  0  0
   63.1712   32.7502   46.5949 H   0  0  0  0  0  0  0  0  0  0  0  0
   62.3136   34.3285   46.5949 H   0  0  0  0  0  0  0  0  0  0  0  0
   62.0705   32.4631   48.5821 H   0  0  0  0  0  0  0  0  0  0  0  0
   63.4365   33.4615   49.2206 H   0  0  0  0  0  0  0  0  0  0  0  0
   61.9317   34.9537   49.9501 H   0  0  0  0  0  0  0  0  0  0  0  0
   61.5221   35.2863   48.2108 H   0  0  0  0  0  0  0  0  0  0  0  0
   60.1455   33.3806   50.1448 H   0  0  0  0  0  0  0  0  0  0  0  0
   59.4633   34.8130   49.2659 H   0  0  0  0  0  0  0  0  0  0  0  0
   60.4950   31.2360   48.7730 H   0  0  0  0  0  0  0  0  0  0  0  0
   60.8854   29.8423   45.0486 H   0  0  0  0  0  0  0  0  0  0  0  0
   61.0403   27.3734   44.7180 H   0  0  0  0  0  0  0  0  0  0  0  0
   59.7815   25.8280   46.2223 H   0  0  0  0  0  0  0  0  0  0  0  0
   58.3696   26.7512   48.0622 H   0  0  0  0  0  0  0  0  0  0  0  0
   58.2137   29.2172   48.4033 H   0  0  0  0  0  0  0  0  0  0  0  0
   59.0031   33.4957   43.7948 H   0  0  0  0  0  0  0  0  0  0  0  0
   57.9698   33.0094   41.5778 H   0  0  0  0  0  0  0  0  0  0  0  0
   56.5367   30.9873   41.2783 H   0  0  0  0  0  0  0  0  0  0  0  0
   56.1443   29.4409   43.1994 H   0  0  0  0  0  0  0  0  0  0  0  0
   57.1770   29.9161   45.4200 H   0  0  0  0  0  0  0  0  0  0  0  0
  1  2  1  0
  2  3  1  0
  3  4  1  0
  4  5  1  0
  5  6  2  0
  6  7  1  0
  7  8  1  0
  8  9  2  0
  9 10  1  0
 10 11  2  0
 11 12  1  0
 12 13  2  0
  7 14  2  0
 14 15  1  0
 15 16  2  0
 16 17  1  0
 17 18  2  0
 18 19  1  0
 19 20  2  0
 14 21  1  0
 21  5  1  0
 13  8  1  0
 20 15  1  0
  1 22  1  0
  1 23  1  0
  1 24  1  0
  2 25  1  0
  2 26  1  0
  3 27  1  0
  3 28  1  0
  4 29  1  0
  4 30  1  0
  6 31  1  0
  9 32  1  0
 10 33  1  0
 11 34  1  0
 12 35  1  0
 13 36  1  0
 16 37  1  0
 17 38  1  0
 18 39  1  0
 19 40  1  0
 20 41  1  0
M  CHG  1   6   1
M  END
>  <UniqueID>  (34) 
30

>  <SMILES>  (34) 
CCCCc1[nH+]c(-c2ccccc2)c(-c2ccccc2)s1

>  <Energy>  (34) 
72.9518383785255

>  <Genealogy>  (34) 
CCCCc1[nH+]c(-c2ccccc2)c(-c2ccccc2)s1 (protonated)
CCCCc1[nH+]c(-c2ccccc2)c(-c2ccccc2)s1 (3D coordinates assigned)
CCCCc1[nH+]c(-c2ccccc2)c(-c2ccccc2)s1 (optimized conformer: 72.9518383785255 kcal/mol)

>  <smiles>  (34) 
CCCCc1nc(-c2ccccc2)c(-c2ccccc2)s1

>  <score_type>  (34) 
oracle

>  <origin>  (34) 
adg

>  <m_score__min__energy>  (34) 
-5.79

>  <m_primary>  (34) 
energy

$$$$
34:0
     RDKit          3D

 30 32  0  0  0  0  0  0  0  0999 V2000
   55.2540   29.7600   44.8680 O   0  0  0  0  0  0  0  0  0  0  0  0
   56.4930   30.0030   44.0520 S   0  0  0  0  0  0  0  0  0  0  0  0
   56.1250   30.4560   42.6670 O   0  0  0  0  0  0  0  0  0  0  0  0
   57.4330   28.5480   43.9770 N   0  0  0  0  0  0  0  0  0  0  0  0
   57.8260   27.7070   45.0730 C   0  0  0  0  0  0  0  0  0  0  0  0
   59.1980   27.5830   45.3380 C   0  0  0  0  0  0  0  0  0  0  0  0
   59.6510   26.7810   46.3890 C   0  0  0  0  0  0  0  0  0  0  0  0
   58.7370   26.0920   47.1870 C   0  0  0  0  0  0  0  0  0  0  0  0
   57.3690   26.2050   46.9360 C   0  0  0  0  0  0  0  0  0  0  0  0
   56.9050   27.0070   45.8870 C   0  0  0  0  0  0  0  0  0  0  0  0
   55.5680   27.0840   45.6870 F   0  0  0  0  0  0  0  0  0  0  0  0
   57.4480   31.2520   44.8230 C   0  0  0  0  0  0  0  0  0  0  0  0
   57.4050   32.6060   44.5200 C   0  0  0  0  0  0  0  0  0  0  0  0
   58.2710   33.3710   45.3100 C   0  0  0  0  0  0  0  0  0  0  0  0
   58.9900   32.6140   46.2320 C   0  0  0  0  0  0  0  0  0  0  0  0
   59.9710   33.1360   47.1960 C   0  0  0  0  0  0  0  0  0  0  0  0
   59.6810   33.8600   48.3480 C   0  0  0  0  0  0  0  0  0  0  0  0
   60.8210   34.2250   49.0740 C   0  0  0  0  0  0  0  0  0  0  0  0
   62.0100   33.7930   48.5000 C   0  0  0  0  0  0  0  0  0  0  0  0
   61.6410   32.9560   47.0900 S   0  0  0  0  0  0  0  0  0  0  0  0
   58.5480   30.9960   46.0680 S   0  0  0  0  0  0  0  0  0  0  0  0
   59.9244   28.1224   44.7124 H   0  0  0  0  0  0  0  0  0  0  0  0
   60.7294   26.6928   46.5874 H   0  0  0  0  0  0  0  0  0  0  0  0
   59.0946   25.4602   48.0134 H   0  0  0  0  0  0  0  0  0  0  0  0
   56.6508   25.6604   47.5665 H   0  0  0  0  0  0  0  0  0  0  0  0
   56.7576   33.0334   43.7401 H   0  0  0  0  0  0  0  0  0  0  0  0
   58.3736   34.4618   45.2124 H   0  0  0  0  0  0  0  0  0  0  0  0
   58.6579   34.1198   48.6576 H   0  0  0  0  0  0  0  0  0  0  0  0
   60.7792   34.7998   50.0109 H   0  0  0  0  0  0  0  0  0  0  0  0
   63.0197   33.9686   48.8997 H   0  0  0  0  0  0  0  0  0  0  0  0
  1  2  2  0
  2  3  2  0
  2  4  1  0
  4  5  1  0
  5  6  2  0
  6  7  1  0
  7  8  2  0
  8  9  1  0
  9 10  2  0
 10 11  1  0
  2 12  1  0
 12 13  2  0
 13 14  1  0
 14 15  2  0
 15 16  1  0
 16 17  2  0
 17 18  1  0
 18 19  2  0
 19 20  1  0
 15 21  1  0
 10  5  1  0
 21 12  1  0
 20 16  1  0
  6 22  1  0
  7 23  1  0
  8 24  1  0
  9 25  1  0
 13 26  1  0
 14 27  1  0
 17 28  1  0
 18 29  1  0
 19 30  1  0
M  CHG  1   4  -1
M  END
>  <UniqueID>  (35) 
31

>  <SMILES>  (35) 
O=S(=O)([N-]c1ccccc1F)c1ccc(-c2cccs2)s1

>  <Energy>  (35) 
90.97644529127436

>  <Genealogy>  (35) 
O=S(=O)([N-]c1ccccc1F)c1ccc(-c2cccs2)s1 (protonated)
O=S(=O)([N-]c1ccccc1F)c1ccc(-c2cccs2)s1 (3D coordinates assigned)
O=S(=O)([N-]c1ccccc1F)c1ccc(-c2cccs2)s1 (optimized conformer: 90.97644529127436 kcal/mol)

>  <smiles>  (35) 
O=S(=O)(Nc1ccccc1F)c1ccc(-c2cccs2)s1

>  <score_type>  (35) 
oracle

>  <origin>  (35) 
adg

>  <m_score__min__energy>  (35) 
-9.2100000000000009

>  <m_primary>  (35) 
energy

$$$$
35:0
     RDKit          3D

 40 42  0  0  0  0  0  0  0  0999 V2000
   64.5360   32.5200   49.3070 C   0  0  0  0  0  0  0  0  0  0  0  0
   63.3960   32.8190   48.4050 C   0  0  0  0  0  0  0  0  0  0  0  0
   62.1450   32.3060   48.6790 C   0  0  0  0  0  0  0  0  0  0  0  0
   61.0410   32.5390   47.8900 C   0  0  0  0  0  0  0  0  0  0  0  0
   61.1540   33.3260   46.7500 C   0  0  0  0  0  0  0  0  0  0  0  0
   59.9870   33.5230   45.9890 N   0  0  0  0  0  0  0  0  0  0  0  0
   58.6780   33.6950   46.4990 C   0  0  0  0  0  0  0  0  0  0  0  0
   58.3990   33.6910   47.7160 O   0  0  0  0  0  0  0  0  0  0  0  0
   57.5160   33.8980   45.5610 C   0  0  0  0  0  0  0  0  0  0  0  0
   57.8510   33.1160   44.3080 C   0  0  0  0  0  0  0  0  0  0  0  0
   57.7560   31.6710   44.6410 C   0  0  0  0  0  0  0  0  0  0  0  0
   56.5260   31.1130   44.5430 N   0  0  0  0  0  0  0  0  0  0  0  0
   56.3120   29.8130   44.8170 C   0  0  0  0  0  0  0  0  0  0  0  0
   55.1550   29.3240   44.7170 O   0  0  0  0  0  0  0  0  0  0  0  0
   57.3870   29.0370   45.2100 C   0  0  0  0  0  0  0  0  0  0  0  0
   57.1890   27.6990   45.4970 C   0  0  0  0  0  0  0  0  0  0  0  0
   58.2540   26.9120   45.8900 C   0  0  0  0  0  0  0  0  0  0  0  0
   59.5330   27.4680   45.9980 C   0  0  0  0  0  0  0  0  0  0  0  0
   59.6760   28.8040   45.7010 C   0  0  0  0  0  0  0  0  0  0  0  0
   58.6370   29.6160   45.3070 C   0  0  0  0  0  0  0  0  0  0  0  0
   58.8140   30.9340   45.0210 N   0  0  0  0  0  0  0  0  0  0  0  0
   62.3930   33.8320   46.4790 C   0  0  0  0  0  0  0  0  0  0  0  0
   63.5100   33.6000   47.2730 C   0  0  0  0  0  0  0  0  0  0  0  0
   64.2080   32.6060   50.3534 H   0  0  0  0  0  0  0  0  0  0  0  0
   64.8946   31.4974   49.1181 H   0  0  0  0  0  0  0  0  0  0  0  0
   65.3504   33.2349   49.1181 H   0  0  0  0  0  0  0  0  0  0  0  0
   62.0233   31.6784   49.5741 H   0  0  0  0  0  0  0  0  0  0  0  0
   60.0689   32.1020   48.1621 H   0  0  0  0  0  0  0  0  0  0  0  0
   60.0620   33.5520   44.9300 H   0  0  0  0  0  0  0  0  0  0  0  0
   56.5885   33.5169   46.0131 H   0  0  0  0  0  0  0  0  0  0  0  0
   57.3568   34.9639   45.3408 H   0  0  0  0  0  0  0  0  0  0  0  0
   57.1372   33.3644   43.5088 H   0  0  0  0  0  0  0  0  0  0  0  0
   58.8629   33.3655   43.9560 H   0  0  0  0  0  0  0  0  0  0  0  0
   56.1834   27.2613   45.4124 H   0  0  0  0  0  0  0  0  0  0  0  0
   58.0962   25.8475   46.1181 H   0  0  0  0  0  0  0  0  0  0  0  0
   60.3942   26.8587   46.3094 H   0  0  0  0  0  0  0  0  0  0  0  0
   60.6787   29.2487   45.7833 H   0  0  0  0  0  0  0  0  0  0  0  0
   59.7440   31.3640   45.0920 H   0  0  0  0  0  0  0  0  0  0  0  0
   62.5138   34.4580   45.5826 H   0  0  0  0  0  0  0  0  0  0  0  0
   64.4816   34.0375   47.0000 H   0  0  0  0  0  0  0  0  0  0  0  0
  1  2  1  0
  2  3  2  0
  3  4  1  0
  4  5  2  0
  5  6  1  0
  6  7  1  0
  7  8  2  0
  7  9  1  0
  9 10  1  0
 10 11  1  0
 11 12  2  0
 12 13  1  0
 13 14  2  0
 13 15  1  0
 15 16  2  0
 16 17  1  0
 17 18  2  0
 18 19  1  0
 19 20  2  0
 20 21  1  0
  5 22  1  0
 22 23  2  0
 23  2  1  0
 21 11  1  0
 20 15  1  0
  1 24  1  0
  1 25  1  0
  1 26  1  0
  3 27  1  0
  4 28  1  0
  6 29  1  0
  9 30  1  0
  9 31  1  0
 10 32  1  0
 10 33  1  0
 16 34  1  0
 17 35  1  0
 18 36  1  0
 19 37  1  0
 21 38  1  0
 22 39  1  0
 23 40  1  0
M  END
>  <smiles>  (36) 
Cc1ccc(NC(=O)CCc2nc(=O)c3ccccc3[nH]2)cc1

>  <score_type>  (36) 
oracle

>  <origin>  (36) 
adg

>  <m_score__min__energy>  (36) 
-8.5600000000000005

>  <m_primary>  (36) 
energy

$$$$
36:0
     RDKit          3D

 53 56  0  0  1  0  0  0  0  0999 V2000
   55.4610   25.4000   45.6170 C   0  0  0  0  0  0  0  0  0  0  0  0
   56.1330   24.3120   44.8970 C   0  0  0  0  0  0  0  0  0  0  0  0
   55.4460   23.6840   43.8770 C   0  0  0  0  0  0  0  0  0  0  0  0
   55.9970   22.6460   43.1410 C   0  0  0  0  0  0  0  0  0  0  0  0
   57.2810   22.2550   43.4650 C   0  0  0  0  0  0  0  0  0  0  0  0
   58.0150   22.8450   44.4730 C   0  0  0  0  0  0  0  0  0  0  0  0
   59.6330   22.3250   44.8560 Cl  0  0  0  0  0  0  0  0  0  0  0  0
   57.4120   23.8720   45.1700 C   0  0  0  0  0  0  0  0  0  0  0  0
   58.1060   24.5450   46.2380 N   0  0  0  0  0  0  0  0  0  0  0  0
   58.8200   25.5950   46.0140 C   0  0  0  0  0  0  0  0  0  0  0  0
   59.9520   25.7530   46.7850 C   0  0  0  0  0  0  0  0  0  0  0  0
   60.7390   26.8670   46.5690 C   0  0  0  0  0  0  0  0  0  0  0  0
   60.3710   27.7500   45.6220 N   0  0  0  0  0  0  0  0  0  0  0  0
   59.2730   27.6100   44.8640 C   0  0  0  0  0  0  0  0  0  0  0  0
   58.9790   28.4980   43.9700 N   0  0  0  0  0  0  0  0  0  0  0  0
   58.0180   29.5350   44.2080 C   0  0  0  0  0  0  0  0  0  0  0  0
   56.7100   29.3440   43.7530 C   0  0  0  0  0  0  0  0  0  0  0  0
   55.8290   30.3780   44.0110 C   0  0  0  0  0  0  0  0  0  0  0  0
   56.1950   31.5010   44.6560 N   0  0  0  0  0  0  0  0  0  0  0  0
   57.4440   31.7160   45.1050 C   0  0  0  0  0  0  0  0  0  0  0  0
   57.8210   32.9030   45.7830 N   0  0  0  0  0  0  0  0  0  0  0  0
   58.1780   32.9460   47.1880 C   0  0  0  0  0  0  0  0  0  0  0  0
   58.8690   34.2520   47.4510 C   0  0  0  0  0  0  0  0  0  0  0  0
   59.8400   34.5480   46.4270 N   0  0  0  0  0  0  0  0  0  0  0  0
   60.8790   33.5360   46.4490 C   0  0  0  0  0  0  0  0  0  0  0  0
   59.2730   34.6550   45.1200 C   0  0  0  0  0  0  0  0  0  0  0  0
   57.8550   34.1400   45.0470 C   0  0  0  0  0  0  0  0  0  0  0  0
   58.3810   30.7040   44.8740 C   0  0  0  0  0  0  0  0  0  0  0  0
   58.4940   26.5140   45.0720 N   0  0  0  0  0  0  0  0  0  0  0  0
   55.5605   25.2389   46.7006 H   0  0  0  0  0  0  0  0  0  0  0  0
   55.9236   26.3603   45.3450 H   0  0  0  0  0  0  0  0  0  0  0  0
   54.3953   25.4163   45.3450 H   0  0  0  0  0  0  0  0  0  0  0  0
   54.4254   24.0190   43.6399 H   0  0  0  0  0  0  0  0  0  0  0  0
   55.4349   22.1548   42.3331 H   0  0  0  0  0  0  0  0  0  0  0  0
   57.7398   21.4351   42.8929 H   0  0  0  0  0  0  0  0  0  0  0  0
   60.2211   25.0115   47.5517 H   0  0  0  0  0  0  0  0  0  0  0  0
   61.6516   27.0301   47.1611 H   0  0  0  0  0  0  0  0  0  0  0  0
   60.9760   28.5850   45.4720 H   0  0  0  0  0  0  0  0  0  0  0  0
   56.4016   28.4302   43.2239 H   0  0  0  0  0  0  0  0  0  0  0  0
   54.7862   30.2786   43.6753 H   0  0  0  0  0  0  0  0  0  0  0  0
   57.2710   32.8724   47.8061 H   0  0  0  0  0  0  0  0  0  0  0  0
   58.8411   32.1052   47.4397 H   0  0  0  0  0  0  0  0  0  0  0  0
   58.1183   35.0557   47.4757 H   0  0  0  0  0  0  0  0  0  0  0  0
   59.3935   34.1786   48.4151 H   0  0  0  0  0  0  0  0  0  0  0  0
   61.1304   33.2912   47.4915 H   0  0  0  0  0  0  0  0  0  0  0  0
   60.5206   32.6313   45.9361 H   0  0  0  0  0  0  0  0  0  0  0  0
   61.7739   33.9181   45.9361 H   0  0  0  0  0  0  0  0  0  0  0  0
   59.2770   35.7138   44.8220 H   0  0  0  0  0  0  0  0  0  0  0  0
   59.8827   34.0358   44.4455 H   0  0  0  0  0  0  0  0  0  0  0  0
   57.1645   34.8678   45.4982 H   0  0  0  0  0  0  0  0  0  0  0  0
   57.5454   33.9856   44.0028 H   0  0  0  0  0  0  0  0  0  0  0  0
   59.4166   30.8322   45.2220 H   0  0  0  0  0  0  0  0  0  0  0  0
   57.6370   26.3630   44.5110 H   0  0  0  0  0  0  0  0  0  0  0  0
  1  2  1  0
  2  3  2  0
  3  4  1  0
  4  5  2  0
  5  6  1  0
  6  7  1  0
  6  8  2  0
  8  9  1  0
  9 10  2  0
 10 11  1  0
 11 12  2  0
 12 13  1  0
 13 14  1  0
 14 15  2  0
 15 16  1  0
 16 17  2  0
 17 18  1  0
 18 19  2  0
 19 20  1  0
 20 21  1  0
 21 22  1  0
 22 23  1  0
 23 24  1  0
 24 25  1  0
 24 26  1  0
 26 27  1  0
 20 28  2  0
 14 29  1  0
  8  2  1  0
 29 10  1  0
 28 16  1  0
 27 21  1  0
  1 30  1  0
  1 31  1  0
  1 32  1  0
  3 33  1  0
  4 34  1  0
  5 35  1  0
 11 36  1  0
 12 37  1  0
 13 38  1  0
 17 39  1  0
 18 40  1  0
 22 41  1  0
 22 42  1  0
 23 43  1  0
 23 44  1  0
 25 45  1  0
 25 46  1  0
 25 47  1  0
 26 48  1  0
 26 49  1  0
 27 50  1  0
 27 51  1  0
 28 52  1  0
 29 53  1  0
M  END
>  <smiles>  (37) 
Cc1cccc(Cl)c1N=c1cc[nH]c(=Nc2ccnc(N3CCN(C)CC3)c2)[nH]1

>  <score_type>  (37) 
oracle

>  <origin>  (37) 
adg

>  <m_score__min__energy>  (37) 
-8.9299999999999997

>  <m_primary>  (37) 
energy

$$$$
37:0
     RDKit          3D

 20 21  0  0  0  0  0  0  0  0999 V2000
   56.1880   29.4980   42.9990 N   0  0  0  0  0  0  0  0  0  0  0  0
   56.8720   30.6930   43.3820 C   0  0  0  0  0  0  0  0  0  0  0  0
   57.4010   31.5460   42.4040 C   0  0  0  0  0  0  0  0  0  0  0  0
   58.0700   32.7170   42.7720 C   0  0  0  0  0  0  0  0  0  0  0  0
   58.2180   33.0480   44.1270 C   0  0  0  0  0  0  0  0  0  0  0  0
   58.8890   34.2210   44.5080 C   0  0  0  0  0  0  0  0  0  0  0  0
   59.0300   34.5390   45.8620 C   0  0  0  0  0  0  0  0  0  0  0  0
   58.5040   33.6940   46.8420 C   0  0  0  0  0  0  0  0  0  0  0  0
   57.8340   32.5220   46.4760 C   0  0  0  0  0  0  0  0  0  0  0  0
   57.6860   32.1910   45.1200 C   0  0  0  0  0  0  0  0  0  0  0  0
   57.0160   31.0170   44.7390 C   0  0  0  0  0  0  0  0  0  0  0  0
   55.5110   29.5010   42.2040 H   0  0  0  0  0  0  0  0  0  0  0  0
   56.3520   28.6010   43.5080 H   0  0  0  0  0  0  0  0  0  0  0  0
   57.2890   31.2924   41.3395 H   0  0  0  0  0  0  0  0  0  0  0  0
   58.4814   33.3805   41.9970 H   0  0  0  0  0  0  0  0  0  0  0  0
   59.3042   34.8905   43.7403 H   0  0  0  0  0  0  0  0  0  0  0  0
   59.5572   35.4583   46.1568 H   0  0  0  0  0  0  0  0  0  0  0  0
   58.6171   33.9512   47.9055 H   0  0  0  0  0  0  0  0  0  0  0  0
   57.4227   31.8591   47.2515 H   0  0  0  0  0  0  0  0  0  0  0  0
   56.6023   30.3485   45.5084 H   0  0  0  0  0  0  0  0  0  0  0  0
  1  2  1  0
  2  3  2  0
  3  4  1  0
  4  5  2  0
  5  6  1  0
  6  7  2  0
  7  8  1  0
  8  9  2  0
  9 10  1  0
 10 11  2  0
 11  2  1  0
 10  5  1  0
  1 12  1  0
  1 13  1  0
  3 14  1  0
  4 15  1  0
  6 16  1  0
  7 17  1  0
  8 18  1  0
  9 19  1  0
 11 20  1  0
M  END
>  <UniqueID>  (38) 
32

>  <SMILES>  (38) 
Nc1ccc2ccccc2c1

>  <Energy>  (38) 
22.66727045069483

>  <Genealogy>  (38) 
Nc1ccc2ccccc2c1 (3D coordinates assigned)
Nc1ccc2ccccc2c1 (optimized conformer: 22.66727045069483 kcal/mol)

>  <smiles>  (38) 
Nc1ccc2ccccc2c1

>  <score_type>  (38) 
oracle

>  <origin>  (38) 
adg

>  <m_score__min__energy>  (38) 
-5.5800000000000001

>  <m_primary>  (38) 
energy

$$$$
38:0
     RDKit          3D

 28 29  0  0  0  0  0  0  0  0999 V2000
   56.2670   29.8420   43.4120 C   0  0  0  0  0  0  0  0  0  0  0  0
   56.3850   30.2980   44.7560 O   0  0  0  0  0  0  0  0  0  0  0  0
   57.4070   31.1380   45.2270 C   0  0  0  0  0  0  0  0  0  0  0  0
   57.3720   32.5330   45.0250 C   0  0  0  0  0  0  0  0  0  0  0  0
   58.4180   33.3410   45.4720 C   0  0  0  0  0  0  0  0  0  0  0  0
   59.5110   32.7720   46.1250 C   0  0  0  0  0  0  0  0  0  0  0  0
   59.5600   31.3940   46.3380 C   0  0  0  0  0  0  0  0  0  0  0  0
   58.5100   30.5670   45.9040 C   0  0  0  0  0  0  0  0  0  0  0  0
   58.5870   29.1070   46.1570 C   0  0  0  0  0  0  0  0  0  0  0  0
   59.8310   28.4800   46.3120 C   0  0  0  0  0  0  0  0  0  0  0  0
   59.8860   27.1060   46.5310 C   0  0  0  0  0  0  0  0  0  0  0  0
   58.7080   26.3640   46.5880 C   0  0  0  0  0  0  0  0  0  0  0  0
   57.4720   27.0090   46.4200 C   0  0  0  0  0  0  0  0  0  0  0  0
   56.2110   26.2370   46.4740 C   0  0  0  0  0  0  0  0  0  0  0  0
   55.1430   26.7160   46.0070 O   0  0  0  0  0  0  0  0  0  0  0  0
   56.1880   24.9690   47.0430 O   0  0  0  0  0  0  0  0  0  0  0  0
   57.4440   28.3590   46.2060 N   0  0  0  0  0  0  0  0  0  0  0  0
   55.9914   28.7771   43.4090 H   0  0  0  0  0  0  0  0  0  0  0  0
   55.4897   30.4234   42.8945 H   0  0  0  0  0  0  0  0  0  0  0  0
   57.2287   29.9734   42.8945 H   0  0  0  0  0  0  0  0  0  0  0  0
   56.5128   32.9882   44.5106 H   0  0  0  0  0  0  0  0  0  0  0  0
   58.3805   34.4282   45.3091 H   0  0  0  0  0  0  0  0  0  0  0  0
   60.3361   33.4109   46.4728 H   0  0  0  0  0  0  0  0  0  0  0  0
   60.4274   30.9514   46.8497 H   0  0  0  0  0  0  0  0  0  0  0  0
   60.7581   29.0698   46.2609 H   0  0  0  0  0  0  0  0  0  0  0  0
   60.8580   26.6071   46.6588 H   0  0  0  0  0  0  0  0  0  0  0  0
   58.7460   25.2788   46.7637 H   0  0  0  0  0  0  0  0  0  0  0  0
   56.5230   28.8400   46.0920 H   0  0  0  0  0  0  0  0  0  0  0  0
  1  2  1  0
  2  3  1  0
  3  4  2  0
  4  5  1  0
  5  6  2  0
  6  7  1  0
  7  8  2  0
  8  9  1  0
  9 10  2  0
 10 11  1  0
 11 12  2  0
 12 13  1  0
 13 14  1  0
 14 15  2  0
 14 16  1  0
 13 17  2  0
  8  3  1  0
 17  9  1  0
  1 18  1  0
  1 19  1  0
  1 20  1  0
  4 21  1  0
  5 22  1  0
  6 23  1  0
  7 24  1  0
 10 25  1  0
 11 26  1  0
 12 27  1  0
 17 28  1  0
M  CHG  2  16  -1  17   1
M  END
>  <UniqueID>  (39) 
33

>  <SMILES>  (39) 
COc1ccccc1-c1cccc(C(=O)[O-])[nH+]1

>  <Energy>  (39) 
35.04147009269257

>  <Genealogy>  (39) 
COc1ccccc1-c1cccc(C(=O)[O-])[nH+]1 (protonated)
COc1ccccc1-c1cccc(C(=O)[O-])[nH+]1 (3D coordinates assigned)
COc1ccccc1-c1cccc(C(=O)[O-])[nH+]1 (optimized conformer: 35.04147009269257 kcal/mol)

>  <smiles>  (39) 
COc1ccccc1-c1cccc(C(=O)O)n1

>  <score_type>  (39) 
oracle

>  <origin>  (39) 
adg

>  <m_score__min__energy>  (39) 
-7.3399999999999999

>  <m_primary>  (39) 
energy

$$$$
39:0
     RDKit          3D

 29 31  0  0  0  0  0  0  0  0999 V2000
   59.6130   34.9800   47.0580 C   0  0  0  0  0  0  0  0  0  0  0  0
   59.5870   34.9900   45.5330 C   0  0  0  0  0  0  0  0  0  0  0  0
   58.2450   34.4860   44.9980 C   0  0  0  0  0  0  0  0  0  0  0  0
   58.1480   33.0000   45.1400 C   0  0  0  0  0  0  0  0  0  0  0  0
   58.1450   32.0870   44.0800 C   0  0  0  0  0  0  0  0  0  0  0  0
   58.1130   30.7670   44.5320 C   0  0  0  0  0  0  0  0  0  0  0  0
   58.1020   29.6550   43.7500 N   0  0  0  0  0  0  0  0  0  0  0  0
   58.0780   28.4200   44.3420 C   0  0  0  0  0  0  0  0  0  0  0  0
   58.0640   27.2520   43.5670 C   0  0  0  0  0  0  0  0  0  0  0  0
   58.0410   26.0000   44.1880 C   0  0  0  0  0  0  0  0  0  0  0  0
   58.0320   25.9030   45.5840 C   0  0  0  0  0  0  0  0  0  0  0  0
   58.0460   27.0590   46.3720 C   0  0  0  0  0  0  0  0  0  0  0  0
   58.0690   28.3180   45.7640 C   0  0  0  0  0  0  0  0  0  0  0  0
   58.0850   29.4500   46.5270 N   0  0  0  0  0  0  0  0  0  0  0  0
   58.1050   30.6520   45.9080 C   0  0  0  0  0  0  0  0  0  0  0  0
   58.1380   32.1700   46.6210 S   0  0  0  0  0  0  0  0  0  0  0  0
   58.6515   35.3499   47.4435 H   0  0  0  0  0  0  0  0  0  0  0  0
   59.7806   33.9532   47.4151 H   0  0  0  0  0  0  0  0  0  0  0  0
   60.4256   35.6297   47.4151 H   0  0  0  0  0  0  0  0  0  0  0  0
   59.7511   36.0182   45.1783 H   0  0  0  0  0  0  0  0  0  0  0  0
   60.3804   34.3216   45.1672 H   0  0  0  0  0  0  0  0  0  0  0  0
   57.4291   34.9577   45.5654 H   0  0  0  0  0  0  0  0  0  0  0  0
   58.1667   34.7470   43.9323 H   0  0  0  0  0  0  0  0  0  0  0  0
   58.1654   32.3748   43.0185 H   0  0  0  0  0  0  0  0  0  0  0  0
   58.1110   29.7510   42.7090 H   0  0  0  0  0  0  0  0  0  0  0  0
   58.0711   27.3208   42.4692 H   0  0  0  0  0  0  0  0  0  0  0  0
   58.0299   25.0860   43.5761 H   0  0  0  0  0  0  0  0  0  0  0  0
   58.0138   24.9134   46.0640 H   0  0  0  0  0  0  0  0  0  0  0  0
   58.0389   26.9775   47.4690 H   0  0  0  0  0  0  0  0  0  0  0  0
  1  2  1  0
  2  3  1  0
  3  4  1  0
  4  5  2  0
  5  6  1  0
  6  7  2  0
  7  8  1  0
  8  9  2  0
  9 10  1  0
 10 11  2  0
 11 12  1  0
 12 13  2  0
 13 14  1  0
 14 15  2  0
 15 16  1  0
 16  4  1  0
 15  6  1  0
 13  8  1  0
  1 17  1  0
  1 18  1  0
  1 19  1  0
  2 20  1  0
  2 21  1  0
  3 22  1  0
  3 23  1  0
  5 24  1  0
  7 25  1  0
  9 26  1  0
 10 27  1  0
 11 28  1  0
 12 29  1  0
M  CHG  1   7   1
M  END
>  <UniqueID>  (40) 
34

>  <SMILES>  (40) 
CCCc1cc2[nH+]c3ccccc3nc2s1

>  <Energy>  (40) 
61.023536135885195

>  <Genealogy>  (40) 
CCCc1cc2[nH+]c3ccccc3nc2s1 (protonated)
CCCc1cc2[nH+]c3ccccc3nc2s1 (3D coordinates assigned)
CCCc1cc2[nH+]c3ccccc3nc2s1 (optimized conformer: 61.023536135885195 kcal/mol)

>  <smiles>  (40) 
CCCc1cc2nc3ccccc3nc2s1

>  <score_type>  (40) 
oracle

>  <origin>  (40) 
adg

>  <m_score__min__energy>  (40) 
-4.9400000000000004

>  <m_primary>  (40) 
energy

$$$$
40:0
     RDKit          3D

 52 55  0  0  0  0  0  0  0  0999 V2000
   57.5860   32.1160   42.6860 C   0  0  0  0  0  0  0  0  0  0  0  0
   57.5660   30.9020   43.5670 C   0  0  0  0  0  0  0  0  0  0  0  0
   56.3450   30.3000   43.9100 C   0  0  0  0  0  0  0  0  0  0  0  0
   56.3250   29.1410   44.6920 C   0  0  0  0  0  0  0  0  0  0  0  0
   57.5260   28.5670   45.1330 C   0  0  0  0  0  0  0  0  0  0  0  0
   57.5170   27.0910   46.0960 S   0  0  0  0  0  0  0  0  0  0  0  0
   56.0940   26.6720   46.3360 O   0  0  0  0  0  0  0  0  0  0  0  0
   58.2240   25.9850   45.3600 O   0  0  0  0  0  0  0  0  0  0  0  0
   58.2960   27.3640   47.6240 N   0  0  0  0  0  0  0  0  0  0  0  0
   58.5700   28.7900   47.7940 C   0  0  0  0  0  0  0  0  0  0  0  0
   60.0460   29.0040   48.1400 C   0  0  0  0  0  0  0  0  0  0  0  0
   60.7760   29.8090   47.0550 C   0  0  0  0  0  0  0  0  0  0  0  0
   60.9720   31.2040   47.4800 N   0  0  0  0  0  0  0  0  0  0  0  0
   61.9310   31.5430   48.4920 C   0  0  0  0  0  0  0  0  0  0  0  0
   61.9290   30.8520   49.7170 C   0  0  0  0  0  0  0  0  0  0  0  0
   62.8820   31.1400   50.6940 C   0  0  0  0  0  0  0  0  0  0  0  0
   63.8500   32.1150   50.4560 C   0  0  0  0  0  0  0  0  0  0  0  0
   63.8600   32.8110   49.2440 C   0  0  0  0  0  0  0  0  0  0  0  0
   62.8920   32.5490   48.2590 C   0  0  0  0  0  0  0  0  0  0  0  0
   62.9940   33.2760   46.9730 C   0  0  0  0  0  0  0  0  0  0  0  0
   61.9690   33.6550   46.1970 C   0  0  0  0  0  0  0  0  0  0  0  0
   60.5330   33.4130   46.4650 C   0  0  0  0  0  0  0  0  0  0  0  0
   59.6060   34.3740   46.0230 C   0  0  0  0  0  0  0  0  0  0  0  0
   58.2340   34.1710   46.1890 C   0  0  0  0  0  0  0  0  0  0  0  0
   57.7690   32.9970   46.7810 C   0  0  0  0  0  0  0  0  0  0  0  0
   58.6750   32.0240   47.2080 C   0  0  0  0  0  0  0  0  0  0  0  0
   60.0580   32.2210   47.0500 C   0  0  0  0  0  0  0  0  0  0  0  0
   58.7460   29.1550   44.7750 C   0  0  0  0  0  0  0  0  0  0  0  0
   58.7670   30.3130   43.9900 C   0  0  0  0  0  0  0  0  0  0  0  0
   57.6009   33.0217   43.3101 H   0  0  0  0  0  0  0  0  0  0  0  0
   58.4839   32.0934   42.0510 H   0  0  0  0  0  0  0  0  0  0  0  0
   56.6878   32.1230   42.0510 H   0  0  0  0  0  0  0  0  0  0  0  0
   55.3998   30.7421   43.5620 H   0  0  0  0  0  0  0  0  0  0  0  0
   55.3643   28.6782   44.9620 H   0  0  0  0  0  0  0  0  0  0  0  0
   58.3349   29.3197   46.8591 H   0  0  0  0  0  0  0  0  0  0  0  0
   57.9477   29.1814   48.6123 H   0  0  0  0  0  0  0  0  0  0  0  0
   60.1127   29.5491   49.0931 H   0  0  0  0  0  0  0  0  0  0  0  0
   60.5260   28.0170   48.2141 H   0  0  0  0  0  0  0  0  0  0  0  0
   61.7569   29.3493   46.8640 H   0  0  0  0  0  0  0  0  0  0  0  0
   60.1645   29.8024   46.1407 H   0  0  0  0  0  0  0  0  0  0  0  0
   61.1701   30.0785   49.9061 H   0  0  0  0  0  0  0  0  0  0  0  0
   62.8699   30.5984   51.6514 H   0  0  0  0  0  0  0  0  0  0  0  0
   64.6067   32.3367   51.2230 H   0  0  0  0  0  0  0  0  0  0  0  0
   64.6331   33.5714   49.0591 H   0  0  0  0  0  0  0  0  0  0  0  0
   64.0054   33.5286   46.6218 H   0  0  0  0  0  0  0  0  0  0  0  0
   62.2183   34.1975   45.2731 H   0  0  0  0  0  0  0  0  0  0  0  0
   59.9653   35.2954   45.5414 H   0  0  0  0  0  0  0  0  0  0  0  0
   57.5201   34.9373   45.8527 H   0  0  0  0  0  0  0  0  0  0  0  0
   56.6885   32.8375   46.9116 H   0  0  0  0  0  0  0  0  0  0  0  0
   58.3043   31.0976   47.6709 H   0  0  0  0  0  0  0  0  0  0  0  0
   59.6912   28.7046   45.1123 H   0  0  0  0  0  0  0  0  0  0  0  0
   59.7288   30.7633   43.7034 H   0  0  0  0  0  0  0  0  0  0  0  0
  1  2  1  0
  2  3  2  0
  3  4  1  0
  4  5  2  0
  5  6  1  0
  6  7  2  0
  6  8  2  0
  6  9  1  0
  9 10  1  0
 10 11  1  0
 11 12  1  0
 12 13  1  0
 13 14  1  0
 14 15  2  0
 15 16  1  0
 16 17  2  0
 17 18  1  0
 18 19  2  0
 19 20  1  0
 20 21  2  0
 21 22  1  0
 22 23  2  0
 23 24  1  0
 24 25  2  0
 25 26  1  0
 26 27  2  0
  5 28  1  0
 28 29  2  0
 29  2  1  0
 27 13  1  0
 19 14  1  0
 27 22  1  0
  1 30  1  0
  1 31  1  0
  1 32  1  0
  3 33  1  0
  4 34  1  0
 10 35  1  0
 10 36  1  0
 11 37  1  0
 11 38  1  0
 12 39  1  0
 12 40  1  0
 15 41  1  0
 16 42  1  0
 17 43  1  0
 18 44  1  0
 20 45  1  0
 21 46  1  0
 23 47  1  0
 24 48  1  0
 25 49  1  0
 26 50  1  0
 28 51  1  0
 29 52  1  0
M  CHG  1   9  -1
M  END
>  <UniqueID>  (41) 
35

>  <SMILES>  (41) 
Cc1ccc(S(=O)(=O)[N-]CCCN2c3ccccc3C=Cc3ccccc32)cc1

>  <Energy>  (41) 
70.62907504618981

>  <Genealogy>  (41) 
Cc1ccc(S(=O)(=O)[N-]CCCN2c3ccccc3C=Cc3ccccc32)cc1 (protonated)
Cc1ccc(S(=O)(=O)[N-]CCCN2c3ccccc3C=Cc3ccccc32)cc1 (3D coordinates assigned)
Cc1ccc(S(=O)(=O)[N-]CCCN2c3ccccc3C=Cc3ccccc32)cc1 (nonaromatic ring conformer: 70.62907504618981 kcal/mol)

>  <smiles>  (41) 
Cc1ccc(S(=O)(=O)NCCCN2c3ccccc3C=Cc3ccccc32)cc1

>  <score_type>  (41) 
oracle

>  <origin>  (41) 
adg

>  <m_score__min__energy>  (41) 
-9.4900000000000002

>  <m_primary>  (41) 
energy

$$$$
41:0
     RDKit          3D

 37 40  0  0  0  0  0  0  0  0999 V2000
   57.3390   30.9340   45.4150 O   0  0  0  0  0  0  0  0  0  0  0  0
   58.2690   30.3230   46.0090 C   0  0  0  0  0  0  0  0  0  0  0  0
   59.3150   31.0460   46.6150 C   0  0  0  0  0  0  0  0  0  0  0  0
   59.2930   32.5290   46.6070 C   0  0  0  0  0  0  0  0  0  0  0  0
   59.3370   33.2470   47.8150 C   0  0  0  0  0  0  0  0  0  0  0  0
   59.3280   34.6450   47.8040 C   0  0  0  0  0  0  0  0  0  0  0  0
   59.2710   35.3360   46.5900 C   0  0  0  0  0  0  0  0  0  0  0  0
   59.2210   34.6300   45.3850 C   0  0  0  0  0  0  0  0  0  0  0  0
   59.2300   33.2310   45.3910 C   0  0  0  0  0  0  0  0  0  0  0  0
   60.3350   30.3180   47.2810 C   0  0  0  0  0  0  0  0  0  0  0  0
   61.5010   30.9770   47.9140 C   0  0  0  0  0  0  0  0  0  0  0  0
   61.7210   30.8890   49.3000 C   0  0  0  0  0  0  0  0  0  0  0  0
   62.8200   31.5300   49.8810 C   0  0  0  0  0  0  0  0  0  0  0  0
   63.6970   32.2730   49.0870 C   0  0  0  0  0  0  0  0  0  0  0  0
   63.4720   32.3850   47.7130 C   0  0  0  0  0  0  0  0  0  0  0  0
   62.3740   31.7450   47.1280 C   0  0  0  0  0  0  0  0  0  0  0  0
   60.2690   28.9910   47.3500 O   0  0  0  0  0  0  0  0  0  0  0  0
   59.2960   28.2810   46.7950 C   0  0  0  0  0  0  0  0  0  0  0  0
   59.3080   26.8860   46.9100 C   0  0  0  0  0  0  0  0  0  0  0  0
   58.2910   26.1250   46.3250 C   0  0  0  0  0  0  0  0  0  0  0  0
   57.2590   26.7530   45.6250 C   0  0  0  0  0  0  0  0  0  0  0  0
   57.2360   28.1460   45.5050 C   0  0  0  0  0  0  0  0  0  0  0  0
   58.2560   28.9220   46.0900 C   0  0  0  0  0  0  0  0  0  0  0  0
   59.3787   32.7068   48.7723 H   0  0  0  0  0  0  0  0  0  0  0  0
   59.3658   35.2020   48.7518 H   0  0  0  0  0  0  0  0  0  0  0  0
   59.2655   36.4360   46.5833 H   0  0  0  0  0  0  0  0  0  0  0  0
   59.1745   35.1749   44.4306 H   0  0  0  0  0  0  0  0  0  0  0  0
   59.1876   32.6785   44.4407 H   0  0  0  0  0  0  0  0  0  0  0  0
   61.0262   30.3139   49.9297 H   0  0  0  0  0  0  0  0  0  0  0  0
   62.9939   31.4490   50.9641 H   0  0  0  0  0  0  0  0  0  0  0  0
   64.5653   32.7701   49.5441 H   0  0  0  0  0  0  0  0  0  0  0  0
   64.1588   32.9770   47.0902 H   0  0  0  0  0  0  0  0  0  0  0  0
   62.1942   31.8442   46.0473 H   0  0  0  0  0  0  0  0  0  0  0  0
   60.1188   26.3875   47.4615 H   0  0  0  0  0  0  0  0  0  0  0  0
   58.3041   25.0289   46.4166 H   0  0  0  0  0  0  0  0  0  0  0  0
   56.4614   26.1500   45.1664 H   0  0  0  0  0  0  0  0  0  0  0  0
   56.4206   28.6365   44.9532 H   0  0  0  0  0  0  0  0  0  0  0  0
  1  2  2  0
  2  3  1  0
  3  4  1  0
  4  5  2  0
  5  6  1  0
  6  7  2  0
  7  8  1  0
  8  9  2  0
  3 10  2  0
 10 11  1  0
 11 12  2  0
 12 13  1  0
 13 14  2  0
 14 15  1  0
 15 16  2  0
 10 17  1  0
 17 18  1  0
 18 19  2  0
 19 20  1  0
 20 21  2  0
 21 22  1  0
 22 23  2  0
 23  2  1  0
  9  4  1  0
 16 11  1  0
 23 18  1  0
  5 24  1  0
  6 25  1  0
  7 26  1  0
  8 27  1  0
  9 28  1  0
 12 29  1  0
 13 30  1  0
 14 31  1  0
 15 32  1  0
 16 33  1  0
 19 34  1  0
 20 35  1  0
 21 36  1  0
 22 37  1  0
M  END
>  <UniqueID>  (42) 
36

>  <SMILES>  (42) 
O=c1c(-c2ccccc2)c(-c2ccccc2)oc2ccccc12

>  <Energy>  (42) 
60.317003656754736

>  <Genealogy>  (42) 
O=c1c(-c2ccccc2)c(-c2ccccc2)oc2ccccc12 (3D coordinates assigned)
O=c1c(-c2ccccc2)c(-c2ccccc2)oc2ccccc12 (optimized conformer: 60.317003656754736 kcal/mol)

>  <smiles>  (42) 
O=c1c(-c2ccccc2)c(-c2ccccc2)oc2ccccc12

>  <score_type>  (42) 
oracle

>  <origin>  (42) 
adg

>  <m_score__min__energy>  (42) 
-7.6200000000000001

>  <m_primary>  (42) 
energy

$$$$
42:0
     RDKit          3D

 39 40  0  0  0  0  0  0  0  0999 V2000
   54.3730   26.7020   46.7710 H   0  0  0  0  0  0  0  0  0  0  0  0
   55.1900   26.1910   46.3660 N   0  0  0  0  0  0  0  0  0  0  0  0
   56.2760   26.8070   46.0290 C   0  0  0  0  0  0  0  0  0  0  0  0
   57.4760   26.3650   46.4820 N   0  0  0  0  0  0  0  0  0  0  0  0
   58.6320   26.9860   46.1430 C   0  0  0  0  0  0  0  0  0  0  0  0
   59.7200   26.5440   46.5980 O   0  0  0  0  0  0  0  0  0  0  0  0
   58.6090   28.1110   45.2960 C   0  0  0  0  0  0  0  0  0  0  0  0
   59.9050   28.8190   44.9520 C   0  0  0  0  0  0  0  0  0  0  0  0
   60.6004   28.0970   44.4990 H   0  0  0  0  0  0  0  0  0  0  0  0
   59.6835   29.6339   44.2471 H   0  0  0  0  0  0  0  0  0  0  0  0
   60.5480   29.4160   46.2000 C   0  0  0  0  0  0  0  0  0  0  0  0
   60.0808   28.9822   47.0964 H   0  0  0  0  0  0  0  0  0  0  0  0
   61.6245   29.1899   46.2017 H   0  0  0  0  0  0  0  0  0  0  0  0
   60.4023   30.5063   46.2017 H   0  0  0  0  0  0  0  0  0  0  0  0
   57.3450   28.5720   44.8460 C   0  0  0  0  0  0  0  0  0  0  0  0
   57.1980   29.7660   43.9250 C   0  0  0  0  0  0  0  0  0  0  0  0
   57.8525   29.6262   43.0520 H   0  0  0  0  0  0  0  0  0  0  0  0
   56.1439   29.8364   43.6184 H   0  0  0  0  0  0  0  0  0  0  0  0
   57.5750   31.0530   44.6190 C   0  0  0  0  0  0  0  0  0  0  0  0
   57.7720   32.2260   43.8770 C   0  0  0  0  0  0  0  0  0  0  0  0
   57.6398   32.2105   42.7851 H   0  0  0  0  0  0  0  0  0  0  0  0
   58.1350   33.4140   44.5150 C   0  0  0  0  0  0  0  0  0  0  0  0
   58.2772   34.3303   43.9233 H   0  0  0  0  0  0  0  0  0  0  0  0
   58.3200   33.4470   45.9090 C   0  0  0  0  0  0  0  0  0  0  0  0
   58.6820   34.6240   46.5840 O   0  0  0  0  0  0  0  0  0  0  0  0
   59.9090   35.3190   46.3930 C   0  0  0  0  0  0  0  0  0  0  0  0
   60.3463   35.5667   47.3715 H   0  0  0  0  0  0  0  0  0  0  0  0
   60.6073   34.6823   45.8299 H   0  0  0  0  0  0  0  0  0  0  0  0
   59.7219   36.2453   45.8299 H   0  0  0  0  0  0  0  0  0  0  0  0
   58.1450   32.2740   46.6590 C   0  0  0  0  0  0  0  0  0  0  0  0
   58.3420   32.3350   48.0480 O   0  0  0  0  0  0  0  0  0  0  0  0
   59.3130   31.5750   48.7600 C   0  0  0  0  0  0  0  0  0  0  0  0
   59.1547   31.6989   49.8415 H   0  0  0  0  0  0  0  0  0  0  0  0
   59.2137   30.5122   48.4943 H   0  0  0  0  0  0  0  0  0  0  0  0
   60.3208   31.9267   48.4943 H   0  0  0  0  0  0  0  0  0  0  0  0
   57.7800   31.0800   46.0080 C   0  0  0  0  0  0  0  0  0  0  0  0
   57.6540   30.1578   46.5942 H   0  0  0  0  0  0  0  0  0  0  0  0
   56.2170   27.9000   45.2230 N   0  0  0  0  0  0  0  0  0  0  0  0
   55.2820   28.2260   44.8860 H   0  0  0  0  0  0  0  0  0  0  0  0
  1  2  1  0
  2  3  2  0
  3  4  1  0
  4  5  1  0
  5  6  2  0
  5  7  1  0
  7  8  1  0
  8  9  1  0
  8 10  1  0
  8 11  1  0
 11 12  1  0
 11 13  1  0
 11 14  1  0
  7 15  2  0
 15 16  1  0
 16 17  1  0
 16 18  1  0
 16 19  1  0
 19 20  2  0
 20 21  1  0
 20 22  1  0
 22 23  1  0
 22 24  2  0
 24 25  1  0
 25 26  1  0
 26 27  1  0
 26 28  1  0
 26 29  1  0
 24 30  1  0
 30 31  1  0
 31 32  1  0
 32 33  1  0
 32 34  1  0
 32 35  1  0
 30 36  2  0
 36 37  1  0
 15 38  1  0
 38 39  1  0
 38  3  1  0
 36 19  1  0
M  CHG  1   4  -1
M  END
>  <UniqueID>  (43) 
37

>  <SMILES>  (43) 
[H]/N=c1\[n-]c(=O)c(CC)c(Cc2ccc(OC)c(OC)c2)[nH]1

>  <Energy>  (43) 
37.41818418208394

>  <Genealogy>  (43) 
CCc1c(Cc2ccc(OC)c(OC)c2)[nH]c(=N)[n-]c1=O (protonated)
[H]/N=c1\[n-]c(=O)c(CC)c(Cc2ccc(OC)c(OC)c2)[nH]1 (cis-trans isomerization)
[H]/N=c1\[n-]c(=O)c(CC)c(Cc2ccc(OC)c(OC)c2)[nH]1 (3D coordinates assigned)
[H]/N=c1\[n-]c(=O)c(CC)c(Cc2ccc(OC)c(OC)c2)[nH]1 (optimized conformer: 37.41818418208394 kcal/mol)

>  <smiles>  (43) 
CCc1c(Cc2ccc(OC)c(OC)c2)[nH]c(=N)[nH]c1=O

>  <score_type>  (43) 
oracle

>  <origin>  (43) 
adg

>  <m_score__min__energy>  (43) 
-8.8399999999999999

>  <m_primary>  (43) 
energy

$$$$
43:0
     RDKit          3D

 50 53  0  0  0  0  0  0  0  0999 V2000
   60.8380   29.4640   48.5030 O   0  0  0  0  0  0  0  0  0  0  0  0
   60.5880   30.0830   47.1570 S   0  0  0  0  0  0  0  0  0  0  0  0
   61.8930   30.1580   46.4130 O   0  0  0  0  0  0  0  0  0  0  0  0
   59.9590   31.6880   47.3900 N   0  0  0  0  0  0  0  0  0  0  0  0
   58.6080   31.6240   47.9570 C   0  0  0  0  0  0  0  0  0  0  0  0
   57.7370   32.7500   47.3960 C   0  0  0  0  0  0  0  0  0  0  0  0
   58.0780   33.0400   45.9580 C   0  0  0  0  0  0  0  0  0  0  0  0
   58.9190   34.0410   45.4520 C   0  0  0  0  0  0  0  0  0  0  0  0
   59.6500   35.0960   46.2400 C   0  0  0  0  0  0  0  0  0  0  0  0
   60.7590   34.4800   47.0490 C   0  0  0  0  0  0  0  0  0  0  0  0
   60.7010   34.4790   48.4540 C   0  0  0  0  0  0  0  0  0  0  0  0
   61.7020   33.8520   49.2000 C   0  0  0  0  0  0  0  0  0  0  0  0
   62.7760   33.2320   48.5500 C   0  0  0  0  0  0  0  0  0  0  0  0
   62.8520   33.2460   47.1540 C   0  0  0  0  0  0  0  0  0  0  0  0
   61.8480   33.8650   46.4050 C   0  0  0  0  0  0  0  0  0  0  0  0
   59.0330   33.9270   44.1060 N   0  0  0  0  0  0  0  0  0  0  0  0
   58.2780   32.8700   43.7580 C   0  0  0  0  0  0  0  0  0  0  0  0
   58.0890   32.3590   42.4740 C   0  0  0  0  0  0  0  0  0  0  0  0
   57.2520   31.2370   42.3280 C   0  0  0  0  0  0  0  0  0  0  0  0
   56.6250   30.6640   43.4550 C   0  0  0  0  0  0  0  0  0  0  0  0
   56.8360   31.2000   44.7380 C   0  0  0  0  0  0  0  0  0  0  0  0
   57.6790   32.3060   44.8540 C   0  0  0  0  0  0  0  0  0  0  0  0
   59.4580   29.0900   46.2310 C   0  0  0  0  0  0  0  0  0  0  0  0
   59.6240   28.9240   44.8450 C   0  0  0  0  0  0  0  0  0  0  0  0
   58.7240   28.1390   44.1210 C   0  0  0  0  0  0  0  0  0  0  0  0
   57.6550   27.5150   44.7760 C   0  0  0  0  0  0  0  0  0  0  0  0
   57.4870   27.6700   46.1580 C   0  0  0  0  0  0  0  0  0  0  0  0
   58.3840   28.4590   46.8830 C   0  0  0  0  0  0  0  0  0  0  0  0
   59.9010   32.1390   46.4510 H   0  0  0  0  0  0  0  0  0  0  0  0
   58.1544   30.6547   47.7028 H   0  0  0  0  0  0  0  0  0  0  0  0
   58.6750   31.7368   49.0491 H   0  0  0  0  0  0  0  0  0  0  0  0
   56.6802   32.4518   47.4607 H   0  0  0  0  0  0  0  0  0  0  0  0
   57.9213   33.6592   47.9870 H   0  0  0  0  0  0  0  0  0  0  0  0
   60.0766   35.8350   45.5457 H   0  0  0  0  0  0  0  0  0  0  0  0
   58.9398   35.5825   46.9248 H   0  0  0  0  0  0  0  0  0  0  0  0
   59.8638   34.9741   48.9679 H   0  0  0  0  0  0  0  0  0  0  0  0
   61.6464   33.8454   50.2986 H   0  0  0  0  0  0  0  0  0  0  0  0
   63.5606   32.7335   49.1381 H   0  0  0  0  0  0  0  0  0  0  0  0
   63.7028   32.7694   46.6450 H   0  0  0  0  0  0  0  0  0  0  0  0
   61.9094   33.8715   45.3067 H   0  0  0  0  0  0  0  0  0  0  0  0
   59.5880   34.5400   43.4670 H   0  0  0  0  0  0  0  0  0  0  0  0
   58.5788   32.8185   41.6028 H   0  0  0  0  0  0  0  0  0  0  0  0
   57.0857   30.8045   41.3304 H   0  0  0  0  0  0  0  0  0  0  0  0
   55.9665   29.7919   43.3291 H   0  0  0  0  0  0  0  0  0  0  0  0
   56.3515   30.7610   45.6226 H   0  0  0  0  0  0  0  0  0  0  0  0
   60.4640   29.4131   44.3300 H   0  0  0  0  0  0  0  0  0  0  0  0
   58.8548   28.0109   43.0363 H   0  0  0  0  0  0  0  0  0  0  0  0
   56.9446   26.9009   44.2031 H   0  0  0  0  0  0  0  0  0  0  0  0
   56.6512   27.1720   46.6712 H   0  0  0  0  0  0  0  0  0  0  0  0
   58.2494   28.5868   47.9672 H   0  0  0  0  0  0  0  0  0  0  0  0
  1  2  2  0
  2  3  2  0
  2  4  1  0
  4  5  1  0
  5  6  1  0
  6  7  1  0
  7  8  2  0
  8  9  1  0
  9 10  1  0
 10 11  2  0
 11 12  1  0
 12 13  2  0
 13 14  1  0
 14 15  2  0
  8 16  1  0
 16 17  1  0
 17 18  2  0
 18 19  1  0
 19 20  2  0
 20 21  1  0
 21 22  2  0
  2 23  1  0
 23 24  2  0
 24 25  1  0
 25 26  2  0
 26 27  1  0
 27 28  2  0
 22  7  1  0
 28 23  1  0
 15 10  1  0
 22 17  1  0
  4 29  1  0
  5 30  1  0
  5 31  1  0
  6 32  1  0
  6 33  1  0
  9 34  1  0
  9 35  1  0
 11 36  1  0
 12 37  1  0
 13 38  1  0
 14 39  1  0
 15 40  1  0
 16 41  1  0
 18 42  1  0
 19 43  1  0
 20 44  1  0
 21 45  1  0
 24 46  1  0
 25 47  1  0
 26 48  1  0
 27 49  1  0
 28 50  1  0
M  END
>  <UniqueID>  (44) 
38

>  <SMILES>  (44) 
O=S(=O)(NCCc1c(Cc2ccccc2)[nH]c2ccccc12)c1ccccc1

>  <Energy>  (44) 
79.32237309352665

>  <Genealogy>  (44) 
O=S(=O)(NCCc1c(Cc2ccccc2)[nH]c2ccccc12)c1ccccc1 (3D coordinates assigned)
O=S(=O)(NCCc1c(Cc2ccccc2)[nH]c2ccccc12)c1ccccc1 (optimized conformer: 79.32237309352665 kcal/mol)

>  <smiles>  (44) 
O=S(=O)(NCCc1c(Cc2ccccc2)[nH]c2ccccc12)c1ccccc1

>  <score_type>  (44) 
oracle

>  <origin>  (44) 
adg

>  <m_score__min__energy>  (44) 
-9

>  <m_primary>  (44) 
energy

$$$$
44:0
     RDKit          3D

 45 48  0  0  0  0  0  0  0  0999 V2000
   58.1620   26.8930   43.4000 C   0  0  0  0  0  0  0  0  0  0  0  0
   57.5710   28.2470   43.6960 C   0  0  0  0  0  0  0  0  0  0  0  0
   56.9560   28.9540   42.6490 C   0  0  0  0  0  0  0  0  0  0  0  0
   56.3900   30.2100   42.8780 C   0  0  0  0  0  0  0  0  0  0  0  0
   56.4200   30.7690   44.1550 C   0  0  0  0  0  0  0  0  0  0  0  0
   57.0130   30.0720   45.2090 C   0  0  0  0  0  0  0  0  0  0  0  0
   57.5860   28.8080   44.9970 C   0  0  0  0  0  0  0  0  0  0  0  0
   58.1960   28.1210   46.1030 N   0  0  0  0  0  0  0  0  0  0  0  0
   59.1360   28.5800   46.9590 C   0  0  0  0  0  0  0  0  0  0  0  0
   59.7310   29.9610   46.9390 C   0  0  0  0  0  0  0  0  0  0  0  0
   59.3700   30.6990   48.1520 N   0  0  0  0  0  0  0  0  0  0  0  0
   59.2540   30.1280   49.3400 N   0  0  0  0  0  0  0  0  0  0  0  0
   58.8130   31.0470   50.2210 C   0  0  0  0  0  0  0  0  0  0  0  0
   58.6300   30.7950   51.6860 C   0  0  0  0  0  0  0  0  0  0  0  0
   57.2850   30.6590   51.9770 F   0  0  0  0  0  0  0  0  0  0  0  0
   59.1420   31.8500   52.4190 F   0  0  0  0  0  0  0  0  0  0  0  0
   59.2920   29.6330   52.0360 F   0  0  0  0  0  0  0  0  0  0  0  0
   58.6590   32.2590   49.5750 C   0  0  0  0  0  0  0  0  0  0  0  0
   59.0190   32.0030   48.2620 C   0  0  0  0  0  0  0  0  0  0  0  0
   58.9860   32.9980   47.1680 C   0  0  0  0  0  0  0  0  0  0  0  0
   60.0070   33.9530   47.0360 C   0  0  0  0  0  0  0  0  0  0  0  0
   59.9670   34.8880   45.9970 C   0  0  0  0  0  0  0  0  0  0  0  0
   58.9010   34.8870   45.0950 C   0  0  0  0  0  0  0  0  0  0  0  0
   57.8690   33.9560   45.2330 C   0  0  0  0  0  0  0  0  0  0  0  0
   57.9070   33.0170   46.2690 C   0  0  0  0  0  0  0  0  0  0  0  0
   59.3880   27.6810   47.9310 N   0  0  0  0  0  0  0  0  0  0  0  0
   58.6110   26.6320   47.7100 N   0  0  0  0  0  0  0  0  0  0  0  0
   57.8910   26.9070   46.6070 C   0  0  0  0  0  0  0  0  0  0  0  0
   56.7000   25.9300   46.0520 S   0  0  0  0  0  0  0  0  0  0  0  0
   58.3873   26.3768   44.3449 H   0  0  0  0  0  0  0  0  0  0  0  0
   57.4419   26.2976   42.8195 H   0  0  0  0  0  0  0  0  0  0  0  0
   59.0882   27.0162   42.8195 H   0  0  0  0  0  0  0  0  0  0  0  0
   56.9201   28.5148   41.6411 H   0  0  0  0  0  0  0  0  0  0  0  0
   55.9196   30.7594   42.0492 H   0  0  0  0  0  0  0  0  0  0  0  0
   55.9761   31.7598   44.3319 H   0  0  0  0  0  0  0  0  0  0  0  0
   57.0315   30.5171   46.2148 H   0  0  0  0  0  0  0  0  0  0  0  0
   60.8264   29.8812   46.8776 H   0  0  0  0  0  0  0  0  0  0  0  0
   59.3378   30.5024   46.0659 H   0  0  0  0  0  0  0  0  0  0  0  0
   59.4590   29.1230   49.5430 H   0  0  0  0  0  0  0  0  0  0  0  0
   58.3251   33.2139   50.0070 H   0  0  0  0  0  0  0  0  0  0  0  0
   60.8414   33.9656   47.7526 H   0  0  0  0  0  0  0  0  0  0  0  0
   60.7763   35.6253   45.8901 H   0  0  0  0  0  0  0  0  0  0  0  0
   58.8740   35.6199   44.2752 H   0  0  0  0  0  0  0  0  0  0  0  0
   57.0259   33.9612   44.5265 H   0  0  0  0  0  0  0  0  0  0  0  0
   57.0886   32.2905   46.3801 H   0  0  0  0  0  0  0  0  0  0  0  0
  1  2  1  0
  2  3  2  0
  3  4  1  0
  4  5  2  0
  5  6  1  0
  6  7  2  0
  7  8  1  0
  8  9  1  0
  9 10  1  0
 10 11  1  0
 11 12  1  0
 12 13  2  0
 13 14  1  0
 14 15  1  0
 14 16  1  0
 14 17  1  0
 13 18  1  0
 18 19  2  0
 19 20  1  0
 20 21  2  0
 21 22  1  0
 22 23  2  0
 23 24  1  0
 24 25  2  0
  9 26  2  0
 26 27  1  0
 27 28  1  0
 28 29  2  0
  7  2  1  0
 28  8  1  0
 19 11  1  0
 25 20  1  0
  1 30  1  0
  1 31  1  0
  1 32  1  0
  3 33  1  0
  4 34  1  0
  5 35  1  0
  6 36  1  0
 10 37  1  0
 10 38  1  0
 12 39  1  0
 18 40  1  0
 21 41  1  0
 22 42  1  0
 23 43  1  0
 24 44  1  0
 25 45  1  0
M  CHG  2  12   1  27  -1
M  END
>  <UniqueID>  (45) 
39

>  <SMILES>  (45) 
Cc1ccccc1-n1c(Cn2[nH+]c(C(F)(F)F)cc2-c2ccccc2)n[n-]c1=S

>  <Energy>  (45) 
123.78081310341808

>  <Genealogy>  (45) 
Cc1ccccc1-n1c(Cn2[nH+]c(C(F)(F)F)cc2-c2ccccc2)n[n-]c1=S (protonated)
Cc1ccccc1-n1c(Cn2[nH+]c(C(F)(F)F)cc2-c2ccccc2)n[n-]c1=S (3D coordinates assigned)
Cc1ccccc1-n1c(Cn2[nH+]c(C(F)(F)F)cc2-c2ccccc2)n[n-]c1=S (optimized conformer: 123.78081310341808 kcal/mol)

>  <smiles>  (45) 
Cc1ccccc1-n1c(Cn2nc(C(F)(F)F)cc2-c2ccccc2)n[nH]c1=S

>  <score_type>  (45) 
oracle

>  <origin>  (45) 
adg

>  <m_score__min__energy>  (45) 
-8.6799999999999997

>  <m_primary>  (45) 
energy

$$$$
45:0
     RDKit          3D

 32 34  0  0  0  0  0  0  0  0999 V2000
   57.3370   25.6040   46.0380 O   0  0  0  0  0  0  0  0  0  0  0  0
   56.9620   26.7400   45.6430 C   0  0  0  0  0  0  0  0  0  0  0  0
   55.6850   27.1540   45.6870 N   0  0  0  0  0  0  0  0  0  0  0  0
   55.6650   28.4000   45.2440 N   0  0  0  0  0  0  0  0  0  0  0  0
   56.9140   28.7880   44.9090 C   0  0  0  0  0  0  0  0  0  0  0  0
   57.2430   30.1480   44.4320 C   0  0  0  0  0  0  0  0  0  0  0  0
   57.1140   30.4600   43.0700 C   0  0  0  0  0  0  0  0  0  0  0  0
   57.4400   31.7380   42.6050 C   0  0  0  0  0  0  0  0  0  0  0  0
   57.9080   32.7100   43.4940 C   0  0  0  0  0  0  0  0  0  0  0  0
   58.0600   32.4010   44.8490 C   0  0  0  0  0  0  0  0  0  0  0  0
   58.7200   33.7210   46.0610 Br  0  0  0  0  0  0  0  0  0  0  0  0
   57.7350   31.1230   45.3170 C   0  0  0  0  0  0  0  0  0  0  0  0
   57.7870   27.7310   45.1430 C   0  0  0  0  0  0  0  0  0  0  0  0
   59.2940   27.7260   45.1200 C   0  0  0  0  0  0  0  0  0  0  0  0
   59.8570   28.6380   46.1790 C   0  0  0  0  0  0  0  0  0  0  0  0
   59.5410   28.4320   47.5320 C   0  0  0  0  0  0  0  0  0  0  0  0
   60.0520   29.2890   48.5130 C   0  0  0  0  0  0  0  0  0  0  0  0
   60.8770   30.3560   48.1510 C   0  0  0  0  0  0  0  0  0  0  0  0
   61.1930   30.5710   46.8070 C   0  0  0  0  0  0  0  0  0  0  0  0
   60.6850   29.7180   45.8220 C   0  0  0  0  0  0  0  0  0  0  0  0
   54.8010   28.9800   45.1760 H   0  0  0  0  0  0  0  0  0  0  0  0
   56.7548   29.6959   42.3649 H   0  0  0  0  0  0  0  0  0  0  0  0
   57.3279   31.9788   41.5376 H   0  0  0  0  0  0  0  0  0  0  0  0
   58.1564   33.7171   43.1278 H   0  0  0  0  0  0  0  0  0  0  0  0
   57.8651   30.8803   46.3820 H   0  0  0  0  0  0  0  0  0  0  0  0
   59.6524   26.7018   45.3007 H   0  0  0  0  0  0  0  0  0  0  0  0
   59.6290   28.0856   44.1359 H   0  0  0  0  0  0  0  0  0  0  0  0
   58.8896   27.5942   47.8214 H   0  0  0  0  0  0  0  0  0  0  0  0
   59.8034   29.1219   49.5714 H   0  0  0  0  0  0  0  0  0  0  0  0
   61.2783   31.0276   48.9243 H   0  0  0  0  0  0  0  0  0  0  0  0
   61.8423   31.4124   46.5233 H   0  0  0  0  0  0  0  0  0  0  0  0
   60.9336   29.8920   44.7647 H   0  0  0  0  0  0  0  0  0  0  0  0
  1  2  2  0
  2  3  1  0
  3  4  1  0
  4  5  1  0
  5  6  1  0
  6  7  2  0
  7  8  1  0
  8  9  2  0
  9 10  1  0
 10 11  1  0
 10 12  2  0
  5 13  2  0
 13 14  1  0
 14 15  1  0
 15 16  2  0
 16 17  1  0
 17 18  2  0
 18 19  1  0
 19 20  2  0
 13  2  1  0
 20 15  1  0
 12  6  1  0
  4 21  1  0
  7 22  1  0
  8 23  1  0
  9 24  1  0
 12 25  1  0
 14 26  1  0
 14 27  1  0
 16 28  1  0
 17 29  1  0
 18 30  1  0
 19 31  1  0
 20 32  1  0
M  CHG  1   3  -1
M  END
>  <UniqueID>  (46) 
40

>  <SMILES>  (46) 
O=c1[n-][nH]c(-c2cccc(Br)c2)c1Cc1ccccc1

>  <Energy>  (46) 
70.40158873771249

>  <Genealogy>  (46) 
O=c1[n-][nH]c(-c2cccc(Br)c2)c1Cc1ccccc1 (protonated)
O=c1[n-][nH]c(-c2cccc(Br)c2)c1Cc1ccccc1 (3D coordinates assigned)
O=c1[n-][nH]c(-c2cccc(Br)c2)c1Cc1ccccc1 (optimized conformer: 70.40158873771249 kcal/mol)

>  <smiles>  (46) 
O=c1[nH][nH]c(-c2cccc(Br)c2)c1Cc1ccccc1

>  <score_type>  (46) 
oracle

>  <origin>  (46) 
adg

>  <m_score__min__energy>  (46) 
-9.9299999999999997

>  <m_primary>  (46) 
energy

$$$$
46:0
     RDKit          3D

 29 30  0  0  0  0  0  0  0  0999 V2000
   55.1480   28.2290   45.3380 H   0  0  0  0  0  0  0  0  0  0  0  0
   55.3760   28.9520   44.6690 O   0  0  0  0  0  0  0  0  0  0  0  0
   56.5230   29.7440   44.7710 C   0  0  0  0  0  0  0  0  0  0  0  0
   57.7720   29.2200   45.1700 C   0  0  0  0  0  0  0  0  0  0  0  0
   57.9770   27.7850   45.4500 C   0  0  0  0  0  0  0  0  0  0  0  0
   58.8910   27.1760   44.8370 O   0  0  0  0  0  0  0  0  0  0  0  0
   57.1690   27.0530   46.3870 N   0  0  0  0  0  0  0  0  0  0  0  0
   56.1840   26.2590   46.0880 C   0  0  0  0  0  0  0  0  0  0  0  0
   56.3550   24.9520   45.8190 N   0  0  0  0  0  0  0  0  0  0  0  0
   55.0830   24.5800   45.5600 C   0  0  0  0  0  0  0  0  0  0  0  0
   54.6820   23.1730   45.2500 C   0  0  0  0  0  0  0  0  0  0  0  0
   53.7752   23.1846   44.6274 H   0  0  0  0  0  0  0  0  0  0  0  0
   54.4889   22.6435   46.1946 H   0  0  0  0  0  0  0  0  0  0  0  0
   55.7940   22.4500   44.5010 C   0  0  0  0  0  0  0  0  0  0  0  0
   56.4892   21.9980   45.2238 H   0  0  0  0  0  0  0  0  0  0  0  0
   55.3583   21.6620   43.8692 H   0  0  0  0  0  0  0  0  0  0  0  0
   56.3375   23.1679   43.8692 H   0  0  0  0  0  0  0  0  0  0  0  0
   54.2040   25.5960   45.6790 N   0  0  0  0  0  0  0  0  0  0  0  0
   54.9290   26.6240   46.0010 O   0  0  0  0  0  0  0  0  0  0  0  0
   58.8330   30.0610   45.3170 N   0  0  0  0  0  0  0  0  0  0  0  0
   58.7430   31.3940   45.0630 C   0  0  0  0  0  0  0  0  0  0  0  0
   59.6269   32.0369   45.1872 H   0  0  0  0  0  0  0  0  0  0  0  0
   57.5290   31.9500   44.6440 C   0  0  0  0  0  0  0  0  0  0  0  0
   57.4320   33.4090   44.3120 C   0  0  0  0  0  0  0  0  0  0  0  0
   57.3930   33.9949   45.2422 H   0  0  0  0  0  0  0  0  0  0  0  0
   58.3121   33.7108   43.7251 H   0  0  0  0  0  0  0  0  0  0  0  0
   56.5197   33.5916   43.7251 H   0  0  0  0  0  0  0  0  0  0  0  0
   56.4210   31.1080   44.4860 C   0  0  0  0  0  0  0  0  0  0  0  0
   55.4646   31.5231   44.1354 H   0  0  0  0  0  0  0  0  0  0  0  0
  1  2  1  0
  2  3  1  0
  3  4  2  0
  4  5  1  0
  5  6  2  0
  5  7  1  0
  7  8  2  0
  8  9  1  0
  9 10  2  0
 10 11  1  0
 11 12  1  0
 11 13  1  0
 11 14  1  0
 14 15  1  0
 14 16  1  0
 14 17  1  0
 10 18  1  0
 18 19  1  0
  4 20  1  0
 20 21  2  0
 21 22  1  0
 21 23  1  0
 23 24  1  0
 24 25  1  0
 24 26  1  0
 24 27  1  0
 23 28  2  0
 28 29  1  0
 28  3  1  0
 19  8  1  0
M  CHG  1  18  -1
M  END
>  <UniqueID>  (47) 
41

>  <SMILES>  (47) 
CCc1n/c(=N/C(=O)c2ncc(C)cc2O)o[n-]1

>  <Energy>  (47) 
67.17503524770031

>  <Genealogy>  (47) 
CCc1nc(=NC(=O)c2ncc(C)cc2O)o[n-]1 (protonated)
CCc1n/c(=N/C(=O)c2ncc(C)cc2O)o[n-]1 (cis-trans isomerization)
CCc1n/c(=N/C(=O)c2ncc(C)cc2O)o[n-]1 (3D coordinates assigned)
CCc1n/c(=N/C(=O)c2ncc(C)cc2O)o[n-]1 (optimized conformer: 67.17503524770031 kcal/mol)

>  <smiles>  (47) 
CCc1nc(=NC(=O)c2ncc(C)cc2O)o[nH]1

>  <score_type>  (47) 
oracle

>  <origin>  (47) 
adg

>  <m_score__min__energy>  (47) 
-9.4000000000000004

>  <m_primary>  (47) 
energy

$$$$
47:0
     RDKit          3D

 20 21  0  0  0  0  0  0  0  0999 V2000
   58.4010   28.4470   46.0470 S   0  0  0  0  0  0  0  0  0  0  0  0
   57.1060   29.1570   45.3410 C   0  0  0  0  0  0  0  0  0  0  0  0
   55.9010   28.5670   45.2470 N   0  0  0  0  0  0  0  0  0  0  0  0
   55.1470   29.3520   44.4870 N   0  0  0  0  0  0  0  0  0  0  0  0
   55.9060   30.4040   44.1170 C   0  0  0  0  0  0  0  0  0  0  0  0
   57.1300   30.3170   44.6580 N   0  0  0  0  0  0  0  0  0  0  0  0
   58.2300   31.1460   44.3680 N   0  0  0  0  0  0  0  0  0  0  0  0
   58.5240   32.3370   45.1160 C   0  0  0  0  0  0  0  0  0  0  0  0
   58.5390   33.6000   44.4970 C   0  0  0  0  0  0  0  0  0  0  0  0
   58.8480   34.7440   45.2400 C   0  0  0  0  0  0  0  0  0  0  0  0
   59.1550   34.6360   46.5980 C   0  0  0  0  0  0  0  0  0  0  0  0
   59.1590   33.3830   47.2160 C   0  0  0  0  0  0  0  0  0  0  0  0
   58.8510   32.2360   46.4770 C   0  0  0  0  0  0  0  0  0  0  0  0
   55.5677   31.2204   43.4620 H   0  0  0  0  0  0  0  0  0  0  0  0
   58.7940   30.9430   43.5120 H   0  0  0  0  0  0  0  0  0  0  0  0
   58.3070   33.6882   43.4254 H   0  0  0  0  0  0  0  0  0  0  0  0
   58.8492   35.7307   44.7537 H   0  0  0  0  0  0  0  0  0  0  0  0
   59.3937   35.5376   47.1812 H   0  0  0  0  0  0  0  0  0  0  0  0
   59.4046   33.2984   48.2849 H   0  0  0  0  0  0  0  0  0  0  0  0
   58.8652   31.2502   46.9649 H   0  0  0  0  0  0  0  0  0  0  0  0
  1  2  2  0
  2  3  1  0
  3  4  1  0
  4  5  2  0
  5  6  1  0
  6  7  1  0
  7  8  1  0
  8  9  2  0
  9 10  1  0
 10 11  2  0
 11 12  1  0
 12 13  2  0
  6  2  1  0
 13  8  1  0
  5 14  1  0
  7 15  1  0
  9 16  1  0
 10 17  1  0
 11 18  1  0
 12 19  1  0
 13 20  1  0
M  CHG  1   3  -1
M  END
>  <UniqueID>  (48) 
42

>  <SMILES>  (48) 
S=c1[n-]ncn1Nc1ccccc1

>  <Energy>  (48) 
63.33865304028932

>  <Genealogy>  (48) 
S=c1[n-]ncn1Nc1ccccc1 (protonated)
S=c1[n-]ncn1Nc1ccccc1 (3D coordinates assigned)
S=c1[n-]ncn1Nc1ccccc1 (optimized conformer: 63.33865304028932 kcal/mol)

>  <smiles>  (48) 
S=c1[nH]ncn1Nc1ccccc1

>  <score_type>  (48) 
oracle

>  <origin>  (48) 
adg

>  <m_score__min__energy>  (48) 
-7.3799999999999999

>  <m_primary>  (48) 
energy

$$$$
48:0
     RDKit          3D

 73 77  0  0  0  0  0  0  0  0999 V2000
   58.5330   30.8150   46.5900 N   0  0  0  0  0  0  0  0  0  0  0  0
   58.2470   31.9070   45.9430 C   0  0  0  0  0  0  0  0  0  0  0  0
   58.5350   33.2210   46.4110 N   0  0  0  0  0  0  0  0  0  0  0  0
   58.8550   33.6650   47.7770 C   0  0  0  0  0  0  0  0  0  0  0  0
   58.7940   32.4890   48.7740 C   0  0  0  0  0  0  0  0  0  0  0  0
   59.0430   32.9580   50.2210 C   0  0  0  0  0  0  0  0  0  0  0  0
   60.0440   34.1260   50.3330 C   0  0  0  0  0  0  0  0  0  0  0  0
   60.9870   34.2000   49.1240 C   0  0  0  0  0  0  0  0  0  0  0  0
   60.1970   34.4420   47.8250 C   0  0  0  0  0  0  0  0  0  0  0  0
   58.2230   34.1540   45.3310 C   0  0  0  0  0  0  0  0  0  0  0  0
   57.7110   33.2950   44.1520 C   0  0  0  0  0  0  0  0  0  0  0  0
   57.7320   31.9170   44.6230 N   0  0  0  0  0  0  0  0  0  0  0  0
   56.8100   30.6450   43.8830 S   0  0  0  0  0  0  0  0  0  0  0  0
   57.0190   30.6700   42.3930 O   0  0  0  0  0  0  0  0  0  0  0  0
   55.3440   30.8530   44.1450 O   0  0  0  0  0  0  0  0  0  0  0  0
   57.3330   29.0850   44.5090 C   0  0  0  0  0  0  0  0  0  0  0  0
   56.4350   28.2940   45.2370 C   0  0  0  0  0  0  0  0  0  0  0  0
   56.8550   27.0840   45.7960 C   0  0  0  0  0  0  0  0  0  0  0  0
   58.1760   26.6410   45.6180 C   0  0  0  0  0  0  0  0  0  0  0  0
   58.6550   25.3960   46.3160 C   0  0  0  0  0  0  0  0  0  0  0  0
   58.8980   25.6840   47.8020 C   0  0  0  0  0  0  0  0  0  0  0  0
   59.9560   26.6780   47.9860 N   0  0  0  0  0  0  0  0  0  0  0  0
   59.6380   28.0740   48.0930 C   0  0  0  0  0  0  0  0  0  0  0  0
   58.5020   28.4810   47.7230 O   0  0  0  0  0  0  0  0  0  0  0  0
   60.6150   29.0500   48.6370 C   0  0  0  0  0  0  0  0  0  0  0  0
   61.1330   30.0590   47.8060 C   0  0  0  0  0  0  0  0  0  0  0  0
   62.0120   31.0190   48.3160 C   0  0  0  0  0  0  0  0  0  0  0  0
   62.3920   30.9950   49.6680 C   0  0  0  0  0  0  0  0  0  0  0  0
   63.3000   32.0350   50.2170 C   0  0  0  0  0  0  0  0  0  0  0  0
   64.4880   32.3730   49.5410 C   0  0  0  0  0  0  0  0  0  0  0  0
   65.3360   33.3610   50.0500 C   0  0  0  0  0  0  0  0  0  0  0  0
   65.0110   34.0220   51.2350 C   0  0  0  0  0  0  0  0  0  0  0  0
   63.8350   33.6950   51.9160 C   0  0  0  0  0  0  0  0  0  0  0  0
   62.9840   32.7080   51.4120 C   0  0  0  0  0  0  0  0  0  0  0  0
   61.8790   29.9830   50.4980 C   0  0  0  0  0  0  0  0  0  0  0  0
   60.9980   29.0240   49.9900 C   0  0  0  0  0  0  0  0  0  0  0  0
   59.0700   27.4280   44.8740 C   0  0  0  0  0  0  0  0  0  0  0  0
   58.6500   28.6420   44.3190 C   0  0  0  0  0  0  0  0  0  0  0  0
   59.1700   30.0880   46.2000 H   0  0  0  0  0  0  0  0  0  0  0  0
   58.1010   30.6110   47.5170 H   0  0  0  0  0  0  0  0  0  0  0  0
   58.0826   34.3803   48.0961 H   0  0  0  0  0  0  0  0  0  0  0  0
   57.7992   32.0231   48.7160 H   0  0  0  0  0  0  0  0  0  0  0  0
   59.5813   31.7692   48.5055 H   0  0  0  0  0  0  0  0  0  0  0  0
   58.0834   33.2812   50.6509 H   0  0  0  0  0  0  0  0  0  0  0  0
   59.4816   32.1070   50.7627 H   0  0  0  0  0  0  0  0  0  0  0  0
   59.4817   35.0689   50.4018 H   0  0  0  0  0  0  0  0  0  0  0  0
   60.6581   33.9594   51.2303 H   0  0  0  0  0  0  0  0  0  0  0  0
   61.6983   35.0259   49.2721 H   0  0  0  0  0  0  0  0  0  0  0  0
   61.5222   33.2430   49.0367 H   0  0  0  0  0  0  0  0  0  0  0  0
   59.9823   35.5176   47.7407 H   0  0  0  0  0  0  0  0  0  0  0  0
   60.8165   34.0799   46.9913 H   0  0  0  0  0  0  0  0  0  0  0  0
   57.4454   34.8626   45.6522 H   0  0  0  0  0  0  0  0  0  0  0  0
   59.1062   34.7432   45.0432 H   0  0  0  0  0  0  0  0  0  0  0  0
   56.6871   33.5906   43.8796 H   0  0  0  0  0  0  0  0  0  0  0  0
   58.3362   33.4251   43.2563 H   0  0  0  0  0  0  0  0  0  0  0  0
   55.3949   28.6266   45.3692 H   0  0  0  0  0  0  0  0  0  0  0  0
   56.1475   26.4754   46.3783 H   0  0  0  0  0  0  0  0  0  0  0  0
   57.8934   24.6084   46.2181 H   0  0  0  0  0  0  0  0  0  0  0  0
   59.5975   25.0655   45.8551 H   0  0  0  0  0  0  0  0  0  0  0  0
   57.9679   26.0639   48.2499 H   0  0  0  0  0  0  0  0  0  0  0  0
   59.2119   24.7492   48.2895 H   0  0  0  0  0  0  0  0  0  0  0  0
   60.9520   26.3680   48.0380 H   0  0  0  0  0  0  0  0  0  0  0  0
   60.8440   30.0933   46.7452 H   0  0  0  0  0  0  0  0  0  0  0  0
   62.4099   31.8007   47.6521 H   0  0  0  0  0  0  0  0  0  0  0  0
   64.7506   31.8562   48.6061 H   0  0  0  0  0  0  0  0  0  0  0  0
   66.2620   33.6180   49.5148 H   0  0  0  0  0  0  0  0  0  0  0  0
   65.6796   34.7996   51.6329 H   0  0  0  0  0  0  0  0  0  0  0  0
   63.5789   34.2157   52.8505 H   0  0  0  0  0  0  0  0  0  0  0  0
   62.0603   32.4551   51.9532 H   0  0  0  0  0  0  0  0  0  0  0  0
   62.1736   29.9454   51.5571 H   0  0  0  0  0  0  0  0  0  0  0  0
   60.6008   28.2423   50.6542 H   0  0  0  0  0  0  0  0  0  0  0  0
   60.1058   27.0884   44.7267 H   0  0  0  0  0  0  0  0  0  0  0  0
   59.3544   29.2501   43.7324 H   0  0  0  0  0  0  0  0  0  0  0  0
  1  2  2  0
  2  3  1  0
  3  4  1  0
  4  5  1  0
  5  6  1  0
  6  7  1  0
  7  8  1  0
  8  9  1  0
  3 10  1  0
 10 11  1  0
 11 12  1  0
 12 13  1  0
 13 14  2  0
 13 15  2  0
 13 16  1  0
 16 17  2  0
 17 18  1  0
 18 19  2  0
 19 20  1  0
 20 21  1  0
 21 22  1  0
 22 23  1  0
 23 24  2  0
 23 25  1  0
 25 26  2  0
 26 27  1  0
 27 28  2  0
 28 29  1  0
 29 30  2  0
 30 31  1  0
 31 32  2  0
 32 33  1  0
 33 34  2  0
 28 35  1  0
 35 36  2  0
 19 37  1  0
 37 38  2  0
 12  2  1  0
 38 16  1  0
  9  4  1  0
 36 25  1  0
 34 29  1  0
  1 39  1  0
  1 40  1  0
  4 41  1  0
  5 42  1  0
  5 43  1  0
  6 44  1  0
  6 45  1  0
  7 46  1  0
  7 47  1  0
  8 48  1  0
  8 49  1  0
  9 50  1  0
  9 51  1  0
 10 52  1  0
 10 53  1  0
 11 54  1  0
 11 55  1  0
 17 56  1  0
 18 57  1  0
 20 58  1  0
 20 59  1  0
 21 60  1  0
 21 61  1  0
 22 62  1  0
 26 63  1  0
 27 64  1  0
 30 65  1  0
 31 66  1  0
 32 67  1  0
 33 68  1  0
 34 69  1  0
 35 70  1  0
 36 71  1  0
 37 72  1  0
 38 73  1  0
M  CHG  1   1   1
M  END
>  <UniqueID>  (49) 
43

>  <SMILES>  (49) 
[NH2+]=C1N(C2CCCCC2)CCN1S(=O)(=O)c1ccc(CCNC(=O)c2ccc(-c3ccccc3)cc2)cc1

>  <Energy>  (49) 
98.95529252627678

>  <Genealogy>  (49) 
[NH2+]=C1N(C2CCCCC2)CCN1S(=O)(=O)c1ccc(CCNC(=O)c2ccc(-c3ccccc3)cc2)cc1 (protonated)
[NH2+]=C1N(C2CCCCC2)CCN1S(=O)(=O)c1ccc(CCNC(=O)c2ccc(-c3ccccc3)cc2)cc1 (3D coordinates assigned)
[NH2+]=C1N(C2CCCCC2)CCN1S(=O)(=O)c1ccc(CCNC(=O)c2ccc(-c3ccccc3)cc2)cc1 (nonaromatic ring conformer: 98.95529252627678 kcal/mol)

>  <smiles>  (49) 
N=C1N(C2CCCCC2)CCN1S(=O)(=O)c1ccc(CCNC(=O)c2ccc(-c3ccccc3)cc2)cc1

>  <score_type>  (49) 
oracle

>  <origin>  (49) 
adg

>  <m_score__min__energy>  (49) 
-8.8399999999999999

>  <m_primary>  (49) 
energy

$$$$
49:0
     RDKit          3D

 60 63  0  0  0  0  0  0  0  0999 V2000
   64.0810   32.1040   50.3590 C   0  0  0  0  0  0  0  0  0  0  0  0
   63.9320   32.0670   48.8920 N   0  0  0  0  0  0  0  0  0  0  0  0
   64.1570   33.4120   48.2910 C   0  0  0  0  0  0  0  0  0  0  0  0
   62.8450   34.1740   48.0500 C   0  0  0  0  0  0  0  0  0  0  0  0
   61.9160   33.4000   47.0780 C   0  0  0  0  0  0  0  0  0  0  0  0
   60.4930   33.7550   47.2940 N   0  0  0  0  0  0  0  0  0  0  0  0
   60.0260   35.0270   46.7370 C   0  0  0  0  0  0  0  0  0  0  0  0
   59.7300   33.1840   48.3770 C   0  0  0  0  0  0  0  0  0  0  0  0
   59.9160   33.6510   49.6450 N   0  0  0  0  0  0  0  0  0  0  0  0
   59.2890   33.0880   50.7110 C   0  0  0  0  0  0  0  0  0  0  0  0
   58.4060   32.0180   50.5120 C   0  0  0  0  0  0  0  0  0  0  0  0
   57.7100   31.3540   51.6420 C   0  0  0  0  0  0  0  0  0  0  0  0
   56.3080   31.2090   51.6570 C   0  0  0  0  0  0  0  0  0  0  0  0
   55.6870   30.5950   52.7480 C   0  0  0  0  0  0  0  0  0  0  0  0
   56.4330   30.1410   53.7910 N   0  0  0  0  0  0  0  0  0  0  0  0
   57.7870   30.2720   53.8100 C   0  0  0  0  0  0  0  0  0  0  0  0
   58.4480   30.8820   52.7420 C   0  0  0  0  0  0  0  0  0  0  0  0
   58.1590   31.6070   49.2400 N   0  0  0  0  0  0  0  0  0  0  0  0
   58.7710   32.1670   48.1620 C   0  0  0  0  0  0  0  0  0  0  0  0
   58.4050   31.7160   46.8460 N   0  0  0  0  0  0  0  0  0  0  0  0
   58.9650   30.4730   46.3040 C   0  0  0  0  0  0  0  0  0  0  0  0
   57.9270   29.7370   45.4310 C   0  0  0  0  0  0  0  0  0  0  0  0
   56.8650   30.6320   44.9160 N   0  0  0  0  0  0  0  0  0  0  0  0
   56.2200   30.0400   43.7320 C   0  0  0  0  0  0  0  0  0  0  0  0
   57.3830   31.9780   44.6070 C   0  0  0  0  0  0  0  0  0  0  0  0
   57.8040   32.6740   45.9090 C   0  0  0  0  0  0  0  0  0  0  0  0
   62.1680   31.8740   47.1250 C   0  0  0  0  0  0  0  0  0  0  0  0
   62.6410   31.4310   48.5170 C   0  0  0  0  0  0  0  0  0  0  0  0
   63.1170   31.8646   50.8316 H   0  0  0  0  0  0  0  0  0  0  0  0
   64.8350   31.3658   50.6697 H   0  0  0  0  0  0  0  0  0  0  0  0
   64.4021   33.1092   50.6697 H   0  0  0  0  0  0  0  0  0  0  0  0
   64.7879   34.0020   48.9721 H   0  0  0  0  0  0  0  0  0  0  0  0
   64.6433   33.2657   47.3153 H   0  0  0  0  0  0  0  0  0  0  0  0
   62.3266   34.3084   49.0108 H   0  0  0  0  0  0  0  0  0  0  0  0
   63.0861   35.1480   47.5993 H   0  0  0  0  0  0  0  0  0  0  0  0
   62.1687   33.7158   46.0551 H   0  0  0  0  0  0  0  0  0  0  0  0
   59.7732   35.7155   47.5568 H   0  0  0  0  0  0  0  0  0  0  0  0
   60.8202   35.4698   46.1180 H   0  0  0  0  0  0  0  0  0  0  0  0
   59.1339   34.8507   46.1180 H   0  0  0  0  0  0  0  0  0  0  0  0
   60.5590   34.4570   49.8130 H   0  0  0  0  0  0  0  0  0  0  0  0
   59.4737   33.4704   51.7257 H   0  0  0  0  0  0  0  0  0  0  0  0
   55.7054   31.5775   50.8137 H   0  0  0  0  0  0  0  0  0  0  0  0
   54.5933   30.4786   52.7634 H   0  0  0  0  0  0  0  0  0  0  0  0
   58.3625   29.8964   54.6689 H   0  0  0  0  0  0  0  0  0  0  0  0
   59.5422   30.9930   52.7610 H   0  0  0  0  0  0  0  0  0  0  0  0
   59.8465   30.7122   45.6911 H   0  0  0  0  0  0  0  0  0  0  0  0
   59.2465   29.8190   47.1425 H   0  0  0  0  0  0  0  0  0  0  0  0
   58.4478   29.2825   44.5753 H   0  0  0  0  0  0  0  0  0  0  0  0
   57.4411   28.9806   46.0649 H   0  0  0  0  0  0  0  0  0  0  0  0
   55.4451   29.3287   44.0538 H   0  0  0  0  0  0  0  0  0  0  0  0
   55.7592   30.8362   43.1289 H   0  0  0  0  0  0  0  0  0  0  0  0
   56.9739   29.5128   43.1289 H   0  0  0  0  0  0  0  0  0  0  0  0
   58.2527   31.8920   43.9391 H   0  0  0  0  0  0  0  0  0  0  0  0
   56.5983   32.5688   44.1118 H   0  0  0  0  0  0  0  0  0  0  0  0
   58.5386   33.4590   45.6763 H   0  0  0  0  0  0  0  0  0  0  0  0
   56.9101   33.1105   46.3785 H   0  0  0  0  0  0  0  0  0  0  0  0
   61.2333   31.3484   46.8798 H   0  0  0  0  0  0  0  0  0  0  0  0
   62.9543   31.6286   46.3959 H   0  0  0  0  0  0  0  0  0  0  0  0
   61.8779   31.7114   49.2579 H   0  0  0  0  0  0  0  0  0  0  0  0
   62.7911   30.3415   48.4955 H   0  0  0  0  0  0  0  0  0  0  0  0
  1  2  1  0
  2  3  1  0
  3  4  1  0
  4  5  1  0
  5  6  1  0
  6  7  1  0
  6  8  1  0
  8  9  2  0
  9 10  1  0
 10 11  2  0
 11 12  1  0
 12 13  2  0
 13 14  1  0
 14 15  2  0
 15 16  1  0
 16 17  2  0
 11 18  1  0
 18 19  2  0
 19 20  1  0
 20 21  1  0
 21 22  1  0
 22 23  1  0
 23 24  1  0
 23 25  1  0
 25 26  1  0
  5 27  1  0
 27 28  1  0
 28  2  1  0
 19  8  1  0
 26 20  1  0
 17 12  1  0
  1 29  1  0
  1 30  1  0
  1 31  1  0
  3 32  1  0
  3 33  1  0
  4 34  1  0
  4 35  1  0
  5 36  1  0
  7 37  1  0
  7 38  1  0
  7 39  1  0
  9 40  1  0
 10 41  1  0
 13 42  1  0
 14 43  1  0
 16 44  1  0
 17 45  1  0
 21 46  1  0
 21 47  1  0
 22 48  1  0
 22 49  1  0
 24 50  1  0
 24 51  1  0
 24 52  1  0
 25 53  1  0
 25 54  1  0
 26 55  1  0
 26 56  1  0
 27 57  1  0
 27 58  1  0
 28 59  1  0
 28 60  1  0
M  CHG  1   9   1
M  END
>  <UniqueID>  (50) 
44

>  <SMILES>  (50) 
CN1CCC(N(C)c2[nH+]cc(-c3ccncc3)nc2N2CCN(C)CC2)CC1

>  <Energy>  (50) 
89.06957114033672

>  <Genealogy>  (50) 
CN1CCC(N(C)c2[nH+]cc(-c3ccncc3)nc2N2CCN(C)CC2)CC1 (protonated)
CN1CCC(N(C)c2[nH+]cc(-c3ccncc3)nc2N2CCN(C)CC2)CC1 (3D coordinates assigned)
CN1CCC(N(C)c2[nH+]cc(-c3ccncc3)nc2N2CCN(C)CC2)CC1 (nonaromatic ring conformer: 89.06957114033672 kcal/mol)

>  <smiles>  (50) 
CN1CCC(N(C)c2ncc(-c3ccncc3)nc2N2CCN(C)CC2)CC1

>  <score_type>  (50) 
oracle

>  <origin>  (50) 
adg

>  <m_score__min__energy>  (50) 
-6.4800000000000004

>  <m_primary>  (50) 
energy

$$$$
50:0
     RDKit          3D

 36 38  0  0  0  0  0  0  0  0999 V2000
   52.7185   23.9332   44.7862 H   0  0  0  0  0  0  0  0  0  0  0  0
   53.7600   24.1970   45.0220 C   0  0  0  0  0  0  0  0  0  0  0  0
   54.0940   25.3660   45.6310 N   0  0  0  0  0  0  0  0  0  0  0  0
   55.4260   25.4640   45.8270 C   0  0  0  0  0  0  0  0  0  0  0  0
   55.9720   26.5180   46.3610 N   0  0  0  0  0  0  0  0  0  0  0  0
   57.2430   27.0770   46.0000 C   0  0  0  0  0  0  0  0  0  0  0  0
   58.2510   26.3240   45.9640 O   0  0  0  0  0  0  0  0  0  0  0  0
   57.3850   28.4990   45.6230 C   0  0  0  0  0  0  0  0  0  0  0  0
   58.3920   29.2910   46.2010 C   0  0  0  0  0  0  0  0  0  0  0  0
   59.0428   28.8668   46.9798 H   0  0  0  0  0  0  0  0  0  0  0  0
   58.5700   30.6140   45.7910 C   0  0  0  0  0  0  0  0  0  0  0  0
   59.3498   31.2321   46.2599 H   0  0  0  0  0  0  0  0  0  0  0  0
   57.7600   31.1580   44.7850 C   0  0  0  0  0  0  0  0  0  0  0  0
   58.0360   32.4710   44.2830 N   0  0  0  0  0  0  0  0  0  0  0  0
   57.9680   32.6450   43.2550 H   0  0  0  0  0  0  0  0  0  0  0  0
   57.9610   33.8500   45.3300 S   0  0  0  0  0  0  0  0  0  0  0  0
   56.6670   33.8330   46.0940 O   0  0  0  0  0  0  0  0  0  0  0  0
   58.0290   35.1050   44.5080 O   0  0  0  0  0  0  0  0  0  0  0  0
   59.3000   33.7680   46.4720 C   0  0  0  0  0  0  0  0  0  0  0  0
   60.6170   33.8280   45.9940 C   0  0  0  0  0  0  0  0  0  0  0  0
   60.8064   33.8578   44.9108 H   0  0  0  0  0  0  0  0  0  0  0  0
   61.6900   33.8500   46.8900 C   0  0  0  0  0  0  0  0  0  0  0  0
   62.7214   33.8981   46.5107 H   0  0  0  0  0  0  0  0  0  0  0  0
   61.4540   33.8110   48.2670 C   0  0  0  0  0  0  0  0  0  0  0  0
   62.9210   33.8680   49.4880 Br  0  0  0  0  0  0  0  0  0  0  0  0
   60.1420   33.7440   48.7490 C   0  0  0  0  0  0  0  0  0  0  0  0
   59.9558   33.7070   49.8325 H   0  0  0  0  0  0  0  0  0  0  0  0
   59.0670   33.7240   47.8540 C   0  0  0  0  0  0  0  0  0  0  0  0
   58.0364   33.6736   48.2353 H   0  0  0  0  0  0  0  0  0  0  0  0
   56.7250   30.3820   44.2400 C   0  0  0  0  0  0  0  0  0  0  0  0
   56.0623   30.8133   43.4753 H   0  0  0  0  0  0  0  0  0  0  0  0
   56.5320   29.0640   44.6640 C   0  0  0  0  0  0  0  0  0  0  0  0
   55.7083   28.4681   44.2440 H   0  0  0  0  0  0  0  0  0  0  0  0
   56.2410   24.1110   45.2270 S   0  0  0  0  0  0  0  0  0  0  0  0
   54.8270   23.3580   44.7180 C   0  0  0  0  0  0  0  0  0  0  0  0
   54.7576   22.3745   44.2302 H   0  0  0  0  0  0  0  0  0  0  0  0
  1  2  1  0
  2  3  1  0
  3  4  1  0
  4  5  2  0
  5  6  1  0
  6  7  2  0
  6  8  1  0
  8  9  2  0
  9 10  1  0
  9 11  1  0
 11 12  1  0
 11 13  2  0
 13 14  1  0
 14 15  1  0
 14 16  1  0
 16 17  2  0
 16 18  2  0
 16 19  1  0
 19 20  2  0
 20 21  1  0
 20 22  1  0
 22 23  1  0
 22 24  2  0
 24 25  1  0
 24 26  1  0
 26 27  1  0
 26 28  2  0
 28 29  1  0
 13 30  1  0
 30 31  1  0
 30 32  2  0
 32 33  1  0
  4 34  1  0
 34 35  1  0
 35 36  1  0
 35  2  2  0
 32  8  1  0
 28 19  1  0
M  CHG  1   3  -1
M  END
>  <UniqueID>  (51) 
45

>  <SMILES>  (51) 
O=C(/N=c1/[n-]ccs1)c1ccc(NS(=O)(=O)c2ccc(Br)cc2)cc1

>  <Energy>  (51) 
79.65147457971888

>  <Genealogy>  (51) 
O=C(N=c1[n-]ccs1)c1ccc(NS(=O)(=O)c2ccc(Br)cc2)cc1 (protonated)
O=C(/N=c1/[n-]ccs1)c1ccc(NS(=O)(=O)c2ccc(Br)cc2)cc1 (cis-trans isomerization)
O=C(/N=c1/[n-]ccs1)c1ccc(NS(=O)(=O)c2ccc(Br)cc2)cc1 (3D coordinates assigned)
O=C(/N=c1/[n-]ccs1)c1ccc(NS(=O)(=O)c2ccc(Br)cc2)cc1 (optimized conformer: 79.65147457971888 kcal/mol)

>  <smiles>  (51) 
O=C(N=c1[nH]ccs1)c1ccc(NS(=O)(=O)c2ccc(Br)cc2)cc1

>  <score_type>  (51) 
oracle

>  <origin>  (51) 
adg

>  <m_score__min__energy>  (51) 
-11.300000000000001

>  <m_primary>  (51) 
energy

$$$$
51:0
     RDKit          3D

 29 30  0  0  0  0  0  0  0  0999 V2000
   58.6210   33.0050   44.9520 C   0  0  0  0  0  0  0  0  0  0  0  0
   57.7880   31.9450   44.2940 C   0  0  0  0  0  0  0  0  0  0  0  0
   57.7200   31.8630   42.8960 C   0  0  0  0  0  0  0  0  0  0  0  0
   56.9700   30.8540   42.2860 C   0  0  0  0  0  0  0  0  0  0  0  0
   56.3050   29.9050   43.0670 C   0  0  0  0  0  0  0  0  0  0  0  0
   56.4000   29.9470   44.4630 C   0  0  0  0  0  0  0  0  0  0  0  0
   55.7300   28.9400   45.2350 N   0  0  0  0  0  0  0  0  0  0  0  0
   56.2700   27.6650   45.6100 C   0  0  0  0  0  0  0  0  0  0  0  0
   55.4800   26.7270   45.8890 O   0  0  0  0  0  0  0  0  0  0  0  0
   57.6830   27.4270   45.6790 N   0  0  0  0  0  0  0  0  0  0  0  0
   58.6680   28.3450   46.1760 C   0  0  0  0  0  0  0  0  0  0  0  0
   59.7570   28.7560   45.3860 C   0  0  0  0  0  0  0  0  0  0  0  0
   60.6910   29.6620   45.8970 C   0  0  0  0  0  0  0  0  0  0  0  0
   60.5550   30.1500   47.2000 C   0  0  0  0  0  0  0  0  0  0  0  0
   61.4620   31.0290   47.6930 F   0  0  0  0  0  0  0  0  0  0  0  0
   59.4880   29.7240   47.9970 C   0  0  0  0  0  0  0  0  0  0  0  0
   58.5530   28.8180   47.4890 C   0  0  0  0  0  0  0  0  0  0  0  0
   57.1270   30.9850   45.0750 C   0  0  0  0  0  0  0  0  0  0  0  0
   58.5435   32.9064   46.0448 H   0  0  0  0  0  0  0  0  0  0  0  0
   59.6713   32.8880   44.6468 H   0  0  0  0  0  0  0  0  0  0  0  0
   58.2590   33.9979   44.6468 H   0  0  0  0  0  0  0  0  0  0  0  0
   58.2589   32.5955   42.2772 H   0  0  0  0  0  0  0  0  0  0  0  0
   56.9030   30.8067   41.1891 H   0  0  0  0  0  0  0  0  0  0  0  0
   55.7041   29.1213   42.5825 H   0  0  0  0  0  0  0  0  0  0  0  0
   59.8738   28.3640   44.3649 H   0  0  0  0  0  0  0  0  0  0  0  0
   61.5346   29.9916   45.2726 H   0  0  0  0  0  0  0  0  0  0  0  0
   59.3845   30.1023   49.0247 H   0  0  0  0  0  0  0  0  0  0  0  0
   57.7227   28.4748   48.1236 H   0  0  0  0  0  0  0  0  0  0  0  0
   57.1773   31.0440   46.1723 H   0  0  0  0  0  0  0  0  0  0  0  0
  1  2  1  0
  2  3  2  0
  3  4  1  0
  4  5  2  0
  5  6  1  0
  6  7  1  0
  7  8  1  0
  8  9  2  0
  8 10  1  0
 10 11  1  0
 11 12  2  0
 12 13  1  0
 13 14  2  0
 14 15  1  0
 14 16  1  0
 16 17  2  0
  6 18  2  0
 18  2  1  0
 17 11  1  0
  1 19  1  0
  1 20  1  0
  1 21  1  0
  3 22  1  0
  4 23  1  0
  5 24  1  0
 12 25  1  0
 13 26  1  0
 16 27  1  0
 17 28  1  0
 18 29  1  0
M  CHG  2   7  -1  10  -1
M  END
>  <UniqueID>  (52) 
46

>  <SMILES>  (52) 
Cc1cccc([N-]C(=O)[N-]c2ccc(F)cc2)c1

>  <Energy>  (52) 
35.631452493731494

>  <Genealogy>  (52) 
Cc1cccc([N-]C(=O)[N-]c2ccc(F)cc2)c1 (protonated)
Cc1cccc([N-]C(=O)[N-]c2ccc(F)cc2)c1 (3D coordinates assigned)
Cc1cccc([N-]C(=O)[N-]c2ccc(F)cc2)c1 (optimized conformer: 35.631452493731494 kcal/mol)

>  <smiles>  (52) 
Cc1cccc(NC(=O)Nc2ccc(F)cc2)c1

>  <score_type>  (52) 
oracle

>  <origin>  (52) 
adg

>  <m_score__min__energy>  (52) 
-9.8800000000000008

>  <m_primary>  (52) 
energy

$$$$
52:0
     RDKit          3D

 37 39  0  0  0  0  0  0  0  0999 V2000
   57.7720   27.4470   47.3810 O   0  0  0  0  0  0  0  0  0  0  0  0
   56.9940   27.0770   46.4610 C   0  0  0  0  0  0  0  0  0  0  0  0
   56.3750   25.7850   46.5090 N   0  0  0  0  0  0  0  0  0  0  0  0
   56.2160   24.8690   45.4160 C   0  0  0  0  0  0  0  0  0  0  0  0
   57.2400   24.6400   44.4770 C   0  0  0  0  0  0  0  0  0  0  0  0
   57.0330   23.7560   43.4120 C   0  0  0  0  0  0  0  0  0  0  0  0
   55.8040   23.1080   43.2670 C   0  0  0  0  0  0  0  0  0  0  0  0
   55.6060   22.2530   42.2340 F   0  0  0  0  0  0  0  0  0  0  0  0
   54.7750   23.3500   44.1820 C   0  0  0  0  0  0  0  0  0  0  0  0
   54.9790   24.2330   45.2470 C   0  0  0  0  0  0  0  0  0  0  0  0
   56.7090   27.9450   45.3550 N   0  0  0  0  0  0  0  0  0  0  0  0
   57.1050   29.3250   45.2870 C   0  0  0  0  0  0  0  0  0  0  0  0
   58.0240   29.8730   46.2000 C   0  0  0  0  0  0  0  0  0  0  0  0
   58.3730   31.2250   46.1250 C   0  0  0  0  0  0  0  0  0  0  0  0
   57.8030   32.0490   45.1460 C   0  0  0  0  0  0  0  0  0  0  0  0
   58.2310   33.7540   45.0640 S   0  0  0  0  0  0  0  0  0  0  0  0
   57.0140   34.5610   44.7100 O   0  0  0  0  0  0  0  0  0  0  0  0
   59.2820   33.9580   44.0090 O   0  0  0  0  0  0  0  0  0  0  0  0
   58.8410   34.2540   46.6080 N   0  0  0  0  0  0  0  0  0  0  0  0
   60.0730   34.0780   46.9720 C   0  0  0  0  0  0  0  0  0  0  0  0
   61.0900   33.8540   46.1130 N   0  0  0  0  0  0  0  0  0  0  0  0
   62.2710   33.7070   46.7710 C   0  0  0  0  0  0  0  0  0  0  0  0
   62.1910   33.8160   48.1570 C   0  0  0  0  0  0  0  0  0  0  0  0
   60.5840   34.1060   48.5690 S   0  0  0  0  0  0  0  0  0  0  0  0
   56.8640   31.5140   44.2550 C   0  0  0  0  0  0  0  0  0  0  0  0
   56.5140   30.1630   44.3280 C   0  0  0  0  0  0  0  0  0  0  0  0
   58.2052   25.1573   44.5808 H   0  0  0  0  0  0  0  0  0  0  0  0
   57.8398   23.5710   42.6875 H   0  0  0  0  0  0  0  0  0  0  0  0
   53.8046   22.8456   44.0641 H   0  0  0  0  0  0  0  0  0  0  0  0
   54.1624   24.4297   45.9572 H   0  0  0  0  0  0  0  0  0  0  0  0
   56.2650   27.5160   44.5120 H   0  0  0  0  0  0  0  0  0  0  0  0
   58.4704   29.2348   46.9769 H   0  0  0  0  0  0  0  0  0  0  0  0
   59.0985   31.6435   46.8381 H   0  0  0  0  0  0  0  0  0  0  0  0
   63.2193   33.5161   46.2472 H   0  0  0  0  0  0  0  0  0  0  0  0
   63.0318   33.7279   48.8608 H   0  0  0  0  0  0  0  0  0  0  0  0
   56.4002   32.1598   43.4948 H   0  0  0  0  0  0  0  0  0  0  0  0
   55.7701   29.7532   43.6290 H   0  0  0  0  0  0  0  0  0  0  0  0
  1  2  2  0
  2  3  1  0
  3  4  1  0
  4  5  2  0
  5  6  1  0
  6  7  2  0
  7  8  1  0
  7  9  1  0
  9 10  2  0
  2 11  1  0
 11 12  1  0
 12 13  2  0
 13 14  1  0
 14 15  2  0
 15 16  1  0
 16 17  2  0
 16 18  2  0
 16 19  1  0
 19 20  2  3
 20 21  1  0
 21 22  1  0
 22 23  2  0
 23 24  1  0
 15 25  1  0
 25 26  2  0
 10  4  1  0
 26 12  1  0
 24 20  1  0
  5 27  1  0
  6 28  1  0
  9 29  1  0
 10 30  1  0
 11 31  1  0
 13 32  1  0
 14 33  1  0
 22 34  1  0
 23 35  1  0
 25 36  1  0
 26 37  1  0
M  CHG  2   3  -1  21  -1
M  END
>  <UniqueID>  (53) 
47

>  <SMILES>  (53) 
O=C([N-]c1ccc(F)cc1)Nc1ccc(S(=O)(=O)N=c2[n-]ccs2)cc1

>  <Energy>  (53) 
80.05897232941203

>  <Genealogy>  (53) 
O=C([N-]c1ccc(F)cc1)Nc1ccc(S(=O)(=O)N=c2[n-]ccs2)cc1 (protonated)
O=C([N-]c1ccc(F)cc1)Nc1ccc(S(=O)(=O)N=c2[n-]ccs2)cc1 (3D coordinates assigned)
O=C([N-]c1ccc(F)cc1)Nc1ccc(S(=O)(=O)N=c2[n-]ccs2)cc1 (optimized conformer: 80.05897232941203 kcal/mol)

>  <smiles>  (53) 
O=C(Nc1ccc(F)cc1)Nc1ccc(S(=O)(=O)N=c2[nH]ccs2)cc1

>  <score_type>  (53) 
oracle

>  <origin>  (53) 
adg

>  <m_score__min__energy>  (53) 
-10.75

>  <m_primary>  (53) 
energy

$$$$
53:0
     RDKit          3D

 36 38  0  0  0  0  0  0  0  0999 V2000
   62.0980   31.7480   48.7470 C   0  0  0  0  0  0  0  0  0  0  0  0
   61.2130   30.8400   47.9640 C   0  0  0  0  0  0  0  0  0  0  0  0
   61.0130   30.9650   46.6350 N   0  0  0  0  0  0  0  0  0  0  0  0
   60.1300   29.9840   46.3640 C   0  0  0  0  0  0  0  0  0  0  0  0
   59.5820   29.7170   44.9960 C   0  0  0  0  0  0  0  0  0  0  0  0
   58.1320   29.9290   44.9560 N   0  0  0  0  0  0  0  0  0  0  0  0
   57.2070   28.9970   44.3320 C   0  0  0  0  0  0  0  0  0  0  0  0
   55.9510   29.8360   44.0630 C   0  0  0  0  0  0  0  0  0  0  0  0
   56.2930   31.1830   44.4970 N   0  0  0  0  0  0  0  0  0  0  0  0
   57.4830   31.1950   44.9870 C   0  0  0  0  0  0  0  0  0  0  0  0
   58.0920   32.4270   45.5110 C   0  0  0  0  0  0  0  0  0  0  0  0
   58.5670   33.4060   44.6260 C   0  0  0  0  0  0  0  0  0  0  0  0
   59.1440   34.5790   45.1220 C   0  0  0  0  0  0  0  0  0  0  0  0
   59.2380   34.7850   46.5030 C   0  0  0  0  0  0  0  0  0  0  0  0
   58.7460   33.8210   47.3870 C   0  0  0  0  0  0  0  0  0  0  0  0
   58.1670   32.6490   46.8940 C   0  0  0  0  0  0  0  0  0  0  0  0
   59.8380   29.3040   47.5290 C   0  0  0  0  0  0  0  0  0  0  0  0
   58.8980   28.1580   47.7030 C   0  0  0  0  0  0  0  0  0  0  0  0
   60.5150   29.8620   48.5000 O   0  0  0  0  0  0  0  0  0  0  0  0
   61.9354   31.5812   49.8221 H   0  0  0  0  0  0  0  0  0  0  0  0
   63.1491   31.5396   48.4985 H   0  0  0  0  0  0  0  0  0  0  0  0
   61.8627   32.7934   48.4985 H   0  0  0  0  0  0  0  0  0  0  0  0
   60.0640   30.3961   44.2774 H   0  0  0  0  0  0  0  0  0  0  0  0
   59.7884   28.6682   44.7363 H   0  0  0  0  0  0  0  0  0  0  0  0
   57.6229   28.6050   43.3921 H   0  0  0  0  0  0  0  0  0  0  0  0
   57.0009   28.1210   44.9646 H   0  0  0  0  0  0  0  0  0  0  0  0
   55.7031   29.8271   42.9913 H   0  0  0  0  0  0  0  0  0  0  0  0
   55.0718   29.4430   44.5946 H   0  0  0  0  0  0  0  0  0  0  0  0
   58.4855   33.2507   43.5401 H   0  0  0  0  0  0  0  0  0  0  0  0
   59.5246   35.3409   44.4258 H   0  0  0  0  0  0  0  0  0  0  0  0
   59.6987   35.7049   46.8923 H   0  0  0  0  0  0  0  0  0  0  0  0
   58.8147   33.9852   48.4725 H   0  0  0  0  0  0  0  0  0  0  0  0
   57.7688   31.8982   47.5924 H   0  0  0  0  0  0  0  0  0  0  0  0
   58.7437   27.9699   48.7758 H   0  0  0  0  0  0  0  0  0  0  0  0
   57.9343   28.3993   47.2307 H   0  0  0  0  0  0  0  0  0  0  0  0
   59.3231   27.2601   47.2307 H   0  0  0  0  0  0  0  0  0  0  0  0
  1  2  1  0
  2  3  2  0
  3  4  1  0
  4  5  1  0
  5  6  1  0
  6  7  1  0
  7  8  1  0
  8  9  1  0
  9 10  2  0
 10 11  1  0
 11 12  2  0
 12 13  1  0
 13 14  2  0
 14 15  1  0
 15 16  2  0
  4 17  2  0
 17 18  1  0
 17 19  1  0
 19  2  1  0
 10  6  1  0
 16 11  1  0
  1 20  1  0
  1 21  1  0
  1 22  1  0
  5 23  1  0
  5 24  1  0
  7 25  1  0
  7 26  1  0
  8 27  1  0
  8 28  1  0
 12 29  1  0
 13 30  1  0
 14 31  1  0
 15 32  1  0
 16 33  1  0
 18 34  1  0
 18 35  1  0
 18 36  1  0
M  END
>  <UniqueID>  (54) 
48

>  <SMILES>  (54) 
Cc1nc(CN2CCN=C2c2ccccc2)c(C)o1

>  <Energy>  (54) 
78.46597248469915

>  <Genealogy>  (54) 
Cc1nc(CN2CCN=C2c2ccccc2)c(C)o1 (3D coordinates assigned)
Cc1nc(CN2CCN=C2c2ccccc2)c(C)o1 (nonaromatic ring conformer: 78.46597248469915 kcal/mol)

>  <smiles>  (54) 
Cc1nc(CN2CCN=C2c2ccccc2)c(C)o1

>  <score_type>  (54) 
oracle

>  <origin>  (54) 
adg

>  <m_score__min__energy>  (54) 
-6.6799999999999997

>  <m_primary>  (54) 
energy

$$$$
54:0
     RDKit          3D

 51 54  0  0  0  0  0  0  0  0999 V2000
   55.8900   27.6260   45.6200 O   0  0  0  0  0  0  0  0  0  0  0  0
   56.6550   28.5770   45.3190 C   0  0  0  0  0  0  0  0  0  0  0  0
   58.0730   28.3910   45.4250 N   0  0  0  0  0  0  0  0  0  0  0  0
   58.9200   29.0220   46.3910 C   0  0  0  0  0  0  0  0  0  0  0  0
   58.7850   28.6850   47.7400 C   0  0  0  0  0  0  0  0  0  0  0  0
   59.6090   29.2750   48.7020 C   0  0  0  0  0  0  0  0  0  0  0  0
   60.5970   30.1990   48.3210 C   0  0  0  0  0  0  0  0  0  0  0  0
   61.5270   30.7890   49.3530 C   0  0  0  0  0  0  0  0  0  0  0  0
   61.1780   32.2450   49.7100 C   0  0  0  0  0  0  0  0  0  0  0  0
   62.1590   33.2170   49.1760 N   0  0  0  0  0  0  0  0  0  0  0  0
   61.5210   34.1280   48.1910 C   0  0  0  0  0  0  0  0  0  0  0  0
   61.8470   33.7300   46.7400 C   0  0  0  0  0  0  0  0  0  0  0  0
   63.2380   33.7380   46.4510 O   0  0  0  0  0  0  0  0  0  0  0  0
   64.0550   33.4170   47.5700 C   0  0  0  0  0  0  0  0  0  0  0  0
   63.3540   32.5390   48.6200 C   0  0  0  0  0  0  0  0  0  0  0  0
   60.7470   30.5170   46.9610 C   0  0  0  0  0  0  0  0  0  0  0  0
   59.9130   29.9360   46.0030 C   0  0  0  0  0  0  0  0  0  0  0  0
   56.0840   29.8330   44.9230 N   0  0  0  0  0  0  0  0  0  0  0  0
   56.7340   30.8400   44.1330 C   0  0  0  0  0  0  0  0  0  0  0  0
   56.6850   30.7060   42.7390 C   0  0  0  0  0  0  0  0  0  0  0  0
   57.3640   31.5990   41.9120 C   0  0  0  0  0  0  0  0  0  0  0  0
   58.0950   32.6490   42.4640 C   0  0  0  0  0  0  0  0  0  0  0  0
   58.1370   32.8290   43.8520 C   0  0  0  0  0  0  0  0  0  0  0  0
   58.8640   33.8970   44.3990 C   0  0  0  0  0  0  0  0  0  0  0  0
   58.8690   34.1110   45.7780 C   0  0  0  0  0  0  0  0  0  0  0  0
   58.1360   33.2740   46.6190 C   0  0  0  0  0  0  0  0  0  0  0  0
   57.4100   32.2030   46.0900 C   0  0  0  0  0  0  0  0  0  0  0  0
   57.4270   31.9400   44.7050 C   0  0  0  0  0  0  0  0  0  0  0  0
   58.0255   27.9508   48.0467 H   0  0  0  0  0  0  0  0  0  0  0  0
   59.4837   29.0148   49.7634 H   0  0  0  0  0  0  0  0  0  0  0  0
   61.4690   30.1798   50.2671 H   0  0  0  0  0  0  0  0  0  0  0  0
   62.5400   30.7876   48.9242 H   0  0  0  0  0  0  0  0  0  0  0  0
   60.1873   32.4811   49.2944 H   0  0  0  0  0  0  0  0  0  0  0  0
   61.1909   32.3296   50.8067 H   0  0  0  0  0  0  0  0  0  0  0  0
   60.4305   34.0951   48.3316 H   0  0  0  0  0  0  0  0  0  0  0  0
   61.9144   35.1410   48.3614 H   0  0  0  0  0  0  0  0  0  0  0  0
   61.4597   32.7161   46.5613 H   0  0  0  0  0  0  0  0  0  0  0  0
   61.3752   34.4771   46.0849 H   0  0  0  0  0  0  0  0  0  0  0  0
   64.9442   32.8805   47.2074 H   0  0  0  0  0  0  0  0  0  0  0  0
   64.3080   34.3665   48.0643 H   0  0  0  0  0  0  0  0  0  0  0  0
   63.0437   31.5949   48.1485 H   0  0  0  0  0  0  0  0  0  0  0  0
   64.0600   32.3491   49.4419 H   0  0  0  0  0  0  0  0  0  0  0  0
   61.5261   31.2279   46.6486 H   0  0  0  0  0  0  0  0  0  0  0  0
   60.0344   30.1953   44.9409 H   0  0  0  0  0  0  0  0  0  0  0  0
   56.1036   29.8861   42.2920 H   0  0  0  0  0  0  0  0  0  0  0  0
   57.3227   31.4745   40.8198 H   0  0  0  0  0  0  0  0  0  0  0  0
   58.6420   33.3402   41.8059 H   0  0  0  0  0  0  0  0  0  0  0  0
   59.4323   34.5683   43.7383 H   0  0  0  0  0  0  0  0  0  0  0  0
   59.4522   34.9415   46.2025 H   0  0  0  0  0  0  0  0  0  0  0  0
   58.1292   33.4575   47.7036 H   0  0  0  0  0  0  0  0  0  0  0  0
   56.8204   31.5600   46.7600 H   0  0  0  0  0  0  0  0  0  0  0  0
  1  2  2  0
  2  3  1  0
  3  4  1  0
  4  5  2  0
  5  6  1  0
  6  7  2  0
  7  8  1  0
  8  9  1  0
  9 10  1  0
 10 11  1  0
 11 12  1  0
 12 13  1  0
 13 14  1  0
 14 15  1  0
  7 16  1  0
 16 17  2  0
  2 18  1  0
 18 19  1  0
 19 20  2  0
 20 21  1  0
 21 22  2  0
 22 23  1  0
 23 24  2  0
 24 25  1  0
 25 26  2  0
 26 27  1  0
 27 28  2  0
 17  4  1  0
 28 19  1  0
 15 10  1  0
 28 23  1  0
  5 29  1  0
  6 30  1  0
  8 31  1  0
  8 32  1  0
  9 33  1  0
  9 34  1  0
 11 35  1  0
 11 36  1  0
 12 37  1  0
 12 38  1  0
 14 39  1  0
 14 40  1  0
 15 41  1  0
 15 42  1  0
 16 43  1  0
 17 44  1  0
 20 45  1  0
 21 46  1  0
 22 47  1  0
 24 48  1  0
 25 49  1  0
 26 50  1  0
 27 51  1  0
M  CHG  2   3  -1  18  -1
M  END
>  <UniqueID>  (55) 
49

>  <SMILES>  (55) 
O=C([N-]c1ccc(CCN2CCOCC2)cc1)[N-]c1cccc2ccccc12

>  <Energy>  (55) 
78.19051349693757

>  <Genealogy>  (55) 
O=C([N-]c1ccc(CCN2CCOCC2)cc1)[N-]c1cccc2ccccc12 (protonated)
O=C([N-]c1ccc(CCN2CCOCC2)cc1)[N-]c1cccc2ccccc12 (3D coordinates assigned)
O=C([N-]c1ccc(CCN2CCOCC2)cc1)[N-]c1cccc2ccccc12 (nonaromatic ring conformer: 78.19051349693757 kcal/mol)

>  <smiles>  (55) 
O=C(Nc1ccc(CCN2CCOCC2)cc1)Nc1cccc2ccccc12

>  <score_type>  (55) 
oracle

>  <origin>  (55) 
adg

>  <m_score__min__energy>  (55) 
-12.6

>  <m_primary>  (55) 
energy

$$$$
55:0
     RDKit          3D

 57 60  0  0  0  0  0  0  0  0999 V2000
   62.8770   31.1070   50.1140 C   0  0  0  0  0  0  0  0  0  0  0  0
   63.9340   31.9500   49.4090 C   0  0  0  0  0  0  0  0  0  0  0  0
   63.5370   33.4330   49.3880 C   0  0  0  0  0  0  0  0  0  0  0  0
   62.9490   33.8560   48.0630 C   0  0  0  0  0  0  0  0  0  0  0  0
   63.6590   34.5140   47.2520 O   0  0  0  0  0  0  0  0  0  0  0  0
   61.5850   33.5410   47.7100 N   0  0  0  0  0  0  0  0  0  0  0  0
   60.5490   33.3130   48.7320 C   0  0  0  0  0  0  0  0  0  0  0  0
   59.7600   32.0410   48.4000 C   0  0  0  0  0  0  0  0  0  0  0  0
   59.4380   31.9650   46.9660 N   0  0  0  0  0  0  0  0  0  0  0  0
   58.8970   30.7460   46.4230 C   0  0  0  0  0  0  0  0  0  0  0  0
   57.8280   30.7860   45.5140 C   0  0  0  0  0  0  0  0  0  0  0  0
   57.2950   29.6010   44.9960 C   0  0  0  0  0  0  0  0  0  0  0  0
   57.8050   28.3570   45.3930 C   0  0  0  0  0  0  0  0  0  0  0  0
   57.2530   27.1550   44.8290 N   0  0  0  0  0  0  0  0  0  0  0  0
   56.6800   26.0950   45.6140 C   0  0  0  0  0  0  0  0  0  0  0  0
   56.2490   26.3410   46.7750 O   0  0  0  0  0  0  0  0  0  0  0  0
   56.5410   24.7270   45.0590 C   0  0  0  0  0  0  0  0  0  0  0  0
   56.7590   24.4940   43.6860 C   0  0  0  0  0  0  0  0  0  0  0  0
   56.6300   23.2060   43.1540 C   0  0  0  0  0  0  0  0  0  0  0  0
   56.2780   22.1420   43.9850 C   0  0  0  0  0  0  0  0  0  0  0  0
   56.0200   22.3670   45.3420 C   0  0  0  0  0  0  0  0  0  0  0  0
   56.1630   23.6480   45.8820 C   0  0  0  0  0  0  0  0  0  0  0  0
   55.6180   21.2950   46.1440 O   0  0  0  0  0  0  0  0  0  0  0  0
   55.2070   20.0530   45.5670 C   0  0  0  0  0  0  0  0  0  0  0  0
   56.0850   19.7150   44.3540 C   0  0  0  0  0  0  0  0  0  0  0  0
   56.1750   20.8430   43.4790 O   0  0  0  0  0  0  0  0  0  0  0  0
   58.8850   28.3170   46.2940 C   0  0  0  0  0  0  0  0  0  0  0  0
   59.4190   29.5010   46.8090 C   0  0  0  0  0  0  0  0  0  0  0  0
   59.7490   33.1040   46.0910 C   0  0  0  0  0  0  0  0  0  0  0  0
   61.2120   33.5200   46.2860 C   0  0  0  0  0  0  0  0  0  0  0  0
   62.9977   31.2033   51.2031 H   0  0  0  0  0  0  0  0  0  0  0  0
   61.8754   31.4570   49.8237 H   0  0  0  0  0  0  0  0  0  0  0  0
   62.9954   30.0526   49.8237 H   0  0  0  0  0  0  0  0  0  0  0  0
   64.8916   31.8422   49.9395 H   0  0  0  0  0  0  0  0  0  0  0  0
   64.0246   31.5986   48.3706 H   0  0  0  0  0  0  0  0  0  0  0  0
   62.7914   33.6097   50.1772 H   0  0  0  0  0  0  0  0  0  0  0  0
   64.4491   34.0253   49.5530 H   0  0  0  0  0  0  0  0  0  0  0  0
   61.0264   33.1996   49.7165 H   0  0  0  0  0  0  0  0  0  0  0  0
   59.8616   34.1716   48.7490 H   0  0  0  0  0  0  0  0  0  0  0  0
   60.3626   31.1638   48.6780 H   0  0  0  0  0  0  0  0  0  0  0  0
   58.8164   32.0628   48.9650 H   0  0  0  0  0  0  0  0  0  0  0  0
   57.4070   31.7549   45.2073 H   0  0  0  0  0  0  0  0  0  0  0  0
   56.4688   29.6456   44.2711 H   0  0  0  0  0  0  0  0  0  0  0  0
   57.1650   27.0980   43.7890 H   0  0  0  0  0  0  0  0  0  0  0  0
   57.0327   25.3314   43.0273 H   0  0  0  0  0  0  0  0  0  0  0  0
   56.8059   23.0327   42.0821 H   0  0  0  0  0  0  0  0  0  0  0  0
   55.9797   23.8144   46.9538 H   0  0  0  0  0  0  0  0  0  0  0  0
   55.3018   19.2547   46.3178 H   0  0  0  0  0  0  0  0  0  0  0  0
   54.1604   20.1386   45.2395 H   0  0  0  0  0  0  0  0  0  0  0  0
   57.0930   19.4422   44.6999 H   0  0  0  0  0  0  0  0  0  0  0  0
   55.6342   18.8729   43.8084 H   0  0  0  0  0  0  0  0  0  0  0  0
   59.3112   27.3485   46.5945 H   0  0  0  0  0  0  0  0  0  0  0  0
   60.2550   29.4574   47.5225 H   0  0  0  0  0  0  0  0  0  0  0  0
   59.5878   32.8143   45.0422 H   0  0  0  0  0  0  0  0  0  0  0  0
   59.0925   33.9492   46.3454 H   0  0  0  0  0  0  0  0  0  0  0  0
   61.8598   32.8048   45.7580 H   0  0  0  0  0  0  0  0  0  0  0  0
   61.3372   34.5358   45.8829 H   0  0  0  0  0  0  0  0  0  0  0  0
  1  2  1  0
  2  3  1  0
  3  4  1  0
  4  5  2  0
  4  6  1  0
  6  7  1  0
  7  8  1  0
  8  9  1  0
  9 10  1  0
 10 11  2  0
 11 12  1  0
 12 13  2  0
 13 14  1  0
 14 15  1  0
 15 16  2  0
 15 17  1  0
 17 18  2  0
 18 19  1  0
 19 20  2  0
 20 21  1  0
 21 22  2  0
 21 23  1  0
 23 24  1  0
 24 25  1  0
 25 26  1  0
 13 27  1  0
 27 28  2  0
  9 29  1  0
 29 30  1  0
 30  6  1  0
 28 10  1  0
 22 17  1  0
 26 20  1  0
  1 31  1  0
  1 32  1  0
  1 33  1  0
  2 34  1  0
  2 35  1  0
  3 36  1  0
  3 37  1  0
  7 38  1  0
  7 39  1  0
  8 40  1  0
  8 41  1  0
 11 42  1  0
 12 43  1  0
 14 44  1  0
 18 45  1  0
 19 46  1  0
 22 47  1  0
 24 48  1  0
 24 49  1  0
 25 50  1  0
 25 51  1  0
 27 52  1  0
 28 53  1  0
 29 54  1  0
 29 55  1  0
 30 56  1  0
 30 57  1  0
M  END
>  <UniqueID>  (56) 
50

>  <SMILES>  (56) 
CCCC(=O)N1CCN(c2ccc(NC(=O)c3ccc4c(c3)OCCO4)cc2)CC1

>  <Energy>  (56) 
67.61759446208164

>  <Genealogy>  (56) 
CCCC(=O)N1CCN(c2ccc(NC(=O)c3ccc4c(c3)OCCO4)cc2)CC1 (3D coordinates assigned)
CCCC(=O)N1CCN(c2ccc(NC(=O)c3ccc4c(c3)OCCO4)cc2)CC1 (nonaromatic ring conformer: 67.61759446208164 kcal/mol)

>  <smiles>  (56) 
CCCC(=O)N1CCN(c2ccc(NC(=O)c3ccc4c(c3)OCCO4)cc2)CC1

>  <score_type>  (56) 
oracle

>  <origin>  (56) 
adg

>  <m_score__min__energy>  (56) 
-7.9299999999999997

>  <m_primary>  (56) 
energy

$$$$
56:0
     RDKit          3D

 53 56  0  0  1  0  0  0  0  0999 V2000
   63.8920   32.5470   48.5620 C   0  0  0  0  0  0  0  0  0  0  0  0
   63.0770   33.6910   48.7350 O   0  0  0  0  0  0  0  0  0  0  0  0
   61.8480   33.8200   48.1220 C   0  0  0  0  0  0  0  0  0  0  0  0
   61.7860   33.7830   46.7460 C   0  0  0  0  0  0  0  0  0  0  0  0
   60.6250   33.9010   46.0260 C   0  0  0  0  0  0  0  0  0  0  0  0
   59.4490   34.0670   46.7160 C   0  0  0  0  0  0  0  0  0  0  0  0
   58.1410   34.2030   46.0510 C   0  0  0  0  0  0  0  0  0  0  0  0
   57.9690   33.3420   44.8050 C   0  0  0  0  0  0  0  0  0  0  0  0
   56.9530   32.3990   44.8580 N   0  0  0  0  0  0  0  0  0  0  0  0
   57.0320   31.1940   44.4760 C   0  0  0  0  0  0  0  0  0  0  0  0
   56.2140   30.8330   43.4590 N   0  0  0  0  0  0  0  0  0  0  0  0
   56.2370   29.5880   42.9770 C   0  0  0  0  0  0  0  0  0  0  0  0
   57.0630   28.6580   43.4760 N   0  0  0  0  0  0  0  0  0  0  0  0
   57.8740   29.0160   44.4840 C   0  0  0  0  0  0  0  0  0  0  0  0
   57.9220   30.2630   45.0450 C   0  0  0  0  0  0  0  0  0  0  0  0
   58.7380   30.7160   46.1540 C   0  0  0  0  0  0  0  0  0  0  0  0
   59.6940   29.6050   46.4100 N   0  0  0  0  0  0  0  0  0  0  0  0
   60.2230   29.4190   47.7350 C   0  0  0  0  0  0  0  0  0  0  0  0
   60.8130   30.4060   48.4690 C   0  0  0  0  0  0  0  0  0  0  0  0
   61.3080   30.1950   49.7370 C   0  0  0  0  0  0  0  0  0  0  0  0
   61.1830   28.9170   50.2560 C   0  0  0  0  0  0  0  0  0  0  0  0
   61.7060   28.6460   51.6260 C   0  0  0  0  0  0  0  0  0  0  0  0
   60.5910   27.9250   49.5230 C   0  0  0  0  0  0  0  0  0  0  0  0
   60.1300   28.1980   48.2940 N   0  0  0  0  0  0  0  0  0  0  0  0
   60.0690   28.7500   45.3020 C   0  0  0  0  0  0  0  0  0  0  0  0
   58.8040   27.9580   44.9860 C   0  0  0  0  0  0  0  0  0  0  0  0
   59.4780   34.1070   48.0930 C   0  0  0  0  0  0  0  0  0  0  0  0
   60.6610   33.9870   48.8020 C   0  0  0  0  0  0  0  0  0  0  0  0
   64.1767   32.1474   49.5465 H   0  0  0  0  0  0  0  0  0  0  0  0
   63.3349   31.7811   48.0025 H   0  0  0  0  0  0  0  0  0  0  0  0
   64.7979   32.8234   48.0025 H   0  0  0  0  0  0  0  0  0  0  0  0
   62.7262   33.6506   46.1906 H   0  0  0  0  0  0  0  0  0  0  0  0
   60.6351   33.8638   44.9267 H   0  0  0  0  0  0  0  0  0  0  0  0
   57.3589   33.9228   46.7720 H   0  0  0  0  0  0  0  0  0  0  0  0
   58.0678   35.2492   45.7191 H   0  0  0  0  0  0  0  0  0  0  0  0
   57.7634   34.0123   43.9574 H   0  0  0  0  0  0  0  0  0  0  0  0
   58.9030   32.7694   44.7064 H   0  0  0  0  0  0  0  0  0  0  0  0
   55.5621   29.3193   42.1509 H   0  0  0  0  0  0  0  0  0  0  0  0
   57.0530   27.6950   43.0730 H   0  0  0  0  0  0  0  0  0  0  0  0
   59.2779   31.6361   45.8858 H   0  0  0  0  0  0  0  0  0  0  0  0
   58.1330   30.9523   47.0417 H   0  0  0  0  0  0  0  0  0  0  0  0
   60.8969   31.4113   48.0304 H   0  0  0  0  0  0  0  0  0  0  0  0
   61.7812   31.0050   50.3115 H   0  0  0  0  0  0  0  0  0  0  0  0
   60.9887   29.0177   52.3725 H   0  0  0  0  0  0  0  0  0  0  0  0
   61.8444   27.5628   51.7580 H   0  0  0  0  0  0  0  0  0  0  0  0
   62.6708   29.1576   51.7580 H   0  0  0  0  0  0  0  0  0  0  0  0
   60.4940   26.9112   49.9388 H   0  0  0  0  0  0  0  0  0  0  0  0
   60.3784   29.3512   44.4343 H   0  0  0  0  0  0  0  0  0  0  0  0
   60.9207   28.0981   45.5461 H   0  0  0  0  0  0  0  0  0  0  0  0
   58.9940   27.1975   44.2143 H   0  0  0  0  0  0  0  0  0  0  0  0
   58.4090   27.4016   45.8488 H   0  0  0  0  0  0  0  0  0  0  0  0
   58.5351   34.2379   48.6442 H   0  0  0  0  0  0  0  0  0  0  0  0
   60.6536   34.0247   49.9013 H   0  0  0  0  0  0  0  0  0  0  0  0
  1  2  1  0
  2  3  1  0
  3  4  2  0
  4  5  1  0
  5  6  2  0
  6  7  1  0
  7  8  1  0
  8  9  1  0
  9 10  2  0
 10 11  1  0
 11 12  2  0
 12 13  1  0
 13 14  1  0
 14 15  2  0
 15 16  1  0
 16 17  1  0
 17 18  1  0
 18 19  2  0
 19 20  1  0
 20 21  2  0
 21 22  1  0
 21 23  1  0
 23 24  2  0
 17 25  1  0
 25 26  1  0
  6 27  1  0
 27 28  2  0
 28  3  1  0
 15 10  1  0
 24 18  1  0
 26 14  1  0
  1 29  1  0
  1 30  1  0
  1 31  1  0
  4 32  1  0
  5 33  1  0
  7 34  1  0
  7 35  1  0
  8 36  1  0
  8 37  1  0
 12 38  1  0
 13 39  1  0
 16 40  1  0
 16 41  1  0
 19 42  1  0
 20 43  1  0
 22 44  1  0
 22 45  1  0
 22 46  1  0
 23 47  1  0
 25 48  1  0
 25 49  1  0
 26 50  1  0
 26 51  1  0
 27 52  1  0
 28 53  1  0
M  END
>  <smiles>  (57) 
COc1ccc(CCN=c2nc[nH]c3c2CN(c2ccc(C)cn2)CC3)cc1

>  <score_type>  (57) 
oracle

>  <origin>  (57) 
adg

>  <m_score__min__energy>  (57) 
-8.5099999999999998

>  <m_primary>  (57) 
energy

$$$$
57:0
     RDKit          3D

 47 49  0  0  0  0  0  0  0  0999 V2000
   58.0150   32.0000   41.9280 C   0  0  0  0  0  0  0  0  0  0  0  0
   57.6500   33.0600   42.8040 O   0  0  0  0  0  0  0  0  0  0  0  0
   58.0520   33.1590   44.1440 C   0  0  0  0  0  0  0  0  0  0  0  0
   59.0920   34.0160   44.5540 C   0  0  0  0  0  0  0  0  0  0  0  0
   59.4740   34.0720   45.8960 C   0  0  0  0  0  0  0  0  0  0  0  0
   58.8230   33.2810   46.8570 C   0  0  0  0  0  0  0  0  0  0  0  0
   59.2410   33.3120   48.2350 N   0  0  0  0  0  0  0  0  0  0  0  0
   60.0180   34.4330   48.7700 C   0  0  0  0  0  0  0  0  0  0  0  0
   61.3410   33.9240   49.3760 C   0  0  0  0  0  0  0  0  0  0  0  0
   61.2510   32.5590   49.9580 N   0  0  0  0  0  0  0  0  0  0  0  0
   61.8840   31.5510   49.0890 C   0  0  0  0  0  0  0  0  0  0  0  0
   59.8750   32.1730   50.3360 C   0  0  0  0  0  0  0  0  0  0  0  0
   58.9230   32.1920   49.1270 C   0  0  0  0  0  0  0  0  0  0  0  0
   57.7900   32.4230   46.4470 C   0  0  0  0  0  0  0  0  0  0  0  0
   57.4060   32.3640   45.1020 C   0  0  0  0  0  0  0  0  0  0  0  0
   56.3880   31.4470   44.7020 N   0  0  0  0  0  0  0  0  0  0  0  0
   56.7440   29.7610   44.5510 S   0  0  0  0  0  0  0  0  0  0  0  0
   57.1430   29.4670   43.1320 O   0  0  0  0  0  0  0  0  0  0  0  0
   55.5230   28.9530   44.8880 O   0  0  0  0  0  0  0  0  0  0  0  0
   58.0660   29.3390   45.6350 C   0  0  0  0  0  0  0  0  0  0  0  0
   57.8180   28.5380   46.7600 C   0  0  0  0  0  0  0  0  0  0  0  0
   58.8490   28.2530   47.6600 C   0  0  0  0  0  0  0  0  0  0  0  0
   60.1310   28.7660   47.4430 C   0  0  0  0  0  0  0  0  0  0  0  0
   61.1290   28.4920   48.3190 F   0  0  0  0  0  0  0  0  0  0  0  0
   60.3820   29.5670   46.3240 C   0  0  0  0  0  0  0  0  0  0  0  0
   59.3530   29.8560   45.4230 C   0  0  0  0  0  0  0  0  0  0  0  0
   58.3170   31.1231   42.5194 H   0  0  0  0  0  0  0  0  0  0  0  0
   57.1559   31.7363   41.2936 H   0  0  0  0  0  0  0  0  0  0  0  0
   58.8543   32.3211   41.2936 H   0  0  0  0  0  0  0  0  0  0  0  0
   59.6064   34.6450   43.8125 H   0  0  0  0  0  0  0  0  0  0  0  0
   60.2914   34.7410   46.2030 H   0  0  0  0  0  0  0  0  0  0  0  0
   60.2393   35.1417   47.9583 H   0  0  0  0  0  0  0  0  0  0  0  0
   59.4324   34.9323   49.5560 H   0  0  0  0  0  0  0  0  0  0  0  0
   62.1035   33.9129   48.5832 H   0  0  0  0  0  0  0  0  0  0  0  0
   61.5982   34.6061   50.1998 H   0  0  0  0  0  0  0  0  0  0  0  0
   62.3667   30.7823   49.7104 H   0  0  0  0  0  0  0  0  0  0  0  0
   61.1183   31.0815   48.4540 H   0  0  0  0  0  0  0  0  0  0  0  0
   62.6395   32.0368   48.4540 H   0  0  0  0  0  0  0  0  0  0  0  0
   59.8935   31.1576   50.7586 H   0  0  0  0  0  0  0  0  0  0  0  0
   59.5060   32.9015   51.0729 H   0  0  0  0  0  0  0  0  0  0  0  0
   59.0252   31.2479   48.5719 H   0  0  0  0  0  0  0  0  0  0  0  0
   57.8916   32.3109   49.4905 H   0  0  0  0  0  0  0  0  0  0  0  0
   57.2783   31.7920   47.1886 H   0  0  0  0  0  0  0  0  0  0  0  0
   56.8100   28.1334   46.9342 H   0  0  0  0  0  0  0  0  0  0  0  0
   58.6511   27.6240   48.5404 H   0  0  0  0  0  0  0  0  0  0  0  0
   61.3910   29.9702   46.1527 H   0  0  0  0  0  0  0  0  0  0  0  0
   59.5526   30.4898   44.5464 H   0  0  0  0  0  0  0  0  0  0  0  0
  1  2  1  0
  2  3  1  0
  3  4  2  0
  4  5  1  0
  5  6  2  0
  6  7  1  0
  7  8  1  0
  8  9  1  0
  9 10  1  0
 10 11  1  0
 10 12  1  0
 12 13  1  0
  6 14  1  0
 14 15  2  0
 15 16  1  0
 16 17  1  0
 17 18  2  0
 17 19  2  0
 17 20  1  0
 20 21  2  0
 21 22  1  0
 22 23  2  0
 23 24  1  0
 23 25  1  0
 25 26  2  0
 15  3  1  0
 26 20  1  0
 13  7  1  0
  1 27  1  0
  1 28  1  0
  1 29  1  0
  4 30  1  0
  5 31  1  0
  8 32  1  0
  8 33  1  0
  9 34  1  0
  9 35  1  0
 11 36  1  0
 11 37  1  0
 11 38  1  0
 12 39  1  0
 12 40  1  0
 13 41  1  0
 13 42  1  0
 14 43  1  0
 21 44  1  0
 22 45  1  0
 25 46  1  0
 26 47  1  0
M  CHG  1  16  -1
M  END
>  <UniqueID>  (58) 
51

>  <SMILES>  (58) 
COc1ccc(N2CCN(C)CC2)cc1[N-]S(=O)(=O)c1ccc(F)cc1

>  <Energy>  (58) 
66.78087072994526

>  <Genealogy>  (58) 
COc1ccc(N2CCN(C)CC2)cc1[N-]S(=O)(=O)c1ccc(F)cc1 (protonated)
COc1ccc(N2CCN(C)CC2)cc1[N-]S(=O)(=O)c1ccc(F)cc1 (3D coordinates assigned)
COc1ccc(N2CCN(C)CC2)cc1[N-]S(=O)(=O)c1ccc(F)cc1 (nonaromatic ring conformer: 66.78087072994526 kcal/mol)

>  <smiles>  (58) 
COc1ccc(N2CCN(C)CC2)cc1NS(=O)(=O)c1ccc(F)cc1

>  <score_type>  (58) 
oracle

>  <origin>  (58) 
adg

>  <m_score__min__energy>  (58) 
-9.0299999999999994

>  <m_primary>  (58) 
energy

$$$$
58:0
     RDKit          3D

 31 32  0  0  0  0  0  0  0  0999 V2000
   55.2290   29.7150   43.0010 O   0  0  0  0  0  0  0  0  0  0  0  0
   56.4390   29.3980   43.8340 S   0  0  0  0  0  0  0  0  0  0  0  0
   57.3810   28.5590   43.0160 O   0  0  0  0  0  0  0  0  0  0  0  0
   55.9490   28.5290   45.2560 N   0  0  0  0  0  0  0  0  0  0  0  0
   56.7320   27.3010   45.4110 C   0  0  0  0  0  0  0  0  0  0  0  0
   57.5810   27.3820   46.6810 C   0  0  0  0  0  0  0  0  0  0  0  0
   58.7850   28.2630   46.4710 C   0  0  0  0  0  0  0  0  0  0  0  0
   59.5500   28.1580   45.3000 C   0  0  0  0  0  0  0  0  0  0  0  0
   60.6830   28.9600   45.1440 C   0  0  0  0  0  0  0  0  0  0  0  0
   61.0460   29.8310   46.1250 N   0  0  0  0  0  0  0  0  0  0  0  0
   60.3290   29.9430   47.2750 C   0  0  0  0  0  0  0  0  0  0  0  0
   59.1900   29.1590   47.4710 C   0  0  0  0  0  0  0  0  0  0  0  0
   57.2280   30.8940   44.3060 C   0  0  0  0  0  0  0  0  0  0  0  0
   57.6530   31.8070   43.3340 C   0  0  0  0  0  0  0  0  0  0  0  0
   58.2560   33.0010   43.7350 C   0  0  0  0  0  0  0  0  0  0  0  0
   58.4180   33.2750   45.0940 C   0  0  0  0  0  0  0  0  0  0  0  0
   57.9760   32.3420   46.0360 C   0  0  0  0  0  0  0  0  0  0  0  0
   57.3950   31.1830   45.6260 N   0  0  0  0  0  0  0  0  0  0  0  0
   56.0506   26.4404   45.4820 H   0  0  0  0  0  0  0  0  0  0  0  0
   57.3933   27.1807   44.5402 H   0  0  0  0  0  0  0  0  0  0  0  0
   56.9699   27.7965   47.4963 H   0  0  0  0  0  0  0  0  0  0  0  0
   57.9279   26.3696   46.9355 H   0  0  0  0  0  0  0  0  0  0  0  0
   59.2598   27.4493   44.5103 H   0  0  0  0  0  0  0  0  0  0  0  0
   61.2838   28.8874   44.2254 H   0  0  0  0  0  0  0  0  0  0  0  0
   61.9000   30.4200   45.9950 H   0  0  0  0  0  0  0  0  0  0  0  0
   60.6469   30.6529   48.0528 H   0  0  0  0  0  0  0  0  0  0  0  0
   58.6139   29.2438   48.4042 H   0  0  0  0  0  0  0  0  0  0  0  0
   57.5135   31.5863   42.2654 H   0  0  0  0  0  0  0  0  0  0  0  0
   58.6025   33.7238   42.9817 H   0  0  0  0  0  0  0  0  0  0  0  0
   58.8882   34.2145   45.4199 H   0  0  0  0  0  0  0  0  0  0  0  0
   58.0982   32.5454   47.1101 H   0  0  0  0  0  0  0  0  0  0  0  0
  1  2  2  0
  2  3  2  0
  2  4  1  0
  4  5  1  0
  5  6  1  0
  6  7  1  0
  7  8  2  0
  8  9  1  0
  9 10  2  0
 10 11  1  0
 11 12  2  0
  2 13  1  0
 13 14  2  0
 14 15  1  0
 15 16  2  0
 16 17  1  0
 17 18  2  0
 12  7  1  0
 18 13  1  0
  5 19  1  0
  5 20  1  0
  6 21  1  0
  6 22  1  0
  8 23  1  0
  9 24  1  0
 10 25  1  0
 11 26  1  0
 12 27  1  0
 14 28  1  0
 15 29  1  0
 16 30  1  0
 17 31  1  0
M  CHG  2   4  -1  10   1
M  END
>  <UniqueID>  (59) 
52

>  <SMILES>  (59) 
O=S(=O)([N-]CCc1cc[nH+]cc1)c1ccccn1

>  <Energy>  (59) 
25.349801462404802

>  <Genealogy>  (59) 
O=S(=O)([N-]CCc1cc[nH+]cc1)c1ccccn1 (protonated)
O=S(=O)([N-]CCc1cc[nH+]cc1)c1ccccn1 (3D coordinates assigned)
O=S(=O)([N-]CCc1cc[nH+]cc1)c1ccccn1 (optimized conformer: 25.349801462404802 kcal/mol)

>  <smiles>  (59) 
O=S(=O)(NCCc1ccncc1)c1ccccn1

>  <score_type>  (59) 
oracle

>  <origin>  (59) 
adg

>  <m_score__min__energy>  (59) 
-7.4900000000000002

>  <m_primary>  (59) 
energy

$$$$
59:0
     RDKit          3D

 27 28  0  0  0  0  0  0  0  0999 V2000
   60.1550   35.3100   46.0300 O   0  0  0  0  0  0  0  0  0  0  0  0
   60.5670   34.2070   46.4750 C   0  0  0  0  0  0  0  0  0  0  0  0
   61.9950   33.8330   46.4900 C   0  0  0  0  0  0  0  0  0  0  0  0
   61.9950   32.4520   47.1590 C   0  0  0  0  0  0  0  0  0  0  0  0
   60.5590   32.1820   47.6470 C   0  0  0  0  0  0  0  0  0  0  0  0
   59.7300   33.2370   47.0860 N   0  0  0  0  0  0  0  0  0  0  0  0
   58.2950   33.2550   47.2130 C   0  0  0  0  0  0  0  0  0  0  0  0
   57.7590   32.6700   48.1920 O   0  0  0  0  0  0  0  0  0  0  0  0
   57.3970   33.8430   46.1590 C   0  0  0  0  0  0  0  0  0  0  0  0
   57.9670   33.3760   44.4880 S   0  0  0  0  0  0  0  0  0  0  0  0
   57.7460   31.6160   44.7320 C   0  0  0  0  0  0  0  0  0  0  0  0
   56.4990   31.0760   44.6940 N   0  0  0  0  0  0  0  0  0  0  0  0
   56.3130   29.7400   44.8620 C   0  0  0  0  0  0  0  0  0  0  0  0
   55.1520   29.2590   44.8160 O   0  0  0  0  0  0  0  0  0  0  0  0
   57.4120   28.9080   45.0830 C   0  0  0  0  0  0  0  0  0  0  0  0
   58.6820   29.4820   45.1290 C   0  0  0  0  0  0  0  0  0  0  0  0
   58.8260   30.8220   44.9530 N   0  0  0  0  0  0  0  0  0  0  0  0
   62.3973   33.7750   45.4678 H   0  0  0  0  0  0  0  0  0  0  0  0
   62.6247   34.5650   47.0169 H   0  0  0  0  0  0  0  0  0  0  0  0
   62.2976   31.6821   46.4340 H   0  0  0  0  0  0  0  0  0  0  0  0
   62.7044   32.4253   47.9993 H   0  0  0  0  0  0  0  0  0  0  0  0
   60.2152   31.1990   47.2928 H   0  0  0  0  0  0  0  0  0  0  0  0
   60.5058   32.1744   48.7457 H   0  0  0  0  0  0  0  0  0  0  0  0
   56.3731   33.4697   46.3083 H   0  0  0  0  0  0  0  0  0  0  0  0
   57.4212   34.9393   46.2464 H   0  0  0  0  0  0  0  0  0  0  0  0
   57.2792   27.8244   45.2178 H   0  0  0  0  0  0  0  0  0  0  0  0
   59.5656   28.8515   45.3074 H   0  0  0  0  0  0  0  0  0  0  0  0
  1  2  2  0
  2  3  1  0
  3  4  1  0
  4  5  1  0
  5  6  1  0
  6  7  1  0
  7  8  2  0
  7  9  1  0
  9 10  1  0
 10 11  1  0
 11 12  2  0
 12 13  1  0
 13 14  2  0
 13 15  1  0
 15 16  2  0
 16 17  1  0
  6  2  1  0
 17 11  1  0
  3 18  1  0
  3 19  1  0
  4 20  1  0
  4 21  1  0
  5 22  1  0
  5 23  1  0
  9 24  1  0
  9 25  1  0
 15 26  1  0
 16 27  1  0
M  CHG  1  17  -1
M  END
>  <UniqueID>  (60) 
53

>  <SMILES>  (60) 
O=C1CCCN1C(=O)CSc1nc(=O)cc[n-]1

>  <Energy>  (60) 
30.184815659389727

>  <Genealogy>  (60) 
O=C1CCCN1C(=O)CSc1nc(=O)cc[n-]1 (protonated)
O=C1CCCN1C(=O)CSc1nc(=O)cc[n-]1 (3D coordinates assigned)
O=C1CCCN1C(=O)CSc1nc(=O)cc[n-]1 (nonaromatic ring conformer: 30.184815659389727 kcal/mol)

>  <smiles>  (60) 
O=C1CCCN1C(=O)CSc1nc(=O)cc[nH]1

>  <score_type>  (60) 
oracle

>  <origin>  (60) 
adg

>  <m_score__min__energy>  (60) 
-8.2300000000000004

>  <m_primary>  (60) 
energy

$$$$
60:0
     RDKit          3D

 36 38  0  0  0  0  0  0  0  0999 V2000
   65.4970   33.0790   50.1010 Cl  0  0  0  0  0  0  0  0  0  0  0  0
   63.9620   33.3430   49.2930 C   0  0  0  0  0  0  0  0  0  0  0  0
   62.9250   34.0030   49.9590 C   0  0  0  0  0  0  0  0  0  0  0  0
   61.7020   34.2150   49.3180 C   0  0  0  0  0  0  0  0  0  0  0  0
   61.5020   33.7640   48.0010 C   0  0  0  0  0  0  0  0  0  0  0  0
   60.2470   33.9930   47.3330 N   0  0  0  0  0  0  0  0  0  0  0  0
   60.2390   34.5910   45.9870 C   0  0  0  0  0  0  0  0  0  0  0  0
   58.8450   34.5200   45.3530 C   0  0  0  0  0  0  0  0  0  0  0  0
   58.2510   33.2000   45.6060 N   0  0  0  0  0  0  0  0  0  0  0  0
   57.7740   32.3870   44.5160 C   0  0  0  0  0  0  0  0  0  0  0  0
   58.0310   32.7590   43.1840 C   0  0  0  0  0  0  0  0  0  0  0  0
   57.5560   31.9760   42.1270 C   0  0  0  0  0  0  0  0  0  0  0  0
   56.8170   30.8190   42.3900 C   0  0  0  0  0  0  0  0  0  0  0  0
   56.5510   30.4450   43.7080 C   0  0  0  0  0  0  0  0  0  0  0  0
   57.0240   31.2240   44.7680 C   0  0  0  0  0  0  0  0  0  0  0  0
   58.2060   32.6720   46.9790 C   0  0  0  0  0  0  0  0  0  0  0  0
   58.9800   33.5720   47.9490 C   0  0  0  0  0  0  0  0  0  0  0  0
   62.5530   33.1080   47.3370 C   0  0  0  0  0  0  0  0  0  0  0  0
   63.7760   32.8970   47.9820 C   0  0  0  0  0  0  0  0  0  0  0  0
   63.0724   34.3562   50.9903 H   0  0  0  0  0  0  0  0  0  0  0  0
   60.8909   34.7376   49.8463 H   0  0  0  0  0  0  0  0  0  0  0  0
   60.5453   35.6449   46.0615 H   0  0  0  0  0  0  0  0  0  0  0  0
   60.9377   34.0260   45.3524 H   0  0  0  0  0  0  0  0  0  0  0  0
   58.2041   35.2992   45.7914 H   0  0  0  0  0  0  0  0  0  0  0  0
   58.9305   34.6784   44.2678 H   0  0  0  0  0  0  0  0  0  0  0  0
   58.6088   33.6708   42.9726 H   0  0  0  0  0  0  0  0  0  0  0  0
   57.7641   32.2709   41.0879 H   0  0  0  0  0  0  0  0  0  0  0  0
   56.4450   30.2031   41.5579 H   0  0  0  0  0  0  0  0  0  0  0  0
   55.9678   29.5352   43.9132 H   0  0  0  0  0  0  0  0  0  0  0  0
   56.8085   30.9259   45.8047 H   0  0  0  0  0  0  0  0  0  0  0  0
   57.1573   32.6122   47.3054 H   0  0  0  0  0  0  0  0  0  0  0  0
   58.6729   31.6760   46.9828 H   0  0  0  0  0  0  0  0  0  0  0  0
   58.3754   34.4602   48.1847 H   0  0  0  0  0  0  0  0  0  0  0  0
   59.1926   33.0133   48.8724 H   0  0  0  0  0  0  0  0  0  0  0  0
   62.4127   32.7584   46.3035 H   0  0  0  0  0  0  0  0  0  0  0  0
   64.5922   32.3794   47.4567 H   0  0  0  0  0  0  0  0  0  0  0  0
  1  2  1  0
  2  3  2  0
  3  4  1  0
  4  5  2  0
  5  6  1  0
  6  7  1  0
  7  8  1  0
  8  9  1  0
  9 10  1  0
 10 11  2  0
 11 12  1  0
 12 13  2  0
 13 14  1  0
 14 15  2  0
  9 16  1  0
 16 17  1  0
  5 18  1  0
 18 19  2  0
 19  2  1  0
 17  6  1  0
 15 10  1  0
  3 20  1  0
  4 21  1  0
  7 22  1  0
  7 23  1  0
  8 24  1  0
  8 25  1  0
 11 26  1  0
 12 27  1  0
 13 28  1  0
 14 29  1  0
 15 30  1  0
 16 31  1  0
 16 32  1  0
 17 33  1  0
 17 34  1  0
 18 35  1  0
 19 36  1  0
M  END
>  <UniqueID>  (61) 
54

>  <SMILES>  (61) 
Clc1ccc(N2CCN(c3ccccc3)CC2)cc1

>  <Energy>  (61) 
46.56768976316525

>  <Genealogy>  (61) 
Clc1ccc(N2CCN(c3ccccc3)CC2)cc1 (3D coordinates assigned)
Clc1ccc(N2CCN(c3ccccc3)CC2)cc1 (nonaromatic ring conformer: 46.56768976316525 kcal/mol)

>  <smiles>  (61) 
Clc1ccc(N2CCN(c3ccccc3)CC2)cc1

>  <score_type>  (61) 
oracle

>  <origin>  (61) 
adg

>  <m_score__min__energy>  (61) 
-7.4000000000000004

>  <m_primary>  (61) 
energy

$$$$
61:0
     RDKit          3D

 53 56  0  0  0  0  0  0  0  0999 V2000
   62.5890   32.8850   47.1360 C   0  0  0  0  0  0  0  0  0  0  0  0
   62.0410   31.6650   47.8930 C   0  0  0  0  0  0  0  0  0  0  0  0
   60.7090   31.8840   48.5260 N   0  0  2  0  0  0  0  0  0  0  0  0
   60.7790   32.7970   49.6590 C   0  0  0  0  0  0  0  0  0  0  0  0
   61.7210   33.6340   49.7520 O   0  0  0  0  0  0  0  0  0  0  0  0
   59.6680   32.8570   50.6330 C   0  0  0  0  0  0  0  0  0  0  0  0
   59.6030   33.8460   51.6300 C   0  0  0  0  0  0  0  0  0  0  0  0
   58.5120   33.8920   52.5030 C   0  0  0  0  0  0  0  0  0  0  0  0
   57.4800   32.9580   52.3850 C   0  0  0  0  0  0  0  0  0  0  0  0
   57.5410   31.9690   51.3980 C   0  0  0  0  0  0  0  0  0  0  0  0
   58.6380   31.9120   50.5280 C   0  0  0  0  0  0  0  0  0  0  0  0
   58.7340   30.8830   49.5390 N   0  0  0  0  0  0  0  0  0  0  0  0
   60.0230   30.6080   48.8940 C   0  0  1  0  0  0  0  0  0  0  0  0
   59.7970   29.7190   47.6810 C   0  0  0  0  0  0  0  0  0  0  0  0
   60.4020   28.4530   47.5990 C   0  0  0  0  0  0  0  0  0  0  0  0
   60.1680   27.6280   46.4960 C   0  0  0  0  0  0  0  0  0  0  0  0
   59.3290   28.0560   45.4650 C   0  0  0  0  0  0  0  0  0  0  0  0
   58.7230   29.3200   45.5270 C   0  0  0  0  0  0  0  0  0  0  0  0
   57.7950   29.7780   44.4320 C   0  0  0  0  0  0  0  0  0  0  0  0
   57.0040   30.8670   44.8710 O   0  0  0  0  0  0  0  0  0  0  0  0
   57.3930   32.0680   44.2300 C   0  0  0  0  0  0  0  0  0  0  0  0
   58.0330   33.0100   45.2140 C   0  0  0  0  0  0  0  0  0  0  0  0
   57.6490   32.9820   46.5650 C   0  0  0  0  0  0  0  0  0  0  0  0
   58.2510   33.8460   47.4860 C   0  0  0  0  0  0  0  0  0  0  0  0
   59.2420   34.7370   47.0660 C   0  0  0  0  0  0  0  0  0  0  0  0
   59.6370   34.7640   45.7250 C   0  0  0  0  0  0  0  0  0  0  0  0
   59.0360   33.9030   44.8000 C   0  0  0  0  0  0  0  0  0  0  0  0
   58.9630   30.1480   46.6340 C   0  0  0  0  0  0  0  0  0  0  0  0
   62.9291   33.6421   47.8579 H   0  0  0  0  0  0  0  0  0  0  0  0
   63.4344   32.5751   46.5041 H   0  0  0  0  0  0  0  0  0  0  0  0
   61.7958   33.3111   46.5041 H   0  0  0  0  0  0  0  0  0  0  0  0
   61.9518   30.8301   47.1824 H   0  0  0  0  0  0  0  0  0  0  0  0
   62.7479   31.4571   48.7098 H   0  0  0  0  0  0  0  0  0  0  0  0
   60.1180   32.3720   47.8130 H   0  0  0  0  0  0  0  0  0  0  0  0
   60.4122   34.5852   51.7234 H   0  0  0  0  0  0  0  0  0  0  0  0
   58.4662   34.6651   53.2842 H   0  0  0  0  0  0  0  0  0  0  0  0
   56.6192   33.0004   53.0685 H   0  0  0  0  0  0  0  0  0  0  0  0
   56.7270   31.2351   51.3046 H   0  0  0  0  0  0  0  0  0  0  0  0
   57.9450   30.2030   49.4340 H   0  0  0  0  0  0  0  0  0  0  0  0
   60.6831   30.0776   49.5961 H   0  0  0  0  0  0  0  0  0  0  0  0
   61.0636   28.1097   48.4080 H   0  0  0  0  0  0  0  0  0  0  0  0
   60.6459   26.6388   46.4396 H   0  0  0  0  0  0  0  0  0  0  0  0
   59.1426   27.4003   44.6017 H   0  0  0  0  0  0  0  0  0  0  0  0
   58.3901   30.0914   43.5616 H   0  0  0  0  0  0  0  0  0  0  0  0
   57.1306   28.9449   44.1592 H   0  0  0  0  0  0  0  0  0  0  0  0
   58.1130   31.8350   43.4317 H   0  0  0  0  0  0  0  0  0  0  0  0
   56.4992   32.5501   43.8072 H   0  0  0  0  0  0  0  0  0  0  0  0
   56.8725   32.2785   46.8998 H   0  0  0  0  0  0  0  0  0  0  0  0
   57.9438   33.8239   48.5420 H   0  0  0  0  0  0  0  0  0  0  0  0
   59.7119   35.4178   47.7910 H   0  0  0  0  0  0  0  0  0  0  0  0
   60.4208   35.4626   45.3969 H   0  0  0  0  0  0  0  0  0  0  0  0
   59.3495   33.9252   43.7459 H   0  0  0  0  0  0  0  0  0  0  0  0
   58.4942   31.1419   46.6830 H   0  0  0  0  0  0  0  0  0  0  0  0
  1  2  1  0
  2  3  1  0
  3  4  1  0
  4  5  2  0
  4  6  1  0
  6  7  2  0
  7  8  1  0
  8  9  2  0
  9 10  1  0
 10 11  2  0
 11 12  1  0
 12 13  1  0
 13 14  1  0
 14 15  2  0
 15 16  1  0
 16 17  2  0
 17 18  1  0
 18 19  1  0
 19 20  1  0
 20 21  1  0
 21 22  1  0
 22 23  2  0
 23 24  1  0
 24 25  2  0
 25 26  1  0
 26 27  2  0
 18 28  2  0
 13  3  1  0
 28 14  1  0
 11  6  1  0
 27 22  1  0
  1 29  1  0
  1 30  1  0
  1 31  1  0
  2 32  1  0
  2 33  1  0
  3 34  1  6
  7 35  1  0
  8 36  1  0
  9 37  1  0
 10 38  1  0
 12 39  1  0
 13 40  1  1
 15 41  1  0
 16 42  1  0
 17 43  1  0
 19 44  1  0
 19 45  1  0
 21 46  1  0
 21 47  1  0
 23 48  1  0
 24 49  1  0
 25 50  1  0
 26 51  1  0
 27 52  1  0
 28 53  1  0
M  CHG  1   3   1
M  END
>  <UniqueID>  (62) 
55

>  <SMILES>  (62) 
CC[N@@H+]1C(=O)c2ccccc2N[C@H]1c1cccc(COCc2ccccc2)c1

>  <Energy>  (62) 
68.61825810669994

>  <Genealogy>  (62) 
CC[NH+]1C(=O)c2ccccc2NC1c1cccc(COCc2ccccc2)c1 (protonated)
CC[N@@H+]1C(=O)c2ccccc2N[C@H]1c1cccc(COCc2ccccc2)c1 (chirality)
CC[N@@H+]1C(=O)c2ccccc2N[C@H]1c1cccc(COCc2ccccc2)c1 (3D coordinates assigned)
CC[N@@H+]1C(=O)c2ccccc2N[C@H]1c1cccc(COCc2ccccc2)c1 (nonaromatic ring conformer: 68.61825810669994 kcal/mol)

>  <smiles>  (62) 
CCN1C(=O)c2ccccc2NC1c1cccc(COCc2ccccc2)c1

>  <score_type>  (62) 
oracle

>  <origin>  (62) 
adg

>  <m_score__min__energy>  (62) 
-7.1900000000000004

>  <m_primary>  (62) 
energy

$$$$
62:0
     RDKit          3D

 48 50  0  0  0  0  0  0  0  0999 V2000
   59.4370   28.5480   48.0850 C   0  0  0  0  0  0  0  0  0  0  0  0
   59.2040   28.9390   46.8140 C   0  0  0  0  0  0  0  0  0  0  0  0
   58.6920   27.9370   45.8470 C   0  0  0  0  0  0  0  0  0  0  0  0
   58.3480   26.6450   46.2810 C   0  0  0  0  0  0  0  0  0  0  0  0
   57.8650   25.7010   45.3700 C   0  0  0  0  0  0  0  0  0  0  0  0
   57.7210   26.0360   44.0210 C   0  0  0  0  0  0  0  0  0  0  0  0
   58.0620   27.3170   43.5800 C   0  0  0  0  0  0  0  0  0  0  0  0
   58.5470   28.2650   44.4860 C   0  0  0  0  0  0  0  0  0  0  0  0
   59.5820   30.3090   46.2760 C   0  0  0  0  0  0  0  0  0  0  0  0
   60.9570   30.8110   46.7550 C   0  0  0  0  0  0  0  0  0  0  0  0
   60.9600   31.3170   48.1570 N   0  0  2  0  0  0  0  0  0  0  0  0
   62.0670   32.2840   48.3910 C   0  0  0  0  0  0  0  0  0  0  0  0
   61.8830   33.6040   47.6100 C   0  0  0  0  0  0  0  0  0  0  0  0
   60.6320   34.3750   48.0570 C   0  0  0  0  0  0  0  0  0  0  0  0
   59.5100   34.1720   47.0740 C   0  0  0  0  0  0  0  0  0  0  0  0
   59.5760   34.7430   45.7920 C   0  0  0  0  0  0  0  0  0  0  0  0
   58.5480   34.5250   44.8710 C   0  0  0  0  0  0  0  0  0  0  0  0
   57.4530   33.7290   45.2180 C   0  0  0  0  0  0  0  0  0  0  0  0
   57.3870   33.1470   46.4860 C   0  0  0  0  0  0  0  0  0  0  0  0
   58.4120   33.3610   47.4110 C   0  0  0  0  0  0  0  0  0  0  0  0
   61.0010   30.2390   49.1770 C   0  0  0  0  0  0  0  0  0  0  0  0
   59.6810   29.4600   49.2640 C   0  0  0  0  0  0  0  0  0  0  0  0
   59.4504   27.4655   48.2799 H   0  0  0  0  0  0  0  0  0  0  0  0
   58.4593   26.3757   47.3417 H   0  0  0  0  0  0  0  0  0  0  0  0
   57.5976   24.6917   45.7160 H   0  0  0  0  0  0  0  0  0  0  0  0
   57.3394   25.2915   43.3068 H   0  0  0  0  0  0  0  0  0  0  0  0
   57.9487   27.5803   42.5180 H   0  0  0  0  0  0  0  0  0  0  0  0
   58.8164   29.2716   44.1336 H   0  0  0  0  0  0  0  0  0  0  0  0
   59.5957   30.2577   45.1773 H   0  0  0  0  0  0  0  0  0  0  0  0
   58.8330   31.0189   46.6568 H   0  0  0  0  0  0  0  0  0  0  0  0
   61.6730   29.9788   46.6855 H   0  0  0  0  0  0  0  0  0  0  0  0
   61.2305   31.6583   46.1090 H   0  0  0  0  0  0  0  0  0  0  0  0
   60.0490   31.8140   48.2970 H   0  0  0  0  0  0  0  0  0  0  0  0
   62.1111   32.5146   49.4657 H   0  0  0  0  0  0  0  0  0  0  0  0
   62.9968   31.8156   48.0360 H   0  0  0  0  0  0  0  0  0  0  0  0
   62.7668   34.2381   47.7735 H   0  0  0  0  0  0  0  0  0  0  0  0
   61.7613   33.3520   46.5462 H   0  0  0  0  0  0  0  0  0  0  0  0
   60.3169   34.0119   49.0464 H   0  0  0  0  0  0  0  0  0  0  0  0
   60.8729   35.4472   48.1064 H   0  0  0  0  0  0  0  0  0  0  0  0
   60.4399   35.3638   45.5123 H   0  0  0  0  0  0  0  0  0  0  0  0
   58.6007   34.9807   43.8712 H   0  0  0  0  0  0  0  0  0  0  0  0
   56.6433   33.5608   44.4927 H   0  0  0  0  0  0  0  0  0  0  0  0
   56.5258   32.5186   46.7570 H   0  0  0  0  0  0  0  0  0  0  0  0
   58.3598   32.8938   48.4055 H   0  0  0  0  0  0  0  0  0  0  0  0
   61.8077   29.5379   48.9167 H   0  0  0  0  0  0  0  0  0  0  0  0
   61.1749   30.7114   50.1551 H   0  0  0  0  0  0  0  0  0  0  0  0
   59.6977   28.8489   50.1785 H   0  0  0  0  0  0  0  0  0  0  0  0
   58.8690   30.2020   49.2707 H   0  0  0  0  0  0  0  0  0  0  0  0
  1  2  2  0
  2  3  1  0
  3  4  2  0
  4  5  1  0
  5  6  2  0
  6  7  1  0
  7  8  2  0
  2  9  1  0
  9 10  1  0
 10 11  1  0
 11 12  1  0
 12 13  1  0
 13 14  1  0
 14 15  1  0
 15 16  2  0
 16 17  1  0
 17 18  2  0
 18 19  1  0
 19 20  2  0
 11 21  1  0
 21 22  1  0
 22  1  1  0
  8  3  1  0
 20 15  1  0
  1 23  1  0
  4 24  1  0
  5 25  1  0
  6 26  1  0
  7 27  1  0
  8 28  1  0
  9 29  1  0
  9 30  1  0
 10 31  1  0
 10 32  1  0
 11 33  1  1
 12 34  1  0
 12 35  1  0
 13 36  1  0
 13 37  1  0
 14 38  1  0
 14 39  1  0
 16 40  1  0
 17 41  1  0
 18 42  1  0
 19 43  1  0
 20 44  1  0
 21 45  1  0
 21 46  1  0
 22 47  1  0
 22 48  1  0
M  CHG  1  11   1
M  END
>  <UniqueID>  (63) 
56

>  <SMILES>  (63) 
C1=C(c2ccccc2)CC[N@H+](CCCc2ccccc2)CC1

>  <Energy>  (63) 
65.34688634168552

>  <Genealogy>  (63) 
C1=C(c2ccccc2)CC[NH+](CCCc2ccccc2)CC1 (protonated)
C1=C(c2ccccc2)CC[N@H+](CCCc2ccccc2)CC1 (chirality)
C1=C(c2ccccc2)CC[N@H+](CCCc2ccccc2)CC1 (3D coordinates assigned)
C1=C(c2ccccc2)CC[N@H+](CCCc2ccccc2)CC1 (nonaromatic ring conformer: 65.34688634168552 kcal/mol)

>  <smiles>  (63) 
C1=C(c2ccccc2)CCN(CCCc2ccccc2)CC1

>  <score_type>  (63) 
oracle

>  <origin>  (63) 
adg

>  <m_score__min__energy>  (63) 
-3.9199999999999999

>  <m_primary>  (63) 
energy

$$$$
63:0
     RDKit          3D

 53 54  0  0  0  0  0  0  0  0999 V2000
   60.5196   32.0610   47.0608 H   0  0  0  0  0  0  0  0  0  0  0  0
   61.1530   32.8910   47.4070 C   0  0  0  0  0  0  0  0  0  0  0  0
   62.4850   32.7890   47.1970 C   0  0  0  0  0  0  0  0  0  0  0  0
   63.2160   31.6130   47.7960 C   0  0  0  0  0  0  0  0  0  0  0  0
   63.1763   31.6769   48.8934 H   0  0  0  0  0  0  0  0  0  0  0  0
   62.7396   30.6782   47.4657 H   0  0  0  0  0  0  0  0  0  0  0  0
   64.2651   31.6265   47.4657 H   0  0  0  0  0  0  0  0  0  0  0  0
   63.2610   33.8310   46.4290 C   0  0  0  0  0  0  0  0  0  0  0  0
   63.7647   34.5074   47.1352 H   0  0  0  0  0  0  0  0  0  0  0  0
   64.0123   33.3361   45.7960 H   0  0  0  0  0  0  0  0  0  0  0  0
   62.5716   34.4090   45.7960 H   0  0  0  0  0  0  0  0  0  0  0  0
   60.4670   34.0580   48.0810 C   0  0  0  0  0  0  0  0  0  0  0  0
   60.6574   34.0044   49.1631 H   0  0  0  0  0  0  0  0  0  0  0  0
   60.8732   34.9847   47.6494 H   0  0  0  0  0  0  0  0  0  0  0  0
   58.9470   34.0520   47.8440 C   0  0  0  0  0  0  0  0  0  0  0  0
   58.5359   33.0943   48.1958 H   0  0  0  0  0  0  0  0  0  0  0  0
   58.5121   34.8972   48.3976 H   0  0  0  0  0  0  0  0  0  0  0  0
   58.6030   34.2240   46.3760 C   0  0  0  0  0  0  0  0  0  0  0  0
   57.4640   33.7570   45.8220 C   0  0  0  0  0  0  0  0  0  0  0  0
   56.5144   33.9947   46.3238 H   0  0  0  0  0  0  0  0  0  0  0  0
   57.4060   32.9330   44.5640 C   0  0  0  0  0  0  0  0  0  0  0  0
   56.7267   33.4136   43.8446 H   0  0  0  0  0  0  0  0  0  0  0  0
   58.4153   32.8606   44.1326 H   0  0  0  0  0  0  0  0  0  0  0  0
   56.9280   31.6210   44.8620 O   0  0  0  0  0  0  0  0  0  0  0  0
   57.7050   30.5950   45.4280 C   0  0  0  0  0  0  0  0  0  0  0  0
   57.7800   29.3540   44.7650 C   0  0  0  0  0  0  0  0  0  0  0  0
   57.0560   29.1480   43.4570 C   0  0  0  0  0  0  0  0  0  0  0  0
   56.0155   28.8520   43.6565 H   0  0  0  0  0  0  0  0  0  0  0  0
   57.0666   30.0848   42.8806 H   0  0  0  0  0  0  0  0  0  0  0  0
   57.5582   28.3571   42.8806 H   0  0  0  0  0  0  0  0  0  0  0  0
   58.5950   28.3360   45.2820 C   0  0  0  0  0  0  0  0  0  0  0  0
   58.6884   27.3845   44.7380 H   0  0  0  0  0  0  0  0  0  0  0  0
   59.2970   28.5200   46.4940 C   0  0  0  0  0  0  0  0  0  0  0  0
   60.1080   27.5180   47.0680 C   0  0  0  0  0  0  0  0  0  0  0  0
   60.3220   26.1810   46.4100 C   0  0  0  0  0  0  0  0  0  0  0  0
   60.4458   25.4078   47.1825 H   0  0  0  0  0  0  0  0  0  0  0  0
   59.4514   25.9372   45.7833 H   0  0  0  0  0  0  0  0  0  0  0  0
   61.2252   26.2211   45.7833 H   0  0  0  0  0  0  0  0  0  0  0  0
   60.7290   27.7640   48.2550 N   0  0  0  0  0  0  0  0  0  0  0  0
   60.5930   28.9490   48.9070 C   0  0  0  0  0  0  0  0  0  0  0  0
   61.2790   29.1620   50.2210 C   0  0  0  0  0  0  0  0  0  0  0  0
   60.5779   28.9443   51.0402 H   0  0  0  0  0  0  0  0  0  0  0  0
   62.1478   28.4913   50.2940 H   0  0  0  0  0  0  0  0  0  0  0  0
   61.6152   30.2068   50.2940 H   0  0  0  0  0  0  0  0  0  0  0  0
   59.8240   29.9340   48.3680 N   0  0  0  0  0  0  0  0  0  0  0  0
   59.7270   30.8390   48.8830 H   0  0  0  0  0  0  0  0  0  0  0  0
   59.1820   29.7520   47.1800 C   0  0  0  0  0  0  0  0  0  0  0  0
   58.4060   30.7820   46.6370 C   0  0  0  0  0  0  0  0  0  0  0  0
   58.3421   31.7481   47.1590 H   0  0  0  0  0  0  0  0  0  0  0  0
   59.5840   34.9410   45.4860 C   0  0  0  0  0  0  0  0  0  0  0  0
   60.3176   35.4772   46.1060 H   0  0  0  0  0  0  0  0  0  0  0  0
   60.1054   34.2096   44.8510 H   0  0  0  0  0  0  0  0  0  0  0  0
   59.0455   35.6599   44.8510 H   0  0  0  0  0  0  0  0  0  0  0  0
  1  2  1  0
  2  3  2  3
  3  4  1  0
  4  5  1  0
  4  6  1  0
  4  7  1  0
  3  8  1  0
  8  9  1  0
  8 10  1  0
  8 11  1  0
  2 12  1  0
 12 13  1  0
 12 14  1  0
 12 15  1  0
 15 16  1  0
 15 17  1  0
 15 18  1  0
 18 19  2  0
 19 20  1  0
 19 21  1  0
 21 22  1  0
 21 23  1  0
 21 24  1  0
 24 25  1  0
 25 26  2  0
 26 27  1  0
 27 28  1  0
 27 29  1  0
 27 30  1  0
 26 31  1  0
 31 32  1  0
 31 33  2  0
 33 34  1  0
 34 35  1  0
 35 36  1  0
 35 37  1  0
 35 38  1  0
 34 39  2  0
 39 40  1  0
 40 41  1  0
 41 42  1  0
 41 43  1  0
 41 44  1  0
 40 45  2  0
 45 46  1  0
 45 47  1  0
 47 48  2  0
 48 49  1  0
 18 50  1  0
 50 51  1  0
 50 52  1  0
 50 53  1  0
 48 25  1  0
 47 33  1  0
M  CHG  1  45   1
M  END
>  <UniqueID>  (64) 
57

>  <SMILES>  (64) 
CC(C)=CCC/C(C)=C\COc1cc2[nH+]c(C)nc(C)c2cc1C

>  <Energy>  (64) 
45.73790998983554

>  <Genealogy>  (64) 
CC(C)=CCCC(C)=CCOc1cc2[nH+]c(C)nc(C)c2cc1C (protonated)
CC(C)=CCC/C(C)=C\COc1cc2[nH+]c(C)nc(C)c2cc1C (cis-trans isomerization)
CC(C)=CCC/C(C)=C\COc1cc2[nH+]c(C)nc(C)c2cc1C (3D coordinates assigned)
CC(C)=CCC/C(C)=C\COc1cc2[nH+]c(C)nc(C)c2cc1C (optimized conformer: 45.73790998983554 kcal/mol)

>  <smiles>  (64) 
CC(C)=CCCC(C)=CCOc1cc2nc(C)nc(C)c2cc1C

>  <score_type>  (64) 
oracle

>  <origin>  (64) 
adg

>  <m_score__min__energy>  (64) 
-6.0199999999999996

>  <m_primary>  (64) 
energy

$$$$
64:0
     RDKit          3D

 28 29  0  0  0  0  0  0  0  0999 V2000
   59.7800   34.1920   48.0340 C   0  0  0  0  0  0  0  0  0  0  0  0
   60.0240   34.9580   46.8920 C   0  0  0  0  0  0  0  0  0  0  0  0
   59.2430   34.7770   45.7460 C   0  0  0  0  0  0  0  0  0  0  0  0
   58.2080   33.8270   45.7380 C   0  0  0  0  0  0  0  0  0  0  0  0
   57.3960   33.5940   44.4900 C   0  0  0  0  0  0  0  0  0  0  0  0
   58.0100   32.4980   43.6070 C   0  0  0  0  0  0  0  0  0  0  0  0
   57.6680   31.1190   44.1100 C   0  0  0  0  0  0  0  0  0  0  0  0
   56.3640   30.6140   43.9700 C   0  0  0  0  0  0  0  0  0  0  0  0
   56.0380   29.3530   44.4780 C   0  0  0  0  0  0  0  0  0  0  0  0
   57.0100   28.5890   45.1320 C   0  0  0  0  0  0  0  0  0  0  0  0
   58.3070   29.0870   45.2810 C   0  0  0  0  0  0  0  0  0  0  0  0
   58.6360   30.3490   44.7760 C   0  0  0  0  0  0  0  0  0  0  0  0
   57.9740   33.0540   46.8880 C   0  0  0  0  0  0  0  0  0  0  0  0
   58.7560   33.2410   48.0320 C   0  0  0  0  0  0  0  0  0  0  0  0
   60.3939   34.3372   48.9351 H   0  0  0  0  0  0  0  0  0  0  0  0
   60.8316   35.7048   46.8939 H   0  0  0  0  0  0  0  0  0  0  0  0
   59.4398   35.3806   44.8477 H   0  0  0  0  0  0  0  0  0  0  0  0
   56.3788   33.2907   44.7785 H   0  0  0  0  0  0  0  0  0  0  0  0
   57.3804   34.5300   43.9123 H   0  0  0  0  0  0  0  0  0  0  0  0
   57.6257   32.6090   42.5823 H   0  0  0  0  0  0  0  0  0  0  0  0
   59.1039   32.6104   43.6325 H   0  0  0  0  0  0  0  0  0  0  0  0
   55.5965   31.2135   43.4585 H   0  0  0  0  0  0  0  0  0  0  0  0
   55.0165   28.9615   44.3633 H   0  0  0  0  0  0  0  0  0  0  0  0
   56.7533   27.5958   45.5292 H   0  0  0  0  0  0  0  0  0  0  0  0
   59.0704   28.4856   45.7963 H   0  0  0  0  0  0  0  0  0  0  0  0
   59.6565   30.7401   44.9008 H   0  0  0  0  0  0  0  0  0  0  0  0
   57.1734   32.2997   46.8882 H   0  0  0  0  0  0  0  0  0  0  0  0
   58.5648   32.6384   48.9322 H   0  0  0  0  0  0  0  0  0  0  0  0
  1  2  2  0
  2  3  1  0
  3  4  2  0
  4  5  1  0
  5  6  1  0
  6  7  1  0
  7  8  2  0
  8  9  1  0
  9 10  2  0
 10 11  1  0
 11 12  2  0
  4 13  1  0
 13 14  2  0
 14  1  1  0
 12  7  1  0
  1 15  1  0
  2 16  1  0
  3 17  1  0
  5 18  1  0
  5 19  1  0
  6 20  1  0
  6 21  1  0
  8 22  1  0
  9 23  1  0
 10 24  1  0
 11 25  1  0
 12 26  1  0
 13 27  1  0
 14 28  1  0
M  END
>  <UniqueID>  (65) 
58

>  <SMILES>  (65) 
c1ccc(CCc2ccccc2)cc1

>  <Energy>  (65) 
24.568573071117502

>  <Genealogy>  (65) 
c1ccc(CCc2ccccc2)cc1 (3D coordinates assigned)
c1ccc(CCc2ccccc2)cc1 (optimized conformer: 24.568573071117502 kcal/mol)

>  <smiles>  (65) 
c1ccc(CCc2ccccc2)cc1

>  <score_type>  (65) 
oracle

>  <origin>  (65) 
adg

>  <m_score__min__energy>  (65) 
-5.9500000000000002

>  <m_primary>  (65) 
energy

$$$$
65:0
     RDKit          3D

 43 44  0  0  0  0  0  0  0  0999 V2000
   59.1560   30.9670   49.1110 C   0  0  0  0  0  0  0  0  0  0  0  0
   58.5930   30.6910   47.8340 O   0  0  0  0  0  0  0  0  0  0  0  0
   59.3740   30.3500   46.7250 C   0  0  0  0  0  0  0  0  0  0  0  0
   60.4060   31.0170   46.4440 O   0  0  0  0  0  0  0  0  0  0  0  0
   58.9330   29.2550   45.8410 C   0  0  0  0  0  0  0  0  0  0  0  0
   59.5880   28.0180   45.9720 C   0  0  0  0  0  0  0  0  0  0  0  0
   59.1910   26.9170   45.2130 C   0  0  0  0  0  0  0  0  0  0  0  0
   58.1410   27.0370   44.3070 C   0  0  0  0  0  0  0  0  0  0  0  0
   57.4960   28.2620   44.1430 C   0  0  0  0  0  0  0  0  0  0  0  0
   57.8840   29.3880   44.8900 C   0  0  0  0  0  0  0  0  0  0  0  0
   57.0710   30.9200   44.5070 S   0  0  0  0  0  0  0  0  0  0  0  0
   55.5900   30.6700   44.4890 O   0  0  0  0  0  0  0  0  0  0  0  0
   57.4590   31.4470   43.1550 O   0  0  0  0  0  0  0  0  0  0  0  0
   57.4120   32.1090   45.7290 N   0  0  0  0  0  0  0  0  0  0  0  0
   57.3110   33.4560   45.1650 C   0  0  0  0  0  0  0  0  0  0  0  0
   58.7050   34.0360   44.8980 C   0  0  0  0  0  0  0  0  0  0  0  0
   59.5230   34.0980   46.1620 C   0  0  0  0  0  0  0  0  0  0  0  0
   58.9080   34.3830   47.3900 C   0  0  0  0  0  0  0  0  0  0  0  0
   59.6580   34.4100   48.5690 C   0  0  0  0  0  0  0  0  0  0  0  0
   61.0400   34.1430   48.5360 C   0  0  0  0  0  0  0  0  0  0  0  0
   61.8380   34.1570   49.6900 O   0  0  0  0  0  0  0  0  0  0  0  0
   63.1940   33.7250   49.7330 C   0  0  0  0  0  0  0  0  0  0  0  0
   61.6490   33.8490   47.3090 C   0  0  0  0  0  0  0  0  0  0  0  0
   60.8990   33.8220   46.1310 C   0  0  0  0  0  0  0  0  0  0  0  0
   58.4652   30.6284   49.8972 H   0  0  0  0  0  0  0  0  0  0  0  0
   60.1144   30.4366   49.2116 H   0  0  0  0  0  0  0  0  0  0  0  0
   59.3237   32.0495   49.2116 H   0  0  0  0  0  0  0  0  0  0  0  0
   60.4230   27.9172   46.6810 H   0  0  0  0  0  0  0  0  0  0  0  0
   59.7081   25.9532   45.3305 H   0  0  0  0  0  0  0  0  0  0  0  0
   57.8198   26.1641   43.7197 H   0  0  0  0  0  0  0  0  0  0  0  0
   56.6722   28.3487   43.4192 H   0  0  0  0  0  0  0  0  0  0  0  0
   58.4020   31.9540   46.0320 H   0  0  0  0  0  0  0  0  0  0  0  0
   56.7512   33.4107   44.2192 H   0  0  0  0  0  0  0  0  0  0  0  0
   56.7898   34.1036   45.8854 H   0  0  0  0  0  0  0  0  0  0  0  0
   59.2239   33.3995   44.1662 H   0  0  0  0  0  0  0  0  0  0  0  0
   58.5873   35.0585   44.5098 H   0  0  0  0  0  0  0  0  0  0  0  0
   57.8276   34.5867   47.4253 H   0  0  0  0  0  0  0  0  0  0  0  0
   59.1669   34.6406   49.5259 H   0  0  0  0  0  0  0  0  0  0  0  0
   63.5134   33.6233   50.7807 H   0  0  0  0  0  0  0  0  0  0  0  0
   63.2855   32.7532   49.2258 H   0  0  0  0  0  0  0  0  0  0  0  0
   63.8308   34.4648   49.2258 H   0  0  0  0  0  0  0  0  0  0  0  0
   62.7279   33.6375   47.2730 H   0  0  0  0  0  0  0  0  0  0  0  0
   61.3885   33.5835   45.1752 H   0  0  0  0  0  0  0  0  0  0  0  0
  1  2  1  0
  2  3  1  0
  3  4  2  0
  3  5  1  0
  5  6  2  0
  6  7  1  0
  7  8  2  0
  8  9  1  0
  9 10  2  0
 10 11  1  0
 11 12  2  0
 11 13  2  0
 11 14  1  0
 14 15  1  0
 15 16  1  0
 16 17  1  0
 17 18  2  0
 18 19  1  0
 19 20  2  0
 20 21  1  0
 21 22  1  0
 20 23  1  0
 23 24  2  0
 10  5  1  0
 24 17  1  0
  1 25  1  0
  1 26  1  0
  1 27  1  0
  6 28  1  0
  7 29  1  0
  8 30  1  0
  9 31  1  0
 14 32  1  0
 15 33  1  0
 15 34  1  0
 16 35  1  0
 16 36  1  0
 18 37  1  0
 19 38  1  0
 22 39  1  0
 22 40  1  0
 22 41  1  0
 23 42  1  0
 24 43  1  0
M  END
>  <UniqueID>  (66) 
59

>  <SMILES>  (66) 
COC(=O)c1ccccc1S(=O)(=O)NCCc1ccc(OC)cc1

>  <Energy>  (66) 
43.632057843313696

>  <Genealogy>  (66) 
COC(=O)c1ccccc1S(=O)(=O)NCCc1ccc(OC)cc1 (3D coordinates assigned)
COC(=O)c1ccccc1S(=O)(=O)NCCc1ccc(OC)cc1 (optimized conformer: 43.632057843313696 kcal/mol)

>  <smiles>  (66) 
COC(=O)c1ccccc1S(=O)(=O)NCCc1ccc(OC)cc1

>  <score_type>  (66) 
oracle

>  <origin>  (66) 
adg

>  <m_score__min__energy>  (66) 
-8.0099999999999998

>  <m_primary>  (66) 
energy

$$$$
66:0
     RDKit          3D

 39 41  0  0  0  0  0  0  0  0999 V2000
   56.3980   29.5060   43.8460 C   0  0  0  0  0  0  0  0  0  0  0  0
   57.5540   29.1210   44.7220 C   0  0  0  0  0  0  0  0  0  0  0  0
   57.9910   27.8340   44.9700 C   0  0  0  0  0  0  0  0  0  0  0  0
   57.5180   26.6510   44.5000 N   0  0  0  0  0  0  0  0  0  0  0  0
   58.1450   25.4900   44.8850 C   0  0  0  0  0  0  0  0  0  0  0  0
   57.6860   24.2000   44.4170 N   0  0  0  0  0  0  0  0  0  0  0  0
   56.6430   24.0940   43.3910 C   0  0  0  0  0  0  0  0  0  0  0  0
   58.2790   22.9830   44.9830 C   0  0  0  0  0  0  0  0  0  0  0  0
   59.2270   25.5550   45.7300 N   0  0  0  0  0  0  0  0  0  0  0  0
   59.7040   26.7400   46.2060 C   0  0  0  0  0  0  0  0  0  0  0  0
   60.7010   26.7590   46.9730 O   0  0  0  0  0  0  0  0  0  0  0  0
   59.0590   27.9080   45.8140 C   0  0  0  0  0  0  0  0  0  0  0  0
   59.2560   29.2490   46.1030 C   0  0  0  0  0  0  0  0  0  0  0  0
   60.3200   29.8100   47.0030 C   0  0  0  0  0  0  0  0  0  0  0  0
   58.3320   29.9870   45.4260 N   0  0  0  0  0  0  0  0  0  0  0  0
   58.2060   31.4180   45.4440 C   0  0  0  0  0  0  0  0  0  0  0  0
   58.1450   32.1400   44.2410 C   0  0  0  0  0  0  0  0  0  0  0  0
   58.0180   33.5320   44.2610 C   0  0  0  0  0  0  0  0  0  0  0  0
   57.9510   34.2110   45.4800 C   0  0  0  0  0  0  0  0  0  0  0  0
   58.0100   33.5000   46.6830 C   0  0  0  0  0  0  0  0  0  0  0  0
   58.1370   32.1070   46.6660 C   0  0  0  0  0  0  0  0  0  0  0  0
   55.5412   29.7914   44.4740 H   0  0  0  0  0  0  0  0  0  0  0  0
   56.6865   30.3566   43.2109 H   0  0  0  0  0  0  0  0  0  0  0  0
   56.1189   28.6523   43.2109 H   0  0  0  0  0  0  0  0  0  0  0  0
   56.6930   26.6450   43.8620 H   0  0  0  0  0  0  0  0  0  0  0  0
   55.6606   23.9942   43.8757 H   0  0  0  0  0  0  0  0  0  0  0  0
   56.6523   24.9977   42.7639 H   0  0  0  0  0  0  0  0  0  0  0  0
   56.8339   23.2106   42.7639 H   0  0  0  0  0  0  0  0  0  0  0  0
   58.2519   23.0385   46.0813 H   0  0  0  0  0  0  0  0  0  0  0  0
   57.7074   22.1057   44.6460 H   0  0  0  0  0  0  0  0  0  0  0  0
   59.3222   22.8925   44.6460 H   0  0  0  0  0  0  0  0  0  0  0  0
   60.0301   29.6571   48.0530 H   0  0  0  0  0  0  0  0  0  0  0  0
   61.2734   29.2973   46.8075 H   0  0  0  0  0  0  0  0  0  0  0  0
   60.4356   30.8863   46.8075 H   0  0  0  0  0  0  0  0  0  0  0  0
   58.1973   31.6083   43.2795 H   0  0  0  0  0  0  0  0  0  0  0  0
   57.9708   34.0931   43.3161 H   0  0  0  0  0  0  0  0  0  0  0  0
   57.8517   35.3064   45.4938 H   0  0  0  0  0  0  0  0  0  0  0  0
   57.9566   34.0360   47.6421 H   0  0  0  0  0  0  0  0  0  0  0  0
   58.1830   31.5493   47.6130 H   0  0  0  0  0  0  0  0  0  0  0  0
  1  2  1  0
  2  3  2  0
  3  4  1  0
  4  5  1  0
  5  6  1  0
  6  7  1  0
  6  8  1  0
  5  9  2  0
  9 10  1  0
 10 11  2  0
 10 12  1  0
 12 13  2  0
 13 14  1  0
 13 15  1  0
 15 16  1  0
 16 17  2  0
 17 18  1  0
 18 19  2  0
 19 20  1  0
 20 21  2  0
 15  2  1  0
 21 16  1  0
 12  3  1  0
  1 22  1  0
  1 23  1  0
  1 24  1  0
  4 25  1  0
  7 26  1  0
  7 27  1  0
  7 28  1  0
  8 29  1  0
  8 30  1  0
  8 31  1  0
 14 32  1  0
 14 33  1  0
 14 34  1  0
 17 35  1  0
 18 36  1  0
 19 37  1  0
 20 38  1  0
 21 39  1  0
M  END
>  <UniqueID>  (67) 
60

>  <SMILES>  (67) 
Cc1c2[nH]c(N(C)C)nc(=O)c2c(C)n1-c1ccccc1

>  <Energy>  (67) 
82.72282975692896

>  <Genealogy>  (67) 
Cc1c2[nH]c(N(C)C)nc(=O)c2c(C)n1-c1ccccc1 (3D coordinates assigned)
Cc1c2[nH]c(N(C)C)nc(=O)c2c(C)n1-c1ccccc1 (optimized conformer: 82.72282975692896 kcal/mol)

>  <smiles>  (67) 
Cc1c2[nH]c(N(C)C)nc(=O)c2c(C)n1-c1ccccc1

>  <score_type>  (67) 
oracle

>  <origin>  (67) 
adg

>  <m_score__min__energy>  (67) 
-6.7999999999999998

>  <m_primary>  (67) 
energy

$$$$
67:0
     RDKit          3D

 38 40  0  0  0  0  0  0  0  0999 V2000
   55.9040   31.4330   44.8620 O   0  0  0  0  0  0  0  0  0  0  0  0
   57.3640   31.4460   44.5080 S   0  0  0  0  0  0  0  0  0  0  0  0
   57.5140   31.6760   43.0290 O   0  0  0  0  0  0  0  0  0  0  0  0
   58.1220   29.9080   44.9210 C   0  0  0  0  0  0  0  0  0  0  0  0
   57.4150   28.9240   45.6270 C   0  0  0  0  0  0  0  0  0  0  0  0
   58.0650   27.7600   46.0490 C   0  0  0  0  0  0  0  0  0  0  0  0
   59.4250   27.5750   45.7750 C   0  0  0  0  0  0  0  0  0  0  0  0
   60.3200   26.0020   46.3840 Br  0  0  0  0  0  0  0  0  0  0  0  0
   60.1310   28.5500   45.0640 C   0  0  0  0  0  0  0  0  0  0  0  0
   59.4820   29.7130   44.6370 C   0  0  0  0  0  0  0  0  0  0  0  0
   58.1710   32.7190   45.4170 C   0  0  0  0  0  0  0  0  0  0  0  0
   58.4830   33.9450   44.8180 C   0  0  0  0  0  0  0  0  0  0  0  0
   59.2060   34.9070   45.5300 C   0  0  0  0  0  0  0  0  0  0  0  0
   59.6440   34.6380   46.8300 C   0  0  0  0  0  0  0  0  0  0  0  0
   59.3500   33.4040   47.4400 C   0  0  0  0  0  0  0  0  0  0  0  0
   59.8480   33.0930   48.7620 N   0  0  0  0  0  0  0  0  0  0  0  0
   59.8600   31.6570   48.9730 C   0  0  0  0  0  0  0  0  0  0  0  0
   60.7620   30.8360   48.2540 C   0  0  0  0  0  0  0  0  0  0  0  0
   61.9670   31.5130   47.1630 Cl  0  0  0  0  0  0  0  0  0  0  0  0
   60.7140   29.4440   48.3910 C   0  0  0  0  0  0  0  0  0  0  0  0
   59.7790   28.8500   49.2350 C   0  0  0  0  0  0  0  0  0  0  0  0
   58.8910   29.6420   49.9600 C   0  0  0  0  0  0  0  0  0  0  0  0
   58.9240   31.0350   49.8430 C   0  0  0  0  0  0  0  0  0  0  0  0
   57.7640   31.9550   50.7990 Cl  0  0  0  0  0  0  0  0  0  0  0  0
   58.5640   32.4740   46.7380 C   0  0  0  0  0  0  0  0  0  0  0  0
   56.3473   29.0680   45.8492 H   0  0  0  0  0  0  0  0  0  0  0  0
   57.5060   26.9877   46.5977 H   0  0  0  0  0  0  0  0  0  0  0  0
   61.1978   28.4023   44.8402 H   0  0  0  0  0  0  0  0  0  0  0  0
   60.0399   30.4776   44.0765 H   0  0  0  0  0  0  0  0  0  0  0  0
   58.1594   34.1517   43.7872 H   0  0  0  0  0  0  0  0  0  0  0  0
   59.4308   35.8785   45.0657 H   0  0  0  0  0  0  0  0  0  0  0  0
   60.2220   35.3954   47.3797 H   0  0  0  0  0  0  0  0  0  0  0  0
   60.8160   33.4650   48.8940 H   0  0  0  0  0  0  0  0  0  0  0  0
   59.2540   33.5850   49.4640 H   0  0  0  0  0  0  0  0  0  0  0  0
   61.4195   28.8150   47.8283 H   0  0  0  0  0  0  0  0  0  0  0  0
   59.7415   27.7547   49.3294 H   0  0  0  0  0  0  0  0  0  0  0  0
   58.1583   29.1678   50.6296 H   0  0  0  0  0  0  0  0  0  0  0  0
   58.2538   31.5419   47.2329 H   0  0  0  0  0  0  0  0  0  0  0  0
  1  2  2  0
  2  3  2  0
  2  4  1  0
  4  5  2  0
  5  6  1  0
  6  7  2  0
  7  8  1  0
  7  9  1  0
  9 10  2  0
  2 11  1  0
 11 12  2  0
 12 13  1  0
 13 14  2  0
 14 15  1  0
 15 16  1  0
 16 17  1  0
 17 18  2  0
 18 19  1  0
 18 20  1  0
 20 21  2  0
 21 22  1  0
 22 23  2  0
 23 24  1  0
 15 25  2  0
 10  4  1  0
 25 11  1  0
 23 17  1  0
  5 26  1  0
  6 27  1  0
  9 28  1  0
 10 29  1  0
 12 30  1  0
 13 31  1  0
 14 32  1  0
 16 33  1  0
 16 34  1  0
 20 35  1  0
 21 36  1  0
 22 37  1  0
 25 38  1  0
M  CHG  1  16   1
M  END
>  <UniqueID>  (68) 
61

>  <SMILES>  (68) 
O=S(=O)(c1ccc(Br)cc1)c1cccc([NH2+]c2c(Cl)cccc2Cl)c1

>  <Energy>  (68) 
46.50389489933565

>  <Genealogy>  (68) 
O=S(=O)(c1ccc(Br)cc1)c1cccc([NH2+]c2c(Cl)cccc2Cl)c1 (protonated)
O=S(=O)(c1ccc(Br)cc1)c1cccc([NH2+]c2c(Cl)cccc2Cl)c1 (3D coordinates assigned)
O=S(=O)(c1ccc(Br)cc1)c1cccc([NH2+]c2c(Cl)cccc2Cl)c1 (optimized conformer: 46.50389489933565 kcal/mol)

>  <smiles>  (68) 
O=S(=O)(c1ccc(Br)cc1)c1cccc(Nc2c(Cl)cccc2Cl)c1

>  <score_type>  (68) 
oracle

>  <origin>  (68) 
adg

>  <m_score__min__energy>  (68) 
-7.2400000000000002

>  <m_primary>  (68) 
energy

$$$$
68:0
     RDKit          3D

 36 37  0  0  0  0  0  0  0  0999 V2000
   59.2766   26.5729   46.6897 H   0  0  0  0  0  0  0  0  0  0  0  0
   58.2510   26.2070   46.5340 C   0  0  0  0  0  0  0  0  0  0  0  0
   57.2390   27.0890   46.1220 C   0  0  0  0  0  0  0  0  0  0  0  0
   57.4950   28.4870   45.9220 N   0  0  0  0  0  0  0  0  0  0  0  0
   58.2440   28.9300   46.5000 H   0  0  0  0  0  0  0  0  0  0  0  0
   56.7120   29.3390   45.0690 C   0  0  0  0  0  0  0  0  0  0  0  0
   55.5210   29.0270   44.7920 O   0  0  0  0  0  0  0  0  0  0  0  0
   57.2620   30.6220   44.5760 C   0  0  0  0  0  0  0  0  0  0  0  0
   57.2610   30.8800   43.1950 C   0  0  0  0  0  0  0  0  0  0  0  0
   56.9072   30.1074   42.4965 H   0  0  0  0  0  0  0  0  0  0  0  0
   57.7050   32.1080   42.7010 C   0  0  0  0  0  0  0  0  0  0  0  0
   57.6690   32.4220   40.9750 Cl  0  0  0  0  0  0  0  0  0  0  0  0
   58.1600   33.0920   43.5780 C   0  0  0  0  0  0  0  0  0  0  0  0
   58.4851   34.0664   43.1845 H   0  0  0  0  0  0  0  0  0  0  0  0
   58.2060   32.8480   44.9580 C   0  0  0  0  0  0  0  0  0  0  0  0
   58.6890   33.9270   45.8890 C   0  0  0  0  0  0  0  0  0  0  0  0
   58.4022   34.9105   45.4883 H   0  0  0  0  0  0  0  0  0  0  0  0
   58.2328   33.7832   46.8796 H   0  0  0  0  0  0  0  0  0  0  0  0
   60.4610   33.8440   46.0400 Cl  0  0  0  0  0  0  0  0  0  0  0  0
   57.7680   31.6050   45.4610 C   0  0  0  0  0  0  0  0  0  0  0  0
   57.8450   31.3600   46.8360 O   0  0  0  0  0  0  0  0  0  0  0  0
   59.0500   30.9150   47.4500 C   0  0  0  0  0  0  0  0  0  0  0  0
   58.9408   30.9553   48.5438 H   0  0  0  0  0  0  0  0  0  0  0  0
   59.2590   29.8804   47.1403 H   0  0  0  0  0  0  0  0  0  0  0  0
   59.8813   31.5655   47.1403 H   0  0  0  0  0  0  0  0  0  0  0  0
   55.9710   26.6210   45.9660 N   0  0  0  0  0  0  0  0  0  0  0  0
   55.6380   25.3160   46.1650 C   0  0  0  0  0  0  0  0  0  0  0  0
   54.3990   24.9550   45.9840 N   0  0  0  0  0  0  0  0  0  0  0  0
   53.9180   23.9970   44.9950 C   0  0  0  0  0  0  0  0  0  0  0  0
   53.4815   23.1277   45.5086 H   0  0  0  0  0  0  0  0  0  0  0  0
   53.1522   24.4734   44.3652 H   0  0  0  0  0  0  0  0  0  0  0  0
   54.7575   23.6674   44.3652 H   0  0  0  0  0  0  0  0  0  0  0  0
   56.6390   24.4060   46.5570 C   0  0  0  0  0  0  0  0  0  0  0  0
   56.3943   23.3452   46.7142 H   0  0  0  0  0  0  0  0  0  0  0  0
   57.9440   24.8630   46.7440 C   0  0  0  0  0  0  0  0  0  0  0  0
   58.7317   24.1622   47.0575 H   0  0  0  0  0  0  0  0  0  0  0  0
  1  2  1  0
  2  3  2  0
  3  4  1  0
  4  5  1  0
  4  6  1  0
  6  7  2  0
  6  8  1  0
  8  9  2  0
  9 10  1  0
  9 11  1  0
 11 12  1  0
 11 13  2  0
 13 14  1  0
 13 15  1  0
 15 16  1  0
 16 17  1  0
 16 18  1  0
 16 19  1  0
 15 20  2  0
 20 21  1  0
 21 22  1  0
 22 23  1  0
 22 24  1  0
 22 25  1  0
  3 26  1  0
 26 27  1  0
 27 28  2  0
 28 29  1  0
 29 30  1  0
 29 31  1  0
 29 32  1  0
 27 33  1  0
 33 34  1  0
 33 35  2  0
 35 36  1  0
 35  2  1  0
 20  8  1  0
M  CHG  1  26  -1
M  END
>  <UniqueID>  (69) 
62

>  <SMILES>  (69) 
C/N=c1\cccc(NC(=O)c2cc(Cl)cc(CCl)c2OC)[n-]1

>  <Energy>  (69) 
49.31945667703692

>  <Genealogy>  (69) 
CN=c1cccc(NC(=O)c2cc(Cl)cc(CCl)c2OC)[n-]1 (protonated)
C/N=c1\cccc(NC(=O)c2cc(Cl)cc(CCl)c2OC)[n-]1 (cis-trans isomerization)
C/N=c1\cccc(NC(=O)c2cc(Cl)cc(CCl)c2OC)[n-]1 (3D coordinates assigned)
C/N=c1\cccc(NC(=O)c2cc(Cl)cc(CCl)c2OC)[n-]1 (optimized conformer: 49.31945667703692 kcal/mol)

>  <smiles>  (69) 
CN=c1cccc(NC(=O)c2cc(Cl)cc(CCl)c2OC)[nH]1

>  <score_type>  (69) 
oracle

>  <origin>  (69) 
adg

>  <m_score__min__energy>  (69) 
-9.7799999999999994

>  <m_primary>  (69) 
energy

$$$$
69:0
     RDKit          3D

 44 46  0  0  0  0  0  0  0  0999 V2000
   56.6690   30.4960   43.6560 C   0  0  0  0  0  0  0  0  0  0  0  0
   56.6240   31.2850   44.8400 O   0  0  0  0  0  0  0  0  0  0  0  0
   57.7550   31.8040   45.4880 C   0  0  0  0  0  0  0  0  0  0  0  0
   57.9990   33.1870   45.5910 C   0  0  0  0  0  0  0  0  0  0  0  0
   59.1410   33.6540   46.2470 C   0  0  0  0  0  0  0  0  0  0  0  0
   60.0580   32.7520   46.8150 C   0  0  0  0  0  0  0  0  0  0  0  0
   61.2340   33.2340   47.4950 N   0  0  0  0  0  0  0  0  0  0  0  0
   62.4780   33.4480   46.7430 C   0  0  0  0  0  0  0  0  0  0  0  0
   63.7370   33.1900   47.6040 C   0  0  0  0  0  0  0  0  0  0  0  0
   63.4800   33.1950   49.0670 N   0  0  0  0  0  0  0  0  0  0  0  0
   64.7470   33.4370   49.7990 C   0  0  0  0  0  0  0  0  0  0  0  0
   65.2850   32.1760   50.4370 C   0  0  0  0  0  0  0  0  0  0  0  0
   66.6680   31.9390   50.4970 C   0  0  0  0  0  0  0  0  0  0  0  0
   67.1610   30.7780   51.1020 C   0  0  0  0  0  0  0  0  0  0  0  0
   66.2760   29.8450   51.6500 C   0  0  0  0  0  0  0  0  0  0  0  0
   66.7540   28.7200   52.2360 F   0  0  0  0  0  0  0  0  0  0  0  0
   64.8980   30.0730   51.5940 C   0  0  0  0  0  0  0  0  0  0  0  0
   64.4020   31.2320   50.9910 C   0  0  0  0  0  0  0  0  0  0  0  0
   62.4580   34.2050   49.4150 C   0  0  0  0  0  0  0  0  0  0  0  0
   61.0980   33.7800   48.8520 C   0  0  0  0  0  0  0  0  0  0  0  0
   59.8100   31.3730   46.7090 C   0  0  0  0  0  0  0  0  0  0  0  0
   58.6690   30.9070   46.0520 C   0  0  0  0  0  0  0  0  0  0  0  0
   56.7297   29.4316   43.9268 H   0  0  0  0  0  0  0  0  0  0  0  0
   55.7593   30.6722   43.0631 H   0  0  0  0  0  0  0  0  0  0  0  0
   57.5527   30.7745   43.0631 H   0  0  0  0  0  0  0  0  0  0  0  0
   57.2876   33.9028   45.1532 H   0  0  0  0  0  0  0  0  0  0  0  0
   59.3241   34.7362   46.3197 H   0  0  0  0  0  0  0  0  0  0  0  0
   62.4925   32.7642   45.8815 H   0  0  0  0  0  0  0  0  0  0  0  0
   62.5001   34.4998   46.4218 H   0  0  0  0  0  0  0  0  0  0  0  0
   64.1491   32.2080   47.3286 H   0  0  0  0  0  0  0  0  0  0  0  0
   64.4359   34.0148   47.4009 H   0  0  0  0  0  0  0  0  0  0  0  0
   63.1200   32.2460   49.3320 H   0  0  0  0  0  0  0  0  0  0  0  0
   65.4961   33.8247   49.0929 H   0  0  0  0  0  0  0  0  0  0  0  0
   64.5419   34.1615   50.6009 H   0  0  0  0  0  0  0  0  0  0  0  0
   67.3674   32.6704   50.0659 H   0  0  0  0  0  0  0  0  0  0  0  0
   68.2455   30.5992   51.1465 H   0  0  0  0  0  0  0  0  0  0  0  0
   64.2023   29.3383   52.0256 H   0  0  0  0  0  0  0  0  0  0  0  0
   63.3167   31.4066   50.9495 H   0  0  0  0  0  0  0  0  0  0  0  0
   62.3891   34.2933   50.5093 H   0  0  0  0  0  0  0  0  0  0  0  0
   62.7435   35.1755   48.9829 H   0  0  0  0  0  0  0  0  0  0  0  0
   60.6628   33.0106   49.5067 H   0  0  0  0  0  0  0  0  0  0  0  0
   60.4461   34.6650   48.8086 H   0  0  0  0  0  0  0  0  0  0  0  0
   60.5196   30.6553   47.1466 H   0  0  0  0  0  0  0  0  0  0  0  0
   58.4871   29.8247   45.9772 H   0  0  0  0  0  0  0  0  0  0  0  0
  1  2  1  0
  2  3  1  0
  3  4  2  0
  4  5  1  0
  5  6  2  0
  6  7  1  0
  7  8  1  0
  8  9  1  0
  9 10  1  0
 10 11  1  0
 11 12  1  0
 12 13  2  0
 13 14  1  0
 14 15  2  0
 15 16  1  0
 15 17  1  0
 17 18  2  0
 10 19  1  0
 19 20  1  0
  6 21  1  0
 21 22  2  0
 22  3  1  0
 20  7  1  0
 18 12  1  0
  1 23  1  0
  1 24  1  0
  1 25  1  0
  4 26  1  0
  5 27  1  0
  8 28  1  0
  8 29  1  0
  9 30  1  0
  9 31  1  0
 10 32  1  0
 11 33  1  0
 11 34  1  0
 13 35  1  0
 14 36  1  0
 17 37  1  0
 18 38  1  0
 19 39  1  0
 19 40  1  0
 20 41  1  0
 20 42  1  0
 21 43  1  0
 22 44  1  0
M  CHG  1  10   1
M  END
>  <UniqueID>  (70) 
63

>  <SMILES>  (70) 
COc1ccc(N2CC[NH+](Cc3ccc(F)cc3)CC2)cc1

>  <Energy>  (70) 
55.74463061147837

>  <Genealogy>  (70) 
COc1ccc(N2CC[NH+](Cc3ccc(F)cc3)CC2)cc1 (protonated)
COc1ccc(N2CC[NH+](Cc3ccc(F)cc3)CC2)cc1 (3D coordinates assigned)
COc1ccc(N2CC[NH+](Cc3ccc(F)cc3)CC2)cc1 (nonaromatic ring conformer: 55.74463061147837 kcal/mol)

>  <smiles>  (70) 
COc1ccc(N2CCN(Cc3ccc(F)cc3)CC2)cc1

>  <score_type>  (70) 
oracle

>  <origin>  (70) 
adg

>  <m_score__min__energy>  (70) 
-5.0199999999999996

>  <m_primary>  (70) 
energy

$$$$
70:0
     RDKit          3D

 57 60  0  0  0  0  0  0  0  0999 V2000
   52.9590   27.0070   53.5470 C   0  0  0  0  0  0  0  0  0  0  0  0
   53.0230   28.3720   54.2220 C   0  0  0  0  0  0  0  0  0  0  0  0
   53.9640   29.2410   53.5200 N   0  0  0  0  0  0  0  0  0  0  0  0
   53.6920   30.4240   52.9350 C   0  0  0  0  0  0  0  0  0  0  0  0
   54.7660   30.9460   52.3040 N   0  0  0  0  0  0  0  0  0  0  0  0
   55.7430   30.0340   52.5040 C   0  0  0  0  0  0  0  0  0  0  0  0
   57.1170   30.1600   51.9860 C   0  0  0  0  0  0  0  0  0  0  0  0
   58.1710   29.4130   52.5330 C   0  0  0  0  0  0  0  0  0  0  0  0
   59.4300   29.5520   52.0340 N   0  0  0  0  0  0  0  0  0  0  0  0
   59.6850   30.4090   51.0050 C   0  0  0  0  0  0  0  0  0  0  0  0
   60.9800   30.5560   50.4900 C   0  0  0  0  0  0  0  0  0  0  0  0
   61.2180   31.4420   49.4360 C   0  0  0  0  0  0  0  0  0  0  0  0
   60.1680   32.1960   48.8770 C   0  0  0  0  0  0  0  0  0  0  0  0
   60.4340   33.1150   47.7930 N   0  0  0  0  0  0  0  0  0  0  0  0
   61.7090   33.8490   47.7230 C   0  0  0  0  0  0  0  0  0  0  0  0
   62.6740   33.1590   46.7520 C   0  0  0  0  0  0  0  0  0  0  0  0
   64.0570   33.2730   47.2350 N   0  0  0  0  0  0  0  0  0  0  0  0
   64.1350   33.0690   48.6840 C   0  0  0  0  0  0  0  0  0  0  0  0
   59.4890   33.2350   46.7090 C   0  0  0  0  0  0  0  0  0  0  0  0
   59.3430   34.4470   46.0150 C   0  0  0  0  0  0  0  0  0  0  0  0
   58.4260   34.5530   44.9680 C   0  0  0  0  0  0  0  0  0  0  0  0
   57.6450   33.4530   44.6060 C   0  0  0  0  0  0  0  0  0  0  0  0
   57.7710   32.2380   45.2860 C   0  0  0  0  0  0  0  0  0  0  0  0
   56.9620   31.1630   44.8860 O   0  0  0  0  0  0  0  0  0  0  0  0
   57.0130   30.5540   43.6000 C   0  0  0  0  0  0  0  0  0  0  0  0
   58.6980   32.1330   46.3410 C   0  0  0  0  0  0  0  0  0  0  0  0
   58.8670   32.0440   49.3980 C   0  0  0  0  0  0  0  0  0  0  0  0
   58.6280   31.1590   50.4540 C   0  0  0  0  0  0  0  0  0  0  0  0
   57.3760   31.0130   50.9590 N   0  0  0  0  0  0  0  0  0  0  0  0
   55.2520   28.9780   53.2450 C   0  0  0  0  0  0  0  0  0  0  0  0
   52.9221   26.2198   54.3145 H   0  0  0  0  0  0  0  0  0  0  0  0
   52.0572   26.9501   52.9197 H   0  0  0  0  0  0  0  0  0  0  0  0
   53.8515   26.8659   52.9197 H   0  0  0  0  0  0  0  0  0  0  0  0
   52.0238   28.8317   54.2066 H   0  0  0  0  0  0  0  0  0  0  0  0
   53.3621   28.2422   55.2603 H   0  0  0  0  0  0  0  0  0  0  0  0
   52.7058   30.9101   52.9677 H   0  0  0  0  0  0  0  0  0  0  0  0
   57.9806   28.7167   53.3630 H   0  0  0  0  0  0  0  0  0  0  0  0
   60.2020   28.9880   52.4560 H   0  0  0  0  0  0  0  0  0  0  0  0
   61.8101   29.9733   50.9159 H   0  0  0  0  0  0  0  0  0  0  0  0
   62.2376   31.5519   49.0381 H   0  0  0  0  0  0  0  0  0  0  0  0
   61.5174   34.8747   47.3750 H   0  0  0  0  0  0  0  0  0  0  0  0
   62.1644   33.8667   48.7242 H   0  0  0  0  0  0  0  0  0  0  0  0
   62.4057   32.0954   46.6693 H   0  0  0  0  0  0  0  0  0  0  0  0
   62.5987   33.6460   45.7686 H   0  0  0  0  0  0  0  0  0  0  0  0
   64.6180   32.5090   46.7880 H   0  0  0  0  0  0  0  0  0  0  0  0
   63.7883   33.9758   49.2011 H   0  0  0  0  0  0  0  0  0  0  0  0
   63.4987   32.2182   48.9693 H   0  0  0  0  0  0  0  0  0  0  0  0
   65.1766   32.8598   48.9693 H   0  0  0  0  0  0  0  0  0  0  0  0
   59.9541   35.3168   46.2978 H   0  0  0  0  0  0  0  0  0  0  0  0
   58.3182   35.5046   44.4269 H   0  0  0  0  0  0  0  0  0  0  0  0
   56.9250   33.5434   43.7793 H   0  0  0  0  0  0  0  0  0  0  0  0
   57.1043   29.4637   43.7140 H   0  0  0  0  0  0  0  0  0  0  0  0
   56.0920   30.7889   43.0463 H   0  0  0  0  0  0  0  0  0  0  0  0
   57.8821   30.9388   43.0463 H   0  0  0  0  0  0  0  0  0  0  0  0
   58.8039   31.1808   46.8814 H   0  0  0  0  0  0  0  0  0  0  0  0
   58.0356   32.6245   48.9717 H   0  0  0  0  0  0  0  0  0  0  0  0
   55.8134   28.0839   53.5540 H   0  0  0  0  0  0  0  0  0  0  0  0
  1  2  1  0
  2  3  1  0
  3  4  1  0
  4  5  2  0
  5  6  1  0
  6  7  1  0
  7  8  2  0
  8  9  1  0
  9 10  2  0
 10 11  1  0
 11 12  2  0
 12 13  1  0
 13 14  1  0
 14 15  1  0
 15 16  1  0
 16 17  1  0
 17 18  1  0
 14 19  1  0
 19 20  2  0
 20 21  1  0
 21 22  2  0
 22 23  1  0
 23 24  1  0
 24 25  1  0
 23 26  2  0
 13 27  2  0
 27 28  1  0
 28 29  2  0
  6 30  2  0
 30  3  1  0
 29  7  1  0
 28 10  1  0
 26 19  1  0
  1 31  1  0
  1 32  1  0
  1 33  1  0
  2 34  1  0
  2 35  1  0
  4 36  1  0
  8 37  1  0
  9 38  1  0
 11 39  1  0
 12 40  1  0
 15 41  1  0
 15 42  1  0
 16 43  1  0
 16 44  1  0
 17 45  1  0
 18 46  1  0
 18 47  1  0
 18 48  1  0
 20 49  1  0
 21 50  1  0
 22 51  1  0
 25 52  1  0
 25 53  1  0
 25 54  1  0
 26 55  1  0
 27 56  1  0
 30 57  1  0
M  CHG  1   9   1
M  END
>  <UniqueID>  (71) 
64

>  <SMILES>  (71) 
CCn1cnc(-c2c[nH+]c3ccc(N(CCNC)c4cccc(OC)c4)cc3n2)c1

>  <Energy>  (71) 
94.40320239069963

>  <Genealogy>  (71) 
CCn1cnc(-c2c[nH+]c3ccc(N(CCNC)c4cccc(OC)c4)cc3n2)c1 (protonated)
CCn1cnc(-c2c[nH+]c3ccc(N(CCNC)c4cccc(OC)c4)cc3n2)c1 (3D coordinates assigned)
CCn1cnc(-c2c[nH+]c3ccc(N(CCNC)c4cccc(OC)c4)cc3n2)c1 (optimized conformer: 94.40320239069963 kcal/mol)

>  <smiles>  (71) 
CCn1cnc(-c2cnc3ccc(N(CCNC)c4cccc(OC)c4)cc3n2)c1

>  <score_type>  (71) 
oracle

>  <origin>  (71) 
adg

>  <m_score__min__energy>  (71) 
-7.2000000000000002

>  <m_primary>  (71) 
energy

$$$$
71:0
     RDKit          3D

 41 43  0  0  0  0  0  0  0  0999 V2000
   58.5061   29.9037   50.4098 H   0  0  0  0  0  0  0  0  0  0  0  0
   58.8790   30.1890   49.4150 C   0  0  0  0  0  0  0  0  0  0  0  0
   58.5370   31.3070   48.7430 N   0  0  0  0  0  0  0  0  0  0  0  0
   59.1800   31.3110   47.5820 N   0  0  0  0  0  0  0  0  0  0  0  0
   59.0510   32.4010   46.6650 C   0  0  0  0  0  0  0  0  0  0  0  0
   58.0800   32.3460   45.6530 C   0  0  0  0  0  0  0  0  0  0  0  0
   57.4680   31.4404   45.5292 H   0  0  0  0  0  0  0  0  0  0  0  0
   57.8880   33.4380   44.8020 C   0  0  0  0  0  0  0  0  0  0  0  0
   57.1401   33.3835   43.9972 H   0  0  0  0  0  0  0  0  0  0  0  0
   58.6470   34.6000   44.9740 C   0  0  0  0  0  0  0  0  0  0  0  0
   58.4984   35.4580   44.3019 H   0  0  0  0  0  0  0  0  0  0  0  0
   59.5940   34.6720   45.9990 C   0  0  0  0  0  0  0  0  0  0  0  0
   60.1886   35.5875   46.1340 H   0  0  0  0  0  0  0  0  0  0  0  0
   59.7870   33.5810   46.8540 C   0  0  0  0  0  0  0  0  0  0  0  0
   60.6840   33.6740   47.8680 F   0  0  0  0  0  0  0  0  0  0  0  0
   59.9390   30.1880   47.5000 C   0  0  0  0  0  0  0  0  0  0  0  0
   60.6710   29.7860   46.4950 N   0  0  0  0  0  0  0  0  0  0  0  0
   60.3300   28.8990   45.3820 C   0  0  0  0  0  0  0  0  0  0  0  0
   61.1173   28.1368   45.2857 H   0  0  0  0  0  0  0  0  0  0  0  0
   60.2499   29.5185   44.4766 H   0  0  0  0  0  0  0  0  0  0  0  0
   59.0100   28.2050   45.5750 C   0  0  0  0  0  0  0  0  0  0  0  0
   57.8730   28.8440   45.1880 N   0  0  0  0  0  0  0  0  0  0  0  0
   56.6400   28.2770   45.3070 C   0  0  0  0  0  0  0  0  0  0  0  0
   55.4960   28.9720   44.9010 O   0  0  0  0  0  0  0  0  0  0  0  0
   55.5210   29.9760   43.8910 C   0  0  0  0  0  0  0  0  0  0  0  0
   55.5457   30.9696   44.3623 H   0  0  0  0  0  0  0  0  0  0  0  0
   56.4161   29.8445   43.2654 H   0  0  0  0  0  0  0  0  0  0  0  0
   54.6204   29.8892   43.2654 H   0  0  0  0  0  0  0  0  0  0  0  0
   56.5120   26.9880   45.8390 C   0  0  0  0  0  0  0  0  0  0  0  0
   55.2290   26.4340   45.9670 O   0  0  0  0  0  0  0  0  0  0  0  0
   54.8940   25.0930   45.6260 C   0  0  0  0  0  0  0  0  0  0  0  0
   54.7475   24.5066   46.5451 H   0  0  0  0  0  0  0  0  0  0  0  0
   53.9665   25.0858   45.0347 H   0  0  0  0  0  0  0  0  0  0  0  0
   55.7092   24.6504   45.0347 H   0  0  0  0  0  0  0  0  0  0  0  0
   57.6750   26.2960   46.2170 C   0  0  0  0  0  0  0  0  0  0  0  0
   57.5990   25.2786   46.6282 H   0  0  0  0  0  0  0  0  0  0  0  0
   58.9250   26.8960   46.0720 C   0  0  0  0  0  0  0  0  0  0  0  0
   59.8381   26.3469   46.3454 H   0  0  0  0  0  0  0  0  0  0  0  0
   59.7700   29.4610   48.6570 C   0  0  0  0  0  0  0  0  0  0  0  0
   60.3540   28.1900   48.9940 C   0  0  0  0  0  0  0  0  0  0  0  0
   60.8240   27.1680   49.2650 N   0  0  0  0  0  0  0  0  0  0  0  0
  1  2  1  0
  2  3  1  0
  3  4  1  0
  4  5  1  0
  5  6  2  0
  6  7  1  0
  6  8  1  0
  8  9  1  0
  8 10  2  0
 10 11  1  0
 10 12  1  0
 12 13  1  0
 12 14  2  0
 14 15  1  0
  4 16  1  0
 16 17  2  0
 17 18  1  0
 18 19  1  0
 18 20  1  0
 18 21  1  0
 21 22  2  0
 22 23  1  0
 23 24  1  0
 24 25  1  0
 25 26  1  0
 25 27  1  0
 25 28  1  0
 23 29  2  0
 29 30  1  0
 30 31  1  0
 31 32  1  0
 31 33  1  0
 31 34  1  0
 29 35  1  0
 35 36  1  0
 35 37  2  0
 37 38  1  0
 16 39  1  0
 39 40  1  0
 40 41  3  0
 39  2  2  0
 14  5  1  0
 37 21  1  0
M  CHG  1   3  -1
M  END
>  <UniqueID>  (72) 
65

>  <SMILES>  (72) 
COc1ccc(C/N=c2/c(C#N)c[n-]n2-c2ccccc2F)nc1OC

>  <Energy>  (72) 
82.24672087889569

>  <Genealogy>  (72) 
COc1ccc(CN=c2c(C#N)c[n-]n2-c2ccccc2F)nc1OC (protonated)
COc1ccc(C/N=c2/c(C#N)c[n-]n2-c2ccccc2F)nc1OC (cis-trans isomerization)
COc1ccc(C/N=c2/c(C#N)c[n-]n2-c2ccccc2F)nc1OC (3D coordinates assigned)
COc1ccc(C/N=c2/c(C#N)c[n-]n2-c2ccccc2F)nc1OC (optimized conformer: 82.24672087889569 kcal/mol)

>  <smiles>  (72) 
COc1ccc(CN=c2c(C#N)c[nH]n2-c2ccccc2F)nc1OC

>  <score_type>  (72) 
oracle

>  <origin>  (72) 
adg

>  <m_score__min__energy>  (72) 
-8.75

>  <m_primary>  (72) 
energy

$$$$
72:0
     RDKit          3D

 43 45  0  0  0  0  0  0  0  0999 V2000
   60.7170   26.9330   48.7110 C   0  0  0  0  0  0  0  0  0  0  0  0
   59.7560   27.2540   47.6040 C   0  0  0  0  0  0  0  0  0  0  0  0
   60.1390   28.1120   46.5660 C   0  0  0  0  0  0  0  0  0  0  0  0
   59.2560   28.3880   45.5210 C   0  0  0  0  0  0  0  0  0  0  0  0
   57.9810   27.8110   45.4940 C   0  0  0  0  0  0  0  0  0  0  0  0
   57.0900   28.1960   44.4380 N   0  0  0  0  0  0  0  0  0  0  0  0
   56.3830   29.4420   44.3840 C   0  0  0  0  0  0  0  0  0  0  0  0
   55.1360   29.4570   44.5780 O   0  0  0  0  0  0  0  0  0  0  0  0
   57.1060   30.7180   44.1220 C   0  0  0  0  0  0  0  0  0  0  0  0
   57.2620   31.1580   42.7980 C   0  0  0  0  0  0  0  0  0  0  0  0
   57.9300   32.3440   42.5230 C   0  0  0  0  0  0  0  0  0  0  0  0
   58.4460   33.1000   43.5710 C   0  0  0  0  0  0  0  0  0  0  0  0
   58.3090   32.6860   44.8660 N   0  0  0  0  0  0  0  0  0  0  0  0
   58.8380   33.5420   45.9420 C   0  0  0  0  0  0  0  0  0  0  0  0
   60.1830   33.0370   46.3960 C   0  0  0  0  0  0  0  0  0  0  0  0
   60.3240   31.7330   46.9010 C   0  0  0  0  0  0  0  0  0  0  0  0
   61.5680   31.2830   47.3500 C   0  0  0  0  0  0  0  0  0  0  0  0
   62.6800   32.1290   47.3020 C   0  0  0  0  0  0  0  0  0  0  0  0
   63.8860   31.6900   47.7390 F   0  0  0  0  0  0  0  0  0  0  0  0
   62.5470   33.4300   46.8070 C   0  0  0  0  0  0  0  0  0  0  0  0
   61.3030   33.8850   46.3570 C   0  0  0  0  0  0  0  0  0  0  0  0
   57.6450   31.5170   45.1600 C   0  0  0  0  0  0  0  0  0  0  0  0
   57.5120   31.1590   46.3620 O   0  0  0  0  0  0  0  0  0  0  0  0
   57.6100   26.8840   46.4980 C   0  0  0  0  0  0  0  0  0  0  0  0
   56.3760   26.1510   46.4220 N   0  0  0  0  0  0  0  0  0  0  0  0
   55.3420   26.7010   45.9900 O   0  0  0  0  0  0  0  0  0  0  0  0
   56.2750   24.8980   46.9840 O   0  0  0  0  0  0  0  0  0  0  0  0
   58.5020   26.6300   47.5560 C   0  0  0  0  0  0  0  0  0  0  0  0
   60.2262   27.0969   49.6817 H   0  0  0  0  0  0  0  0  0  0  0  0
   61.0301   25.8815   48.6314 H   0  0  0  0  0  0  0  0  0  0  0  0
   61.5992   27.5853   48.6314 H   0  0  0  0  0  0  0  0  0  0  0  0
   61.1391   28.5700   46.5741 H   0  0  0  0  0  0  0  0  0  0  0  0
   59.5649   29.0652   44.7111 H   0  0  0  0  0  0  0  0  0  0  0  0
   56.8519   30.5586   41.9719 H   0  0  0  0  0  0  0  0  0  0  0  0
   58.0504   32.6835   41.4837 H   0  0  0  0  0  0  0  0  0  0  0  0
   58.9705   34.0423   43.3544 H   0  0  0  0  0  0  0  0  0  0  0  0
   58.9436   34.5713   45.5685 H   0  0  0  0  0  0  0  0  0  0  0  0
   58.1410   33.5204   46.7928 H   0  0  0  0  0  0  0  0  0  0  0  0
   59.4516   31.0643   46.9429 H   0  0  0  0  0  0  0  0  0  0  0  0
   61.6728   30.2607   47.7422 H   0  0  0  0  0  0  0  0  0  0  0  0
   63.4215   34.0964   46.7714 H   0  0  0  0  0  0  0  0  0  0  0  0
   61.2011   34.9101   45.9713 H   0  0  0  0  0  0  0  0  0  0  0  0
   58.2115   25.9328   48.3557 H   0  0  0  0  0  0  0  0  0  0  0  0
  1  2  1  0
  2  3  2  0
  3  4  1  0
  4  5  2  0
  5  6  1  0
  6  7  1  0
  7  8  2  0
  7  9  1  0
  9 10  2  0
 10 11  1  0
 11 12  2  0
 12 13  1  0
 13 14  1  0
 14 15  1  0
 15 16  2  0
 16 17  1  0
 17 18  2  0
 18 19  1  0
 18 20  1  0
 20 21  2  0
 13 22  1  0
 22 23  2  0
  5 24  1  0
 24 25  1  0
 25 26  2  0
 25 27  1  0
 24 28  2  0
 28  2  1  0
 22  9  1  0
 21 15  1  0
  1 29  1  0
  1 30  1  0
  1 31  1  0
  3 32  1  0
  4 33  1  0
 10 34  1  0
 11 35  1  0
 12 36  1  0
 14 37  1  0
 14 38  1  0
 16 39  1  0
 17 40  1  0
 20 41  1  0
 21 42  1  0
 28 43  1  0
M  CHG  3   6  -1  25   1  27  -1
M  END
>  <UniqueID>  (73) 
66

>  <SMILES>  (73) 
Cc1ccc([N-]C(=O)c2cccn(Cc3ccc(F)cc3)c2=O)c([N+](=O)[O-])c1

>  <Energy>  (73) 
59.67204371087808

>  <Genealogy>  (73) 
Cc1ccc([N-]C(=O)c2cccn(Cc3ccc(F)cc3)c2=O)c([N+](=O)[O-])c1 (protonated)
Cc1ccc([N-]C(=O)c2cccn(Cc3ccc(F)cc3)c2=O)c([N+](=O)[O-])c1 (3D coordinates assigned)
Cc1ccc([N-]C(=O)c2cccn(Cc3ccc(F)cc3)c2=O)c([N+](=O)[O-])c1 (optimized conformer: 59.67204371087808 kcal/mol)

>  <smiles>  (73) 
Cc1ccc(NC(=O)c2cccn(Cc3ccc(F)cc3)c2=O)c([N+](=O)[O-])c1

>  <score_type>  (73) 
oracle

>  <origin>  (73) 
adg

>  <m_score__min__energy>  (73) 
-11.289999999999999

>  <m_primary>  (73) 
energy

$$$$
73:0
     RDKit          3D

 41 43  0  0  0  0  0  0  0  0999 V2000
   63.7500   33.4520   46.3820 C   0  0  0  0  0  0  0  0  0  0  0  0
   62.5790   33.4950   47.3120 C   0  0  0  0  0  0  0  0  0  0  0  0
   62.7830   33.6010   48.6500 N   0  0  0  0  0  0  0  0  0  0  0  0
   61.7500   33.6600   49.5340 C   0  0  0  0  0  0  0  0  0  0  0  0
   62.0270   33.7620   50.9510 N   0  0  0  0  0  0  0  0  0  0  0  0
   60.9590   33.4580   51.9100 C   0  0  0  0  0  0  0  0  0  0  0  0
   63.3520   34.1610   51.4420 C   0  0  0  0  0  0  0  0  0  0  0  0
   60.4360   33.6140   49.0370 C   0  0  0  0  0  0  0  0  0  0  0  0
   60.2350   33.5180   47.6540 C   0  0  0  0  0  0  0  0  0  0  0  0
   58.9030   33.4560   47.1120 N   0  0  0  0  0  0  0  0  0  0  0  0
   58.3710   34.5840   46.3490 C   0  0  0  0  0  0  0  0  0  0  0  0
   58.4710   34.2640   44.8560 C   0  0  0  0  0  0  0  0  0  0  0  0
   58.0190   32.8540   44.5370 C   0  0  0  0  0  0  0  0  0  0  0  0
   57.7530   32.5120   43.2020 C   0  0  0  0  0  0  0  0  0  0  0  0
   57.3960   31.2050   42.8630 C   0  0  0  0  0  0  0  0  0  0  0  0
   57.3070   30.2240   43.8520 C   0  0  0  0  0  0  0  0  0  0  0  0
   57.5800   30.5440   45.1840 C   0  0  0  0  0  0  0  0  0  0  0  0
   57.9540   31.8500   45.5360 C   0  0  0  0  0  0  0  0  0  0  0  0
   58.1840   32.1840   46.9900 C   0  0  0  0  0  0  0  0  0  0  0  0
   61.3100   33.4580   46.8210 N   0  0  0  0  0  0  0  0  0  0  0  0
   64.6813   33.4178   46.9664 H   0  0  0  0  0  0  0  0  0  0  0  0
   63.6819   32.5557   45.7479 H   0  0  0  0  0  0  0  0  0  0  0  0
   63.7478   34.3508   45.7479 H   0  0  0  0  0  0  0  0  0  0  0  0
   61.3441   33.5676   52.9346 H   0  0  0  0  0  0  0  0  0  0  0  0
   60.1202   34.1531   51.7572 H   0  0  0  0  0  0  0  0  0  0  0  0
   60.6120   32.4254   51.7572 H   0  0  0  0  0  0  0  0  0  0  0  0
   63.3508   34.1606   52.5420 H   0  0  0  0  0  0  0  0  0  0  0  0
   64.1079   33.4506   51.0759 H   0  0  0  0  0  0  0  0  0  0  0  0
   63.5899   35.1706   51.0759 H   0  0  0  0  0  0  0  0  0  0  0  0
   59.5779   33.6528   49.7241 H   0  0  0  0  0  0  0  0  0  0  0  0
   57.3183   34.7502   46.6213 H   0  0  0  0  0  0  0  0  0  0  0  0
   58.9489   35.4923   46.5749 H   0  0  0  0  0  0  0  0  0  0  0  0
   57.8392   34.9720   44.2997 H   0  0  0  0  0  0  0  0  0  0  0  0
   59.5278   34.3520   44.5638 H   0  0  0  0  0  0  0  0  0  0  0  0
   57.8262   33.2790   42.4169 H   0  0  0  0  0  0  0  0  0  0  0  0
   57.1845   30.9482   41.8145 H   0  0  0  0  0  0  0  0  0  0  0  0
   57.0213   29.1967   43.5819 H   0  0  0  0  0  0  0  0  0  0  0  0
   57.5015   29.7688   45.9605 H   0  0  0  0  0  0  0  0  0  0  0  0
   57.2136   32.2651   47.5017 H   0  0  0  0  0  0  0  0  0  0  0  0
   58.7866   31.3867   47.4495 H   0  0  0  0  0  0  0  0  0  0  0  0
   61.1590   33.3970   45.7870 H   0  0  0  0  0  0  0  0  0  0  0  0
  1  2  1  0
  2  3  2  0
  3  4  1  0
  4  5  1  0
  5  6  1  0
  5  7  1  0
  4  8  2  0
  8  9  1  0
  9 10  1  0
 10 11  1  0
 11 12  1  0
 12 13  1  0
 13 14  2  0
 14 15  1  0
 15 16  2  0
 16 17  1  0
 17 18  2  0
 18 19  1  0
  9 20  2  0
 20  2  1  0
 19 10  1  0
 18 13  1  0
  1 21  1  0
  1 22  1  0
  1 23  1  0
  6 24  1  0
  6 25  1  0
  6 26  1  0
  7 27  1  0
  7 28  1  0
  7 29  1  0
  8 30  1  0
 11 31  1  0
 11 32  1  0
 12 33  1  0
 12 34  1  0
 14 35  1  0
 15 36  1  0
 16 37  1  0
 17 38  1  0
 19 39  1  0
 19 40  1  0
 20 41  1  0
M  CHG  1  20   1
M  END
>  <UniqueID>  (74) 
67

>  <SMILES>  (74) 
Cc1nc(N(C)C)cc(N2CCc3ccccc3C2)[nH+]1

>  <Energy>  (74) 
46.5464796072462

>  <Genealogy>  (74) 
Cc1nc(N(C)C)cc(N2CCc3ccccc3C2)[nH+]1 (protonated)
Cc1nc(N(C)C)cc(N2CCc3ccccc3C2)[nH+]1 (3D coordinates assigned)
Cc1nc(N(C)C)cc(N2CCc3ccccc3C2)[nH+]1 (nonaromatic ring conformer: 46.5464796072462 kcal/mol)

>  <smiles>  (74) 
Cc1nc(N(C)C)cc(N2CCc3ccccc3C2)n1

>  <score_type>  (74) 
oracle

>  <origin>  (74) 
adg

>  <m_score__min__energy>  (74) 
-5.2599999999999998

>  <m_primary>  (74) 
energy

$$$$
74:0
     RDKit          3D

 29 31  0  0  0  0  0  0  0  0999 V2000
   56.0958   28.3043   44.1018 H   0  0  0  0  0  0  0  0  0  0  0  0
   56.7370   28.9450   44.7250 C   0  0  0  0  0  0  0  0  0  0  0  0
   56.4330   30.1980   44.8820 N   0  0  0  0  0  0  0  0  0  0  0  0
   57.1500   31.2680   44.3120 N   0  0  0  0  0  0  0  0  0  0  0  0
   57.3860   31.5210   42.9990 C   0  0  0  0  0  0  0  0  0  0  0  0
   57.0344   30.8974   42.1639 H   0  0  0  0  0  0  0  0  0  0  0  0
   58.1380   32.6850   42.8640 C   0  0  0  0  0  0  0  0  0  0  0  0
   58.4870   33.1482   41.9293 H   0  0  0  0  0  0  0  0  0  0  0  0
   58.3530   33.1350   44.1520 C   0  0  0  0  0  0  0  0  0  0  0  0
   59.0420   34.2530   44.6170 C   0  0  0  0  0  0  0  0  0  0  0  0
   59.5277   34.9516   43.9199 H   0  0  0  0  0  0  0  0  0  0  0  0
   59.0960   34.4590   46.0080 C   0  0  0  0  0  0  0  0  0  0  0  0
   59.6317   35.3312   46.4109 H   0  0  0  0  0  0  0  0  0  0  0  0
   58.4660   33.5520   46.8910 C   0  0  0  0  0  0  0  0  0  0  0  0
   58.5144   33.7236   47.9765 H   0  0  0  0  0  0  0  0  0  0  0  0
   57.7780   32.4320   46.3910 C   0  0  0  0  0  0  0  0  0  0  0  0
   57.2847   31.7191   47.0681 H   0  0  0  0  0  0  0  0  0  0  0  0
   57.7420   32.2550   45.0060 C   0  0  0  0  0  0  0  0  0  0  0  0
   57.9330   28.3700   45.3730 C   0  0  0  0  0  0  0  0  0  0  0  0
   57.8230   27.4310   46.4160 C   0  0  0  0  0  0  0  0  0  0  0  0
   56.8292   27.1113   46.7628 H   0  0  0  0  0  0  0  0  0  0  0  0
   58.9720   26.9030   47.0130 C   0  0  0  0  0  0  0  0  0  0  0  0
   58.8795   26.1696   47.8276 H   0  0  0  0  0  0  0  0  0  0  0  0
   60.2380   27.3050   46.5770 C   0  0  0  0  0  0  0  0  0  0  0  0
   61.1404   26.8886   47.0484 H   0  0  0  0  0  0  0  0  0  0  0  0
   60.3560   28.2360   45.5420 C   0  0  0  0  0  0  0  0  0  0  0  0
   61.3521   28.5518   45.1985 H   0  0  0  0  0  0  0  0  0  0  0  0
   59.2100   28.7670   44.9420 C   0  0  0  0  0  0  0  0  0  0  0  0
   59.3088   29.4999   44.1277 H   0  0  0  0  0  0  0  0  0  0  0  0
  1  2  1  0
  2  3  2  0
  3  4  1  0
  4  5  1  0
  5  6  1  0
  5  7  2  0
  7  8  1  0
  7  9  1  0
  9 10  2  0
 10 11  1  0
 10 12  1  0
 12 13  1  0
 12 14  2  0
 14 15  1  0
 14 16  1  0
 16 17  1  0
 16 18  2  0
  2 19  1  0
 19 20  2  0
 20 21  1  0
 20 22  1  0
 22 23  1  0
 22 24  2  0
 24 25  1  0
 24 26  1  0
 26 27  1  0
 26 28  2  0
 28 29  1  0
 18  4  1  0
 28 19  1  0
 18  9  1  0
M  END
>  <UniqueID>  (75) 
68

>  <SMILES>  (75) 
C(=N/n1ccc2ccccc21)\c1ccccc1

>  <Energy>  (75) 
67.4536525768269

>  <Genealogy>  (75) 
C(=N/n1ccc2ccccc21)\c1ccccc1 (cis-trans isomerization)
C(=N/n1ccc2ccccc21)\c1ccccc1 (3D coordinates assigned)
C(=N/n1ccc2ccccc21)\c1ccccc1 (optimized conformer: 67.4536525768269 kcal/mol)

>  <smiles>  (75) 
C(=Nn1ccc2ccccc21)c1ccccc1

>  <score_type>  (75) 
oracle

>  <origin>  (75) 
adg

>  <m_score__min__energy>  (75) 
-6.8799999999999999

>  <m_primary>  (75) 
energy

$$$$
75:0
     RDKit          3D

 21 23  0  0  0  0  0  0  0  0999 V2000
   60.0110   36.1960   45.9940 O   0  0  0  0  0  0  0  0  0  0  0  0
   59.4990   35.0460   45.9210 C   0  0  0  0  0  0  0  0  0  0  0  0
   59.0550   34.5360   44.6930 C   0  0  0  0  0  0  0  0  0  0  0  0
   58.4850   33.2440   44.6410 C   0  0  0  0  0  0  0  0  0  0  0  0
   58.0340   32.7120   43.4240 C   0  0  0  0  0  0  0  0  0  0  0  0
   57.4700   31.4340   43.3790 C   0  0  0  0  0  0  0  0  0  0  0  0
   57.3520   30.6730   44.5480 C   0  0  0  0  0  0  0  0  0  0  0  0
   56.6430   29.0690   44.4780 Cl  0  0  0  0  0  0  0  0  0  0  0  0
   57.7960   31.1870   45.7710 C   0  0  0  0  0  0  0  0  0  0  0  0
   58.3640   32.4710   45.8270 C   0  0  0  0  0  0  0  0  0  0  0  0
   58.8290   33.0460   47.0170 C   0  0  0  0  0  0  0  0  0  0  0  0
   58.8240   32.5180   48.2550 N   0  0  0  0  0  0  0  0  0  0  0  0
   59.3850   33.4960   49.0060 C   0  0  0  0  0  0  0  0  0  0  0  0
   59.7210   34.5790   48.2650 N   0  0  0  0  0  0  0  0  0  0  0  0
   59.3640   34.2740   47.0290 N   0  0  0  0  0  0  0  0  0  0  0  0
   59.1496   35.1371   43.7766 H   0  0  0  0  0  0  0  0  0  0  0  0
   58.1246   33.3033   42.5009 H   0  0  0  0  0  0  0  0  0  0  0  0
   57.1173   31.0244   42.4209 H   0  0  0  0  0  0  0  0  0  0  0  0
   57.7006   30.5867   46.6878 H   0  0  0  0  0  0  0  0  0  0  0  0
   58.4780   31.5880   48.5770 H   0  0  0  0  0  0  0  0  0  0  0  0
   59.5486   33.4196   50.0911 H   0  0  0  0  0  0  0  0  0  0  0  0
  1  2  2  0
  2  3  1  0
  3  4  2  0
  4  5  1  0
  5  6  2  0
  6  7  1  0
  7  8  1  0
  7  9  2  0
  9 10  1  0
 10 11  2  0
 11 12  1  0
 12 13  1  0
 13 14  2  0
 14 15  1  0
 15  2  1  0
 10  4  1  0
 15 11  1  0
  3 16  1  0
  5 17  1  0
  6 18  1  0
  9 19  1  0
 12 20  1  0
 13 21  1  0
M  END
>  <UniqueID>  (76) 
69

>  <SMILES>  (76) 
O=c1cc2ccc(Cl)cc2c2[nH]cnn12

>  <Energy>  (76) 
67.92116938920377

>  <Genealogy>  (76) 
O=c1cc2ccc(Cl)cc2c2[nH]cnn12 (3D coordinates assigned)
O=c1cc2ccc(Cl)cc2c2[nH]cnn12 (optimized conformer: 67.92116938920377 kcal/mol)

>  <smiles>  (76) 
O=c1cc2ccc(Cl)cc2c2[nH]cnn12

>  <score_type>  (76) 
oracle

>  <origin>  (76) 
adg

>  <m_score__min__energy>  (76) 
-6.0499999999999998

>  <m_primary>  (76) 
energy

$$$$
76:0
     RDKit          3D

 48 50  0  0  0  0  0  0  0  0999 V2000
   55.5230   29.6980   43.4840 C   0  0  0  0  0  0  0  0  0  0  0  0
   55.8050   29.5280   44.8690 O   0  0  0  0  0  0  0  0  0  0  0  0
   57.0680   29.2050   45.3920 C   0  0  0  0  0  0  0  0  0  0  0  0
   57.3630   27.9120   45.8710 C   0  0  0  0  0  0  0  0  0  0  0  0
   58.6190   27.6270   46.4100 C   0  0  0  0  0  0  0  0  0  0  0  0
   59.5930   28.6220   46.4800 C   0  0  0  0  0  0  0  0  0  0  0  0
   60.8080   28.3430   47.0110 F   0  0  0  0  0  0  0  0  0  0  0  0
   59.3170   29.9040   46.0060 C   0  0  0  0  0  0  0  0  0  0  0  0
   58.0620   30.2040   45.4510 C   0  0  0  0  0  0  0  0  0  0  0  0
   57.7490   31.8470   44.8740 S   0  0  0  0  0  0  0  0  0  0  0  0
   56.2740   32.1390   44.8880 O   0  0  0  0  0  0  0  0  0  0  0  0
   58.2380   31.9540   43.4550 O   0  0  0  0  0  0  0  0  0  0  0  0
   58.5910   33.0210   45.8810 C   0  0  0  0  0  0  0  0  0  0  0  0
   59.0380   34.2300   45.3330 C   0  0  0  0  0  0  0  0  0  0  0  0
   59.7030   35.1600   46.1340 C   0  0  0  0  0  0  0  0  0  0  0  0
   59.9110   34.8980   47.4900 C   0  0  0  0  0  0  0  0  0  0  0  0
   59.4460   33.7030   48.0600 C   0  0  0  0  0  0  0  0  0  0  0  0
   59.6740   33.3900   49.4410 N   0  0  0  0  0  0  0  0  0  0  0  0
   59.2660   31.8620   50.1590 S   0  0  0  0  0  0  0  0  0  0  0  0
   59.7120   31.7780   51.5890 O   0  0  0  0  0  0  0  0  0  0  0  0
   57.7740   31.6930   50.1050 O   0  0  0  0  0  0  0  0  0  0  0  0
   60.0170   30.5570   49.2390 C   0  0  0  0  0  0  0  0  0  0  0  0
   61.3240   30.4930   48.9590 C   0  0  0  0  0  0  0  0  0  0  0  0
   62.1380   31.6470   48.5380 C   0  0  0  0  0  0  0  0  0  0  0  0
   62.9150   32.3580   49.4680 C   0  0  0  0  0  0  0  0  0  0  0  0
   63.6850   33.4470   49.0520 C   0  0  0  0  0  0  0  0  0  0  0  0
   63.6960   33.8240   47.7060 C   0  0  0  0  0  0  0  0  0  0  0  0
   62.9490   33.1010   46.7720 C   0  0  0  0  0  0  0  0  0  0  0  0
   62.1800   32.0080   47.1840 C   0  0  0  0  0  0  0  0  0  0  0  0
   58.8020   32.7610   47.2430 C   0  0  0  0  0  0  0  0  0  0  0  0
   54.5863   30.2627   43.3672 H   0  0  0  0  0  0  0  0  0  0  0  0
   56.3461   30.2505   43.0073 H   0  0  0  0  0  0  0  0  0  0  0  0
   55.4187   28.7121   43.0073 H   0  0  0  0  0  0  0  0  0  0  0  0
   56.5986   27.1227   45.8197 H   0  0  0  0  0  0  0  0  0  0  0  0
   58.8405   26.6152   46.7802 H   0  0  0  0  0  0  0  0  0  0  0  0
   60.0879   30.6863   46.0672 H   0  0  0  0  0  0  0  0  0  0  0  0
   58.8646   34.4472   44.2687 H   0  0  0  0  0  0  0  0  0  0  0  0
   60.0643   36.1021   45.6958 H   0  0  0  0  0  0  0  0  0  0  0  0
   60.4419   35.6319   48.1142 H   0  0  0  0  0  0  0  0  0  0  0  0
   60.3660   33.9720   49.9690 H   0  0  0  0  0  0  0  0  0  0  0  0
   59.3707   29.7457   48.8729 H   0  0  0  0  0  0  0  0  0  0  0  0
   61.8226   29.5166   49.0488 H   0  0  0  0  0  0  0  0  0  0  0  0
   62.9171   32.0566   50.5259 H   0  0  0  0  0  0  0  0  0  0  0  0
   64.2834   34.0085   49.7846 H   0  0  0  0  0  0  0  0  0  0  0  0
   64.2925   34.6896   47.3820 H   0  0  0  0  0  0  0  0  0  0  0  0
   62.9659   33.3920   45.7113 H   0  0  0  0  0  0  0  0  0  0  0  0
   61.6068   31.4302   46.4440 H   0  0  0  0  0  0  0  0  0  0  0  0
   58.4593   31.8093   47.6751 H   0  0  0  0  0  0  0  0  0  0  0  0
  1  2  1  0
  2  3  1  0
  3  4  2  0
  4  5  1  0
  5  6  2  0
  6  7  1  0
  6  8  1  0
  8  9  2  0
  9 10  1  0
 10 11  2  0
 10 12  2  0
 10 13  1  0
 13 14  2  0
 14 15  1  0
 15 16  2  0
 16 17  1  0
 17 18  1  0
 18 19  1  0
 19 20  2  0
 19 21  2  0
 19 22  1  0
 22 23  2  3
 23 24  1  0
 24 25  2  0
 25 26  1  0
 26 27  2  0
 27 28  1  0
 28 29  2  0
 17 30  2  0
  9  3  1  0
 30 13  1  0
 29 24  1  0
  1 31  1  0
  1 32  1  0
  1 33  1  0
  4 34  1  0
  5 35  1  0
  8 36  1  0
 14 37  1  0
 15 38  1  0
 16 39  1  0
 18 40  1  0
 22 41  1  0
 23 42  1  0
 25 43  1  0
 26 44  1  0
 27 45  1  0
 28 46  1  0
 29 47  1  0
 30 48  1  0
M  END
>  <UniqueID>  (77) 
70

>  <SMILES>  (77) 
COc1ccc(F)cc1S(=O)(=O)c1cccc(NS(=O)(=O)C=Cc2ccccc2)c1

>  <Energy>  (77) 
63.93051323744829

>  <Genealogy>  (77) 
COc1ccc(F)cc1S(=O)(=O)c1cccc(NS(=O)(=O)C=Cc2ccccc2)c1 (3D coordinates assigned)
COc1ccc(F)cc1S(=O)(=O)c1cccc(NS(=O)(=O)C=Cc2ccccc2)c1 (optimized conformer: 63.93051323744829 kcal/mol)

>  <smiles>  (77) 
COc1ccc(F)cc1S(=O)(=O)c1cccc(NS(=O)(=O)C=Cc2ccccc2)c1

>  <score_type>  (77) 
oracle

>  <origin>  (77) 
adg

>  <m_score__min__energy>  (77) 
-10.56

>  <m_primary>  (77) 
energy

$$$$
77:0
     RDKit          3D

 48 49  0  0  0  0  0  0  0  0999 V2000
   57.7650   26.0780   44.7240 C   0  0  0  0  0  0  0  0  0  0  0  0
   58.0960   26.7260   43.3850 C   0  0  0  0  0  0  0  0  0  0  0  0
   58.1290   28.1490   43.5050 O   0  0  0  0  0  0  0  0  0  0  0  0
   58.5980   28.8690   44.6180 C   0  0  0  0  0  0  0  0  0  0  0  0
   59.9420   28.8200   45.0370 C   0  0  0  0  0  0  0  0  0  0  0  0
   60.3620   29.5510   46.1500 C   0  0  0  0  0  0  0  0  0  0  0  0
   59.4490   30.3330   46.8720 C   0  0  0  0  0  0  0  0  0  0  0  0
   59.8650   31.1150   48.0050 N   0  0  0  0  0  0  0  0  0  0  0  0
   60.9140   30.7270   48.9070 C   0  0  0  0  0  0  0  0  0  0  0  0
   61.3560   29.5470   48.9060 O   0  0  0  0  0  0  0  0  0  0  0  0
   61.4950   31.7260   49.8630 C   0  0  0  0  0  0  0  0  0  0  0  0
   60.6730   32.9540   49.8820 N   0  0  0  0  0  0  0  0  0  0  0  0
   60.5260   33.4920   51.2470 C   0  0  0  0  0  0  0  0  0  0  0  0
   61.1680   33.9770   48.9350 C   0  0  0  0  0  0  0  0  0  0  0  0
   60.3700   34.0550   47.6590 C   0  0  0  0  0  0  0  0  0  0  0  0
   60.8940   34.1630   46.3740 C   0  0  0  0  0  0  0  0  0  0  0  0
   59.9100   34.2260   45.3810 C   0  0  0  0  0  0  0  0  0  0  0  0
   58.6210   34.1670   45.8870 C   0  0  0  0  0  0  0  0  0  0  0  0
   57.1490   34.2200   44.9420 Cl  0  0  0  0  0  0  0  0  0  0  0  0
   58.6890   34.0360   47.5610 S   0  0  0  0  0  0  0  0  0  0  0  0
   58.1180   30.4050   46.4400 C   0  0  0  0  0  0  0  0  0  0  0  0
   57.6850   29.6700   45.3190 C   0  0  0  0  0  0  0  0  0  0  0  0
   56.3540   29.7100   44.8720 O   0  0  0  0  0  0  0  0  0  0  0  0
   55.9440   30.1810   43.5920 C   0  0  0  0  0  0  0  0  0  0  0  0
   57.0250   31.0780   43.0100 C   0  0  0  0  0  0  0  0  0  0  0  0
   58.0999   26.7336   45.5414 H   0  0  0  0  0  0  0  0  0  0  0  0
   56.6783   25.9249   44.7986 H   0  0  0  0  0  0  0  0  0  0  0  0
   58.2779   25.1078   44.7986 H   0  0  0  0  0  0  0  0  0  0  0  0
   59.0797   26.3697   43.0452 H   0  0  0  0  0  0  0  0  0  0  0  0
   57.3175   26.4512   42.6581 H   0  0  0  0  0  0  0  0  0  0  0  0
   60.6649   28.2022   44.4841 H   0  0  0  0  0  0  0  0  0  0  0  0
   61.4160   29.5132   46.4625 H   0  0  0  0  0  0  0  0  0  0  0  0
   59.3320   31.9890   48.2210 H   0  0  0  0  0  0  0  0  0  0  0  0
   61.5202   31.2903   50.8727 H   0  0  0  0  0  0  0  0  0  0  0  0
   62.5143   31.9820   49.5382 H   0  0  0  0  0  0  0  0  0  0  0  0
   60.7425   32.6997   51.9787 H   0  0  0  0  0  0  0  0  0  0  0  0
   61.2293   34.3256   51.3903 H   0  0  0  0  0  0  0  0  0  0  0  0
   59.4965   33.8521   51.3903 H   0  0  0  0  0  0  0  0  0  0  0  0
   61.1278   34.9581   49.4307 H   0  0  0  0  0  0  0  0  0  0  0  0
   62.1929   33.6901   48.6572 H   0  0  0  0  0  0  0  0  0  0  0  0
   61.9726   34.1955   46.1606 H   0  0  0  0  0  0  0  0  0  0  0  0
   60.1365   34.3134   44.3081 H   0  0  0  0  0  0  0  0  0  0  0  0
   57.4037   31.0422   46.9820 H   0  0  0  0  0  0  0  0  0  0  0  0
   55.7788   29.3243   42.9220 H   0  0  0  0  0  0  0  0  0  0  0  0
   55.0099   30.7528   43.6944 H   0  0  0  0  0  0  0  0  0  0  0  0
   57.5912   31.5478   43.8278 H   0  0  0  0  0  0  0  0  0  0  0  0
   57.7065   30.4764   42.3906 H   0  0  0  0  0  0  0  0  0  0  0  0
   56.5594   31.8587   42.3906 H   0  0  0  0  0  0  0  0  0  0  0  0
  1  2  1  0
  2  3  1  0
  3  4  1  0
  4  5  2  0
  5  6  1  0
  6  7  2  0
  7  8  1  0
  8  9  1  0
  9 10  2  0
  9 11  1  0
 11 12  1  0
 12 13  1  0
 12 14  1  0
 14 15  1  0
 15 16  2  0
 16 17  1  0
 17 18  2  0
 18 19  1  0
 18 20  1  0
  7 21  1  0
 21 22  2  0
 22 23  1  0
 23 24  1  0
 24 25  1  0
 22  4  1  0
 20 15  1  0
  1 26  1  0
  1 27  1  0
  1 28  1  0
  2 29  1  0
  2 30  1  0
  5 31  1  0
  6 32  1  0
  8 33  1  0
 11 34  1  0
 11 35  1  0
 13 36  1  0
 13 37  1  0
 13 38  1  0
 14 39  1  0
 14 40  1  0
 16 41  1  0
 17 42  1  0
 21 43  1  0
 24 44  1  0
 24 45  1  0
 25 46  1  0
 25 47  1  0
 25 48  1  0
M  END
>  <UniqueID>  (78) 
71

>  <SMILES>  (78) 
CCOc1ccc(NC(=O)CN(C)Cc2ccc(Cl)s2)cc1OCC

>  <Energy>  (78) 
72.7248903288349

>  <Genealogy>  (78) 
CCOc1ccc(NC(=O)CN(C)Cc2ccc(Cl)s2)cc1OCC (3D coordinates assigned)
CCOc1ccc(NC(=O)CN(C)Cc2ccc(Cl)s2)cc1OCC (optimized conformer: 72.7248903288349 kcal/mol)

>  <smiles>  (78) 
CCOc1ccc(NC(=O)CN(C)Cc2ccc(Cl)s2)cc1OCC

>  <score_type>  (78) 
oracle

>  <origin>  (78) 
adg

>  <m_score__min__energy>  (78) 
-7.5800000000000001

>  <m_primary>  (78) 
energy

$$$$
78:0
     RDKit          3D

 47 50  0  0  0  0  0  0  0  0999 V2000
   57.1101   30.1505   42.2892 H   0  0  0  0  0  0  0  0  0  0  0  0
   57.3920   30.8580   43.0830 C   0  0  0  0  0  0  0  0  0  0  0  0
   57.4590   32.2050   42.9360 N   0  0  0  0  0  0  0  0  0  0  0  0
   57.8310   32.6360   44.1590 C   0  0  0  0  0  0  0  0  0  0  0  0
   58.0130   33.9550   44.5430 C   0  0  0  0  0  0  0  0  0  0  0  0
   57.8930   34.7799   43.8253 H   0  0  0  0  0  0  0  0  0  0  0  0
   58.3560   34.1990   45.8810 C   0  0  0  0  0  0  0  0  0  0  0  0
   58.5249   35.2294   46.2269 H   0  0  0  0  0  0  0  0  0  0  0  0
   58.4850   33.1140   46.7890 C   0  0  0  0  0  0  0  0  0  0  0  0
   58.7760   33.2900   48.0490 N   0  0  0  0  0  0  0  0  0  0  0  0
   59.7900   34.1860   48.6090 C   0  0  0  0  0  0  0  0  0  0  0  0
   59.5664   35.2188   48.3035 H   0  0  0  0  0  0  0  0  0  0  0  0
   59.7709   34.0974   49.7053 H   0  0  0  0  0  0  0  0  0  0  0  0
   61.1660   33.8130   48.1190 C   0  0  0  0  0  0  0  0  0  0  0  0
   61.5570   34.1260   46.8050 C   0  0  0  0  0  0  0  0  0  0  0  0
   60.8530   34.6359   46.1309 H   0  0  0  0  0  0  0  0  0  0  0  0
   62.8360   33.7920   46.3520 C   0  0  0  0  0  0  0  0  0  0  0  0
   63.1340   34.0342   45.3212 H   0  0  0  0  0  0  0  0  0  0  0  0
   63.7370   33.1510   47.2060 C   0  0  0  0  0  0  0  0  0  0  0  0
   64.7417   32.8847   46.8458 H   0  0  0  0  0  0  0  0  0  0  0  0
   63.3620   32.8480   48.5180 C   0  0  0  0  0  0  0  0  0  0  0  0
   64.0734   32.3469   49.1909 H   0  0  0  0  0  0  0  0  0  0  0  0
   62.0840   33.1810   48.9760 C   0  0  0  0  0  0  0  0  0  0  0  0
   61.7953   32.9476   50.0114 H   0  0  0  0  0  0  0  0  0  0  0  0
   58.2910   31.8410   46.3290 N   0  0  0  0  0  0  0  0  0  0  0  0
   58.3450   31.0370   46.9940 H   0  0  0  0  0  0  0  0  0  0  0  0
   57.9990   31.6430   45.0420 N   0  0  0  0  0  0  0  0  0  0  0  0
   57.7310   30.5030   44.3810 C   0  0  0  0  0  0  0  0  0  0  0  0
   57.8030   29.1290   44.9220 C   0  0  0  0  0  0  0  0  0  0  0  0
   59.0400   28.4890   45.0780 C   0  0  0  0  0  0  0  0  0  0  0  0
   59.9672   29.0172   44.8108 H   0  0  0  0  0  0  0  0  0  0  0  0
   59.1010   27.1840   45.5710 C   0  0  0  0  0  0  0  0  0  0  0  0
   60.0774   26.6941   45.7000 H   0  0  0  0  0  0  0  0  0  0  0  0
   57.9220   26.4910   45.9040 C   0  0  0  0  0  0  0  0  0  0  0  0
   57.9430   25.1790   46.4030 O   0  0  0  0  0  0  0  0  0  0  0  0
   58.4980   24.0640   45.7140 C   0  0  0  0  0  0  0  0  0  0  0  0
   58.8647   23.3274   46.4440 H   0  0  0  0  0  0  0  0  0  0  0  0
   57.7251   23.6013   45.0828 H   0  0  0  0  0  0  0  0  0  0  0  0
   59.3332   24.4017   45.0828 H   0  0  0  0  0  0  0  0  0  0  0  0
   56.6770   27.1180   45.7310 C   0  0  0  0  0  0  0  0  0  0  0  0
   55.5180   26.4010   46.0630 O   0  0  0  0  0  0  0  0  0  0  0  0
   55.2270   25.0830   45.6110 C   0  0  0  0  0  0  0  0  0  0  0  0
   55.0810   24.4219   46.4780 H   0  0  0  0  0  0  0  0  0  0  0  0
   54.3105   25.0979   45.0029 H   0  0  0  0  0  0  0  0  0  0  0  0
   56.0646   24.7106   45.0029 H   0  0  0  0  0  0  0  0  0  0  0  0
   56.6250   28.4350   45.2330 C   0  0  0  0  0  0  0  0  0  0  0  0
   55.6504   28.9237   45.0867 H   0  0  0  0  0  0  0  0  0  0  0  0
  1  2  1  0
  2  3  1  0
  3  4  2  0
  4  5  1  0
  5  6  1  0
  5  7  2  0
  7  8  1  0
  7  9  1  0
  9 10  2  0
 10 11  1  0
 11 12  1  0
 11 13  1  0
 11 14  1  0
 14 15  2  0
 15 16  1  0
 15 17  1  0
 17 18  1  0
 17 19  2  0
 19 20  1  0
 19 21  1  0
 21 22  1  0
 21 23  2  0
 23 24  1  0
  9 25  1  0
 25 26  1  0
 25 27  1  0
 27 28  1  0
 28 29  1  0
 29 30  2  0
 30 31  1  0
 30 32  1  0
 32 33  1  0
 32 34  2  0
 34 35  1  0
 35 36  1  0
 36 37  1  0
 36 38  1  0
 36 39  1  0
 34 40  1  0
 40 41  1  0
 41 42  1  0
 42 43  1  0
 42 44  1  0
 42 45  1  0
 40 46  2  0
 46 47  1  0
 28  2  2  0
 46 29  1  0
 27  4  1  0
 23 14  1  0
M  END
>  <UniqueID>  (79) 
72

>  <SMILES>  (79) 
COc1ccc(-c2cnc3cc/c(=N\Cc4ccccc4)[nH]n23)cc1OC

>  <Energy>  (79) 
93.34828619942894

>  <Genealogy>  (79) 
COc1ccc(-c2cnc3cc/c(=N\Cc4ccccc4)[nH]n23)cc1OC (cis-trans isomerization)
COc1ccc(-c2cnc3cc/c(=N\Cc4ccccc4)[nH]n23)cc1OC (3D coordinates assigned)
COc1ccc(-c2cnc3cc/c(=N\Cc4ccccc4)[nH]n23)cc1OC (optimized conformer: 93.34828619942894 kcal/mol)

>  <smiles>  (79) 
COc1ccc(-c2cnc3ccc(=NCc4ccccc4)[nH]n23)cc1OC

>  <score_type>  (79) 
oracle

>  <origin>  (79) 
adg

>  <m_score__min__energy>  (79) 
-8.7400000000000002

>  <m_primary>  (79) 
energy

$$$$
79:0
     RDKit          3D

 32 34  0  0  0  0  0  0  0  0999 V2000
   54.3600   28.9610   44.5140 H   0  0  0  0  0  0  0  0  0  0  0  0
   55.0510   29.4550   43.9050 N   0  0  0  0  0  0  0  0  0  0  0  0
   56.2990   29.5480   44.2360 C   0  0  0  0  0  0  0  0  0  0  0  0
   56.8000   30.7330   44.6780 N   0  0  0  0  0  0  0  0  0  0  0  0
   58.1090   30.8680   45.0320 C   0  0  0  0  0  0  0  0  0  0  0  0
   58.6000   32.1860   45.5130 C   0  0  0  0  0  0  0  0  0  0  0  0
   57.9370   33.3620   45.1240 C   0  0  0  0  0  0  0  0  0  0  0  0
   57.0541   33.3002   44.4708 H   0  0  0  0  0  0  0  0  0  0  0  0
   58.3900   34.6080   45.5600 C   0  0  0  0  0  0  0  0  0  0  0  0
   57.8603   35.5218   45.2527 H   0  0  0  0  0  0  0  0  0  0  0  0
   59.5120   34.6990   46.3840 C   0  0  0  0  0  0  0  0  0  0  0  0
   59.8589   35.6847   46.7276 H   0  0  0  0  0  0  0  0  0  0  0  0
   60.2020   33.5400   46.7780 C   0  0  0  0  0  0  0  0  0  0  0  0
   61.4030   33.6360   47.6470 C   0  0  0  0  0  0  0  0  0  0  0  0
   61.2960   34.1230   48.9640 C   0  0  0  0  0  0  0  0  0  0  0  0
   60.3156   34.4346   49.3534 H   0  0  0  0  0  0  0  0  0  0  0  0
   62.4280   34.2130   49.7800 C   0  0  0  0  0  0  0  0  0  0  0  0
   62.3355   34.5946   50.8075 H   0  0  0  0  0  0  0  0  0  0  0  0
   63.6760   33.8190   49.2920 C   0  0  0  0  0  0  0  0  0  0  0  0
   64.5655   33.8911   49.9351 H   0  0  0  0  0  0  0  0  0  0  0  0
   63.7950   33.3340   47.9890 C   0  0  0  0  0  0  0  0  0  0  0  0
   64.7784   33.0226   47.6070 H   0  0  0  0  0  0  0  0  0  0  0  0
   62.6670   33.2430   47.1680 C   0  0  0  0  0  0  0  0  0  0  0  0
   62.7679   32.8618   46.1411 H   0  0  0  0  0  0  0  0  0  0  0  0
   59.7400   32.2870   46.3330 C   0  0  0  0  0  0  0  0  0  0  0  0
   60.2771   31.3741   46.6300 H   0  0  0  0  0  0  0  0  0  0  0  0
   58.9500   29.7480   44.9520 C   0  0  0  0  0  0  0  0  0  0  0  0
   60.0081   29.8204   45.2440 H   0  0  0  0  0  0  0  0  0  0  0  0
   58.4210   28.5420   44.4960 C   0  0  0  0  0  0  0  0  0  0  0  0
   59.0658   27.6541   44.4200 H   0  0  0  0  0  0  0  0  0  0  0  0
   57.1110   28.4600   44.1450 N   0  0  0  0  0  0  0  0  0  0  0  0
   56.7310   27.5460   43.8070 H   0  0  0  0  0  0  0  0  0  0  0  0
  1  2  1  0
  2  3  2  0
  3  4  1  0
  4  5  2  0
  5  6  1  0
  6  7  2  0
  7  8  1  0
  7  9  1  0
  9 10  1  0
  9 11  2  0
 11 12  1  0
 11 13  1  0
 13 14  1  0
 14 15  2  0
 15 16  1  0
 15 17  1  0
 17 18  1  0
 17 19  2  0
 19 20  1  0
 19 21  1  0
 21 22  1  0
 21 23  2  0
 23 24  1  0
 13 25  2  0
 25 26  1  0
  5 27  1  0
 27 28  1  0
 27 29  2  0
 29 30  1  0
 29 31  1  0
 31 32  1  0
 31  3  1  0
 25  6  1  0
 23 14  1  0
M  END
>  <UniqueID>  (80) 
73

>  <SMILES>  (80) 
[H]/N=c1\nc(-c2cccc(-c3ccccc3)c2)cc[nH]1

>  <Energy>  (80) 
44.308271531820445

>  <Genealogy>  (80) 
[H]/N=c1\nc(-c2cccc(-c3ccccc3)c2)cc[nH]1 (cis-trans isomerization)
[H]/N=c1\nc(-c2cccc(-c3ccccc3)c2)cc[nH]1 (3D coordinates assigned)
[H]/N=c1\nc(-c2cccc(-c3ccccc3)c2)cc[nH]1 (optimized conformer: 44.308271531820445 kcal/mol)

>  <smiles>  (80) 
N=c1nc(-c2cccc(-c3ccccc3)c2)cc[nH]1

>  <score_type>  (80) 
oracle

>  <origin>  (80) 
adg

>  <m_score__min__energy>  (80) 
-8.6999999999999993

>  <m_primary>  (80) 
energy

$$$$
80:0
     RDKit          3D

 40 43  0  0  0  0  0  0  0  0999 V2000
   54.7690   26.3040   46.0060 N   0  0  0  0  0  0  0  0  0  0  0  0
   54.8170   24.9630   45.5220 C   0  0  0  0  0  0  0  0  0  0  0  0
   53.7440   24.3970   45.1790 O   0  0  0  0  0  0  0  0  0  0  0  0
   56.1110   24.2470   45.4260 C   0  0  0  0  0  0  0  0  0  0  0  0
   56.1820   22.9350   44.9020 C   0  0  0  0  0  0  0  0  0  0  0  0
   57.4170   22.2560   44.8120 C   0  0  0  0  0  0  0  0  0  0  0  0
   58.6060   22.8730   45.2450 C   0  0  0  0  0  0  0  0  0  0  0  0
   59.8620   22.1950   45.1590 N   0  0  0  0  0  0  0  0  0  0  0  0
   58.5100   24.1670   45.7580 C   0  0  0  0  0  0  0  0  0  0  0  0
   59.5030   24.9410   46.2240 N   0  0  0  0  0  0  0  0  0  0  0  0
   58.8550   26.0780   46.5900 C   0  0  0  0  0  0  0  0  0  0  0  0
   59.5490   27.2480   47.1730 C   0  0  0  0  0  0  0  0  0  0  0  0
   59.7430   28.4140   46.4130 C   0  0  0  0  0  0  0  0  0  0  0  0
   60.3980   29.5180   46.9650 C   0  0  0  0  0  0  0  0  0  0  0  0
   60.8580   29.4840   48.2850 C   0  0  0  0  0  0  0  0  0  0  0  0
   61.5240   30.6080   48.7970 O   0  0  0  0  0  0  0  0  0  0  0  0
   61.9820   31.6960   48.0400 C   0  0  0  0  0  0  0  0  0  0  0  0
   63.3500   31.9080   47.7900 C   0  0  0  0  0  0  0  0  0  0  0  0
   63.7670   33.0160   47.0460 C   0  0  0  0  0  0  0  0  0  0  0  0
   62.8250   33.9250   46.5570 C   0  0  0  0  0  0  0  0  0  0  0  0
   61.4660   33.7320   46.8190 C   0  0  0  0  0  0  0  0  0  0  0  0
   61.0470   32.6240   47.5640 C   0  0  0  0  0  0  0  0  0  0  0  0
   60.6850   28.3120   49.0420 C   0  0  0  0  0  0  0  0  0  0  0  0
   60.0310   27.2070   48.4930 C   0  0  0  0  0  0  0  0  0  0  0  0
   57.5150   26.0460   46.3730 N   0  0  0  0  0  0  0  0  0  0  0  0
   57.3190   24.8260   45.8460 C   0  0  0  0  0  0  0  0  0  0  0  0
   53.8910   26.6980   46.4130 H   0  0  0  0  0  0  0  0  0  0  0  0
   55.2628   22.4369   44.5600 H   0  0  0  0  0  0  0  0  0  0  0  0
   57.4502   21.2366   44.4001 H   0  0  0  0  0  0  0  0  0  0  0  0
   59.9160   21.1560   45.2340 H   0  0  0  0  0  0  0  0  0  0  0  0
   60.7470   22.7310   45.0180 H   0  0  0  0  0  0  0  0  0  0  0  0
   59.3768   28.4579   45.3767 H   0  0  0  0  0  0  0  0  0  0  0  0
   60.5530   30.4210   46.3563 H   0  0  0  0  0  0  0  0  0  0  0  0
   64.0947   31.1993   48.1814 H   0  0  0  0  0  0  0  0  0  0  0  0
   64.8372   33.1722   46.8455 H   0  0  0  0  0  0  0  0  0  0  0  0
   63.1533   34.7926   45.9658 H   0  0  0  0  0  0  0  0  0  0  0  0
   60.7253   34.4513   46.4395 H   0  0  0  0  0  0  0  0  0  0  0  0
   59.9773   32.4810   47.7770 H   0  0  0  0  0  0  0  0  0  0  0  0
   61.0669   28.2652   50.0725 H   0  0  0  0  0  0  0  0  0  0  0  0
   59.8921   26.2985   49.0974 H   0  0  0  0  0  0  0  0  0  0  0  0
  1  2  1  0
  2  3  2  0
  2  4  1  0
  4  5  2  0
  5  6  1  0
  6  7  2  0
  7  8  1  0
  7  9  1  0
  9 10  1  0
 10 11  2  0
 11 12  1  0
 12 13  2  0
 13 14  1  0
 14 15  2  0
 15 16  1  0
 16 17  1  0
 17 18  2  0
 18 19  1  0
 19 20  2  0
 20 21  1  0
 21 22  2  0
 15 23  1  0
 23 24  2  0
 11 25  1  0
 25 26  1  0
 26  4  1  0
 26  9  2  0
 24 12  1  0
 22 17  1  0
  1 27  1  0
  5 28  1  0
  6 29  1  0
  8 30  1  0
  8 31  1  0
 13 32  1  0
 14 33  1  0
 18 34  1  0
 19 35  1  0
 20 36  1  0
 21 37  1  0
 22 38  1  0
 23 39  1  0
 24 40  1  0
M  CHG  2   1  -1  25  -1
M  END
>  <UniqueID>  (81) 
74

>  <SMILES>  (81) 
[NH-]C(=O)c1ccc(N)c2nc(-c3ccc(Oc4ccccc4)cc3)[n-]c12

>  <Energy>  (81) 
86.26895032869307

>  <Genealogy>  (81) 
[NH-]C(=O)c1ccc(N)c2nc(-c3ccc(Oc4ccccc4)cc3)[n-]c12 (protonated)
[NH-]C(=O)c1ccc(N)c2nc(-c3ccc(Oc4ccccc4)cc3)[n-]c12 (3D coordinates assigned)
[NH-]C(=O)c1ccc(N)c2nc(-c3ccc(Oc4ccccc4)cc3)[n-]c12 (optimized conformer: 86.26895032869307 kcal/mol)

>  <smiles>  (81) 
NC(=O)c1ccc(N)c2nc(-c3ccc(Oc4ccccc4)cc3)[nH]c12

>  <score_type>  (81) 
oracle

>  <origin>  (81) 
adg

>  <m_score__min__energy>  (81) 
-12.67

>  <m_primary>  (81) 
energy

$$$$
81:0
     RDKit          3D

 28 29  0  0  0  0  0  0  0  0999 V2000
   55.4701   25.6329   46.2952 H   0  0  0  0  0  0  0  0  0  0  0  0
   56.2500   26.3640   46.0360 C   0  0  0  0  0  0  0  0  0  0  0  0
   55.9000   27.6080   45.6210 N   0  0  0  0  0  0  0  0  0  0  0  0
   56.8060   28.5610   45.2700 C   0  0  0  0  0  0  0  0  0  0  0  0
   56.3230   29.7130   44.8840 N   0  0  0  0  0  0  0  0  0  0  0  0
   56.8190   30.7080   43.9340 C   0  0  0  0  0  0  0  0  0  0  0  0
   56.0174   30.9548   43.2223 H   0  0  0  0  0  0  0  0  0  0  0  0
   57.6881   30.2843   43.4094 H   0  0  0  0  0  0  0  0  0  0  0  0
   57.2530   31.9600   44.6340 C   0  0  0  0  0  0  0  0  0  0  0  0
   56.5950   32.5210   45.6230 O   0  0  0  0  0  0  0  0  0  0  0  0
   57.1970   33.6040   46.0120 N   0  0  0  0  0  0  0  0  0  0  0  0
   56.8800   34.2180   46.7950 H   0  0  0  0  0  0  0  0  0  0  0  0
   58.2840   33.7750   45.2380 C   0  0  0  0  0  0  0  0  0  0  0  0
   59.2840   34.8700   45.4110 C   0  0  0  0  0  0  0  0  0  0  0  0
   59.4486   35.0502   46.4836 H   0  0  0  0  0  0  0  0  0  0  0  0
   60.2333   34.5776   44.9384 H   0  0  0  0  0  0  0  0  0  0  0  0
   58.9069   35.7890   44.9384 H   0  0  0  0  0  0  0  0  0  0  0  0
   58.3630   32.7330   44.3370 C   0  0  0  0  0  0  0  0  0  0  0  0
   59.1270   32.5577   43.5653 H   0  0  0  0  0  0  0  0  0  0  0  0
   58.1920   28.2370   45.3390 C   0  0  0  0  0  0  0  0  0  0  0  0
   59.5260   29.3210   44.9610 Cl  0  0  0  0  0  0  0  0  0  0  0  0
   58.5620   26.9530   45.7610 C   0  0  0  0  0  0  0  0  0  0  0  0
   59.6275   26.6822   45.7991 H   0  0  0  0  0  0  0  0  0  0  0  0
   57.5980   26.0090   46.1350 C   0  0  0  0  0  0  0  0  0  0  0  0
   58.0020   24.6140   46.5420 C   0  0  0  0  0  0  0  0  0  0  0  0
   57.7090   24.3870   47.8750 F   0  0  0  0  0  0  0  0  0  0  0  0
   57.3160   23.6980   45.7670 F   0  0  0  0  0  0  0  0  0  0  0  0
   59.3620   24.4300   46.3610 F   0  0  0  0  0  0  0  0  0  0  0  0
  1  2  1  0
  2  3  1  0
  3  4  1  0
  4  5  2  0
  5  6  1  0
  6  7  1  0
  6  8  1  0
  6  9  1  0
  9 10  1  0
 10 11  1  0
 11 12  1  0
 11 13  2  0
 13 14  1  0
 14 15  1  0
 14 16  1  0
 14 17  1  0
 13 18  1  0
 18 19  1  0
  4 20  1  0
 20 21  1  0
 20 22  2  0
 22 23  1  0
 22 24  1  0
 24 25  1  0
 25 26  1  0
 25 27  1  0
 25 28  1  0
 24  2  2  0
 18  9  2  0
M  CHG  2   3  -1  11   1
M  END
>  <UniqueID>  (82) 
75

>  <SMILES>  (82) 
Cc1cc(C/N=c2/[n-]cc(C(F)(F)F)cc2Cl)o[nH+]1

>  <Energy>  (82) 
67.97426270226786

>  <Genealogy>  (82) 
Cc1cc(CN=c2[n-]cc(C(F)(F)F)cc2Cl)o[nH+]1 (protonated)
Cc1cc(C/N=c2/[n-]cc(C(F)(F)F)cc2Cl)o[nH+]1 (cis-trans isomerization)
Cc1cc(C/N=c2/[n-]cc(C(F)(F)F)cc2Cl)o[nH+]1 (3D coordinates assigned)
Cc1cc(C/N=c2/[n-]cc(C(F)(F)F)cc2Cl)o[nH+]1 (optimized conformer: 67.97426270226786 kcal/mol)

>  <smiles>  (82) 
Cc1cc(CN=c2[nH]cc(C(F)(F)F)cc2Cl)on1

>  <score_type>  (82) 
oracle

>  <origin>  (82) 
adg

>  <m_score__min__energy>  (82) 
-6.6699999999999999

>  <m_primary>  (82) 
energy

$$$$
82:0
     RDKit          3D

 27 28  0  0  0  0  0  0  0  0999 V2000
   56.8350   34.5750   44.9080 O   0  0  0  0  0  0  0  0  0  0  0  0
   57.8940   33.8880   44.9080 C   0  0  0  0  0  0  0  0  0  0  0  0
   59.2110   34.6130   45.0230 C   0  0  0  0  0  0  0  0  0  0  0  0
   59.8440   34.3440   46.3230 N   0  0  0  0  0  0  0  0  0  0  0  0
   59.1590   34.5810   47.4840 C   0  0  0  0  0  0  0  0  0  0  0  0
   59.7520   34.3280   48.7230 C   0  0  0  0  0  0  0  0  0  0  0  0
   61.0560   33.8380   48.7710 C   0  0  0  0  0  0  0  0  0  0  0  0
   61.7530   33.6130   47.5850 C   0  0  0  0  0  0  0  0  0  0  0  0
   63.5440   32.9500   47.6310 Br  0  0  0  0  0  0  0  0  0  0  0  0
   61.1300   33.8770   46.3630 C   0  0  0  0  0  0  0  0  0  0  0  0
   57.8030   32.4120   44.7490 C   0  0  0  0  0  0  0  0  0  0  0  0
   57.3960   31.8230   43.5360 C   0  0  0  0  0  0  0  0  0  0  0  0
   57.3120   30.4320   43.4150 C   0  0  0  0  0  0  0  0  0  0  0  0
   57.6350   29.6120   44.4960 C   0  0  0  0  0  0  0  0  0  0  0  0
   58.0480   30.1800   45.7020 C   0  0  0  0  0  0  0  0  0  0  0  0
   58.1350   31.5710   45.8300 C   0  0  0  0  0  0  0  0  0  0  0  0
   59.8806   34.2739   44.2189 H   0  0  0  0  0  0  0  0  0  0  0  0
   59.0267   35.6941   44.9378 H   0  0  0  0  0  0  0  0  0  0  0  0
   58.1326   34.9741   47.4409 H   0  0  0  0  0  0  0  0  0  0  0  0
   59.1947   34.5139   49.6530 H   0  0  0  0  0  0  0  0  0  0  0  0
   61.5328   33.6299   49.7402 H   0  0  0  0  0  0  0  0  0  0  0  0
   61.6779   33.7080   45.4242 H   0  0  0  0  0  0  0  0  0  0  0  0
   57.1422   32.4618   42.6772 H   0  0  0  0  0  0  0  0  0  0  0  0
   56.9900   29.9832   42.4638 H   0  0  0  0  0  0  0  0  0  0  0  0
   57.5643   28.5187   44.3981 H   0  0  0  0  0  0  0  0  0  0  0  0
   58.3057   29.5332   46.5536 H   0  0  0  0  0  0  0  0  0  0  0  0
   58.4653   32.0115   46.7823 H   0  0  0  0  0  0  0  0  0  0  0  0
  1  2  2  0
  2  3  1  0
  3  4  1  0
  4  5  2  0
  5  6  1  0
  6  7  2  0
  7  8  1  0
  8  9  1  0
  8 10  2  0
  2 11  1  0
 11 12  2  0
 12 13  1  0
 13 14  2  0
 14 15  1  0
 15 16  2  0
 10  4  1  0
 16 11  1  0
  3 17  1  0
  3 18  1  0
  5 19  1  0
  6 20  1  0
  7 21  1  0
 10 22  1  0
 12 23  1  0
 13 24  1  0
 14 25  1  0
 15 26  1  0
 16 27  1  0
M  CHG  1   4   1
M  END
>  <UniqueID>  (83) 
76

>  <SMILES>  (83) 
O=C(C[n+]1cccc(Br)c1)c1ccccc1

>  <Energy>  (83) 
29.621652342343634

>  <Genealogy>  (83) 
O=C(C[n+]1cccc(Br)c1)c1ccccc1 (3D coordinates assigned)
O=C(C[n+]1cccc(Br)c1)c1ccccc1 (optimized conformer: 29.621652342343634 kcal/mol)

>  <smiles>  (83) 
O=C(C[n+]1cccc(Br)c1)c1ccccc1

>  <score_type>  (83) 
oracle

>  <origin>  (83) 
adg

>  <m_score__min__energy>  (83) 
-5.1399999999999997

>  <m_primary>  (83) 
energy

$$$$
83:0
     RDKit          3D

 27 29  0  0  0  0  0  0  0  0999 V2000
   63.3180   32.1790   47.5910 C   0  0  0  0  0  0  0  0  0  0  0  0
   63.3660   33.3660   46.8880 C   0  0  0  0  0  0  0  0  0  0  0  0
   62.1780   33.8830   46.4120 C   0  0  0  0  0  0  0  0  0  0  0  0
   60.9600   33.2290   46.6310 C   0  0  0  0  0  0  0  0  0  0  0  0
   59.7590   33.8920   46.0660 C   0  0  0  0  0  0  0  0  0  0  0  0
   58.3080   32.8340   46.0630 S   0  0  0  0  0  0  0  0  0  0  0  0
   57.9330   32.3420   44.3860 C   0  0  0  0  0  0  0  0  0  0  0  0
   58.4010   33.0620   43.3600 N   0  0  0  0  0  0  0  0  0  0  0  0
   58.1350   32.7150   42.0740 C   0  0  0  0  0  0  0  0  0  0  0  0
   57.3800   31.6200   41.7840 N   0  0  0  0  0  0  0  0  0  0  0  0
   56.9070   30.8940   42.7880 C   0  0  0  0  0  0  0  0  0  0  0  0
   56.1460   29.7810   42.7850 N   0  0  0  0  0  0  0  0  0  0  0  0
   55.9430   29.4400   44.0740 C   0  0  0  0  0  0  0  0  0  0  0  0
   56.5640   30.3220   44.8790 N   0  0  0  0  0  0  0  0  0  0  0  0
   57.1660   31.2300   44.0900 C   0  0  0  0  0  0  0  0  0  0  0  0
   60.9260   32.0490   47.3330 C   0  0  0  0  0  0  0  0  0  0  0  0
   62.1180   31.5170   47.8190 C   0  0  0  0  0  0  0  0  0  0  0  0
   64.2519   31.7470   47.9799 H   0  0  0  0  0  0  0  0  0  0  0  0
   64.3207   33.8835   46.7127 H   0  0  0  0  0  0  0  0  0  0  0  0
   62.1887   34.8281   45.8492 H   0  0  0  0  0  0  0  0  0  0  0  0
   59.5384   34.7874   46.6657 H   0  0  0  0  0  0  0  0  0  0  0  0
   59.9844   34.1435   45.0191 H   0  0  0  0  0  0  0  0  0  0  0  0
   58.5360   33.3286   41.2538 H   0  0  0  0  0  0  0  0  0  0  0  0
   55.7820   29.2770   41.9230 H   0  0  0  0  0  0  0  0  0  0  0  0
   55.3587   28.5728   44.4155 H   0  0  0  0  0  0  0  0  0  0  0  0
   59.9713   31.5316   47.5089 H   0  0  0  0  0  0  0  0  0  0  0  0
   62.1093   30.5728   48.3833 H   0  0  0  0  0  0  0  0  0  0  0  0
  1  2  2  0
  2  3  1  0
  3  4  2  0
  4  5  1  0
  5  6  1  0
  6  7  1  0
  7  8  2  0
  8  9  1  0
  9 10  2  0
 10 11  1  0
 11 12  1  0
 12 13  1  0
 13 14  2  0
 14 15  1  0
  4 16  1  0
 16 17  2  0
 17  1  1  0
 15  7  1  0
 15 11  2  0
  1 18  1  0
  2 19  1  0
  3 20  1  0
  5 21  1  0
  5 22  1  0
  9 23  1  0
 12 24  1  0
 13 25  1  0
 16 26  1  0
 17 27  1  0
M  END
>  <smiles>  (84) 
c1ccc(CSc2ncnc3[nH]cnc23)cc1

>  <score_type>  (84) 
oracle

>  <origin>  (84) 
adg

>  <m_score__min__energy>  (84) 
-6.9400000000000004

>  <m_primary>  (84) 
energy

$$$$
84:0
     RDKit          3D

 31 32  0  0  0  0  0  0  0  0999 V2000
   59.7360   32.2440   47.0100 C   0  0  0  0  0  0  0  0  0  0  0  0
   58.5600   31.3210   46.9300 C   0  0  0  0  0  0  0  0  0  0  0  0
   58.5740   30.2520   47.5940 O   0  0  0  0  0  0  0  0  0  0  0  0
   57.4370   31.5970   46.0830 N   0  0  0  0  0  0  0  0  0  0  0  0
   57.4350   31.5720   44.6490 C   0  0  0  0  0  0  0  0  0  0  0  0
   58.0520   32.5980   43.9100 C   0  0  0  0  0  0  0  0  0  0  0  0
   57.9920   32.5970   42.5140 C   0  0  0  0  0  0  0  0  0  0  0  0
   57.3010   31.5870   41.8440 C   0  0  0  0  0  0  0  0  0  0  0  0
   56.6660   30.5770   42.5680 C   0  0  0  0  0  0  0  0  0  0  0  0
   56.7330   30.5590   43.9680 C   0  0  0  0  0  0  0  0  0  0  0  0
   55.9160   29.2280   44.8640 S   0  0  0  0  0  0  0  0  0  0  0  0
   57.4490   28.3180   45.1450 C   0  0  0  0  0  0  0  0  0  0  0  0
   58.6360   28.8780   44.6500 C   0  0  0  0  0  0  0  0  0  0  0  0
   59.8670   28.2730   44.9030 C   0  0  0  0  0  0  0  0  0  0  0  0
   59.9250   27.0980   45.6480 C   0  0  0  0  0  0  0  0  0  0  0  0
   58.7510   26.5110   46.1250 C   0  0  0  0  0  0  0  0  0  0  0  0
   57.4970   27.0960   45.8660 C   0  0  0  0  0  0  0  0  0  0  0  0
   56.2820   26.3840   46.3290 C   0  0  0  0  0  0  0  0  0  0  0  0
   55.1370   26.7250   45.9340 O   0  0  0  0  0  0  0  0  0  0  0  0
   56.3980   25.2880   47.1770 O   0  0  0  0  0  0  0  0  0  0  0  0
   59.9804   32.4358   48.0652 H   0  0  0  0  0  0  0  0  0  0  0  0
   60.6003   31.7806   46.5118 H   0  0  0  0  0  0  0  0  0  0  0  0
   59.4913   33.1937   46.5118 H   0  0  0  0  0  0  0  0  0  0  0  0
   58.5845   33.4053   44.4341 H   0  0  0  0  0  0  0  0  0  0  0  0
   58.4904   33.3938   41.9424 H   0  0  0  0  0  0  0  0  0  0  0  0
   57.2567   31.5868   40.7449 H   0  0  0  0  0  0  0  0  0  0  0  0
   56.1097   29.7905   42.0370 H   0  0  0  0  0  0  0  0  0  0  0  0
   58.5956   29.8033   44.0565 H   0  0  0  0  0  0  0  0  0  0  0  0
   60.7919   28.7240   44.5141 H   0  0  0  0  0  0  0  0  0  0  0  0
   60.8978   26.6310   45.8613 H   0  0  0  0  0  0  0  0  0  0  0  0
   58.8068   25.5810   46.7097 H   0  0  0  0  0  0  0  0  0  0  0  0
  1  2  1  0
  2  3  2  0
  2  4  1  0
  4  5  1  0
  5  6  2  0
  6  7  1  0
  7  8  2  0
  8  9  1  0
  9 10  2  0
 10 11  1  0
 11 12  1  0
 12 13  2  0
 13 14  1  0
 14 15  2  0
 15 16  1  0
 16 17  2  0
 17 18  1  0
 18 19  2  0
 18 20  1  0
 10  5  1  0
 17 12  1  0
  1 21  1  0
  1 22  1  0
  1 23  1  0
  6 24  1  0
  7 25  1  0
  8 26  1  0
  9 27  1  0
 13 28  1  0
 14 29  1  0
 15 30  1  0
 16 31  1  0
M  CHG  2   4  -1  20  -1
M  END
>  <UniqueID>  (85) 
77

>  <SMILES>  (85) 
CC(=O)[N-]c1ccccc1Sc1ccccc1C(=O)[O-]

>  <Energy>  (85) 
34.848676039602125

>  <Genealogy>  (85) 
CC(=O)[N-]c1ccccc1Sc1ccccc1C(=O)[O-] (protonated)
CC(=O)[N-]c1ccccc1Sc1ccccc1C(=O)[O-] (3D coordinates assigned)
CC(=O)[N-]c1ccccc1Sc1ccccc1C(=O)[O-] (optimized conformer: 34.848676039602125 kcal/mol)

>  <smiles>  (85) 
CC(=O)Nc1ccccc1Sc1ccccc1C(=O)O

>  <score_type>  (85) 
oracle

>  <origin>  (85) 
adg

>  <m_score__min__energy>  (85) 
-11.380000000000001

>  <m_primary>  (85) 
energy

$$$$
85:0
     RDKit          3D

 55 58  0  0  0  0  0  0  0  0999 V2000
   58.6477   29.6096   49.4943 H   0  0  0  0  0  0  0  0  0  0  0  0
   59.0370   29.5130   48.4700 C   0  0  0  0  0  0  0  0  0  0  0  0
   58.3000   28.8780   47.5230 N   0  0  0  0  0  0  0  0  0  0  0  0
   58.7260   28.7400   46.2380 C   0  0  0  0  0  0  0  0  0  0  0  0
   57.9570   28.1130   45.3930 N   0  0  0  0  0  0  0  0  0  0  0  0
   57.5450   28.5650   44.0930 C   0  0  0  0  0  0  0  0  0  0  0  0
   57.7920   27.8360   43.0950 O   0  0  0  0  0  0  0  0  0  0  0  0
   56.8050   29.7930   43.9240 N   0  0  0  0  0  0  0  0  0  0  0  0
   57.4460   31.0700   44.1160 C   0  0  0  0  0  0  0  0  0  0  0  0
   57.7800   31.8650   43.0090 C   0  0  0  0  0  0  0  0  0  0  0  0
   57.5286   31.5233   41.9941 H   0  0  0  0  0  0  0  0  0  0  0  0
   58.4290   33.0860   43.1890 C   0  0  0  0  0  0  0  0  0  0  0  0
   58.6874   33.7037   42.3163 H   0  0  0  0  0  0  0  0  0  0  0  0
   58.7520   33.5270   44.4750 C   0  0  0  0  0  0  0  0  0  0  0  0
   59.2670   34.4897   44.6090 H   0  0  0  0  0  0  0  0  0  0  0  0
   58.4230   32.7480   45.6000 C   0  0  0  0  0  0  0  0  0  0  0  0
   58.7550   33.1990   46.9260 N   0  0  0  0  0  0  0  0  0  0  0  0
   58.5250   32.4780   47.9180 O   0  0  0  0  0  0  0  0  0  0  0  0
   59.3210   34.4360   47.1230 O   0  0  0  0  0  0  0  0  0  0  0  0
   57.7670   31.5200   45.4090 C   0  0  0  0  0  0  0  0  0  0  0  0
   57.5016   30.9039   46.2807 H   0  0  0  0  0  0  0  0  0  0  0  0
   55.3490   29.7310   43.7630 C   0  0  0  0  0  0  0  0  0  0  0  0
   54.8711   29.7107   44.7536 H   0  0  0  0  0  0  0  0  0  0  0  0
   55.0036   30.6153   43.2073 H   0  0  0  0  0  0  0  0  0  0  0  0
   55.0800   28.8206   43.2073 H   0  0  0  0  0  0  0  0  0  0  0  0
   59.9880   29.2560   45.8790 C   0  0  0  0  0  0  0  0  0  0  0  0
   60.3642   29.1348   44.8525 H   0  0  0  0  0  0  0  0  0  0  0  0
   60.7560   29.9210   46.8340 C   0  0  0  0  0  0  0  0  0  0  0  0
   61.7297   30.3484   46.5525 H   0  0  0  0  0  0  0  0  0  0  0  0
   60.2950   30.0470   48.1460 C   0  0  0  0  0  0  0  0  0  0  0  0
   61.0790   30.7350   49.0810 O   0  0  0  0  0  0  0  0  0  0  0  0
   61.9350   31.8080   48.7830 C   0  0  0  0  0  0  0  0  0  0  0  0
   63.1870   31.8980   49.4130 C   0  0  0  0  0  0  0  0  0  0  0  0
   63.6380   30.9280   50.3220 C   0  0  0  0  0  0  0  0  0  0  0  0
   62.9981   30.0669   50.5651 H   0  0  0  0  0  0  0  0  0  0  0  0
   64.9060   31.0510   50.9250 C   0  0  0  0  0  0  0  0  0  0  0  0
   65.3920   30.1010   51.8360 O   0  0  0  0  0  0  0  0  0  0  0  0
   66.5390   29.2860   51.6180 C   0  0  0  0  0  0  0  0  0  0  0  0
   66.9638   28.9842   52.5867 H   0  0  0  0  0  0  0  0  0  0  0  0
   66.2494   28.3900   51.0494 H   0  0  0  0  0  0  0  0  0  0  0  0
   67.2899   29.8542   51.0494 H   0  0  0  0  0  0  0  0  0  0  0  0
   65.7230   32.1510   50.6130 C   0  0  0  0  0  0  0  0  0  0  0  0
   66.9800   32.2420   51.2320 O   0  0  0  0  0  0  0  0  0  0  0  0
   67.9590   33.2320   50.9280 C   0  0  0  0  0  0  0  0  0  0  0  0
   68.3664   33.6440   51.8630 H   0  0  0  0  0  0  0  0  0  0  0  0
   68.7717   32.7765   50.3432 H   0  0  0  0  0  0  0  0  0  0  0  0
   67.4945   34.0396   50.3432 H   0  0  0  0  0  0  0  0  0  0  0  0
   65.2680   33.1210   49.7000 C   0  0  0  0  0  0  0  0  0  0  0  0
   65.9067   33.9821   49.4541 H   0  0  0  0  0  0  0  0  0  0  0  0
   64.0100   32.9970   49.1040 C   0  0  0  0  0  0  0  0  0  0  0  0
   63.5810   33.9360   48.2230 N   0  0  0  0  0  0  0  0  0  0  0  0
   62.3630   33.8390   47.6330 C   0  0  0  0  0  0  0  0  0  0  0  0
   62.0346   34.6126   46.9232 H   0  0  0  0  0  0  0  0  0  0  0  0
   61.5470   32.7890   47.9160 N   0  0  0  0  0  0  0  0  0  0  0  0
   60.6010   32.7620   47.4770 H   0  0  0  0  0  0  0  0  0  0  0  0
  1  2  1  0
  2  3  1  0
  3  4  1  0
  4  5  2  0
  5  6  1  0
  6  7  2  0
  6  8  1  0
  8  9  1  0
  9 10  2  0
 10 11  1  0
 10 12  1  0
 12 13  1  0
 12 14  2  0
 14 15  1  0
 14 16  1  0
 16 17  1  0
 17 18  2  0
 17 19  1  0
 16 20  2  0
 20 21  1  0
  8 22  1  0
 22 23  1  0
 22 24  1  0
 22 25  1  0
  4 26  1  0
 26 27  1  0
 26 28  2  0
 28 29  1  0
 28 30  1  0
 30 31  1  0
 31 32  1  0
 32 33  1  0
 33 34  2  0
 34 35  1  0
 34 36  1  0
 36 37  1  0
 37 38  1  0
 38 39  1  0
 38 40  1  0
 38 41  1  0
 36 42  2  0
 42 43  1  0
 43 44  1  0
 44 45  1  0
 44 46  1  0
 44 47  1  0
 42 48  1  0
 48 49  1  0
 48 50  2  0
 50 51  1  0
 51 52  2  0
 52 53  1  0
 52 54  1  0
 54 55  1  0
 30  2  2  0
 54 32  2  0
 20  9  1  0
 50 33  1  0
M  CHG  4   3  -1  17   1  19  -1  54   1
M  END
>  <UniqueID>  (86) 
78

>  <SMILES>  (86) 
COc1cc2nc[nH+]c(Oc3cc/c(=N\C(=O)N(C)c4cccc([N+](=O)[O-])c4)[n-]c3)c2cc1OC

>  <Energy>  (86) 
82.62842456181001

>  <Genealogy>  (86) 
COc1cc2nc[nH+]c(Oc3ccc(=NC(=O)N(C)c4cccc([N+](=O)[O-])c4)[n-]c3)c2cc1OC (protonated)
COc1cc2nc[nH+]c(Oc3cc/c(=N\C(=O)N(C)c4cccc([N+](=O)[O-])c4)[n-]c3)c2cc1OC (cis-trans isomerization)
COc1cc2nc[nH+]c(Oc3cc/c(=N\C(=O)N(C)c4cccc([N+](=O)[O-])c4)[n-]c3)c2cc1OC (3D coordinates assigned)
COc1cc2nc[nH+]c(Oc3cc/c(=N\C(=O)N(C)c4cccc([N+](=O)[O-])c4)[n-]c3)c2cc1OC (optimized conformer: 82.62842456181001 kcal/mol)

>  <smiles>  (86) 
COc1cc2ncnc(Oc3ccc(=NC(=O)N(C)c4cccc([N+](=O)[O-])c4)[nH]c3)c2cc1OC

>  <score_type>  (86) 
oracle

>  <origin>  (86) 
adg

>  <m_score__min__energy>  (86) 
-7.9800000000000004

>  <m_primary>  (86) 
energy

$$$$
86:0
     RDKit          3D

 55 57  0  0  0  0  0  0  0  0999 V2000
   61.9620   34.1820   50.1600 C   0  0  0  0  0  0  0  0  0  0  0  0
   61.6450   33.2950   48.9430 C   0  0  2  0  0  0  0  0  0  0  0  0
   62.9240   32.5550   48.4760 C   0  0  0  0  0  0  0  0  0  0  0  0
   63.7700   33.4170   47.5320 C   0  0  0  0  0  0  0  0  0  0  0  0
   62.9930   33.8420   46.2700 C   0  0  0  0  0  0  0  0  0  0  0  0
   61.4690   33.6900   46.4040 C   0  0  0  0  0  0  0  0  0  0  0  0
   60.9650   34.1250   47.7970 C   0  0  1  0  0  0  0  0  0  0  0  0
   59.4170   34.0300   47.8220 C   0  0  0  0  0  0  0  0  0  0  0  0
   58.9390   32.6610   47.5700 N   0  0  0  0  0  0  0  0  0  0  0  0
   58.9010   31.6250   48.4580 C   0  0  0  0  0  0  0  0  0  0  0  0
   59.2020   31.7330   49.9400 C   0  0  0  0  0  0  0  0  0  0  0  0
   59.1720   30.4320   50.6530 N   0  0  0  0  0  0  0  0  0  0  0  0
   58.2260   30.4270   51.7840 C   0  0  0  0  0  0  0  0  0  0  0  0
   60.5120   30.0080   51.0940 C   0  0  0  0  0  0  0  0  0  0  0  0
   58.5200   30.4500   47.8960 N   0  0  0  0  0  0  0  0  0  0  0  0
   58.2900   30.7840   46.6140 C   0  0  0  0  0  0  0  0  0  0  0  0
   58.5270   32.1040   46.4080 C   0  0  0  0  0  0  0  0  0  0  0  0
   58.3360   32.6510   45.1370 C   0  0  0  0  0  0  0  0  0  0  0  0
   58.5200   33.8790   44.9260 O   0  0  0  0  0  0  0  0  0  0  0  0
   57.9300   31.8170   44.1190 N   0  0  0  0  0  0  0  0  0  0  0  0
   57.7720   32.3520   42.7560 C   0  0  0  0  0  0  0  0  0  0  0  0
   57.7460   30.4660   44.3540 C   0  0  0  0  0  0  0  0  0  0  0  0
   57.4440   29.6970   43.3970 O   0  0  0  0  0  0  0  0  0  0  0  0
   57.8910   29.9460   45.6210 N   0  0  0  0  0  0  0  0  0  0  0  0
   57.7080   28.5120   45.8830 C   0  0  0  0  0  0  0  0  0  0  0  0
   61.7615   33.6210   51.0847 H   0  0  0  0  0  0  0  0  0  0  0  0
   63.0213   34.4772   50.1326 H   0  0  0  0  0  0  0  0  0  0  0  0
   61.3298   35.0817   50.1326 H   0  0  0  0  0  0  0  0  0  0  0  0
   60.9137   32.5277   49.2371 H   0  0  0  0  0  0  0  0  0  0  0  0
   63.5276   32.2964   49.3585 H   0  0  0  0  0  0  0  0  0  0  0  0
   62.6151   31.6522   47.9288 H   0  0  0  0  0  0  0  0  0  0  0  0
   64.0904   34.3209   48.0708 H   0  0  0  0  0  0  0  0  0  0  0  0
   64.6314   32.8142   47.2086 H   0  0  0  0  0  0  0  0  0  0  0  0
   63.2200   34.8979   46.0612 H   0  0  0  0  0  0  0  0  0  0  0  0
   63.3128   33.1758   45.4552 H   0  0  0  0  0  0  0  0  0  0  0  0
   60.9814   34.3126   45.6394 H   0  0  0  0  0  0  0  0  0  0  0  0
   61.2203   32.6270   46.2692 H   0  0  0  0  0  0  0  0  0  0  0  0
   61.2510   35.1705   47.9843 H   0  0  0  0  0  0  0  0  0  0  0  0
   59.0583   34.3540   48.8101 H   0  0  0  0  0  0  0  0  0  0  0  0
   59.0264   34.6762   47.0221 H   0  0  0  0  0  0  0  0  0  0  0  0
   60.2039   32.1711   50.0595 H   0  0  0  0  0  0  0  0  0  0  0  0
   58.4134   32.3594   50.3825 H   0  0  0  0  0  0  0  0  0  0  0  0
   58.8320   29.7160   49.9680 H   0  0  0  0  0  0  0  0  0  0  0  0
   58.7862   30.4300   52.7306 H   0  0  0  0  0  0  0  0  0  0  0  0
   57.5883   31.3218   51.7326 H   0  0  0  0  0  0  0  0  0  0  0  0
   57.5978   29.5255   51.7326 H   0  0  0  0  0  0  0  0  0  0  0  0
   60.5495   29.9961   52.1933 H   0  0  0  0  0  0  0  0  0  0  0  0
   60.7226   28.9993   50.7090 H   0  0  0  0  0  0  0  0  0  0  0  0
   61.2645   30.7119   50.7090 H   0  0  0  0  0  0  0  0  0  0  0  0
   57.4608   33.4057   42.8095 H   0  0  0  0  0  0  0  0  0  0  0  0
   58.7300   32.2793   42.2202 H   0  0  0  0  0  0  0  0  0  0  0  0
   57.0072   31.7706   42.2202 H   0  0  0  0  0  0  0  0  0  0  0  0
   57.6857   28.3376   46.9689 H   0  0  0  0  0  0  0  0  0  0  0  0
   56.7597   28.1761   45.4382 H   0  0  0  0  0  0  0  0  0  0  0  0
   58.5415   27.9487   45.4382 H   0  0  0  0  0  0  0  0  0  0  0  0
  1  2  1  0
  2  3  1  0
  3  4  1  0
  4  5  1  0
  5  6  1  0
  6  7  1  0
  7  8  1  0
  8  9  1  0
  9 10  1  0
 10 11  1  0
 11 12  1  0
 12 13  1  0
 12 14  1  0
 10 15  2  0
 15 16  1  0
 16 17  2  0
 17 18  1  0
 18 19  2  0
 18 20  1  0
 20 21  1  0
 20 22  1  0
 22 23  2  0
 22 24  1  0
 24 25  1  0
  7  2  1  0
 17  9  1  0
 24 16  1  0
  1 26  1  0
  1 27  1  0
  1 28  1  0
  2 29  1  1
  3 30  1  0
  3 31  1  0
  4 32  1  0
  4 33  1  0
  5 34  1  0
  5 35  1  0
  6 36  1  0
  6 37  1  0
  7 38  1  1
  8 39  1  0
  8 40  1  0
 11 41  1  0
 11 42  1  0
 12 43  1  0
 13 44  1  0
 13 45  1  0
 13 46  1  0
 14 47  1  0
 14 48  1  0
 14 49  1  0
 21 50  1  0
 21 51  1  0
 21 52  1  0
 25 53  1  0
 25 54  1  0
 25 55  1  0
M  CHG  1  12   1
M  END
>  <UniqueID>  (87) 
79

>  <SMILES>  (87) 
C[C@@H]1CCCC[C@H]1Cn1c(C[NH+](C)C)nc2c1c(=O)n(C)c(=O)n2C

>  <Energy>  (87) 
103.21465435338176

>  <Genealogy>  (87) 
CC1CCCCC1Cn1c(C[NH+](C)C)nc2c1c(=O)n(C)c(=O)n2C (protonated)
C[C@@H]1CCCC[C@H]1Cn1c(C[NH+](C)C)nc2c1c(=O)n(C)c(=O)n2C (chirality)
C[C@@H]1CCCC[C@H]1Cn1c(C[NH+](C)C)nc2c1c(=O)n(C)c(=O)n2C (3D coordinates assigned)
C[C@@H]1CCCC[C@H]1Cn1c(C[NH+](C)C)nc2c1c(=O)n(C)c(=O)n2C (nonaromatic ring conformer: 103.21465435338176 kcal/mol)

>  <smiles>  (87) 
CC1CCCCC1Cn1c(CN(C)C)nc2c1c(=O)n(C)c(=O)n2C

>  <score_type>  (87) 
oracle

>  <origin>  (87) 
adg

>  <m_score__min__energy>  (87) 
-5.8700000000000001

>  <m_primary>  (87) 
energy

$$$$
87:0
     RDKit          3D

 51 55  0  0  0  0  0  0  0  0999 V2000
   60.9742   30.8769   46.6089 H   0  0  0  0  0  0  0  0  0  0  0  0
   60.0370   31.4520   46.6380 C   0  0  0  0  0  0  0  0  0  0  0  0
   59.0380   31.1590   45.7650 N   0  0  0  0  0  0  0  0  0  0  0  0
   57.8580   31.8340   45.7580 C   0  0  0  0  0  0  0  0  0  0  0  0
   56.8540   31.4560   44.8080 N   0  0  0  0  0  0  0  0  0  0  0  0
   56.5040   29.8310   44.3160 S   0  0  0  0  0  0  0  0  0  0  0  0
   55.1500   29.4390   44.8350 O   0  0  0  0  0  0  0  0  0  0  0  0
   56.4850   29.7640   42.8150 O   0  0  0  0  0  0  0  0  0  0  0  0
   57.7050   28.7300   44.9850 C   0  0  0  0  0  0  0  0  0  0  0  0
   59.0000   28.7080   44.4500 C   0  0  0  0  0  0  0  0  0  0  0  0
   59.2581   29.3757   43.6148 H   0  0  0  0  0  0  0  0  0  0  0  0
   59.9660   27.8420   44.9720 C   0  0  0  0  0  0  0  0  0  0  0  0
   60.9808   27.8294   44.5476 H   0  0  0  0  0  0  0  0  0  0  0  0
   59.6410   26.9920   46.0340 C   0  0  0  0  0  0  0  0  0  0  0  0
   60.4007   26.3120   46.4469 H   0  0  0  0  0  0  0  0  0  0  0  0
   58.3490   27.0070   46.5710 C   0  0  0  0  0  0  0  0  0  0  0  0
   58.0350   26.1800   47.5970 F   0  0  0  0  0  0  0  0  0  0  0  0
   57.3820   27.8740   46.0500 C   0  0  0  0  0  0  0  0  0  0  0  0
   56.3676   27.8849   46.4753 H   0  0  0  0  0  0  0  0  0  0  0  0
   57.6600   32.8810   46.6730 C   0  0  0  0  0  0  0  0  0  0  0  0
   56.7125   33.4398   46.6806 H   0  0  0  0  0  0  0  0  0  0  0  0
   58.6770   33.2060   47.5730 C   0  0  0  0  0  0  0  0  0  0  0  0
   58.5338   34.0333   48.2836 H   0  0  0  0  0  0  0  0  0  0  0  0
   59.8810   32.4840   47.5770 C   0  0  0  0  0  0  0  0  0  0  0  0
   60.9440   32.8250   48.5540 C   0  0  0  0  0  0  0  0  0  0  0  0
   60.5900   33.2050   49.8100 N   0  0  0  0  0  0  0  0  0  0  0  0
   61.4950   33.4940   50.7860 C   0  0  0  0  0  0  0  0  0  0  0  0
   61.0770   33.8590   51.9640 N   0  0  0  0  0  0  0  0  0  0  0  0
   59.9550   33.2280   52.6540 C   0  0  0  0  0  0  0  0  0  0  0  0
   60.4476   32.2759   52.9006 H   0  0  0  0  0  0  0  0  0  0  0  0
   59.0800   34.2090   53.4130 C   0  0  0  0  0  0  0  0  0  0  0  0
   58.5931   33.9014   54.3502 H   0  0  0  0  0  0  0  0  0  0  0  0
   59.2163   35.2228   53.8174 H   0  0  0  0  0  0  0  0  0  0  0  0
   58.6090   33.6320   52.0840 C   0  0  0  0  0  0  0  0  0  0  0  0
   57.7814   32.9077   52.0610 H   0  0  0  0  0  0  0  0  0  0  0  0
   58.2635   34.0566   51.1299 H   0  0  0  0  0  0  0  0  0  0  0  0
   62.8810   33.3850   50.5030 C   0  0  0  0  0  0  0  0  0  0  0  0
   63.9040   33.6300   51.4510 C   0  0  0  0  0  0  0  0  0  0  0  0
   63.6110   33.9900   52.6270 O   0  0  0  0  0  0  0  0  0  0  0  0
   65.2200   33.4740   51.1010 N   0  0  0  0  0  0  0  0  0  0  0  0
   66.2830   33.7280   52.0820 C   0  0  0  0  0  0  0  0  0  0  0  0
   65.8746   33.6304   53.0987 H   0  0  0  0  0  0  0  0  0  0  0  0
   67.0940   32.9984   51.9410 H   0  0  0  0  0  0  0  0  0  0  0  0
   66.6766   34.7455   51.9410 H   0  0  0  0  0  0  0  0  0  0  0  0
   65.5560   33.1150   49.8280 C   0  0  0  0  0  0  0  0  0  0  0  0
   66.6162   33.0166   49.5516 H   0  0  0  0  0  0  0  0  0  0  0  0
   64.5940   32.8780   48.8990 N   0  0  0  0  0  0  0  0  0  0  0  0
   64.8920   32.5980   47.9370 H   0  0  0  0  0  0  0  0  0  0  0  0
   63.2730   32.9970   49.2040 C   0  0  0  0  0  0  0  0  0  0  0  0
   62.3040   32.7200   48.2320 C   0  0  0  0  0  0  0  0  0  0  0  0
   62.6093   32.4208   47.2185 H   0  0  0  0  0  0  0  0  0  0  0  0
  1  2  1  0
  2  3  2  0
  3  4  1  0
  4  5  1  0
  5  6  1  0
  6  7  2  0
  6  8  2  0
  6  9  1  0
  9 10  2  0
 10 11  1  0
 10 12  1  0
 12 13  1  0
 12 14  2  0
 14 15  1  0
 14 16  1  0
 16 17  1  0
 16 18  2  0
 18 19  1  0
  4 20  2  0
 20 21  1  0
 20 22  1  0
 22 23  1  0
 22 24  2  0
 24 25  1  0
 25 26  1  0
 26 27  1  0
 27 28  2  0
 28 29  1  0
 29 30  1  0
 29 31  1  0
 31 32  1  0
 31 33  1  0
 31 34  1  0
 34 35  1  0
 34 36  1  0
 27 37  1  0
 37 38  1  0
 38 39  2  0
 38 40  1  0
 40 41  1  0
 41 42  1  0
 41 43  1  0
 41 44  1  0
 40 45  1  0
 45 46  1  0
 45 47  2  0
 47 48  1  0
 47 49  1  0
 49 50  1  0
 50 51  1  0
 24  2  1  0
 50 25  2  0
 18  9  1  0
 34 29  1  0
 49 37  2  0
M  CHG  3   5  -1  26  -1  47   1
M  END
>  <UniqueID>  (88) 
80

>  <SMILES>  (88) 
Cn1c[nH+]c2cc(-c3ccc([N-]S(=O)(=O)c4cccc(F)c4)nc3)[n-]/c(=N\C3CC3)c2c1=O

>  <Energy>  (88) 
337.37924657189745

>  <Genealogy>  (88) 
Cn1c[nH+]c2cc(-c3ccc([N-]S(=O)(=O)c4cccc(F)c4)nc3)[n-]c(=NC3CC3)c2c1=O (protonated)
Cn1c[nH+]c2cc(-c3ccc([N-]S(=O)(=O)c4cccc(F)c4)nc3)[n-]/c(=N\C3CC3)c2c1=O (cis-trans isomerization)
Cn1c[nH+]c2cc(-c3ccc([N-]S(=O)(=O)c4cccc(F)c4)nc3)[n-]/c(=N\C3CC3)c2c1=O (3D coordinates assigned)
Cn1c[nH+]c2cc(-c3ccc([N-]S(=O)(=O)c4cccc(F)c4)nc3)[n-]/c(=N\C3CC3)c2c1=O (nonaromatic ring conformer: 337.37924657189745 kcal/mol)

>  <smiles>  (88) 
Cn1cnc2cc(-c3ccc(NS(=O)(=O)c4cccc(F)c4)nc3)[nH]c(=NC3CC3)c2c1=O

>  <score_type>  (88) 
oracle

>  <origin>  (88) 
adg

>  <m_score__min__energy>  (88) 
-10.529999999999999

>  <m_primary>  (88) 
energy

$$$$
88:0
     RDKit          3D

 56 59  0  0  0  0  0  0  0  0999 V2000
   55.5320   27.1450   45.6550 O   0  0  0  0  0  0  0  0  0  0  0  0
   56.2830   28.0990   45.3200 C   0  0  0  0  0  0  0  0  0  0  0  0
   57.7050   27.9250   45.2790 N   0  0  0  0  0  0  0  0  0  0  0  0
   58.6380   28.2370   46.3240 C   0  0  0  0  0  0  0  0  0  0  0  0
   58.7680   29.5690   46.7320 C   0  0  0  0  0  0  0  0  0  0  0  0
   59.6640   29.9170   47.7480 C   0  0  0  0  0  0  0  0  0  0  0  0
   60.4390   28.9250   48.3810 C   0  0  0  0  0  0  0  0  0  0  0  0
   61.3690   29.2170   49.3920 O   0  0  0  0  0  0  0  0  0  0  0  0
   61.1600   30.1220   50.4760 C   0  0  0  0  0  0  0  0  0  0  0  0
   61.6260   31.5420   50.0780 C   0  0  0  0  0  0  0  0  0  0  0  0
   62.8210   31.5870   49.2040 N   0  0  0  0  0  0  0  0  0  0  0  0
   63.7430   32.6940   49.4930 C   0  0  0  0  0  0  0  0  0  0  0  0
   63.8100   33.5680   48.2520 C   0  0  0  0  0  0  0  0  0  0  0  0
   63.4250   32.6440   47.1200 C   0  0  0  0  0  0  0  0  0  0  0  0
   62.5280   31.5980   47.7620 C   0  0  0  0  0  0  0  0  0  0  0  0
   60.2780   27.5900   47.9990 C   0  0  0  0  0  0  0  0  0  0  0  0
   59.3830   27.2420   46.9820 C   0  0  0  0  0  0  0  0  0  0  0  0
   55.6880   29.3230   44.8750 N   0  0  0  0  0  0  0  0  0  0  0  0
   56.3460   30.3780   44.1610 C   0  0  0  0  0  0  0  0  0  0  0  0
   56.7030   30.2490   42.8060 C   0  0  0  0  0  0  0  0  0  0  0  0
   57.3710   31.2900   42.1540 C   0  0  0  0  0  0  0  0  0  0  0  0
   57.7080   32.4530   42.8500 C   0  0  0  0  0  0  0  0  0  0  0  0
   57.3990   32.5740   44.2170 C   0  0  0  0  0  0  0  0  0  0  0  0
   57.7260   33.7230   44.9510 O   0  0  0  0  0  0  0  0  0  0  0  0
   58.4730   33.7440   46.1380 C   0  0  0  0  0  0  0  0  0  0  0  0
   58.0730   33.0290   47.2830 C   0  0  0  0  0  0  0  0  0  0  0  0
   58.8390   33.0880   48.4520 C   0  0  0  0  0  0  0  0  0  0  0  0
   60.0000   33.8650   48.4920 C   0  0  0  0  0  0  0  0  0  0  0  0
   60.3890   34.5950   47.3660 C   0  0  0  0  0  0  0  0  0  0  0  0
   59.6250   34.5390   46.1960 C   0  0  0  0  0  0  0  0  0  0  0  0
   56.7080   31.5380   44.8590 C   0  0  0  0  0  0  0  0  0  0  0  0
   58.1605   30.3490   46.2497 H   0  0  0  0  0  0  0  0  0  0  0  0
   59.7640   30.9688   48.0540 H   0  0  0  0  0  0  0  0  0  0  0  0
   60.0895   30.1473   50.7280 H   0  0  0  0  0  0  0  0  0  0  0  0
   61.7406   29.7825   51.3464 H   0  0  0  0  0  0  0  0  0  0  0  0
   60.7980   32.0372   49.5496 H   0  0  0  0  0  0  0  0  0  0  0  0
   61.9105   32.0456   51.0137 H   0  0  0  0  0  0  0  0  0  0  0  0
   63.3702   33.2804   50.3457 H   0  0  0  0  0  0  0  0  0  0  0  0
   64.7410   32.3099   49.7508 H   0  0  0  0  0  0  0  0  0  0  0  0
   63.1021   34.4065   48.3278 H   0  0  0  0  0  0  0  0  0  0  0  0
   64.8043   34.0158   48.1079 H   0  0  0  0  0  0  0  0  0  0  0  0
   62.8808   33.1943   46.3383 H   0  0  0  0  0  0  0  0  0  0  0  0
   64.3032   32.1957   46.6324 H   0  0  0  0  0  0  0  0  0  0  0  0
   61.4718   31.8562   47.5956 H   0  0  0  0  0  0  0  0  0  0  0  0
   62.7132   30.6070   47.3221 H   0  0  0  0  0  0  0  0  0  0  0  0
   60.8610   26.8053   48.5033 H   0  0  0  0  0  0  0  0  0  0  0  0
   59.2615   26.1868   46.6959 H   0  0  0  0  0  0  0  0  0  0  0  0
   56.4561   29.3274   42.2586 H   0  0  0  0  0  0  0  0  0  0  0  0
   57.6318   31.1927   41.0898 H   0  0  0  0  0  0  0  0  0  0  0  0
   58.2165   33.2768   42.3277 H   0  0  0  0  0  0  0  0  0  0  0  0
   57.1557   32.4224   47.2583 H   0  0  0  0  0  0  0  0  0  0  0  0
   58.5269   32.5216   49.3418 H   0  0  0  0  0  0  0  0  0  0  0  0
   60.6067   33.9018   49.4088 H   0  0  0  0  0  0  0  0  0  0  0  0
   61.2973   35.2145   47.3998 H   0  0  0  0  0  0  0  0  0  0  0  0
   59.9307   35.1231   45.3154 H   0  0  0  0  0  0  0  0  0  0  0  0
   56.4467   31.6363   45.9230 H   0  0  0  0  0  0  0  0  0  0  0  0
  1  2  2  0
  2  3  1  0
  3  4  1  0
  4  5  2  0
  5  6  1  0
  6  7  2  0
  7  8  1  0
  8  9  1  0
  9 10  1  0
 10 11  1  0
 11 12  1  0
 12 13  1  0
 13 14  1  0
 14 15  1  0
  7 16  1  0
 16 17  2  0
  2 18  1  0
 18 19  1  0
 19 20  2  0
 20 21  1  0
 21 22  2  0
 22 23  1  0
 23 24  1  0
 24 25  1  0
 25 26  2  0
 26 27  1  0
 27 28  2  0
 28 29  1  0
 29 30  2  0
 23 31  2  0
 17  4  1  0
 31 19  1  0
 15 11  1  0
 30 25  1  0
  5 32  1  0
  6 33  1  0
  9 34  1  0
  9 35  1  0
 10 36  1  0
 10 37  1  0
 12 38  1  0
 12 39  1  0
 13 40  1  0
 13 41  1  0
 14 42  1  0
 14 43  1  0
 15 44  1  0
 15 45  1  0
 16 46  1  0
 17 47  1  0
 20 48  1  0
 21 49  1  0
 22 50  1  0
 26 51  1  0
 27 52  1  0
 28 53  1  0
 29 54  1  0
 30 55  1  0
 31 56  1  0
M  CHG  2   3  -1  18  -1
M  END
>  <UniqueID>  (89) 
81

>  <SMILES>  (89) 
O=C([N-]c1ccc(OCCN2CCCC2)cc1)[N-]c1cccc(Oc2ccccc2)c1

>  <Energy>  (89) 
78.37348512870965

>  <Genealogy>  (89) 
O=C([N-]c1ccc(OCCN2CCCC2)cc1)[N-]c1cccc(Oc2ccccc2)c1 (protonated)
O=C([N-]c1ccc(OCCN2CCCC2)cc1)[N-]c1cccc(Oc2ccccc2)c1 (3D coordinates assigned)
O=C([N-]c1ccc(OCCN2CCCC2)cc1)[N-]c1cccc(Oc2ccccc2)c1 (nonaromatic ring conformer: 78.37348512870965 kcal/mol)

>  <smiles>  (89) 
O=C(Nc1ccc(OCCN2CCCC2)cc1)Nc1cccc(Oc2ccccc2)c1

>  <score_type>  (89) 
oracle

>  <origin>  (89) 
adg

>  <m_score__min__energy>  (89) 
-11.539999999999999

>  <m_primary>  (89) 
energy

$$$$
89:0
     RDKit          3D

 48 51  0  0  0  0  0  0  0  0999 V2000
   59.8710   23.4210   45.5550 C   0  0  0  0  0  0  0  0  0  0  0  0
   59.8800   24.7370   46.1000 O   0  0  0  0  0  0  0  0  0  0  0  0
   58.8910   25.7050   45.8640 C   0  0  0  0  0  0  0  0  0  0  0  0
   59.1990   26.9690   45.3240 C   0  0  0  0  0  0  0  0  0  0  0  0
   58.1830   27.9070   45.1020 C   0  0  0  0  0  0  0  0  0  0  0  0
   58.4580   29.1680   44.5630 C   0  0  0  0  0  0  0  0  0  0  0  0
   57.4120   30.0730   44.3370 C   0  0  0  0  0  0  0  0  0  0  0  0
   57.7050   31.4000   43.7480 C   0  0  0  0  0  0  0  0  0  0  0  0
   57.8520   31.5010   42.5010 O   0  0  0  0  0  0  0  0  0  0  0  0
   57.8600   32.5770   44.5550 N   0  0  0  0  0  0  0  0  0  0  0  0
   58.9100   32.8210   45.5020 C   0  0  0  0  0  0  0  0  0  0  0  0
   59.4650   31.7370   46.1900 C   0  0  0  0  0  0  0  0  0  0  0  0
   60.4950   31.9350   47.1140 C   0  0  0  0  0  0  0  0  0  0  0  0
   61.0010   33.2260   47.3520 C   0  0  0  0  0  0  0  0  0  0  0  0
   62.0950   33.4380   48.3350 C   0  0  0  0  0  0  0  0  0  0  0  0
   61.8710   34.1850   49.5070 C   0  0  0  0  0  0  0  0  0  0  0  0
   62.9030   34.3820   50.4300 C   0  0  0  0  0  0  0  0  0  0  0  0
   64.1670   33.8380   50.1940 C   0  0  0  0  0  0  0  0  0  0  0  0
   64.4020   33.0950   49.0350 C   0  0  0  0  0  0  0  0  0  0  0  0
   63.3750   32.8950   48.1090 C   0  0  0  0  0  0  0  0  0  0  0  0
   60.4600   34.3100   46.6390 C   0  0  0  0  0  0  0  0  0  0  0  0
   59.4290   34.1090   45.7160 C   0  0  0  0  0  0  0  0  0  0  0  0
   56.1060   29.6840   44.7040 C   0  0  0  0  0  0  0  0  0  0  0  0
   55.1380   30.4790   44.5710 O   0  0  0  0  0  0  0  0  0  0  0  0
   55.8810   28.4770   45.2140 O   0  0  0  0  0  0  0  0  0  0  0  0
   56.8490   27.5890   45.4190 C   0  0  0  0  0  0  0  0  0  0  0  0
   56.5420   26.3360   45.9540 C   0  0  0  0  0  0  0  0  0  0  0  0
   57.5600   25.3870   46.1790 C   0  0  0  0  0  0  0  0  0  0  0  0
   57.2870   24.1190   46.7150 O   0  0  0  0  0  0  0  0  0  0  0  0
   56.1110   23.7860   47.4460 C   0  0  0  0  0  0  0  0  0  0  0  0
   59.8660   22.6855   46.3729 H   0  0  0  0  0  0  0  0  0  0  0  0
   58.9719   23.2868   44.9356 H   0  0  0  0  0  0  0  0  0  0  0  0
   60.7682   23.2745   44.9356 H   0  0  0  0  0  0  0  0  0  0  0  0
   60.2408   27.2201   45.0759 H   0  0  0  0  0  0  0  0  0  0  0  0
   59.4927   29.4487   44.3171 H   0  0  0  0  0  0  0  0  0  0  0  0
   59.0880   30.7208   46.0025 H   0  0  0  0  0  0  0  0  0  0  0  0
   60.9128   31.0755   47.6588 H   0  0  0  0  0  0  0  0  0  0  0  0
   60.8775   34.6167   49.6981 H   0  0  0  0  0  0  0  0  0  0  0  0
   62.7186   34.9665   51.3434 H   0  0  0  0  0  0  0  0  0  0  0  0
   64.9777   33.9946   50.9208 H   0  0  0  0  0  0  0  0  0  0  0  0
   65.3981   32.6662   48.8507 H   0  0  0  0  0  0  0  0  0  0  0  0
   63.5672   32.3098   47.1977 H   0  0  0  0  0  0  0  0  0  0  0  0
   60.8507   35.3242   46.8085 H   0  0  0  0  0  0  0  0  0  0  0  0
   59.0224   34.9633   45.1548 H   0  0  0  0  0  0  0  0  0  0  0  0
   55.4993   26.0880   46.2014 H   0  0  0  0  0  0  0  0  0  0  0  0
   56.3204   23.8453   48.5243 H   0  0  0  0  0  0  0  0  0  0  0  0
   55.3074   24.4919   47.1892 H   0  0  0  0  0  0  0  0  0  0  0  0
   55.7968   22.7636   47.1892 H   0  0  0  0  0  0  0  0  0  0  0  0
  1  2  1  0
  2  3  1  0
  3  4  2  0
  4  5  1  0
  5  6  1  0
  6  7  2  0
  7  8  1  0
  8  9  2  0
  8 10  1  0
 10 11  1  0
 11 12  2  0
 12 13  1  0
 13 14  2  0
 14 15  1  0
 15 16  2  0
 16 17  1  0
 17 18  2  0
 18 19  1  0
 19 20  2  0
 14 21  1  0
 21 22  2  0
  7 23  1  0
 23 24  2  0
 23 25  1  0
 25 26  1  0
 26 27  1  0
 27 28  2  0
 28 29  1  0
 29 30  1  0
 28  3  1  0
 26  5  2  0
 22 11  1  0
 20 15  1  0
  1 31  1  0
  1 32  1  0
  1 33  1  0
  4 34  1  0
  6 35  1  0
 12 36  1  0
 13 37  1  0
 16 38  1  0
 17 39  1  0
 18 40  1  0
 19 41  1  0
 20 42  1  0
 21 43  1  0
 22 44  1  0
 27 45  1  0
 30 46  1  0
 30 47  1  0
 30 48  1  0
M  CHG  1  10  -1
M  END
>  <UniqueID>  (90) 
82

>  <SMILES>  (90) 
COc1cc2cc(C(=O)[N-]c3ccc(-c4ccccc4)cc3)c(=O)oc2cc1OC

>  <Energy>  (90) 
69.70232341638578

>  <Genealogy>  (90) 
COc1cc2cc(C(=O)[N-]c3ccc(-c4ccccc4)cc3)c(=O)oc2cc1OC (protonated)
COc1cc2cc(C(=O)[N-]c3ccc(-c4ccccc4)cc3)c(=O)oc2cc1OC (3D coordinates assigned)
COc1cc2cc(C(=O)[N-]c3ccc(-c4ccccc4)cc3)c(=O)oc2cc1OC (optimized conformer: 69.70232341638578 kcal/mol)

>  <smiles>  (90) 
COc1cc2cc(C(=O)Nc3ccc(-c4ccccc4)cc3)c(=O)oc2cc1OC

>  <score_type>  (90) 
oracle

>  <origin>  (90) 
adg

>  <m_score__min__energy>  (90) 
-9.0700000000000003

>  <m_primary>  (90) 
energy

$$$$
90:0
     RDKit          3D

 25 25  0  0  0  0  0  0  0  0999 V2000
   57.2130   32.3260   41.0530 C   0  0  0  0  0  0  0  0  0  0  0  0
   58.1480   32.3380   42.2560 C   0  0  0  0  0  0  0  0  0  0  0  0
   57.5750   31.5630   43.3550 N   0  0  0  0  0  0  0  0  0  0  0  0
   56.5910   30.6500   43.2770 C   0  0  0  0  0  0  0  0  0  0  0  0
   56.2630   30.1840   44.4980 N   0  0  0  0  0  0  0  0  0  0  0  0
   57.0350   30.8100   45.3760 N   0  0  0  0  0  0  0  0  0  0  0  0
   57.8210   31.6510   44.6770 C   0  0  0  0  0  0  0  0  0  0  0  0
   58.8560   32.5360   45.3090 C   0  0  0  0  0  0  0  0  0  0  0  0
   58.2130   33.6580   46.0230 N   0  0  0  0  0  0  0  0  0  0  0  0
   59.1910   34.7320   46.2560 C   0  0  0  0  0  0  0  0  0  0  0  0
   57.0740   34.1870   45.2520 C   0  0  0  0  0  0  0  0  0  0  0  0
   56.1692   32.3126   41.4000 H   0  0  0  0  0  0  0  0  0  0  0  0
   57.3858   33.2264   40.4453 H   0  0  0  0  0  0  0  0  0  0  0  0
   57.4089   31.4303   40.4453 H   0  0  0  0  0  0  0  0  0  0  0  0
   59.1145   31.8987   41.9681 H   0  0  0  0  0  0  0  0  0  0  0  0
   58.2888   33.3772   42.5879 H   0  0  0  0  0  0  0  0  0  0  0  0
   56.1160   30.3260   42.3393 H   0  0  0  0  0  0  0  0  0  0  0  0
   59.4496   31.9458   46.0226 H   0  0  0  0  0  0  0  0  0  0  0  0
   59.5053   32.9428   44.5197 H   0  0  0  0  0  0  0  0  0  0  0  0
   59.3242   34.8782   47.3381 H   0  0  0  0  0  0  0  0  0  0  0  0
   60.1541   34.4557   45.8021 H   0  0  0  0  0  0  0  0  0  0  0  0
   58.8260   35.6651   45.8021 H   0  0  0  0  0  0  0  0  0  0  0  0
   56.2985   34.5472   45.9440 H   0  0  0  0  0  0  0  0  0  0  0  0
   57.4150   35.0189   44.6182 H   0  0  0  0  0  0  0  0  0  0  0  0
   56.6583   33.3898   44.6182 H   0  0  0  0  0  0  0  0  0  0  0  0
  1  2  1  0
  2  3  1  0
  3  4  1  0
  4  5  2  0
  5  6  1  0
  6  7  2  0
  7  8  1  0
  8  9  1  0
  9 10  1  0
  9 11  1  0
  7  3  1  0
  1 12  1  0
  1 13  1  0
  1 14  1  0
  2 15  1  0
  2 16  1  0
  4 17  1  0
  8 18  1  0
  8 19  1  0
 10 20  1  0
 10 21  1  0
 10 22  1  0
 11 23  1  0
 11 24  1  0
 11 25  1  0
M  END
>  <UniqueID>  (91) 
83

>  <SMILES>  (91) 
CCn1cnnc1CN(C)C

>  <Energy>  (91) 
52.239257351232695

>  <Genealogy>  (91) 
CCn1cnnc1CN(C)C (3D coordinates assigned)
CCn1cnnc1CN(C)C (optimized conformer: 52.239257351232695 kcal/mol)

>  <smiles>  (91) 
CCn1cnnc1CN(C)C

>  <score_type>  (91) 
oracle

>  <origin>  (91) 
adg

>  <m_score__min__energy>  (91) 
-4.9299999999999997

>  <m_primary>  (91) 
energy

$$$$
91:0
     RDKit          3D

 26 27  0  0  0  0  0  0  0  0999 V2000
   60.6450   27.1380   48.7550 C   0  0  0  0  0  0  0  0  0  0  0  0
   59.7990   27.0550   47.5290 C   0  0  0  0  0  0  0  0  0  0  0  0
   58.4140   27.1480   47.4910 C   0  0  0  0  0  0  0  0  0  0  0  0
   57.8830   26.9490   46.2050 C   0  0  0  0  0  0  0  0  0  0  0  0
   56.4410   27.0040   45.9080 C   0  0  0  0  0  0  0  0  0  0  0  0
   55.7060   26.0200   46.1940 O   0  0  0  0  0  0  0  0  0  0  0  0
   55.8920   28.1520   45.2470 N   0  0  0  0  0  0  0  0  0  0  0  0
   56.5700   29.3860   44.9700 C   0  0  0  0  0  0  0  0  0  0  0  0
   57.4430   29.9040   45.9350 C   0  0  0  0  0  0  0  0  0  0  0  0
   58.1100   31.1130   45.7150 C   0  0  0  0  0  0  0  0  0  0  0  0
   57.8950   31.8250   44.5290 C   0  0  0  0  0  0  0  0  0  0  0  0
   58.5790   33.0720   44.3020 C   0  0  0  0  0  0  0  0  0  0  0  0
   59.1280   34.0730   44.1190 N   0  0  0  0  0  0  0  0  0  0  0  0
   57.0060   31.3280   43.5690 C   0  0  0  0  0  0  0  0  0  0  0  0
   56.3390   30.1170   43.7890 C   0  0  0  0  0  0  0  0  0  0  0  0
   58.8530   26.6820   45.2410 C   0  0  0  0  0  0  0  0  0  0  0  0
   60.3610   26.6910   45.9870 S   0  0  0  0  0  0  0  0  0  0  0  0
   60.0047   27.0752   49.6472 H   0  0  0  0  0  0  0  0  0  0  0  0
   61.3647   26.3062   48.7609 H   0  0  0  0  0  0  0  0  0  0  0  0
   61.1893   28.0939   48.7609 H   0  0  0  0  0  0  0  0  0  0  0  0
   57.7958   27.3561   48.3767 H   0  0  0  0  0  0  0  0  0  0  0  0
   57.6053   29.3549   46.8742 H   0  0  0  0  0  0  0  0  0  0  0  0
   58.8036   31.5046   46.4737 H   0  0  0  0  0  0  0  0  0  0  0  0
   56.8311   31.8901   42.6398 H   0  0  0  0  0  0  0  0  0  0  0  0
   55.6325   29.7355   43.0371 H   0  0  0  0  0  0  0  0  0  0  0  0
   58.6647   26.4967   44.1732 H   0  0  0  0  0  0  0  0  0  0  0  0
  1  2  1  0
  2  3  2  0
  3  4  1  0
  4  5  1  0
  5  6  2  0
  5  7  1  0
  7  8  1  0
  8  9  2  0
  9 10  1  0
 10 11  2  0
 11 12  1  0
 12 13  3  0
 11 14  1  0
 14 15  2  0
  4 16  2  0
 16 17  1  0
 17  2  1  0
 15  8  1  0
  1 18  1  0
  1 19  1  0
  1 20  1  0
  3 21  1  0
  9 22  1  0
 10 23  1  0
 14 24  1  0
 15 25  1  0
 16 26  1  0
M  CHG  1   7  -1
M  END
>  <UniqueID>  (92) 
84

>  <SMILES>  (92) 
Cc1cc(C(=O)[N-]c2ccc(C#N)cc2)cs1

>  <Energy>  (92) 
53.1905322311613

>  <Genealogy>  (92) 
Cc1cc(C(=O)[N-]c2ccc(C#N)cc2)cs1 (protonated)
Cc1cc(C(=O)[N-]c2ccc(C#N)cc2)cs1 (3D coordinates assigned)
Cc1cc(C(=O)[N-]c2ccc(C#N)cc2)cs1 (optimized conformer: 53.1905322311613 kcal/mol)

>  <smiles>  (92) 
Cc1cc(C(=O)Nc2ccc(C#N)cc2)cs1

>  <score_type>  (92) 
oracle

>  <origin>  (92) 
adg

>  <m_score__min__energy>  (92) 
-8

>  <m_primary>  (92) 
energy

$$$$
92:0
     RDKit          3D

 31 33  0  0  0  0  0  0  0  0999 V2000
   55.5450   29.4420   44.8810 O   0  0  0  0  0  0  0  0  0  0  0  0
   56.7870   29.4960   44.6850 C   0  0  0  0  0  0  0  0  0  0  0  0
   57.4570   28.3550   44.1400 N   0  0  0  0  0  0  0  0  0  0  0  0
   58.8470   28.0170   44.4190 C   0  0  0  0  0  0  0  0  0  0  0  0
   58.9060   26.8100   45.3510 C   0  0  0  0  0  0  0  0  0  0  0  0
   57.5840   26.2050   45.4760 N   0  0  0  0  0  0  0  0  0  0  0  0
   57.1060   25.1570   44.7850 C   0  0  0  0  0  0  0  0  0  0  0  0
   55.8530   24.8670   45.2740 C   0  0  0  0  0  0  0  0  0  0  0  0
   55.5490   25.7170   46.2770 N   0  0  0  0  0  0  0  0  0  0  0  0
   56.6320   26.5160   46.3750 C   0  0  0  0  0  0  0  0  0  0  0  0
   57.5040   30.7410   44.9880 C   0  0  0  0  0  0  0  0  0  0  0  0
   57.3830   32.1520   44.0640 S   0  0  0  0  0  0  0  0  0  0  0  0
   58.4030   33.0560   45.0430 C   0  0  0  0  0  0  0  0  0  0  0  0
   58.7880   34.3860   44.8860 C   0  0  0  0  0  0  0  0  0  0  0  0
   59.6440   34.9470   45.8460 C   0  0  0  0  0  0  0  0  0  0  0  0
   60.0920   34.1760   46.9350 C   0  0  0  0  0  0  0  0  0  0  0  0
   59.6890   32.8370   47.0750 C   0  0  0  0  0  0  0  0  0  0  0  0
   58.8390   32.2820   46.1110 C   0  0  0  0  0  0  0  0  0  0  0  0
   58.3300   30.9740   46.0920 C   0  0  0  0  0  0  0  0  0  0  0  0
   58.6100   29.7980   47.3720 Cl  0  0  0  0  0  0  0  0  0  0  0  0
   59.3611   27.7767   43.4767 H   0  0  0  0  0  0  0  0  0  0  0  0
   59.3404   28.8738   44.9011 H   0  0  0  0  0  0  0  0  0  0  0  0
   59.6077   26.0685   44.9413 H   0  0  0  0  0  0  0  0  0  0  0  0
   59.2454   27.1395   46.3441 H   0  0  0  0  0  0  0  0  0  0  0  0
   57.6239   24.6254   43.9731 H   0  0  0  0  0  0  0  0  0  0  0  0
   55.1985   24.0642   44.9036 H   0  0  0  0  0  0  0  0  0  0  0  0
   56.7262   27.3307   47.1080 H   0  0  0  0  0  0  0  0  0  0  0  0
   58.4304   34.9803   44.0322 H   0  0  0  0  0  0  0  0  0  0  0  0
   59.9664   35.9940   45.7470 H   0  0  0  0  0  0  0  0  0  0  0  0
   60.7628   34.6250   47.6823 H   0  0  0  0  0  0  0  0  0  0  0  0
   60.0357   32.2350   47.9279 H   0  0  0  0  0  0  0  0  0  0  0  0
  1  2  2  0
  2  3  1  0
  3  4  1  0
  4  5  1  0
  5  6  1  0
  6  7  1  0
  7  8  2  0
  8  9  1  0
  9 10  2  0
  2 11  1  0
 11 12  1  0
 12 13  1  0
 13 14  2  0
 14 15  1  0
 15 16  2  0
 16 17  1  0
 17 18  2  0
 18 19  1  0
 19 20  1  0
 10  6  1  0
 19 11  2  0
 18 13  1  0
  4 21  1  0
  4 22  1  0
  5 23  1  0
  5 24  1  0
  7 25  1  0
  8 26  1  0
 10 27  1  0
 14 28  1  0
 15 29  1  0
 16 30  1  0
 17 31  1  0
M  CHG  1   3  -1
M  END
>  <UniqueID>  (93) 
85

>  <SMILES>  (93) 
O=C([N-]CCn1ccnc1)c1sc2ccccc2c1Cl

>  <Energy>  (93) 
94.79834309983306

>  <Genealogy>  (93) 
O=C([N-]CCn1ccnc1)c1sc2ccccc2c1Cl (protonated)
O=C([N-]CCn1ccnc1)c1sc2ccccc2c1Cl (3D coordinates assigned)
O=C([N-]CCn1ccnc1)c1sc2ccccc2c1Cl (optimized conformer: 94.79834309983306 kcal/mol)

>  <smiles>  (93) 
O=C(NCCn1ccnc1)c1sc2ccccc2c1Cl

>  <score_type>  (93) 
oracle

>  <origin>  (93) 
adg

>  <m_score__min__energy>  (93) 
-8.8699999999999992

>  <m_primary>  (93) 
energy

$$$$
