0:0
     RDKit          3D

 28 30  0  0  0  0  0  0  0  0999 V2000
   55.1400   30.4490   44.2920 O   0  0  0  0  0  0  0  0  0  0  0  0
   56.1990   29.8430   44.6050 C   0  0  0  0  0  0  0  0  0  0  0  0
   56.1920   28.6450   45.2430 N   0  0  0  0  0  0  0  0  0  0  0  0
   57.5060   28.3820   45.3830 C   0  0  0  0  0  0  0  0  0  0  0  0
   58.0870   27.2700   45.9860 C   0  0  0  0  0  0  0  0  0  0  0  0
   59.4920   27.2070   46.0300 C   0  0  0  0  0  0  0  0  0  0  0  0
   60.2730   28.2470   45.4760 C   0  0  0  0  0  0  0  0  0  0  0  0
   59.6560   29.3580   44.8730 C   0  0  0  0  0  0  0  0  0  0  0  0
   58.2610   29.3890   44.8470 C   0  0  0  0  0  0  0  0  0  0  0  0
   57.4400   30.3260   44.3410 N   0  0  0  0  0  0  0  0  0  0  0  0
   57.7910   31.6130   43.7380 C   0  0  0  0  0  0  0  0  0  0  0  0
   58.1370   32.6120   44.8090 C   0  0  0  0  0  0  0  0  0  0  0  0
   57.8070   32.3500   46.1490 C   0  0  0  0  0  0  0  0  0  0  0  0
   58.1540   33.2620   47.1520 C   0  0  0  0  0  0  0  0  0  0  0  0
   58.8360   34.4360   46.8250 C   0  0  0  0  0  0  0  0  0  0  0  0
   59.1720   34.7030   45.4950 C   0  0  0  0  0  0  0  0  0  0  0  0
   58.8260   33.7940   44.4900 C   0  0  0  0  0  0  0  0  0  0  0  0
   57.4684   26.4673   46.4138 H   0  0  0  0  0  0  0  0  0  0  0  0
   59.9858   26.3429   46.4985 H   0  0  0  0  0  0  0  0  0  0  0  0
   61.3706   28.1870   45.5168 H   0  0  0  0  0  0  0  0  0  0  0  0
   60.2519   30.1735   44.4374 H   0  0  0  0  0  0  0  0  0  0  0  0
   58.6570   31.4786   43.0732 H   0  0  0  0  0  0  0  0  0  0  0  0
   56.9306   31.9865   43.1634 H   0  0  0  0  0  0  0  0  0  0  0  0
   57.2737   31.4243   46.4109 H   0  0  0  0  0  0  0  0  0  0  0  0
   57.8893   33.0540   48.1992 H   0  0  0  0  0  0  0  0  0  0  0  0
   59.1089   35.1512   47.6150 H   0  0  0  0  0  0  0  0  0  0  0  0
   59.7087   35.6283   45.2385 H   0  0  0  0  0  0  0  0  0  0  0  0
   59.0947   34.0056   43.4445 H   0  0  0  0  0  0  0  0  0  0  0  0
  1  2  2  0
  2  3  1  0
  3  4  1  0
  4  5  2  0
  5  6  1  0
  6  7  2  0
  7  8  1  0
  8  9  2  0
  9 10  1  0
 10 11  1  0
 11 12  1  0
 12 13  2  0
 13 14  1  0
 14 15  2  0
 15 16  1  0
 16 17  2  0
 10  2  1  0
 17 12  1  0
  9  4  1  0
  5 18  1  0
  6 19  1  0
  7 20  1  0
  8 21  1  0
 11 22  1  0
 11 23  1  0
 13 24  1  0
 14 25  1  0
 15 26  1  0
 16 27  1  0
 17 28  1  0
M  CHG  1   3  -1
M  END
>  <UniqueID>  (1) 
1

>  <SMILES>  (1) 
O=c1[n-]c2ccccc2n1Cc1ccccc1

>  <Energy>  (1) 
67.82528711529001

>  <Genealogy>  (1) 
O=c1[n-]c2ccccc2n1Cc1ccccc1 (protonated)
O=c1[n-]c2ccccc2n1Cc1ccccc1 (3D coordinates assigned)
O=c1[n-]c2ccccc2n1Cc1ccccc1 (optimized conformer: 67.82528711529001 kcal/mol)

>  <smiles>  (1) 
O=c1[nH]c2ccccc2n1Cc1ccccc1

>  <score_type>  (1) 
oracle

>  <origin>  (1) 
adg

>  <m_score__min__energy>  (1) 
-8.5800000000000001

>  <m_primary>  (1) 
energy

$$$$
1:0
     RDKit          3D

 39 41  0  0  0  0  0  0  0  0999 V2000
   56.6670   30.8260   42.6300 C   0  0  0  0  0  0  0  0  0  0  0  0
   57.2400   29.9090   43.6120 N   0  0  0  0  0  0  0  0  0  0  0  0
   57.1740   28.5920   43.5050 N   0  0  0  0  0  0  0  0  0  0  0  0
   57.8210   28.0350   44.5500 C   0  0  0  0  0  0  0  0  0  0  0  0
   57.9690   26.5760   44.7770 C   0  0  0  0  0  0  0  0  0  0  0  0
   58.5790   26.0920   45.9490 C   0  0  0  0  0  0  0  0  0  0  0  0
   58.7160   24.7170   46.1620 C   0  0  0  0  0  0  0  0  0  0  0  0
   58.2510   23.8040   45.2090 C   0  0  0  0  0  0  0  0  0  0  0  0
   58.4090   22.0730   45.4870 S   0  0  0  0  0  0  0  0  0  0  0  0
   57.6940   21.1870   44.1220 C   0  0  0  0  0  0  0  0  0  0  0  0
   57.7020   21.6950   46.7580 O   0  0  0  0  0  0  0  0  0  0  0  0
   59.8620   21.7080   45.6170 O   0  0  0  0  0  0  0  0  0  0  0  0
   57.6340   24.2770   44.0450 C   0  0  0  0  0  0  0  0  0  0  0  0
   57.4950   25.6510   43.8290 C   0  0  0  0  0  0  0  0  0  0  0  0
   58.3140   29.0480   45.3600 C   0  0  0  0  0  0  0  0  0  0  0  0
   57.9150   30.2230   44.7440 C   0  0  0  0  0  0  0  0  0  0  0  0
   58.2100   31.5850   45.2390 C   0  0  0  0  0  0  0  0  0  0  0  0
   57.3630   32.6640   44.9340 C   0  0  0  0  0  0  0  0  0  0  0  0
   57.6430   33.9440   45.4230 C   0  0  0  0  0  0  0  0  0  0  0  0
   58.7670   34.1560   46.2280 C   0  0  0  0  0  0  0  0  0  0  0  0
   59.0370   35.3960   46.7020 F   0  0  0  0  0  0  0  0  0  0  0  0
   59.6060   33.0850   46.5510 C   0  0  0  0  0  0  0  0  0  0  0  0
   59.3260   31.8040   46.0650 C   0  0  0  0  0  0  0  0  0  0  0  0
   56.1537   31.6475   43.1512 H   0  0  0  0  0  0  0  0  0  0  0  0
   57.4696   31.2365   41.9996 H   0  0  0  0  0  0  0  0  0  0  0  0
   55.9462   30.2846   41.9996 H   0  0  0  0  0  0  0  0  0  0  0  0
   56.6830   28.0910   42.7310 H   0  0  0  0  0  0  0  0  0  0  0  0
   58.9509   26.8009   46.7034 H   0  0  0  0  0  0  0  0  0  0  0  0
   59.1919   24.3509   47.0837 H   0  0  0  0  0  0  0  0  0  0  0  0
   57.0463   20.3845   44.5047 H   0  0  0  0  0  0  0  0  0  0  0  0
   57.0976   21.8782   43.5083 H   0  0  0  0  0  0  0  0  0  0  0  0
   58.4955   20.7501   43.5083 H   0  0  0  0  0  0  0  0  0  0  0  0
   57.2568   23.5642   43.2969 H   0  0  0  0  0  0  0  0  0  0  0  0
   57.0107   26.0121   42.9097 H   0  0  0  0  0  0  0  0  0  0  0  0
   58.8946   28.9414   46.2882 H   0  0  0  0  0  0  0  0  0  0  0  0
   56.4742   32.5009   44.3067 H   0  0  0  0  0  0  0  0  0  0  0  0
   56.9787   34.7848   45.1743 H   0  0  0  0  0  0  0  0  0  0  0  0
   60.4873   33.2503   47.1881 H   0  0  0  0  0  0  0  0  0  0  0  0
   59.9830   30.9627   46.3307 H   0  0  0  0  0  0  0  0  0  0  0  0
  1  2  1  0
  2  3  1  0
  3  4  2  0
  4  5  1  0
  5  6  2  0
  6  7  1  0
  7  8  2  0
  8  9  1  0
  9 10  1  0
  9 11  2  0
  9 12  2  0
  8 13  1  0
 13 14  2  0
  4 15  1  0
 15 16  2  0
 16 17  1  0
 17 18  2  0
 18 19  1  0
 19 20  2  0
 20 21  1  0
 20 22  1  0
 22 23  2  0
 16  2  1  0
 23 17  1  0
 14  5  1  0
  1 24  1  0
  1 25  1  0
  1 26  1  0
  3 27  1  0
  6 28  1  0
  7 29  1  0
 10 30  1  0
 10 31  1  0
 10 32  1  0
 13 33  1  0
 14 34  1  0
 15 35  1  0
 18 36  1  0
 19 37  1  0
 22 38  1  0
 23 39  1  0
M  CHG  1   3   1
M  END
>  <UniqueID>  (2) 
2

>  <SMILES>  (2) 
Cn1[nH+]c(-c2ccc(S(C)(=O)=O)cc2)cc1-c1ccc(F)cc1

>  <Energy>  (2) 
76.1039193280985

>  <Genealogy>  (2) 
Cn1[nH+]c(-c2ccc(S(C)(=O)=O)cc2)cc1-c1ccc(F)cc1 (protonated)
Cn1[nH+]c(-c2ccc(S(C)(=O)=O)cc2)cc1-c1ccc(F)cc1 (3D coordinates assigned)
Cn1[nH+]c(-c2ccc(S(C)(=O)=O)cc2)cc1-c1ccc(F)cc1 (optimized conformer: 76.1039193280985 kcal/mol)

>  <smiles>  (2) 
Cn1nc(-c2ccc(S(C)(=O)=O)cc2)cc1-c1ccc(F)cc1

>  <score_type>  (2) 
oracle

>  <origin>  (2) 
adg

>  <m_score__min__energy>  (2) 
-6.9000000000000004

>  <m_primary>  (2) 
energy

$$$$
2:0
     RDKit          3D

 31 32  0  0  0  0  0  0  0  0999 V2000
   54.2330   24.8550   45.5760 C   0  0  0  0  0  0  0  0  0  0  0  0
   54.7970   26.0950   45.9380 O   0  0  0  0  0  0  0  0  0  0  0  0
   56.1980   25.9740   46.1190 C   0  0  0  0  0  0  0  0  0  0  0  0
   56.8920   27.2520   45.6580 C   0  0  0  0  0  0  0  0  0  0  0  0
   55.8960   28.2350   45.2550 N   0  0  0  0  0  0  0  0  0  0  0  0
   56.2320   29.5200   44.7260 C   0  0  0  0  0  0  0  0  0  0  0  0
   55.3270   30.3610   44.4770 O   0  0  0  0  0  0  0  0  0  0  0  0
   57.6610   29.8540   44.4210 C   0  0  0  0  0  0  0  0  0  0  0  0
   57.9320   31.2710   44.7070 N   0  0  0  0  0  0  0  0  0  0  0  0
   57.7550   32.2680   43.7990 C   0  0  0  0  0  0  0  0  0  0  0  0
   57.3890   32.0700   42.6100 O   0  0  0  0  0  0  0  0  0  0  0  0
   58.0650   33.7990   44.4380 S   0  0  0  0  0  0  0  0  0  0  0  0
   58.4290   33.1650   45.9510 C   0  0  0  0  0  0  0  0  0  0  0  0
   58.7800   33.8580   47.1060 C   0  0  0  0  0  0  0  0  0  0  0  0
   59.0110   33.1220   48.2770 C   0  0  0  0  0  0  0  0  0  0  0  0
   58.8840   31.7200   48.2720 C   0  0  0  0  0  0  0  0  0  0  0  0
   58.5270   31.0400   47.0960 C   0  0  0  0  0  0  0  0  0  0  0  0
   58.3030   31.7800   45.9230 C   0  0  0  0  0  0  0  0  0  0  0  0
   53.9760   24.2900   46.4841 H   0  0  0  0  0  0  0  0  0  0  0  0
   53.3239   25.0255   44.9807 H   0  0  0  0  0  0  0  0  0  0  0  0
   54.9590   24.2818   44.9807 H   0  0  0  0  0  0  0  0  0  0  0  0
   56.4151   25.8045   47.1840 H   0  0  0  0  0  0  0  0  0  0  0  0
   56.5685   25.1255   45.5251 H   0  0  0  0  0  0  0  0  0  0  0  0
   57.4940   27.6592   46.4837 H   0  0  0  0  0  0  0  0  0  0  0  0
   57.5443   27.0233   44.8023 H   0  0  0  0  0  0  0  0  0  0  0  0
   58.3193   29.2275   45.0408 H   0  0  0  0  0  0  0  0  0  0  0  0
   57.8504   29.6642   43.3542 H   0  0  0  0  0  0  0  0  0  0  0  0
   58.8737   34.9540   47.1003 H   0  0  0  0  0  0  0  0  0  0  0  0
   59.2928   33.6427   49.2041 H   0  0  0  0  0  0  0  0  0  0  0  0
   59.0658   31.1524   49.1966 H   0  0  0  0  0  0  0  0  0  0  0  0
   58.4244   29.9448   47.0935 H   0  0  0  0  0  0  0  0  0  0  0  0
  1  2  1  0
  2  3  1  0
  3  4  1  0
  4  5  1  0
  5  6  1  0
  6  7  2  0
  6  8  1  0
  8  9  1  0
  9 10  1  0
 10 11  2  0
 10 12  1  0
 12 13  1  0
 13 14  2  0
 14 15  1  0
 15 16  2  0
 16 17  1  0
 17 18  2  0
 18  9  1  0
 18 13  1  0
  1 19  1  0
  1 20  1  0
  1 21  1  0
  3 22  1  0
  3 23  1  0
  4 24  1  0
  4 25  1  0
  8 26  1  0
  8 27  1  0
 14 28  1  0
 15 29  1  0
 16 30  1  0
 17 31  1  0
M  CHG  1   5  -1
M  END
>  <UniqueID>  (3) 
3

>  <SMILES>  (3) 
COCC[N-]C(=O)Cn1c(=O)sc2ccccc21

>  <Energy>  (3) 
62.777112449254886

>  <Genealogy>  (3) 
COCC[N-]C(=O)Cn1c(=O)sc2ccccc21 (protonated)
COCC[N-]C(=O)Cn1c(=O)sc2ccccc21 (3D coordinates assigned)
COCC[N-]C(=O)Cn1c(=O)sc2ccccc21 (optimized conformer: 62.777112449254886 kcal/mol)

>  <smiles>  (3) 
COCCNC(=O)Cn1c(=O)sc2ccccc21

>  <score_type>  (3) 
oracle

>  <origin>  (3) 
adg

>  <m_score__min__energy>  (3) 
-9.0999999999999996

>  <m_primary>  (3) 
energy

$$$$
3:0
     RDKit          3D

 38 39  0  0  0  0  0  0  0  0999 V2000
   59.1600   32.3300   49.6790 C   0  0  0  0  0  0  0  0  0  0  0  0
   58.8090   31.7630   48.4210 O   0  0  0  0  0  0  0  0  0  0  0  0
   58.6830   32.4880   47.2260 C   0  0  0  0  0  0  0  0  0  0  0  0
   58.8200   33.8910   47.1920 C   0  0  0  0  0  0  0  0  0  0  0  0
   58.6350   34.5910   45.9980 C   0  0  0  0  0  0  0  0  0  0  0  0
   58.3070   33.9060   44.8280 C   0  0  0  0  0  0  0  0  0  0  0  0
   58.1760   32.5170   44.8450 C   0  0  0  0  0  0  0  0  0  0  0  0
   58.3840   31.7960   46.0310 C   0  0  0  0  0  0  0  0  0  0  0  0
   58.2370   30.3670   46.0120 N   0  0  0  0  0  0  0  0  0  0  0  0
   57.2340   29.6960   45.2290 C   0  0  0  0  0  0  0  0  0  0  0  0
   56.2480   30.3480   44.7900 O   0  0  0  0  0  0  0  0  0  0  0  0
   57.3250   28.2390   44.9650 C   0  0  0  0  0  0  0  0  0  0  0  0
   56.9360   27.3170   45.9510 C   0  0  0  0  0  0  0  0  0  0  0  0
   57.0120   25.9430   45.7100 C   0  0  0  0  0  0  0  0  0  0  0  0
   57.4710   25.4490   44.4720 C   0  0  0  0  0  0  0  0  0  0  0  0
   57.5500   24.0210   44.2210 N   0  0  0  0  0  0  0  0  0  0  0  0
   56.6360   23.3800   43.2670 C   0  0  0  0  0  0  0  0  0  0  0  0
   58.5420   23.1940   44.9180 C   0  0  0  0  0  0  0  0  0  0  0  0
   57.8490   26.3810   43.4840 C   0  0  0  0  0  0  0  0  0  0  0  0
   57.7740   27.7550   43.7260 C   0  0  0  0  0  0  0  0  0  0  0  0
   58.7681   31.6969   50.4887 H   0  0  0  0  0  0  0  0  0  0  0  0
   60.2552   32.3928   49.7601 H   0  0  0  0  0  0  0  0  0  0  0  0
   58.7279   33.3383   49.7601 H   0  0  0  0  0  0  0  0  0  0  0  0
   59.0743   34.4376   48.1121 H   0  0  0  0  0  0  0  0  0  0  0  0
   58.7482   35.6850   45.9800 H   0  0  0  0  0  0  0  0  0  0  0  0
   58.1515   34.4613   43.8913 H   0  0  0  0  0  0  0  0  0  0  0  0
   57.9076   31.9829   43.9216 H   0  0  0  0  0  0  0  0  0  0  0  0
   58.7510   29.8150   46.7330 H   0  0  0  0  0  0  0  0  0  0  0  0
   56.5681   27.6803   46.9219 H   0  0  0  0  0  0  0  0  0  0  0  0
   56.7095   25.2368   46.4972 H   0  0  0  0  0  0  0  0  0  0  0  0
   55.8562   22.8331   43.8172 H   0  0  0  0  0  0  0  0  0  0  0  0
   56.1679   24.1487   42.6346 H   0  0  0  0  0  0  0  0  0  0  0  0
   57.1993   22.6780   42.6346 H   0  0  0  0  0  0  0  0  0  0  0  0
   58.4115   23.3028   46.0048 H   0  0  0  0  0  0  0  0  0  0  0  0
   58.4039   22.1398   44.6358 H   0  0  0  0  0  0  0  0  0  0  0  0
   59.5541   23.5195   44.6358 H   0  0  0  0  0  0  0  0  0  0  0  0
   58.2082   26.0212   42.5085 H   0  0  0  0  0  0  0  0  0  0  0  0
   58.0694   28.4640   42.9386 H   0  0  0  0  0  0  0  0  0  0  0  0
  1  2  1  0
  2  3  1  0
  3  4  2  0
  4  5  1  0
  5  6  2  0
  6  7  1  0
  7  8  2  0
  8  9  1  0
  9 10  1  0
 10 11  2  0
 10 12  1  0
 12 13  2  0
 13 14  1  0
 14 15  2  0
 15 16  1  0
 16 17  1  0
 16 18  1  0
 15 19  1  0
 19 20  2  0
  8  3  1  0
 20 12  1  0
  1 21  1  0
  1 22  1  0
  1 23  1  0
  4 24  1  0
  5 25  1  0
  6 26  1  0
  7 27  1  0
  9 28  1  0
 13 29  1  0
 14 30  1  0
 17 31  1  0
 17 32  1  0
 17 33  1  0
 18 34  1  0
 18 35  1  0
 18 36  1  0
 19 37  1  0
 20 38  1  0
M  END
>  <UniqueID>  (4) 
4

>  <SMILES>  (4) 
COc1ccccc1NC(=O)c1ccc(N(C)C)cc1

>  <Energy>  (4) 
45.96387303444196

>  <Genealogy>  (4) 
COc1ccccc1NC(=O)c1ccc(N(C)C)cc1 (3D coordinates assigned)
COc1ccccc1NC(=O)c1ccc(N(C)C)cc1 (optimized conformer: 45.96387303444196 kcal/mol)

>  <smiles>  (4) 
COc1ccccc1NC(=O)c1ccc(N(C)C)cc1

>  <score_type>  (4) 
oracle

>  <origin>  (4) 
adg

>  <m_score__min__energy>  (4) 
-6.2300000000000004

>  <m_primary>  (4) 
energy

$$$$
4:0
     RDKit          3D

 25 25  0  0  0  0  0  0  0  0999 V2000
   49.9990   33.0020   53.0450 C   0  0  0  0  0  0  0  0  0  0  0  0
   51.0040   33.1030   51.9970 N   0  0  0  0  0  0  0  0  0  0  0  0
   51.4210   31.9810   51.2110 C   0  0  0  0  0  0  0  0  0  0  0  0
   51.0720   31.9040   50.0000 O   0  0  0  0  0  0  0  0  0  0  0  0
   52.2570   30.9170   51.8110 C   0  0  0  0  0  0  0  0  0  0  0  0
   53.4660   31.2200   52.4490 C   0  0  0  0  0  0  0  0  0  0  0  0
   54.2160   30.2300   52.9920 N   0  0  0  0  0  0  0  0  0  0  0  0
   53.8280   28.9260   52.9380 C   0  0  0  0  0  0  0  0  0  0  0  0
   54.6650   27.9070   53.5340 N   0  0  0  0  0  0  0  0  0  0  0  0
   56.0720   28.1740   53.8550 C   0  0  0  0  0  0  0  0  0  0  0  0
   54.0910   26.5880   53.8220 C   0  0  0  0  0  0  0  0  0  0  0  0
   52.6500   28.6090   52.3200 N   0  0  0  0  0  0  0  0  0  0  0  0
   51.8690   29.5720   51.7640 C   0  0  0  0  0  0  0  0  0  0  0  0
   50.4888   33.0512   54.0287 H   0  0  0  0  0  0  0  0  0  0  0  0
   49.2845   33.8329   52.9492 H   0  0  0  0  0  0  0  0  0  0  0  0
   49.4641   32.0456   52.9492 H   0  0  0  0  0  0  0  0  0  0  0  0
   53.8079   32.2637   52.5097 H   0  0  0  0  0  0  0  0  0  0  0  0
   56.2007   28.1984   54.9472 H   0  0  0  0  0  0  0  0  0  0  0  0
   56.7024   27.3795   53.4292 H   0  0  0  0  0  0  0  0  0  0  0  0
   56.3675   29.1442   53.4292 H   0  0  0  0  0  0  0  0  0  0  0  0
   54.0288   26.4450   54.9109 H   0  0  0  0  0  0  0  0  0  0  0  0
   53.0834   26.5234   53.3855 H   0  0  0  0  0  0  0  0  0  0  0  0
   54.7305   25.8066   53.3855 H   0  0  0  0  0  0  0  0  0  0  0  0
   52.3180   27.6220   52.2590 H   0  0  0  0  0  0  0  0  0  0  0  0
   50.9249   29.2931   51.2733 H   0  0  0  0  0  0  0  0  0  0  0  0
  1  2  1  0
  2  3  1  0
  3  4  2  0
  3  5  1  0
  5  6  2  0
  6  7  1  0
  7  8  2  0
  8  9  1  0
  9 10  1  0
  9 11  1  0
  8 12  1  0
 12 13  2  0
 13  5  1  0
  1 14  1  0
  1 15  1  0
  1 16  1  0
  6 17  1  0
 10 18  1  0
 10 19  1  0
 10 20  1  0
 11 21  1  0
 11 22  1  0
 11 23  1  0
 12 24  1  0
 13 25  1  0
M  CHG  2   2  -1  12   1
M  END
>  <UniqueID>  (5) 
5

>  <SMILES>  (5) 
C[N-]C(=O)c1cnc(N(C)C)[nH+]c1

>  <Energy>  (5) 
20.10907237031295

>  <Genealogy>  (5) 
C[N-]C(=O)c1cnc(N(C)C)[nH+]c1 (protonated)
C[N-]C(=O)c1cnc(N(C)C)[nH+]c1 (3D coordinates assigned)
C[N-]C(=O)c1cnc(N(C)C)[nH+]c1 (optimized conformer: 20.10907237031295 kcal/mol)

>  <smiles>  (5) 
CNC(=O)c1cnc(N(C)C)nc1

>  <score_type>  (5) 
oracle

>  <origin>  (5) 
adg

>  <m_score__min__energy>  (5) 
-6.4299999999999997

>  <m_primary>  (5) 
energy

$$$$
5:0
     RDKit          3D

 35 38  0  0  0  0  0  0  0  0999 V2000
   58.8450   27.2660   43.7640 F   0  0  0  0  0  0  0  0  0  0  0  0
   58.9730   28.0180   44.8860 C   0  0  0  0  0  0  0  0  0  0  0  0
   58.8680   29.4090   44.8010 C   0  0  0  0  0  0  0  0  0  0  0  0
   58.9930   30.2050   45.9520 C   0  0  0  0  0  0  0  0  0  0  0  0
   58.8890   31.6810   45.8510 C   0  0  0  0  0  0  0  0  0  0  0  0
   59.9090   32.4670   46.3100 N   0  0  0  0  0  0  0  0  0  0  0  0
   59.8550   33.8250   46.2350 C   0  0  0  0  0  0  0  0  0  0  0  0
   58.7430   34.4560   45.6770 C   0  0  0  0  0  0  0  0  0  0  0  0
   57.6910   33.6800   45.1940 C   0  0  0  0  0  0  0  0  0  0  0  0
   57.7550   32.2880   45.2760 C   0  0  0  0  0  0  0  0  0  0  0  0
   56.7420   31.5450   44.7660 F   0  0  0  0  0  0  0  0  0  0  0  0
   59.2450   29.5830   47.1870 C   0  0  0  0  0  0  0  0  0  0  0  0
   59.3500   28.1920   47.2710 C   0  0  0  0  0  0  0  0  0  0  0  0
   59.1970   27.3980   46.1220 C   0  0  0  0  0  0  0  0  0  0  0  0
   59.3110   26.0020   46.1670 O   0  0  0  0  0  0  0  0  0  0  0  0
   58.3370   25.0930   45.7290 C   0  0  0  0  0  0  0  0  0  0  0  0
   58.6530   23.8070   45.2290 C   0  0  0  0  0  0  0  0  0  0  0  0
   57.6270   22.9240   44.8200 C   0  0  0  0  0  0  0  0  0  0  0  0
   56.2760   23.3060   44.9140 C   0  0  0  0  0  0  0  0  0  0  0  0
   55.9960   24.5690   45.4260 C   0  0  0  0  0  0  0  0  0  0  0  0
   54.7930   25.1360   45.6130 N   0  0  0  0  0  0  0  0  0  0  0  0
   55.0030   26.3460   46.1240 N   0  0  0  0  0  0  0  0  0  0  0  0
   56.3350   26.5490   46.2610 C   0  0  0  0  0  0  0  0  0  0  0  0
   56.9850   25.4220   45.8200 C   0  0  0  0  0  0  0  0  0  0  0  0
   58.6861   29.8842   43.8257 H   0  0  0  0  0  0  0  0  0  0  0  0
   60.7520   32.0310   46.7480 H   0  0  0  0  0  0  0  0  0  0  0  0
   60.6923   34.4279   46.6163 H   0  0  0  0  0  0  0  0  0  0  0  0
   58.6970   35.5535   45.6189 H   0  0  0  0  0  0  0  0  0  0  0  0
   56.8099   34.1646   44.7480 H   0  0  0  0  0  0  0  0  0  0  0  0
   59.3603   30.1953   48.0935 H   0  0  0  0  0  0  0  0  0  0  0  0
   59.5535   27.7163   48.2417 H   0  0  0  0  0  0  0  0  0  0  0  0
   59.7046   23.4921   45.1581 H   0  0  0  0  0  0  0  0  0  0  0  0
   57.8871   21.9307   44.4253 H   0  0  0  0  0  0  0  0  0  0  0  0
   55.4696   22.6298   44.5939 H   0  0  0  0  0  0  0  0  0  0  0  0
   56.8129   27.4575   46.6563 H   0  0  0  0  0  0  0  0  0  0  0  0
  1  2  1  0
  2  3  2  0
  3  4  1  0
  4  5  1  0
  5  6  2  0
  6  7  1  0
  7  8  2  0
  8  9  1  0
  9 10  2  0
 10 11  1  0
  4 12  2  0
 12 13  1  0
 13 14  2  0
 14 15  1  0
 15 16  1  0
 16 17  2  0
 17 18  1  0
 18 19  2  0
 19 20  1  0
 20 21  1  0
 21 22  1  0
 22 23  2  0
 23 24  1  0
 14  2  1  0
 24 16  1  0
 10  5  1  0
 24 20  2  0
  3 25  1  0
  6 26  1  0
  7 27  1  0
  8 28  1  0
  9 29  1  0
 12 30  1  0
 13 31  1  0
 17 32  1  0
 18 33  1  0
 19 34  1  0
 23 35  1  0
M  CHG  2   6   1  21  -1
M  END
>  <UniqueID>  (6) 
6

>  <SMILES>  (6) 
Fc1cc(-c2[nH+]cccc2F)ccc1Oc1cccc2[n-]ncc12

>  <Energy>  (6) 
90.2029815328661

>  <Genealogy>  (6) 
Fc1cc(-c2[nH+]cccc2F)ccc1Oc1cccc2[n-]ncc12 (protonated)
Fc1cc(-c2[nH+]cccc2F)ccc1Oc1cccc2[n-]ncc12 (3D coordinates assigned)
Fc1cc(-c2[nH+]cccc2F)ccc1Oc1cccc2[n-]ncc12 (optimized conformer: 90.2029815328661 kcal/mol)

>  <smiles>  (6) 
Fc1cc(-c2ncccc2F)ccc1Oc1cccc2[nH]ncc12

>  <score_type>  (6) 
oracle

>  <origin>  (6) 
adg

>  <m_score__min__energy>  (6) 
-8.0199999999999996

>  <m_primary>  (6) 
energy

$$$$
6:0
     RDKit          3D

 50 52  0  0  0  0  0  0  0  0999 V2000
   63.5900   33.2480   46.7830 C   0  0  0  0  0  0  0  0  0  0  0  0
   62.3620   33.8860   47.1170 O   0  0  0  0  0  0  0  0  0  0  0  0
   61.7560   33.8390   48.3810 C   0  0  0  0  0  0  0  0  0  0  0  0
   62.5140   33.8460   49.5700 C   0  0  0  0  0  0  0  0  0  0  0  0
   61.8780   33.8370   50.8130 C   0  0  0  0  0  0  0  0  0  0  0  0
   60.4850   33.8260   50.8880 C   0  0  0  0  0  0  0  0  0  0  0  0
   59.7230   33.8140   49.7200 C   0  0  0  0  0  0  0  0  0  0  0  0
   60.3470   33.8070   48.4610 C   0  0  0  0  0  0  0  0  0  0  0  0
   59.5420   33.7750   47.2690 N   0  0  0  0  0  0  0  0  0  0  0  0
   58.4730   32.7790   47.1290 C   0  0  0  0  0  0  0  0  0  0  0  0
   57.4580   33.2140   46.0590 C   0  0  0  0  0  0  0  0  0  0  0  0
   58.0900   33.5790   44.7590 N   0  0  0  0  0  0  0  0  0  0  0  0
   58.0190   32.4950   43.7420 C   0  0  0  0  0  0  0  0  0  0  0  0
   57.4600   31.1790   44.2540 C   0  0  0  0  0  0  0  0  0  0  0  0
   56.1110   30.8450   44.0490 C   0  0  0  0  0  0  0  0  0  0  0  0
   55.6040   29.6240   44.5000 C   0  0  0  0  0  0  0  0  0  0  0  0
   56.4210   28.7340   45.2040 C   0  0  0  0  0  0  0  0  0  0  0  0
   55.8770   27.4720   45.6170 N   0  0  0  0  0  0  0  0  0  0  0  0
   56.6110   26.3260   46.0680 C   0  0  0  0  0  0  0  0  0  0  0  0
   57.9820   26.0050   45.5540 C   0  0  0  0  0  0  0  0  0  0  0  0
   56.1020   25.5850   46.9500 O   0  0  0  0  0  0  0  0  0  0  0  0
   57.7660   29.0680   45.4300 C   0  0  0  0  0  0  0  0  0  0  0  0
   58.2740   30.2910   44.9800 C   0  0  0  0  0  0  0  0  0  0  0  0
   59.4540   34.1680   44.8700 C   0  0  0  0  0  0  0  0  0  0  0  0
   59.7100   34.8010   46.2390 C   0  0  0  0  0  0  0  0  0  0  0  0
   64.1222   32.9715   47.7051 H   0  0  0  0  0  0  0  0  0  0  0  0
   63.3843   32.3428   46.1929 H   0  0  0  0  0  0  0  0  0  0  0  0
   64.2124   33.9368   46.1929 H   0  0  0  0  0  0  0  0  0  0  0  0
   63.6127   33.8586   49.5180 H   0  0  0  0  0  0  0  0  0  0  0  0
   62.4770   33.8386   51.7356 H   0  0  0  0  0  0  0  0  0  0  0  0
   59.9873   33.8268   51.8690 H   0  0  0  0  0  0  0  0  0  0  0  0
   58.6249   33.8100   49.7848 H   0  0  0  0  0  0  0  0  0  0  0  0
   58.9145   31.8149   46.8365 H   0  0  0  0  0  0  0  0  0  0  0  0
   57.9508   32.6845   48.0925 H   0  0  0  0  0  0  0  0  0  0  0  0
   56.7569   32.3844   45.8854 H   0  0  0  0  0  0  0  0  0  0  0  0
   56.9509   34.1135   46.4382 H   0  0  0  0  0  0  0  0  0  0  0  0
   57.4890   34.3450   44.3690 H   0  0  0  0  0  0  0  0  0  0  0  0
   57.3792   32.8410   42.9168 H   0  0  0  0  0  0  0  0  0  0  0  0
   59.0547   32.2924   43.4316 H   0  0  0  0  0  0  0  0  0  0  0  0
   55.4478   31.5515   43.5285 H   0  0  0  0  0  0  0  0  0  0  0  0
   54.5548   29.3608   44.3000 H   0  0  0  0  0  0  0  0  0  0  0  0
   58.6636   25.8454   46.4025 H   0  0  0  0  0  0  0  0  0  0  0  0
   57.9395   25.0925   44.9412 H   0  0  0  0  0  0  0  0  0  0  0  0
   58.3490   26.8415   44.9412 H   0  0  0  0  0  0  0  0  0  0  0  0
   58.4228   28.3649   45.9631 H   0  0  0  0  0  0  0  0  0  0  0  0
   59.3185   30.5605   45.1956 H   0  0  0  0  0  0  0  0  0  0  0  0
   60.1959   33.3729   44.7049 H   0  0  0  0  0  0  0  0  0  0  0  0
   59.5371   34.9626   44.1139 H   0  0  0  0  0  0  0  0  0  0  0  0
   60.7347   35.1993   46.2769 H   0  0  0  0  0  0  0  0  0  0  0  0
   59.0002   35.6238   46.4102 H   0  0  0  0  0  0  0  0  0  0  0  0
  1  2  1  0
  2  3  1  0
  3  4  2  0
  4  5  1  0
  5  6  2  0
  6  7  1  0
  7  8  2  0
  8  9  1  0
  9 10  1  0
 10 11  1  0
 11 12  1  0
 12 13  1  0
 13 14  1  0
 14 15  2  0
 15 16  1  0
 16 17  2  0
 17 18  1  0
 18 19  1  0
 19 20  1  0
 19 21  2  0
 17 22  1  0
 22 23  2  0
 12 24  1  0
 24 25  1  0
  8  3  1  0
 25  9  1  0
 23 14  1  0
  1 26  1  0
  1 27  1  0
  1 28  1  0
  4 29  1  0
  5 30  1  0
  6 31  1  0
  7 32  1  0
 10 33  1  0
 10 34  1  0
 11 35  1  0
 11 36  1  0
 12 37  1  0
 13 38  1  0
 13 39  1  0
 15 40  1  0
 16 41  1  0
 20 42  1  0
 20 43  1  0
 20 44  1  0
 22 45  1  0
 23 46  1  0
 24 47  1  0
 24 48  1  0
 25 49  1  0
 25 50  1  0
M  CHG  2  12   1  18  -1
M  END
>  <UniqueID>  (7) 
7

>  <SMILES>  (7) 
COc1ccccc1N1CC[NH+](Cc2ccc([N-]C(C)=O)cc2)CC1

>  <Energy>  (7) 
68.4548016165889

>  <Genealogy>  (7) 
COc1ccccc1N1CC[NH+](Cc2ccc([N-]C(C)=O)cc2)CC1 (protonated)
COc1ccccc1N1CC[NH+](Cc2ccc([N-]C(C)=O)cc2)CC1 (3D coordinates assigned)
COc1ccccc1N1CC[NH+](Cc2ccc([N-]C(C)=O)cc2)CC1 (nonaromatic ring conformer: 68.4548016165889 kcal/mol)

>  <smiles>  (7) 
COc1ccccc1N1CCN(Cc2ccc(NC(C)=O)cc2)CC1

>  <score_type>  (7) 
oracle

>  <origin>  (7) 
adg

>  <m_score__min__energy>  (7) 
-8.6799999999999997

>  <m_primary>  (7) 
energy

$$$$
7:0
     RDKit          3D

 33 35  0  0  0  0  0  0  0  0999 V2000
   52.9237   24.4881   45.5086 H   0  0  0  0  0  0  0  0  0  0  0  0
   53.9890   24.7460   45.6020 C   0  0  0  0  0  0  0  0  0  0  0  0
   54.4620   25.9610   45.7590 O   0  0  0  0  0  0  0  0  0  0  0  0
   55.7710   25.8950   45.8380 C   0  0  0  0  0  0  0  0  0  0  0  0
   56.6520   27.0650   46.0040 C   0  0  0  0  0  0  0  0  0  0  0  0
   57.6710   26.9740   46.7380 O   0  0  0  0  0  0  0  0  0  0  0  0
   56.4270   28.2820   45.2780 N   0  0  0  0  0  0  0  0  0  0  0  0
   57.0340   29.4130   45.4810 C   0  0  0  0  0  0  0  0  0  0  0  0
   56.6350   30.5560   44.8740 N   0  0  0  0  0  0  0  0  0  0  0  0
   57.4490   31.5910   45.2070 C   0  0  0  0  0  0  0  0  0  0  0  0
   57.2890   32.8960   44.7460 C   0  0  0  0  0  0  0  0  0  0  0  0
   56.4613   33.1527   44.0685 H   0  0  0  0  0  0  0  0  0  0  0  0
   58.2040   33.8790   45.1620 C   0  0  0  0  0  0  0  0  0  0  0  0
   58.0893   34.9135   44.8060 H   0  0  0  0  0  0  0  0  0  0  0  0
   59.2730   33.5530   46.0350 C   0  0  0  0  0  0  0  0  0  0  0  0
   60.2320   34.5910   46.4700 C   0  0  0  0  0  0  0  0  0  0  0  0
   60.0070   35.8060   46.2170 O   0  0  0  0  0  0  0  0  0  0  0  0
   61.3940   34.2200   47.1600 O   0  0  0  0  0  0  0  0  0  0  0  0
   62.5970   33.8120   46.5140 C   0  0  0  0  0  0  0  0  0  0  0  0
   63.2084   34.7000   46.2956 H   0  0  0  0  0  0  0  0  0  0  0  0
   62.3374   33.2882   45.5822 H   0  0  0  0  0  0  0  0  0  0  0  0
   63.3920   32.8640   47.4030 C   0  0  0  0  0  0  0  0  0  0  0  0
   63.1945   33.0995   48.4592 H   0  0  0  0  0  0  0  0  0  0  0  0
   63.0896   31.8269   47.1959 H   0  0  0  0  0  0  0  0  0  0  0  0
   64.4660   32.9811   47.1959 H   0  0  0  0  0  0  0  0  0  0  0  0
   59.4150   32.2230   46.4880 C   0  0  0  0  0  0  0  0  0  0  0  0
   60.2361   31.9442   47.1648 H   0  0  0  0  0  0  0  0  0  0  0  0
   58.4930   31.2730   46.0590 C   0  0  0  0  0  0  0  0  0  0  0  0
   58.4270   29.6380   46.4310 S   0  0  0  0  0  0  0  0  0  0  0  0
   56.1840   24.5830   45.7220 C   0  0  0  0  0  0  0  0  0  0  0  0
   57.2175   24.2070   45.7445 H   0  0  0  0  0  0  0  0  0  0  0  0
   55.0310   23.8420   45.5720 C   0  0  0  0  0  0  0  0  0  0  0  0
   54.9568   22.7510   45.4526 H   0  0  0  0  0  0  0  0  0  0  0  0
  1  2  1  0
  2  3  1  0
  3  4  1  0
  4  5  1  0
  5  6  2  0
  5  7  1  0
  7  8  2  0
  8  9  1  0
  9 10  1  0
 10 11  2  0
 11 12  1  0
 11 13  1  0
 13 14  1  0
 13 15  2  0
 15 16  1  0
 16 17  2  0
 16 18  1  0
 18 19  1  0
 19 20  1  0
 19 21  1  0
 19 22  1  0
 22 23  1  0
 22 24  1  0
 22 25  1  0
 15 26  1  0
 26 27  1  0
 26 28  2  0
 28 29  1  0
  4 30  2  0
 30 31  1  0
 30 32  1  0
 32 33  1  0
 32  2  2  0
 29  8  1  0
 28 10  1  0
M  CHG  1   9  -1
M  END
>  <UniqueID>  (8) 
8

>  <SMILES>  (8) 
CCOC(=O)c1ccc2[n-]/c(=N/C(=O)c3ccco3)sc2c1

>  <Energy>  (8) 
98.68982652590928

>  <Genealogy>  (8) 
CCOC(=O)c1ccc2[n-]c(=NC(=O)c3ccco3)sc2c1 (protonated)
CCOC(=O)c1ccc2[n-]/c(=N/C(=O)c3ccco3)sc2c1 (cis-trans isomerization)
CCOC(=O)c1ccc2[n-]/c(=N/C(=O)c3ccco3)sc2c1 (3D coordinates assigned)
CCOC(=O)c1ccc2[n-]/c(=N/C(=O)c3ccco3)sc2c1 (optimized conformer: 98.68982652590928 kcal/mol)

>  <smiles>  (8) 
CCOC(=O)c1ccc2[nH]c(=NC(=O)c3ccco3)sc2c1

>  <score_type>  (8) 
oracle

>  <origin>  (8) 
adg

>  <m_score__min__energy>  (8) 
-8.9199999999999999

>  <m_primary>  (8) 
energy

$$$$
8:0
     RDKit          3D

 43 46  0  0  0  0  0  0  0  0999 V2000
   55.2350   24.5250   44.9570 O   0  0  0  0  0  0  0  0  0  0  0  0
   55.7580   25.2540   45.8400 C   0  0  0  0  0  0  0  0  0  0  0  0
   56.3750   24.6050   47.0540 C   0  0  0  0  0  0  0  0  0  0  0  0
   57.7070   23.9030   46.7390 C   0  0  0  0  0  0  0  0  0  0  0  0
   57.5170   22.6720   45.8900 C   0  0  0  0  0  0  0  0  0  0  0  0
   56.9450   21.5150   46.4390 C   0  0  0  0  0  0  0  0  0  0  0  0
   56.7630   20.3870   45.6350 C   0  0  0  0  0  0  0  0  0  0  0  0
   57.1400   20.4110   44.3280 N   0  0  0  0  0  0  0  0  0  0  0  0
   57.6960   21.5200   43.7690 C   0  0  0  0  0  0  0  0  0  0  0  0
   57.8940   22.6690   44.5390 C   0  0  0  0  0  0  0  0  0  0  0  0
   55.6220   26.6770   45.7190 N   0  0  0  0  0  0  0  0  0  0  0  0
   56.6490   27.6620   45.8880 C   0  0  0  0  0  0  0  0  0  0  0  0
   57.6420   27.4480   46.8500 C   0  0  0  0  0  0  0  0  0  0  0  0
   58.6420   28.4020   47.0630 C   0  0  0  0  0  0  0  0  0  0  0  0
   58.6500   29.6020   46.3300 C   0  0  0  0  0  0  0  0  0  0  0  0
   59.7020   30.6220   46.5460 C   0  0  0  0  0  0  0  0  0  0  0  0
   60.9480   30.3200   46.9950 N   0  0  0  0  0  0  0  0  0  0  0  0
   61.7170   31.4330   47.1090 C   0  0  0  0  0  0  0  0  0  0  0  0
   63.0430   31.4340   47.5470 C   0  0  0  0  0  0  0  0  0  0  0  0
   63.7290   32.6600   47.6190 C   0  0  0  0  0  0  0  0  0  0  0  0
   63.0860   33.8610   47.2560 C   0  0  0  0  0  0  0  0  0  0  0  0
   61.7520   33.8470   46.8180 C   0  0  0  0  0  0  0  0  0  0  0  0
   61.0960   32.6200   46.7550 C   0  0  0  0  0  0  0  0  0  0  0  0
   59.5240   32.2920   46.2780 S   0  0  0  0  0  0  0  0  0  0  0  0
   57.6310   29.8290   45.3880 C   0  0  0  0  0  0  0  0  0  0  0  0
   56.6340   28.8720   45.1770 C   0  0  0  0  0  0  0  0  0  0  0  0
   56.5565   25.3799   47.8134 H   0  0  0  0  0  0  0  0  0  0  0  0
   55.6727   23.8390   47.4145 H   0  0  0  0  0  0  0  0  0  0  0  0
   58.3594   24.6066   46.2011 H   0  0  0  0  0  0  0  0  0  0  0  0
   58.1559   23.5885   47.6927 H   0  0  0  0  0  0  0  0  0  0  0  0
   56.6415   21.4958   47.4961 H   0  0  0  0  0  0  0  0  0  0  0  0
   56.3138   19.4772   46.0598 H   0  0  0  0  0  0  0  0  0  0  0  0
   56.9970   19.5590   43.7390 H   0  0  0  0  0  0  0  0  0  0  0  0
   57.9901   21.5120   42.7091 H   0  0  0  0  0  0  0  0  0  0  0  0
   58.3431   23.5663   44.0882 H   0  0  0  0  0  0  0  0  0  0  0  0
   57.6361   26.5219   47.4436 H   0  0  0  0  0  0  0  0  0  0  0  0
   59.4278   28.2124   47.8091 H   0  0  0  0  0  0  0  0  0  0  0  0
   63.5411   30.4949   47.8300 H   0  0  0  0  0  0  0  0  0  0  0  0
   64.7743   32.6818   47.9609 H   0  0  0  0  0  0  0  0  0  0  0  0
   63.6322   34.8139   47.3162 H   0  0  0  0  0  0  0  0  0  0  0  0
   61.2400   34.7779   46.5330 H   0  0  0  0  0  0  0  0  0  0  0  0
   57.6182   30.7666   44.8128 H   0  0  0  0  0  0  0  0  0  0  0  0
   55.8329   29.0685   44.4493 H   0  0  0  0  0  0  0  0  0  0  0  0
  1  2  2  0
  2  3  1  0
  3  4  1  0
  4  5  1  0
  5  6  2  0
  6  7  1  0
  7  8  2  0
  8  9  1  0
  9 10  2  0
  2 11  1  0
 11 12  1  0
 12 13  2  0
 13 14  1  0
 14 15  2  0
 15 16  1  0
 16 17  2  0
 17 18  1  0
 18 19  2  0
 19 20  1  0
 20 21  2  0
 21 22  1  0
 22 23  2  0
 23 24  1  0
 15 25  1  0
 25 26  2  0
 10  5  1  0
 26 12  1  0
 24 16  1  0
 23 18  1  0
  3 27  1  0
  3 28  1  0
  4 29  1  0
  4 30  1  0
  6 31  1  0
  7 32  1  0
  8 33  1  0
  9 34  1  0
 10 35  1  0
 13 36  1  0
 14 37  1  0
 19 38  1  0
 20 39  1  0
 21 40  1  0
 22 41  1  0
 25 42  1  0
 26 43  1  0
M  CHG  2   8   1  11  -1
M  END
>  <UniqueID>  (9) 
9

>  <SMILES>  (9) 
O=C(CCc1cc[nH+]cc1)[N-]c1ccc(-c2nc3ccccc3s2)cc1

>  <Energy>  (9) 
86.25940371272071

>  <Genealogy>  (9) 
O=C(CCc1cc[nH+]cc1)[N-]c1ccc(-c2nc3ccccc3s2)cc1 (protonated)
O=C(CCc1cc[nH+]cc1)[N-]c1ccc(-c2nc3ccccc3s2)cc1 (3D coordinates assigned)
O=C(CCc1cc[nH+]cc1)[N-]c1ccc(-c2nc3ccccc3s2)cc1 (optimized conformer: 86.25940371272071 kcal/mol)

>  <smiles>  (9) 
O=C(CCc1ccncc1)Nc1ccc(-c2nc3ccccc3s2)cc1

>  <score_type>  (9) 
oracle

>  <origin>  (9) 
adg

>  <m_score__min__energy>  (9) 
-9.1899999999999995

>  <m_primary>  (9) 
energy

$$$$
9:0
     RDKit          3D

 40 41  0  0  0  0  0  0  0  0999 V2000
   66.4970   31.9480   50.5080 C   0  0  0  0  0  0  0  0  0  0  0  0
   65.0480   31.9130   50.0490 C   0  0  0  0  0  0  0  0  0  0  0  0
   64.6070   33.2380   49.7600 O   0  0  0  0  0  0  0  0  0  0  0  0
   63.5530   33.5510   48.8910 C   0  0  0  0  0  0  0  0  0  0  0  0
   62.3290   33.9450   49.4440 C   0  0  0  0  0  0  0  0  0  0  0  0
   61.2490   34.2680   48.6190 C   0  0  0  0  0  0  0  0  0  0  0  0
   61.3740   34.2110   47.2200 C   0  0  0  0  0  0  0  0  0  0  0  0
   60.2160   34.5530   46.3590 C   0  0  0  0  0  0  0  0  0  0  0  0
   60.0330   35.7550   46.0230 O   0  0  0  0  0  0  0  0  0  0  0  0
   59.3130   33.5390   45.8880 N   0  0  0  0  0  0  0  0  0  0  0  0
   58.1250   33.8580   45.1000 C   0  0  0  0  0  0  0  0  0  0  0  0
   57.6930   32.6590   44.2990 C   0  0  0  0  0  0  0  0  0  0  0  0
   57.8340   32.6630   42.9030 C   0  0  0  0  0  0  0  0  0  0  0  0
   57.4150   31.5630   42.1500 C   0  0  0  0  0  0  0  0  0  0  0  0
   56.8460   30.4560   42.7840 C   0  0  0  0  0  0  0  0  0  0  0  0
   56.6900   30.4360   44.1760 C   0  0  0  0  0  0  0  0  0  0  0  0
   56.1090   29.3020   44.7630 O   0  0  0  0  0  0  0  0  0  0  0  0
   56.8420   28.1810   45.2460 C   0  0  0  0  0  0  0  0  0  0  0  0
   57.1170   31.5450   44.9320 C   0  0  0  0  0  0  0  0  0  0  0  0
   62.6000   33.8040   46.6660 C   0  0  0  0  0  0  0  0  0  0  0  0
   63.6810   33.4800   47.4910 C   0  0  0  0  0  0  0  0  0  0  0  0
   66.5334   31.9489   51.6074 H   0  0  0  0  0  0  0  0  0  0  0  0
   67.0247   31.0623   50.1243 H   0  0  0  0  0  0  0  0  0  0  0  0
   66.9813   32.8581   50.1243 H   0  0  0  0  0  0  0  0  0  0  0  0
   64.9654   31.2937   49.1436 H   0  0  0  0  0  0  0  0  0  0  0  0
   64.4221   31.4846   50.8457 H   0  0  0  0  0  0  0  0  0  0  0  0
   62.2167   34.0007   50.5368 H   0  0  0  0  0  0  0  0  0  0  0  0
   60.2915   34.5699   49.0684 H   0  0  0  0  0  0  0  0  0  0  0  0
   59.5330   32.5300   46.0440 H   0  0  0  0  0  0  0  0  0  0  0  0
   57.3100   34.1557   45.7762 H   0  0  0  0  0  0  0  0  0  0  0  0
   58.3627   34.6821   44.4113 H   0  0  0  0  0  0  0  0  0  0  0  0
   58.2761   33.5354   42.3994 H   0  0  0  0  0  0  0  0  0  0  0  0
   57.5334   31.5688   41.0564 H   0  0  0  0  0  0  0  0  0  0  0  0
   56.5179   29.5933   42.1856 H   0  0  0  0  0  0  0  0  0  0  0  0
   56.8382   28.1868   46.3460 H   0  0  0  0  0  0  0  0  0  0  0  0
   56.3753   27.2536   44.8826 H   0  0  0  0  0  0  0  0  0  0  0  0
   57.8787   28.2366   44.8826 H   0  0  0  0  0  0  0  0  0  0  0  0
   56.9987   31.5388   46.0256 H   0  0  0  0  0  0  0  0  0  0  0  0
   62.7098   33.7399   45.5734 H   0  0  0  0  0  0  0  0  0  0  0  0
   64.6364   33.1680   47.0439 H   0  0  0  0  0  0  0  0  0  0  0  0
  1  2  1  0
  2  3  1  0
  3  4  1  0
  4  5  2  0
  5  6  1  0
  6  7  2  0
  7  8  1  0
  8  9  2  0
  8 10  1  0
 10 11  1  0
 11 12  1  0
 12 13  2  0
 13 14  1  0
 14 15  2  0
 15 16  1  0
 16 17  1  0
 17 18  1  0
 16 19  2  0
  7 20  1  0
 20 21  2  0
 21  4  1  0
 19 12  1  0
  1 22  1  0
  1 23  1  0
  1 24  1  0
  2 25  1  0
  2 26  1  0
  5 27  1  0
  6 28  1  0
 10 29  1  0
 11 30  1  0
 11 31  1  0
 13 32  1  0
 14 33  1  0
 15 34  1  0
 18 35  1  0
 18 36  1  0
 18 37  1  0
 19 38  1  0
 20 39  1  0
 21 40  1  0
M  END
>  <UniqueID>  (10) 
10

>  <SMILES>  (10) 
CCOc1ccc(C(=O)NCc2cccc(OC)c2)cc1

>  <Energy>  (10) 
36.056147855959914

>  <Genealogy>  (10) 
CCOc1ccc(C(=O)NCc2cccc(OC)c2)cc1 (3D coordinates assigned)
CCOc1ccc(C(=O)NCc2cccc(OC)c2)cc1 (optimized conformer: 36.056147855959914 kcal/mol)

>  <smiles>  (10) 
CCOc1ccc(C(=O)NCc2cccc(OC)c2)cc1

>  <score_type>  (10) 
oracle

>  <origin>  (10) 
adg

>  <m_score__min__energy>  (10) 
-6.9000000000000004

>  <m_primary>  (10) 
energy

$$$$
10:0
     RDKit          3D

 44 46  0  0  0  0  0  0  0  0999 V2000
   57.0050   24.2830   43.7040 C   0  0  0  0  0  0  0  0  0  0  0  0
   56.6020   24.4390   44.9640 C   0  0  0  0  0  0  0  0  0  0  0  0
   56.5360   25.7560   45.6220 C   0  0  0  0  0  0  0  0  0  0  0  0
   55.5460   26.0150   46.3600 O   0  0  0  0  0  0  0  0  0  0  0  0
   57.5710   26.7390   45.4600 N   0  0  0  0  0  0  0  0  0  0  0  0
   57.2120   28.1420   45.2260 C   0  0  0  0  0  0  0  0  0  0  0  0
   57.7570   28.9940   46.3740 C   0  0  0  0  0  0  0  0  0  0  0  0
   59.3130   28.8590   46.5520 C   0  0  0  0  0  0  0  0  0  0  0  0
   59.6720   28.7120   48.0610 C   0  0  0  0  0  0  0  0  0  0  0  0
   59.3390   29.9750   48.8730 C   0  0  0  0  0  0  0  0  0  0  0  0
   60.0240   31.2040   48.2740 C   0  0  0  0  0  0  0  0  0  0  0  0
   59.7210   31.2940   46.8420 N   0  0  0  0  0  0  0  0  0  0  0  0
   59.3270   32.5480   46.2550 C   0  0  0  0  0  0  0  0  0  0  0  0
   58.2130   32.6200   45.4050 C   0  0  0  0  0  0  0  0  0  0  0  0
   57.8450   33.8510   44.8560 C   0  0  0  0  0  0  0  0  0  0  0  0
   58.5620   34.9690   45.1460 N   0  0  0  0  0  0  0  0  0  0  0  0
   59.6460   34.9280   45.9650 C   0  0  0  0  0  0  0  0  0  0  0  0
   60.0490   33.7180   46.5330 C   0  0  0  0  0  0  0  0  0  0  0  0
   60.0170   30.1290   45.9990 C   0  0  0  0  0  0  0  0  0  0  0  0
   59.8710   27.6230   45.7730 C   0  0  0  0  0  0  0  0  0  0  0  0
   58.9480   26.3990   45.8540 C   0  0  0  0  0  0  0  0  0  0  0  0
   57.0369   23.2784   43.2571 H   0  0  0  0  0  0  0  0  0  0  0  0
   57.3059   25.1588   43.1103 H   0  0  0  0  0  0  0  0  0  0  0  0
   56.3062   23.5479   45.5371 H   0  0  0  0  0  0  0  0  0  0  0  0
   57.6494   28.4809   44.2753 H   0  0  0  0  0  0  0  0  0  0  0  0
   56.1177   28.2421   45.1760 H   0  0  0  0  0  0  0  0  0  0  0  0
   57.5171   30.0485   46.1728 H   0  0  0  0  0  0  0  0  0  0  0  0
   57.2868   28.6365   47.3019 H   0  0  0  0  0  0  0  0  0  0  0  0
   59.1056   27.8659   48.4772 H   0  0  0  0  0  0  0  0  0  0  0  0
   60.7573   28.5469   48.1311 H   0  0  0  0  0  0  0  0  0  0  0  0
   58.2501   30.1306   48.8669 H   0  0  0  0  0  0  0  0  0  0  0  0
   59.7011   29.8371   49.9025 H   0  0  0  0  0  0  0  0  0  0  0  0
   59.6593   32.1090   48.7819 H   0  0  0  0  0  0  0  0  0  0  0  0
   61.1120   31.1153   48.4098 H   0  0  0  0  0  0  0  0  0  0  0  0
   57.6338   31.7142   45.1726 H   0  0  0  0  0  0  0  0  0  0  0  0
   56.9735   33.9156   44.1879 H   0  0  0  0  0  0  0  0  0  0  0  0
   60.2066   35.8496   46.1806 H   0  0  0  0  0  0  0  0  0  0  0  0
   60.9272   33.6824   47.1944 H   0  0  0  0  0  0  0  0  0  0  0  0
   59.6609   30.3231   44.9765 H   0  0  0  0  0  0  0  0  0  0  0  0
   61.1038   29.9594   45.9984 H   0  0  0  0  0  0  0  0  0  0  0  0
   59.9936   27.9007   44.7157 H   0  0  0  0  0  0  0  0  0  0  0  0
   60.8288   27.3453   46.2372 H   0  0  0  0  0  0  0  0  0  0  0  0
   59.3302   25.6171   45.1813 H   0  0  0  0  0  0  0  0  0  0  0  0
   58.9331   26.0443   46.8951 H   0  0  0  0  0  0  0  0  0  0  0  0
  1  2  2  0
  2  3  1  0
  3  4  2  0
  3  5  1  0
  5  6  1  0
  6  7  1  0
  7  8  1  0
  8  9  1  0
  9 10  1  0
 10 11  1  0
 11 12  1  0
 12 13  1  0
 13 14  2  0
 14 15  1  0
 15 16  2  0
 16 17  1  0
 17 18  2  0
 12 19  1  0
  8 20  1  0
 20 21  1  0
 21  5  1  0
 19  8  1  0
 18 13  1  0
  1 22  1  0
  1 23  1  0
  2 24  1  0
  6 25  1  0
  6 26  1  0
  7 27  1  0
  7 28  1  0
  9 29  1  0
  9 30  1  0
 10 31  1  0
 10 32  1  0
 11 33  1  0
 11 34  1  0
 14 35  1  0
 15 36  1  0
 17 37  1  0
 18 38  1  0
 19 39  1  0
 19 40  1  0
 20 41  1  0
 20 42  1  0
 21 43  1  0
 21 44  1  0
M  END
>  <UniqueID>  (11) 
11

>  <SMILES>  (11) 
C=CC(=O)N1CCC2(CCCN(c3ccncc3)C2)CC1

>  <Energy>  (11) 
54.83010685932919

>  <Genealogy>  (11) 
C=CC(=O)N1CCC2(CCCN(c3ccncc3)C2)CC1 (3D coordinates assigned)
C=CC(=O)N1CCC2(CCCN(c3ccncc3)C2)CC1 (nonaromatic ring conformer: 54.83010685932919 kcal/mol)

>  <smiles>  (11) 
C=CC(=O)N1CCC2(CCCN(c3ccncc3)C2)CC1

>  <score_type>  (11) 
oracle

>  <origin>  (11) 
adg

>  <m_score__min__energy>  (11) 
-7.2599999999999998

>  <m_primary>  (11) 
energy

$$$$
11:0
     RDKit          3D

 34 35  0  0  0  0  0  0  0  0999 V2000
   61.4820   33.6930   48.8140 C   0  0  0  0  0  0  0  0  0  0  0  0
   60.2150   34.2590   48.9810 C   0  0  0  0  0  0  0  0  0  0  0  0
   59.4490   34.6050   47.8630 C   0  0  0  0  0  0  0  0  0  0  0  0
   59.9540   34.3890   46.5740 C   0  0  0  0  0  0  0  0  0  0  0  0
   58.9880   34.8780   45.1430 S   0  0  0  0  0  0  0  0  0  0  0  0
   57.4780   33.9460   45.5910 C   0  0  0  0  0  0  0  0  0  0  0  0
   57.7750   32.4760   45.9280 C   0  0  0  0  0  0  0  0  0  0  0  0
   57.2080   31.5480   44.9240 N   0  0  0  0  0  0  0  0  0  0  0  0
   57.7670   31.8370   43.5880 C   0  0  0  0  0  0  0  0  0  0  0  0
   57.0090   31.0550   42.5020 C   0  0  0  0  0  0  0  0  0  0  0  0
   56.5170   29.6840   42.9930 C   0  0  0  0  0  0  0  0  0  0  0  0
   57.4010   29.1510   44.1170 C   0  0  0  0  0  0  0  0  0  0  0  0
   57.4270   30.1270   45.3120 C   0  0  0  0  0  0  0  0  0  0  0  0
   61.2310   33.8390   46.4090 C   0  0  0  0  0  0  0  0  0  0  0  0
   61.9900   33.4830   47.5280 C   0  0  0  0  0  0  0  0  0  0  0  0
   62.0796   33.4127   49.6940 H   0  0  0  0  0  0  0  0  0  0  0  0
   59.8198   34.4325   49.9928 H   0  0  0  0  0  0  0  0  0  0  0  0
   58.4503   35.0466   47.9957 H   0  0  0  0  0  0  0  0  0  0  0  0
   57.0156   34.4229   46.4678 H   0  0  0  0  0  0  0  0  0  0  0  0
   56.8042   33.9612   44.7216 H   0  0  0  0  0  0  0  0  0  0  0  0
   58.8652   32.3343   45.9659 H   0  0  0  0  0  0  0  0  0  0  0  0
   57.3087   32.2505   46.8984 H   0  0  0  0  0  0  0  0  0  0  0  0
   57.6792   32.9145   43.3850 H   0  0  0  0  0  0  0  0  0  0  0  0
   58.8235   31.5311   43.5724 H   0  0  0  0  0  0  0  0  0  0  0  0
   56.1388   31.6480   42.1839 H   0  0  0  0  0  0  0  0  0  0  0  0
   57.7073   30.8793   41.6704 H   0  0  0  0  0  0  0  0  0  0  0  0
   55.4863   29.7844   43.3640 H   0  0  0  0  0  0  0  0  0  0  0  0
   56.5590   28.9768   42.1515 H   0  0  0  0  0  0  0  0  0  0  0  0
   57.0079   28.1805   44.4540 H   0  0  0  0  0  0  0  0  0  0  0  0
   58.4260   29.0402   43.7334 H   0  0  0  0  0  0  0  0  0  0  0  0
   56.6367   29.8333   46.0185 H   0  0  0  0  0  0  0  0  0  0  0  0
   58.4304   30.0647   45.7585 H   0  0  0  0  0  0  0  0  0  0  0  0
   61.6374   33.6869   45.3982 H   0  0  0  0  0  0  0  0  0  0  0  0
   62.9872   33.0375   47.3968 H   0  0  0  0  0  0  0  0  0  0  0  0
  1  2  2  0
  2  3  1  0
  3  4  2  0
  4  5  1  0
  5  6  1  0
  6  7  1  0
  7  8  1  0
  8  9  1  0
  9 10  1  0
 10 11  1  0
 11 12  1  0
 12 13  1  0
  4 14  1  0
 14 15  2  0
 15  1  1  0
 13  8  1  0
  1 16  1  0
  2 17  1  0
  3 18  1  0
  6 19  1  0
  6 20  1  0
  7 21  1  0
  7 22  1  0
  9 23  1  0
  9 24  1  0
 10 25  1  0
 10 26  1  0
 11 27  1  0
 11 28  1  0
 12 29  1  0
 12 30  1  0
 13 31  1  0
 13 32  1  0
 14 33  1  0
 15 34  1  0
M  END
>  <UniqueID>  (12) 
12

>  <SMILES>  (12) 
c1ccc(SCCN2CCCCC2)cc1

>  <Energy>  (12) 
31.91721444086154

>  <Genealogy>  (12) 
c1ccc(SCCN2CCCCC2)cc1 (3D coordinates assigned)
c1ccc(SCCN2CCCCC2)cc1 (nonaromatic ring conformer: 31.91721444086154 kcal/mol)

>  <smiles>  (12) 
c1ccc(SCCN2CCCCC2)cc1

>  <score_type>  (12) 
oracle

>  <origin>  (12) 
adg

>  <m_score__min__energy>  (12) 
-6.6399999999999997

>  <m_primary>  (12) 
energy

$$$$
12:0
     RDKit          3D

 36 38  0  0  0  0  0  0  0  0999 V2000
   57.7080   33.8250   45.0490 C   0  0  0  0  0  0  0  0  0  0  0  0
   57.4230   33.2740   46.3010 C   0  0  0  0  0  0  0  0  0  0  0  0
   58.2900   33.4930   47.3760 C   0  0  0  0  0  0  0  0  0  0  0  0
   59.4470   34.2730   47.2070 C   0  0  0  0  0  0  0  0  0  0  0  0
   60.3880   34.4930   48.3650 C   0  0  0  0  0  0  0  0  0  0  0  0
   60.0500   33.5750   49.5410 C   0  0  0  0  0  0  0  0  0  0  0  0
   61.5650   33.0870   50.4410 S   0  0  0  0  0  0  0  0  0  0  0  0
   62.5070   32.8000   48.9420 C   0  0  0  0  0  0  0  0  0  0  0  0
   63.6820   33.4050   48.6830 N   0  0  0  0  0  0  0  0  0  0  0  0
   64.1260   32.8720   47.5560 N   0  0  0  0  0  0  0  0  0  0  0  0
   63.2410   31.9480   47.1450 C   0  0  0  0  0  0  0  0  0  0  0  0
   62.1990   31.8840   47.9960 N   0  0  0  0  0  0  0  0  0  0  0  0
   61.0730   30.9940   47.9290 C   0  0  0  0  0  0  0  0  0  0  0  0
   60.3090   30.8940   46.7540 C   0  0  0  0  0  0  0  0  0  0  0  0
   59.2220   30.0180   46.6910 C   0  0  0  0  0  0  0  0  0  0  0  0
   58.8880   29.2370   47.8000 C   0  0  0  0  0  0  0  0  0  0  0  0
   59.6440   29.3270   48.9720 C   0  0  0  0  0  0  0  0  0  0  0  0
   60.7370   30.1970   49.0350 C   0  0  0  0  0  0  0  0  0  0  0  0
   59.7330   34.8120   45.9420 C   0  0  0  0  0  0  0  0  0  0  0  0
   58.8640   34.5900   44.8680 C   0  0  0  0  0  0  0  0  0  0  0  0
   57.0224   33.6568   44.2054 H   0  0  0  0  0  0  0  0  0  0  0  0
   56.5160   32.6676   46.4411 H   0  0  0  0  0  0  0  0  0  0  0  0
   58.0655   33.0527   48.3587 H   0  0  0  0  0  0  0  0  0  0  0  0
   61.4167   34.2870   48.0343 H   0  0  0  0  0  0  0  0  0  0  0  0
   60.2871   35.5359   48.6998 H   0  0  0  0  0  0  0  0  0  0  0  0
   59.3762   34.1052   50.2302 H   0  0  0  0  0  0  0  0  0  0  0  0
   59.5639   32.6682   49.1518 H   0  0  0  0  0  0  0  0  0  0  0  0
   65.0220   33.1290   47.0880 H   0  0  0  0  0  0  0  0  0  0  0  0
   63.3519   31.3310   46.2411 H   0  0  0  0  0  0  0  0  0  0  0  0
   60.5679   31.5085   45.8791 H   0  0  0  0  0  0  0  0  0  0  0  0
   58.6290   29.9434   45.7675 H   0  0  0  0  0  0  0  0  0  0  0  0
   58.0296   28.5509   47.7508 H   0  0  0  0  0  0  0  0  0  0  0  0
   59.3791   28.7131   49.8455 H   0  0  0  0  0  0  0  0  0  0  0  0
   61.3364   30.2572   49.9554 H   0  0  0  0  0  0  0  0  0  0  0  0
   60.6438   35.4111   45.7950 H   0  0  0  0  0  0  0  0  0  0  0  0
   59.0907   35.0178   43.8803 H   0  0  0  0  0  0  0  0  0  0  0  0
  1  2  2  0
  2  3  1  0
  3  4  2  0
  4  5  1  0
  5  6  1  0
  6  7  1  0
  7  8  1  0
  8  9  2  0
  9 10  1  0
 10 11  2  0
 11 12  1  0
 12 13  1  0
 13 14  2  0
 14 15  1  0
 15 16  2  0
 16 17  1  0
 17 18  2  0
  4 19  1  0
 19 20  2  0
 20  1  1  0
 12  8  1  0
 18 13  1  0
  1 21  1  0
  2 22  1  0
  3 23  1  0
  5 24  1  0
  5 25  1  0
  6 26  1  0
  6 27  1  0
 10 28  1  0
 11 29  1  0
 14 30  1  0
 15 31  1  0
 16 32  1  0
 17 33  1  0
 18 34  1  0
 19 35  1  0
 20 36  1  0
M  CHG  1  10   1
M  END
>  <UniqueID>  (13) 
13

>  <SMILES>  (13) 
c1ccc(CCSc2n[nH+]cn2-c2ccccc2)cc1

>  <Energy>  (13) 
68.74176146950651

>  <Genealogy>  (13) 
c1ccc(CCSc2n[nH+]cn2-c2ccccc2)cc1 (protonated)
c1ccc(CCSc2n[nH+]cn2-c2ccccc2)cc1 (3D coordinates assigned)
c1ccc(CCSc2n[nH+]cn2-c2ccccc2)cc1 (optimized conformer: 68.74176146950651 kcal/mol)

>  <smiles>  (13) 
c1ccc(CCSc2nncn2-c2ccccc2)cc1

>  <score_type>  (13) 
oracle

>  <origin>  (13) 
adg

>  <m_score__min__energy>  (13) 
-6.3200000000000003

>  <m_primary>  (13) 
energy

$$$$
13:0
     RDKit          3D

 38 39  0  0  0  0  0  0  0  0999 V2000
   63.0280   31.7350   48.0700 C   0  0  0  0  0  0  0  0  0  0  0  0
   62.0530   32.4690   47.1440 C   0  0  0  0  0  0  0  0  0  0  0  0
   62.6030   33.8360   46.7210 C   0  0  0  0  0  0  0  0  0  0  0  0
   60.7230   32.6010   47.7690 N   0  0  0  0  0  0  0  0  0  0  0  0
   59.9070   31.4190   48.0940 C   0  0  0  0  0  0  0  0  0  0  0  0
   59.6790   30.5720   46.8680 C   0  0  0  0  0  0  0  0  0  0  0  0
   60.7060   29.7520   46.3710 C   0  0  0  0  0  0  0  0  0  0  0  0
   60.5000   28.9840   45.2210 C   0  0  0  0  0  0  0  0  0  0  0  0
   59.2740   29.0340   44.5550 C   0  0  0  0  0  0  0  0  0  0  0  0
   58.2500   29.8570   45.0350 C   0  0  0  0  0  0  0  0  0  0  0  0
   56.5820   29.9430   44.1090 Br  0  0  0  0  0  0  0  0  0  0  0  0
   58.4510   30.6240   46.1860 C   0  0  0  0  0  0  0  0  0  0  0  0
   60.2850   33.8910   48.2380 C   0  0  0  0  0  0  0  0  0  0  0  0
   60.2330   34.1190   49.4770 O   0  0  0  0  0  0  0  0  0  0  0  0
   59.7820   34.9350   47.2840 C   0  0  0  0  0  0  0  0  0  0  0  0
   58.9010   34.3020   46.2550 C   0  0  0  0  0  0  0  0  0  0  0  0
   57.6200   33.8130   46.4710 C   0  0  0  0  0  0  0  0  0  0  0  0
   57.0150   33.3250   45.3070 C   0  0  0  0  0  0  0  0  0  0  0  0
   57.8090   33.4410   44.1740 C   0  0  0  0  0  0  0  0  0  0  0  0
   59.2660   34.1510   44.6210 S   0  0  0  0  0  0  0  0  0  0  0  0
   62.7605   31.9364   49.1178 H   0  0  0  0  0  0  0  0  0  0  0  0
   62.9716   30.6533   47.8785 H   0  0  0  0  0  0  0  0  0  0  0  0
   64.0520   32.0883   47.8785 H   0  0  0  0  0  0  0  0  0  0  0  0
   61.9395   31.8616   46.2340 H   0  0  0  0  0  0  0  0  0  0  0  0
   62.8414   34.4284   47.6167 H   0  0  0  0  0  0  0  0  0  0  0  0
   63.5144   33.6950   46.1214 H   0  0  0  0  0  0  0  0  0  0  0  0
   61.8479   34.3655   46.1214 H   0  0  0  0  0  0  0  0  0  0  0  0
   60.4280   30.8193   48.8548 H   0  0  0  0  0  0  0  0  0  0  0  0
   58.9321   31.7576   48.4747 H   0  0  0  0  0  0  0  0  0  0  0  0
   61.6758   29.7141   46.8887 H   0  0  0  0  0  0  0  0  0  0  0  0
   61.3056   28.3390   44.8402 H   0  0  0  0  0  0  0  0  0  0  0  0
   59.1133   28.4260   43.6525 H   0  0  0  0  0  0  0  0  0  0  0  0
   57.6442   31.2715   46.5600 H   0  0  0  0  0  0  0  0  0  0  0  0
   59.2083   35.6911   47.8401 H   0  0  0  0  0  0  0  0  0  0  0  0
   60.6382   35.4114   46.7841 H   0  0  0  0  0  0  0  0  0  0  0  0
   57.1305   33.8094   47.4561 H   0  0  0  0  0  0  0  0  0  0  0  0
   56.0047   32.8902   45.2913 H   0  0  0  0  0  0  0  0  0  0  0  0
   57.5323   33.1229   43.1580 H   0  0  0  0  0  0  0  0  0  0  0  0
  1  2  1  0
  2  3  1  0
  2  4  1  0
  4  5  1  0
  5  6  1  0
  6  7  2  0
  7  8  1  0
  8  9  2  0
  9 10  1  0
 10 11  1  0
 10 12  2  0
  4 13  1  0
 13 14  2  0
 13 15  1  0
 15 16  1  0
 16 17  2  0
 17 18  1  0
 18 19  2  0
 19 20  1  0
 12  6  1  0
 20 16  1  0
  1 21  1  0
  1 22  1  0
  1 23  1  0
  2 24  1  0
  3 25  1  0
  3 26  1  0
  3 27  1  0
  5 28  1  0
  5 29  1  0
  7 30  1  0
  8 31  1  0
  9 32  1  0
 12 33  1  0
 15 34  1  0
 15 35  1  0
 17 36  1  0
 18 37  1  0
 19 38  1  0
M  END
>  <UniqueID>  (14) 
14

>  <SMILES>  (14) 
CC(C)N(Cc1cccc(Br)c1)C(=O)Cc1cccs1

>  <Energy>  (14) 
54.794035041885174

>  <Genealogy>  (14) 
CC(C)N(Cc1cccc(Br)c1)C(=O)Cc1cccs1 (3D coordinates assigned)
CC(C)N(Cc1cccc(Br)c1)C(=O)Cc1cccs1 (optimized conformer: 54.794035041885174 kcal/mol)

>  <smiles>  (14) 
CC(C)N(Cc1cccc(Br)c1)C(=O)Cc1cccs1

>  <score_type>  (14) 
oracle

>  <origin>  (14) 
adg

>  <m_score__min__energy>  (14) 
-7.54

>  <m_primary>  (14) 
energy

$$$$
14:0
     RDKit          3D

 30 32  0  0  0  0  0  0  0  0999 V2000
   53.7446   24.5507   45.6831 H   0  0  0  0  0  0  0  0  0  0  0  0
   54.7700   24.9420   45.6090 C   0  0  0  0  0  0  0  0  0  0  0  0
   55.1060   26.2010   46.0010 N   0  0  0  0  0  0  0  0  0  0  0  0
   56.4240   26.4430   45.8380 C   0  0  0  0  0  0  0  0  0  0  0  0
   56.9510   27.6000   46.1150 N   0  0  0  0  0  0  0  0  0  0  0  0
   57.4150   28.5650   45.1620 C   0  0  0  0  0  0  0  0  0  0  0  0
   58.4930   28.3410   44.5480 O   0  0  0  0  0  0  0  0  0  0  0  0
   56.6120   29.7500   44.8020 C   0  0  0  0  0  0  0  0  0  0  0  0
   55.3550   29.6800   44.8630 O   0  0  0  0  0  0  0  0  0  0  0  0
   57.2360   30.9940   44.3150 C   0  0  0  0  0  0  0  0  0  0  0  0
   57.3980   31.3520   42.9790 C   0  0  0  0  0  0  0  0  0  0  0  0
   57.0879   30.7346   42.1231 H   0  0  0  0  0  0  0  0  0  0  0  0
   57.9890   32.5630   42.8800 N   0  0  0  0  0  0  0  0  0  0  0  0
   58.2250   33.0720   42.0000 H   0  0  0  0  0  0  0  0  0  0  0  0
   58.1880   32.9850   44.1410 C   0  0  0  0  0  0  0  0  0  0  0  0
   58.7360   34.2020   44.5420 C   0  0  0  0  0  0  0  0  0  0  0  0
   59.1008   34.9308   43.8032 H   0  0  0  0  0  0  0  0  0  0  0  0
   58.8080   34.4690   45.9210 C   0  0  0  0  0  0  0  0  0  0  0  0
   59.2449   35.4154   46.2724 H   0  0  0  0  0  0  0  0  0  0  0  0
   58.3230   33.5300   46.8570 C   0  0  0  0  0  0  0  0  0  0  0  0
   58.3771   33.7530   47.9328 H   0  0  0  0  0  0  0  0  0  0  0  0
   57.7710   32.3110   46.4230 C   0  0  0  0  0  0  0  0  0  0  0  0
   57.3788   31.5782   47.1435 H   0  0  0  0  0  0  0  0  0  0  0  0
   57.7360   32.0590   45.0480 C   0  0  0  0  0  0  0  0  0  0  0  0
   57.2320   25.1110   45.1820 S   0  0  0  0  0  0  0  0  0  0  0  0
   55.8270   24.1890   45.1070 C   0  0  0  0  0  0  0  0  0  0  0  0
   55.7540   22.7630   44.6740 C   0  0  0  0  0  0  0  0  0  0  0  0
   55.7207   22.1120   45.5601 H   0  0  0  0  0  0  0  0  0  0  0  0
   54.8468   22.6088   44.0714 H   0  0  0  0  0  0  0  0  0  0  0  0
   56.6407   22.5169   44.0714 H   0  0  0  0  0  0  0  0  0  0  0  0
  1  2  1  0
  2  3  1  0
  3  4  1  0
  4  5  2  0
  5  6  1  0
  6  7  2  0
  6  8  1  0
  8  9  2  0
  8 10  1  0
 10 11  2  0
 11 12  1  0
 11 13  1  0
 13 14  1  0
 13 15  1  0
 15 16  2  0
 16 17  1  0
 16 18  1  0
 18 19  1  0
 18 20  2  0
 20 21  1  0
 20 22  1  0
 22 23  1  0
 22 24  2  0
  4 25  1  0
 25 26  1  0
 26 27  1  0
 27 28  1  0
 27 29  1  0
 27 30  1  0
 26  2  2  0
 24 10  1  0
 24 15  1  0
M  CHG  1   3  -1
M  END
>  <UniqueID>  (15) 
15

>  <SMILES>  (15) 
Cc1c[n-]/c(=N/C(=O)C(=O)c2c[nH]c3ccccc23)s1

>  <Energy>  (15) 
104.56899045551755

>  <Genealogy>  (15) 
Cc1c[n-]c(=NC(=O)C(=O)c2c[nH]c3ccccc23)s1 (protonated)
Cc1c[n-]/c(=N/C(=O)C(=O)c2c[nH]c3ccccc23)s1 (cis-trans isomerization)
Cc1c[n-]/c(=N/C(=O)C(=O)c2c[nH]c3ccccc23)s1 (3D coordinates assigned)
Cc1c[n-]/c(=N/C(=O)C(=O)c2c[nH]c3ccccc23)s1 (optimized conformer: 104.56899045551755 kcal/mol)

>  <smiles>  (15) 
Cc1c[nH]c(=NC(=O)C(=O)c2c[nH]c3ccccc23)s1

>  <score_type>  (15) 
oracle

>  <origin>  (15) 
adg

>  <m_score__min__energy>  (15) 
-9.5700000000000003

>  <m_primary>  (15) 
energy

$$$$
15:0
     RDKit          3D

 37 39  0  0  0  0  0  0  0  0999 V2000
   59.7210   35.0120   44.9760 H   0  0  0  0  0  0  0  0  0  0  0  0
   58.7750   34.5830   45.0910 N   0  0  0  0  0  0  0  0  0  0  0  0
   58.6140   33.2980   45.1350 C   0  0  0  0  0  0  0  0  0  0  0  0
   57.7660   32.6980   44.2570 N   0  0  0  0  0  0  0  0  0  0  0  0
   57.5290   31.3630   44.2730 C   0  0  0  0  0  0  0  0  0  0  0  0
   56.8361   30.9220   43.5413 H   0  0  0  0  0  0  0  0  0  0  0  0
   58.1620   30.5410   45.2170 C   0  0  0  0  0  0  0  0  0  0  0  0
   57.9100   29.0780   45.2440 C   0  0  0  0  0  0  0  0  0  0  0  0
   58.9340   28.1710   44.9210 C   0  0  0  0  0  0  0  0  0  0  0  0
   59.9305   28.5483   44.6478 H   0  0  0  0  0  0  0  0  0  0  0  0
   58.6970   26.7940   44.9440 C   0  0  0  0  0  0  0  0  0  0  0  0
   59.5069   26.0953   44.6871 H   0  0  0  0  0  0  0  0  0  0  0  0
   57.4280   26.2960   45.2940 C   0  0  0  0  0  0  0  0  0  0  0  0
   57.1450   24.9210   45.3300 O   0  0  0  0  0  0  0  0  0  0  0  0
   56.4080   24.2250   44.3310 C   0  0  0  0  0  0  0  0  0  0  0  0
   55.6889   23.5459   44.8123 H   0  0  0  0  0  0  0  0  0  0  0  0
   55.8661   24.9486   43.7043 H   0  0  0  0  0  0  0  0  0  0  0  0
   57.0994   23.6426   43.7043 H   0  0  0  0  0  0  0  0  0  0  0  0
   56.4060   27.1980   45.6190 C   0  0  0  0  0  0  0  0  0  0  0  0
   55.1470   26.7260   45.9700 O   0  0  0  0  0  0  0  0  0  0  0  0
   56.6440   28.5760   45.5930 C   0  0  0  0  0  0  0  0  0  0  0  0
   55.8328   29.2738   45.8481 H   0  0  0  0  0  0  0  0  0  0  0  0
   59.0440   31.1370   46.1340 C   0  0  0  0  0  0  0  0  0  0  0  0
   59.5498   30.5136   46.8861 H   0  0  0  0  0  0  0  0  0  0  0  0
   59.2870   32.5200   46.1010 C   0  0  0  0  0  0  0  0  0  0  0  0
   60.2300   33.1190   47.0800 C   0  0  0  0  0  0  0  0  0  0  0  0
   59.7520   33.6470   48.2920 C   0  0  0  0  0  0  0  0  0  0  0  0
   58.6744   33.6233   48.5115 H   0  0  0  0  0  0  0  0  0  0  0  0
   60.6380   34.2020   49.2200 C   0  0  0  0  0  0  0  0  0  0  0  0
   60.2549   34.6177   50.1636 H   0  0  0  0  0  0  0  0  0  0  0  0
   62.0130   34.2300   48.9510 C   0  0  0  0  0  0  0  0  0  0  0  0
   62.9050   34.7800   49.8690 O   0  0  0  0  0  0  0  0  0  0  0  0
   62.7450   34.7160   50.8670 H   0  0  0  0  0  0  0  0  0  0  0  0
   62.4960   33.6980   47.7510 C   0  0  0  0  0  0  0  0  0  0  0  0
   63.5750   33.7162   47.5381 H   0  0  0  0  0  0  0  0  0  0  0  0
   61.6110   33.1430   46.8210 C   0  0  0  0  0  0  0  0  0  0  0  0
   61.9983   32.7227   45.8811 H   0  0  0  0  0  0  0  0  0  0  0  0
  1  2  1  0
  2  3  2  0
  3  4  1  0
  4  5  1  0
  5  6  1  0
  5  7  2  0
  7  8  1  0
  8  9  2  0
  9 10  1  0
  9 11  1  0
 11 12  1  0
 11 13  2  0
 13 14  1  0
 14 15  1  0
 15 16  1  0
 15 17  1  0
 15 18  1  0
 13 19  1  0
 19 20  1  0
 19 21  2  0
 21 22  1  0
  7 23  1  0
 23 24  1  0
 23 25  2  0
 25 26  1  0
 26 27  2  0
 27 28  1  0
 27 29  1  0
 29 30  1  0
 29 31  2  0
 31 32  1  0
 32 33  1  0
 31 34  1  0
 34 35  1  0
 34 36  2  0
 36 37  1  0
 25  3  1  0
 36 26  1  0
 21  8  1  0
M  CHG  2   4  -1  20  -1
M  END
>  <UniqueID>  (16) 
16

>  <SMILES>  (16) 
[H]/N=c1\[n-]cc(-c2ccc(OC)c([O-])c2)cc1-c1ccc(O)cc1

>  <Energy>  (16) 
52.25761630058572

>  <Genealogy>  (16) 
COc1ccc(-c2c[n-]c(=N)c(-c3ccc(O)cc3)c2)cc1[O-] (protonated)
[H]/N=c1\[n-]cc(-c2ccc(OC)c([O-])c2)cc1-c1ccc(O)cc1 (cis-trans isomerization)
[H]/N=c1\[n-]cc(-c2ccc(OC)c([O-])c2)cc1-c1ccc(O)cc1 (3D coordinates assigned)
[H]/N=c1\[n-]cc(-c2ccc(OC)c([O-])c2)cc1-c1ccc(O)cc1 (optimized conformer: 52.25761630058572 kcal/mol)

>  <smiles>  (16) 
COc1ccc(-c2c[nH]c(=N)c(-c3ccc(O)cc3)c2)cc1O

>  <score_type>  (16) 
oracle

>  <origin>  (16) 
adg

>  <m_score__min__energy>  (16) 
-10.779999999999999

>  <m_primary>  (16) 
energy

$$$$
16:0
     RDKit          3D

 37 39  0  0  0  0  0  0  0  0999 V2000
   59.0046   30.6782   46.8277 H   0  0  0  0  0  0  0  0  0  0  0  0
   58.1680   30.5350   46.1280 C   0  0  0  0  0  0  0  0  0  0  0  0
   57.7070   31.5320   45.2400 C   0  0  0  0  0  0  0  0  0  0  0  0
   58.3010   32.9020   45.2020 C   0  0  0  0  0  0  0  0  0  0  0  0
   58.4573   33.2625   46.2294 H   0  0  0  0  0  0  0  0  0  0  0  0
   59.2656   32.8689   44.6743 H   0  0  0  0  0  0  0  0  0  0  0  0
   57.6175   33.5835   44.6743 H   0  0  0  0  0  0  0  0  0  0  0  0
   56.6390   31.2030   44.4640 N   0  0  0  0  0  0  0  0  0  0  0  0
   56.2730   29.6350   44.8750 S   0  0  0  0  0  0  0  0  0  0  0  0
   57.4440   29.3500   46.0180 C   0  0  0  0  0  0  0  0  0  0  0  0
   57.5640   28.1400   46.7820 N   0  0  0  0  0  0  0  0  0  0  0  0
   57.4200   26.9200   46.3520 C   0  0  0  0  0  0  0  0  0  0  0  0
   56.2230   26.3750   46.0120 N   0  0  0  0  0  0  0  0  0  0  0  0
   56.5640   25.1270   45.6350 C   0  0  0  0  0  0  0  0  0  0  0  0
   57.9010   24.9350   45.7450 C   0  0  0  0  0  0  0  0  0  0  0  0
   58.4690   23.7260   45.3570 C   0  0  0  0  0  0  0  0  0  0  0  0
   59.7150   23.5480   45.4250 O   0  0  0  0  0  0  0  0  0  0  0  0
   57.6360   22.7350   44.8880 N   0  0  0  0  0  0  0  0  0  0  0  0
   58.2040   21.4530   44.4380 C   0  0  0  0  0  0  0  0  0  0  0  0
   58.4738   20.8441   45.3134 H   0  0  0  0  0  0  0  0  0  0  0  0
   57.4601   20.9148   43.8322 H   0  0  0  0  0  0  0  0  0  0  0  0
   59.1024   21.6425   43.8322 H   0  0  0  0  0  0  0  0  0  0  0  0
   56.2760   22.9670   44.7630 C   0  0  0  0  0  0  0  0  0  0  0  0
   55.5300   22.0760   44.2690 O   0  0  0  0  0  0  0  0  0  0  0  0
   55.7260   24.1650   45.1650 N   0  0  0  0  0  0  0  0  0  0  0  0
   54.2890   24.4320   45.0090 C   0  0  0  0  0  0  0  0  0  0  0  0
   53.8223   24.5187   46.0013 H   0  0  0  0  0  0  0  0  0  0  0  0
   54.1487   25.3716   44.4545 H   0  0  0  0  0  0  0  0  0  0  0  0
   53.8206   23.6055   44.4545 H   0  0  0  0  0  0  0  0  0  0  0  0
   58.4680   26.0650   46.2160 N   0  0  0  0  0  0  0  0  0  0  0  0
   59.8870   26.3630   46.4350 C   0  0  0  0  0  0  0  0  0  0  0  0
   60.4922   25.5034   46.1112 H   0  0  0  0  0  0  0  0  0  0  0  0
   60.0501   26.5578   47.5053 H   0  0  0  0  0  0  0  0  0  0  0  0
   60.2990   27.5960   45.6390 C   0  0  0  0  0  0  0  0  0  0  0  0
   60.5697   28.4062   46.3320 H   0  0  0  0  0  0  0  0  0  0  0  0
   61.1641   27.3511   45.0053 H   0  0  0  0  0  0  0  0  0  0  0  0
   59.4604   27.9204   45.0053 H   0  0  0  0  0  0  0  0  0  0  0  0
  1  2  1  0
  2  3  1  0
  3  4  1  0
  4  5  1  0
  4  6  1  0
  4  7  1  0
  3  8  2  0
  8  9  1  0
  9 10  1  0
 10 11  1  0
 11 12  2  0
 12 13  1  0
 13 14  1  0
 14 15  2  0
 15 16  1  0
 16 17  2  0
 16 18  1  0
 18 19  1  0
 19 20  1  0
 19 21  1  0
 19 22  1  0
 18 23  1  0
 23 24  2  0
 23 25  1  0
 25 26  1  0
 26 27  1  0
 26 28  1  0
 26 29  1  0
 15 30  1  0
 30 31  1  0
 31 32  1  0
 31 33  1  0
 31 34  1  0
 34 35  1  0
 34 36  1  0
 34 37  1  0
 10  2  2  0
 30 12  1  0
 25 14  1  0
M  CHG  1  13  -1
M  END
>  <UniqueID>  (17) 
17

>  <SMILES>  (17) 
CCn1/c(=N/c2cc(C)ns2)[n-]c2c1c(=O)n(C)c(=O)n2C

>  <Energy>  (17) 
117.1322942798244

>  <Genealogy>  (17) 
CCn1c(=Nc2cc(C)ns2)[n-]c2c1c(=O)n(C)c(=O)n2C (protonated)
CCn1/c(=N/c2cc(C)ns2)[n-]c2c1c(=O)n(C)c(=O)n2C (cis-trans isomerization)
CCn1/c(=N/c2cc(C)ns2)[n-]c2c1c(=O)n(C)c(=O)n2C (3D coordinates assigned)
CCn1/c(=N/c2cc(C)ns2)[n-]c2c1c(=O)n(C)c(=O)n2C (optimized conformer: 117.1322942798244 kcal/mol)

>  <smiles>  (17) 
CCn1c(=Nc2cc(C)ns2)[nH]c2c1c(=O)n(C)c(=O)n2C

>  <score_type>  (17) 
oracle

>  <origin>  (17) 
adg

>  <m_score__min__energy>  (17) 
-7.79

>  <m_primary>  (17) 
energy

$$$$
17:0
     RDKit          3D

 46 47  0  0  0  0  0  0  0  0999 V2000
   60.8114   31.6429   47.3183 H   0  0  0  0  0  0  0  0  0  0  0  0
   60.3320   30.6540   47.2710 C   0  0  0  0  0  0  0  0  0  0  0  0
   60.7660   29.7110   46.3390 C   0  0  0  0  0  0  0  0  0  0  0  0
   61.5889   29.9574   45.6519 H   0  0  0  0  0  0  0  0  0  0  0  0
   60.1580   28.4540   46.2760 C   0  0  0  0  0  0  0  0  0  0  0  0
   60.5007   27.7157   45.5361 H   0  0  0  0  0  0  0  0  0  0  0  0
   59.1090   28.1300   47.1560 C   0  0  0  0  0  0  0  0  0  0  0  0
   58.4520   26.8910   47.1280 O   0  0  0  0  0  0  0  0  0  0  0  0
   57.8190   26.3240   45.9840 C   0  0  0  0  0  0  0  0  0  0  0  0
   57.9497   25.2319   46.0015 H   0  0  0  0  0  0  0  0  0  0  0  0
   58.2775   26.7452   45.0772 H   0  0  0  0  0  0  0  0  0  0  0  0
   56.3560   26.6460   45.9830 C   0  0  0  0  0  0  0  0  0  0  0  0
   55.5420   25.8310   46.4930 O   0  0  0  0  0  0  0  0  0  0  0  0
   55.8970   27.8290   45.3140 N   0  0  0  0  0  0  0  0  0  0  0  0
   56.6190   28.8410   44.9260 C   0  0  0  0  0  0  0  0  0  0  0  0
   56.3030   30.1110   45.2390 N   0  0  0  0  0  0  0  0  0  0  0  0
   57.2200   30.8850   44.6790 N   0  0  0  0  0  0  0  0  0  0  0  0
   57.2210   32.3410   44.7740 C   0  0  0  0  0  0  0  0  0  0  0  0
   56.2597   32.7260   44.4029 H   0  0  0  0  0  0  0  0  0  0  0  0
   58.0528   32.7303   44.1685 H   0  0  0  0  0  0  0  0  0  0  0  0
   57.4170   32.7970   46.2180 C   0  0  0  0  0  0  0  0  0  0  0  0
   57.2299   31.9509   46.8956 H   0  0  0  0  0  0  0  0  0  0  0  0
   56.7133   33.6136   46.4371 H   0  0  0  0  0  0  0  0  0  0  0  0
   58.8050   33.2850   46.4130 N   0  0  0  0  0  0  0  0  0  0  0  0
   59.3610   33.8540   45.1610 C   0  0  0  0  0  0  0  0  0  0  0  0
   58.6598   33.6668   44.3344 H   0  0  0  0  0  0  0  0  0  0  0  0
   60.3288   33.3760   44.9491 H   0  0  0  0  0  0  0  0  0  0  0  0
   59.5720   35.3590   45.3120 C   0  0  0  0  0  0  0  0  0  0  0  0
   59.6084   35.6188   46.3803 H   0  0  0  0  0  0  0  0  0  0  0  0
   60.5192   35.6464   44.8322 H   0  0  0  0  0  0  0  0  0  0  0  0
   58.7403   35.8958   44.8322 H   0  0  0  0  0  0  0  0  0  0  0  0
   58.8940   34.2540   47.5290 C   0  0  0  0  0  0  0  0  0  0  0  0
   59.0885   35.2571   47.1216 H   0  0  0  0  0  0  0  0  0  0  0  0
   57.9433   34.2445   48.0822 H   0  0  0  0  0  0  0  0  0  0  0  0
   60.0220   33.8740   48.4850 C   0  0  0  0  0  0  0  0  0  0  0  0
   59.6775   33.9901   49.5232 H   0  0  0  0  0  0  0  0  0  0  0  0
   60.3139   32.8279   48.3103 H   0  0  0  0  0  0  0  0  0  0  0  0
   60.8874   34.5302   48.3103 H   0  0  0  0  0  0  0  0  0  0  0  0
   58.1100   30.1370   43.9980 C   0  0  0  0  0  0  0  0  0  0  0  0
   58.9717   30.5204   43.4319 H   0  0  0  0  0  0  0  0  0  0  0  0
   57.7590   28.8100   44.1300 C   0  0  0  0  0  0  0  0  0  0  0  0
   58.2639   27.9304   43.7042 H   0  0  0  0  0  0  0  0  0  0  0  0
   58.6870   29.0820   48.0880 C   0  0  0  0  0  0  0  0  0  0  0  0
   57.8724   28.8377   48.7856 H   0  0  0  0  0  0  0  0  0  0  0  0
   59.2900   30.3410   48.1420 C   0  0  0  0  0  0  0  0  0  0  0  0
   58.9420   31.0860   48.8727 H   0  0  0  0  0  0  0  0  0  0  0  0
  1  2  1  0
  2  3  2  0
  3  4  1  0
  3  5  1  0
  5  6  1  0
  5  7  2  0
  7  8  1  0
  8  9  1  0
  9 10  1  0
  9 11  1  0
  9 12  1  0
 12 13  2  0
 12 14  1  0
 14 15  2  0
 15 16  1  0
 16 17  1  0
 17 18  1  0
 18 19  1  0
 18 20  1  0
 18 21  1  0
 21 22  1  0
 21 23  1  0
 21 24  1  0
 24 25  1  0
 25 26  1  0
 25 27  1  0
 25 28  1  0
 28 29  1  0
 28 30  1  0
 28 31  1  0
 24 32  1  0
 32 33  1  0
 32 34  1  0
 32 35  1  0
 35 36  1  0
 35 37  1  0
 35 38  1  0
 17 39  1  0
 39 40  1  0
 39 41  2  0
 41 42  1  0
  7 43  1  0
 43 44  1  0
 43 45  2  0
 45 46  1  0
 45  2  1  0
 41 15  1  0
M  CHG  1  16  -1
M  END
>  <UniqueID>  (18) 
18

>  <SMILES>  (18) 
CCN(CC)CCn1cc/c(=N\C(=O)COc2ccccc2)[n-]1

>  <Energy>  (18) 
74.81304781397839

>  <Genealogy>  (18) 
CCN(CC)CCn1ccc(=NC(=O)COc2ccccc2)[n-]1 (protonated)
CCN(CC)CCn1cc/c(=N\C(=O)COc2ccccc2)[n-]1 (cis-trans isomerization)
CCN(CC)CCn1cc/c(=N\C(=O)COc2ccccc2)[n-]1 (3D coordinates assigned)
CCN(CC)CCn1cc/c(=N\C(=O)COc2ccccc2)[n-]1 (optimized conformer: 74.81304781397839 kcal/mol)

>  <smiles>  (18) 
CCN(CC)CCn1ccc(=NC(=O)COc2ccccc2)[nH]1

>  <score_type>  (18) 
oracle

>  <origin>  (18) 
adg

>  <m_score__min__energy>  (18) 
-9.1199999999999992

>  <m_primary>  (18) 
energy

$$$$
18:0
     RDKit          3D

 32 33  0  0  0  0  0  0  0  0999 V2000
   63.3360   33.8120   46.7830 C   0  0  0  0  0  0  0  0  0  0  0  0
   63.1110   32.4600   47.4570 C   0  0  0  0  0  0  0  0  0  0  0  0
   61.6230   32.2730   47.8250 C   0  0  0  0  0  0  0  0  0  0  0  0
   60.6620   32.9600   46.9250 N   0  0  2  0  0  0  0  0  0  0  0  0
   59.9950   34.1100   47.5670 C   0  0  0  0  0  0  0  0  0  0  0  0
   59.2480   34.9370   46.5140 C   0  0  0  0  0  0  0  0  0  0  0  0
   58.4690   34.0700   45.5610 C   0  0  0  0  0  0  0  0  0  0  0  0
   58.7020   32.7520   45.4140 C   0  0  0  0  0  0  0  0  0  0  0  0
   57.9320   31.9490   44.4310 C   0  0  0  0  0  0  0  0  0  0  0  0
   57.7970   32.1920   43.0630 C   0  0  0  0  0  0  0  0  0  0  0  0
   57.0090   31.2410   42.4010 C   0  0  0  0  0  0  0  0  0  0  0  0
   56.5210   30.2420   43.2310 C   0  0  0  0  0  0  0  0  0  0  0  0
   57.0710   30.5440   44.7880 S   0  0  0  0  0  0  0  0  0  0  0  0
   59.6560   32.0370   46.3540 C   0  0  0  0  0  0  0  0  0  0  0  0
   63.4651   34.5880   47.5518 H   0  0  0  0  0  0  0  0  0  0  0  0
   64.2384   33.7634   46.1559 H   0  0  0  0  0  0  0  0  0  0  0  0
   62.4665   34.0583   46.1559 H   0  0  0  0  0  0  0  0  0  0  0  0
   63.4159   31.6583   46.7683 H   0  0  0  0  0  0  0  0  0  0  0  0
   63.7103   32.4208   48.3786 H   0  0  0  0  0  0  0  0  0  0  0  0
   61.3993   31.1962   47.8047 H   0  0  0  0  0  0  0  0  0  0  0  0
   61.4927   32.7279   48.8180 H   0  0  0  0  0  0  0  0  0  0  0  0
   61.2350   33.3270   46.1270 H   0  0  0  0  0  0  0  0  0  0  0  0
   59.2792   33.7436   48.3176 H   0  0  0  0  0  0  0  0  0  0  0  0
   60.7529   34.7426   48.0523 H   0  0  0  0  0  0  0  0  0  0  0  0
   58.5508   35.6166   47.0259 H   0  0  0  0  0  0  0  0  0  0  0  0
   59.9943   35.4961   45.9305 H   0  0  0  0  0  0  0  0  0  0  0  0
   57.6744   34.5338   44.9581 H   0  0  0  0  0  0  0  0  0  0  0  0
   58.2643   33.0477   42.5537 H   0  0  0  0  0  0  0  0  0  0  0  0
   56.7968   31.2827   41.3225 H   0  0  0  0  0  0  0  0  0  0  0  0
   55.8848   29.3993   42.9226 H   0  0  0  0  0  0  0  0  0  0  0  0
   59.0773   31.5892   47.1753 H   0  0  0  0  0  0  0  0  0  0  0  0
   60.1885   31.2657   45.7781 H   0  0  0  0  0  0  0  0  0  0  0  0
  1  2  1  0
  2  3  1  0
  3  4  1  0
  4  5  1  0
  5  6  1  0
  6  7  1  0
  7  8  2  0
  8  9  1  0
  9 10  2  0
 10 11  1  0
 11 12  2  0
 12 13  1  0
  8 14  1  0
 14  4  1  0
 13  9  1  0
  1 15  1  0
  1 16  1  0
  1 17  1  0
  2 18  1  0
  2 19  1  0
  3 20  1  0
  3 21  1  0
  4 22  1  6
  5 23  1  0
  5 24  1  0
  6 25  1  0
  6 26  1  0
  7 27  1  0
 10 28  1  0
 11 29  1  0
 12 30  1  0
 14 31  1  0
 14 32  1  0
M  CHG  1   4   1
M  END
>  <UniqueID>  (19) 
19

>  <SMILES>  (19) 
CCC[N@@H+]1CCC=C(c2cccs2)C1

>  <Energy>  (19) 
60.571567776625635

>  <Genealogy>  (19) 
CCC[NH+]1CCC=C(c2cccs2)C1 (protonated)
CCC[N@@H+]1CCC=C(c2cccs2)C1 (chirality)
CCC[N@@H+]1CCC=C(c2cccs2)C1 (3D coordinates assigned)
CCC[N@@H+]1CCC=C(c2cccs2)C1 (nonaromatic ring conformer: 60.571567776625635 kcal/mol)

>  <smiles>  (19) 
CCCN1CCC=C(c2cccs2)C1

>  <score_type>  (19) 
oracle

>  <origin>  (19) 
adg

>  <m_score__min__energy>  (19) 
-4.5199999999999996

>  <m_primary>  (19) 
energy

$$$$
19:0
     RDKit          3D

 41 43  0  0  1  0  0  0  0  0999 V2000
   58.9280   30.1330   48.7610 C   0  0  0  0  0  0  0  0  0  0  0  0
   58.7360   31.1370   47.7930 O   0  0  0  0  0  0  0  0  0  0  0  0
   59.8020   31.9920   47.4630 C   0  0  0  0  0  0  0  0  0  0  0  0
   61.1060   31.5060   47.4740 C   0  0  0  0  0  0  0  0  0  0  0  0
   62.1410   32.3880   47.1400 C   0  0  0  0  0  0  0  0  0  0  0  0
   61.8930   33.7000   46.8070 C   0  0  0  0  0  0  0  0  0  0  0  0
   60.5920   34.1600   46.8030 C   0  0  0  0  0  0  0  0  0  0  0  0
   59.5600   33.3070   47.1290 C   0  0  0  0  0  0  0  0  0  0  0  0
   58.1480   33.8420   47.1140 C   0  0  0  0  0  0  0  0  0  0  0  0
   57.7290   33.9380   45.7360 N   0  0  0  0  0  0  0  0  0  0  0  0
   57.7070   32.8940   44.9980 C   0  0  0  0  0  0  0  0  0  0  0  0
   58.0840   33.0830   43.6620 C   0  0  0  0  0  0  0  0  0  0  0  0
   58.0690   31.9750   42.8390 C   0  0  0  0  0  0  0  0  0  0  0  0
   57.7050   30.7650   43.3010 N   0  0  0  0  0  0  0  0  0  0  0  0
   57.3530   30.6490   44.5920 C   0  0  0  0  0  0  0  0  0  0  0  0
   56.9990   29.5010   45.0440 N   0  0  0  0  0  0  0  0  0  0  0  0
   57.9250   28.5490   45.5500 C   0  0  0  0  0  0  0  0  0  0  0  0
   59.2930   28.7040   45.4800 C   0  0  0  0  0  0  0  0  0  0  0  0
   60.0760   27.6990   46.0090 C   0  0  0  0  0  0  0  0  0  0  0  0
   59.5350   26.5700   46.5900 C   0  0  0  0  0  0  0  0  0  0  0  0
   58.1710   26.4060   46.6640 C   0  0  0  0  0  0  0  0  0  0  0  0
   57.3720   27.4070   46.1370 C   0  0  0  0  0  0  0  0  0  0  0  0
   57.3430   31.6770   45.4600 N   0  0  0  0  0  0  0  0  0  0  0  0
   58.8441   30.5719   49.7661 H   0  0  0  0  0  0  0  0  0  0  0  0
   58.1628   29.3526   48.6366 H   0  0  0  0  0  0  0  0  0  0  0  0
   59.9271   29.6900   48.6366 H   0  0  0  0  0  0  0  0  0  0  0  0
   61.3175   30.4592   47.7375 H   0  0  0  0  0  0  0  0  0  0  0  0
   63.1786   32.0229   47.1439 H   0  0  0  0  0  0  0  0  0  0  0  0
   62.7223   34.3743   46.5470 H   0  0  0  0  0  0  0  0  0  0  0  0
   60.3789   35.2066   46.5398 H   0  0  0  0  0  0  0  0  0  0  0  0
   57.4825   33.1580   47.6610 H   0  0  0  0  0  0  0  0  0  0  0  0
   58.1048   34.8283   47.5991 H   0  0  0  0  0  0  0  0  0  0  0  0
   58.3796   34.0731   43.2846 H   0  0  0  0  0  0  0  0  0  0  0  0
   58.3606   32.0835   41.7839 H   0  0  0  0  0  0  0  0  0  0  0  0
   57.6900   29.9190   42.6800 H   0  0  0  0  0  0  0  0  0  0  0  0
   59.7434   29.5957   45.0195 H   0  0  0  0  0  0  0  0  0  0  0  0
   61.1704   27.8010   45.9662 H   0  0  0  0  0  0  0  0  0  0  0  0
   60.2002   25.7945   46.9975 H   0  0  0  0  0  0  0  0  0  0  0  0
   57.7301   25.5104   47.1260 H   0  0  0  0  0  0  0  0  0  0  0  0
   56.2780   27.3011   46.1813 H   0  0  0  0  0  0  0  0  0  0  0  0
   57.0660   31.5530   46.4570 H   0  0  0  0  0  0  0  0  0  0  0  0
  1  2  1  0
  2  3  1  0
  3  4  2  0
  4  5  1  0
  5  6  2  0
  6  7  1  0
  7  8  2  0
  8  9  1  0
  9 10  1  0
 10 11  2  0
 11 12  1  0
 12 13  2  0
 13 14  1  0
 14 15  1  0
 15 16  2  0
 16 17  1  0
 17 18  2  0
 18 19  1  0
 19 20  2  0
 20 21  1  0
 21 22  2  0
 15 23  1  0
  8  3  1  0
 23 11  1  0
 22 17  1  0
  1 24  1  0
  1 25  1  0
  1 26  1  0
  4 27  1  0
  5 28  1  0
  6 29  1  0
  7 30  1  0
  9 31  1  0
  9 32  1  0
 12 33  1  0
 13 34  1  0
 14 35  1  0
 18 36  1  0
 19 37  1  0
 20 38  1  0
 21 39  1  0
 22 40  1  0
 23 41  1  0
M  END
>  <smiles>  (20) 
COc1ccccc1CN=c1cc[nH]c(=Nc2ccccc2)[nH]1

>  <score_type>  (20) 
oracle

>  <origin>  (20) 
adg

>  <m_score__min__energy>  (20) 
-7.9299999999999997

>  <m_primary>  (20) 
energy

$$$$
20:0
     RDKit          3D

 36 38  0  0  1  0  0  0  0  0999 V2000
   55.6770   24.4900   45.4690 C   0  0  0  0  0  0  0  0  0  0  0  0
   55.8980   25.6160   46.2880 O   0  0  0  0  0  0  0  0  0  0  0  0
   56.8070   26.6250   45.9320 C   0  0  0  0  0  0  0  0  0  0  0  0
   58.1620   26.3620   45.8950 C   0  0  0  0  0  0  0  0  0  0  0  0
   59.0610   27.3330   45.5500 C   0  0  0  0  0  0  0  0  0  0  0  0
   58.5980   28.6150   45.2280 C   0  0  0  0  0  0  0  0  0  0  0  0
   57.2280   28.8860   45.2630 C   0  0  0  0  0  0  0  0  0  0  0  0
   56.7610   30.0890   44.8490 N   0  0  0  0  0  0  0  0  0  0  0  0
   57.2580   31.0260   44.2480 C   0  0  0  0  0  0  0  0  0  0  0  0
   57.2470   30.9980   42.8800 N   0  0  0  0  0  0  0  0  0  0  0  0
   57.7600   31.9670   42.1170 C   0  0  0  0  0  0  0  0  0  0  0  0
   58.3150   33.0210   42.7310 N   0  0  0  0  0  0  0  0  0  0  0  0
   58.3420   33.0830   44.0740 C   0  0  0  0  0  0  0  0  0  0  0  0
   58.9260   34.1920   44.6360 C   0  0  0  0  0  0  0  0  0  0  0  0
   58.9540   34.2550   46.0050 C   0  0  0  0  0  0  0  0  0  0  0  0
   58.4560   33.3150   46.8530 C   0  0  0  0  0  0  0  0  0  0  0  0
   58.5350   33.4730   48.2160 O   0  0  0  0  0  0  0  0  0  0  0  0
   59.6510   34.0920   48.7770 C   0  0  0  0  0  0  0  0  0  0  0  0
   57.8650   32.1900   46.2520 C   0  0  0  0  0  0  0  0  0  0  0  0
   57.8190   32.0950   44.8920 C   0  0  0  0  0  0  0  0  0  0  0  0
   56.3140   27.8660   45.6230 C   0  0  0  0  0  0  0  0  0  0  0  0
   55.5035   23.6059   46.1001 H   0  0  0  0  0  0  0  0  0  0  0  0
   54.7962   24.6657   44.8339 H   0  0  0  0  0  0  0  0  0  0  0  0
   56.5589   24.3198   44.8339 H   0  0  0  0  0  0  0  0  0  0  0  0
   58.5244   25.3545   46.1473 H   0  0  0  0  0  0  0  0  0  0  0  0
   60.1377   27.1093   45.5256 H   0  0  0  0  0  0  0  0  0  0  0  0
   59.3103   29.4053   44.9487 H   0  0  0  0  0  0  0  0  0  0  0  0
   56.8200   30.1850   42.3760 H   0  0  0  0  0  0  0  0  0  0  0  0
   57.7279   31.9019   41.0194 H   0  0  0  0  0  0  0  0  0  0  0  0
   59.3522   34.9938   44.0151 H   0  0  0  0  0  0  0  0  0  0  0  0
   59.4197   35.1430   46.4573 H   0  0  0  0  0  0  0  0  0  0  0  0
   59.5796   34.0524   49.8740 H   0  0  0  0  0  0  0  0  0  0  0  0
   60.5627   33.5706   48.4499 H   0  0  0  0  0  0  0  0  0  0  0  0
   59.6914   35.1414   48.4499 H   0  0  0  0  0  0  0  0  0  0  0  0
   57.4413   31.3894   46.8760 H   0  0  0  0  0  0  0  0  0  0  0  0
   55.2326   28.0652   45.6540 H   0  0  0  0  0  0  0  0  0  0  0  0
  1  2  1  0
  2  3  1  0
  3  4  2  0
  4  5  1  0
  5  6  2  0
  6  7  1  0
  7  8  1  0
  8  9  2  0
  9 10  1  0
 10 11  1  0
 11 12  2  0
 12 13  1  0
 13 14  2  0
 14 15  1  0
 15 16  2  0
 16 17  1  0
 17 18  1  0
 16 19  1  0
 19 20  2  0
  7 21  2  0
 21  3  1  0
 20  9  1  0
 20 13  1  0
  1 22  1  0
  1 23  1  0
  1 24  1  0
  4 25  1  0
  5 26  1  0
  6 27  1  0
 10 28  1  0
 11 29  1  0
 14 30  1  0
 15 31  1  0
 18 32  1  0
 18 33  1  0
 18 34  1  0
 19 35  1  0
 21 36  1  0
M  END
>  <smiles>  (21) 
COc1cccc(N=c2[nH]cnc3ccc(OC)cc23)c1

>  <score_type>  (21) 
oracle

>  <origin>  (21) 
adg

>  <m_score__min__energy>  (21) 
-6.8700000000000001

>  <m_primary>  (21) 
energy

$$$$
21:0
     RDKit          3D

 29 31  0  0  0  0  0  0  0  0999 V2000
   55.8040   27.4220   45.6380 O   0  0  0  0  0  0  0  0  0  0  0  0
   56.6270   28.2760   45.2200 C   0  0  0  0  0  0  0  0  0  0  0  0
   56.3410   29.4530   44.4140 C   0  0  0  0  0  0  0  0  0  0  0  0
   55.2000   29.8080   44.0170 O   0  0  0  0  0  0  0  0  0  0  0  0
   57.5500   30.1700   44.1420 N   0  0  0  0  0  0  0  0  0  0  0  0
   57.6340   31.5560   43.6850 C   0  0  0  0  0  0  0  0  0  0  0  0
   58.0970   32.4470   44.8070 C   0  0  0  0  0  0  0  0  0  0  0  0
   58.8150   33.6220   44.5270 C   0  0  0  0  0  0  0  0  0  0  0  0
   59.2120   34.4700   45.5650 C   0  0  0  0  0  0  0  0  0  0  0  0
   58.8910   34.1560   46.8890 C   0  0  0  0  0  0  0  0  0  0  0  0
   59.2750   34.9810   47.8940 F   0  0  0  0  0  0  0  0  0  0  0  0
   58.1710   32.9930   47.1750 C   0  0  0  0  0  0  0  0  0  0  0  0
   57.7730   32.1410   46.1400 C   0  0  0  0  0  0  0  0  0  0  0  0
   58.5720   29.4240   44.8180 C   0  0  0  0  0  0  0  0  0  0  0  0
   59.9380   29.7140   44.8710 C   0  0  0  0  0  0  0  0  0  0  0  0
   60.7780   28.8470   45.5920 C   0  0  0  0  0  0  0  0  0  0  0  0
   60.2480   27.7130   46.2420 C   0  0  0  0  0  0  0  0  0  0  0  0
   58.8740   27.4310   46.1750 C   0  0  0  0  0  0  0  0  0  0  0  0
   58.0620   28.3030   45.4540 C   0  0  0  0  0  0  0  0  0  0  0  0
   58.3485   31.6209   42.8512 H   0  0  0  0  0  0  0  0  0  0  0  0
   56.6382   31.8852   43.3532 H   0  0  0  0  0  0  0  0  0  0  0  0
   59.0658   33.8756   43.4864 H   0  0  0  0  0  0  0  0  0  0  0  0
   59.7779   35.3859   45.3397 H   0  0  0  0  0  0  0  0  0  0  0  0
   57.9167   32.7472   48.2166 H   0  0  0  0  0  0  0  0  0  0  0  0
   57.2043   31.2280   46.3699 H   0  0  0  0  0  0  0  0  0  0  0  0
   60.3462   30.5991   44.3610 H   0  0  0  0  0  0  0  0  0  0  0  0
   61.8567   29.0547   45.6495 H   0  0  0  0  0  0  0  0  0  0  0  0
   60.9158   27.0447   46.8055 H   0  0  0  0  0  0  0  0  0  0  0  0
   58.4517   26.5479   46.6769 H   0  0  0  0  0  0  0  0  0  0  0  0
  1  2  2  0
  2  3  1  0
  3  4  2  0
  3  5  1  0
  5  6  1  0
  6  7  1  0
  7  8  2  0
  8  9  1  0
  9 10  2  0
 10 11  1  0
 10 12  1  0
 12 13  2  0
  5 14  1  0
 14 15  2  0
 15 16  1  0
 16 17  2  0
 17 18  1  0
 18 19  2  0
 19  2  1  0
 13  7  1  0
 19 14  1  0
  6 20  1  0
  6 21  1  0
  8 22  1  0
  9 23  1  0
 12 24  1  0
 13 25  1  0
 15 26  1  0
 16 27  1  0
 17 28  1  0
 18 29  1  0
M  END
>  <UniqueID>  (22) 
20

>  <SMILES>  (22) 
O=C1C(=O)N(Cc2ccc(F)cc2)c2ccccc21

>  <Energy>  (22) 
61.90490983152532

>  <Genealogy>  (22) 
O=C1C(=O)N(Cc2ccc(F)cc2)c2ccccc21 (3D coordinates assigned)
O=C1C(=O)N(Cc2ccc(F)cc2)c2ccccc21 (nonaromatic ring conformer: 61.90490983152532 kcal/mol)

>  <smiles>  (22) 
O=C1C(=O)N(Cc2ccc(F)cc2)c2ccccc21

>  <score_type>  (22) 
oracle

>  <origin>  (22) 
adg

>  <m_score__min__energy>  (22) 
-6.9900000000000002

>  <m_primary>  (22) 
energy

$$$$
22:0
     RDKit          3D

 44 46  0  0  0  0  0  0  0  0999 V2000
   58.6051   34.7767   47.8144 H   0  0  0  0  0  0  0  0  0  0  0  0
   58.4720   34.2780   46.8430 C   0  0  0  0  0  0  0  0  0  0  0  0
   59.3910   34.4550   45.8580 N   0  0  0  0  0  0  0  0  0  0  0  0
   59.2630   33.8550   44.6440 C   0  0  0  0  0  0  0  0  0  0  0  0
   60.0265   34.0167   43.8688 H   0  0  0  0  0  0  0  0  0  0  0  0
   58.1590   33.0300   44.3780 C   0  0  0  0  0  0  0  0  0  0  0  0
   58.0080   32.3440   43.0470 C   0  0  0  0  0  0  0  0  0  0  0  0
   58.9613   31.8668   42.7759 H   0  0  0  0  0  0  0  0  0  0  0  0
   57.7294   33.0930   42.2912 H   0  0  0  0  0  0  0  0  0  0  0  0
   56.9600   31.3240   43.1100 N   0  0  0  0  0  0  0  0  0  0  0  0
   56.9950   30.2700   43.8710 C   0  0  0  0  0  0  0  0  0  0  0  0
   55.8650   29.7900   44.4600 N   0  0  0  0  0  0  0  0  0  0  0  0
   55.8890   28.7080   45.2420 N   0  0  0  0  0  0  0  0  0  0  0  0
   57.0420   28.0290   45.4810 C   0  0  0  0  0  0  0  0  0  0  0  0
   57.0310   26.8420   46.3980 C   0  0  0  0  0  0  0  0  0  0  0  0
   56.2473   26.9768   47.1580 H   0  0  0  0  0  0  0  0  0  0  0  0
   58.0136   26.7542   46.8846 H   0  0  0  0  0  0  0  0  0  0  0  0
   56.7550   25.5860   45.6160 C   0  0  0  0  0  0  0  0  0  0  0  0
   57.7770   24.9790   44.8750 C   0  0  0  0  0  0  0  0  0  0  0  0
   58.7906   25.4061   44.8889 H   0  0  0  0  0  0  0  0  0  0  0  0
   57.5160   23.8350   44.1190 C   0  0  0  0  0  0  0  0  0  0  0  0
   58.3275   23.3607   43.5477 H   0  0  0  0  0  0  0  0  0  0  0  0
   56.2200   23.2840   44.0830 C   0  0  0  0  0  0  0  0  0  0  0  0
   55.9200   22.1360   43.3340 O   0  0  0  0  0  0  0  0  0  0  0  0
   56.8470   21.0940   43.0480 C   0  0  0  0  0  0  0  0  0  0  0  0
   57.2242   20.6700   43.9903 H   0  0  0  0  0  0  0  0  0  0  0  0
   56.3455   20.3065   42.4664 H   0  0  0  0  0  0  0  0  0  0  0  0
   57.6875   21.5004   42.4664 H   0  0  0  0  0  0  0  0  0  0  0  0
   55.1880   23.8960   44.8110 C   0  0  0  0  0  0  0  0  0  0  0  0
   53.9040   23.3300   44.7500 O   0  0  0  0  0  0  0  0  0  0  0  0
   52.7360   23.9140   45.3180 C   0  0  0  0  0  0  0  0  0  0  0  0
   52.8053   23.8794   46.4153 H   0  0  0  0  0  0  0  0  0  0  0  0
   52.6519   24.9602   44.9887 H   0  0  0  0  0  0  0  0  0  0  0  0
   51.8486   23.3535   44.9887 H   0  0  0  0  0  0  0  0  0  0  0  0
   55.4600   25.0490   45.5730 C   0  0  0  0  0  0  0  0  0  0  0  0
   54.6501   25.5323   46.1391 H   0  0  0  0  0  0  0  0  0  0  0  0
   58.2340   28.4880   44.9120 C   0  0  0  0  0  0  0  0  0  0  0  0
   59.1813   27.9638   45.1064 H   0  0  0  0  0  0  0  0  0  0  0  0
   58.2080   29.6170   44.0960 C   0  0  0  0  0  0  0  0  0  0  0  0
   59.1339   29.9899   43.6338 H   0  0  0  0  0  0  0  0  0  0  0  0
   57.2040   32.8370   45.3870 C   0  0  0  0  0  0  0  0  0  0  0  0
   56.3327   32.1913   45.2032 H   0  0  0  0  0  0  0  0  0  0  0  0
   57.3590   33.4640   46.6240 C   0  0  0  0  0  0  0  0  0  0  0  0
   56.6121   33.3184   47.4183 H   0  0  0  0  0  0  0  0  0  0  0  0
  1  2  1  0
  2  3  2  0
  3  4  1  0
  4  5  1  0
  4  6  2  0
  6  7  1  0
  7  8  1  0
  7  9  1  0
  7 10  1  0
 10 11  2  0
 11 12  1  0
 12 13  1  0
 13 14  2  0
 14 15  1  0
 15 16  1  0
 15 17  1  0
 15 18  1  0
 18 19  2  0
 19 20  1  0
 19 21  1  0
 21 22  1  0
 21 23  2  0
 23 24  1  0
 24 25  1  0
 25 26  1  0
 25 27  1  0
 25 28  1  0
 23 29  1  0
 29 30  1  0
 30 31  1  0
 31 32  1  0
 31 33  1  0
 31 34  1  0
 29 35  2  0
 35 36  1  0
 14 37  1  0
 37 38  1  0
 37 39  2  0
 39 40  1  0
  6 41  1  0
 41 42  1  0
 41 43  2  0
 43 44  1  0
 43  2  1  0
 39 11  1  0
 35 18  1  0
M  CHG  1  12  -1
M  END
>  <UniqueID>  (23) 
21

>  <SMILES>  (23) 
COc1ccc(Cc2cc/c(=N/Cc3cccnc3)[n-]n2)cc1OC

>  <Energy>  (23) 
44.93491702733245

>  <Genealogy>  (23) 
COc1ccc(Cc2ccc(=NCc3cccnc3)[n-]n2)cc1OC (protonated)
COc1ccc(Cc2cc/c(=N/Cc3cccnc3)[n-]n2)cc1OC (cis-trans isomerization)
COc1ccc(Cc2cc/c(=N/Cc3cccnc3)[n-]n2)cc1OC (3D coordinates assigned)
COc1ccc(Cc2cc/c(=N/Cc3cccnc3)[n-]n2)cc1OC (optimized conformer: 44.93491702733245 kcal/mol)

>  <smiles>  (23) 
COc1ccc(Cc2ccc(=NCc3cccnc3)[nH]n2)cc1OC

>  <score_type>  (23) 
oracle

>  <origin>  (23) 
adg

>  <m_score__min__energy>  (23) 
-9.9499999999999993

>  <m_primary>  (23) 
energy

$$$$
23:0
     RDKit          3D

 37 39  0  0  0  0  0  0  0  0999 V2000
   54.3490   24.8270   45.6020 C   0  0  0  0  0  0  0  0  0  0  0  0
   54.8800   26.0930   45.9780 O   0  0  0  0  0  0  0  0  0  0  0  0
   56.2490   26.4060   46.0070 C   0  0  0  0  0  0  0  0  0  0  0  0
   57.2210   25.4570   46.3830 C   0  0  0  0  0  0  0  0  0  0  0  0
   58.5780   25.7830   46.3460 C   0  0  0  0  0  0  0  0  0  0  0  0
   58.9840   27.0510   45.9290 C   0  0  0  0  0  0  0  0  0  0  0  0
   58.0310   28.0030   45.5620 C   0  0  0  0  0  0  0  0  0  0  0  0
   56.6640   27.7010   45.6270 C   0  0  0  0  0  0  0  0  0  0  0  0
   55.7220   28.7090   45.2340 N   0  0  0  0  0  0  0  0  0  0  0  0
   55.8140   29.5390   44.0690 C   0  0  0  0  0  0  0  0  0  0  0  0
   54.7600   29.8230   43.4410 O   0  0  0  0  0  0  0  0  0  0  0  0
   57.1350   30.0310   43.5420 C   0  0  0  0  0  0  0  0  0  0  0  0
   57.5320   31.2390   44.2510 N   0  0  0  0  0  0  0  0  0  0  0  0
   57.4000   32.4630   43.7680 N   0  0  0  0  0  0  0  0  0  0  0  0
   57.8060   33.3300   44.6840 N   0  0  0  0  0  0  0  0  0  0  0  0
   58.1760   32.5720   45.7360 C   0  0  0  0  0  0  0  0  0  0  0  0
   58.6930   33.1090   47.0010 C   0  0  0  0  0  0  0  0  0  0  0  0
   59.3080   34.3450   47.1690 C   0  0  0  0  0  0  0  0  0  0  0  0
   59.6900   34.5930   48.4930 C   0  0  0  0  0  0  0  0  0  0  0  0
   59.3880   33.5460   49.3560 C   0  0  0  0  0  0  0  0  0  0  0  0
   59.6010   33.5470   50.8330 C   0  0  0  0  0  0  0  0  0  0  0  0
   58.6180   32.3270   48.4890 S   0  0  0  0  0  0  0  0  0  0  0  0
   58.0060   31.2610   45.4850 N   0  0  0  0  0  0  0  0  0  0  0  0
   54.1063   24.2483   46.5054 H   0  0  0  0  0  0  0  0  0  0  0  0
   53.4370   24.9746   45.0050 H   0  0  0  0  0  0  0  0  0  0  0  0
   55.0934   24.2798   45.0050 H   0  0  0  0  0  0  0  0  0  0  0  0
   56.9085   24.4535   46.7075 H   0  0  0  0  0  0  0  0  0  0  0  0
   59.3293   25.0379   46.6465 H   0  0  0  0  0  0  0  0  0  0  0  0
   60.0546   27.3006   45.8894 H   0  0  0  0  0  0  0  0  0  0  0  0
   58.3553   28.9968   45.2195 H   0  0  0  0  0  0  0  0  0  0  0  0
   57.8991   29.2536   43.6897 H   0  0  0  0  0  0  0  0  0  0  0  0
   57.0362   30.2561   42.4698 H   0  0  0  0  0  0  0  0  0  0  0  0
   59.4770   35.0550   46.3460 H   0  0  0  0  0  0  0  0  0  0  0  0
   60.1798   35.5229   48.8176 H   0  0  0  0  0  0  0  0  0  0  0  0
   58.6269   33.5424   51.3439 H   0  0  0  0  0  0  0  0  0  0  0  0
   60.1708   32.6515   51.1219 H   0  0  0  0  0  0  0  0  0  0  0  0
   60.1624   34.4478   51.1219 H   0  0  0  0  0  0  0  0  0  0  0  0
  1  2  1  0
  2  3  1  0
  3  4  2  0
  4  5  1  0
  5  6  2  0
  6  7  1  0
  7  8  2  0
  8  9  1  0
  9 10  1  0
 10 11  2  0
 10 12  1  0
 12 13  1  0
 13 14  1  0
 14 15  2  0
 15 16  1  0
 16 17  1  0
 17 18  2  0
 18 19  1  0
 19 20  2  0
 20 21  1  0
 20 22  1  0
 16 23  2  0
  8  3  1  0
 23 13  1  0
 22 17  1  0
  1 24  1  0
  1 25  1  0
  1 26  1  0
  4 27  1  0
  5 28  1  0
  6 29  1  0
  7 30  1  0
 12 31  1  0
 12 32  1  0
 18 33  1  0
 19 34  1  0
 21 35  1  0
 21 36  1  0
 21 37  1  0
M  CHG  1   9  -1
M  END
>  <UniqueID>  (24) 
22

>  <SMILES>  (24) 
COc1ccccc1[N-]C(=O)Cn1nnc(-c2ccc(C)s2)n1

>  <Energy>  (24) 
105.49215909969696

>  <Genealogy>  (24) 
COc1ccccc1[N-]C(=O)Cn1nnc(-c2ccc(C)s2)n1 (protonated)
COc1ccccc1[N-]C(=O)Cn1nnc(-c2ccc(C)s2)n1 (3D coordinates assigned)
COc1ccccc1[N-]C(=O)Cn1nnc(-c2ccc(C)s2)n1 (optimized conformer: 105.49215909969696 kcal/mol)

>  <smiles>  (24) 
COc1ccccc1NC(=O)Cn1nnc(-c2ccc(C)s2)n1

>  <score_type>  (24) 
oracle

>  <origin>  (24) 
adg

>  <m_score__min__energy>  (24) 
-10.890000000000001

>  <m_primary>  (24) 
energy

$$$$
24:0
     RDKit          3D

 38 39  0  0  0  0  0  0  0  0999 V2000
   57.0030   30.9300   43.2710 C   0  0  0  0  0  0  0  0  0  0  0  0
   57.6130   30.2200   44.4480 C   0  0  0  0  0  0  0  0  0  0  0  0
   58.9480   30.4880   44.7970 C   0  0  0  0  0  0  0  0  0  0  0  0
   59.5600   29.8300   45.8680 C   0  0  0  0  0  0  0  0  0  0  0  0
   60.9050   30.1260   46.1420 O   0  0  0  0  0  0  0  0  0  0  0  0
   61.3710   31.0500   47.1260 C   0  0  0  0  0  0  0  0  0  0  0  0
   60.8240   30.7200   48.5240 C   0  0  0  0  0  0  0  0  0  0  0  0
   59.5700   31.5280   48.8670 C   0  0  0  0  0  0  0  0  0  0  0  0
   59.6870   32.8480   48.3410 O   0  0  0  0  0  0  0  0  0  0  0  0
   59.0310   33.3100   47.1900 C   0  0  0  0  0  0  0  0  0  0  0  0
   59.7620   34.0720   46.2700 C   0  0  0  0  0  0  0  0  0  0  0  0
   59.1540   34.5510   45.1050 C   0  0  0  0  0  0  0  0  0  0  0  0
   57.8080   34.2730   44.8540 C   0  0  0  0  0  0  0  0  0  0  0  0
   57.0680   33.5160   45.7670 C   0  0  0  0  0  0  0  0  0  0  0  0
   57.6730   33.0340   46.9320 C   0  0  0  0  0  0  0  0  0  0  0  0
   58.8160   28.9060   46.6210 C   0  0  0  0  0  0  0  0  0  0  0  0
   57.4880   28.6370   46.2910 C   0  0  0  0  0  0  0  0  0  0  0  0
   56.8740   29.2820   45.2070 C   0  0  0  0  0  0  0  0  0  0  0  0
   55.5090   28.9730   44.8950 N   0  0  0  0  0  0  0  0  0  0  0  0
   56.3253   31.7188   43.6296 H   0  0  0  0  0  0  0  0  0  0  0  0
   57.8000   31.3806   42.6613 H   0  0  0  0  0  0  0  0  0  0  0  0
   56.4375   30.2100   42.6613 H   0  0  0  0  0  0  0  0  0  0  0  0
   59.5205   31.2275   44.2180 H   0  0  0  0  0  0  0  0  0  0  0  0
   62.4700   31.0138   47.1561 H   0  0  0  0  0  0  0  0  0  0  0  0
   61.0157   32.0532   46.8481 H   0  0  0  0  0  0  0  0  0  0  0  0
   60.5753   29.6491   48.5621 H   0  0  0  0  0  0  0  0  0  0  0  0
   61.6011   30.9803   49.2577 H   0  0  0  0  0  0  0  0  0  0  0  0
   58.6883   31.0372   48.4291 H   0  0  0  0  0  0  0  0  0  0  0  0
   59.4600   31.5811   49.9602 H   0  0  0  0  0  0  0  0  0  0  0  0
   60.8213   34.2953   46.4649 H   0  0  0  0  0  0  0  0  0  0  0  0
   59.7357   35.1467   44.3862 H   0  0  0  0  0  0  0  0  0  0  0  0
   57.3304   34.6499   43.9376 H   0  0  0  0  0  0  0  0  0  0  0  0
   56.0080   33.2991   45.5687 H   0  0  0  0  0  0  0  0  0  0  0  0
   57.0881   32.4384   47.6483 H   0  0  0  0  0  0  0  0  0  0  0  0
   59.2830   28.3926   47.4744 H   0  0  0  0  0  0  0  0  0  0  0  0
   56.9157   27.9111   46.8872 H   0  0  0  0  0  0  0  0  0  0  0  0
   55.1450   27.9950   44.8980 H   0  0  0  0  0  0  0  0  0  0  0  0
   54.8350   29.7340   44.6540 H   0  0  0  0  0  0  0  0  0  0  0  0
  1  2  1  0
  2  3  2  0
  3  4  1  0
  4  5  1  0
  5  6  1  0
  6  7  1  0
  7  8  1  0
  8  9  1  0
  9 10  1  0
 10 11  2  0
 11 12  1  0
 12 13  2  0
 13 14  1  0
 14 15  2  0
  4 16  2  0
 16 17  1  0
 17 18  2  0
 18 19  1  0
 18  2  1  0
 15 10  1  0
  1 20  1  0
  1 21  1  0
  1 22  1  0
  3 23  1  0
  6 24  1  0
  6 25  1  0
  7 26  1  0
  7 27  1  0
  8 28  1  0
  8 29  1  0
 11 30  1  0
 12 31  1  0
 13 32  1  0
 14 33  1  0
 15 34  1  0
 16 35  1  0
 17 36  1  0
 19 37  1  0
 19 38  1  0
M  END
>  <UniqueID>  (25) 
23

>  <SMILES>  (25) 
Cc1cc(OCCCOc2ccccc2)ccc1N

>  <Energy>  (25) 
33.27284212171635

>  <Genealogy>  (25) 
Cc1cc(OCCCOc2ccccc2)ccc1N (3D coordinates assigned)
Cc1cc(OCCCOc2ccccc2)ccc1N (optimized conformer: 33.27284212171635 kcal/mol)

>  <smiles>  (25) 
Cc1cc(OCCCOc2ccccc2)ccc1N

>  <score_type>  (25) 
oracle

>  <origin>  (25) 
adg

>  <m_score__min__energy>  (25) 
-6.4199999999999999

>  <m_primary>  (25) 
energy

$$$$
25:0
     RDKit          3D

 35 37  0  0  0  0  0  0  0  0999 V2000
   54.1361   21.8148   45.1356 H   0  0  0  0  0  0  0  0  0  0  0  0
   54.7620   22.6860   45.3790 C   0  0  0  0  0  0  0  0  0  0  0  0
   56.1120   22.4970   45.7580 C   0  0  0  0  0  0  0  0  0  0  0  0
   56.5280   21.4798   45.8053 H   0  0  0  0  0  0  0  0  0  0  0  0
   56.9270   23.6000   46.0750 C   0  0  0  0  0  0  0  0  0  0  0  0
   57.9775   23.4685   46.3737 H   0  0  0  0  0  0  0  0  0  0  0  0
   56.3490   24.8650   45.9950 C   0  0  0  0  0  0  0  0  0  0  0  0
   56.8140   26.1350   46.2260 C   0  0  0  0  0  0  0  0  0  0  0  0
   58.0190   26.4400   46.6050 N   0  0  0  0  0  0  0  0  0  0  0  0
   59.1920   26.4330   45.7300 C   0  0  0  0  0  0  0  0  0  0  0  0
   60.0738   26.1334   46.3153 H   0  0  0  0  0  0  0  0  0  0  0  0
   59.0092   25.7227   44.9102 H   0  0  0  0  0  0  0  0  0  0  0  0
   59.4440   27.8250   45.1200 C   0  0  0  0  0  0  0  0  0  0  0  0
   60.1938   28.3428   45.7362 H   0  0  0  0  0  0  0  0  0  0  0  0
   59.7854   27.6643   44.0867 H   0  0  0  0  0  0  0  0  0  0  0  0
   58.2300   28.6770   45.0460 N   0  0  0  0  0  0  0  0  0  0  0  0
   57.5390   28.3500   45.7610 H   0  0  0  0  0  0  0  0  0  0  0  0
   58.5820   30.0780   45.3750 C   0  0  0  0  0  0  0  0  0  0  0  0
   58.8057   30.1463   46.4499 H   0  0  0  0  0  0  0  0  0  0  0  0
   59.4565   30.3625   44.7714 H   0  0  0  0  0  0  0  0  0  0  0  0
   57.4300   31.0500   45.0410 C   0  0  0  0  0  0  0  0  0  0  0  0
   57.2819   31.7357   45.8883 H   0  0  0  0  0  0  0  0  0  0  0  0
   57.6980   31.6091   44.1324 H   0  0  0  0  0  0  0  0  0  0  0  0
   56.2270   30.3510   44.7980 O   0  0  0  0  0  0  0  0  0  0  0  0
   56.3680   29.5530   43.6370 C   0  0  0  0  0  0  0  0  0  0  0  0
   55.4649   28.9359   43.5205 H   0  0  0  0  0  0  0  0  0  0  0  0
   56.5074   30.2286   42.7802 H   0  0  0  0  0  0  0  0  0  0  0  0
   57.6010   28.6210   43.7090 C   0  0  0  0  0  0  0  0  0  0  0  0
   57.2836   27.5880   43.5037 H   0  0  0  0  0  0  0  0  0  0  0  0
   58.3362   28.9539   42.9615 H   0  0  0  0  0  0  0  0  0  0  0  0
   55.8190   27.0260   46.0010 N   0  0  0  0  0  0  0  0  0  0  0  0
   54.7670   26.3350   45.6430 O   0  0  0  0  0  0  0  0  0  0  0  0
   55.0460   25.0520   45.6300 C   0  0  0  0  0  0  0  0  0  0  0  0
   54.2130   23.9830   45.3110 C   0  0  0  0  0  0  0  0  0  0  0  0
   53.1654   24.1442   45.0168 H   0  0  0  0  0  0  0  0  0  0  0  0
  1  2  1  0
  2  3  2  0
  3  4  1  0
  3  5  1  0
  5  6  1  0
  5  7  2  0
  7  8  1  0
  8  9  2  0
  9 10  1  0
 10 11  1  0
 10 12  1  0
 10 13  1  0
 13 14  1  0
 13 15  1  0
 13 16  1  0
 16 17  1  0
 16 18  1  0
 18 19  1  0
 18 20  1  0
 18 21  1  0
 21 22  1  0
 21 23  1  0
 21 24  1  0
 24 25  1  0
 25 26  1  0
 25 27  1  0
 25 28  1  0
 28 29  1  0
 28 30  1  0
  8 31  1  0
 31 32  1  0
 32 33  1  0
 33 34  2  0
 34 35  1  0
 34  2  1  0
 33  7  1  0
 28 16  1  0
M  CHG  2  16   1  31  -1
M  END
>  <UniqueID>  (26) 
24

>  <SMILES>  (26) 
c1ccc2/c(=N/CC[NH+]3CCOCC3)[n-]oc2c1

>  <Energy>  (26) 
87.42210871743593

>  <Genealogy>  (26) 
c1ccc2c(=NCC[NH+]3CCOCC3)[n-]oc2c1 (protonated)
c1ccc2/c(=N/CC[NH+]3CCOCC3)[n-]oc2c1 (cis-trans isomerization)
c1ccc2/c(=N/CC[NH+]3CCOCC3)[n-]oc2c1 (3D coordinates assigned)
c1ccc2/c(=N/CC[NH+]3CCOCC3)[n-]oc2c1 (nonaromatic ring conformer: 87.42210871743593 kcal/mol)

>  <smiles>  (26) 
c1ccc2c(=NCCN3CCOCC3)[nH]oc2c1

>  <score_type>  (26) 
oracle

>  <origin>  (26) 
adg

>  <m_score__min__energy>  (26) 
-6.5700000000000003

>  <m_primary>  (26) 
energy

$$$$
26:0
     RDKit          3D

 35 37  0  0  0  0  0  0  0  0999 V2000
   57.0290   25.0320   44.6630 C   0  0  0  0  0  0  0  0  0  0  0  0
   56.6310   26.2160   45.9300 S   0  0  0  0  0  0  0  0  0  0  0  0
   55.1440   26.4200   45.9960 O   0  0  0  0  0  0  0  0  0  0  0  0
   57.1100   25.6950   47.2560 O   0  0  0  0  0  0  0  0  0  0  0  0
   57.4130   27.7250   45.5820 N   0  0  0  0  0  0  0  0  0  0  0  0
   57.0980   28.5610   44.5670 C   0  0  0  0  0  0  0  0  0  0  0  0
   57.9190   29.6870   44.6020 C   0  0  0  0  0  0  0  0  0  0  0  0
   57.8580   30.8790   43.7310 C   0  0  0  0  0  0  0  0  0  0  0  0
   57.3890   32.0830   44.0980 C   0  0  0  0  0  0  0  0  0  0  0  0
   57.9850   32.9520   45.1310 C   0  0  0  0  0  0  0  0  0  0  0  0
   58.8990   33.9680   44.8030 C   0  0  0  0  0  0  0  0  0  0  0  0
   59.4600   34.7390   45.8220 C   0  0  0  0  0  0  0  0  0  0  0  0
   59.1280   34.4810   47.1530 C   0  0  0  0  0  0  0  0  0  0  0  0
   58.2420   33.4420   47.4460 C   0  0  0  0  0  0  0  0  0  0  0  0
   57.7010   32.7040   46.4400 N   0  0  0  0  0  0  0  0  0  0  0  0
   58.7300   29.5230   45.7100 C   0  0  0  0  0  0  0  0  0  0  0  0
   59.7200   30.3450   46.2500 C   0  0  0  0  0  0  0  0  0  0  0  0
   60.3840   29.9010   47.4070 C   0  0  0  0  0  0  0  0  0  0  0  0
   60.0490   28.6620   47.9930 C   0  0  0  0  0  0  0  0  0  0  0  0
   59.0460   27.8540   47.4290 C   0  0  0  0  0  0  0  0  0  0  0  0
   58.4020   28.3160   46.2780 C   0  0  0  0  0  0  0  0  0  0  0  0
   57.3463   24.0880   45.1300 H   0  0  0  0  0  0  0  0  0  0  0  0
   56.1420   24.8518   44.0378 H   0  0  0  0  0  0  0  0  0  0  0  0
   57.8447   25.4242   44.0378 H   0  0  0  0  0  0  0  0  0  0  0  0
   56.3091   28.3791   43.8224 H   0  0  0  0  0  0  0  0  0  0  0  0
   58.2260   30.7719   42.6999 H   0  0  0  0  0  0  0  0  0  0  0  0
   56.4872   32.4512   43.5869 H   0  0  0  0  0  0  0  0  0  0  0  0
   59.1696   34.1537   43.7531 H   0  0  0  0  0  0  0  0  0  0  0  0
   60.1628   35.5489   45.5767 H   0  0  0  0  0  0  0  0  0  0  0  0
   59.5593   35.0891   47.9619 H   0  0  0  0  0  0  0  0  0  0  0  0
   57.9815   33.2204   48.4915 H   0  0  0  0  0  0  0  0  0  0  0  0
   59.9728   31.3094   45.7853 H   0  0  0  0  0  0  0  0  0  0  0  0
   61.1702   30.5239   47.8585 H   0  0  0  0  0  0  0  0  0  0  0  0
   60.5764   28.3257   48.8978 H   0  0  0  0  0  0  0  0  0  0  0  0
   58.7764   26.8876   47.8800 H   0  0  0  0  0  0  0  0  0  0  0  0
  1  2  1  0
  2  3  2  0
  2  4  2  0
  2  5  1  0
  5  6  1  0
  6  7  2  0
  7  8  1  0
  8  9  2  3
  9 10  1  0
 10 11  2  0
 11 12  1  0
 12 13  2  0
 13 14  1  0
 14 15  2  0
  7 16  1  0
 16 17  2  0
 17 18  1  0
 18 19  2  0
 19 20  1  0
 20 21  2  0
 21  5  1  0
 15 10  1  0
 21 16  1  0
  1 22  1  0
  1 23  1  0
  1 24  1  0
  6 25  1  0
  8 26  1  0
  9 27  1  0
 11 28  1  0
 12 29  1  0
 13 30  1  0
 14 31  1  0
 17 32  1  0
 18 33  1  0
 19 34  1  0
 20 35  1  0
M  END
>  <UniqueID>  (27) 
25

>  <SMILES>  (27) 
CS(=O)(=O)n1cc(C=Cc2ccccn2)c2ccccc21

>  <Energy>  (27) 
77.24830074286422

>  <Genealogy>  (27) 
CS(=O)(=O)n1cc(C=Cc2ccccn2)c2ccccc21 (3D coordinates assigned)
CS(=O)(=O)n1cc(C=Cc2ccccn2)c2ccccc21 (optimized conformer: 77.24830074286422 kcal/mol)

>  <smiles>  (27) 
CS(=O)(=O)n1cc(C=Cc2ccccn2)c2ccccc21

>  <score_type>  (27) 
oracle

>  <origin>  (27) 
adg

>  <m_score__min__energy>  (27) 
-8.0800000000000001

>  <m_primary>  (27) 
energy

$$$$
27:0
     RDKit          3D

 33 34  0  0  0  0  0  0  0  0999 V2000
   59.1790   24.3860   45.9870 C   0  0  0  0  0  0  0  0  0  0  0  0
   58.3100   25.5970   45.8110 C   0  0  0  0  0  0  0  0  0  0  0  0
   58.8210   26.7500   45.1980 C   0  0  0  0  0  0  0  0  0  0  0  0
   58.0020   27.8670   45.0000 C   0  0  0  0  0  0  0  0  0  0  0  0
   56.6520   27.8320   45.3900 C   0  0  0  0  0  0  0  0  0  0  0  0
   55.7810   28.9610   45.2270 N   0  0  0  0  0  0  0  0  0  0  0  0
   55.9730   30.0760   44.3450 C   0  0  0  0  0  0  0  0  0  0  0  0
   55.8560   29.9360   43.0990 O   0  0  0  0  0  0  0  0  0  0  0  0
   56.3070   31.3660   44.8680 N   0  0  0  0  0  0  0  0  0  0  0  0
   57.5750   31.7560   45.4200 C   0  0  0  0  0  0  0  0  0  0  0  0
   58.4470   30.7920   45.9520 C   0  0  0  0  0  0  0  0  0  0  0  0
   59.6740   31.1670   46.4960 C   0  0  0  0  0  0  0  0  0  0  0  0
   60.0490   32.5130   46.5290 C   0  0  0  0  0  0  0  0  0  0  0  0
   61.3300   32.8640   47.0910 C   0  0  0  0  0  0  0  0  0  0  0  0
   62.3580   33.1460   47.5410 N   0  0  0  0  0  0  0  0  0  0  0  0
   59.1790   33.4990   46.0290 C   0  0  0  0  0  0  0  0  0  0  0  0
   59.6670   35.1990   46.0700 Cl  0  0  0  0  0  0  0  0  0  0  0  0
   57.9240   33.1260   45.4910 C   0  0  0  0  0  0  0  0  0  0  0  0
   56.9990   34.1890   44.9460 C   0  0  0  0  0  0  0  0  0  0  0  0
   56.1470   26.6820   46.0080 C   0  0  0  0  0  0  0  0  0  0  0  0
   56.9650   25.5650   46.2050 C   0  0  0  0  0  0  0  0  0  0  0  0
   59.3204   24.1890   47.0599 H   0  0  0  0  0  0  0  0  0  0  0  0
   58.6970   23.5171   45.5150 H   0  0  0  0  0  0  0  0  0  0  0  0
   60.1565   24.5644   45.5150 H   0  0  0  0  0  0  0  0  0  0  0  0
   59.8710   26.7764   44.8712 H   0  0  0  0  0  0  0  0  0  0  0  0
   58.4158   28.7753   44.5377 H   0  0  0  0  0  0  0  0  0  0  0  0
   58.1586   29.7306   45.9391 H   0  0  0  0  0  0  0  0  0  0  0  0
   60.3505   30.4001   46.9013 H   0  0  0  0  0  0  0  0  0  0  0  0
   56.5289   34.7292   45.7810 H   0  0  0  0  0  0  0  0  0  0  0  0
   57.5748   34.8955   44.3301 H   0  0  0  0  0  0  0  0  0  0  0  0
   56.2198   33.7163   44.3301 H   0  0  0  0  0  0  0  0  0  0  0  0
   55.0990   26.6567   46.3411 H   0  0  0  0  0  0  0  0  0  0  0  0
   56.5517   24.6582   46.6707 H   0  0  0  0  0  0  0  0  0  0  0  0
  1  2  1  0
  2  3  2  0
  3  4  1  0
  4  5  2  0
  5  6  1  0
  6  7  1  0
  7  8  2  0
  7  9  1  0
  9 10  1  0
 10 11  2  0
 11 12  1  0
 12 13  2  0
 13 14  1  0
 14 15  3  0
 13 16  1  0
 16 17  1  0
 16 18  2  0
 18 19  1  0
  5 20  1  0
 20 21  2  0
 21  2  1  0
 18 10  1  0
  1 22  1  0
  1 23  1  0
  1 24  1  0
  3 25  1  0
  4 26  1  0
 11 27  1  0
 12 28  1  0
 19 29  1  0
 19 30  1  0
 19 31  1  0
 20 32  1  0
 21 33  1  0
M  CHG  2   6  -1   9  -1
M  END
>  <UniqueID>  (28) 
26

>  <SMILES>  (28) 
Cc1ccc([N-]C(=O)[N-]c2ccc(C#N)c(Cl)c2C)cc1

>  <Energy>  (28) 
42.39599023061568

>  <Genealogy>  (28) 
Cc1ccc([N-]C(=O)[N-]c2ccc(C#N)c(Cl)c2C)cc1 (protonated)
Cc1ccc([N-]C(=O)[N-]c2ccc(C#N)c(Cl)c2C)cc1 (3D coordinates assigned)
Cc1ccc([N-]C(=O)[N-]c2ccc(C#N)c(Cl)c2C)cc1 (optimized conformer: 42.39599023061568 kcal/mol)

>  <smiles>  (28) 
Cc1ccc(NC(=O)Nc2ccc(C#N)c(Cl)c2C)cc1

>  <score_type>  (28) 
oracle

>  <origin>  (28) 
adg

>  <m_score__min__energy>  (28) 
-10.4

>  <m_primary>  (28) 
energy

$$$$
28:0
     RDKit          3D

 38 41  0  0  0  0  0  0  0  0999 V2000
   55.1700   26.6010   45.9700 N   0  0  0  0  0  0  0  0  0  0  0  0
   56.3710   25.9480   46.3790 C   0  0  0  0  0  0  0  0  0  0  0  0
   56.4270   24.6890   46.3470 O   0  0  0  0  0  0  0  0  0  0  0  0
   57.5390   26.7370   46.8370 C   0  0  0  0  0  0  0  0  0  0  0  0
   58.4800   26.1790   47.7430 C   0  0  0  0  0  0  0  0  0  0  0  0
   59.5520   26.9100   48.1760 N   0  0  0  0  0  0  0  0  0  0  0  0
   59.7170   28.1770   47.7210 C   0  0  0  0  0  0  0  0  0  0  0  0
   60.6960   29.0230   48.0810 N   0  0  0  0  0  0  0  0  0  0  0  0
   60.4540   30.1730   47.4020 C   0  0  0  0  0  0  0  0  0  0  0  0
   61.3410   31.3550   47.4870 C   0  0  0  0  0  0  0  0  0  0  0  0
   62.6940   31.2430   47.1290 C   0  0  0  0  0  0  0  0  0  0  0  0
   63.5380   32.3560   47.2000 C   0  0  0  0  0  0  0  0  0  0  0  0
   63.0360   33.5910   47.6180 C   0  0  0  0  0  0  0  0  0  0  0  0
   63.8540   34.6700   47.6870 F   0  0  0  0  0  0  0  0  0  0  0  0
   61.6870   33.7160   47.9620 C   0  0  0  0  0  0  0  0  0  0  0  0
   60.8400   32.6060   47.8920 C   0  0  0  0  0  0  0  0  0  0  0  0
   59.3010   30.0420   46.6110 C   0  0  0  0  0  0  0  0  0  0  0  0
   58.6360   31.0790   45.7940 C   0  0  0  0  0  0  0  0  0  0  0  0
   58.1840   32.2670   46.3860 C   0  0  0  0  0  0  0  0  0  0  0  0
   57.5530   33.2320   45.5960 C   0  0  0  0  0  0  0  0  0  0  0  0
   57.3800   33.0180   44.2650 N   0  0  0  0  0  0  0  0  0  0  0  0
   57.8090   31.8760   43.6660 C   0  0  0  0  0  0  0  0  0  0  0  0
   58.4450   30.8860   44.4180 C   0  0  0  0  0  0  0  0  0  0  0  0
   58.8500   28.7530   46.8370 C   0  0  0  0  0  0  0  0  0  0  0  0
   57.7310   28.0610   46.3800 C   0  0  0  0  0  0  0  0  0  0  0  0
   55.1330   27.1460   45.0810 H   0  0  0  0  0  0  0  0  0  0  0  0
   58.3451   25.1475   48.1004 H   0  0  0  0  0  0  0  0  0  0  0  0
   60.2310   26.4970   48.8530 H   0  0  0  0  0  0  0  0  0  0  0  0
   61.4860   28.8250   48.7340 H   0  0  0  0  0  0  0  0  0  0  0  0
   63.0923   30.2749   46.7910 H   0  0  0  0  0  0  0  0  0  0  0  0
   64.5989   32.2588   46.9262 H   0  0  0  0  0  0  0  0  0  0  0  0
   61.2913   34.6891   48.2883 H   0  0  0  0  0  0  0  0  0  0  0  0
   59.7770   32.7110   48.1547 H   0  0  0  0  0  0  0  0  0  0  0  0
   58.3249   32.4381   47.4634 H   0  0  0  0  0  0  0  0  0  0  0  0
   57.1956   34.1668   46.0525 H   0  0  0  0  0  0  0  0  0  0  0  0
   57.6549   31.7312   42.5865 H   0  0  0  0  0  0  0  0  0  0  0  0
   58.7937   29.9615   43.9346 H   0  0  0  0  0  0  0  0  0  0  0  0
   57.0188   28.5300   45.6851 H   0  0  0  0  0  0  0  0  0  0  0  0
  1  2  1  0
  2  3  2  0
  2  4  1  0
  4  5  2  0
  5  6  1  0
  6  7  2  0
  7  8  1  0
  8  9  1  0
  9 10  1  0
 10 11  2  0
 11 12  1  0
 12 13  2  0
 13 14  1  0
 13 15  1  0
 15 16  2  0
  9 17  2  0
 17 18  1  0
 18 19  2  0
 19 20  1  0
 20 21  2  0
 21 22  1  0
 22 23  2  0
 17 24  1  0
 24 25  2  0
 25  4  1  0
 24  7  1  0
 16 10  1  0
 23 18  1  0
  1 26  1  0
  5 27  1  0
  6 28  1  0
  8 29  1  0
 11 30  1  0
 12 31  1  0
 15 32  1  0
 16 33  1  0
 19 34  1  0
 20 35  1  0
 22 36  1  0
 23 37  1  0
 25 38  1  0
M  CHG  2   1  -1   6   1
M  END
>  <UniqueID>  (29) 
27

>  <SMILES>  (29) 
[NH-]C(=O)c1c[nH+]c2[nH]c(-c3ccc(F)cc3)c(-c3ccncc3)c2c1

>  <Energy>  (29) 
86.70718800343502

>  <Genealogy>  (29) 
[NH-]C(=O)c1c[nH+]c2[nH]c(-c3ccc(F)cc3)c(-c3ccncc3)c2c1 (protonated)
[NH-]C(=O)c1c[nH+]c2[nH]c(-c3ccc(F)cc3)c(-c3ccncc3)c2c1 (3D coordinates assigned)
[NH-]C(=O)c1c[nH+]c2[nH]c(-c3ccc(F)cc3)c(-c3ccncc3)c2c1 (optimized conformer: 86.70718800343502 kcal/mol)

>  <smiles>  (29) 
NC(=O)c1cnc2[nH]c(-c3ccc(F)cc3)c(-c3ccncc3)c2c1

>  <score_type>  (29) 
oracle

>  <origin>  (29) 
adg

>  <m_score__min__energy>  (29) 
-9.5099999999999998

>  <m_primary>  (29) 
energy

$$$$
29:0
     RDKit          3D

 37 39  0  0  0  0  0  0  0  0999 V2000
   57.4740   26.0700   46.3940 O   0  0  0  0  0  0  0  0  0  0  0  0
   57.4420   25.8780   45.1470 C   0  0  0  0  0  0  0  0  0  0  0  0
   57.3940   26.9990   44.2480 N   0  0  0  0  0  0  0  0  0  0  0  0
   57.6960   28.3510   44.6330 C   0  0  0  0  0  0  0  0  0  0  0  0
   58.9830   28.7320   45.0450 C   0  0  0  0  0  0  0  0  0  0  0  0
   59.2460   30.0590   45.3880 C   0  0  0  0  0  0  0  0  0  0  0  0
   58.2200   31.0170   45.3020 C   0  0  0  0  0  0  0  0  0  0  0  0
   58.4460   32.4010   45.6480 N   0  0  0  0  0  0  0  0  0  0  0  0
   58.3790   32.8540   47.0450 C   0  0  0  0  0  0  0  0  0  0  0  0
   59.2310   34.1110   47.2390 C   0  0  0  0  0  0  0  0  0  0  0  0
   58.9100   35.0930   46.2740 O   0  0  0  0  0  0  0  0  0  0  0  0
   59.2680   34.6270   44.9890 C   0  0  0  0  0  0  0  0  0  0  0  0
   58.4140   33.4200   44.5910 C   0  0  0  0  0  0  0  0  0  0  0  0
   56.9840   30.6220   44.8840 N   0  0  0  0  0  0  0  0  0  0  0  0
   56.7060   29.3360   44.5460 C   0  0  0  0  0  0  0  0  0  0  0  0
   57.4160   24.4970   44.6200 C   0  0  0  0  0  0  0  0  0  0  0  0
   58.1890   23.4800   45.2080 C   0  0  0  0  0  0  0  0  0  0  0  0
   58.1420   22.1880   44.6790 C   0  0  0  0  0  0  0  0  0  0  0  0
   57.3330   21.9170   43.5760 C   0  0  0  0  0  0  0  0  0  0  0  0
   56.5780   22.9490   43.0140 C   0  0  0  0  0  0  0  0  0  0  0  0
   56.6360   24.2000   43.5420 N   0  0  0  0  0  0  0  0  0  0  0  0
   57.0320   26.8410   43.2810 H   0  0  0  0  0  0  0  0  0  0  0  0
   59.7863   27.9824   45.0976 H   0  0  0  0  0  0  0  0  0  0  0  0
   60.2510   30.3542   45.7240 H   0  0  0  0  0  0  0  0  0  0  0  0
   57.3340   33.0809   47.3029 H   0  0  0  0  0  0  0  0  0  0  0  0
   58.7645   32.0570   47.6978 H   0  0  0  0  0  0  0  0  0  0  0  0
   59.0463   34.5195   48.2435 H   0  0  0  0  0  0  0  0  0  0  0  0
   60.2904   33.8383   47.1234 H   0  0  0  0  0  0  0  0  0  0  0  0
   59.1152   35.4339   44.2572 H   0  0  0  0  0  0  0  0  0  0  0  0
   60.3245   34.3211   45.0065 H   0  0  0  0  0  0  0  0  0  0  0  0
   57.3755   33.7466   44.4334 H   0  0  0  0  0  0  0  0  0  0  0  0
   58.8179   32.9864   43.6643 H   0  0  0  0  0  0  0  0  0  0  0  0
   55.6964   29.0673   44.2018 H   0  0  0  0  0  0  0  0  0  0  0  0
   58.8256   23.7001   46.0776 H   0  0  0  0  0  0  0  0  0  0  0  0
   58.7424   21.3853   45.1320 H   0  0  0  0  0  0  0  0  0  0  0  0
   57.2899   20.9023   43.1534 H   0  0  0  0  0  0  0  0  0  0  0  0
   55.9360   22.7491   42.1434 H   0  0  0  0  0  0  0  0  0  0  0  0
  1  2  2  0
  2  3  1  0
  3  4  1  0
  4  5  2  0
  5  6  1  0
  6  7  2  0
  7  8  1  0
  8  9  1  0
  9 10  1  0
 10 11  1  0
 11 12  1  0
 12 13  1  0
  7 14  1  0
 14 15  2  0
  2 16  1  0
 16 17  2  0
 17 18  1  0
 18 19  2  0
 19 20  1  0
 20 21  2  0
 15  4  1  0
 21 16  1  0
 13  8  1  0
  3 22  1  0
  5 23  1  0
  6 24  1  0
  9 25  1  0
  9 26  1  0
 10 27  1  0
 10 28  1  0
 12 29  1  0
 12 30  1  0
 13 31  1  0
 13 32  1  0
 15 33  1  0
 17 34  1  0
 18 35  1  0
 19 36  1  0
 20 37  1  0
M  END
>  <UniqueID>  (30) 
28

>  <SMILES>  (30) 
O=C(Nc1ccc(N2CCOCC2)nc1)c1ccccn1

>  <Energy>  (30) 
47.90675526863174

>  <Genealogy>  (30) 
O=C(Nc1ccc(N2CCOCC2)nc1)c1ccccn1 (3D coordinates assigned)
O=C(Nc1ccc(N2CCOCC2)nc1)c1ccccn1 (nonaromatic ring conformer: 47.90675526863174 kcal/mol)

>  <smiles>  (30) 
O=C(Nc1ccc(N2CCOCC2)nc1)c1ccccn1

>  <score_type>  (30) 
oracle

>  <origin>  (30) 
adg

>  <m_score__min__energy>  (30) 
-7.0099999999999998

>  <m_primary>  (30) 
energy

$$$$
30:0
     RDKit          3D

 29 30  0  0  0  0  0  0  0  0999 V2000
   55.8807   30.5283   42.5327 H   0  0  0  0  0  0  0  0  0  0  0  0
   56.6000   30.4380   43.3600 C   0  0  0  0  0  0  0  0  0  0  0  0
   56.3120   29.4340   44.4050 C   0  0  0  0  0  0  0  0  0  0  0  0
   55.1470   29.3810   44.8800 O   0  0  0  0  0  0  0  0  0  0  0  0
   57.3510   28.5350   44.9470 C   0  0  0  0  0  0  0  0  0  0  0  0
   58.6500   28.4460   44.4820 C   0  0  0  0  0  0  0  0  0  0  0  0
   59.0961   29.0195   43.6561 H   0  0  0  0  0  0  0  0  0  0  0  0
   59.2750   27.4940   45.2610 C   0  0  0  0  0  0  0  0  0  0  0  0
   60.3216   27.1646   45.1823 H   0  0  0  0  0  0  0  0  0  0  0  0
   58.3310   27.0350   46.1590 C   0  0  0  0  0  0  0  0  0  0  0  0
   58.5101   26.2655   46.9244 H   0  0  0  0  0  0  0  0  0  0  0  0
   57.1610   27.6670   45.9600 N   0  0  0  0  0  0  0  0  0  0  0  0
   56.2760   27.4960   46.4880 H   0  0  0  0  0  0  0  0  0  0  0  0
   57.6700   31.2490   43.3400 C   0  0  0  0  0  0  0  0  0  0  0  0
   58.3033   31.2293   42.4408 H   0  0  0  0  0  0  0  0  0  0  0  0
   58.0650   32.1670   44.4310 C   0  0  0  0  0  0  0  0  0  0  0  0
   58.4240   33.4860   44.1170 C   0  0  0  0  0  0  0  0  0  0  0  0
   58.4088   33.8222   43.0697 H   0  0  0  0  0  0  0  0  0  0  0  0
   58.8010   34.3760   45.1270 C   0  0  0  0  0  0  0  0  0  0  0  0
   59.0746   35.4103   44.8713 H   0  0  0  0  0  0  0  0  0  0  0  0
   58.8320   33.9560   46.4650 C   0  0  0  0  0  0  0  0  0  0  0  0
   59.2700   34.9010   47.5440 C   0  0  0  0  0  0  0  0  0  0  0  0
   59.0633   34.4551   48.5281 H   0  0  0  0  0  0  0  0  0  0  0  0
   60.3488   35.0929   47.4477 H   0  0  0  0  0  0  0  0  0  0  0  0
   58.7191   35.8482   47.4477 H   0  0  0  0  0  0  0  0  0  0  0  0
   58.5240   32.6230   46.7760 C   0  0  0  0  0  0  0  0  0  0  0  0
   58.5786   32.2770   47.8187 H   0  0  0  0  0  0  0  0  0  0  0  0
   58.1480   31.7330   45.7660 C   0  0  0  0  0  0  0  0  0  0  0  0
   57.9158   30.6874   46.0168 H   0  0  0  0  0  0  0  0  0  0  0  0
  1  2  1  0
  2  3  1  0
  3  4  2  0
  3  5  1  0
  5  6  2  0
  6  7  1  0
  6  8  1  0
  8  9  1  0
  8 10  2  0
 10 11  1  0
 10 12  1  0
 12 13  1  0
  2 14  2  0
 14 15  1  0
 14 16  1  0
 16 17  2  0
 17 18  1  0
 17 19  1  0
 19 20  1  0
 19 21  2  0
 21 22  1  0
 22 23  1  0
 22 24  1  0
 22 25  1  0
 21 26  1  0
 26 27  1  0
 26 28  2  0
 28 29  1  0
 12  5  1  0
 28 16  1  0
M  END
>  <UniqueID>  (31) 
29

>  <SMILES>  (31) 
Cc1ccc(/C=C\C(=O)c2ccc[nH]2)cc1

>  <Energy>  (31) 
61.850823698702094

>  <Genealogy>  (31) 
Cc1ccc(/C=C\C(=O)c2ccc[nH]2)cc1 (cis-trans isomerization)
Cc1ccc(/C=C\C(=O)c2ccc[nH]2)cc1 (3D coordinates assigned)
Cc1ccc(/C=C\C(=O)c2ccc[nH]2)cc1 (optimized conformer: 61.850823698702094 kcal/mol)

>  <smiles>  (31) 
Cc1ccc(C=CC(=O)c2ccc[nH]2)cc1

>  <score_type>  (31) 
oracle

>  <origin>  (31) 
adg

>  <m_score__min__energy>  (31) 
-7.25

>  <m_primary>  (31) 
energy

$$$$
31:0
     RDKit          3D

 36 39  0  0  0  0  0  0  0  0999 V2000
   57.7690   32.3160   41.9080 C   0  0  0  0  0  0  0  0  0  0  0  0
   57.8640   32.3670   43.3960 C   0  0  0  0  0  0  0  0  0  0  0  0
   57.8840   33.5120   44.1220 N   0  0  0  0  0  0  0  0  0  0  0  0
   58.0830   33.1920   45.3990 N   0  0  0  0  0  0  0  0  0  0  0  0
   58.2590   34.1750   46.4650 C   0  0  0  0  0  0  0  0  0  0  0  0
   59.6410   34.0690   47.0560 C   0  0  0  0  0  0  0  0  0  0  0  0
   59.8420   34.2150   48.4390 C   0  0  0  0  0  0  0  0  0  0  0  0
   61.1270   34.1080   48.9800 C   0  0  0  0  0  0  0  0  0  0  0  0
   62.2200   33.8610   48.1450 C   0  0  0  0  0  0  0  0  0  0  0  0
   62.0310   33.7250   46.7670 C   0  0  0  0  0  0  0  0  0  0  0  0
   60.7480   33.8310   46.2220 C   0  0  0  0  0  0  0  0  0  0  0  0
   58.2100   31.8540   45.4850 C   0  0  0  0  0  0  0  0  0  0  0  0
   58.0830   31.3040   44.2470 C   0  0  0  0  0  0  0  0  0  0  0  0
   58.3060   29.9060   43.9720 N   0  0  0  0  0  0  0  0  0  0  0  0
   58.6270   29.0960   44.9520 C   0  0  0  0  0  0  0  0  0  0  0  0
   58.7580   29.6120   46.2940 N   0  0  0  0  0  0  0  0  0  0  0  0
   59.1510   28.9420   47.5120 C   0  0  0  0  0  0  0  0  0  0  0  0
   59.1460   30.0880   48.5530 C   0  0  0  0  0  0  0  0  0  0  0  0
   58.7740   31.2970   47.8140 N   0  0  0  0  0  0  0  0  0  0  0  0
   58.5740   30.9760   46.5870 C   0  0  0  0  0  0  0  0  0  0  0  0
   56.8343   31.8142   41.6172 H   0  0  0  0  0  0  0  0  0  0  0  0
   57.7765   33.3394   41.5048 H   0  0  0  0  0  0  0  0  0  0  0  0
   58.6261   31.7568   41.5048 H   0  0  0  0  0  0  0  0  0  0  0  0
   58.1177   35.1852   46.0532 H   0  0  0  0  0  0  0  0  0  0  0  0
   57.5180   33.9809   47.2545 H   0  0  0  0  0  0  0  0  0  0  0  0
   58.9848   34.4143   49.0989 H   0  0  0  0  0  0  0  0  0  0  0  0
   61.2777   34.2184   50.0640 H   0  0  0  0  0  0  0  0  0  0  0  0
   63.2297   33.7736   48.5726 H   0  0  0  0  0  0  0  0  0  0  0  0
   62.8927   33.5343   46.1105 H   0  0  0  0  0  0  0  0  0  0  0  0
   60.6038   33.7278   45.1364 H   0  0  0  0  0  0  0  0  0  0  0  0
   58.2210   29.5420   42.9960 H   0  0  0  0  0  0  0  0  0  0  0  0
   58.7958   28.0275   44.7524 H   0  0  0  0  0  0  0  0  0  0  0  0
   58.4290   28.1577   47.7831 H   0  0  0  0  0  0  0  0  0  0  0  0
   60.1216   28.4305   47.4331 H   0  0  0  0  0  0  0  0  0  0  0  0
   58.4115   29.8823   49.3456 H   0  0  0  0  0  0  0  0  0  0  0  0
   60.1263   30.1968   49.0400 H   0  0  0  0  0  0  0  0  0  0  0  0
  1  2  1  0
  2  3  2  0
  3  4  1  0
  4  5  1  0
  5  6  1  0
  6  7  2  0
  7  8  1  0
  8  9  2  0
  9 10  1  0
 10 11  2  0
  4 12  1  0
 12 13  2  0
 13 14  1  0
 14 15  2  0
 15 16  1  0
 16 17  1  0
 17 18  1  0
 18 19  1  0
 19 20  2  0
 13  2  1  0
 20 16  1  0
 11  6  1  0
 20 12  1  0
  1 21  1  0
  1 22  1  0
  1 23  1  0
  5 24  1  0
  5 25  1  0
  7 26  1  0
  8 27  1  0
  9 28  1  0
 10 29  1  0
 11 30  1  0
 14 31  1  0
 15 32  1  0
 17 33  1  0
 17 34  1  0
 18 35  1  0
 18 36  1  0
M  CHG  1  14   1
M  END
>  <UniqueID>  (32) 
30

>  <SMILES>  (32) 
Cc1nn(Cc2ccccc2)c2c1[NH+]=CN1CCN=C21

>  <Energy>  (32) 
91.845356398726

>  <Genealogy>  (32) 
Cc1nn(Cc2ccccc2)c2c1[NH+]=CN1CCN=C21 (protonated)
Cc1nn(Cc2ccccc2)c2c1[NH+]=CN1CCN=C21 (3D coordinates assigned)
Cc1nn(Cc2ccccc2)c2c1[NH+]=CN1CCN=C21 (nonaromatic ring conformer: 91.845356398726 kcal/mol)

>  <smiles>  (32) 
Cc1nn(Cc2ccccc2)c2c1N=CN1CCN=C21

>  <score_type>  (32) 
oracle

>  <origin>  (32) 
adg

>  <m_score__min__energy>  (32) 
-5.8700000000000001

>  <m_primary>  (32) 
energy

$$$$
32:0
     RDKit          3D

 32 34  0  0  0  0  0  0  0  0999 V2000
   59.8180   27.7201   48.8985 H   0  0  0  0  0  0  0  0  0  0  0  0
   59.4770   27.2330   47.9730 C   0  0  0  0  0  0  0  0  0  0  0  0
   58.1990   27.4080   47.5440 N   0  0  0  0  0  0  0  0  0  0  0  0
   57.7290   26.8200   46.4080 C   0  0  0  0  0  0  0  0  0  0  0  0
   56.3300   27.0500   45.9830 C   0  0  0  0  0  0  0  0  0  0  0  0
   55.4580   26.1710   46.2220 O   0  0  0  0  0  0  0  0  0  0  0  0
   55.9400   28.2170   45.2430 N   0  0  0  0  0  0  0  0  0  0  0  0
   56.5580   29.3610   45.2480 C   0  0  0  0  0  0  0  0  0  0  0  0
   57.4210   29.7500   46.2180 N   0  0  0  0  0  0  0  0  0  0  0  0
   57.8940   31.0000   45.9720 C   0  0  0  0  0  0  0  0  0  0  0  0
   58.8120   31.6780   46.7850 C   0  0  0  0  0  0  0  0  0  0  0  0
   59.3390   31.0480   48.0420 C   0  0  0  0  0  0  0  0  0  0  0  0
   58.9106   31.5601   48.9162 H   0  0  0  0  0  0  0  0  0  0  0  0
   59.0573   29.9849   48.0653 H   0  0  0  0  0  0  0  0  0  0  0  0
   60.4351   31.1375   48.0653 H   0  0  0  0  0  0  0  0  0  0  0  0
   59.1940   32.9840   46.4140 C   0  0  0  0  0  0  0  0  0  0  0  0
   59.8928   33.5464   47.0507 H   0  0  0  0  0  0  0  0  0  0  0  0
   58.6910   33.5800   45.2350 C   0  0  0  0  0  0  0  0  0  0  0  0
   59.0820   34.9820   44.8740 C   0  0  0  0  0  0  0  0  0  0  0  0
   59.2447   35.5653   45.7923 H   0  0  0  0  0  0  0  0  0  0  0  0
   60.0092   34.9633   44.2824 H   0  0  0  0  0  0  0  0  0  0  0  0
   58.2789   35.4458   44.2824 H   0  0  0  0  0  0  0  0  0  0  0  0
   57.7670   32.8790   44.4350 C   0  0  0  0  0  0  0  0  0  0  0  0
   57.3501   33.3349   43.5249 H   0  0  0  0  0  0  0  0  0  0  0  0
   57.3950   31.5970   44.8240 C   0  0  0  0  0  0  0  0  0  0  0  0
   56.3240   30.5470   44.0670 S   0  0  0  0  0  0  0  0  0  0  0  0
   58.5930   26.0210   45.6400 C   0  0  0  0  0  0  0  0  0  0  0  0
   58.2357   25.5510   44.7118 H   0  0  0  0  0  0  0  0  0  0  0  0
   59.9080   25.8290   46.0650 C   0  0  0  0  0  0  0  0  0  0  0  0
   60.5906   25.2001   45.4747 H   0  0  0  0  0  0  0  0  0  0  0  0
   60.3570   26.4350   47.2390 C   0  0  0  0  0  0  0  0  0  0  0  0
   61.3914   26.2859   47.5821 H   0  0  0  0  0  0  0  0  0  0  0  0
  1  2  1  0
  2  3  2  0
  3  4  1  0
  4  5  1  0
  5  6  2  0
  5  7  1  0
  7  8  2  0
  8  9  1  0
  9 10  1  0
 10 11  2  0
 11 12  1  0
 12 13  1  0
 12 14  1  0
 12 15  1  0
 11 16  1  0
 16 17  1  0
 16 18  2  0
 18 19  1  0
 19 20  1  0
 19 21  1  0
 19 22  1  0
 18 23  1  0
 23 24  1  0
 23 25  2  0
 25 26  1  0
  4 27  2  0
 27 28  1  0
 27 29  1  0
 29 30  1  0
 29 31  2  0
 31 32  1  0
 31  2  1  0
 26  8  1  0
 25 10  1  0
M  CHG  1   9  -1
M  END
>  <UniqueID>  (33) 
31

>  <SMILES>  (33) 
Cc1cc(C)c2[n-]/c(=N\C(=O)c3ccccn3)sc2c1

>  <Energy>  (33) 
74.01955921071138

>  <Genealogy>  (33) 
Cc1cc(C)c2[n-]c(=NC(=O)c3ccccn3)sc2c1 (protonated)
Cc1cc(C)c2[n-]/c(=N\C(=O)c3ccccn3)sc2c1 (cis-trans isomerization)
Cc1cc(C)c2[n-]/c(=N\C(=O)c3ccccn3)sc2c1 (3D coordinates assigned)
Cc1cc(C)c2[n-]/c(=N\C(=O)c3ccccn3)sc2c1 (optimized conformer: 74.01955921071138 kcal/mol)

>  <smiles>  (33) 
Cc1cc(C)c2[nH]c(=NC(=O)c3ccccn3)sc2c1

>  <score_type>  (33) 
oracle

>  <origin>  (33) 
adg

>  <m_score__min__energy>  (33) 
-9.0500000000000007

>  <m_primary>  (33) 
energy

$$$$
33:0
     RDKit          3D

 29 30  0  0  0  0  0  0  0  0999 V2000
   55.1450   29.2800   44.8480 O   0  0  0  0  0  0  0  0  0  0  0  0
   56.3170   29.7370   44.8470 C   0  0  0  0  0  0  0  0  0  0  0  0
   56.5210   31.1110   44.4920 N   0  0  0  0  0  0  0  0  0  0  0  0
   57.7820   31.6810   44.0330 C   0  0  0  0  0  0  0  0  0  0  0  0
   57.7640   33.1940   44.2370 C   0  0  0  0  0  0  0  0  0  0  0  0
   58.3400   33.5540   45.5820 C   0  0  0  0  0  0  0  0  0  0  0  0
   59.2150   34.6460   45.7070 C   0  0  0  0  0  0  0  0  0  0  0  0
   59.7760   34.9600   46.9490 C   0  0  0  0  0  0  0  0  0  0  0  0
   59.4740   34.1820   48.0710 C   0  0  0  0  0  0  0  0  0  0  0  0
   60.0180   34.4880   49.2740 F   0  0  0  0  0  0  0  0  0  0  0  0
   58.6150   33.0850   47.9500 C   0  0  0  0  0  0  0  0  0  0  0  0
   58.0530   32.7680   46.7100 C   0  0  0  0  0  0  0  0  0  0  0  0
   57.4330   28.8270   45.1600 C   0  0  0  0  0  0  0  0  0  0  0  0
   58.1510   28.1660   44.1520 C   0  0  0  0  0  0  0  0  0  0  0  0
   59.1900   27.3580   44.4900 N   0  0  0  0  0  0  0  0  0  0  0  0
   59.5540   27.1820   45.7880 C   0  0  0  0  0  0  0  0  0  0  0  0
   58.8600   27.8580   46.7910 C   0  0  0  0  0  0  0  0  0  0  0  0
   57.8220   28.6690   46.4550 N   0  0  0  0  0  0  0  0  0  0  0  0
   58.6120   31.2439   44.6075 H   0  0  0  0  0  0  0  0  0  0  0  0
   57.9164   31.4579   42.9643 H   0  0  0  0  0  0  0  0  0  0  0  0
   58.3622   33.6725   43.4476 H   0  0  0  0  0  0  0  0  0  0  0  0
   56.7228   33.5460   44.1911 H   0  0  0  0  0  0  0  0  0  0  0  0
   59.4597   35.2561   44.8250 H   0  0  0  0  0  0  0  0  0  0  0  0
   60.4555   35.8199   47.0434 H   0  0  0  0  0  0  0  0  0  0  0  0
   58.3813   32.4707   48.8320 H   0  0  0  0  0  0  0  0  0  0  0  0
   57.3837   31.9000   46.6173 H   0  0  0  0  0  0  0  0  0  0  0  0
   57.8749   28.3008   43.0958 H   0  0  0  0  0  0  0  0  0  0  0  0
   60.3882   26.5125   46.0447 H   0  0  0  0  0  0  0  0  0  0  0  0
   59.1500   27.7361   47.8451 H   0  0  0  0  0  0  0  0  0  0  0  0
  1  2  2  0
  2  3  1  0
  3  4  1  0
  4  5  1  0
  5  6  1  0
  6  7  2  0
  7  8  1  0
  8  9  2  0
  9 10  1  0
  9 11  1  0
 11 12  2  0
  2 13  1  0
 13 14  2  0
 14 15  1  0
 15 16  2  0
 16 17  1  0
 17 18  2  0
 12  6  1  0
 18 13  1  0
  4 19  1  0
  4 20  1  0
  5 21  1  0
  5 22  1  0
  7 23  1  0
  8 24  1  0
 11 25  1  0
 12 26  1  0
 14 27  1  0
 16 28  1  0
 17 29  1  0
M  CHG  1   3  -1
M  END
>  <UniqueID>  (34) 
32

>  <SMILES>  (34) 
O=C([N-]CCc1ccc(F)cc1)c1cnccn1

>  <Energy>  (34) 
32.21699552037794

>  <Genealogy>  (34) 
O=C([N-]CCc1ccc(F)cc1)c1cnccn1 (protonated)
O=C([N-]CCc1ccc(F)cc1)c1cnccn1 (3D coordinates assigned)
O=C([N-]CCc1ccc(F)cc1)c1cnccn1 (optimized conformer: 32.21699552037794 kcal/mol)

>  <smiles>  (34) 
O=C(NCCc1ccc(F)cc1)c1cnccn1

>  <score_type>  (34) 
oracle

>  <origin>  (34) 
adg

>  <m_score__min__energy>  (34) 
-8.0299999999999994

>  <m_primary>  (34) 
energy

$$$$
34:0
     RDKit          3D

 30 31  0  0  0  0  0  0  0  0999 V2000
   59.4390   34.9050   45.9840 C   0  0  0  0  0  0  0  0  0  0  0  0
   58.2270   33.9940   45.8330 C   0  0  0  0  0  0  0  0  0  0  0  0
   58.6320   32.6550   45.5450 O   0  0  0  0  0  0  0  0  0  0  0  0
   57.9160   31.7320   44.7660 C   0  0  0  0  0  0  0  0  0  0  0  0
   57.7040   32.0350   43.4160 C   0  0  0  0  0  0  0  0  0  0  0  0
   57.0110   31.1490   42.5900 C   0  0  0  0  0  0  0  0  0  0  0  0
   56.5110   29.9530   43.1070 C   0  0  0  0  0  0  0  0  0  0  0  0
   56.6840   29.6390   44.4630 C   0  0  0  0  0  0  0  0  0  0  0  0
   56.1750   28.3930   44.9690 N   0  0  0  0  0  0  0  0  0  0  0  0
   56.9670   27.4330   45.6870 C   0  0  0  0  0  0  0  0  0  0  0  0
   58.1060   27.7450   46.1260 O   0  0  0  0  0  0  0  0  0  0  0  0
   56.4320   26.0880   45.9500 C   0  0  0  0  0  0  0  0  0  0  0  0
   57.1760   24.9680   46.2670 C   0  0  0  0  0  0  0  0  0  0  0  0
   56.2620   23.9480   46.4210 C   0  0  0  0  0  0  0  0  0  0  0  0
   55.0220   24.5070   46.1890 C   0  0  0  0  0  0  0  0  0  0  0  0
   55.1560   25.7830   45.9110 O   0  0  0  0  0  0  0  0  0  0  0  0
   57.4040   30.5250   45.2880 C   0  0  0  0  0  0  0  0  0  0  0  0
   59.6485   35.0625   47.0523 H   0  0  0  0  0  0  0  0  0  0  0  0
   60.3114   34.4372   45.5043 H   0  0  0  0  0  0  0  0  0  0  0  0
   59.2321   35.8730   45.5043 H   0  0  0  0  0  0  0  0  0  0  0  0
   57.6503   34.0028   46.7696 H   0  0  0  0  0  0  0  0  0  0  0  0
   57.6102   34.3628   45.0002 H   0  0  0  0  0  0  0  0  0  0  0  0
   58.0870   32.9797   43.0026 H   0  0  0  0  0  0  0  0  0  0  0  0
   56.8584   31.3940   41.5285 H   0  0  0  0  0  0  0  0  0  0  0  0
   55.9781   29.2525   42.4472 H   0  0  0  0  0  0  0  0  0  0  0  0
   55.1480   28.2160   44.8860 H   0  0  0  0  0  0  0  0  0  0  0  0
   58.2689   24.9037   46.3741 H   0  0  0  0  0  0  0  0  0  0  0  0
   56.4775   22.9002   46.6771 H   0  0  0  0  0  0  0  0  0  0  0  0
   54.0656   23.9652   46.2307 H   0  0  0  0  0  0  0  0  0  0  0  0
   57.5683   30.2744   46.3464 H   0  0  0  0  0  0  0  0  0  0  0  0
  1  2  1  0
  2  3  1  0
  3  4  1  0
  4  5  2  0
  5  6  1  0
  6  7  2  0
  7  8  1  0
  8  9  1  0
  9 10  1  0
 10 11  2  0
 10 12  1  0
 12 13  2  0
 13 14  1  0
 14 15  2  0
 15 16  1  0
  8 17  2  0
 17  4  1  0
 16 12  1  0
  1 18  1  0
  1 19  1  0
  1 20  1  0
  2 21  1  0
  2 22  1  0
  5 23  1  0
  6 24  1  0
  7 25  1  0
  9 26  1  0
 13 27  1  0
 14 28  1  0
 15 29  1  0
 17 30  1  0
M  END
>  <UniqueID>  (35) 
33

>  <SMILES>  (35) 
CCOc1cccc(NC(=O)c2ccco2)c1

>  <Energy>  (35) 
56.51303700237223

>  <Genealogy>  (35) 
CCOc1cccc(NC(=O)c2ccco2)c1 (3D coordinates assigned)
CCOc1cccc(NC(=O)c2ccco2)c1 (optimized conformer: 56.51303700237223 kcal/mol)

>  <smiles>  (35) 
CCOc1cccc(NC(=O)c2ccco2)c1

>  <score_type>  (35) 
oracle

>  <origin>  (35) 
adg

>  <m_score__min__energy>  (35) 
-6.1799999999999997

>  <m_primary>  (35) 
energy

$$$$
35:0
     RDKit          3D

 44 47  0  0  0  0  0  0  0  0999 V2000
   56.6562   33.1640   45.3683 H   0  0  0  0  0  0  0  0  0  0  0  0
   57.6020   32.6470   45.5880 C   0  0  0  0  0  0  0  0  0  0  0  0
   57.8990   31.5610   44.8550 C   0  0  0  0  0  0  0  0  0  0  0  0
   58.5794   31.6927   44.0007 H   0  0  0  0  0  0  0  0  0  0  0  0
   57.3760   30.1970   45.1140 C   0  0  0  0  0  0  0  0  0  0  0  0
   56.0980   29.8440   44.6550 C   0  0  0  0  0  0  0  0  0  0  0  0
   55.4986   30.5740   44.0912 H   0  0  0  0  0  0  0  0  0  0  0  0
   55.5980   28.6100   44.9020 N   0  0  0  0  0  0  0  0  0  0  0  0
   56.2970   27.6800   45.5960 C   0  0  0  0  0  0  0  0  0  0  0  0
   55.8591   26.6856   45.7675 H   0  0  0  0  0  0  0  0  0  0  0  0
   57.5710   27.9720   46.0970 C   0  0  0  0  0  0  0  0  0  0  0  0
   58.2620   26.9030   46.7790 C   0  0  0  0  0  0  0  0  0  0  0  0
   58.8150   26.0510   47.3350 N   0  0  0  0  0  0  0  0  0  0  0  0
   58.1250   29.2690   45.8720 C   0  0  0  0  0  0  0  0  0  0  0  0
   59.3040   29.6470   46.2990 N   0  0  0  0  0  0  0  0  0  0  0  0
   59.7440   29.8750   47.6430 C   0  0  0  0  0  0  0  0  0  0  0  0
   58.9200   29.4650   48.7180 C   0  0  0  0  0  0  0  0  0  0  0  0
   57.9752   28.9414   48.5102 H   0  0  0  0  0  0  0  0  0  0  0  0
   59.2950   29.7190   50.0460 C   0  0  0  0  0  0  0  0  0  0  0  0
   58.6661   29.3884   50.8858 H   0  0  0  0  0  0  0  0  0  0  0  0
   60.4870   30.4020   50.2680 C   0  0  0  0  0  0  0  0  0  0  0  0
   61.2880   30.8170   49.2340 C   0  0  0  0  0  0  0  0  0  0  0  0
   62.3640   31.4740   49.7990 C   0  0  0  0  0  0  0  0  0  0  0  0
   63.2083   31.9443   49.2736 H   0  0  0  0  0  0  0  0  0  0  0  0
   62.1540   31.4150   51.1720 C   0  0  0  0  0  0  0  0  0  0  0  0
   62.8297   31.8440   51.9266 H   0  0  0  0  0  0  0  0  0  0  0  0
   61.0070   30.7590   51.4530 N   0  0  0  0  0  0  0  0  0  0  0  0
   60.6050   30.5760   52.4000 H   0  0  0  0  0  0  0  0  0  0  0  0
   60.9590   30.5650   47.8940 C   0  0  0  0  0  0  0  0  0  0  0  0
   61.8300   31.0630   46.7720 C   0  0  0  0  0  0  0  0  0  0  0  0
   62.7133   31.5680   47.1900 H   0  0  0  0  0  0  0  0  0  0  0  0
   62.1524   30.2128   46.1530 H   0  0  0  0  0  0  0  0  0  0  0  0
   61.2608   31.7722   46.1530 H   0  0  0  0  0  0  0  0  0  0  0  0
   58.4480   33.2020   46.6680 C   0  0  0  0  0  0  0  0  0  0  0  0
   59.4880   34.1090   46.4030 C   0  0  0  0  0  0  0  0  0  0  0  0
   59.6774   34.4428   45.3721 H   0  0  0  0  0  0  0  0  0  0  0  0
   60.2800   34.5860   47.4470 C   0  0  0  0  0  0  0  0  0  0  0  0
   61.0853   35.3084   47.2478 H   0  0  0  0  0  0  0  0  0  0  0  0
   60.0410   34.1380   48.7470 C   0  0  0  0  0  0  0  0  0  0  0  0
   60.6550   34.5140   49.5786 H   0  0  0  0  0  0  0  0  0  0  0  0
   59.0500   33.2370   48.9880 N   0  0  0  0  0  0  0  0  0  0  0  0
   58.8890   32.9050   49.9650 H   0  0  0  0  0  0  0  0  0  0  0  0
   58.2640   32.7590   47.9840 C   0  0  0  0  0  0  0  0  0  0  0  0
   57.4800   32.0206   48.2078 H   0  0  0  0  0  0  0  0  0  0  0  0
  1  2  1  0
  2  3  2  0
  3  4  1  0
  3  5  1  0
  5  6  2  0
  6  7  1  0
  6  8  1  0
  8  9  1  0
  9 10  1  0
  9 11  2  0
 11 12  1  0
 12 13  3  0
 11 14  1  0
 14 15  2  0
 15 16  1  0
 16 17  2  0
 17 18  1  0
 17 19  1  0
 19 20  1  0
 19 21  2  0
 21 22  1  0
 22 23  1  0
 23 24  1  0
 23 25  2  0
 25 26  1  0
 25 27  1  0
 27 28  1  0
 22 29  2  0
 29 30  1  0
 30 31  1  0
 30 32  1  0
 30 33  1  0
  2 34  1  0
 34 35  2  0
 35 36  1  0
 35 37  1  0
 37 38  1  0
 37 39  2  0
 39 40  1  0
 39 41  1  0
 41 42  1  0
 41 43  2  0
 43 44  1  0
 14  5  1  0
 29 16  1  0
 43 34  1  0
 27 21  1  0
M  CHG  2   8  -1  41   1
M  END
>  <UniqueID>  (36) 
34

>  <SMILES>  (36) 
Cc1c(/N=c2\c(C#N)c[n-]cc2/C=C\c2ccc[nH+]c2)ccc2[nH]ccc12

>  <Energy>  (36) 
107.60932540288871

>  <Genealogy>  (36) 
Cc1c(N=c2c(C#N)c[n-]cc2C=Cc2ccc[nH+]c2)ccc2[nH]ccc12 (protonated)
Cc1c(/N=c2\c(C#N)c[n-]cc2/C=C\c2ccc[nH+]c2)ccc2[nH]ccc12 (cis-trans isomerization)
Cc1c(/N=c2\c(C#N)c[n-]cc2/C=C\c2ccc[nH+]c2)ccc2[nH]ccc12 (3D coordinates assigned)
Cc1c(/N=c2\c(C#N)c[n-]cc2/C=C\c2ccc[nH+]c2)ccc2[nH]ccc12 (optimized conformer: 107.60932540288871 kcal/mol)

>  <smiles>  (36) 
Cc1c(N=c2c(C#N)c[nH]cc2C=Cc2cccnc2)ccc2[nH]ccc12

>  <score_type>  (36) 
oracle

>  <origin>  (36) 
adg

>  <m_score__min__energy>  (36) 
-8

>  <m_primary>  (36) 
energy

$$$$
36:0
     RDKit          3D

 31 32  0  0  0  0  0  0  0  0999 V2000
   61.6080   32.5240   47.1150 C   0  0  0  0  0  0  0  0  0  0  0  0
   60.9720   31.2520   47.0610 O   0  0  0  0  0  0  0  0  0  0  0  0
   59.7910   30.9360   46.3650 C   0  0  0  0  0  0  0  0  0  0  0  0
   59.5840   29.5860   46.0660 C   0  0  0  0  0  0  0  0  0  0  0  0
   58.4400   29.1500   45.3810 C   0  0  0  0  0  0  0  0  0  0  0  0
   58.2730   27.6720   45.1370 C   0  0  0  0  0  0  0  0  0  0  0  0
   58.1710   26.7930   46.7310 S   0  0  0  0  0  0  0  0  0  0  0  0
   56.6040   26.0260   46.3370 C   0  0  0  0  0  0  0  0  0  0  0  0
   56.4070   24.6940   46.3320 N   0  0  0  0  0  0  0  0  0  0  0  0
   55.1070   24.6110   45.9860 C   0  0  0  0  0  0  0  0  0  0  0  0
   54.5520   25.8210   45.7930 N   0  0  0  0  0  0  0  0  0  0  0  0
   55.4980   26.7170   46.0140 N   0  0  0  0  0  0  0  0  0  0  0  0
   57.4890   30.1040   44.9470 C   0  0  0  0  0  0  0  0  0  0  0  0
   56.3200   29.7280   44.1970 N   0  0  0  0  0  0  0  0  0  0  0  0
   56.2880   29.8680   42.9580 O   0  0  0  0  0  0  0  0  0  0  0  0
   55.1540   29.4120   44.8570 O   0  0  0  0  0  0  0  0  0  0  0  0
   57.6850   31.4570   45.2610 C   0  0  0  0  0  0  0  0  0  0  0  0
   58.8250   31.8900   45.9650 C   0  0  0  0  0  0  0  0  0  0  0  0
   59.0140   33.2480   46.2690 O   0  0  0  0  0  0  0  0  0  0  0  0
   58.7580   34.3300   45.3770 C   0  0  0  0  0  0  0  0  0  0  0  0
   61.7543   32.8165   48.1653 H   0  0  0  0  0  0  0  0  0  0  0  0
   62.5840   32.4677   46.6107 H   0  0  0  0  0  0  0  0  0  0  0  0
   60.9773   33.2710   46.6107 H   0  0  0  0  0  0  0  0  0  0  0  0
   60.3374   28.8468   46.3758 H   0  0  0  0  0  0  0  0  0  0  0  0
   57.3503   27.4981   44.5640 H   0  0  0  0  0  0  0  0  0  0  0  0
   59.1371   27.2969   44.5691 H   0  0  0  0  0  0  0  0  0  0  0  0
   54.5621   23.6620   45.8742 H   0  0  0  0  0  0  0  0  0  0  0  0
   56.9316   32.1959   44.9505 H   0  0  0  0  0  0  0  0  0  0  0  0
   58.5427   35.2399   45.9565 H   0  0  0  0  0  0  0  0  0  0  0  0
   59.6409   34.4993   44.7431 H   0  0  0  0  0  0  0  0  0  0  0  0
   57.8928   34.0858   44.7431 H   0  0  0  0  0  0  0  0  0  0  0  0
  1  2  1  0
  2  3  1  0
  3  4  2  0
  4  5  1  0
  5  6  1  0
  6  7  1  0
  7  8  1  0
  8  9  1  0
  9 10  2  0
 10 11  1  0
 11 12  1  0
  5 13  2  0
 13 14  1  0
 14 15  2  0
 14 16  1  0
 13 17  1  0
 17 18  2  0
 18 19  1  0
 19 20  1  0
 18  3  1  0
 12  8  2  0
  1 21  1  0
  1 22  1  0
  1 23  1  0
  4 24  1  0
  6 25  1  0
  6 26  1  0
 10 27  1  0
 17 28  1  0
 20 29  1  0
 20 30  1  0
 20 31  1  0
M  CHG  3  11  -1  14   1  16  -1
M  END
>  <UniqueID>  (37) 
35

>  <SMILES>  (37) 
COc1cc(CSc2nc[n-]n2)c([N+](=O)[O-])cc1OC

>  <Energy>  (37) 
66.37251616463084

>  <Genealogy>  (37) 
COc1cc(CSc2nc[n-]n2)c([N+](=O)[O-])cc1OC (protonated)
COc1cc(CSc2nc[n-]n2)c([N+](=O)[O-])cc1OC (3D coordinates assigned)
COc1cc(CSc2nc[n-]n2)c([N+](=O)[O-])cc1OC (optimized conformer: 66.37251616463084 kcal/mol)

>  <smiles>  (37) 
COc1cc(CSc2nc[nH]n2)c([N+](=O)[O-])cc1OC

>  <score_type>  (37) 
oracle

>  <origin>  (37) 
adg

>  <m_score__min__energy>  (37) 
-8.4299999999999997

>  <m_primary>  (37) 
energy

$$$$
37:0
     RDKit          3D

 48 50  0  0  0  0  0  0  0  0999 V2000
   63.0810   34.2250   49.8490 C   0  0  0  0  0  0  0  0  0  0  0  0
   61.9130   33.9960   48.9270 C   0  0  0  0  0  0  0  0  0  0  0  0
   60.6080   34.1970   49.4040 C   0  0  0  0  0  0  0  0  0  0  0  0
   59.5050   33.9940   48.5720 C   0  0  0  0  0  0  0  0  0  0  0  0
   59.6850   33.5790   47.2440 C   0  0  0  0  0  0  0  0  0  0  0  0
   58.5270   33.3590   46.3490 C   0  0  0  0  0  0  0  0  0  0  0  0
   57.3600   33.4320   46.8250 O   0  0  0  0  0  0  0  0  0  0  0  0
   58.7140   33.0250   44.9630 N   0  0  0  0  0  0  0  0  0  0  0  0
   57.6150   32.5420   44.1280 C   0  0  0  0  0  0  0  0  0  0  0  0
   57.3870   31.0780   44.3860 C   0  0  0  0  0  0  0  0  0  0  0  0
   56.1310   30.5020   44.1470 C   0  0  0  0  0  0  0  0  0  0  0  0
   55.8780   29.1800   44.5210 C   0  0  0  0  0  0  0  0  0  0  0  0
   56.8770   28.4160   45.1450 C   0  0  0  0  0  0  0  0  0  0  0  0
   56.5870   27.0440   45.6200 C   0  0  0  0  0  0  0  0  0  0  0  0
   55.4250   26.7570   46.0130 O   0  0  0  0  0  0  0  0  0  0  0  0
   57.6090   26.0400   45.6880 N   0  0  0  0  0  0  0  0  0  0  0  0
   57.5630   24.7540   45.0520 C   0  0  0  0  0  0  0  0  0  0  0  0
   56.4990   24.4670   44.1880 C   0  0  0  0  0  0  0  0  0  0  0  0
   56.4150   23.2210   43.5580 C   0  0  0  0  0  0  0  0  0  0  0  0
   57.4040   22.2580   43.7760 C   0  0  0  0  0  0  0  0  0  0  0  0
   58.4850   22.5450   44.6120 C   0  0  0  0  0  0  0  0  0  0  0  0
   58.5760   23.7900   45.2440 C   0  0  0  0  0  0  0  0  0  0  0  0
   59.6680   24.0640   46.0000 F   0  0  0  0  0  0  0  0  0  0  0  0
   58.1490   28.9760   45.3380 C   0  0  0  0  0  0  0  0  0  0  0  0
   58.3980   30.3020   44.9740 C   0  0  0  0  0  0  0  0  0  0  0  0
   60.9870   33.3610   46.7670 C   0  0  0  0  0  0  0  0  0  0  0  0
   62.1040   33.5720   47.5910 C   0  0  0  0  0  0  0  0  0  0  0  0
   63.4860   33.3370   47.0360 C   0  0  0  0  0  0  0  0  0  0  0  0
   62.7422   34.1586   50.8934 H   0  0  0  0  0  0  0  0  0  0  0  0
   63.8499   33.4605   49.6636 H   0  0  0  0  0  0  0  0  0  0  0  0
   63.5043   35.2232   49.6636 H   0  0  0  0  0  0  0  0  0  0  0  0
   60.4526   34.5179   50.4446 H   0  0  0  0  0  0  0  0  0  0  0  0
   58.4893   34.1604   48.9601 H   0  0  0  0  0  0  0  0  0  0  0  0
   59.6790   32.9810   44.5650 H   0  0  0  0  0  0  0  0  0  0  0  0
   56.6996   33.1025   44.3686 H   0  0  0  0  0  0  0  0  0  0  0  0
   57.8710   32.6893   43.0684 H   0  0  0  0  0  0  0  0  0  0  0  0
   55.3408   31.0943   43.6625 H   0  0  0  0  0  0  0  0  0  0  0  0
   54.8910   28.7354   44.3256 H   0  0  0  0  0  0  0  0  0  0  0  0
   55.7245   25.2261   44.0036 H   0  0  0  0  0  0  0  0  0  0  0  0
   55.5696   22.9989   42.8902 H   0  0  0  0  0  0  0  0  0  0  0  0
   57.3309   21.2743   43.2892 H   0  0  0  0  0  0  0  0  0  0  0  0
   59.2679   21.7895   44.7743 H   0  0  0  0  0  0  0  0  0  0  0  0
   58.9537   28.3685   45.7778 H   0  0  0  0  0  0  0  0  0  0  0  0
   59.3917   30.7400   45.1492 H   0  0  0  0  0  0  0  0  0  0  0  0
   61.1344   33.0196   45.7318 H   0  0  0  0  0  0  0  0  0  0  0  0
   64.1985   33.2159   47.8653 H   0  0  0  0  0  0  0  0  0  0  0  0
   63.4834   32.4264   46.4189 H   0  0  0  0  0  0  0  0  0  0  0  0
   63.7845   34.1973   46.4189 H   0  0  0  0  0  0  0  0  0  0  0  0
  1  2  1  0
  2  3  2  0
  3  4  1  0
  4  5  2  0
  5  6  1  0
  6  7  2  0
  6  8  1  0
  8  9  1  0
  9 10  1  0
 10 11  2  0
 11 12  1  0
 12 13  2  0
 13 14  1  0
 14 15  2  0
 14 16  1  0
 16 17  1  0
 17 18  2  0
 18 19  1  0
 19 20  2  0
 20 21  1  0
 21 22  2  0
 22 23  1  0
 13 24  1  0
 24 25  2  0
  5 26  1  0
 26 27  2  0
 27 28  1  0
 27  2  1  0
 25 10  1  0
 22 17  1  0
  1 29  1  0
  1 30  1  0
  1 31  1  0
  3 32  1  0
  4 33  1  0
  8 34  1  0
  9 35  1  0
  9 36  1  0
 11 37  1  0
 12 38  1  0
 18 39  1  0
 19 40  1  0
 20 41  1  0
 21 42  1  0
 24 43  1  0
 25 44  1  0
 26 45  1  0
 28 46  1  0
 28 47  1  0
 28 48  1  0
M  CHG  1  16  -1
M  END
>  <UniqueID>  (38) 
36

>  <SMILES>  (38) 
Cc1ccc(C(=O)NCc2ccc(C(=O)[N-]c3ccccc3F)cc2)cc1C

>  <Energy>  (38) 
58.441427528992854

>  <Genealogy>  (38) 
Cc1ccc(C(=O)NCc2ccc(C(=O)[N-]c3ccccc3F)cc2)cc1C (protonated)
Cc1ccc(C(=O)NCc2ccc(C(=O)[N-]c3ccccc3F)cc2)cc1C (3D coordinates assigned)
Cc1ccc(C(=O)NCc2ccc(C(=O)[N-]c3ccccc3F)cc2)cc1C (optimized conformer: 58.441427528992854 kcal/mol)

>  <smiles>  (38) 
Cc1ccc(C(=O)NCc2ccc(C(=O)Nc3ccccc3F)cc2)cc1C

>  <score_type>  (38) 
oracle

>  <origin>  (38) 
adg

>  <m_score__min__energy>  (38) 
-11.300000000000001

>  <m_primary>  (38) 
energy

$$$$
38:0
     RDKit          3D

 51 53  0  0  0  0  0  0  0  0999 V2000
   58.0730   27.9320   43.8220 C   0  0  0  0  0  0  0  0  0  0  0  0
   57.0540   29.0010   43.4490 C   0  0  0  0  0  0  0  0  0  0  0  0
   56.3850   29.5370   44.6760 C   0  0  0  0  0  0  0  0  0  0  0  0
   55.1500   29.3480   44.8450 O   0  0  0  0  0  0  0  0  0  0  0  0
   57.1600   30.2510   45.6480 N   0  0  0  0  0  0  0  0  0  0  0  0
   57.7310   31.5560   45.4860 C   0  0  0  0  0  0  0  0  0  0  0  0
   57.7470   32.1280   44.2080 C   0  0  0  0  0  0  0  0  0  0  0  0
   58.2800   33.4030   44.0130 C   0  0  0  0  0  0  0  0  0  0  0  0
   58.7910   34.1230   45.0950 C   0  0  0  0  0  0  0  0  0  0  0  0
   58.7640   33.5810   46.3860 C   0  0  0  0  0  0  0  0  0  0  0  0
   59.2770   34.3580   47.4380 O   0  0  0  0  0  0  0  0  0  0  0  0
   60.6310   34.3500   47.8950 C   0  0  0  0  0  0  0  0  0  0  0  0
   61.5740   33.8750   46.7800 C   0  0  0  0  0  0  0  0  0  0  0  0
   63.0550   33.7680   47.2330 C   0  0  0  0  0  0  0  0  0  0  0  0
   63.5190   32.4450   47.7420 N   0  0  1  0  0  0  0  0  0  0  0  0
   63.5870   32.3270   49.2180 C   0  0  0  0  0  0  0  0  0  0  0  0
   62.2280   32.0920   49.8850 C   0  0  0  0  0  0  0  0  0  0  0  0
   61.3490   31.1410   49.1160 C   0  0  0  0  0  0  0  0  0  0  0  0
   60.1740   30.6630   49.7170 C   0  0  0  0  0  0  0  0  0  0  0  0
   59.2930   29.8510   48.9990 C   0  0  0  0  0  0  0  0  0  0  0  0
   59.5730   29.5160   47.6740 C   0  0  0  0  0  0  0  0  0  0  0  0
   60.7340   29.9930   47.0630 C   0  0  0  0  0  0  0  0  0  0  0  0
   61.6200   30.8210   47.7690 C   0  0  0  0  0  0  0  0  0  0  0  0
   62.9030   31.2610   47.1060 C   0  0  0  0  0  0  0  0  0  0  0  0
   58.2170   32.2960   46.5790 C   0  0  0  0  0  0  0  0  0  0  0  0
   58.1431   27.8585   44.9173 H   0  0  0  0  0  0  0  0  0  0  0  0
   57.7558   26.9631   43.4090 H   0  0  0  0  0  0  0  0  0  0  0  0
   59.0560   28.2025   43.4090 H   0  0  0  0  0  0  0  0  0  0  0  0
   57.5659   29.8230   42.9272 H   0  0  0  0  0  0  0  0  0  0  0  0
   56.2917   28.5534   42.7944 H   0  0  0  0  0  0  0  0  0  0  0  0
   57.3374   31.5696   43.3534 H   0  0  0  0  0  0  0  0  0  0  0  0
   58.2976   33.8419   43.0045 H   0  0  0  0  0  0  0  0  0  0  0  0
   59.2180   35.1235   44.9320 H   0  0  0  0  0  0  0  0  0  0  0  0
   60.9157   35.3677   48.2003 H   0  0  0  0  0  0  0  0  0  0  0  0
   60.7138   33.6602   48.7478 H   0  0  0  0  0  0  0  0  0  0  0  0
   61.2405   32.8837   46.4393 H   0  0  0  0  0  0  0  0  0  0  0  0
   61.5323   34.6249   45.9763 H   0  0  0  0  0  0  0  0  0  0  0  0
   63.6846   34.0296   46.3698 H   0  0  0  0  0  0  0  0  0  0  0  0
   63.1376   34.4475   48.0941 H   0  0  0  0  0  0  0  0  0  0  0  0
   64.5250   32.4090   47.4430 H   0  0  0  0  0  0  0  0  0  0  0  0
   64.2462   31.4826   49.4680 H   0  0  0  0  0  0  0  0  0  0  0  0
   63.9676   33.2866   49.5979 H   0  0  0  0  0  0  0  0  0  0  0  0
   62.3981   31.6770   50.8894 H   0  0  0  0  0  0  0  0  0  0  0  0
   61.7089   33.0611   49.9222 H   0  0  0  0  0  0  0  0  0  0  0  0
   59.9457   30.9294   50.7595 H   0  0  0  0  0  0  0  0  0  0  0  0
   58.3773   29.4752   49.4789 H   0  0  0  0  0  0  0  0  0  0  0  0
   58.8785   28.8756   47.1104 H   0  0  0  0  0  0  0  0  0  0  0  0
   60.9557   29.7180   46.0213 H   0  0  0  0  0  0  0  0  0  0  0  0
   63.6210   30.4288   47.1502 H   0  0  0  0  0  0  0  0  0  0  0  0
   62.6534   31.5419   46.0722 H   0  0  0  0  0  0  0  0  0  0  0  0
   58.1699   31.8690   47.5917 H   0  0  0  0  0  0  0  0  0  0  0  0
  1  2  1  0
  2  3  1  0
  3  4  2  0
  3  5  1  0
  5  6  1  0
  6  7  2  0
  7  8  1  0
  8  9  2  0
  9 10  1  0
 10 11  1  0
 11 12  1  0
 12 13  1  0
 13 14  1  0
 14 15  1  0
 15 16  1  0
 16 17  1  0
 17 18  1  0
 18 19  2  0
 19 20  1  0
 20 21  2  0
 21 22  1  0
 22 23  2  0
 23 24  1  0
 10 25  2  0
 25  6  1  0
 24 15  1  0
 23 18  1  0
  1 26  1  0
  1 27  1  0
  1 28  1  0
  2 29  1  0
  2 30  1  0
  7 31  1  0
  8 32  1  0
  9 33  1  0
 12 34  1  0
 12 35  1  0
 13 36  1  0
 13 37  1  0
 14 38  1  0
 14 39  1  0
 15 40  1  6
 16 41  1  0
 16 42  1  0
 17 43  1  0
 17 44  1  0
 19 45  1  0
 20 46  1  0
 21 47  1  0
 22 48  1  0
 24 49  1  0
 24 50  1  0
 25 51  1  0
M  CHG  2   5  -1  15   1
M  END
>  <UniqueID>  (39) 
37

>  <SMILES>  (39) 
CCC(=O)[N-]c1cccc(OCCC[N@H+]2CCc3ccccc3C2)c1

>  <Energy>  (39) 
65.01336820121956

>  <Genealogy>  (39) 
CCC(=O)[N-]c1cccc(OCCC[NH+]2CCc3ccccc3C2)c1 (protonated)
CCC(=O)[N-]c1cccc(OCCC[N@H+]2CCc3ccccc3C2)c1 (chirality)
CCC(=O)[N-]c1cccc(OCCC[N@H+]2CCc3ccccc3C2)c1 (3D coordinates assigned)
CCC(=O)[N-]c1cccc(OCCC[N@H+]2CCc3ccccc3C2)c1 (nonaromatic ring conformer: 65.01336820121956 kcal/mol)

>  <smiles>  (39) 
CCC(=O)Nc1cccc(OCCCN2CCc3ccccc3C2)c1

>  <score_type>  (39) 
oracle

>  <origin>  (39) 
adg

>  <m_score__min__energy>  (39) 
-8.7300000000000004

>  <m_primary>  (39) 
energy

$$$$
39:0
     RDKit          3D

 35 37  0  0  0  0  0  0  0  0999 V2000
   61.0550   30.4560   47.1090 C   0  0  0  0  0  0  0  0  0  0  0  0
   60.1220   31.1380   48.0620 C   0  0  0  0  0  0  0  0  0  0  0  0
   60.2130   31.0160   49.4010 N   0  0  0  0  0  0  0  0  0  0  0  0
   59.2240   31.7800   49.9010 C   0  0  0  0  0  0  0  0  0  0  0  0
   58.5440   32.3670   48.8540 C   0  0  0  0  0  0  0  0  0  0  0  0
   59.1120   31.9600   47.7000 N   0  0  0  0  0  0  0  0  0  0  0  0
   58.7370   32.3780   46.3770 C   0  0  0  0  0  0  0  0  0  0  0  0
   57.9290   31.5370   45.5930 C   0  0  0  0  0  0  0  0  0  0  0  0
   57.5970   31.8930   44.2850 C   0  0  0  0  0  0  0  0  0  0  0  0
   58.0660   33.0880   43.7440 C   0  0  0  0  0  0  0  0  0  0  0  0
   58.8690   33.9360   44.5110 C   0  0  0  0  0  0  0  0  0  0  0  0
   59.2150   33.5930   45.8300 C   0  0  0  0  0  0  0  0  0  0  0  0
   60.0110   34.5430   46.6400 C   0  0  0  0  0  0  0  0  0  0  0  0
   59.5800   35.7190   46.7910 O   0  0  0  0  0  0  0  0  0  0  0  0
   61.3000   34.1560   47.2660 C   0  0  0  0  0  0  0  0  0  0  0  0
   62.3830   33.7550   46.4620 C   0  0  0  0  0  0  0  0  0  0  0  0
   63.6050   33.4010   47.0420 C   0  0  0  0  0  0  0  0  0  0  0  0
   63.7620   33.4500   48.4290 C   0  0  0  0  0  0  0  0  0  0  0  0
   62.6980   33.8570   49.2380 C   0  0  0  0  0  0  0  0  0  0  0  0
   61.4750   34.2120   48.6620 C   0  0  0  0  0  0  0  0  0  0  0  0
   61.8160   29.8997   47.6759 H   0  0  0  0  0  0  0  0  0  0  0  0
   60.4870   29.7587   46.4757 H   0  0  0  0  0  0  0  0  0  0  0  0
   61.5471   31.2088   46.4757 H   0  0  0  0  0  0  0  0  0  0  0  0
   60.9050   30.4520   49.9430 H   0  0  0  0  0  0  0  0  0  0  0  0
   58.9956   31.9142   50.9686 H   0  0  0  0  0  0  0  0  0  0  0  0
   57.6861   33.0496   48.9445 H   0  0  0  0  0  0  0  0  0  0  0  0
   57.5556   30.5915   46.0132 H   0  0  0  0  0  0  0  0  0  0  0  0
   56.9633   31.2282   43.6796 H   0  0  0  0  0  0  0  0  0  0  0  0
   57.8039   33.3642   42.7120 H   0  0  0  0  0  0  0  0  0  0  0  0
   59.2336   34.8798   44.0794 H   0  0  0  0  0  0  0  0  0  0  0  0
   62.2673   33.7198   45.3687 H   0  0  0  0  0  0  0  0  0  0  0  0
   64.4438   33.0835   46.4051 H   0  0  0  0  0  0  0  0  0  0  0  0
   64.7229   33.1683   48.8843 H   0  0  0  0  0  0  0  0  0  0  0  0
   62.8231   33.8981   50.3301 H   0  0  0  0  0  0  0  0  0  0  0  0
   60.6432   34.5375   49.3039 H   0  0  0  0  0  0  0  0  0  0  0  0
  1  2  1  0
  2  3  2  0
  3  4  1  0
  4  5  2  0
  5  6  1  0
  6  7  1  0
  7  8  2  0
  8  9  1  0
  9 10  2  0
 10 11  1  0
 11 12  2  0
 12 13  1  0
 13 14  2  0
 13 15  1  0
 15 16  2  0
 16 17  1  0
 17 18  2  0
 18 19  1  0
 19 20  2  0
  6  2  1  0
 12  7  1  0
 20 15  1  0
  1 21  1  0
  1 22  1  0
  1 23  1  0
  3 24  1  0
  4 25  1  0
  5 26  1  0
  8 27  1  0
  9 28  1  0
 10 29  1  0
 11 30  1  0
 16 31  1  0
 17 32  1  0
 18 33  1  0
 19 34  1  0
 20 35  1  0
M  CHG  1   3   1
M  END
>  <UniqueID>  (40) 
38

>  <SMILES>  (40) 
Cc1[nH+]ccn1-c1ccccc1C(=O)c1ccccc1

>  <Energy>  (40) 
80.00991934849674

>  <Genealogy>  (40) 
Cc1[nH+]ccn1-c1ccccc1C(=O)c1ccccc1 (protonated)
Cc1[nH+]ccn1-c1ccccc1C(=O)c1ccccc1 (3D coordinates assigned)
Cc1[nH+]ccn1-c1ccccc1C(=O)c1ccccc1 (optimized conformer: 80.00991934849674 kcal/mol)

>  <smiles>  (40) 
Cc1nccn1-c1ccccc1C(=O)c1ccccc1

>  <score_type>  (40) 
oracle

>  <origin>  (40) 
adg

>  <m_score__min__energy>  (40) 
-5.25

>  <m_primary>  (40) 
energy

$$$$
40:0
     RDKit          3D

 38 39  0  0  0  0  0  0  0  0999 V2000
   62.9620   33.8120   46.6700 C   0  0  0  0  0  0  0  0  0  0  0  0
   61.6110   33.8390   47.3840 C   0  0  0  0  0  0  0  0  0  0  0  0
   60.5420   34.5990   46.5860 C   0  0  0  0  0  0  0  0  0  0  0  0
   59.4280   33.6880   46.1350 C   0  0  0  0  0  0  0  0  0  0  0  0
   58.7310   33.9510   44.9470 C   0  0  0  0  0  0  0  0  0  0  0  0
   57.7430   33.0680   44.5010 C   0  0  0  0  0  0  0  0  0  0  0  0
   57.4500   31.9050   45.2210 C   0  0  0  0  0  0  0  0  0  0  0  0
   56.4950   31.0200   44.6910 O   0  0  0  0  0  0  0  0  0  0  0  0
   56.5140   30.4600   43.3760 C   0  0  0  0  0  0  0  0  0  0  0  0
   57.0220   29.0110   43.3900 C   0  0  0  0  0  0  0  0  0  0  0  0
   57.9150   28.7290   44.5700 C   0  0  0  0  0  0  0  0  0  0  0  0
   57.3970   28.1180   45.7250 C   0  0  0  0  0  0  0  0  0  0  0  0
   58.2430   27.7980   46.7930 C   0  0  0  0  0  0  0  0  0  0  0  0
   59.6070   28.0860   46.7170 C   0  0  0  0  0  0  0  0  0  0  0  0
   60.1280   28.7030   45.5760 C   0  0  0  0  0  0  0  0  0  0  0  0
   59.2880   29.0260   44.5060 C   0  0  0  0  0  0  0  0  0  0  0  0
   58.1240   31.6610   46.4340 C   0  0  0  0  0  0  0  0  0  0  0  0
   59.1130   32.5420   46.8780 C   0  0  0  0  0  0  0  0  0  0  0  0
   63.7705   33.7958   47.4157 H   0  0  0  0  0  0  0  0  0  0  0  0
   63.0260   32.9124   46.0402 H   0  0  0  0  0  0  0  0  0  0  0  0
   63.0619   34.7083   46.0402 H   0  0  0  0  0  0  0  0  0  0  0  0
   61.2702   32.8040   47.5343 H   0  0  0  0  0  0  0  0  0  0  0  0
   61.7486   34.3614   48.3422 H   0  0  0  0  0  0  0  0  0  0  0  0
   60.1192   35.3911   47.2214 H   0  0  0  0  0  0  0  0  0  0  0  0
   61.0203   35.0238   45.6911 H   0  0  0  0  0  0  0  0  0  0  0  0
   58.9623   34.8548   44.3642 H   0  0  0  0  0  0  0  0  0  0  0  0
   57.1911   33.2898   43.5757 H   0  0  0  0  0  0  0  0  0  0  0  0
   55.4938   30.4774   42.9651 H   0  0  0  0  0  0  0  0  0  0  0  0
   57.1959   31.0594   42.7549 H   0  0  0  0  0  0  0  0  0  0  0  0
   56.1566   28.3333   43.4315 H   0  0  0  0  0  0  0  0  0  0  0  0
   57.6129   28.8530   42.4758 H   0  0  0  0  0  0  0  0  0  0  0  0
   56.3227   27.8905   45.7897 H   0  0  0  0  0  0  0  0  0  0  0  0
   57.8325   27.3187   47.6940 H   0  0  0  0  0  0  0  0  0  0  0  0
   60.2714   27.8275   47.5547 H   0  0  0  0  0  0  0  0  0  0  0  0
   61.2018   28.9350   45.5198 H   0  0  0  0  0  0  0  0  0  0  0  0
   59.7024   29.5139   43.6114 H   0  0  0  0  0  0  0  0  0  0  0  0
   57.8706   30.7740   47.0332 H   0  0  0  0  0  0  0  0  0  0  0  0
   59.6479   32.3351   47.8166 H   0  0  0  0  0  0  0  0  0  0  0  0
  1  2  1  0
  2  3  1  0
  3  4  1  0
  4  5  2  0
  5  6  1  0
  6  7  2  0
  7  8  1  0
  8  9  1  0
  9 10  1  0
 10 11  1  0
 11 12  2  0
 12 13  1  0
 13 14  2  0
 14 15  1  0
 15 16  2  0
  7 17  1  0
 17 18  2  0
 18  4  1  0
 16 11  1  0
  1 19  1  0
  1 20  1  0
  1 21  1  0
  2 22  1  0
  2 23  1  0
  3 24  1  0
  3 25  1  0
  5 26  1  0
  6 27  1  0
  9 28  1  0
  9 29  1  0
 10 30  1  0
 10 31  1  0
 12 32  1  0
 13 33  1  0
 14 34  1  0
 15 35  1  0
 16 36  1  0
 17 37  1  0
 18 38  1  0
M  END
>  <UniqueID>  (41) 
39

>  <SMILES>  (41) 
CCCc1ccc(OCCc2ccccc2)cc1

>  <Energy>  (41) 
29.47315900430923

>  <Genealogy>  (41) 
CCCc1ccc(OCCc2ccccc2)cc1 (3D coordinates assigned)
CCCc1ccc(OCCc2ccccc2)cc1 (optimized conformer: 29.47315900430923 kcal/mol)

>  <smiles>  (41) 
CCCc1ccc(OCCc2ccccc2)cc1

>  <score_type>  (41) 
oracle

>  <origin>  (41) 
adg

>  <m_score__min__energy>  (41) 
-6.4900000000000002

>  <m_primary>  (41) 
energy

$$$$
41:0
     RDKit          3D

 39 41  0  0  0  0  0  0  0  0999 V2000
   56.3670   26.3130   54.2140 C   0  0  0  0  0  0  0  0  0  0  0  0
   56.1190   27.7340   53.8190 C   0  0  0  0  0  0  0  0  0  0  0  0
   54.9320   28.1890   53.4940 O   0  0  0  0  0  0  0  0  0  0  0  0
   55.0240   29.4740   53.2220 C   0  0  0  0  0  0  0  0  0  0  0  0
   53.8670   30.3080   52.8220 C   0  0  0  0  0  0  0  0  0  0  0  0
   53.8360   30.8810   51.5380 C   0  0  0  0  0  0  0  0  0  0  0  0
   52.7540   31.6720   51.1390 C   0  0  0  0  0  0  0  0  0  0  0  0
   51.6910   31.8990   52.0170 C   0  0  0  0  0  0  0  0  0  0  0  0
   50.6170   32.6850   51.6180 O   0  0  0  0  0  0  0  0  0  0  0  0
   51.7090   31.3350   53.2950 C   0  0  0  0  0  0  0  0  0  0  0  0
   52.7890   30.5440   53.6980 C   0  0  0  0  0  0  0  0  0  0  0  0
   56.3390   29.8880   53.3750 C   0  0  0  0  0  0  0  0  0  0  0  0
   57.0480   28.7620   53.7420 C   0  0  0  0  0  0  0  0  0  0  0  0
   58.4940   28.7190   54.0320 C   0  0  0  0  0  0  0  0  0  0  0  0
   58.8820   28.3860   55.1840 O   0  0  0  0  0  0  0  0  0  0  0  0
   59.4680   29.0570   53.0310 N   0  0  0  0  0  0  0  0  0  0  0  0
   60.6210   28.1690   52.8530 C   0  0  0  0  0  0  0  0  0  0  0  0
   59.1760   30.0970   52.0690 C   0  0  0  0  0  0  0  0  0  0  0  0
   59.0060   31.4380   52.4710 C   0  0  0  0  0  0  0  0  0  0  0  0
   58.7150   32.4300   51.5290 C   0  0  0  0  0  0  0  0  0  0  0  0
   58.5890   32.1000   50.1790 C   0  0  0  0  0  0  0  0  0  0  0  0
   58.7520   30.7770   49.7650 C   0  0  0  0  0  0  0  0  0  0  0  0
   59.0440   29.7810   50.7020 C   0  0  0  0  0  0  0  0  0  0  0  0
   56.3807   26.2345   55.3111 H   0  0  0  0  0  0  0  0  0  0  0  0
   55.5666   25.6753   53.8107 H   0  0  0  0  0  0  0  0  0  0  0  0
   57.3361   25.9841   53.8107 H   0  0  0  0  0  0  0  0  0  0  0  0
   54.6695   30.7056   50.8420 H   0  0  0  0  0  0  0  0  0  0  0  0
   52.7397   32.1160   50.1327 H   0  0  0  0  0  0  0  0  0  0  0  0
   50.8717   31.5137   53.9856 H   0  0  0  0  0  0  0  0  0  0  0  0
   52.7972   30.1030   54.7057 H   0  0  0  0  0  0  0  0  0  0  0  0
   56.7352   30.9043   53.2331 H   0  0  0  0  0  0  0  0  0  0  0  0
   61.0091   27.8701   53.8379 H   0  0  0  0  0  0  0  0  0  0  0  0
   60.3114   27.2738   52.2938 H   0  0  0  0  0  0  0  0  0  0  0  0
   61.4075   28.6969   52.2938 H   0  0  0  0  0  0  0  0  0  0  0  0
   59.1030   31.7058   53.5335 H   0  0  0  0  0  0  0  0  0  0  0  0
   58.5851   33.4731   51.8532 H   0  0  0  0  0  0  0  0  0  0  0  0
   58.3611   32.8829   49.4407 H   0  0  0  0  0  0  0  0  0  0  0  0
   58.6507   30.5177   48.7008 H   0  0  0  0  0  0  0  0  0  0  0  0
   59.1719   28.7405   50.3688 H   0  0  0  0  0  0  0  0  0  0  0  0
  1  2  1  0
  2  3  1  0
  3  4  1  0
  4  5  1  0
  5  6  2  0
  6  7  1  0
  7  8  2  0
  8  9  1  0
  8 10  1  0
 10 11  2  0
  4 12  2  0
 12 13  1  0
 13 14  1  0
 14 15  2  0
 14 16  1  0
 16 17  1  0
 16 18  1  0
 18 19  2  0
 19 20  1  0
 20 21  2  0
 21 22  1  0
 22 23  2  0
 13  2  2  0
 23 18  1  0
 11  5  1  0
  1 24  1  0
  1 25  1  0
  1 26  1  0
  6 27  1  0
  7 28  1  0
 10 29  1  0
 11 30  1  0
 12 31  1  0
 17 32  1  0
 17 33  1  0
 17 34  1  0
 19 35  1  0
 20 36  1  0
 21 37  1  0
 22 38  1  0
 23 39  1  0
M  CHG  1   9  -1
M  END
>  <UniqueID>  (42) 
40

>  <SMILES>  (42) 
Cc1oc(-c2ccc([O-])cc2)cc1C(=O)N(C)c1ccccc1

>  <Energy>  (42) 
76.79748440587508

>  <Genealogy>  (42) 
Cc1oc(-c2ccc([O-])cc2)cc1C(=O)N(C)c1ccccc1 (protonated)
Cc1oc(-c2ccc([O-])cc2)cc1C(=O)N(C)c1ccccc1 (3D coordinates assigned)
Cc1oc(-c2ccc([O-])cc2)cc1C(=O)N(C)c1ccccc1 (optimized conformer: 76.79748440587508 kcal/mol)

>  <smiles>  (42) 
Cc1oc(-c2ccc(O)cc2)cc1C(=O)N(C)c1ccccc1

>  <score_type>  (42) 
oracle

>  <origin>  (42) 
adg

>  <m_score__min__energy>  (42) 
-9.4700000000000006

>  <m_primary>  (42) 
energy

$$$$
42:0
     RDKit          3D

 32 33  0  0  0  0  0  0  0  0999 V2000
   64.2560   32.5050   48.6070 F   0  0  0  0  0  0  0  0  0  0  0  0
   63.6650   33.1820   47.5550 C   0  0  0  0  0  0  0  0  0  0  0  0
   64.4610   33.0230   46.4340 F   0  0  0  0  0  0  0  0  0  0  0  0
   63.5930   34.5270   47.8680 F   0  0  0  0  0  0  0  0  0  0  0  0
   62.2740   32.6590   47.2980 C   0  0  0  0  0  0  0  0  0  0  0  0
   61.9800   31.2960   47.4800 C   0  0  0  0  0  0  0  0  0  0  0  0
   60.7030   30.8020   47.1970 C   0  0  0  0  0  0  0  0  0  0  0  0
   59.7040   31.6580   46.7110 C   0  0  0  0  0  0  0  0  0  0  0  0
   58.3910   31.1480   46.4170 N   0  0  0  0  0  0  0  0  0  0  0  0
   57.4290   32.0040   45.6990 C   0  0  0  0  0  0  0  0  0  0  0  0
   57.3990   31.7400   44.1770 C   0  0  0  0  0  0  0  0  0  0  0  0
   56.6620   30.4570   43.7500 C   0  0  0  0  0  0  0  0  0  0  0  0
   56.3920   29.5420   44.8710 N   0  0  0  0  0  0  0  0  0  0  0  0
   57.5860   28.9420   45.4940 C   0  0  0  0  0  0  0  0  0  0  0  0
   58.1110   29.7290   46.7100 C   0  0  0  0  0  0  0  0  0  0  0  0
   60.0010   33.0130   46.5040 C   0  0  0  0  0  0  0  0  0  0  0  0
   61.2770   33.5070   46.7850 C   0  0  0  0  0  0  0  0  0  0  0  0
   62.7604   30.6135   47.8477 H   0  0  0  0  0  0  0  0  0  0  0  0
   60.4807   29.7365   47.3563 H   0  0  0  0  0  0  0  0  0  0  0  0
   56.4241   31.8186   46.1061 H   0  0  0  0  0  0  0  0  0  0  0  0
   57.7470   33.0470   45.8441 H   0  0  0  0  0  0  0  0  0  0  0  0
   56.9036   32.5945   43.6928 H   0  0  0  0  0  0  0  0  0  0  0  0
   58.4466   31.6080   43.8687 H   0  0  0  0  0  0  0  0  0  0  0  0
   55.7031   30.7409   43.2919 H   0  0  0  0  0  0  0  0  0  0  0  0
   57.3161   29.9243   43.0440 H   0  0  0  0  0  0  0  0  0  0  0  0
   55.8790   30.0850   45.6050 H   0  0  0  0  0  0  0  0  0  0  0  0
   57.3316   27.9236   45.8228 H   0  0  0  0  0  0  0  0  0  0  0  0
   58.3833   28.9512   44.7362 H   0  0  0  0  0  0  0  0  0  0  0  0
   57.3557   29.6808   47.5083 H   0  0  0  0  0  0  0  0  0  0  0  0
   59.0634   29.2663   47.0080 H   0  0  0  0  0  0  0  0  0  0  0  0
   59.2249   33.6904   46.1183 H   0  0  0  0  0  0  0  0  0  0  0  0
   61.5035   34.5680   46.6034 H   0  0  0  0  0  0  0  0  0  0  0  0
  1  2  1  0
  2  3  1  0
  2  4  1  0
  2  5  1  0
  5  6  2  0
  6  7  1  0
  7  8  2  0
  8  9  1  0
  9 10  1  0
 10 11  1  0
 11 12  1  0
 12 13  1  0
 13 14  1  0
 14 15  1  0
  8 16  1  0
 16 17  2  0
 17  5  1  0
 15  9  1  0
  6 18  1  0
  7 19  1  0
 10 20  1  0
 10 21  1  0
 11 22  1  0
 11 23  1  0
 12 24  1  0
 12 25  1  0
 13 26  1  0
 14 27  1  0
 14 28  1  0
 15 29  1  0
 15 30  1  0
 16 31  1  0
 17 32  1  0
M  END
>  <UniqueID>  (43) 
41

>  <SMILES>  (43) 
FC(F)(F)c1ccc(N2CCCNCC2)cc1

>  <Energy>  (43) 
45.75214297429703

>  <Genealogy>  (43) 
FC(F)(F)c1ccc(N2CCCNCC2)cc1 (3D coordinates assigned)
FC(F)(F)c1ccc(N2CCCNCC2)cc1 (nonaromatic ring conformer: 45.75214297429703 kcal/mol)

>  <smiles>  (43) 
FC(F)(F)c1ccc(N2CCCNCC2)cc1

>  <score_type>  (43) 
oracle

>  <origin>  (43) 
adg

>  <m_score__min__energy>  (43) 
-3.3500000000000001

>  <m_primary>  (43) 
energy

$$$$
43:0
     RDKit          3D

 33 34  0  0  0  0  0  0  0  0999 V2000
   57.4570   27.1340   44.1130 O   0  0  0  0  0  0  0  0  0  0  0  0
   57.0170   27.9070   45.3250 S   0  0  0  0  0  0  0  0  0  0  0  0
   56.5560   26.9480   46.3860 O   0  0  0  0  0  0  0  0  0  0  0  0
   55.7080   28.9650   44.9010 N   0  0  0  0  0  0  0  0  0  0  0  0
   56.0630   29.7490   43.7190 C   0  0  0  0  0  0  0  0  0  0  0  0
   56.4730   31.1640   44.1350 C   0  0  0  0  0  0  0  0  0  0  0  0
   57.7680   31.6020   43.4480 C   0  0  0  0  0  0  0  0  0  0  0  0
   57.9990   32.9840   43.7090 O   0  0  0  0  0  0  0  0  0  0  0  0
   58.4130   33.4950   44.9470 C   0  0  0  0  0  0  0  0  0  0  0  0
   57.9950   32.9410   46.1730 C   0  0  0  0  0  0  0  0  0  0  0  0
   58.4390   33.4900   47.3810 C   0  0  0  0  0  0  0  0  0  0  0  0
   59.2990   34.5910   47.3760 C   0  0  0  0  0  0  0  0  0  0  0  0
   59.7180   35.1460   46.1650 C   0  0  0  0  0  0  0  0  0  0  0  0
   59.2760   34.5990   44.9550 C   0  0  0  0  0  0  0  0  0  0  0  0
   58.3600   28.8500   45.9460 C   0  0  0  0  0  0  0  0  0  0  0  0
   58.4930   29.3020   47.2500 C   0  0  0  0  0  0  0  0  0  0  0  0
   59.6670   30.0380   47.4520 C   0  0  0  0  0  0  0  0  0  0  0  0
   60.4510   30.1620   46.3120 C   0  0  0  0  0  0  0  0  0  0  0  0
   59.6860   29.3560   45.0480 S   0  0  0  0  0  0  0  0  0  0  0  0
   56.9023   29.2644   43.1987 H   0  0  0  0  0  0  0  0  0  0  0  0
   55.1928   29.8069   43.0486 H   0  0  0  0  0  0  0  0  0  0  0  0
   55.6695   31.8633   43.8605 H   0  0  0  0  0  0  0  0  0  0  0  0
   56.6431   31.1666   45.2218 H   0  0  0  0  0  0  0  0  0  0  0  0
   58.6087   31.0095   43.8379 H   0  0  0  0  0  0  0  0  0  0  0  0
   57.6801   31.4429   42.3631 H   0  0  0  0  0  0  0  0  0  0  0  0
   57.3176   32.0743   46.1806 H   0  0  0  0  0  0  0  0  0  0  0  0
   58.1104   33.0541   48.3360 H   0  0  0  0  0  0  0  0  0  0  0  0
   59.6464   35.0211   48.3269 H   0  0  0  0  0  0  0  0  0  0  0  0
   60.3952   36.0128   46.1621 H   0  0  0  0  0  0  0  0  0  0  0  0
   59.6085   35.0389   44.0032 H   0  0  0  0  0  0  0  0  0  0  0  0
   57.7551   29.1036   48.0413 H   0  0  0  0  0  0  0  0  0  0  0  0
   59.9426   30.4768   48.4223 H   0  0  0  0  0  0  0  0  0  0  0  0
   61.4100   30.6968   46.2465 H   0  0  0  0  0  0  0  0  0  0  0  0
  1  2  2  0
  2  3  2  0
  2  4  1  0
  4  5  1  0
  5  6  1  0
  6  7  1  0
  7  8  1  0
  8  9  1  0
  9 10  2  0
 10 11  1  0
 11 12  2  0
 12 13  1  0
 13 14  2  0
  2 15  1  0
 15 16  2  0
 16 17  1  0
 17 18  2  0
 18 19  1  0
 14  9  1  0
 19 15  1  0
  5 20  1  0
  5 21  1  0
  6 22  1  0
  6 23  1  0
  7 24  1  0
  7 25  1  0
 10 26  1  0
 11 27  1  0
 12 28  1  0
 13 29  1  0
 14 30  1  0
 16 31  1  0
 17 32  1  0
 18 33  1  0
M  CHG  1   4  -1
M  END
>  <UniqueID>  (44) 
42

>  <SMILES>  (44) 
O=S(=O)([N-]CCCOc1ccccc1)c1cccs1

>  <Energy>  (44) 
52.24986143554814

>  <Genealogy>  (44) 
O=S(=O)([N-]CCCOc1ccccc1)c1cccs1 (protonated)
O=S(=O)([N-]CCCOc1ccccc1)c1cccs1 (3D coordinates assigned)
O=S(=O)([N-]CCCOc1ccccc1)c1cccs1 (optimized conformer: 52.24986143554814 kcal/mol)

>  <smiles>  (44) 
O=S(=O)(NCCCOc1ccccc1)c1cccs1

>  <score_type>  (44) 
oracle

>  <origin>  (44) 
adg

>  <m_score__min__energy>  (44) 
-8.6699999999999999

>  <m_primary>  (44) 
energy

$$$$
44:0
     RDKit          3D

 51 54  0  0  0  0  0  0  0  0999 V2000
   55.9690   29.7000   43.1220 C   0  0  0  0  0  0  0  0  0  0  0  0
   56.6450   30.9520   43.5660 C   0  0  0  0  0  0  0  0  0  0  0  0
   57.6230   31.6320   42.8650 C   0  0  0  0  0  0  0  0  0  0  0  0
   57.9740   32.7030   43.6580 C   0  0  0  0  0  0  0  0  0  0  0  0
   57.1900   32.6010   44.7940 C   0  0  0  0  0  0  0  0  0  0  0  0
   57.2210   33.5230   45.9700 C   0  0  0  0  0  0  0  0  0  0  0  0
   57.7580   32.8300   47.1370 N   0  0  0  0  0  0  0  0  0  0  0  0
   59.1430   32.8990   47.5170 C   0  0  0  0  0  0  0  0  0  0  0  0
   59.9740   34.3110   47.9160 S   0  0  0  0  0  0  0  0  0  0  0  0
   61.4200   33.5480   48.3010 C   0  0  0  0  0  0  0  0  0  0  0  0
   61.2880   32.1770   48.0940 C   0  0  0  0  0  0  0  0  0  0  0  0
   59.9940   31.8010   47.6770 C   0  0  0  0  0  0  0  0  0  0  0  0
   59.5870   30.4150   47.3870 C   0  0  0  0  0  0  0  0  0  0  0  0
   60.0650   29.4790   48.0840 O   0  0  0  0  0  0  0  0  0  0  0  0
   58.6460   30.1380   46.3370 N   0  0  0  0  0  0  0  0  0  0  0  0
   58.2930   28.8150   45.9020 C   0  0  0  0  0  0  0  0  0  0  0  0
   57.9410   27.8120   46.8200 C   0  0  0  0  0  0  0  0  0  0  0  0
   57.6300   26.5270   46.3760 C   0  0  0  0  0  0  0  0  0  0  0  0
   57.6820   26.2170   45.0130 C   0  0  0  0  0  0  0  0  0  0  0  0
   57.2340   24.4320   44.4690 Br  0  0  0  0  0  0  0  0  0  0  0  0
   58.0650   27.2030   44.0820 C   0  0  0  0  0  0  0  0  0  0  0  0
   58.1400   26.8900   42.6140 C   0  0  0  0  0  0  0  0  0  0  0  0
   58.3730   28.4970   44.5380 C   0  0  0  0  0  0  0  0  0  0  0  0
   62.4380   31.2310   48.3360 C   0  0  0  0  0  0  0  0  0  0  0  0
   63.7890   31.9670   48.2950 C   0  0  0  0  0  0  0  0  0  0  0  0
   63.7510   33.2400   49.1550 C   0  0  0  0  0  0  0  0  0  0  0  0
   62.7100   34.2380   48.6240 C   0  0  0  0  0  0  0  0  0  0  0  0
   56.4130   31.5450   44.7130 O   0  0  0  0  0  0  0  0  0  0  0  0
   55.6559   29.1202   44.0028 H   0  0  0  0  0  0  0  0  0  0  0  0
   55.0858   29.9546   42.5178 H   0  0  0  0  0  0  0  0  0  0  0  0
   56.6664   29.1012   42.5178 H   0  0  0  0  0  0  0  0  0  0  0  0
   58.0355   31.3723   41.8789 H   0  0  0  0  0  0  0  0  0  0  0  0
   58.7219   33.4780   43.4345 H   0  0  0  0  0  0  0  0  0  0  0  0
   57.8575   34.3892   45.7365 H   0  0  0  0  0  0  0  0  0  0  0  0
   56.1972   33.8594   46.1907 H   0  0  0  0  0  0  0  0  0  0  0  0
   57.0980   32.2660   47.7160 H   0  0  0  0  0  0  0  0  0  0  0  0
   58.1810   30.9430   45.8630 H   0  0  0  0  0  0  0  0  0  0  0  0
   57.9104   28.0413   47.8954 H   0  0  0  0  0  0  0  0  0  0  0  0
   57.3420   25.7525   47.1021 H   0  0  0  0  0  0  0  0  0  0  0  0
   58.3944   25.8285   42.4780 H   0  0  0  0  0  0  0  0  0  0  0  0
   57.1668   27.0969   42.1448 H   0  0  0  0  0  0  0  0  0  0  0  0
   58.9137   27.5155   42.1448 H   0  0  0  0  0  0  0  0  0  0  0  0
   58.6802   29.2688   43.8169 H   0  0  0  0  0  0  0  0  0  0  0  0
   62.3150   30.7636   49.3241 H   0  0  0  0  0  0  0  0  0  0  0  0
   62.4338   30.4707   47.5411 H   0  0  0  0  0  0  0  0  0  0  0  0
   64.5743   31.2983   48.6773 H   0  0  0  0  0  0  0  0  0  0  0  0
   63.9993   32.2543   47.2542 H   0  0  0  0  0  0  0  0  0  0  0  0
   63.4920   32.9672   50.1887 H   0  0  0  0  0  0  0  0  0  0  0  0
   64.7418   33.7163   49.1165 H   0  0  0  0  0  0  0  0  0  0  0  0
   62.5252   35.0062   49.3893 H   0  0  0  0  0  0  0  0  0  0  0  0
   63.1018   34.6966   47.7041 H   0  0  0  0  0  0  0  0  0  0  0  0
  1  2  1  0
  2  3  2  0
  3  4  1  0
  4  5  2  0
  5  6  1  0
  6  7  1  0
  7  8  1  0
  8  9  1  0
  9 10  1  0
 10 11  2  0
 11 12  1  0
 12 13  1  0
 13 14  2  0
 13 15  1  0
 15 16  1  0
 16 17  2  0
 17 18  1  0
 18 19  2  0
 19 20  1  0
 19 21  1  0
 21 22  1  0
 21 23  2  0
 11 24  1  0
 24 25  1  0
 25 26  1  0
 26 27  1  0
  5 28  1  0
 28  2  1  0
 12  8  2  0
 23 16  1  0
 27 10  1  0
  1 29  1  0
  1 30  1  0
  1 31  1  0
  3 32  1  0
  4 33  1  0
  6 34  1  0
  6 35  1  0
  7 36  1  0
 15 37  1  0
 17 38  1  0
 18 39  1  0
 22 40  1  0
 22 41  1  0
 22 42  1  0
 23 43  1  0
 24 44  1  0
 24 45  1  0
 25 46  1  0
 25 47  1  0
 26 48  1  0
 26 49  1  0
 27 50  1  0
 27 51  1  0
M  END
>  <UniqueID>  (45) 
43

>  <SMILES>  (45) 
Cc1ccc(CNc2sc3c(c2C(=O)Nc2ccc(Br)c(C)c2)CCCC3)o1

>  <Energy>  (45) 
109.87031382095252

>  <Genealogy>  (45) 
Cc1ccc(CNc2sc3c(c2C(=O)Nc2ccc(Br)c(C)c2)CCCC3)o1 (3D coordinates assigned)
Cc1ccc(CNc2sc3c(c2C(=O)Nc2ccc(Br)c(C)c2)CCCC3)o1 (nonaromatic ring conformer: 109.87031382095252 kcal/mol)

>  <smiles>  (45) 
Cc1ccc(CNc2sc3c(c2C(=O)Nc2ccc(Br)c(C)c2)CCCC3)o1

>  <score_type>  (45) 
oracle

>  <origin>  (45) 
adg

>  <m_score__min__energy>  (45) 
-9.6300000000000008

>  <m_primary>  (45) 
energy

$$$$
45:0
     RDKit          3D

 23 25  0  0  0  0  0  0  0  0999 V2000
   59.3260   34.4510   47.2880 C   0  0  0  0  0  0  0  0  0  0  0  0
   59.6060   35.3580   46.2660 C   0  0  0  0  0  0  0  0  0  0  0  0
   59.2690   35.0630   44.9830 N   0  0  0  0  0  0  0  0  0  0  0  0
   58.6580   33.8930   44.6540 C   0  0  0  0  0  0  0  0  0  0  0  0
   58.3550   32.9480   45.6500 C   0  0  0  0  0  0  0  0  0  0  0  0
   57.6900   31.6730   45.3050 C   0  0  0  0  0  0  0  0  0  0  0  0
   56.4200   31.5840   44.8620 N   0  0  0  0  0  0  0  0  0  0  0  0
   56.2170   30.3170   44.6770 O   0  0  0  0  0  0  0  0  0  0  0  0
   57.2990   29.6480   44.9860 C   0  0  0  0  0  0  0  0  0  0  0  0
   57.4240   28.1910   44.8960 C   0  0  0  0  0  0  0  0  0  0  0  0
   58.1210   27.4930   43.9180 C   0  0  0  0  0  0  0  0  0  0  0  0
   58.0650   26.1050   44.0880 C   0  0  0  0  0  0  0  0  0  0  0  0
   57.3270   25.7070   45.1950 C   0  0  0  0  0  0  0  0  0  0  0  0
   56.7420   27.0850   45.9640 S   0  0  0  0  0  0  0  0  0  0  0  0
   58.2870   30.4650   45.3990 N   0  0  0  0  0  0  0  0  0  0  0  0
   58.6980   33.2430   46.9790 C   0  0  0  0  0  0  0  0  0  0  0  0
   59.5975   34.6853   48.3279 H   0  0  0  0  0  0  0  0  0  0  0  0
   60.1000   36.3129   46.4988 H   0  0  0  0  0  0  0  0  0  0  0  0
   58.4001   33.6855   43.6050 H   0  0  0  0  0  0  0  0  0  0  0  0
   58.6618   27.9814   43.0940 H   0  0  0  0  0  0  0  0  0  0  0  0
   58.5594   25.3955   43.4082 H   0  0  0  0  0  0  0  0  0  0  0  0
   57.1543   24.6687   45.5146 H   0  0  0  0  0  0  0  0  0  0  0  0
   58.4717   32.5215   47.7778 H   0  0  0  0  0  0  0  0  0  0  0  0
  1  2  2  0
  2  3  1  0
  3  4  2  0
  4  5  1  0
  5  6  1  0
  6  7  2  0
  7  8  1  0
  8  9  1  0
  9 10  1  0
 10 11  2  0
 11 12  1  0
 12 13  2  0
 13 14  1  0
  9 15  2  0
  5 16  2  0
 16  1  1  0
 15  6  1  0
 14 10  1  0
  1 17  1  0
  2 18  1  0
  4 19  1  0
 11 20  1  0
 12 21  1  0
 13 22  1  0
 16 23  1  0
M  END
>  <UniqueID>  (46) 
44

>  <SMILES>  (46) 
c1cncc(-c2noc(-c3cccs3)n2)c1

>  <Energy>  (46) 
85.0385080488524

>  <Genealogy>  (46) 
c1cncc(-c2noc(-c3cccs3)n2)c1 (3D coordinates assigned)
c1cncc(-c2noc(-c3cccs3)n2)c1 (optimized conformer: 85.0385080488524 kcal/mol)

>  <smiles>  (46) 
c1cncc(-c2noc(-c3cccs3)n2)c1

>  <score_type>  (46) 
oracle

>  <origin>  (46) 
adg

>  <m_score__min__energy>  (46) 
-6.75

>  <m_primary>  (46) 
energy

$$$$
46:0
     RDKit          3D

 43 45  0  0  0  0  0  0  0  0999 V2000
   56.7940   34.5490   44.8650 C   0  0  0  0  0  0  0  0  0  0  0  0
   57.7830   33.4570   44.9240 N   0  0  0  0  0  0  0  0  0  0  0  0
   57.7810   32.7400   43.6390 C   0  0  0  0  0  0  0  0  0  0  0  0
   59.1450   33.9690   45.2010 C   0  0  0  0  0  0  0  0  0  0  0  0
   59.3050   34.5030   46.6310 C   0  0  0  0  0  0  0  0  0  0  0  0
   58.6830   33.3290   47.8900 S   0  0  0  0  0  0  0  0  0  0  0  0
   59.0770   31.8410   46.9480 C   0  0  0  0  0  0  0  0  0  0  0  0
   58.0610   31.1910   46.3130 N   0  0  0  0  0  0  0  0  0  0  0  0
   58.2620   30.0340   45.6230 C   0  0  0  0  0  0  0  0  0  0  0  0
   57.1910   29.3820   44.9920 C   0  0  0  0  0  0  0  0  0  0  0  0
   57.4070   28.1920   44.2900 C   0  0  0  0  0  0  0  0  0  0  0  0
   58.6910   27.6460   44.2120 C   0  0  0  0  0  0  0  0  0  0  0  0
   59.7660   28.2870   44.8360 C   0  0  0  0  0  0  0  0  0  0  0  0
   59.5580   29.4800   45.5440 C   0  0  0  0  0  0  0  0  0  0  0  0
   60.6180   30.1410   46.1700 C   0  0  0  0  0  0  0  0  0  0  0  0
   60.3970   31.3370   46.8700 C   0  0  0  0  0  0  0  0  0  0  0  0
   61.5560   32.0370   47.4740 C   0  0  0  0  0  0  0  0  0  0  0  0
   62.0620   31.6200   48.7180 C   0  0  0  0  0  0  0  0  0  0  0  0
   63.1770   32.2550   49.2770 C   0  0  0  0  0  0  0  0  0  0  0  0
   63.7960   33.3070   48.6000 C   0  0  0  0  0  0  0  0  0  0  0  0
   63.3130   33.7170   47.3540 C   0  0  0  0  0  0  0  0  0  0  0  0
   62.2050   33.0800   46.7870 C   0  0  0  0  0  0  0  0  0  0  0  0
   56.5202   34.8513   45.8866 H   0  0  0  0  0  0  0  0  0  0  0  0
   57.2277   35.4081   44.3322 H   0  0  0  0  0  0  0  0  0  0  0  0
   55.8963   34.2023   44.3322 H   0  0  0  0  0  0  0  0  0  0  0  0
   57.7780   31.6557   43.8241 H   0  0  0  0  0  0  0  0  0  0  0  0
   56.8836   33.0167   43.0661 H   0  0  0  0  0  0  0  0  0  0  0  0
   58.6799   33.0117   43.0661 H   0  0  0  0  0  0  0  0  0  0  0  0
   59.8646   33.1509   45.0496 H   0  0  0  0  0  0  0  0  0  0  0  0
   59.3273   34.8083   44.5138 H   0  0  0  0  0  0  0  0  0  0  0  0
   60.3722   34.6908   46.8203 H   0  0  0  0  0  0  0  0  0  0  0  0
   58.7119   35.4258   46.7120 H   0  0  0  0  0  0  0  0  0  0  0  0
   57.0960   31.5920   46.3760 H   0  0  0  0  0  0  0  0  0  0  0  0
   56.1787   29.8084   45.0499 H   0  0  0  0  0  0  0  0  0  0  0  0
   56.5642   27.6845   43.7980 H   0  0  0  0  0  0  0  0  0  0  0  0
   58.8565   26.7099   43.6585 H   0  0  0  0  0  0  0  0  0  0  0  0
   60.7757   27.8552   44.7715 H   0  0  0  0  0  0  0  0  0  0  0  0
   61.6330   29.7208   46.1137 H   0  0  0  0  0  0  0  0  0  0  0  0
   61.5789   30.7902   49.2547 H   0  0  0  0  0  0  0  0  0  0  0  0
   63.5661   31.9245   50.2514 H   0  0  0  0  0  0  0  0  0  0  0  0
   64.6641   33.8135   49.0471 H   0  0  0  0  0  0  0  0  0  0  0  0
   63.8054   34.5422   46.8187 H   0  0  0  0  0  0  0  0  0  0  0  0
   61.8387   33.3956   45.7990 H   0  0  0  0  0  0  0  0  0  0  0  0
  1  2  1  0
  2  3  1  0
  2  4  1  0
  4  5  1  0
  5  6  1  0
  6  7  1  0
  7  8  2  0
  8  9  1  0
  9 10  2  0
 10 11  1  0
 11 12  2  0
 12 13  1  0
 13 14  2  0
 14 15  1  0
 15 16  2  0
 16 17  1  0
 17 18  2  0
 18 19  1  0
 19 20  2  0
 20 21  1  0
 21 22  2  0
 16  7  1  0
 22 17  1  0
 14  9  1  0
  1 23  1  0
  1 24  1  0
  1 25  1  0
  3 26  1  0
  3 27  1  0
  3 28  1  0
  4 29  1  0
  4 30  1  0
  5 31  1  0
  5 32  1  0
  8 33  1  0
 10 34  1  0
 11 35  1  0
 12 36  1  0
 13 37  1  0
 15 38  1  0
 18 39  1  0
 19 40  1  0
 20 41  1  0
 21 42  1  0
 22 43  1  0
M  CHG  1   8   1
M  END
>  <UniqueID>  (47) 
45

>  <SMILES>  (47) 
CN(C)CCSc1[nH+]c2ccccc2cc1-c1ccccc1

>  <Energy>  (47) 
49.594006361607455

>  <Genealogy>  (47) 
CN(C)CCSc1[nH+]c2ccccc2cc1-c1ccccc1 (protonated)
CN(C)CCSc1[nH+]c2ccccc2cc1-c1ccccc1 (3D coordinates assigned)
CN(C)CCSc1[nH+]c2ccccc2cc1-c1ccccc1 (optimized conformer: 49.594006361607455 kcal/mol)

>  <smiles>  (47) 
CN(C)CCSc1nc2ccccc2cc1-c1ccccc1

>  <score_type>  (47) 
oracle

>  <origin>  (47) 
adg

>  <m_score__min__energy>  (47) 
-5.8700000000000001

>  <m_primary>  (47) 
energy

$$$$
47:0
     RDKit          3D

 45 48  0  0  0  0  0  0  0  0999 V2000
   56.6060   31.2900   44.7430 O   0  0  0  0  0  0  0  0  0  0  0  0
   57.8510   31.0840   44.7770 C   0  0  0  0  0  0  0  0  0  0  0  0
   58.6970   31.9800   45.4450 O   0  0  0  0  0  0  0  0  0  0  0  0
   58.3230   32.7320   46.6010 C   0  0  2  0  0  0  0  0  0  0  0  0
   59.0290   34.1000   46.6120 C   0  0  0  0  0  0  0  0  0  0  0  0
   60.4270   34.0100   47.1660 C   0  0  0  0  0  0  0  0  0  0  0  0
   61.4800   33.5460   46.3580 C   0  0  0  0  0  0  0  0  0  0  0  0
   62.7710   33.4250   46.8840 C   0  0  0  0  0  0  0  0  0  0  0  0
   63.0190   33.7620   48.2180 C   0  0  0  0  0  0  0  0  0  0  0  0
   61.9760   34.2220   49.0280 C   0  0  0  0  0  0  0  0  0  0  0  0
   60.6850   34.3440   48.5080 C   0  0  0  0  0  0  0  0  0  0  0  0
   58.7110   31.9550   47.8380 C   0  0  0  0  0  0  0  0  0  0  0  0
   59.5010   30.7950   47.7280 C   0  0  0  0  0  0  0  0  0  0  0  0
   59.8350   30.0570   48.8680 C   0  0  0  0  0  0  0  0  0  0  0  0
   59.3770   30.4620   50.1260 C   0  0  0  0  0  0  0  0  0  0  0  0
   58.5820   31.6040   50.2440 C   0  0  0  0  0  0  0  0  0  0  0  0
   58.2440   32.3450   49.1070 C   0  0  0  0  0  0  0  0  0  0  0  0
   58.3930   29.9040   44.1530 N   0  0  1  0  0  0  0  0  0  0  0  0
   59.6350   29.4360   44.7940 C   0  0  0  0  0  0  0  0  0  0  0  0
   59.6020   27.9120   44.7620 C   0  0  0  0  0  0  0  0  0  0  0  0
   58.1500   27.5290   44.5340 C   0  0  1  0  0  0  0  0  0  0  0  0
   57.1350   28.1120   45.5060 C   0  0  0  0  0  0  0  0  0  0  0  0
   57.4170   28.8030   44.1690 C   0  0  1  0  0  0  0  0  0  0  0  0
   57.2362   32.9008   46.5826 H   0  0  0  0  0  0  0  0  0  0  0  0
   59.0794   34.4818   45.5816 H   0  0  0  0  0  0  0  0  0  0  0  0
   58.4503   34.7754   47.2592 H   0  0  0  0  0  0  0  0  0  0  0  0
   61.2883   33.2772   45.3087 H   0  0  0  0  0  0  0  0  0  0  0  0
   63.5920   33.0642   46.2470 H   0  0  0  0  0  0  0  0  0  0  0  0
   64.0342   33.6653   48.6303 H   0  0  0  0  0  0  0  0  0  0  0  0
   62.1725   34.4884   50.0770 H   0  0  0  0  0  0  0  0  0  0  0  0
   59.8672   34.7026   49.1504 H   0  0  0  0  0  0  0  0  0  0  0  0
   59.8574   30.4674   46.7403 H   0  0  0  0  0  0  0  0  0  0  0  0
   60.4592   29.1561   48.7751 H   0  0  0  0  0  0  0  0  0  0  0  0
   59.6428   29.8814   51.0217 H   0  0  0  0  0  0  0  0  0  0  0  0
   58.2208   31.9214   51.2333 H   0  0  0  0  0  0  0  0  0  0  0  0
   57.6093   33.2380   49.2052 H   0  0  0  0  0  0  0  0  0  0  0  0
   58.6060   30.1160   43.1490 H   0  0  0  0  0  0  0  0  0  0  0  0
   60.5098   29.8073   44.2401 H   0  0  0  0  0  0  0  0  0  0  0  0
   59.7093   29.8069   45.8269 H   0  0  0  0  0  0  0  0  0  0  0  0
   60.2303   27.5333   43.9424 H   0  0  0  0  0  0  0  0  0  0  0  0
   59.9902   27.4810   45.6966 H   0  0  0  0  0  0  0  0  0  0  0  0
   58.2853   26.5055   44.1542 H   0  0  0  0  0  0  0  0  0  0  0  0
   56.1743   27.6025   45.6715 H   0  0  0  0  0  0  0  0  0  0  0  0
   57.1521   28.4185   46.5623 H   0  0  0  0  0  0  0  0  0  0  0  0
   56.7389   29.1862   43.3922 H   0  0  0  0  0  0  0  0  0  0  0  0
  1  2  2  0
  2  3  1  0
  3  4  1  0
  4  5  1  0
  5  6  1  0
  6  7  2  0
  7  8  1  0
  8  9  2  0
  9 10  1  0
 10 11  2  0
  4 12  1  0
 12 13  2  0
 13 14  1  0
 14 15  2  0
 15 16  1  0
 16 17  2  0
  2 18  1  0
 18 19  1  0
 19 20  1  0
 20 21  1  0
 21 22  1  0
 22 23  1  0
 11  6  1  0
 17 12  1  0
 23 18  1  0
 23 21  1  0
  4 24  1  1
  5 25  1  0
  5 26  1  0
  7 27  1  0
  8 28  1  0
  9 29  1  0
 10 30  1  0
 11 31  1  0
 13 32  1  0
 14 33  1  0
 15 34  1  0
 16 35  1  0
 17 36  1  0
 18 37  1  6
 19 38  1  0
 19 39  1  0
 20 40  1  0
 20 41  1  0
 21 42  1  6
 22 43  1  0
 22 44  1  0
 23 45  1  6
M  CHG  1  18   1
M  END
>  <UniqueID>  (48) 
46

>  <SMILES>  (48) 
O=C(O[C@H](Cc1ccccc1)c1ccccc1)[N@H+]1CCC2CC21

>  <Energy>  (48) 
315.06986663317355

>  <Genealogy>  (48) 
O=C(OC(Cc1ccccc1)c1ccccc1)[NH+]1CCC2CC21 (protonated)
O=C(O[C@H](Cc1ccccc1)c1ccccc1)[N@H+]1CCC2CC21 (chirality)
O=C(O[C@H](Cc1ccccc1)c1ccccc1)[N@H+]1CCC2CC21 (3D coordinates assigned)
O=C(O[C@H](Cc1ccccc1)c1ccccc1)[N@H+]1CCC2CC21 (nonaromatic ring conformer: 315.06986663317355 kcal/mol)

>  <smiles>  (48) 
O=C(OC(Cc1ccccc1)c1ccccc1)N1CCC2CC21

>  <score_type>  (48) 
oracle

>  <origin>  (48) 
adg

>  <m_score__min__energy>  (48) 
-6.0300000000000002

>  <m_primary>  (48) 
energy

$$$$
48:0
     RDKit          3D

 42 45  0  0  0  0  0  0  0  0999 V2000
   57.3430   31.9160   43.5550 O   0  0  0  0  0  0  0  0  0  0  0  0
   57.3840   31.6190   44.7780 C   0  0  0  0  0  0  0  0  0  0  0  0
   56.6500   30.4740   45.2350 N   0  0  0  0  0  0  0  0  0  0  0  0
   57.0520   29.0740   45.0770 C   0  0  1  0  0  0  0  0  0  0  0  0
   57.5710   28.8640   43.6460 C   0  0  0  0  0  0  0  0  0  0  0  0
   58.1040   27.4320   43.3830 C   0  0  0  0  0  0  0  0  0  0  0  0
   58.3320   26.5810   44.6500 C   0  0  0  0  0  0  0  0  0  0  0  0
   58.7730   27.4200   45.8210 C   0  0  0  0  0  0  0  0  0  0  0  0
   59.7580   26.9560   46.7060 C   0  0  0  0  0  0  0  0  0  0  0  0
   60.1270   27.7270   47.8110 C   0  0  0  0  0  0  0  0  0  0  0  0
   59.5090   28.9560   48.0430 C   0  0  0  0  0  0  0  0  0  0  0  0
   58.5180   29.4220   47.1750 C   0  0  0  0  0  0  0  0  0  0  0  0
   58.1360   28.6540   46.0550 C   0  0  0  0  0  0  0  0  0  0  0  0
   58.2190   32.4290   45.6780 C   0  0  0  0  0  0  0  0  0  0  0  0
   59.5260   32.1560   46.0290 C   0  0  0  0  0  0  0  0  0  0  0  0
   59.8870   33.2300   46.8300 C   0  0  0  0  0  0  0  0  0  0  0  0
   61.1870   33.4570   47.5010 C   0  0  0  0  0  0  0  0  0  0  0  0
   61.2190   33.7370   48.8780 C   0  0  0  0  0  0  0  0  0  0  0  0
   62.4370   33.9520   49.5300 C   0  0  0  0  0  0  0  0  0  0  0  0
   63.6350   33.8890   48.8150 C   0  0  0  0  0  0  0  0  0  0  0  0
   63.6170   33.6110   47.4460 C   0  0  0  0  0  0  0  0  0  0  0  0
   62.4010   33.3950   46.7890 C   0  0  0  0  0  0  0  0  0  0  0  0
   58.8670   34.0580   46.9030 O   0  0  0  0  0  0  0  0  0  0  0  0
   57.8590   33.6060   46.2200 N   0  0  0  0  0  0  0  0  0  0  0  0
   56.1659   28.4553   45.2819 H   0  0  0  0  0  0  0  0  0  0  0  0
   56.7472   29.0627   42.9446 H   0  0  0  0  0  0  0  0  0  0  0  0
   58.4162   29.5538   43.5049 H   0  0  0  0  0  0  0  0  0  0  0  0
   57.3763   26.9081   42.7458 H   0  0  0  0  0  0  0  0  0  0  0  0
   59.0899   27.5517   42.9100 H   0  0  0  0  0  0  0  0  0  0  0  0
   57.3917   26.0733   44.9109 H   0  0  0  0  0  0  0  0  0  0  0  0
   59.1291   25.8547   44.4328 H   0  0  0  0  0  0  0  0  0  0  0  0
   60.2405   25.9834   46.5294 H   0  0  0  0  0  0  0  0  0  0  0  0
   60.9054   27.3648   48.4986 H   0  0  0  0  0  0  0  0  0  0  0  0
   59.8032   29.5611   48.9133 H   0  0  0  0  0  0  0  0  0  0  0  0
   58.0340   30.3912   47.3657 H   0  0  0  0  0  0  0  0  0  0  0  0
   60.1386   31.2890   45.7408 H   0  0  0  0  0  0  0  0  0  0  0  0
   60.2789   33.7874   49.4469 H   0  0  0  0  0  0  0  0  0  0  0  0
   62.4517   34.1711   50.6079 H   0  0  0  0  0  0  0  0  0  0  0  0
   64.5924   34.0582   49.3295 H   0  0  0  0  0  0  0  0  0  0  0  0
   64.5610   33.5619   46.8835 H   0  0  0  0  0  0  0  0  0  0  0  0
   62.3927   33.1757   45.7111 H   0  0  0  0  0  0  0  0  0  0  0  0
   56.9550   34.1140   46.0890 H   0  0  0  0  0  0  0  0  0  0  0  0
  1  2  2  0
  2  3  1  0
  3  4  1  0
  4  5  1  0
  5  6  1  0
  6  7  1  0
  7  8  1  0
  8  9  2  0
  9 10  1  0
 10 11  2  0
 11 12  1  0
 12 13  2  0
  2 14  1  0
 14 15  1  0
 15 16  2  0
 16 17  1  0
 17 18  2  0
 18 19  1  0
 19 20  2  0
 20 21  1  0
 21 22  2  0
 16 23  1  0
 23 24  1  0
 13  4  1  0
 24 14  2  0
 13  8  1  0
 22 17  1  0
  4 25  1  1
  5 26  1  0
  5 27  1  0
  6 28  1  0
  6 29  1  0
  7 30  1  0
  7 31  1  0
  9 32  1  0
 10 33  1  0
 11 34  1  0
 12 35  1  0
 15 36  1  0
 18 37  1  0
 19 38  1  0
 20 39  1  0
 21 40  1  0
 22 41  1  0
 24 42  1  0
M  CHG  2   3  -1  24   1
M  END
>  <UniqueID>  (49) 
47

>  <SMILES>  (49) 
O=C([N-][C@H]1CCCc2ccccc21)c1cc(-c2ccccc2)o[nH+]1

>  <Energy>  (49) 
88.2245160959544

>  <Genealogy>  (49) 
O=C([N-]C1CCCc2ccccc21)c1cc(-c2ccccc2)o[nH+]1 (protonated)
O=C([N-][C@H]1CCCc2ccccc21)c1cc(-c2ccccc2)o[nH+]1 (chirality)
O=C([N-][C@H]1CCCc2ccccc21)c1cc(-c2ccccc2)o[nH+]1 (3D coordinates assigned)
O=C([N-][C@H]1CCCc2ccccc21)c1cc(-c2ccccc2)o[nH+]1 (nonaromatic ring conformer: 88.2245160959544 kcal/mol)

>  <smiles>  (49) 
O=C(NC1CCCc2ccccc21)c1cc(-c2ccccc2)on1

>  <score_type>  (49) 
oracle

>  <origin>  (49) 
adg

>  <m_score__min__energy>  (49) 
-8.9800000000000004

>  <m_primary>  (49) 
energy

$$$$
49:0
     RDKit          3D

 50 54  0  0  0  0  0  0  0  0999 V2000
   63.0130   34.0720   46.1330 O   0  0  0  0  0  0  0  0  0  0  0  0
   62.9490   33.4520   47.2300 C   0  0  0  0  0  0  0  0  0  0  0  0
   64.1320   33.1940   47.9300 C   0  0  0  0  0  0  0  0  0  0  0  0
   64.0850   32.5000   49.1360 C   0  0  0  0  0  0  0  0  0  0  0  0
   62.8570   32.0690   49.6390 C   0  0  0  0  0  0  0  0  0  0  0  0
   62.7690   31.3790   50.8530 C   0  0  0  0  0  0  0  0  0  0  0  0
   61.5240   30.9710   51.3340 C   0  0  0  0  0  0  0  0  0  0  0  0
   60.3620   31.2540   50.5920 C   0  0  0  0  0  0  0  0  0  0  0  0
   59.0520   30.8530   51.0520 N   0  0  0  0  0  0  0  0  0  0  0  0
   57.8660   31.6780   50.7840 C   0  0  0  0  0  0  0  0  0  0  0  0
   56.7900   31.4270   51.8450 C   0  0  0  0  0  0  0  0  0  0  0  0
   56.5400   30.0440   51.9920 O   0  0  0  0  0  0  0  0  0  0  0  0
   57.6910   29.4090   52.5110 C   0  0  0  0  0  0  0  0  0  0  0  0
   58.8440   29.4710   51.5070 C   0  0  0  0  0  0  0  0  0  0  0  0
   60.4800   31.9320   49.4160 N   0  0  0  0  0  0  0  0  0  0  0  0
   61.6780   32.3420   48.9140 C   0  0  0  0  0  0  0  0  0  0  0  0
   61.7410   33.0260   47.7240 N   0  0  0  0  0  0  0  0  0  0  0  0
   60.5290   33.3050   46.9930 C   0  0  0  0  0  0  0  0  0  0  0  0
   60.0400   34.6180   46.9080 C   0  0  0  0  0  0  0  0  0  0  0  0
   58.8760   34.8880   46.1850 C   0  0  0  0  0  0  0  0  0  0  0  0
   58.1930   33.8540   45.5410 C   0  0  0  0  0  0  0  0  0  0  0  0
   58.6710   32.5330   45.6120 C   0  0  0  0  0  0  0  0  0  0  0  0
   57.9460   31.4310   44.9340 C   0  0  0  0  0  0  0  0  0  0  0  0
   57.6830   30.2340   45.6260 C   0  0  0  0  0  0  0  0  0  0  0  0
   56.9960   29.1890   44.9990 C   0  0  0  0  0  0  0  0  0  0  0  0
   56.5700   29.3260   43.6760 C   0  0  0  0  0  0  0  0  0  0  0  0
   56.8310   30.5070   42.9770 C   0  0  0  0  0  0  0  0  0  0  0  0
   57.5160   31.5570   43.5970 C   0  0  0  0  0  0  0  0  0  0  0  0
   57.7900   32.6770   42.8800 F   0  0  0  0  0  0  0  0  0  0  0  0
   59.8390   32.2670   46.3470 C   0  0  0  0  0  0  0  0  0  0  0  0
   65.0966   33.5384   47.5289 H   0  0  0  0  0  0  0  0  0  0  0  0
   65.0123   32.2923   49.6901 H   0  0  0  0  0  0  0  0  0  0  0  0
   63.6804   31.1583   51.4279 H   0  0  0  0  0  0  0  0  0  0  0  0
   61.4512   30.4304   52.2892 H   0  0  0  0  0  0  0  0  0  0  0  0
   58.1518   32.7401   50.8018 H   0  0  0  0  0  0  0  0  0  0  0  0
   57.4620   31.4117   49.7961 H   0  0  0  0  0  0  0  0  0  0  0  0
   57.1311   31.8357   52.8076 H   0  0  0  0  0  0  0  0  0  0  0  0
   55.8600   31.9204   51.5261 H   0  0  0  0  0  0  0  0  0  0  0  0
   57.9939   29.9143   53.4399 H   0  0  0  0  0  0  0  0  0  0  0  0
   57.4525   28.3537   52.7099 H   0  0  0  0  0  0  0  0  0  0  0  0
   59.7634   29.1052   51.9875 H   0  0  0  0  0  0  0  0  0  0  0  0
   58.5960   28.8425   50.6389 H   0  0  0  0  0  0  0  0  0  0  0  0
   60.5749   35.4364   47.4121 H   0  0  0  0  0  0  0  0  0  0  0  0
   58.4960   35.9184   46.1226 H   0  0  0  0  0  0  0  0  0  0  0  0
   57.2758   34.0739   44.9749 H   0  0  0  0  0  0  0  0  0  0  0  0
   58.0199   30.1194   46.6668 H   0  0  0  0  0  0  0  0  0  0  0  0
   56.7911   28.2584   45.5486 H   0  0  0  0  0  0  0  0  0  0  0  0
   56.0290   28.5040   43.1844 H   0  0  0  0  0  0  0  0  0  0  0  0
   56.4963   30.6116   41.9344 H   0  0  0  0  0  0  0  0  0  0  0  0
   60.2160   31.2360   46.4167 H   0  0  0  0  0  0  0  0  0  0  0  0
  1  2  2  0
  2  3  1  0
  3  4  2  0
  4  5  1  0
  5  6  2  0
  6  7  1  0
  7  8  2  0
  8  9  1  0
  9 10  1  0
 10 11  1  0
 11 12  1  0
 12 13  1  0
 13 14  1  0
  8 15  1  0
 15 16  2  0
 16 17  1  0
 17 18  1  0
 18 19  2  0
 19 20  1  0
 20 21  2  0
 21 22  1  0
 22 23  1  0
 23 24  2  0
 24 25  1  0
 25 26  2  0
 26 27  1  0
 27 28  2  0
 28 29  1  0
 22 30  2  0
 17  2  1  0
 30 18  1  0
 16  5  1  0
 28 23  1  0
 14  9  1  0
  3 31  1  0
  4 32  1  0
  6 33  1  0
  7 34  1  0
 10 35  1  0
 10 36  1  0
 11 37  1  0
 11 38  1  0
 13 39  1  0
 13 40  1  0
 14 41  1  0
 14 42  1  0
 19 43  1  0
 20 44  1  0
 21 45  1  0
 24 46  1  0
 25 47  1  0
 26 48  1  0
 27 49  1  0
 30 50  1  0
M  END
>  <UniqueID>  (50) 
48

>  <SMILES>  (50) 
O=c1ccc2ccc(N3CCOCC3)nc2n1-c1cccc(-c2ccccc2F)c1

>  <Energy>  (50) 
78.73767105657758

>  <Genealogy>  (50) 
O=c1ccc2ccc(N3CCOCC3)nc2n1-c1cccc(-c2ccccc2F)c1 (3D coordinates assigned)
O=c1ccc2ccc(N3CCOCC3)nc2n1-c1cccc(-c2ccccc2F)c1 (nonaromatic ring conformer: 78.73767105657758 kcal/mol)

>  <smiles>  (50) 
O=c1ccc2ccc(N3CCOCC3)nc2n1-c1cccc(-c2ccccc2F)c1

>  <score_type>  (50) 
oracle

>  <origin>  (50) 
adg

>  <m_score__min__energy>  (50) 
-9.1500000000000004

>  <m_primary>  (50) 
energy

$$$$
50:0
     RDKit          3D

 41 44  0  0  0  0  0  0  0  0999 V2000
   55.8160   30.6670   44.5030 O   0  0  0  0  0  0  0  0  0  0  0  0
   56.7850   29.9520   44.8810 C   0  0  0  0  0  0  0  0  0  0  0  0
   56.6820   28.5620   44.8150 C   0  0  0  0  0  0  0  0  0  0  0  0
   57.7650   27.7700   45.2380 C   0  0  0  0  0  0  0  0  0  0  0  0
   57.7150   26.2870   45.1930 C   0  0  0  0  0  0  0  0  0  0  0  0
   58.0020   25.5490   46.3570 C   0  0  0  0  0  0  0  0  0  0  0  0
   57.9700   24.1510   46.3370 C   0  0  0  0  0  0  0  0  0  0  0  0
   57.6600   23.4740   45.1560 C   0  0  0  0  0  0  0  0  0  0  0  0
   57.3860   24.1930   43.9910 C   0  0  0  0  0  0  0  0  0  0  0  0
   57.4150   25.5910   44.0040 C   0  0  0  0  0  0  0  0  0  0  0  0
   58.8640   28.3590   45.7070 O   0  0  0  0  0  0  0  0  0  0  0  0
   59.0050   29.6800   45.7880 C   0  0  0  0  0  0  0  0  0  0  0  0
   60.1950   30.2180   46.2890 C   0  0  0  0  0  0  0  0  0  0  0  0
   60.3710   31.6110   46.3800 C   0  0  0  0  0  0  0  0  0  0  0  0
   61.6010   32.1630   46.8990 N   0  0  0  0  0  0  0  0  0  0  0  0
   62.6030   31.3000   47.5360 C   0  0  0  0  0  0  0  0  0  0  0  0
   63.3930   32.0930   48.5840 C   0  0  0  0  0  0  0  0  0  0  0  0
   64.0120   33.3240   48.0490 N   0  0  0  0  0  0  0  0  0  0  0  0
   63.4020   33.8400   46.8110 C   0  0  0  0  0  0  0  0  0  0  0  0
   61.8900   33.5960   46.7590 C   0  0  0  0  0  0  0  0  0  0  0  0
   59.3260   32.4570   45.9630 C   0  0  0  0  0  0  0  0  0  0  0  0
   58.1330   31.9260   45.4630 C   0  0  0  0  0  0  0  0  0  0  0  0
   57.9640   30.5340   45.3710 C   0  0  0  0  0  0  0  0  0  0  0  0
   55.7633   28.0903   44.4361 H   0  0  0  0  0  0  0  0  0  0  0  0
   58.2533   26.0759   47.2893 H   0  0  0  0  0  0  0  0  0  0  0  0
   58.1895   23.5837   47.2535 H   0  0  0  0  0  0  0  0  0  0  0  0
   57.6316   22.3744   45.1434 H   0  0  0  0  0  0  0  0  0  0  0  0
   57.1466   23.6581   43.0601 H   0  0  0  0  0  0  0  0  0  0  0  0
   57.2026   26.1510   43.0813 H   0  0  0  0  0  0  0  0  0  0  0  0
   61.0016   29.5450   46.6153 H   0  0  0  0  0  0  0  0  0  0  0  0
   62.0968   30.4547   48.0251 H   0  0  0  0  0  0  0  0  0  0  0  0
   63.2972   30.9276   46.7683 H   0  0  0  0  0  0  0  0  0  0  0  0
   62.7079   32.3731   49.3978 H   0  0  0  0  0  0  0  0  0  0  0  0
   64.2107   31.4445   48.9315 H   0  0  0  0  0  0  0  0  0  0  0  0
   65.0220   33.1330   47.8550 H   0  0  0  0  0  0  0  0  0  0  0  0
   63.5874   34.9226   46.7504 H   0  0  0  0  0  0  0  0  0  0  0  0
   63.8573   33.3051   45.9645 H   0  0  0  0  0  0  0  0  0  0  0  0
   61.4050   34.1460   47.5790 H   0  0  0  0  0  0  0  0  0  0  0  0
   61.5036   33.9465   45.7906 H   0  0  0  0  0  0  0  0  0  0  0  0
   59.4493   33.5479   46.0312 H   0  0  0  0  0  0  0  0  0  0  0  0
   57.3250   32.5994   45.1410 H   0  0  0  0  0  0  0  0  0  0  0  0
  1  2  2  0
  2  3  1  0
  3  4  2  0
  4  5  1  0
  5  6  2  0
  6  7  1  0
  7  8  2  0
  8  9  1  0
  9 10  2  0
  4 11  1  0
 11 12  1  0
 12 13  2  0
 13 14  1  0
 14 15  1  0
 15 16  1  0
 16 17  1  0
 17 18  1  0
 18 19  1  0
 19 20  1  0
 14 21  2  0
 21 22  1  0
 22 23  2  0
 23  2  1  0
 10  5  1  0
 23 12  1  0
 20 15  1  0
  3 24  1  0
  6 25  1  0
  7 26  1  0
  8 27  1  0
  9 28  1  0
 10 29  1  0
 13 30  1  0
 16 31  1  0
 16 32  1  0
 17 33  1  0
 17 34  1  0
 18 35  1  0
 19 36  1  0
 19 37  1  0
 20 38  1  0
 20 39  1  0
 21 40  1  0
 22 41  1  0
M  END
>  <UniqueID>  (51) 
49

>  <SMILES>  (51) 
O=c1cc(-c2ccccc2)oc2cc(N3CCNCC3)ccc12

>  <Energy>  (51) 
61.034386341200424

>  <Genealogy>  (51) 
O=c1cc(-c2ccccc2)oc2cc(N3CCNCC3)ccc12 (3D coordinates assigned)
O=c1cc(-c2ccccc2)oc2cc(N3CCNCC3)ccc12 (nonaromatic ring conformer: 61.034386341200424 kcal/mol)

>  <smiles>  (51) 
O=c1cc(-c2ccccc2)oc2cc(N3CCNCC3)ccc12

>  <score_type>  (51) 
oracle

>  <origin>  (51) 
adg

>  <m_score__min__energy>  (51) 
-7.29

>  <m_primary>  (51) 
energy

$$$$
51:0
     RDKit          3D

 32 34  0  0  0  0  0  0  0  0999 V2000
   57.2280   31.2660   51.8110 C   0  0  0  0  0  0  0  0  0  0  0  0
   57.6140   30.1260   51.0510 O   0  0  0  0  0  0  0  0  0  0  0  0
   58.5900   30.1390   50.0450 C   0  0  0  0  0  0  0  0  0  0  0  0
   59.2860   31.3310   49.8080 C   0  0  0  0  0  0  0  0  0  0  0  0
   60.2670   31.3940   48.8130 C   0  0  0  0  0  0  0  0  0  0  0  0
   60.5580   30.2640   48.0440 C   0  0  0  0  0  0  0  0  0  0  0  0
   59.8670   29.0690   48.2660 C   0  0  0  0  0  0  0  0  0  0  0  0
   60.2310   27.6220   47.2720 S   0  0  0  0  0  0  0  0  0  0  0  0
   58.5620   27.5320   46.6240 C   0  0  0  0  0  0  0  0  0  0  0  0
   57.7480   26.4070   46.8610 C   0  0  0  0  0  0  0  0  0  0  0  0
   56.4260   26.3710   46.3520 C   0  0  0  0  0  0  0  0  0  0  0  0
   55.6980   25.3680   46.5700 O   0  0  0  0  0  0  0  0  0  0  0  0
   55.9340   27.4190   45.6250 N   0  0  0  0  0  0  0  0  0  0  0  0
   56.7360   28.4900   45.3990 C   0  0  0  0  0  0  0  0  0  0  0  0
   58.0090   28.5660   45.8720 C   0  0  0  0  0  0  0  0  0  0  0  0
   58.4780   29.7950   45.4500 C   0  0  0  0  0  0  0  0  0  0  0  0
   57.4910   30.4140   44.7520 N   0  0  0  0  0  0  0  0  0  0  0  0
   56.4370   29.6050   44.7170 N   0  0  0  0  0  0  0  0  0  0  0  0
   55.1570   29.9430   44.1080 C   0  0  0  0  0  0  0  0  0  0  0  0
   58.8890   29.0020   49.2670 C   0  0  0  0  0  0  0  0  0  0  0  0
   57.3062   31.0352   52.8837 H   0  0  0  0  0  0  0  0  0  0  0  0
   57.8905   32.1099   51.5683 H   0  0  0  0  0  0  0  0  0  0  0  0
   56.1891   31.5338   51.5683 H   0  0  0  0  0  0  0  0  0  0  0  0
   59.0595   32.2242   50.4087 H   0  0  0  0  0  0  0  0  0  0  0  0
   60.8100   32.3340   48.6356 H   0  0  0  0  0  0  0  0  0  0  0  0
   61.3313   30.3148   47.2634 H   0  0  0  0  0  0  0  0  0  0  0  0
   58.1382   25.5574   47.4406 H   0  0  0  0  0  0  0  0  0  0  0  0
   59.4806   30.2030   45.6460 H   0  0  0  0  0  0  0  0  0  0  0  0
   54.4159   30.1387   44.8970 H   0  0  0  0  0  0  0  0  0  0  0  0
   55.2738   30.8411   43.4837 H   0  0  0  0  0  0  0  0  0  0  0  0
   54.8151   29.1043   43.4837 H   0  0  0  0  0  0  0  0  0  0  0  0
   58.3524   28.0587   49.4465 H   0  0  0  0  0  0  0  0  0  0  0  0
  1  2  1  0
  2  3  1  0
  3  4  2  0
  4  5  1  0
  5  6  2  0
  6  7  1  0
  7  8  1  0
  8  9  1  0
  9 10  2  0
 10 11  1  0
 11 12  2  0
 11 13  1  0
 13 14  1  0
 14 15  2  0
 15 16  1  0
 16 17  2  0
 17 18  1  0
 18 19  1  0
  7 20  2  0
 20  3  1  0
 15  9  1  0
 18 14  1  0
  1 21  1  0
  1 22  1  0
  1 23  1  0
  4 24  1  0
  5 25  1  0
  6 26  1  0
 10 27  1  0
 16 28  1  0
 19 29  1  0
 19 30  1  0
 19 31  1  0
 20 32  1  0
M  CHG  1  13  -1
M  END
>  <UniqueID>  (52) 
50

>  <SMILES>  (52) 
COc1cccc(Sc2cc(=O)[n-]c3c2cnn3C)c1

>  <Energy>  (52) 
69.20116455281361

>  <Genealogy>  (52) 
COc1cccc(Sc2cc(=O)[n-]c3c2cnn3C)c1 (protonated)
COc1cccc(Sc2cc(=O)[n-]c3c2cnn3C)c1 (3D coordinates assigned)
COc1cccc(Sc2cc(=O)[n-]c3c2cnn3C)c1 (optimized conformer: 69.20116455281361 kcal/mol)

>  <smiles>  (52) 
COc1cccc(Sc2cc(=O)[nH]c3c2cnn3C)c1

>  <score_type>  (52) 
oracle

>  <origin>  (52) 
adg

>  <m_score__min__energy>  (52) 
-8.3399999999999999

>  <m_primary>  (52) 
energy

$$$$
52:0
     RDKit          3D

 47 50  0  0  0  0  0  0  0  0999 V2000
   57.0340   31.6490   41.7420 C   0  0  0  0  0  0  0  0  0  0  0  0
   58.1410   32.0530   42.7160 C   0  0  0  0  0  0  0  0  0  0  0  0
   57.7020   31.9040   44.1140 N   0  0  0  0  0  0  0  0  0  0  0  0
   56.8920   30.7750   44.5010 C   0  0  0  0  0  0  0  0  0  0  0  0
   55.6320   30.8810   44.5200 O   0  0  0  0  0  0  0  0  0  0  0  0
   57.5150   29.4980   44.9020 C   0  0  0  0  0  0  0  0  0  0  0  0
   58.9290   29.3670   44.9320 C   0  0  0  0  0  0  0  0  0  0  0  0
   59.5230   28.1310   45.2550 C   0  0  0  0  0  0  0  0  0  0  0  0
   58.6800   27.0590   45.5500 C   0  0  0  0  0  0  0  0  0  0  0  0
   57.3180   27.1910   45.5530 C   0  0  0  0  0  0  0  0  0  0  0  0
   56.6970   28.3950   45.2360 C   0  0  0  0  0  0  0  0  0  0  0  0
   56.7590   25.9050   45.9390 C   0  0  0  0  0  0  0  0  0  0  0  0
   55.5270   25.6920   46.1100 O   0  0  0  0  0  0  0  0  0  0  0  0
   57.7770   24.9030   46.1550 N   0  0  1  0  0  0  0  0  0  0  0  0
   57.6250   23.8090   45.1740 C   0  0  0  0  0  0  0  0  0  0  0  0
   57.2860   22.5110   45.8460 C   0  0  0  0  0  0  0  0  0  0  0  0
   56.9470   21.3340   45.2130 C   0  0  0  0  0  0  0  0  0  0  0  0
   56.7190   20.4240   46.2250 C   0  0  0  0  0  0  0  0  0  0  0  0
   56.9330   21.1020   47.4090 C   0  0  0  0  0  0  0  0  0  0  0  0
   57.2690   22.3440   47.1500 O   0  0  0  0  0  0  0  0  0  0  0  0
   58.9750   25.6800   45.9170 C   0  0  0  0  0  0  0  0  0  0  0  0
   60.1430   25.2210   46.0560 O   0  0  0  0  0  0  0  0  0  0  0  0
   58.1670   32.8200   45.1300 C   0  0  0  0  0  0  0  0  0  0  0  0
   58.7810   34.0260   44.7570 C   0  0  0  0  0  0  0  0  0  0  0  0
   59.2590   34.9110   45.7300 C   0  0  0  0  0  0  0  0  0  0  0  0
   59.1250   34.5990   47.0850 C   0  0  0  0  0  0  0  0  0  0  0  0
   58.5090   33.4050   47.4670 C   0  0  0  0  0  0  0  0  0  0  0  0
   58.0320   32.5160   46.4950 C   0  0  0  0  0  0  0  0  0  0  0  0
   56.1478   31.3256   42.3078 H   0  0  0  0  0  0  0  0  0  0  0  0
   56.7709   32.5091   41.1087 H   0  0  0  0  0  0  0  0  0  0  0  0
   57.3868   30.8217   41.1087 H   0  0  0  0  0  0  0  0  0  0  0  0
   59.0195   31.4133   42.5458 H   0  0  0  0  0  0  0  0  0  0  0  0
   58.3904   33.1099   42.5404 H   0  0  0  0  0  0  0  0  0  0  0  0
   59.5638   30.2354   44.7018 H   0  0  0  0  0  0  0  0  0  0  0  0
   60.6167   28.0148   45.2740 H   0  0  0  0  0  0  0  0  0  0  0  0
   55.6008   28.4858   45.2451 H   0  0  0  0  0  0  0  0  0  0  0  0
   57.7440   24.5670   47.1500 H   0  0  0  0  0  0  0  0  0  0  0  0
   56.8197   24.0686   44.4710 H   0  0  0  0  0  0  0  0  0  0  0  0
   58.5814   23.6843   44.6451 H   0  0  0  0  0  0  0  0  0  0  0  0
   56.8737   21.1576   44.1297 H   0  0  0  0  0  0  0  0  0  0  0  0
   56.4256   19.3699   46.1114 H   0  0  0  0  0  0  0  0  0  0  0  0
   56.8366   20.6676   48.4150 H   0  0  0  0  0  0  0  0  0  0  0  0
   58.8873   34.2774   43.6914 H   0  0  0  0  0  0  0  0  0  0  0  0
   59.7404   35.8527   45.4277 H   0  0  0  0  0  0  0  0  0  0  0  0
   59.5040   35.2926   47.8500 H   0  0  0  0  0  0  0  0  0  0  0  0
   58.3981   33.1620   48.5341 H   0  0  0  0  0  0  0  0  0  0  0  0
   57.5498   31.5761   46.8018 H   0  0  0  0  0  0  0  0  0  0  0  0
  1  2  1  0
  2  3  1  0
  3  4  1  0
  4  5  2  0
  4  6  1  0
  6  7  2  0
  7  8  1  0
  8  9  2  0
  9 10  1  0
 10 11  2  0
 10 12  1  0
 12 13  2  0
 12 14  1  0
 14 15  1  0
 15 16  1  0
 16 17  2  0
 17 18  1  0
 18 19  2  0
 19 20  1  0
 14 21  1  0
 21 22  2  0
  3 23  1  0
 23 24  2  0
 24 25  1  0
 25 26  2  0
 26 27  1  0
 27 28  2  0
 11  6  1  0
 20 16  1  0
 28 23  1  0
 21  9  1  0
  1 29  1  0
  1 30  1  0
  1 31  1  0
  2 32  1  0
  2 33  1  0
  7 34  1  0
  8 35  1  0
 11 36  1  0
 14 37  1  1
 15 38  1  0
 15 39  1  0
 17 40  1  0
 18 41  1  0
 19 42  1  0
 24 43  1  0
 25 44  1  0
 26 45  1  0
 27 46  1  0
 28 47  1  0
M  CHG  1  14   1
M  END
>  <UniqueID>  (53) 
51

>  <SMILES>  (53) 
CCN(C(=O)c1ccc2c(c1)C(=O)[N@@H+](Cc1ccco1)C2=O)c1ccccc1

>  <Energy>  (53) 
111.24683642792985

>  <Genealogy>  (53) 
CCN(C(=O)c1ccc2c(c1)C(=O)[NH+](Cc1ccco1)C2=O)c1ccccc1 (protonated)
CCN(C(=O)c1ccc2c(c1)C(=O)[N@@H+](Cc1ccco1)C2=O)c1ccccc1 (chirality)
CCN(C(=O)c1ccc2c(c1)C(=O)[N@@H+](Cc1ccco1)C2=O)c1ccccc1 (3D coordinates assigned)
CCN(C(=O)c1ccc2c(c1)C(=O)[N@@H+](Cc1ccco1)C2=O)c1ccccc1 (nonaromatic ring conformer: 111.24683642792985 kcal/mol)

>  <smiles>  (53) 
CCN(C(=O)c1ccc2c(c1)C(=O)N(Cc1ccco1)C2=O)c1ccccc1

>  <score_type>  (53) 
oracle

>  <origin>  (53) 
adg

>  <m_score__min__energy>  (53) 
-7.54

>  <m_primary>  (53) 
energy

$$$$
53:0
     RDKit          3D

 46 49  0  0  0  0  0  0  0  0999 V2000
   53.6500   25.8040   46.4050 H   0  0  0  0  0  0  0  0  0  0  0  0
   54.2450   25.9670   45.6270 O   0  0  0  0  0  0  0  0  0  0  0  0
   55.1280   24.8790   45.5610 C   0  0  0  0  0  0  0  0  0  0  0  0
   54.7524   24.0687   46.2031 H   0  0  0  0  0  0  0  0  0  0  0  0
   55.1935   24.5372   44.5175 H   0  0  0  0  0  0  0  0  0  0  0  0
   56.5240   25.2910   46.0350 C   0  0  0  0  0  0  0  0  0  0  0  0
   56.8434   24.6147   46.8416 H   0  0  0  0  0  0  0  0  0  0  0  0
   57.2149   25.2288   45.1813 H   0  0  0  0  0  0  0  0  0  0  0  0
   56.5270   26.6680   46.5360 N   0  0  0  0  0  0  0  0  0  0  0  0
   55.6790   26.9830   47.0580 H   0  0  0  0  0  0  0  0  0  0  0  0
   57.6070   27.6060   46.3580 C   0  0  0  0  0  0  0  0  0  0  0  0
   58.8870   27.2670   46.8250 C   0  0  0  0  0  0  0  0  0  0  0  0
   59.0473   26.2989   47.3222 H   0  0  0  0  0  0  0  0  0  0  0  0
   59.9570   28.1470   46.6640 C   0  0  0  0  0  0  0  0  0  0  0  0
   60.9552   27.8700   47.0339 H   0  0  0  0  0  0  0  0  0  0  0  0
   59.7650   29.3780   46.0350 C   0  0  0  0  0  0  0  0  0  0  0  0
   60.6152   30.0636   45.9039 H   0  0  0  0  0  0  0  0  0  0  0  0
   58.4940   29.7460   45.5690 C   0  0  0  0  0  0  0  0  0  0  0  0
   58.2920   31.0160   44.9230 N   0  0  0  0  0  0  0  0  0  0  0  0
   58.7590   32.2760   45.3730 C   0  0  0  0  0  0  0  0  0  0  0  0
   59.3320   32.5330   46.5760 N   0  0  0  0  0  0  0  0  0  0  0  0
   59.6630   33.8210   46.8960 C   0  0  0  0  0  0  0  0  0  0  0  0
   60.1930   34.1130   48.0480 N   0  0  0  0  0  0  0  0  0  0  0  0
   61.5530   33.8660   48.4420 C   0  0  0  0  0  0  0  0  0  0  0  0
   61.9860   34.0670   49.7660 C   0  0  0  0  0  0  0  0  0  0  0  0
   61.2791   34.4353   50.5240 H   0  0  0  0  0  0  0  0  0  0  0  0
   63.3120   33.8000   50.1210 C   0  0  0  0  0  0  0  0  0  0  0  0
   63.6508   33.9777   51.1523 H   0  0  0  0  0  0  0  0  0  0  0  0
   64.2070   33.3080   49.1680 C   0  0  0  0  0  0  0  0  0  0  0  0
   65.2520   33.1065   49.4463 H   0  0  0  0  0  0  0  0  0  0  0  0
   63.7730   33.0720   47.8600 C   0  0  0  0  0  0  0  0  0  0  0  0
   64.4749   32.6748   47.1119 H   0  0  0  0  0  0  0  0  0  0  0  0
   62.4480   33.3400   47.5010 C   0  0  0  0  0  0  0  0  0  0  0  0
   62.1070   33.1369   46.4751 H   0  0  0  0  0  0  0  0  0  0  0  0
   59.3830   34.8320   46.0170 N   0  0  0  0  0  0  0  0  0  0  0  0
   58.7890   34.5830   44.8150 C   0  0  0  0  0  0  0  0  0  0  0  0
   58.5692   35.4028   44.1152 H   0  0  0  0  0  0  0  0  0  0  0  0
   58.4680   33.2700   44.4950 C   0  0  0  0  0  0  0  0  0  0  0  0
   57.7590   32.7280   43.3050 C   0  0  0  0  0  0  0  0  0  0  0  0
   58.3551   32.8699   42.3915 H   0  0  0  0  0  0  0  0  0  0  0  0
   56.7981   33.2266   43.1096 H   0  0  0  0  0  0  0  0  0  0  0  0
   57.6070   31.2200   43.6430 C   0  0  0  0  0  0  0  0  0  0  0  0
   58.0728   30.6048   42.8591 H   0  0  0  0  0  0  0  0  0  0  0  0
   56.5482   30.9280   43.7043 H   0  0  0  0  0  0  0  0  0  0  0  0
   57.4220   28.8490   45.7180 C   0  0  0  0  0  0  0  0  0  0  0  0
   56.4284   29.1195   45.3313 H   0  0  0  0  0  0  0  0  0  0  0  0
  1  2  1  0
  2  3  1  0
  3  4  1  0
  3  5  1  0
  3  6  1  0
  6  7  1  0
  6  8  1  0
  6  9  1  0
  9 10  1  0
  9 11  1  0
 11 12  2  0
 12 13  1  0
 12 14  1  0
 14 15  1  0
 14 16  2  0
 16 17  1  0
 16 18  1  0
 18 19  1  0
 19 20  1  0
 20 21  2  0
 21 22  1  0
 22 23  2  0
 23 24  1  0
 24 25  2  0
 25 26  1  0
 25 27  1  0
 27 28  1  0
 27 29  2  0
 29 30  1  0
 29 31  1  0
 31 32  1  0
 31 33  2  0
 33 34  1  0
 22 35  1  0
 35 36  1  0
 36 37  1  0
 36 38  2  0
 38 39  1  0
 39 40  1  0
 39 41  1  0
 39 42  1  0
 42 43  1  0
 42 44  1  0
 18 45  2  0
 45 46  1  0
 45 11  1  0
 42 19  1  0
 38 20  1  0
 33 24  1  0
M  CHG  1  35  -1
M  END
>  <UniqueID>  (54) 
52

>  <SMILES>  (54) 
OCCNc1cccc(N2CCc3c[n-]/c(=N/c4ccccc4)nc32)c1

>  <Energy>  (54) 
73.39229274832134

>  <Genealogy>  (54) 
OCCNc1cccc(N2CCc3c[n-]c(=Nc4ccccc4)nc32)c1 (protonated)
OCCNc1cccc(N2CCc3c[n-]/c(=N/c4ccccc4)nc32)c1 (cis-trans isomerization)
OCCNc1cccc(N2CCc3c[n-]/c(=N/c4ccccc4)nc32)c1 (3D coordinates assigned)
OCCNc1cccc(N2CCc3c[n-]/c(=N/c4ccccc4)nc32)c1 (nonaromatic ring conformer: 73.39229274832134 kcal/mol)

>  <smiles>  (54) 
OCCNc1cccc(N2CCc3c[nH]c(=Nc4ccccc4)nc32)c1

>  <score_type>  (54) 
oracle

>  <origin>  (54) 
adg

>  <m_score__min__energy>  (54) 
-10.210000000000001

>  <m_primary>  (54) 
energy

$$$$
54:0
     RDKit          3D

 15 15  0  0  0  0  0  0  0  0999 V2000
   57.1980   31.4910   43.1240 O   0  0  0  0  0  0  0  0  0  0  0  0
   57.0580   30.4150   43.7640 C   0  0  0  0  0  0  0  0  0  0  0  0
   55.8860   30.1680   44.4720 C   0  0  0  0  0  0  0  0  0  0  0  0
   55.7660   29.0000   45.1490 N   0  0  0  0  0  0  0  0  0  0  0  0
   56.7390   28.0830   45.1450 N   0  0  0  0  0  0  0  0  0  0  0  0
   56.5470   26.8590   45.9270 C   0  0  0  0  0  0  0  0  0  0  0  0
   55.1800   26.6120   46.1040 O   0  0  0  0  0  0  0  0  0  0  0  0
   57.9020   28.3250   44.4620 C   0  0  0  0  0  0  0  0  0  0  0  0
   58.8390   27.4790   44.4650 O   0  0  0  0  0  0  0  0  0  0  0  0
   58.0500   29.4870   43.7720 N   0  0  0  0  0  0  0  0  0  0  0  0
   55.0715   30.9073   44.4821 H   0  0  0  0  0  0  0  0  0  0  0  0
   57.0042   26.0116   45.3951 H   0  0  0  0  0  0  0  0  0  0  0  0
   57.0217   26.9820   46.9117 H   0  0  0  0  0  0  0  0  0  0  0  0
   54.7690   27.4760   46.3700 H   0  0  0  0  0  0  0  0  0  0  0  0
   58.9340   29.6710   43.2450 H   0  0  0  0  0  0  0  0  0  0  0  0
  1  2  2  0
  2  3  1  0
  3  4  2  0
  4  5  1  0
  5  6  1  0
  6  7  1  0
  5  8  1  0
  8  9  2  0
  8 10  1  0
 10  2  1  0
  3 11  1  0
  6 12  1  0
  6 13  1  0
  7 14  1  0
 10 15  1  0
M  END
>  <UniqueID>  (55) 
53

>  <SMILES>  (55) 
O=c1cnn(CO)c(=O)[nH]1

>  <Energy>  (55) 
15.424482739595716

>  <Genealogy>  (55) 
O=c1cnn(CO)c(=O)[nH]1 (3D coordinates assigned)
O=c1cnn(CO)c(=O)[nH]1 (optimized conformer: 15.424482739595716 kcal/mol)

>  <smiles>  (55) 
O=c1cnn(CO)c(=O)[nH]1

>  <score_type>  (55) 
oracle

>  <origin>  (55) 
adg

>  <m_score__min__energy>  (55) 
-4.71

>  <m_primary>  (55) 
energy

$$$$
55:0
     RDKit          3D

 46 49  0  0  0  0  0  0  0  0999 V2000
   55.5950   31.7640   43.5267 H   0  0  0  0  0  0  0  0  0  0  0  0
   56.2530   31.2170   44.2180 C   0  0  0  0  0  0  0  0  0  0  0  0
   56.0340   29.8900   44.4400 N   0  0  0  0  0  0  0  0  0  0  0  0
   56.8440   29.2220   45.2920 C   0  0  0  0  0  0  0  0  0  0  0  0
   57.8830   29.8300   45.9410 C   0  0  0  0  0  0  0  0  0  0  0  0
   58.4860   28.8400   46.7040 C   0  0  0  0  0  0  0  0  0  0  0  0
   59.6820   28.9670   47.5920 C   0  0  0  0  0  0  0  0  0  0  0  0
   59.3628   28.9331   48.6441 H   0  0  0  0  0  0  0  0  0  0  0  0
   60.3764   28.1375   47.3926 H   0  0  0  0  0  0  0  0  0  0  0  0
   60.1868   29.9238   47.3926 H   0  0  0  0  0  0  0  0  0  0  0  0
   57.7610   27.6760   46.4670 C   0  0  0  0  0  0  0  0  0  0  0  0
   57.9768   26.6978   46.9215 H   0  0  0  0  0  0  0  0  0  0  0  0
   56.7530   27.9190   45.5980 N   0  0  0  0  0  0  0  0  0  0  0  0
   56.0540   27.2310   45.2380 H   0  0  0  0  0  0  0  0  0  0  0  0
   58.1710   31.1890   45.7560 C   0  0  0  0  0  0  0  0  0  0  0  0
   59.1920   31.6930   46.4000 N   0  0  0  0  0  0  0  0  0  0  0  0
   60.0640   32.8290   46.1020 C   0  0  0  0  0  0  0  0  0  0  0  0
   60.2821   32.8376   45.0239 H   0  0  0  0  0  0  0  0  0  0  0  0
   59.5440   33.7492   46.4068 H   0  0  0  0  0  0  0  0  0  0  0  0
   61.3660   32.7500   46.8640 C   0  0  0  0  0  0  0  0  0  0  0  0
   62.3490   33.7310   46.6670 C   0  0  0  0  0  0  0  0  0  0  0  0
   62.1799   34.5352   45.9358 H   0  0  0  0  0  0  0  0  0  0  0  0
   63.5420   33.6930   47.3940 C   0  0  0  0  0  0  0  0  0  0  0  0
   64.3080   34.4646   47.2266 H   0  0  0  0  0  0  0  0  0  0  0  0
   63.7700   32.6790   48.3350 C   0  0  0  0  0  0  0  0  0  0  0  0
   64.9990   32.6730   49.0850 N   0  0  0  0  0  0  0  0  0  0  0  0
   65.8470   33.0870   48.6350 H   0  0  0  0  0  0  0  0  0  0  0  0
   65.1630   31.9950   50.3420 C   0  0  0  0  0  0  0  0  0  0  0  0
   64.3860   31.0480   50.6460 O   0  0  0  0  0  0  0  0  0  0  0  0
   66.2650   32.3580   51.2630 C   0  0  0  0  0  0  0  0  0  0  0  0
   66.0940   32.2890   52.6600 C   0  0  0  0  0  0  0  0  0  0  0  0
   65.1286   31.9665   53.0770 H   0  0  0  0  0  0  0  0  0  0  0  0
   67.1440   32.6280   53.5200 C   0  0  0  0  0  0  0  0  0  0  0  0
   66.9996   32.5757   54.6092 H   0  0  0  0  0  0  0  0  0  0  0  0
   68.3760   33.0330   52.9990 C   0  0  0  0  0  0  0  0  0  0  0  0
   69.3920   33.3590   53.8350 F   0  0  0  0  0  0  0  0  0  0  0  0
   68.5610   33.0950   51.6160 C   0  0  0  0  0  0  0  0  0  0  0  0
   69.5320   33.4097   51.2060 H   0  0  0  0  0  0  0  0  0  0  0  0
   67.5150   32.7580   50.7510 C   0  0  0  0  0  0  0  0  0  0  0  0
   67.6694   32.8056   49.6629 H   0  0  0  0  0  0  0  0  0  0  0  0
   62.7640   31.7270   48.5720 C   0  0  0  0  0  0  0  0  0  0  0  0
   62.9164   30.9474   49.3329 H   0  0  0  0  0  0  0  0  0  0  0  0
   61.5700   31.7660   47.8450 C   0  0  0  0  0  0  0  0  0  0  0  0
   60.7853   31.0209   48.0429 H   0  0  0  0  0  0  0  0  0  0  0  0
   57.3110   31.9050   44.8600 C   0  0  0  0  0  0  0  0  0  0  0  0
   57.4220   33.6230   44.4970 Cl  0  0  0  0  0  0  0  0  0  0  0  0
  1  2  1  0
  2  3  1  0
  3  4  1  0
  4  5  2  0
  5  6  1  0
  6  7  1  0
  7  8  1  0
  7  9  1  0
  7 10  1  0
  6 11  2  0
 11 12  1  0
 11 13  1  0
 13 14  1  0
  5 15  1  0
 15 16  2  0
 16 17  1  0
 17 18  1  0
 17 19  1  0
 17 20  1  0
 20 21  2  0
 21 22  1  0
 21 23  1  0
 23 24  1  0
 23 25  2  0
 25 26  1  0
 26 27  1  0
 26 28  1  0
 28 29  2  0
 28 30  1  0
 30 31  2  0
 31 32  1  0
 31 33  1  0
 33 34  1  0
 33 35  2  0
 35 36  1  0
 35 37  1  0
 37 38  1  0
 37 39  2  0
 39 40  1  0
 25 41  1  0
 41 42  1  0
 41 43  2  0
 43 44  1  0
 15 45  1  0
 45 46  1  0
 45  2  2  0
 13  4  1  0
 43 20  1  0
 39 30  1  0
M  CHG  1   3  -1
M  END
>  <UniqueID>  (56) 
54

>  <SMILES>  (56) 
Cc1c[nH]c2[n-]cc(Cl)/c(=N\Cc3ccc(NC(=O)c4ccc(F)cc4)cc3)c12

>  <Energy>  (56) 
99.78490730814715

>  <Genealogy>  (56) 
Cc1c[nH]c2[n-]cc(Cl)c(=NCc3ccc(NC(=O)c4ccc(F)cc4)cc3)c12 (protonated)
Cc1c[nH]c2[n-]cc(Cl)/c(=N\Cc3ccc(NC(=O)c4ccc(F)cc4)cc3)c12 (cis-trans isomerization)
Cc1c[nH]c2[n-]cc(Cl)/c(=N\Cc3ccc(NC(=O)c4ccc(F)cc4)cc3)c12 (3D coordinates assigned)
Cc1c[nH]c2[n-]cc(Cl)/c(=N\Cc3ccc(NC(=O)c4ccc(F)cc4)cc3)c12 (optimized conformer: 99.78490730814715 kcal/mol)

>  <smiles>  (56) 
Cc1c[nH]c2[nH]cc(Cl)c(=NCc3ccc(NC(=O)c4ccc(F)cc4)cc3)c12

>  <score_type>  (56) 
oracle

>  <origin>  (56) 
adg

>  <m_score__min__energy>  (56) 
-10.44

>  <m_primary>  (56) 
energy

$$$$
56:0
     RDKit          3D

 58 61  0  0  0  0  0  0  0  0999 V2000
   66.1610   32.4610   50.1960 C   0  0  0  0  0  0  0  0  0  0  0  0
   64.9250   31.8680   49.8070 O   0  0  0  0  0  0  0  0  0  0  0  0
   63.9500   32.5120   49.0320 C   0  0  0  0  0  0  0  0  0  0  0  0
   63.1510   33.4840   49.6410 C   0  0  0  0  0  0  0  0  0  0  0  0
   62.1470   34.1350   48.9180 C   0  0  0  0  0  0  0  0  0  0  0  0
   61.9250   33.8210   47.5690 C   0  0  0  0  0  0  0  0  0  0  0  0
   60.8930   34.5820   46.7730 C   0  0  0  0  0  0  0  0  0  0  0  0
   59.6770   33.7820   46.4630 N   0  0  0  0  0  0  0  0  0  0  0  0
   58.5240   34.5000   47.0560 C   0  0  0  0  0  0  0  0  0  0  0  0
   57.1930   33.8380   46.7220 C   0  0  0  0  0  0  0  0  0  0  0  0
   56.9880   33.8450   45.2200 C   0  0  0  0  0  0  0  0  0  0  0  0
   58.1410   33.1210   44.5080 C   0  0  2  0  0  0  0  0  0  0  0  0
   57.8690   31.6130   44.3860 C   0  0  0  0  0  0  0  0  0  0  0  0
   57.1010   31.2320   43.2600 C   0  0  0  0  0  0  0  0  0  0  0  0
   56.6970   29.9130   43.0590 C   0  0  0  0  0  0  0  0  0  0  0  0
   57.0410   28.9330   43.9810 C   0  0  0  0  0  0  0  0  0  0  0  0
   57.7960   29.2690   45.1000 C   0  0  0  0  0  0  0  0  0  0  0  0
   58.2210   30.5930   45.3230 C   0  0  0  0  0  0  0  0  0  0  0  0
   59.0870   30.7830   46.5010 C   0  0  0  0  0  0  0  0  0  0  0  0
   58.5270   31.2200   47.7080 C   0  0  0  0  0  0  0  0  0  0  0  0
   59.2610   31.1410   48.8890 C   0  0  0  0  0  0  0  0  0  0  0  0
   60.5310   30.5700   48.8650 C   0  0  0  0  0  0  0  0  0  0  0  0
   61.0580   30.1150   47.6960 N   0  0  0  0  0  0  0  0  0  0  0  0
   60.3680   30.1980   46.5190 C   0  0  0  0  0  0  0  0  0  0  0  0
   60.8930   29.6780   45.3240 O   0  0  0  0  0  0  0  0  0  0  0  0
   60.8190   28.3100   44.9430 C   0  0  0  0  0  0  0  0  0  0  0  0
   59.5340   33.6120   44.9890 C   0  0  0  0  0  0  0  0  0  0  0  0
   62.7480   32.8670   46.9470 C   0  0  0  0  0  0  0  0  0  0  0  0
   63.7470   32.2120   47.6710 C   0  0  0  0  0  0  0  0  0  0  0  0
   66.2238   32.4911   51.2938 H   0  0  0  0  0  0  0  0  0  0  0  0
   66.9952   31.8650   49.7972 H   0  0  0  0  0  0  0  0  0  0  0  0
   66.2182   33.4846   49.7972 H   0  0  0  0  0  0  0  0  0  0  0  0
   63.3137   33.7390   50.6986 H   0  0  0  0  0  0  0  0  0  0  0  0
   61.5269   34.8986   49.4103 H   0  0  0  0  0  0  0  0  0  0  0  0
   60.5898   35.4671   47.3514 H   0  0  0  0  0  0  0  0  0  0  0  0
   61.3576   34.8514   45.8130 H   0  0  0  0  0  0  0  0  0  0  0  0
   58.6443   34.5194   48.1492 H   0  0  0  0  0  0  0  0  0  0  0  0
   58.5085   35.5157   46.6340 H   0  0  0  0  0  0  0  0  0  0  0  0
   57.1980   32.8002   47.0866 H   0  0  0  0  0  0  0  0  0  0  0  0
   56.3758   34.3928   47.2062 H   0  0  0  0  0  0  0  0  0  0  0  0
   56.0419   33.3365   44.9829 H   0  0  0  0  0  0  0  0  0  0  0  0
   56.9596   34.8885   44.8731 H   0  0  0  0  0  0  0  0  0  0  0  0
   58.1877   33.4165   43.4495 H   0  0  0  0  0  0  0  0  0  0  0  0
   56.8151   31.9974   42.5235 H   0  0  0  0  0  0  0  0  0  0  0  0
   56.1057   29.6484   42.1700 H   0  0  0  0  0  0  0  0  0  0  0  0
   56.7171   27.8932   43.8267 H   0  0  0  0  0  0  0  0  0  0  0  0
   58.0660   28.4861   45.8240 H   0  0  0  0  0  0  0  0  0  0  0  0
   57.5050   31.6266   47.7233 H   0  0  0  0  0  0  0  0  0  0  0  0
   58.8421   31.5255   49.8306 H   0  0  0  0  0  0  0  0  0  0  0  0
   61.1110   30.4864   49.7959 H   0  0  0  0  0  0  0  0  0  0  0  0
   62.0060   29.6810   47.7280 H   0  0  0  0  0  0  0  0  0  0  0  0
   60.7849   27.6798   45.8439 H   0  0  0  0  0  0  0  0  0  0  0  0
   59.9106   28.1445   44.3452 H   0  0  0  0  0  0  0  0  0  0  0  0
   61.7043   28.0475   44.3452 H   0  0  0  0  0  0  0  0  0  0  0  0
   60.2852   32.8802   44.6571 H   0  0  0  0  0  0  0  0  0  0  0  0
   59.6701   34.6129   44.5534 H   0  0  0  0  0  0  0  0  0  0  0  0
   62.6045   32.6341   45.8816 H   0  0  0  0  0  0  0  0  0  0  0  0
   64.3777   31.4588   47.1761 H   0  0  0  0  0  0  0  0  0  0  0  0
  1  2  1  0
  2  3  1  0
  3  4  2  0
  4  5  1  0
  5  6  2  0
  6  7  1  0
  7  8  1  0
  8  9  1  0
  9 10  1  0
 10 11  1  0
 11 12  1  0
 12 13  1  0
 13 14  2  0
 14 15  1  0
 15 16  2  0
 16 17  1  0
 17 18  2  0
 18 19  1  0
 19 20  2  0
 20 21  1  0
 21 22  2  0
 22 23  1  0
 23 24  2  0
 24 25  1  0
 25 26  1  0
 12 27  1  0
  6 28  1  0
 28 29  2  0
 29  3  1  0
 27  8  1  0
 18 13  1  0
 24 19  1  0
  1 30  1  0
  1 31  1  0
  1 32  1  0
  4 33  1  0
  5 34  1  0
  7 35  1  0
  7 36  1  0
  9 37  1  0
  9 38  1  0
 10 39  1  0
 10 40  1  0
 11 41  1  0
 11 42  1  0
 12 43  1  6
 14 44  1  0
 15 45  1  0
 16 46  1  0
 17 47  1  0
 20 48  1  0
 21 49  1  0
 22 50  1  0
 23 51  1  0
 26 52  1  0
 26 53  1  0
 26 54  1  0
 27 55  1  0
 27 56  1  0
 28 57  1  0
 29 58  1  0
M  CHG  1  23   1
M  END
>  <UniqueID>  (57) 
55

>  <SMILES>  (57) 
COc1ccc(CN2CCC[C@H](c3ccccc3-c3ccc[nH+]c3OC)C2)cc1

>  <Energy>  (57) 
78.76235988805011

>  <Genealogy>  (57) 
COc1ccc(CN2CCCC(c3ccccc3-c3ccc[nH+]c3OC)C2)cc1 (protonated)
COc1ccc(CN2CCC[C@H](c3ccccc3-c3ccc[nH+]c3OC)C2)cc1 (chirality)
COc1ccc(CN2CCC[C@H](c3ccccc3-c3ccc[nH+]c3OC)C2)cc1 (3D coordinates assigned)
COc1ccc(CN2CCC[C@H](c3ccccc3-c3ccc[nH+]c3OC)C2)cc1 (nonaromatic ring conformer: 78.76235988805011 kcal/mol)

>  <smiles>  (57) 
COc1ccc(CN2CCCC(c3ccccc3-c3cccnc3OC)C2)cc1

>  <score_type>  (57) 
oracle

>  <origin>  (57) 
adg

>  <m_score__min__energy>  (57) 
-7.8099999999999996

>  <m_primary>  (57) 
energy

$$$$
57:0
     RDKit          3D

 29 30  0  0  0  0  0  0  0  0999 V2000
   60.4685   29.5148   47.2009 H   0  0  0  0  0  0  0  0  0  0  0  0
   59.7660   30.0310   46.5300 C   0  0  0  0  0  0  0  0  0  0  0  0
   58.7440   29.2910   45.4140 S   0  0  0  0  0  0  0  0  0  0  0  0
   58.0780   30.7420   44.9030 C   0  0  0  0  0  0  0  0  0  0  0  0
   57.1810   30.8240   43.9630 N   0  0  0  0  0  0  0  0  0  0  0  0
   56.1470   29.8650   43.6940 C   0  0  0  0  0  0  0  0  0  0  0  0
   55.1560   29.6160   44.6940 N   0  0  0  0  0  0  0  0  0  0  0  0
   54.3670   28.9560   44.5170 H   0  0  0  0  0  0  0  0  0  0  0  0
   55.2180   30.0910   45.6210 H   0  0  0  0  0  0  0  0  0  0  0  0
   56.0380   29.3140   42.5220 N   0  0  0  0  0  0  0  0  0  0  0  0
   56.1910   28.2890   42.3900 H   0  0  0  0  0  0  0  0  0  0  0  0
   55.8310   29.8910   41.6770 H   0  0  0  0  0  0  0  0  0  0  0  0
   58.6300   31.7990   45.5450 N   0  0  0  0  0  0  0  0  0  0  0  0
   58.3840   32.7960   45.3600 H   0  0  0  0  0  0  0  0  0  0  0  0
   59.5690   31.4130   46.4580 C   0  0  0  0  0  0  0  0  0  0  0  0
   60.3240   32.3850   47.2870 C   0  0  0  0  0  0  0  0  0  0  0  0
   59.6520   33.2390   48.1790 C   0  0  0  0  0  0  0  0  0  0  0  0
   58.5560   33.1909   48.2600 H   0  0  0  0  0  0  0  0  0  0  0  0
   60.3660   34.1480   48.9630 C   0  0  0  0  0  0  0  0  0  0  0  0
   59.8305   34.8089   49.6604 H   0  0  0  0  0  0  0  0  0  0  0  0
   61.7560   34.2210   48.8650 C   0  0  0  0  0  0  0  0  0  0  0  0
   62.3135   34.9330   49.4914 H   0  0  0  0  0  0  0  0  0  0  0  0
   62.4440   33.3890   47.9700 C   0  0  0  0  0  0  0  0  0  0  0  0
   63.9420   33.4340   47.8980 C   0  0  0  0  0  0  0  0  0  0  0  0
   64.3578   33.4465   48.9163 H   0  0  0  0  0  0  0  0  0  0  0  0
   64.3102   32.5465   47.3625 H   0  0  0  0  0  0  0  0  0  0  0  0
   64.2562   34.3420   47.3625 H   0  0  0  0  0  0  0  0  0  0  0  0
   61.7270   32.4630   47.1960 C   0  0  0  0  0  0  0  0  0  0  0  0
   62.2665   31.7917   46.5117 H   0  0  0  0  0  0  0  0  0  0  0  0
  1  2  1  0
  2  3  1  0
  3  4  1  0
  4  5  2  0
  5  6  1  0
  6  7  1  0
  7  8  1  0
  7  9  1  0
  6 10  2  0
 10 11  1  0
 10 12  1  0
  4 13  1  0
 13 14  1  0
 13 15  1  0
 15 16  1  0
 16 17  2  0
 17 18  1  0
 17 19  1  0
 19 20  1  0
 19 21  2  0
 21 22  1  0
 21 23  1  0
 23 24  1  0
 24 25  1  0
 24 26  1  0
 24 27  1  0
 23 28  2  0
 28 29  1  0
 15  2  2  0
 28 16  1  0
M  CHG  1  10   1
M  END
>  <UniqueID>  (58) 
56

>  <SMILES>  (58) 
Cc1cccc(-c2cs/c(=N/C(N)=[NH2+])[nH]2)c1

>  <Energy>  (58) 
66.17390270998852

>  <Genealogy>  (58) 
Cc1cccc(-c2csc(=NC(N)=[NH2+])[nH]2)c1 (protonated)
Cc1cccc(-c2cs/c(=N/C(N)=[NH2+])[nH]2)c1 (cis-trans isomerization)
Cc1cccc(-c2cs/c(=N/C(N)=[NH2+])[nH]2)c1 (3D coordinates assigned)
Cc1cccc(-c2cs/c(=N/C(N)=[NH2+])[nH]2)c1 (optimized conformer: 66.17390270998852 kcal/mol)

>  <smiles>  (58) 
Cc1cccc(-c2csc(=NC(=N)N)[nH]2)c1

>  <score_type>  (58) 
oracle

>  <origin>  (58) 
adg

>  <m_score__min__energy>  (58) 
-5.7199999999999998

>  <m_primary>  (58) 
energy

$$$$
58:0
     RDKit          3D

 43 46  0  0  1  0  0  0  0  0999 V2000
   55.1690   29.3480   44.8180 F   0  0  0  0  0  0  0  0  0  0  0  0
   55.8680   29.7130   43.6890 C   0  0  0  0  0  0  0  0  0  0  0  0
   56.9970   30.6560   44.0550 C   0  0  0  0  0  0  0  0  0  0  0  0
   56.5430   31.7080   44.8700 O   0  0  0  0  0  0  0  0  0  0  0  0
   57.4720   32.3970   45.6540 C   0  0  0  0  0  0  0  0  0  0  0  0
   57.6310   33.7790   45.5000 C   0  0  0  0  0  0  0  0  0  0  0  0
   58.5650   34.4440   46.2940 C   0  0  0  0  0  0  0  0  0  0  0  0
   59.3210   33.7540   47.2180 C   0  0  0  0  0  0  0  0  0  0  0  0
   60.2890   34.3750   48.0560 N   0  0  0  0  0  0  0  0  0  0  0  0
   61.5270   34.0670   47.8090 C   0  0  0  0  0  0  0  0  0  0  0  0
   62.0060   34.1340   46.5340 N   0  0  0  0  0  0  0  0  0  0  0  0
   63.2950   33.8110   46.2880 C   0  0  0  0  0  0  0  0  0  0  0  0
   64.1330   33.4200   47.2730 N   0  0  0  0  0  0  0  0  0  0  0  0
   63.6890   33.3440   48.5410 C   0  0  0  0  0  0  0  0  0  0  0  0
   62.3730   33.6650   48.8460 C   0  0  0  0  0  0  0  0  0  0  0  0
   61.7300   33.6470   50.1030 N   0  0  0  0  0  0  0  0  0  0  0  0
   62.2430   33.4170   51.4330 C   0  0  0  0  0  0  0  0  0  0  0  0
   63.3710   32.4700   51.4930 C   0  0  0  0  0  0  0  0  0  0  0  0
   63.2900   31.6970   52.6360 C   0  0  0  0  0  0  0  0  0  0  0  0
   64.2240   30.7250   52.9410 C   0  0  0  0  0  0  0  0  0  0  0  0
   65.2830   30.5130   52.0760 C   0  0  0  0  0  0  0  0  0  0  0  0
   65.3960   31.2690   50.9210 C   0  0  0  0  0  0  0  0  0  0  0  0
   64.4420   32.2290   50.6530 C   0  0  0  0  0  0  0  0  0  0  0  0
   64.6810   32.9210   49.4480 O   0  0  0  0  0  0  0  0  0  0  0  0
   59.1740   32.3760   47.3830 C   0  0  0  0  0  0  0  0  0  0  0  0
   58.2490   31.7340   46.5920 C   0  0  0  0  0  0  0  0  0  0  0  0
   56.2856   28.8133   43.2134 H   0  0  0  0  0  0  0  0  0  0  0  0
   55.1855   30.2229   42.9932 H   0  0  0  0  0  0  0  0  0  0  0  0
   57.7722   30.0933   44.5957 H   0  0  0  0  0  0  0  0  0  0  0  0
   57.4026   31.0868   43.1277 H   0  0  0  0  0  0  0  0  0  0  0  0
   57.0287   34.3320   44.7642 H   0  0  0  0  0  0  0  0  0  0  0  0
   58.7000   35.5299   46.1820 H   0  0  0  0  0  0  0  0  0  0  0  0
   63.6726   33.8681   45.2564 H   0  0  0  0  0  0  0  0  0  0  0  0
   65.1420   33.1690   47.0660 H   0  0  0  0  0  0  0  0  0  0  0  0
   60.6940   33.8370   50.0360 H   0  0  0  0  0  0  0  0  0  0  0  0
   62.5798   34.3803   51.8436 H   0  0  0  0  0  0  0  0  0  0  0  0
   61.4235   32.9678   52.0132 H   0  0  0  0  0  0  0  0  0  0  0  0
   62.4512   31.8615   53.3284 H   0  0  0  0  0  0  0  0  0  0  0  0
   64.1268   30.1276   53.8595 H   0  0  0  0  0  0  0  0  0  0  0  0
   66.0352   29.7440   52.3057 H   0  0  0  0  0  0  0  0  0  0  0  0
   66.2342   31.1064   50.2274 H   0  0  0  0  0  0  0  0  0  0  0  0
   59.7760   31.8229   48.1190 H   0  0  0  0  0  0  0  0  0  0  0  0
   58.1203   30.6478   46.7088 H   0  0  0  0  0  0  0  0  0  0  0  0
  1  2  1  0
  2  3  1  0
  3  4  1  0
  4  5  1  0
  5  6  2  0
  6  7  1  0
  7  8  2  0
  8  9  1  0
  9 10  2  0
 10 11  1  0
 11 12  2  0
 12 13  1  0
 13 14  1  0
 14 15  2  0
 15 16  1  0
 16 17  1  0
 17 18  1  0
 18 19  2  0
 19 20  1  0
 20 21  2  0
 21 22  1  0
 22 23  2  0
 23 24  1  0
  8 25  1  0
 25 26  2  0
 26  5  1  0
 15 10  1  0
 23 18  1  0
 24 14  1  0
  2 27  1  0
  2 28  1  0
  3 29  1  0
  3 30  1  0
  6 31  1  0
  7 32  1  0
 12 33  1  0
 13 34  1  0
 16 35  1  0
 17 36  1  0
 17 37  1  0
 19 38  1  0
 20 39  1  0
 21 40  1  0
 22 41  1  0
 25 42  1  0
 26 43  1  0
M  END
>  <smiles>  (59) 
FCCOc1ccc(N=c2nc[nH]c3c2NCc2ccccc2O3)cc1

>  <score_type>  (59) 
oracle

>  <origin>  (59) 
adg

>  <m_score__min__energy>  (59) 
-7.3300000000000001

>  <m_primary>  (59) 
energy

$$$$
59:0
     RDKit          3D

 31 33  0  0  0  0  0  0  0  0999 V2000
   59.3370   35.3350   45.3600 C   0  0  0  0  0  0  0  0  0  0  0  0
   59.1300   34.0200   45.9710 N   0  0  0  0  0  0  0  0  0  0  0  0
   58.5780   32.9180   45.2120 C   0  0  0  0  0  0  0  0  0  0  0  0
   58.3140   31.6850   45.8410 C   0  0  0  0  0  0  0  0  0  0  0  0
   57.7770   30.6170   45.1150 C   0  0  0  0  0  0  0  0  0  0  0  0
   57.4950   30.7630   43.7570 C   0  0  0  0  0  0  0  0  0  0  0  0
   57.7500   31.9790   43.1190 C   0  0  0  0  0  0  0  0  0  0  0  0
   57.4780   32.1200   41.7980 F   0  0  0  0  0  0  0  0  0  0  0  0
   58.2870   33.0530   43.8390 C   0  0  0  0  0  0  0  0  0  0  0  0
   59.7080   33.7730   47.2620 C   0  0  0  0  0  0  0  0  0  0  0  0
   58.8890   33.6460   48.3410 N   0  0  0  0  0  0  0  0  0  0  0  0
   59.3840   33.4060   49.5820 C   0  0  0  0  0  0  0  0  0  0  0  0
   60.7220   33.2900   49.7730 N   0  0  0  0  0  0  0  0  0  0  0  0
   61.5910   33.4170   48.7360 C   0  0  0  0  0  0  0  0  0  0  0  0
   62.9690   33.3080   48.9600 C   0  0  0  0  0  0  0  0  0  0  0  0
   63.8630   33.4590   47.8980 C   0  0  0  0  0  0  0  0  0  0  0  0
   63.3880   33.7270   46.6100 C   0  0  0  0  0  0  0  0  0  0  0  0
   62.0140   33.8360   46.3760 C   0  0  0  0  0  0  0  0  0  0  0  0
   61.1030   33.6710   47.4350 C   0  0  0  0  0  0  0  0  0  0  0  0
   59.4561   36.0915   46.1496 H   0  0  0  0  0  0  0  0  0  0  0  0
   60.2424   35.3108   44.7358 H   0  0  0  0  0  0  0  0  0  0  0  0
   58.4680   35.5902   44.7358 H   0  0  0  0  0  0  0  0  0  0  0  0
   58.5321   31.5614   46.9121 H   0  0  0  0  0  0  0  0  0  0  0  0
   57.5764   29.6588   45.6167 H   0  0  0  0  0  0  0  0  0  0  0  0
   57.0722   29.9213   43.1889 H   0  0  0  0  0  0  0  0  0  0  0  0
   58.4831   34.0083   43.3302 H   0  0  0  0  0  0  0  0  0  0  0  0
   58.6977   33.3052   50.4357 H   0  0  0  0  0  0  0  0  0  0  0  0
   63.3472   33.1034   49.9725 H   0  0  0  0  0  0  0  0  0  0  0  0
   64.9447   33.3668   48.0750 H   0  0  0  0  0  0  0  0  0  0  0  0
   64.0975   33.8524   45.7788 H   0  0  0  0  0  0  0  0  0  0  0  0
   61.6448   34.0511   45.3624 H   0  0  0  0  0  0  0  0  0  0  0  0
  1  2  1  0
  2  3  1  0
  3  4  2  0
  4  5  1  0
  5  6  2  0
  6  7  1  0
  7  8  1  0
  7  9  2  0
  2 10  1  0
 10 11  2  0
 11 12  1  0
 12 13  2  0
 13 14  1  0
 14 15  2  0
 15 16  1  0
 16 17  2  0
 17 18  1  0
 18 19  2  0
  9  3  1  0
 19 10  1  0
 19 14  1  0
  1 20  1  0
  1 21  1  0
  1 22  1  0
  4 23  1  0
  5 24  1  0
  6 25  1  0
  9 26  1  0
 12 27  1  0
 15 28  1  0
 16 29  1  0
 17 30  1  0
 18 31  1  0
M  END
>  <UniqueID>  (60) 
57

>  <SMILES>  (60) 
CN(c1cccc(F)c1)c1ncnc2ccccc12

>  <Energy>  (60) 
47.41280128435435

>  <Genealogy>  (60) 
CN(c1cccc(F)c1)c1ncnc2ccccc12 (3D coordinates assigned)
CN(c1cccc(F)c1)c1ncnc2ccccc12 (optimized conformer: 47.41280128435435 kcal/mol)

>  <smiles>  (60) 
CN(c1cccc(F)c1)c1ncnc2ccccc12

>  <score_type>  (60) 
oracle

>  <origin>  (60) 
adg

>  <m_score__min__energy>  (60) 
-6.8200000000000003

>  <m_primary>  (60) 
energy

$$$$
60:0
     RDKit          3D

 26 27  0  0  0  0  0  0  0  0999 V2000
   57.5580   25.3350   47.1270 C   0  0  0  0  0  0  0  0  0  0  0  0
   56.9890   25.8440   45.8020 C   0  0  2  0  0  0  0  0  0  0  0  0
   58.0930   26.2630   44.8060 C   0  0  0  0  0  0  0  0  0  0  0  0
   57.8650   27.6820   44.5600 N   0  0  0  0  0  0  0  0  0  0  0  0
   56.8320   28.0750   45.2240 C   0  0  0  0  0  0  0  0  0  0  0  0
   56.3720   29.4330   45.2320 N   0  0  0  0  0  0  0  0  0  0  0  0
   56.8340   30.4510   44.3280 C   0  0  0  0  0  0  0  0  0  0  0  0
   57.5980   31.5440   44.7790 C   0  0  0  0  0  0  0  0  0  0  0  0
   58.0540   32.5070   43.8720 C   0  0  0  0  0  0  0  0  0  0  0  0
   57.7640   32.3810   42.5110 C   0  0  0  0  0  0  0  0  0  0  0  0
   57.0270   31.2880   42.0520 C   0  0  0  0  0  0  0  0  0  0  0  0
   56.5700   30.3220   42.9540 C   0  0  0  0  0  0  0  0  0  0  0  0
   56.2370   27.0670   46.0150 N   0  0  0  0  0  0  0  0  0  0  0  0
   57.0247   25.8121   47.9625 H   0  0  0  0  0  0  0  0  0  0  0  0
   57.4305   24.2440   47.1858 H   0  0  0  0  0  0  0  0  0  0  0  0
   58.6281   25.5828   47.1858 H   0  0  0  0  0  0  0  0  0  0  0  0
   56.3841   25.0131   45.4100 H   0  0  0  0  0  0  0  0  0  0  0  0
   59.0892   26.1023   45.2439 H   0  0  0  0  0  0  0  0  0  0  0  0
   58.0562   25.6731   43.8783 H   0  0  0  0  0  0  0  0  0  0  0  0
   55.7220   29.7130   46.0020 H   0  0  0  0  0  0  0  0  0  0  0  0
   57.8374   31.6414   45.8482 H   0  0  0  0  0  0  0  0  0  0  0  0
   58.6418   33.3647   44.2311 H   0  0  0  0  0  0  0  0  0  0  0  0
   58.1166   33.1435   41.8009 H   0  0  0  0  0  0  0  0  0  0  0  0
   56.8054   31.1864   40.9794 H   0  0  0  0  0  0  0  0  0  0  0  0
   56.0005   29.4560   42.5856 H   0  0  0  0  0  0  0  0  0  0  0  0
   55.3920   27.1790   46.6190 H   0  0  0  0  0  0  0  0  0  0  0  0
  1  2  1  0
  2  3  1  0
  3  4  1  0
  4  5  2  0
  5  6  1  0
  6  7  1  0
  7  8  2  0
  8  9  1  0
  9 10  2  0
 10 11  1  0
 11 12  2  0
  5 13  1  0
 13  2  1  0
 12  7  1  0
  1 14  1  0
  1 15  1  0
  1 16  1  0
  2 17  1  6
  3 18  1  0
  3 19  1  0
  6 20  1  0
  8 21  1  0
  9 22  1  0
 10 23  1  0
 11 24  1  0
 12 25  1  0
 13 26  1  0
M  END
>  <UniqueID>  (61) 
58

>  <SMILES>  (61) 
C[C@@H]1CN=C(Nc2ccccc2)N1

>  <Energy>  (61) 
38.82134649656893

>  <Genealogy>  (61) 
C[C@@H]1CN=C(Nc2ccccc2)N1 (chirality)
C[C@@H]1CN=C(Nc2ccccc2)N1 (3D coordinates assigned)
C[C@@H]1CN=C(Nc2ccccc2)N1 (nonaromatic ring conformer: 38.82134649656893 kcal/mol)

>  <smiles>  (61) 
CC1CN=C(Nc2ccccc2)N1

>  <score_type>  (61) 
oracle

>  <origin>  (61) 
adg

>  <m_score__min__energy>  (61) 
-5.5899999999999999

>  <m_primary>  (61) 
energy

$$$$
61:0
     RDKit          3D

 41 44  0  0  0  0  0  0  0  0999 V2000
   57.0670   34.2400   44.8620 C   0  0  0  0  0  0  0  0  0  0  0  0
   58.3030   33.8950   45.6380 C   0  0  0  0  0  0  0  0  0  0  0  0
   59.2300   34.8930   45.9720 C   0  0  0  0  0  0  0  0  0  0  0  0
   60.3660   34.5780   46.7250 C   0  0  0  0  0  0  0  0  0  0  0  0
   60.5860   33.2630   47.1570 C   0  0  0  0  0  0  0  0  0  0  0  0
   61.7860   32.9390   47.9640 C   0  0  0  0  0  0  0  0  0  0  0  0
   62.9950   32.8400   47.3410 N   0  0  0  0  0  0  0  0  0  0  0  0
   64.1190   32.6520   48.0320 N   0  0  0  0  0  0  0  0  0  0  0  0
   64.1040   32.5450   49.3860 C   0  0  0  0  0  0  0  0  0  0  0  0
   65.3660   32.3470   50.1400 C   0  0  0  0  0  0  0  0  0  0  0  0
   66.3720   33.3290   50.1290 C   0  0  0  0  0  0  0  0  0  0  0  0
   67.5520   33.1210   50.8470 C   0  0  0  0  0  0  0  0  0  0  0  0
   67.7290   31.9740   51.5520 N   0  0  0  0  0  0  0  0  0  0  0  0
   66.7770   31.0050   51.5850 C   0  0  0  0  0  0  0  0  0  0  0  0
   65.5810   31.1710   50.8810 C   0  0  0  0  0  0  0  0  0  0  0  0
   62.9160   32.6140   50.0370 N   0  0  0  0  0  0  0  0  0  0  0  0
   61.7470   32.7920   49.3700 C   0  0  0  0  0  0  0  0  0  0  0  0
   60.4980   32.7890   50.1590 C   0  0  0  0  0  0  0  0  0  0  0  0
   59.5710   31.7440   50.1560 C   0  0  0  0  0  0  0  0  0  0  0  0
   58.3550   32.1260   51.2520 S   0  0  0  0  0  0  0  0  0  0  0  0
   59.0500   33.5940   51.6790 C   0  0  0  0  0  0  0  0  0  0  0  0
   58.5270   34.5080   52.7340 C   0  0  0  0  0  0  0  0  0  0  0  0
   60.2140   33.8000   51.0260 N   0  0  0  0  0  0  0  0  0  0  0  0
   59.6390   32.2710   46.8530 C   0  0  0  0  0  0  0  0  0  0  0  0
   58.5050   32.5850   46.0990 C   0  0  0  0  0  0  0  0  0  0  0  0
   56.2479   34.4686   45.5597 H   0  0  0  0  0  0  0  0  0  0  0  0
   57.2647   35.1173   44.2285 H   0  0  0  0  0  0  0  0  0  0  0  0
   56.7818   33.3871   44.2285 H   0  0  0  0  0  0  0  0  0  0  0  0
   59.0630   35.9284   45.6403 H   0  0  0  0  0  0  0  0  0  0  0  0
   61.0901   35.3661   46.9793 H   0  0  0  0  0  0  0  0  0  0  0  0
   63.0610   32.9450   46.3040 H   0  0  0  0  0  0  0  0  0  0  0  0
   66.2304   34.2579   49.5570 H   0  0  0  0  0  0  0  0  0  0  0  0
   68.3400   33.8885   50.8413 H   0  0  0  0  0  0  0  0  0  0  0  0
   66.9480   30.0875   52.1673 H   0  0  0  0  0  0  0  0  0  0  0  0
   64.8114   30.3855   50.9064 H   0  0  0  0  0  0  0  0  0  0  0  0
   59.6269   30.8316   49.5441 H   0  0  0  0  0  0  0  0  0  0  0  0
   58.7629   34.0957   53.7262 H   0  0  0  0  0  0  0  0  0  0  0  0
   58.9956   35.4974   52.6272 H   0  0  0  0  0  0  0  0  0  0  0  0
   57.4365   34.6053   52.6272 H   0  0  0  0  0  0  0  0  0  0  0  0
   59.7908   31.2418   47.2103 H   0  0  0  0  0  0  0  0  0  0  0  0
   57.7680   31.8024   45.8660 H   0  0  0  0  0  0  0  0  0  0  0  0
  1  2  1  0
  2  3  2  0
  3  4  1  0
  4  5  2  0
  5  6  1  0
  6  7  2  0
  7  8  1  0
  8  9  2  0
  9 10  1  0
 10 11  2  0
 11 12  1  0
 12 13  2  0
 13 14  1  0
 14 15  2  0
  9 16  1  0
 16 17  2  0
 17 18  1  0
 18 19  2  0
 19 20  1  0
 20 21  1  0
 21 22  1  0
 21 23  2  0
  5 24  1  0
 24 25  2  0
 25  2  1  0
 17  6  1  0
 23 18  1  0
 15 10  1  0
  1 26  1  0
  1 27  1  0
  1 28  1  0
  3 29  1  0
  4 30  1  0
  7 31  1  0
 11 32  1  0
 12 33  1  0
 14 34  1  0
 15 35  1  0
 19 36  1  0
 22 37  1  0
 22 38  1  0
 22 39  1  0
 24 40  1  0
 25 41  1  0
M  CHG  1   7   1
M  END
>  <UniqueID>  (62) 
59

>  <SMILES>  (62) 
Cc1ccc(-c2[nH+]nc(-c3ccncc3)nc2-c2csc(C)n2)cc1

>  <Energy>  (62) 
86.30651086657483

>  <Genealogy>  (62) 
Cc1ccc(-c2[nH+]nc(-c3ccncc3)nc2-c2csc(C)n2)cc1 (protonated)
Cc1ccc(-c2[nH+]nc(-c3ccncc3)nc2-c2csc(C)n2)cc1 (3D coordinates assigned)
Cc1ccc(-c2[nH+]nc(-c3ccncc3)nc2-c2csc(C)n2)cc1 (optimized conformer: 86.30651086657483 kcal/mol)

>  <smiles>  (62) 
Cc1ccc(-c2nnc(-c3ccncc3)nc2-c2csc(C)n2)cc1

>  <score_type>  (62) 
oracle

>  <origin>  (62) 
adg

>  <m_score__min__energy>  (62) 
-6.29

>  <m_primary>  (62) 
energy

$$$$
62:0
     RDKit          3D

 42 43  0  0  0  0  0  0  0  0999 V2000
   55.0930   27.4860   45.5920 H   0  0  0  0  0  0  0  0  0  0  0  0
   56.0870   27.6550   45.4880 O   0  0  0  0  0  0  0  0  0  0  0  0
   56.5780   28.8810   45.0390 C   0  0  0  0  0  0  0  0  0  0  0  0
   55.8690   29.6010   44.0700 C   0  0  0  0  0  0  0  0  0  0  0  0
   54.9292   29.1953   43.6674 H   0  0  0  0  0  0  0  0  0  0  0  0
   56.3460   30.8300   43.6110 C   0  0  0  0  0  0  0  0  0  0  0  0
   55.7842   31.3797   42.8415 H   0  0  0  0  0  0  0  0  0  0  0  0
   57.5370   31.3710   44.1230 C   0  0  0  0  0  0  0  0  0  0  0  0
   58.0440   32.6700   43.6100 C   0  0  0  0  0  0  0  0  0  0  0  0
   58.3320   32.7840   42.3880 O   0  0  0  0  0  0  0  0  0  0  0  0
   58.1650   33.8500   44.4960 C   0  0  0  0  0  0  0  0  0  0  0  0
   57.2350   34.3179   44.8511 H   0  0  0  0  0  0  0  0  0  0  0  0
   59.3260   34.3910   44.8980 C   0  0  0  0  0  0  0  0  0  0  0  0
   59.8855   34.9911   44.1654 H   0  0  0  0  0  0  0  0  0  0  0  0
   59.9130   34.2440   46.2490 C   0  0  0  0  0  0  0  0  0  0  0  0
   61.2190   33.7520   46.4310 C   0  0  0  0  0  0  0  0  0  0  0  0
   61.8385   33.5058   45.5560 H   0  0  0  0  0  0  0  0  0  0  0  0
   61.7320   33.5750   47.7190 C   0  0  0  0  0  0  0  0  0  0  0  0
   62.7588   33.2046   47.8553 H   0  0  0  0  0  0  0  0  0  0  0  0
   60.9420   33.8680   48.8340 C   0  0  0  0  0  0  0  0  0  0  0  0
   61.4380   33.6900   50.0820 F   0  0  0  0  0  0  0  0  0  0  0  0
   59.6340   34.3290   48.6610 C   0  0  0  0  0  0  0  0  0  0  0  0
   59.0094   34.5514   49.5387 H   0  0  0  0  0  0  0  0  0  0  0  0
   59.1180   34.5080   47.3730 C   0  0  0  0  0  0  0  0  0  0  0  0
   58.0833   34.8576   47.2416 H   0  0  0  0  0  0  0  0  0  0  0  0
   58.2480   30.6450   45.0960 C   0  0  0  0  0  0  0  0  0  0  0  0
   59.1802   31.0596   45.5073 H   0  0  0  0  0  0  0  0  0  0  0  0
   57.7850   29.3970   45.5510 C   0  0  0  0  0  0  0  0  0  0  0  0
   58.5820   28.6460   46.5940 C   0  0  0  0  0  0  0  0  0  0  0  0
   59.1098   27.8122   46.1079 H   0  0  0  0  0  0  0  0  0  0  0  0
   57.8843   28.2762   47.3598 H   0  0  0  0  0  0  0  0  0  0  0  0
   59.5950   29.5400   47.2700 C   0  0  0  0  0  0  0  0  0  0  0  0
   60.2506   30.1481   46.6294 H   0  0  0  0  0  0  0  0  0  0  0  0
   59.7500   29.6430   48.6080 C   0  0  0  0  0  0  0  0  0  0  0  0
   60.4690   28.5360   49.3350 C   0  0  0  0  0  0  0  0  0  0  0  0
   60.3714   28.6862   50.4203 H   0  0  0  0  0  0  0  0  0  0  0  0
   60.0270   27.5676   49.0577 H   0  0  0  0  0  0  0  0  0  0  0  0
   61.5334   28.5461   49.0577 H   0  0  0  0  0  0  0  0  0  0  0  0
   59.2300   30.8290   49.3840 C   0  0  0  0  0  0  0  0  0  0  0  0
   59.3178   30.6288   50.4621 H   0  0  0  0  0  0  0  0  0  0  0  0
   59.8192   31.7218   49.1277 H   0  0  0  0  0  0  0  0  0  0  0  0
   58.1741   31.0005   49.1277 H   0  0  0  0  0  0  0  0  0  0  0  0
  1  2  1  0
  2  3  1  0
  3  4  2  0
  4  5  1  0
  4  6  1  0
  6  7  1  0
  6  8  2  0
  8  9  1  0
  9 10  2  0
  9 11  1  0
 11 12  1  0
 11 13  2  0
 13 14  1  0
 13 15  1  0
 15 16  2  0
 16 17  1  0
 16 18  1  0
 18 19  1  0
 18 20  2  0
 20 21  1  0
 20 22  1  0
 22 23  1  0
 22 24  2  0
 24 25  1  0
  8 26  1  0
 26 27  1  0
 26 28  2  0
 28 29  1  0
 29 30  1  0
 29 31  1  0
 29 32  1  0
 32 33  1  0
 32 34  2  3
 34 35  1  0
 35 36  1  0
 35 37  1  0
 35 38  1  0
 34 39  1  0
 39 40  1  0
 39 41  1  0
 39 42  1  0
 28  3  1  0
 24 15  1  0
M  END
>  <UniqueID>  (63) 
60

>  <SMILES>  (63) 
CC(C)=CCc1cc(C(=O)/C=C\c2ccc(F)cc2)ccc1O

>  <Energy>  (63) 
47.72329875925924

>  <Genealogy>  (63) 
CC(C)=CCc1cc(C(=O)/C=C\c2ccc(F)cc2)ccc1O (cis-trans isomerization)
CC(C)=CCc1cc(C(=O)/C=C\c2ccc(F)cc2)ccc1O (3D coordinates assigned)
CC(C)=CCc1cc(C(=O)/C=C\c2ccc(F)cc2)ccc1O (optimized conformer: 47.72329875925924 kcal/mol)

>  <smiles>  (63) 
CC(C)=CCc1cc(C(=O)C=Cc2ccc(F)cc2)ccc1O

>  <score_type>  (63) 
oracle

>  <origin>  (63) 
adg

>  <m_score__min__energy>  (63) 
-7.8200000000000003

>  <m_primary>  (63) 
energy

$$$$
63:0
     RDKit          3D

 40 42  0  0  0  0  0  0  0  0999 V2000
   59.0220   23.9720   53.4080 C   0  0  0  0  0  0  0  0  0  0  0  0
   58.2590   24.7290   54.3400 O   0  0  0  0  0  0  0  0  0  0  0  0
   58.3530   26.1200   54.4940 C   0  0  0  0  0  0  0  0  0  0  0  0
   59.3700   26.7350   55.2450 C   0  0  0  0  0  0  0  0  0  0  0  0
   59.4050   28.0890   55.3690 N   0  0  0  0  0  0  0  0  0  0  0  0
   58.4780   28.8860   54.7730 C   0  0  0  0  0  0  0  0  0  0  0  0
   57.4560   28.3250   53.9950 C   0  0  0  0  0  0  0  0  0  0  0  0
   56.4450   29.1980   53.3560 C   0  0  0  0  0  0  0  0  0  0  0  0
   55.1550   29.1220   53.7880 N   0  0  0  0  0  0  0  0  0  0  0  0
   54.1650   29.8520   53.2160 C   0  0  0  0  0  0  0  0  0  0  0  0
   52.8490   29.7500   53.6730 C   0  0  0  0  0  0  0  0  0  0  0  0
   51.8380   30.5010   53.0660 C   0  0  0  0  0  0  0  0  0  0  0  0
   52.1330   31.3630   51.9910 C   0  0  0  0  0  0  0  0  0  0  0  0
   51.0640   32.1580   51.3480 C   0  0  0  0  0  0  0  0  0  0  0  0
   50.1780   32.7220   52.0440 O   0  0  0  0  0  0  0  0  0  0  0  0
   51.0230   32.2950   49.9650 O   0  0  0  0  0  0  0  0  0  0  0  0
   53.4610   31.4610   51.5360 C   0  0  0  0  0  0  0  0  0  0  0  0
   54.4720   30.7090   52.1450 C   0  0  0  0  0  0  0  0  0  0  0  0
   55.7570   30.8060   51.7210 N   0  0  0  0  0  0  0  0  0  0  0  0
   56.7590   30.0880   52.3000 C   0  0  0  0  0  0  0  0  0  0  0  0
   58.1100   30.2830   51.8500 N   0  0  0  0  0  0  0  0  0  0  0  0
   58.5110   29.7250   50.5600 C   0  0  0  0  0  0  0  0  0  0  0  0
   58.9070   31.3760   52.4090 C   0  0  0  0  0  0  0  0  0  0  0  0
   57.3940   26.9280   53.8750 C   0  0  0  0  0  0  0  0  0  0  0  0
   59.7010   23.2984   53.9513 H   0  0  0  0  0  0  0  0  0  0  0  0
   58.3449   23.3786   52.7760 H   0  0  0  0  0  0  0  0  0  0  0  0
   59.6101   24.6537   52.7760 H   0  0  0  0  0  0  0  0  0  0  0  0
   60.1396   26.1194   55.7337 H   0  0  0  0  0  0  0  0  0  0  0  0
   60.1630   28.5290   55.9380 H   0  0  0  0  0  0  0  0  0  0  0  0
   58.5306   29.9771   54.9023 H   0  0  0  0  0  0  0  0  0  0  0  0
   52.6081   29.0788   54.5105 H   0  0  0  0  0  0  0  0  0  0  0  0
   50.8035   30.4183   53.4307 H   0  0  0  0  0  0  0  0  0  0  0  0
   53.7053   32.1311   50.6986 H   0  0  0  0  0  0  0  0  0  0  0  0
   59.1458   28.8417   50.7240 H   0  0  0  0  0  0  0  0  0  0  0  0
   57.6152   29.4325   49.9926 H   0  0  0  0  0  0  0  0  0  0  0  0
   59.0739   30.4808   49.9926 H   0  0  0  0  0  0  0  0  0  0  0  0
   58.8733   31.3298   53.5075 H   0  0  0  0  0  0  0  0  0  0  0  0
   59.9490   31.2807   52.0698 H   0  0  0  0  0  0  0  0  0  0  0  0
   58.4976   32.3390   52.0698 H   0  0  0  0  0  0  0  0  0  0  0  0
   56.5854   26.4654   53.2900 H   0  0  0  0  0  0  0  0  0  0  0  0
  1  2  1  0
  2  3  1  0
  3  4  2  0
  4  5  1  0
  5  6  2  0
  6  7  1  0
  7  8  1  0
  8  9  2  0
  9 10  1  0
 10 11  2  0
 11 12  1  0
 12 13  2  0
 13 14  1  0
 14 15  2  0
 14 16  1  0
 13 17  1  0
 17 18  2  0
 18 19  1  0
 19 20  2  0
 20 21  1  0
 21 22  1  0
 21 23  1  0
  7 24  2  0
 24  3  1  0
 20  8  1  0
 18 10  1  0
  1 25  1  0
  1 26  1  0
  1 27  1  0
  4 28  1  0
  5 29  1  0
  6 30  1  0
 11 31  1  0
 12 32  1  0
 17 33  1  0
 22 34  1  0
 22 35  1  0
 22 36  1  0
 23 37  1  0
 23 38  1  0
 23 39  1  0
 24 40  1  0
M  CHG  2   5   1  16  -1
M  END
>  <UniqueID>  (64) 
61

>  <SMILES>  (64) 
COc1c[nH+]cc(-c2nc3ccc(C(=O)[O-])cc3nc2N(C)C)c1

>  <Energy>  (64) 
53.99743125639558

>  <Genealogy>  (64) 
COc1c[nH+]cc(-c2nc3ccc(C(=O)[O-])cc3nc2N(C)C)c1 (protonated)
COc1c[nH+]cc(-c2nc3ccc(C(=O)[O-])cc3nc2N(C)C)c1 (3D coordinates assigned)
COc1c[nH+]cc(-c2nc3ccc(C(=O)[O-])cc3nc2N(C)C)c1 (optimized conformer: 53.99743125639558 kcal/mol)

>  <smiles>  (64) 
COc1cncc(-c2nc3ccc(C(=O)O)cc3nc2N(C)C)c1

>  <score_type>  (64) 
oracle

>  <origin>  (64) 
adg

>  <m_score__min__energy>  (64) 
-8.1500000000000004

>  <m_primary>  (64) 
energy

$$$$
64:0
     RDKit          3D

 52 54  0  0  0  0  0  0  0  0999 V2000
   64.3940   32.4540   48.9980 C   0  0  0  0  0  0  0  0  0  0  0  0
   63.7000   33.4550   48.1750 N   0  0  0  0  0  0  0  0  0  0  0  0
   63.7330   33.0800   46.7530 C   0  0  0  0  0  0  0  0  0  0  0  0
   62.3310   33.7430   48.6580 C   0  0  0  0  0  0  0  0  0  0  0  0
   61.2400   33.0730   47.8470 C   0  0  0  0  0  0  0  0  0  0  0  0
   60.4270   33.8290   46.9880 C   0  0  0  0  0  0  0  0  0  0  0  0
   59.4240   33.2110   46.2360 C   0  0  0  0  0  0  0  0  0  0  0  0
   59.2120   31.8240   46.3320 C   0  0  0  0  0  0  0  0  0  0  0  0
   58.1490   31.1660   45.5300 C   0  0  0  0  0  0  0  0  0  0  0  0
   57.6460   31.7790   44.3720 C   0  0  0  0  0  0  0  0  0  0  0  0
   56.6400   31.1640   43.6250 C   0  0  0  0  0  0  0  0  0  0  0  0
   56.1240   29.9220   44.0160 C   0  0  0  0  0  0  0  0  0  0  0  0
   55.0950   29.3420   43.2770 O   0  0  0  0  0  0  0  0  0  0  0  0
   56.6380   29.2790   45.1590 C   0  0  0  0  0  0  0  0  0  0  0  0
   56.1460   28.0010   45.6030 N   0  0  0  0  0  0  0  0  0  0  0  0
   56.9840   26.8850   46.0730 C   0  0  0  0  0  0  0  0  0  0  0  0
   58.3840   26.8680   45.4220 C   0  0  0  0  0  0  0  0  0  0  0  0
   59.2700   25.7610   46.0240 C   0  0  0  0  0  0  0  0  0  0  0  0
   58.4940   24.4740   46.3840 C   0  0  0  0  0  0  0  0  0  0  0  0
   57.1730   24.3550   45.6140 C   0  0  0  0  0  0  0  0  0  0  0  0
   56.2380   25.5340   45.9330 C   0  0  0  0  0  0  0  0  0  0  0  0
   57.6320   29.9170   45.9180 C   0  0  0  0  0  0  0  0  0  0  0  0
   60.0220   31.0710   47.1990 C   0  0  0  0  0  0  0  0  0  0  0  0
   61.0230   31.6900   47.9530 C   0  0  0  0  0  0  0  0  0  0  0  0
   64.2363   32.6815   50.0626 H   0  0  0  0  0  0  0  0  0  0  0  0
   63.9944   31.4540   48.7736 H   0  0  0  0  0  0  0  0  0  0  0  0
   65.4706   32.4775   48.7736 H   0  0  0  0  0  0  0  0  0  0  0  0
   63.8291   31.9878   46.6640 H   0  0  0  0  0  0  0  0  0  0  0  0
   62.8026   33.4071   46.2658 H   0  0  0  0  0  0  0  0  0  0  0  0
   64.5920   33.5646   46.2658 H   0  0  0  0  0  0  0  0  0  0  0  0
   62.2510   33.3966   49.6990 H   0  0  0  0  0  0  0  0  0  0  0  0
   62.1800   34.8283   48.5612 H   0  0  0  0  0  0  0  0  0  0  0  0
   60.5803   34.9152   46.9061 H   0  0  0  0  0  0  0  0  0  0  0  0
   58.7957   33.8140   45.5640 H   0  0  0  0  0  0  0  0  0  0  0  0
   58.0476   32.7514   44.0507 H   0  0  0  0  0  0  0  0  0  0  0  0
   56.2498   31.6582   42.7230 H   0  0  0  0  0  0  0  0  0  0  0  0
   55.2800   28.7770   42.4570 H   0  0  0  0  0  0  0  0  0  0  0  0
   55.1410   27.9650   45.8920 H   0  0  0  0  0  0  0  0  0  0  0  0
   57.1695   27.0463   47.1452 H   0  0  0  0  0  0  0  0  0  0  0  0
   58.2744   26.6910   44.3419 H   0  0  0  0  0  0  0  0  0  0  0  0
   58.8658   27.8386   45.6114 H   0  0  0  0  0  0  0  0  0  0  0  0
   60.0499   25.5035   45.2922 H   0  0  0  0  0  0  0  0  0  0  0  0
   59.6891   26.1573   46.9606 H   0  0  0  0  0  0  0  0  0  0  0  0
   59.1225   23.6036   46.1445 H   0  0  0  0  0  0  0  0  0  0  0  0
   58.2551   24.5147   47.4570 H   0  0  0  0  0  0  0  0  0  0  0  0
   57.3857   24.3470   44.5348 H   0  0  0  0  0  0  0  0  0  0  0  0
   56.6749   23.4222   45.9168 H   0  0  0  0  0  0  0  0  0  0  0  0
   55.5004   25.6245   45.1220 H   0  0  0  0  0  0  0  0  0  0  0  0
   55.7630   25.3212   46.9021 H   0  0  0  0  0  0  0  0  0  0  0  0
   58.0120   29.4328   46.8296 H   0  0  0  0  0  0  0  0  0  0  0  0
   59.8670   29.9854   47.2850 H   0  0  0  0  0  0  0  0  0  0  0  0
   61.6446   31.0898   48.6337 H   0  0  0  0  0  0  0  0  0  0  0  0
  1  2  1  0
  2  3  1  0
  2  4  1  0
  4  5  1  0
  5  6  2  0
  6  7  1  0
  7  8  2  0
  8  9  1  0
  9 10  2  0
 10 11  1  0
 11 12  2  0
 12 13  1  0
 12 14  1  0
 14 15  1  0
 15 16  1  0
 16 17  1  0
 17 18  1  0
 18 19  1  0
 19 20  1  0
 20 21  1  0
 14 22  2  0
  8 23  1  0
 23 24  2  0
 24  5  1  0
 22  9  1  0
 21 16  1  0
  1 25  1  0
  1 26  1  0
  1 27  1  0
  3 28  1  0
  3 29  1  0
  3 30  1  0
  4 31  1  0
  4 32  1  0
  6 33  1  0
  7 34  1  0
 10 35  1  0
 11 36  1  0
 13 37  1  0
 15 38  1  0
 16 39  1  0
 17 40  1  0
 17 41  1  0
 18 42  1  0
 18 43  1  0
 19 44  1  0
 19 45  1  0
 20 46  1  0
 20 47  1  0
 21 48  1  0
 21 49  1  0
 22 50  1  0
 23 51  1  0
 24 52  1  0
M  END
>  <UniqueID>  (65) 
62

>  <SMILES>  (65) 
CN(C)Cc1ccc(-c2ccc(O)c(NC3CCCCC3)c2)cc1

>  <Energy>  (65) 
68.75281458185285

>  <Genealogy>  (65) 
CN(C)Cc1ccc(-c2ccc(O)c(NC3CCCCC3)c2)cc1 (3D coordinates assigned)
CN(C)Cc1ccc(-c2ccc(O)c(NC3CCCCC3)c2)cc1 (nonaromatic ring conformer: 68.75281458185285 kcal/mol)

>  <smiles>  (65) 
CN(C)Cc1ccc(-c2ccc(O)c(NC3CCCCC3)c2)cc1

>  <score_type>  (65) 
oracle

>  <origin>  (65) 
adg

>  <m_score__min__energy>  (65) 
-8.3300000000000001

>  <m_primary>  (65) 
energy

$$$$
65:0
     RDKit          3D

 38 39  0  0  0  0  0  0  0  0999 V2000
   60.2300   29.2790   45.3180 C   0  0  0  0  0  0  0  0  0  0  0  0
   58.9780   28.8660   44.7800 O   0  0  0  0  0  0  0  0  0  0  0  0
   58.2830   27.7110   45.1730 C   0  0  0  0  0  0  0  0  0  0  0  0
   58.9280   26.4690   45.3330 C   0  0  0  0  0  0  0  0  0  0  0  0
   58.2050   25.3360   45.7330 C   0  0  0  0  0  0  0  0  0  0  0  0
   58.8690   24.0300   45.9080 C   0  0  0  0  0  0  0  0  0  0  0  0
   58.2170   23.0120   46.2630 O   0  0  0  0  0  0  0  0  0  0  0  0
   56.8300   25.4480   45.9640 C   0  0  0  0  0  0  0  0  0  0  0  0
   56.1740   26.6720   45.8040 C   0  0  0  0  0  0  0  0  0  0  0  0
   54.8020   26.7130   46.0050 O   0  0  0  0  0  0  0  0  0  0  0  0
   56.9040   27.8200   45.4210 C   0  0  0  0  0  0  0  0  0  0  0  0
   56.3250   29.0920   45.2560 O   0  0  0  0  0  0  0  0  0  0  0  0
   56.4280   29.9400   44.1090 C   0  0  0  0  0  0  0  0  0  0  0  0
   56.5180   31.4240   44.5000 C   0  0  0  0  0  0  0  0  0  0  0  0
   57.8540   32.0790   44.1120 C   0  0  0  0  0  0  0  0  0  0  0  0
   58.3450   33.0420   45.1630 C   0  0  0  0  0  0  0  0  0  0  0  0
   58.0790   32.8070   46.5230 C   0  0  0  0  0  0  0  0  0  0  0  0
   58.5580   33.6890   47.4950 C   0  0  0  0  0  0  0  0  0  0  0  0
   59.3080   34.8080   47.1200 C   0  0  0  0  0  0  0  0  0  0  0  0
   59.5810   35.0440   45.7690 C   0  0  0  0  0  0  0  0  0  0  0  0
   59.1040   34.1640   44.7930 C   0  0  0  0  0  0  0  0  0  0  0  0
   60.1803   29.2626   46.4168 H   0  0  0  0  0  0  0  0  0  0  0  0
   61.0198   28.5938   44.9764 H   0  0  0  0  0  0  0  0  0  0  0  0
   60.4571   30.2997   44.9764 H   0  0  0  0  0  0  0  0  0  0  0  0
   60.0083   26.3872   45.1425 H   0  0  0  0  0  0  0  0  0  0  0  0
   59.9503   23.9438   45.7256 H   0  0  0  0  0  0  0  0  0  0  0  0
   56.2577   24.5618   46.2755 H   0  0  0  0  0  0  0  0  0  0  0  0
   57.3309   29.6657   43.5438 H   0  0  0  0  0  0  0  0  0  0  0  0
   55.5222   29.8020   43.5003 H   0  0  0  0  0  0  0  0  0  0  0  0
   55.7045   31.9670   43.9966 H   0  0  0  0  0  0  0  0  0  0  0  0
   56.4376   31.4760   45.5958 H   0  0  0  0  0  0  0  0  0  0  0  0
   58.6082   31.2901   43.9749 H   0  0  0  0  0  0  0  0  0  0  0  0
   57.6936   32.6468   43.1836 H   0  0  0  0  0  0  0  0  0  0  0  0
   57.4921   31.9263   46.8229 H   0  0  0  0  0  0  0  0  0  0  0  0
   58.3446   33.5027   48.5579 H   0  0  0  0  0  0  0  0  0  0  0  0
   59.6828   35.5018   47.8869 H   0  0  0  0  0  0  0  0  0  0  0  0
   60.1720   35.9235   45.4737 H   0  0  0  0  0  0  0  0  0  0  0  0
   59.3240   34.3512   43.7316 H   0  0  0  0  0  0  0  0  0  0  0  0
  1  2  1  0
  2  3  1  0
  3  4  2  0
  4  5  1  0
  5  6  1  0
  6  7  2  0
  5  8  2  0
  8  9  1  0
  9 10  1  0
  9 11  2  0
 11 12  1  0
 12 13  1  0
 13 14  1  0
 14 15  1  0
 15 16  1  0
 16 17  2  0
 17 18  1  0
 18 19  2  0
 19 20  1  0
 20 21  2  0
 11  3  1  0
 21 16  1  0
  1 22  1  0
  1 23  1  0
  1 24  1  0
  4 25  1  0
  6 26  1  0
  8 27  1  0
 13 28  1  0
 13 29  1  0
 14 30  1  0
 14 31  1  0
 15 32  1  0
 15 33  1  0
 17 34  1  0
 18 35  1  0
 19 36  1  0
 20 37  1  0
 21 38  1  0
M  CHG  1  10  -1
M  END
>  <UniqueID>  (66) 
63

>  <SMILES>  (66) 
COc1cc(C=O)cc([O-])c1OCCCc1ccccc1

>  <Energy>  (66) 
37.42228250111542

>  <Genealogy>  (66) 
COc1cc(C=O)cc([O-])c1OCCCc1ccccc1 (protonated)
COc1cc(C=O)cc([O-])c1OCCCc1ccccc1 (3D coordinates assigned)
COc1cc(C=O)cc([O-])c1OCCCc1ccccc1 (optimized conformer: 37.42228250111542 kcal/mol)

>  <smiles>  (66) 
COc1cc(C=O)cc(O)c1OCCCc1ccccc1

>  <score_type>  (66) 
oracle

>  <origin>  (66) 
adg

>  <m_score__min__energy>  (66) 
-10.65

>  <m_primary>  (66) 
energy

$$$$
66:0
     RDKit          3D

 31 33  0  0  0  0  0  0  0  0999 V2000
   55.5440   29.3190   45.0350 O   0  0  0  0  0  0  0  0  0  0  0  0
   56.7540   28.9860   44.8920 C   0  0  0  0  0  0  0  0  0  0  0  0
   57.1940   27.7320   45.3500 C   0  0  0  0  0  0  0  0  0  0  0  0
   56.3250   26.8200   45.9770 C   0  0  0  0  0  0  0  0  0  0  0  0
   56.8020   25.5810   46.4180 C   0  0  0  0  0  0  0  0  0  0  0  0
   58.1440   25.2410   46.2380 C   0  0  0  0  0  0  0  0  0  0  0  0
   59.0180   26.1370   45.6150 C   0  0  0  0  0  0  0  0  0  0  0  0
   58.5470   27.3820   45.1700 C   0  0  0  0  0  0  0  0  0  0  0  0
   59.4020   28.2880   44.5440 C   0  0  0  0  0  0  0  0  0  0  0  0
   58.9240   29.4870   44.1200 N   0  0  0  0  0  0  0  0  0  0  0  0
   57.6430   29.8420   44.2900 N   0  0  0  0  0  0  0  0  0  0  0  0
   57.1950   31.1450   43.7720 C   0  0  0  0  0  0  0  0  0  0  0  0
   57.7010   32.2560   44.6520 C   0  0  0  0  0  0  0  0  0  0  0  0
   58.1400   33.4670   44.0900 C   0  0  0  0  0  0  0  0  0  0  0  0
   58.6420   34.4830   44.9100 C   0  0  0  0  0  0  0  0  0  0  0  0
   58.7140   34.2950   46.2940 C   0  0  0  0  0  0  0  0  0  0  0  0
   58.2880   33.0910   46.8590 C   0  0  0  0  0  0  0  0  0  0  0  0
   57.7850   32.0720   46.0420 C   0  0  0  0  0  0  0  0  0  0  0  0
   55.2665   27.0823   46.1210 H   0  0  0  0  0  0  0  0  0  0  0  0
   56.1177   24.8727   46.9080 H   0  0  0  0  0  0  0  0  0  0  0  0
   58.5146   24.2659   46.5871 H   0  0  0  0  0  0  0  0  0  0  0  0
   60.0747   25.8662   45.4736 H   0  0  0  0  0  0  0  0  0  0  0  0
   60.4613   28.0326   44.3937 H   0  0  0  0  0  0  0  0  0  0  0  0
   59.5930   30.1380   43.6480 H   0  0  0  0  0  0  0  0  0  0  0  0
   57.5835   31.2836   42.7523 H   0  0  0  0  0  0  0  0  0  0  0  0
   56.0953   31.1681   43.7614 H   0  0  0  0  0  0  0  0  0  0  0  0
   58.0887   33.6164   43.0014 H   0  0  0  0  0  0  0  0  0  0  0  0
   58.9805   35.4307   44.4659 H   0  0  0  0  0  0  0  0  0  0  0  0
   59.1064   35.0959   46.9379 H   0  0  0  0  0  0  0  0  0  0  0  0
   58.3478   32.9434   47.9474 H   0  0  0  0  0  0  0  0  0  0  0  0
   57.4542   31.1234   46.4901 H   0  0  0  0  0  0  0  0  0  0  0  0
  1  2  2  0
  2  3  1  0
  3  4  2  0
  4  5  1  0
  5  6  2  0
  6  7  1  0
  7  8  2  0
  8  9  1  0
  9 10  2  0
 10 11  1  0
 11 12  1  0
 12 13  1  0
 13 14  2  0
 14 15  1  0
 15 16  2  0
 16 17  1  0
 17 18  2  0
 11  2  1  0
 18 13  1  0
  8  3  1  0
  4 19  1  0
  5 20  1  0
  6 21  1  0
  7 22  1  0
  9 23  1  0
 10 24  1  0
 12 25  1  0
 12 26  1  0
 14 27  1  0
 15 28  1  0
 16 29  1  0
 17 30  1  0
 18 31  1  0
M  CHG  1  10   1
M  END
>  <UniqueID>  (67) 
64

>  <SMILES>  (67) 
O=c1c2ccccc2c[nH+]n1Cc1ccccc1

>  <Energy>  (67) 
38.9527366031751

>  <Genealogy>  (67) 
O=c1c2ccccc2c[nH+]n1Cc1ccccc1 (protonated)
O=c1c2ccccc2c[nH+]n1Cc1ccccc1 (3D coordinates assigned)
O=c1c2ccccc2c[nH+]n1Cc1ccccc1 (optimized conformer: 38.9527366031751 kcal/mol)

>  <smiles>  (67) 
O=c1c2ccccc2cnn1Cc1ccccc1

>  <score_type>  (67) 
oracle

>  <origin>  (67) 
adg

>  <m_score__min__energy>  (67) 
-5.8399999999999999

>  <m_primary>  (67) 
energy

$$$$
67:0
     RDKit          3D

 56 59  0  0  0  0  0  0  0  0999 V2000
   56.3170   24.4520   47.4120 C   0  0  0  0  0  0  0  0  0  0  0  0
   55.5370   25.4340   46.7590 O   0  0  0  0  0  0  0  0  0  0  0  0
   56.1340   25.8000   45.5290 C   0  0  0  0  0  0  0  0  0  0  0  0
   57.5800   26.2620   45.7410 C   0  0  0  0  0  0  0  0  0  0  0  0
   57.8680   27.4620   44.9220 N   0  0  0  0  0  0  0  0  0  0  0  0
   57.4790   28.7130   45.6090 C   0  0  0  0  0  0  0  0  0  0  0  0
   58.4390   29.0720   46.7660 C   0  0  0  0  0  0  0  0  0  0  0  0
   59.9500   28.8410   46.4330 C   0  0  0  0  0  0  0  0  0  0  0  0
   60.1080   28.6640   44.9010 C   0  0  0  0  0  0  0  0  0  0  0  0
   59.2580   27.4850   44.3880 C   0  0  0  0  0  0  0  0  0  0  0  0
   60.7740   30.0870   46.8960 C   0  0  0  0  0  0  0  0  0  0  0  0
   60.1640   30.7360   48.0630 N   0  0  0  0  0  0  0  0  0  0  0  0
   59.7620   32.1130   48.0070 C   0  0  0  0  0  0  0  0  0  0  0  0
   60.0940   32.9670   49.0630 C   0  0  0  0  0  0  0  0  0  0  0  0
   59.7350   34.3140   49.0030 C   0  0  0  0  0  0  0  0  0  0  0  0
   59.0790   34.8050   47.9170 N   0  0  0  0  0  0  0  0  0  0  0  0
   58.7450   34.0060   46.8610 C   0  0  0  0  0  0  0  0  0  0  0  0
   58.0750   34.5410   45.7470 C   0  0  0  0  0  0  0  0  0  0  0  0
   57.7420   33.7240   44.6620 C   0  0  0  0  0  0  0  0  0  0  0  0
   58.0800   32.3700   44.6760 C   0  0  0  0  0  0  0  0  0  0  0  0
   58.7500   31.8220   45.7760 C   0  0  0  0  0  0  0  0  0  0  0  0
   59.0830   32.6290   46.8810 C   0  0  0  0  0  0  0  0  0  0  0  0
   59.9910   29.9750   49.3040 C   0  0  0  0  0  0  0  0  0  0  0  0
   60.7580   28.6490   49.2470 C   0  0  0  0  0  0  0  0  0  0  0  0
   59.9950   27.5680   48.4770 C   0  0  0  0  0  0  0  0  0  0  0  0
   60.3320   27.6330   47.1000 O   0  0  0  0  0  0  0  0  0  0  0  0
   56.2214   24.5724   48.5012 H   0  0  0  0  0  0  0  0  0  0  0  0
   55.9649   23.4512   47.1214 H   0  0  0  0  0  0  0  0  0  0  0  0
   57.3715   24.5684   47.1214 H   0  0  0  0  0  0  0  0  0  0  0  0
   56.1283   24.9321   44.8532 H   0  0  0  0  0  0  0  0  0  0  0  0
   55.5596   26.6300   45.0919 H   0  0  0  0  0  0  0  0  0  0  0  0
   57.7302   26.5045   46.8034 H   0  0  0  0  0  0  0  0  0  0  0  0
   58.2597   25.4526   45.4363 H   0  0  0  0  0  0  0  0  0  0  0  0
   57.4846   29.5344   44.8774 H   0  0  0  0  0  0  0  0  0  0  0  0
   56.4774   28.5628   46.0382 H   0  0  0  0  0  0  0  0  0  0  0  0
   58.2981   30.1340   47.0157 H   0  0  0  0  0  0  0  0  0  0  0  0
   58.1917   28.4038   47.6041 H   0  0  0  0  0  0  0  0  0  0  0  0
   59.7837   29.5866   44.3974 H   0  0  0  0  0  0  0  0  0  0  0  0
   61.1651   28.4544   44.6807 H   0  0  0  0  0  0  0  0  0  0  0  0
   59.2060   27.5478   43.2910 H   0  0  0  0  0  0  0  0  0  0  0  0
   59.7480   26.5642   44.7372 H   0  0  0  0  0  0  0  0  0  0  0  0
   61.7921   29.7639   47.1590 H   0  0  0  0  0  0  0  0  0  0  0  0
   60.7929   30.8129   46.0698 H   0  0  0  0  0  0  0  0  0  0  0  0
   60.6361   32.5785   49.9377 H   0  0  0  0  0  0  0  0  0  0  0  0
   59.9841   34.9835   49.8395 H   0  0  0  0  0  0  0  0  0  0  0  0
   58.8330   35.8210   47.9030 H   0  0  0  0  0  0  0  0  0  0  0  0
   57.8111   35.6087   45.7286 H   0  0  0  0  0  0  0  0  0  0  0  0
   57.2129   34.1491   43.7963 H   0  0  0  0  0  0  0  0  0  0  0  0
   57.8189   31.7311   43.8194 H   0  0  0  0  0  0  0  0  0  0  0  0
   59.0179   30.7551   45.7773 H   0  0  0  0  0  0  0  0  0  0  0  0
   60.3674   30.5722   50.1476 H   0  0  0  0  0  0  0  0  0  0  0  0
   58.9210   29.7555   49.4341 H   0  0  0  0  0  0  0  0  0  0  0  0
   61.7247   28.8207   48.7510 H   0  0  0  0  0  0  0  0  0  0  0  0
   60.8931   28.2942   50.2794 H   0  0  0  0  0  0  0  0  0  0  0  0
   60.2647   26.5778   48.8730 H   0  0  0  0  0  0  0  0  0  0  0  0
   58.9136   27.7314   48.5953 H   0  0  0  0  0  0  0  0  0  0  0  0
  1  2  1  0
  2  3  1  0
  3  4  1  0
  4  5  1  0
  5  6  1  0
  6  7  1  0
  7  8  1  0
  8  9  1  0
  9 10  1  0
  8 11  1  0
 11 12  1  0
 12 13  1  0
 13 14  2  0
 14 15  1  0
 15 16  2  0
 16 17  1  0
 17 18  2  0
 18 19  1  0
 19 20  2  0
 20 21  1  0
 21 22  2  0
 12 23  1  0
 23 24  1  0
 24 25  1  0
 25 26  1  0
 10  5  1  0
 22 13  1  0
 26  8  1  0
 22 17  1  0
  1 27  1  0
  1 28  1  0
  1 29  1  0
  3 30  1  0
  3 31  1  0
  4 32  1  0
  4 33  1  0
  6 34  1  0
  6 35  1  0
  7 36  1  0
  7 37  1  0
  9 38  1  0
  9 39  1  0
 10 40  1  0
 10 41  1  0
 11 42  1  0
 11 43  1  0
 14 44  1  0
 15 45  1  0
 16 46  1  0
 18 47  1  0
 19 48  1  0
 20 49  1  0
 21 50  1  0
 23 51  1  0
 23 52  1  0
 24 53  1  0
 24 54  1  0
 25 55  1  0
 25 56  1  0
M  CHG  1  16   1
M  END
>  <UniqueID>  (68) 
65

>  <SMILES>  (68) 
COCCN1CCC2(CC1)CN(c1cc[nH+]c3ccccc13)CCCO2

>  <Energy>  (68) 
87.8224641096691

>  <Genealogy>  (68) 
COCCN1CCC2(CC1)CN(c1cc[nH+]c3ccccc13)CCCO2 (protonated)
COCCN1CCC2(CC1)CN(c1cc[nH+]c3ccccc13)CCCO2 (3D coordinates assigned)
COCCN1CCC2(CC1)CN(c1cc[nH+]c3ccccc13)CCCO2 (nonaromatic ring conformer: 87.8224641096691 kcal/mol)

>  <smiles>  (68) 
COCCN1CCC2(CC1)CN(c1ccnc3ccccc13)CCCO2

>  <score_type>  (68) 
oracle

>  <origin>  (68) 
adg

>  <m_score__min__energy>  (68) 
-4.9100000000000001

>  <m_primary>  (68) 
energy

$$$$
68:0
     RDKit          3D

 54 57  0  0  0  0  0  0  0  0999 V2000
   56.5880   33.5240   46.7600 O   0  0  0  0  0  0  0  0  0  0  0  0
   58.0480   33.1800   46.8320 S   0  0  0  0  0  0  0  0  0  0  0  0
   58.2710   31.9920   47.7260 O   0  0  0  0  0  0  0  0  0  0  0  0
   59.0070   34.5690   47.3580 C   0  0  0  0  0  0  0  0  0  0  0  0
   60.1730   34.6120   46.3450 C   0  0  1  0  0  0  0  0  0  0  0  0
   61.2750   33.7280   46.8410 N   0  0  0  0  0  0  0  0  0  0  0  0
   62.6540   34.1460   46.4670 C   0  0  0  0  0  0  0  0  0  0  0  0
   63.7090   33.1110   46.8980 C   0  0  0  0  0  0  0  0  0  0  0  0
   64.0800   33.1350   48.3870 C   0  0  0  0  0  0  0  0  0  0  0  0
   63.1820   32.2090   49.2220 C   0  0  0  0  0  0  0  0  0  0  0  0
   61.7110   32.2160   48.7810 C   0  0  0  0  0  0  0  0  0  0  0  0
   61.1870   33.5800   48.3220 C   0  0  0  0  0  0  0  0  0  0  0  0
   59.5020   34.1610   45.0160 C   0  0  0  0  0  0  0  0  0  0  0  0
   58.7690   32.9160   45.2810 N   0  0  0  0  0  0  0  0  0  0  0  0
   57.8280   32.4740   44.2300 C   0  0  0  0  0  0  0  0  0  0  0  0
   57.2270   31.1070   44.4370 C   0  0  0  0  0  0  0  0  0  0  0  0
   57.9030   29.9100   44.5370 C   0  0  0  0  0  0  0  0  0  0  0  0
   56.9600   28.9640   44.6770 N   0  0  0  0  0  0  0  0  0  0  0  0
   57.1840   27.5450   44.9310 C   0  0  0  0  0  0  0  0  0  0  0  0
   58.1890   27.3810   46.0360 C   0  0  0  0  0  0  0  0  0  0  0  0
   58.1370   28.2120   47.1680 C   0  0  0  0  0  0  0  0  0  0  0  0
   59.1030   28.0930   48.1720 C   0  0  0  0  0  0  0  0  0  0  0  0
   60.1320   27.1550   48.0470 C   0  0  0  0  0  0  0  0  0  0  0  0
   61.0710   27.0440   49.0200 F   0  0  0  0  0  0  0  0  0  0  0  0
   60.1990   26.3370   46.9150 C   0  0  0  0  0  0  0  0  0  0  0  0
   59.2340   26.4520   45.9090 C   0  0  0  0  0  0  0  0  0  0  0  0
   55.7710   29.5450   44.6630 N   0  0  0  0  0  0  0  0  0  0  0  0
   55.9040   30.8530   44.5020 N   0  0  0  0  0  0  0  0  0  0  0  0
   58.4143   35.4946   47.3137 H   0  0  0  0  0  0  0  0  0  0  0  0
   59.3495   34.4813   48.3996 H   0  0  0  0  0  0  0  0  0  0  0  0
   60.6572   35.5893   46.2024 H   0  0  0  0  0  0  0  0  0  0  0  0
   62.7035   34.2695   45.3751 H   0  0  0  0  0  0  0  0  0  0  0  0
   62.8743   35.0908   46.9855 H   0  0  0  0  0  0  0  0  0  0  0  0
   63.3199   32.1099   46.6606 H   0  0  0  0  0  0  0  0  0  0  0  0
   64.6283   33.3672   46.3509 H   0  0  0  0  0  0  0  0  0  0  0  0
   65.1249   32.8096   48.4974 H   0  0  0  0  0  0  0  0  0  0  0  0
   63.9408   34.1626   48.7540 H   0  0  0  0  0  0  0  0  0  0  0  0
   63.5659   31.1818   49.1354 H   0  0  0  0  0  0  0  0  0  0  0  0
   63.2098   32.5807   50.2569 H   0  0  0  0  0  0  0  0  0  0  0  0
   61.6001   31.5079   47.9466 H   0  0  0  0  0  0  0  0  0  0  0  0
   61.1200   31.9379   49.6661 H   0  0  0  0  0  0  0  0  0  0  0  0
   60.1358   33.6812   48.6297 H   0  0  0  0  0  0  0  0  0  0  0  0
   61.8070   34.3619   48.7848 H   0  0  0  0  0  0  0  0  0  0  0  0
   58.8058   34.9376   44.6663 H   0  0  0  0  0  0  0  0  0  0  0  0
   60.2625   34.0000   44.2378 H   0  0  0  0  0  0  0  0  0  0  0  0
   57.0057   33.2030   44.1816 H   0  0  0  0  0  0  0  0  0  0  0  0
   58.4158   32.4106   43.3024 H   0  0  0  0  0  0  0  0  0  0  0  0
   58.9924   29.7601   44.5081 H   0  0  0  0  0  0  0  0  0  0  0  0
   56.2357   27.0722   45.2261 H   0  0  0  0  0  0  0  0  0  0  0  0
   57.5662   27.0671   44.0169 H   0  0  0  0  0  0  0  0  0  0  0  0
   57.3344   28.9580   47.2646 H   0  0  0  0  0  0  0  0  0  0  0  0
   59.0532   28.7384   49.0614 H   0  0  0  0  0  0  0  0  0  0  0  0
   61.0115   25.6022   46.8155 H   0  0  0  0  0  0  0  0  0  0  0  0
   59.2940   25.8128   45.0158 H   0  0  0  0  0  0  0  0  0  0  0  0
  1  2  2  0
  2  3  2  0
  2  4  1  0
  4  5  1  0
  5  6  1  0
  6  7  1  0
  7  8  1  0
  8  9  1  0
  9 10  1  0
 10 11  1  0
 11 12  1  0
  5 13  1  0
 13 14  1  0
 14 15  1  0
 15 16  1  0
 16 17  2  0
 17 18  1  0
 18 19  1  0
 19 20  1  0
 20 21  2  0
 21 22  1  0
 22 23  2  0
 23 24  1  0
 23 25  1  0
 25 26  2  0
 18 27  1  0
 27 28  2  0
 14  2  1  0
 28 16  1  0
 12  6  1  0
 26 20  1  0
  4 29  1  0
  4 30  1  0
  5 31  1  6
  7 32  1  0
  7 33  1  0
  8 34  1  0
  8 35  1  0
  9 36  1  0
  9 37  1  0
 10 38  1  0
 10 39  1  0
 11 40  1  0
 11 41  1  0
 12 42  1  0
 12 43  1  0
 13 44  1  0
 13 45  1  0
 15 46  1  0
 15 47  1  0
 17 48  1  0
 19 49  1  0
 19 50  1  0
 21 51  1  0
 22 52  1  0
 25 53  1  0
 26 54  1  0
M  END
>  <UniqueID>  (69) 
66

>  <SMILES>  (69) 
O=S1(=O)C[C@@H](N2CCCCCC2)CN1Cc1cn(Cc2ccc(F)cc2)nn1

>  <Energy>  (69) 
110.72037074898144

>  <Genealogy>  (69) 
O=S1(=O)C[C@@H](N2CCCCCC2)CN1Cc1cn(Cc2ccc(F)cc2)nn1 (chirality)
O=S1(=O)C[C@@H](N2CCCCCC2)CN1Cc1cn(Cc2ccc(F)cc2)nn1 (3D coordinates assigned)
O=S1(=O)C[C@@H](N2CCCCCC2)CN1Cc1cn(Cc2ccc(F)cc2)nn1 (nonaromatic ring conformer: 110.72037074898144 kcal/mol)

>  <smiles>  (69) 
O=S1(=O)CC(N2CCCCCC2)CN1Cc1cn(Cc2ccc(F)cc2)nn1

>  <score_type>  (69) 
oracle

>  <origin>  (69) 
adg

>  <m_score__min__energy>  (69) 
-7.7599999999999998

>  <m_primary>  (69) 
energy

$$$$
69:0
     RDKit          3D

 55 59  0  0  0  0  0  0  0  0999 V2000
   67.5870   33.4380   50.5210 C   0  0  0  0  0  0  0  0  0  0  0  0
   66.6290   32.5010   51.0060 O   0  0  0  0  0  0  0  0  0  0  0  0
   65.3700   32.2860   50.4270 C   0  0  0  0  0  0  0  0  0  0  0  0
   64.9920   33.0860   49.3400 C   0  0  0  0  0  0  0  0  0  0  0  0
   63.7470   32.9160   48.7280 C   0  0  0  0  0  0  0  0  0  0  0  0
   62.8420   31.9330   49.1940 C   0  0  0  0  0  0  0  0  0  0  0  0
   61.5520   31.7460   48.5510 N   0  0  0  0  0  0  0  0  0  0  0  0
   60.4530   31.1260   49.3310 C   0  0  0  0  0  0  0  0  0  0  0  0
   59.2000   30.6810   48.5280 C   0  0  0  0  0  0  0  0  0  0  0  0
   59.3070   30.9660   47.0980 N   0  0  0  0  0  0  0  0  0  0  0  0
   58.5520   30.2000   46.1380 C   0  0  0  0  0  0  0  0  0  0  0  0
   57.9800   30.8110   45.0060 C   0  0  0  0  0  0  0  0  0  0  0  0
   57.2400   30.0190   44.1010 C   0  0  0  0  0  0  0  0  0  0  0  0
   56.6450   30.6380   42.8740 C   0  0  0  0  0  0  0  0  0  0  0  0
   57.0860   28.6810   44.3290 N   0  0  0  0  0  0  0  0  0  0  0  0
   57.6380   28.1300   45.4390 C   0  0  0  0  0  0  0  0  0  0  0  0
   57.5930   26.8170   45.8690 C   0  0  0  0  0  0  0  0  0  0  0  0
   56.9120   25.6450   45.2620 C   0  0  0  0  0  0  0  0  0  0  0  0
   57.3800   25.0690   44.0650 C   0  0  0  0  0  0  0  0  0  0  0  0
   56.7190   23.9730   43.5010 C   0  0  0  0  0  0  0  0  0  0  0  0
   55.5820   23.4440   44.1170 C   0  0  0  0  0  0  0  0  0  0  0  0
   55.1070   24.0070   45.3020 C   0  0  0  0  0  0  0  0  0  0  0  0
   55.7650   25.1010   45.8710 C   0  0  0  0  0  0  0  0  0  0  0  0
   58.3400   26.8450   47.0490 C   0  0  0  0  0  0  0  0  0  0  0  0
   58.7840   28.1020   47.2930 N   0  0  0  0  0  0  0  0  0  0  0  0
   58.3540   28.8630   46.3010 N   0  0  0  0  0  0  0  0  0  0  0  0
   59.9620   32.2060   46.7070 C   0  0  0  0  0  0  0  0  0  0  0  0
   61.4140   32.1140   47.1310 C   0  0  0  0  0  0  0  0  0  0  0  0
   63.2330   31.1300   50.2910 C   0  0  0  0  0  0  0  0  0  0  0  0
   64.4800   31.3020   50.9020 C   0  0  0  0  0  0  0  0  0  0  0  0
   68.0858   33.9259   51.3714 H   0  0  0  0  0  0  0  0  0  0  0  0
   68.3353   32.9136   49.9086 H   0  0  0  0  0  0  0  0  0  0  0  0
   67.0793   34.1978   49.9086 H   0  0  0  0  0  0  0  0  0  0  0  0
   65.6824   33.8557   48.9646 H   0  0  0  0  0  0  0  0  0  0  0  0
   63.4678   33.5527   47.8756 H   0  0  0  0  0  0  0  0  0  0  0  0
   60.8606   30.2370   49.8346 H   0  0  0  0  0  0  0  0  0  0  0  0
   60.0983   31.9137   50.0119 H   0  0  0  0  0  0  0  0  0  0  0  0
   59.0655   29.5973   48.6603 H   0  0  0  0  0  0  0  0  0  0  0  0
   58.3422   31.2514   48.9139 H   0  0  0  0  0  0  0  0  0  0  0  0
   58.1076   31.8892   44.8292 H   0  0  0  0  0  0  0  0  0  0  0  0
   55.9105   31.4022   43.1682 H   0  0  0  0  0  0  0  0  0  0  0  0
   57.4413   31.1057   42.2763 H   0  0  0  0  0  0  0  0  0  0  0  0
   56.1462   29.8609   42.2763 H   0  0  0  0  0  0  0  0  0  0  0  0
   58.2709   25.4837   43.5706 H   0  0  0  0  0  0  0  0  0  0  0  0
   57.0956   23.5259   42.5692 H   0  0  0  0  0  0  0  0  0  0  0  0
   55.0620   22.5848   43.6683 H   0  0  0  0  0  0  0  0  0  0  0  0
   54.2135   23.5893   45.7890 H   0  0  0  0  0  0  0  0  0  0  0  0
   55.3830   25.5413   46.8038 H   0  0  0  0  0  0  0  0  0  0  0  0
   58.5392   25.9723   47.6883 H   0  0  0  0  0  0  0  0  0  0  0  0
   59.8977   32.3359   45.6166 H   0  0  0  0  0  0  0  0  0  0  0  0
   59.4744   33.0672   47.1872 H   0  0  0  0  0  0  0  0  0  0  0  0
   61.9159   31.3523   46.5163 H   0  0  0  0  0  0  0  0  0  0  0  0
   61.8724   33.1040   46.9904 H   0  0  0  0  0  0  0  0  0  0  0  0
   62.5462   30.3586   50.6695 H   0  0  0  0  0  0  0  0  0  0  0  0
   64.7660   30.6682   51.7543 H   0  0  0  0  0  0  0  0  0  0  0  0
  1  2  1  0
  2  3  1  0
  3  4  2  0
  4  5  1  0
  5  6  2  0
  6  7  1  0
  7  8  1  0
  8  9  1  0
  9 10  1  0
 10 11  1  0
 11 12  2  0
 12 13  1  0
 13 14  1  0
 13 15  2  0
 15 16  1  0
 16 17  2  0
 17 18  1  0
 18 19  2  0
 19 20  1  0
 20 21  2  0
 21 22  1  0
 22 23  2  0
 17 24  1  0
 24 25  2  0
 25 26  1  0
 10 27  1  0
 27 28  1  0
  6 29  1  0
 29 30  2  0
 30  3  1  0
 28  7  1  0
 26 11  1  0
 26 16  1  0
 23 18  1  0
  1 31  1  0
  1 32  1  0
  1 33  1  0
  4 34  1  0
  5 35  1  0
  8 36  1  0
  8 37  1  0
  9 38  1  0
  9 39  1  0
 12 40  1  0
 14 41  1  0
 14 42  1  0
 14 43  1  0
 19 44  1  0
 20 45  1  0
 21 46  1  0
 22 47  1  0
 23 48  1  0
 24 49  1  0
 27 50  1  0
 27 51  1  0
 28 52  1  0
 28 53  1  0
 29 54  1  0
 30 55  1  0
M  END
>  <UniqueID>  (70) 
67

>  <SMILES>  (70) 
COc1ccc(N2CCN(c3cc(C)nc4c(-c5ccccc5)cnn34)CC2)cc1

>  <Energy>  (70) 
112.0627658279081

>  <Genealogy>  (70) 
COc1ccc(N2CCN(c3cc(C)nc4c(-c5ccccc5)cnn34)CC2)cc1 (3D coordinates assigned)
COc1ccc(N2CCN(c3cc(C)nc4c(-c5ccccc5)cnn34)CC2)cc1 (nonaromatic ring conformer: 112.0627658279081 kcal/mol)

>  <smiles>  (70) 
COc1ccc(N2CCN(c3cc(C)nc4c(-c5ccccc5)cnn34)CC2)cc1

>  <score_type>  (70) 
oracle

>  <origin>  (70) 
adg

>  <m_score__min__energy>  (70) 
-7.6200000000000001

>  <m_primary>  (70) 
energy

$$$$
70:0
     RDKit          3D

 39 40  0  0  0  0  0  0  0  0999 V2000
   60.3798   35.5194   48.5765 H   0  0  0  0  0  0  0  0  0  0  0  0
   60.2470   34.4940   48.2010 C   0  0  0  0  0  0  0  0  0  0  0  0
   59.0020   34.1140   47.8690 C   0  0  0  0  0  0  0  0  0  0  0  0
   58.1984   34.3324   48.5877 H   0  0  0  0  0  0  0  0  0  0  0  0
   58.6240   33.4260   46.6160 C   0  0  0  0  0  0  0  0  0  0  0  0
   59.0450   32.1110   46.3430 C   0  0  0  0  0  0  0  0  0  0  0  0
   59.6797   31.5778   47.0661 H   0  0  0  0  0  0  0  0  0  0  0  0
   58.6600   31.4800   45.1570 C   0  0  0  0  0  0  0  0  0  0  0  0
   59.0037   30.4573   44.9425 H   0  0  0  0  0  0  0  0  0  0  0  0
   57.8380   32.1470   44.2420 C   0  0  0  0  0  0  0  0  0  0  0  0
   57.3500   31.3380   42.7170 S   0  0  0  0  0  0  0  0  0  0  0  0
   57.2440   29.6900   43.4840 C   0  0  0  0  0  0  0  0  0  0  0  0
   58.1819   29.4708   44.0154 H   0  0  0  0  0  0  0  0  0  0  0  0
   57.0807   28.9305   42.7053 H   0  0  0  0  0  0  0  0  0  0  0  0
   56.1080   29.6690   44.4490 C   0  0  0  0  0  0  0  0  0  0  0  0
   55.3210   30.6540   44.5110 O   0  0  0  0  0  0  0  0  0  0  0  0
   55.9040   28.5370   45.2460 O   0  0  0  0  0  0  0  0  0  0  0  0
   56.9450   27.6330   45.6060 C   0  0  0  0  0  0  0  0  0  0  0  0
   57.4135   27.2388   44.6921 H   0  0  0  0  0  0  0  0  0  0  0  0
   56.5129   26.8119   46.1968 H   0  0  0  0  0  0  0  0  0  0  0  0
   58.0020   28.3390   46.4460 C   0  0  0  0  0  0  0  0  0  0  0  0
   57.7809   28.1913   47.5134 H   0  0  0  0  0  0  0  0  0  0  0  0
   58.9930   27.9208   46.2155 H   0  0  0  0  0  0  0  0  0  0  0  0
   57.9953   29.4146   46.2155 H   0  0  0  0  0  0  0  0  0  0  0  0
   57.3850   33.4400   44.5250 C   0  0  0  0  0  0  0  0  0  0  0  0
   56.7257   33.9590   43.8137 H   0  0  0  0  0  0  0  0  0  0  0  0
   57.7690   34.0730   45.7100 C   0  0  0  0  0  0  0  0  0  0  0  0
   57.3991   35.0844   45.9343 H   0  0  0  0  0  0  0  0  0  0  0  0
   61.4550   33.6430   48.1020 C   0  0  0  0  0  0  0  0  0  0  0  0
   62.3550   33.8540   47.0470 C   0  0  0  0  0  0  0  0  0  0  0  0
   62.1660   34.6565   46.3188 H   0  0  0  0  0  0  0  0  0  0  0  0
   63.4920   33.0490   46.9160 C   0  0  0  0  0  0  0  0  0  0  0  0
   64.2019   33.2296   46.0954 H   0  0  0  0  0  0  0  0  0  0  0  0
   63.7260   32.0160   47.8270 C   0  0  0  0  0  0  0  0  0  0  0  0
   64.6240   31.3886   47.7274 H   0  0  0  0  0  0  0  0  0  0  0  0
   62.8210   31.7790   48.8640 C   0  0  0  0  0  0  0  0  0  0  0  0
   63.0034   30.9607   49.5761 H   0  0  0  0  0  0  0  0  0  0  0  0
   61.6830   32.5810   48.9980 C   0  0  0  0  0  0  0  0  0  0  0  0
   60.9638   32.3815   49.8060 H   0  0  0  0  0  0  0  0  0  0  0  0
  1  2  1  0
  2  3  2  0
  3  4  1  0
  3  5  1  0
  5  6  2  0
  6  7  1  0
  6  8  1  0
  8  9  1  0
  8 10  2  0
 10 11  1  0
 11 12  1  0
 12 13  1  0
 12 14  1  0
 12 15  1  0
 15 16  2  0
 15 17  1  0
 17 18  1  0
 18 19  1  0
 18 20  1  0
 18 21  1  0
 21 22  1  0
 21 23  1  0
 21 24  1  0
 10 25  1  0
 25 26  1  0
 25 27  2  0
 27 28  1  0
  2 29  1  0
 29 30  2  0
 30 31  1  0
 30 32  1  0
 32 33  1  0
 32 34  2  0
 34 35  1  0
 34 36  1  0
 36 37  1  0
 36 38  2  0
 38 39  1  0
 27  5  1  0
 38 29  1  0
M  END
>  <UniqueID>  (71) 
68

>  <SMILES>  (71) 
CCOC(=O)CSc1ccc(/C=C\c2ccccc2)cc1

>  <Energy>  (71) 
38.865320106571126

>  <Genealogy>  (71) 
CCOC(=O)CSc1ccc(/C=C\c2ccccc2)cc1 (cis-trans isomerization)
CCOC(=O)CSc1ccc(/C=C\c2ccccc2)cc1 (3D coordinates assigned)
CCOC(=O)CSc1ccc(/C=C\c2ccccc2)cc1 (optimized conformer: 38.865320106571126 kcal/mol)

>  <smiles>  (71) 
CCOC(=O)CSc1ccc(C=Cc2ccccc2)cc1

>  <score_type>  (71) 
oracle

>  <origin>  (71) 
adg

>  <m_score__min__energy>  (71) 
-8.1899999999999995

>  <m_primary>  (71) 
energy

$$$$
71:0
     RDKit          3D

 36 37  0  0  0  0  0  0  0  0999 V2000
   61.0221   28.6477   45.0273 H   0  0  0  0  0  0  0  0  0  0  0  0
   60.3730   28.8780   45.8850 C   0  0  0  0  0  0  0  0  0  0  0  0
   60.8770   29.6270   46.8790 C   0  0  0  0  0  0  0  0  0  0  0  0
   61.6635   29.1903   47.5120 H   0  0  0  0  0  0  0  0  0  0  0  0
   60.4300   31.0130   47.1700 C   0  0  0  0  0  0  0  0  0  0  0  0
   61.1500   31.7630   48.1110 C   0  0  0  0  0  0  0  0  0  0  0  0
   62.0262   31.3195   48.6065 H   0  0  0  0  0  0  0  0  0  0  0  0
   60.7650   33.0660   48.4240 C   0  0  0  0  0  0  0  0  0  0  0  0
   61.3449   33.6449   49.1579 H   0  0  0  0  0  0  0  0  0  0  0  0
   59.6450   33.6440   47.8110 C   0  0  0  0  0  0  0  0  0  0  0  0
   59.2700   34.9850   48.1480 N   0  0  0  0  0  0  0  0  0  0  0  0
   59.6230   35.4490   49.0140 H   0  0  0  0  0  0  0  0  0  0  0  0
   58.6300   35.5300   47.5280 H   0  0  0  0  0  0  0  0  0  0  0  0
   58.8960   32.9010   46.8810 C   0  0  0  0  0  0  0  0  0  0  0  0
   57.7690   33.4950   46.2900 O   0  0  0  0  0  0  0  0  0  0  0  0
   57.6640   33.8470   44.9130 C   0  0  0  0  0  0  0  0  0  0  0  0
   57.3506   34.8978   44.8260 H   0  0  0  0  0  0  0  0  0  0  0  0
   58.6409   33.7142   44.4251 H   0  0  0  0  0  0  0  0  0  0  0  0
   56.9195   33.2007   44.4251 H   0  0  0  0  0  0  0  0  0  0  0  0
   59.2920   31.5840   46.5690 C   0  0  0  0  0  0  0  0  0  0  0  0
   58.7051   30.9961   45.8479 H   0  0  0  0  0  0  0  0  0  0  0  0
   58.9890   28.3440   45.8800 C   0  0  0  0  0  0  0  0  0  0  0  0
   58.7510   27.0940   46.4710 C   0  0  0  0  0  0  0  0  0  0  0  0
   59.5860   26.5345   46.9179 H   0  0  0  0  0  0  0  0  0  0  0  0
   57.4640   26.5540   46.4970 C   0  0  0  0  0  0  0  0  0  0  0  0
   57.2921   25.5690   46.9554 H   0  0  0  0  0  0  0  0  0  0  0  0
   56.3940   27.2600   45.9430 C   0  0  0  0  0  0  0  0  0  0  0  0
   55.1180   26.7090   45.9730 O   0  0  0  0  0  0  0  0  0  0  0  0
   56.6010   28.5180   45.3630 C   0  0  0  0  0  0  0  0  0  0  0  0
   55.4940   29.1980   44.8290 O   0  0  0  0  0  0  0  0  0  0  0  0
   55.5540   30.0920   43.7220 C   0  0  0  0  0  0  0  0  0  0  0  0
   55.6234   31.1265   44.0895 H   0  0  0  0  0  0  0  0  0  0  0  0
   56.4386   29.8599   43.1108 H   0  0  0  0  0  0  0  0  0  0  0  0
   54.6463   29.9802   43.1108 H   0  0  0  0  0  0  0  0  0  0  0  0
   57.9020   29.0610   45.3380 C   0  0  0  0  0  0  0  0  0  0  0  0
   58.0707   30.0523   44.8920 H   0  0  0  0  0  0  0  0  0  0  0  0
  1  2  1  0
  2  3  2  0
  3  4  1  0
  3  5  1  0
  5  6  2  0
  6  7  1  0
  6  8  1  0
  8  9  1  0
  8 10  2  0
 10 11  1  0
 11 12  1  0
 11 13  1  0
 10 14  1  0
 14 15  1  0
 15 16  1  0
 16 17  1  0
 16 18  1  0
 16 19  1  0
 14 20  2  0
 20 21  1  0
  2 22  1  0
 22 23  2  0
 23 24  1  0
 23 25  1  0
 25 26  1  0
 25 27  2  0
 27 28  1  0
 27 29  1  0
 29 30  1  0
 30 31  1  0
 31 32  1  0
 31 33  1  0
 31 34  1  0
 29 35  2  0
 35 36  1  0
 20  5  1  0
 35 22  1  0
M  CHG  1  28  -1
M  END
>  <UniqueID>  (72) 
69

>  <SMILES>  (72) 
COc1cc(/C=C/c2ccc([O-])c(OC)c2)ccc1N

>  <Energy>  (72) 
40.3922035222363

>  <Genealogy>  (72) 
COc1cc(C=Cc2ccc([O-])c(OC)c2)ccc1N (protonated)
COc1cc(/C=C/c2ccc([O-])c(OC)c2)ccc1N (cis-trans isomerization)
COc1cc(/C=C/c2ccc([O-])c(OC)c2)ccc1N (3D coordinates assigned)
COc1cc(/C=C/c2ccc([O-])c(OC)c2)ccc1N (optimized conformer: 40.3922035222363 kcal/mol)

>  <smiles>  (72) 
COc1cc(C=Cc2ccc(O)c(OC)c2)ccc1N

>  <score_type>  (72) 
oracle

>  <origin>  (72) 
adg

>  <m_score__min__energy>  (72) 
-10.16

>  <m_primary>  (72) 
energy

$$$$
72:0
     RDKit          3D

 43 44  0  0  0  0  0  0  0  0999 V2000
   59.5760   31.1630   46.8650 C   0  0  0  0  0  0  0  0  0  0  0  0
   59.7880   32.6090   46.4020 C   0  0  0  0  0  0  0  0  0  0  0  0
   58.6410   33.5980   46.8020 C   0  0  2  0  0  0  0  0  0  0  0  0
   59.2720   34.9660   47.1450 C   0  0  0  0  0  0  0  0  0  0  0  0
   57.9650   33.1220   47.9430 O   0  0  0  0  0  0  0  0  0  0  0  0
   57.6410   33.8080   45.6230 C   0  0  0  0  0  0  0  0  0  0  0  0
   58.0940   33.2530   44.2600 C   0  0  0  0  0  0  0  0  0  0  0  0
   57.4220   31.9560   43.9170 C   0  0  0  0  0  0  0  0  0  0  0  0
   57.0510   30.9620   44.8130 C   0  0  0  0  0  0  0  0  0  0  0  0
   56.4780   29.8420   44.1850 C   0  0  0  0  0  0  0  0  0  0  0  0
   56.0460   28.6940   44.8590 O   0  0  0  0  0  0  0  0  0  0  0  0
   56.9020   27.8150   45.5350 C   0  0  0  0  0  0  0  0  0  0  0  0
   58.2740   28.0890   45.5450 C   0  0  0  0  0  0  0  0  0  0  0  0
   59.1590   27.2390   46.2140 C   0  0  0  0  0  0  0  0  0  0  0  0
   58.6770   26.1030   46.8660 C   0  0  0  0  0  0  0  0  0  0  0  0
   57.3120   25.8050   46.8400 C   0  0  0  0  0  0  0  0  0  0  0  0
   56.4110   26.6510   46.1620 C   0  0  0  0  0  0  0  0  0  0  0  0
   55.0420   26.3570   46.0710 O   0  0  0  0  0  0  0  0  0  0  0  0
   54.5120   25.1190   45.6080 C   0  0  0  0  0  0  0  0  0  0  0  0
   56.4090   29.9480   42.8030 C   0  0  0  0  0  0  0  0  0  0  0  0
   57.0510   31.4380   42.3600 S   0  0  0  0  0  0  0  0  0  0  0  0
   59.5707   31.1271   47.9644 H   0  0  0  0  0  0  0  0  0  0  0  0
   58.6139   30.7925   46.4814 H   0  0  0  0  0  0  0  0  0  0  0  0
   60.3912   30.5319   46.4814 H   0  0  0  0  0  0  0  0  0  0  0  0
   60.7265   32.9761   46.8430 H   0  0  0  0  0  0  0  0  0  0  0  0
   59.8079   32.5839   45.3025 H   0  0  0  0  0  0  0  0  0  0  0  0
   59.3253   35.0816   48.2376 H   0  0  0  0  0  0  0  0  0  0  0  0
   60.2855   35.0190   46.7208 H   0  0  0  0  0  0  0  0  0  0  0  0
   58.6544   35.7714   46.7208 H   0  0  0  0  0  0  0  0  0  0  0  0
   58.5580   32.4750   48.4070 H   0  0  0  0  0  0  0  0  0  0  0  0
   56.6940   33.3166   45.8908 H   0  0  0  0  0  0  0  0  0  0  0  0
   57.5552   34.8967   45.4913 H   0  0  0  0  0  0  0  0  0  0  0  0
   57.8544   33.9916   43.4808 H   0  0  0  0  0  0  0  0  0  0  0  0
   59.1761   33.0642   44.3183 H   0  0  0  0  0  0  0  0  0  0  0  0
   57.1909   31.0425   45.9011 H   0  0  0  0  0  0  0  0  0  0  0  0
   58.6581   28.9781   45.0236 H   0  0  0  0  0  0  0  0  0  0  0  0
   60.2354   27.4653   46.2267 H   0  0  0  0  0  0  0  0  0  0  0  0
   59.3732   25.4408   47.4015 H   0  0  0  0  0  0  0  0  0  0  0  0
   56.9386   24.9055   47.3513 H   0  0  0  0  0  0  0  0  0  0  0  0
   54.2428   24.4903   46.4695 H   0  0  0  0  0  0  0  0  0  0  0  0
   53.6162   25.3087   44.9984 H   0  0  0  0  0  0  0  0  0  0  0  0
   55.2676   24.6017   44.9984 H   0  0  0  0  0  0  0  0  0  0  0  0
   56.0047   29.1894   42.1167 H   0  0  0  0  0  0  0  0  0  0  0  0
  1  2  1  0
  2  3  1  0
  3  4  1  0
  3  5  1  1
  3  6  1  0
  6  7  1  0
  7  8  1  0
  8  9  2  0
  9 10  1  0
 10 11  1  0
 11 12  1  0
 12 13  2  0
 13 14  1  0
 14 15  2  0
 15 16  1  0
 16 17  2  0
 17 18  1  0
 18 19  1  0
 10 20  2  0
 20 21  1  0
 21  8  1  0
 17 12  1  0
  1 22  1  0
  1 23  1  0
  1 24  1  0
  2 25  1  0
  2 26  1  0
  4 27  1  0
  4 28  1  0
  4 29  1  0
  5 30  1  0
  6 31  1  0
  6 32  1  0
  7 33  1  0
  7 34  1  0
  9 35  1  0
 13 36  1  0
 14 37  1  0
 15 38  1  0
 16 39  1  0
 19 40  1  0
 19 41  1  0
 19 42  1  0
 20 43  1  0
M  END
>  <UniqueID>  (73) 
70

>  <SMILES>  (73) 
CC[C@](C)(O)CCc1cc(Oc2ccccc2OC)cs1

>  <Energy>  (73) 
71.80283370796907

>  <Genealogy>  (73) 
CC[C@](C)(O)CCc1cc(Oc2ccccc2OC)cs1 (chirality)
CC[C@](C)(O)CCc1cc(Oc2ccccc2OC)cs1 (3D coordinates assigned)
CC[C@](C)(O)CCc1cc(Oc2ccccc2OC)cs1 (optimized conformer: 71.80283370796907 kcal/mol)

>  <smiles>  (73) 
CCC(C)(O)CCc1cc(Oc2ccccc2OC)cs1

>  <score_type>  (73) 
oracle

>  <origin>  (73) 
adg

>  <m_score__min__energy>  (73) 
-8.1199999999999992

>  <m_primary>  (73) 
energy

$$$$
73:0
     RDKit          3D

 33 35  0  0  0  0  0  0  0  0999 V2000
   58.6040   28.9480   47.4760 C   0  0  0  0  0  0  0  0  0  0  0  0
   58.6130   30.4030   47.3600 N   0  0  0  0  0  0  0  0  0  0  0  0
   59.0380   31.3070   48.2550 C   0  0  0  0  0  0  0  0  0  0  0  0
   58.8570   32.5670   47.7180 C   0  0  0  0  0  0  0  0  0  0  0  0
   59.1510   33.8870   48.2690 C   0  0  0  0  0  0  0  0  0  0  0  0
   60.2360   34.5770   47.8170 O   0  0  0  0  0  0  0  0  0  0  0  0
   61.5350   34.0860   47.8320 C   0  0  0  0  0  0  0  0  0  0  0  0
   62.2180   33.8000   46.6480 C   0  0  0  0  0  0  0  0  0  0  0  0
   63.5220   33.3080   46.7230 C   0  0  0  0  0  0  0  0  0  0  0  0
   64.1370   33.1030   47.9560 C   0  0  0  0  0  0  0  0  0  0  0  0
   63.4420   33.3930   49.1250 C   0  0  0  0  0  0  0  0  0  0  0  0
   62.1330   33.8870   49.0590 C   0  0  0  0  0  0  0  0  0  0  0  0
   58.3000   32.3720   46.4510 C   0  0  0  0  0  0  0  0  0  0  0  0
   57.9130   33.2900   45.4730 C   0  0  0  0  0  0  0  0  0  0  0  0
   58.0490   34.5560   45.6640 N   0  0  0  0  0  0  0  0  0  0  0  0
   57.3970   32.8040   44.3270 N   0  0  0  0  0  0  0  0  0  0  0  0
   57.2620   31.4730   44.1420 C   0  0  0  0  0  0  0  0  0  0  0  0
   57.6410   30.5760   45.1010 N   0  0  0  0  0  0  0  0  0  0  0  0
   58.1630   31.0320   46.2640 C   0  0  0  0  0  0  0  0  0  0  0  0
   58.6022   28.6649   48.5390 H   0  0  0  0  0  0  0  0  0  0  0  0
   57.7034   28.5468   46.9882 H   0  0  0  0  0  0  0  0  0  0  0  0
   59.4996   28.5357   46.9882 H   0  0  0  0  0  0  0  0  0  0  0  0
   59.4586   31.0835   49.2466 H   0  0  0  0  0  0  0  0  0  0  0  0
   58.2694   34.5167   48.0785 H   0  0  0  0  0  0  0  0  0  0  0  0
   59.3974   33.6786   49.3206 H   0  0  0  0  0  0  0  0  0  0  0  0
   61.7362   33.9599   45.6722 H   0  0  0  0  0  0  0  0  0  0  0  0
   64.0706   33.0794   45.7974 H   0  0  0  0  0  0  0  0  0  0  0  0
   65.1650   32.7145   48.0046 H   0  0  0  0  0  0  0  0  0  0  0  0
   63.9207   33.2343   50.1026 H   0  0  0  0  0  0  0  0  0  0  0  0
   61.5830   34.1158   49.9837 H   0  0  0  0  0  0  0  0  0  0  0  0
   58.8630   34.9460   46.1930 H   0  0  0  0  0  0  0  0  0  0  0  0
   57.1070   33.4880   43.5990 H   0  0  0  0  0  0  0  0  0  0  0  0
   56.8371   31.1023   43.1975 H   0  0  0  0  0  0  0  0  0  0  0  0
  1  2  1  0
  2  3  1  0
  3  4  2  0
  4  5  1  0
  5  6  1  0
  6  7  1  0
  7  8  2  0
  8  9  1  0
  9 10  2  0
 10 11  1  0
 11 12  2  0
  4 13  1  0
 13 14  1  0
 14 15  2  3
 14 16  1  0
 16 17  1  0
 17 18  2  0
 18 19  1  0
 19  2  1  0
 12  7  1  0
 19 13  2  0
  1 20  1  0
  1 21  1  0
  1 22  1  0
  3 23  1  0
  5 24  1  0
  5 25  1  0
  8 26  1  0
  9 27  1  0
 10 28  1  0
 11 29  1  0
 12 30  1  0
 15 31  1  0
 16 32  1  0
 17 33  1  0
M  END
>  <smiles>  (74) 
Cn1cc(COc2ccccc2)c2c(=N)[nH]cnc21

>  <score_type>  (74) 
oracle

>  <origin>  (74) 
adg

>  <m_score__min__energy>  (74) 
-6.6299999999999999

>  <m_primary>  (74) 
energy

$$$$
74:0
     RDKit          3D

 33 33  0  0  0  0  0  0  0  0999 V2000
   60.6110   26.9120   48.1880 C   0  0  0  0  0  0  0  0  0  0  0  0
   60.4770   28.3470   48.6860 C   0  0  0  0  0  0  0  0  0  0  0  0
   59.5320   29.0900   47.8480 C   0  0  0  0  0  0  0  0  0  0  0  0
   58.7530   29.7120   47.1710 C   0  0  0  0  0  0  0  0  0  0  0  0
   57.7980   30.4840   46.3630 C   0  0  1  0  0  0  0  0  0  0  0  0
   58.3270   31.8470   45.9570 C   0  0  0  0  0  0  0  0  0  0  0  0
   57.5670   32.7590   45.1930 C   0  0  0  0  0  0  0  0  0  0  0  0
   58.0810   34.0210   44.8750 C   0  0  0  0  0  0  0  0  0  0  0  0
   59.3530   34.3910   45.3170 C   0  0  0  0  0  0  0  0  0  0  0  0
   60.1130   33.5010   46.0770 C   0  0  0  0  0  0  0  0  0  0  0  0
   59.6050   32.2390   46.3970 C   0  0  0  0  0  0  0  0  0  0  0  0
   57.2840   29.5240   44.9320 S   0  0  0  0  0  0  0  0  0  0  0  0
   57.7720   30.1860   43.6740 O   0  0  0  0  0  0  0  0  0  0  0  0
   55.7810   29.5020   44.9050 O   0  0  0  0  0  0  0  0  0  0  0  0
   57.8520   27.8250   44.9660 C   0  0  0  0  0  0  0  0  0  0  0  0
   57.1240   27.0080   45.9890 C   0  0  0  0  0  0  0  0  0  0  0  0
   55.6980   26.9350   45.9840 N   0  0  0  0  0  0  0  0  0  0  0  0
   57.7750   26.3960   46.8770 O   0  0  0  0  0  0  0  0  0  0  0  0
   60.6747   26.2297   49.0485 H   0  0  0  0  0  0  0  0  0  0  0  0
   59.7332   26.6521   47.5781 H   0  0  0  0  0  0  0  0  0  0  0  0
   61.5217   26.8191   47.5781 H   0  0  0  0  0  0  0  0  0  0  0  0
   60.1126   28.3384   49.7238 H   0  0  0  0  0  0  0  0  0  0  0  0
   61.4609   28.8364   48.6361 H   0  0  0  0  0  0  0  0  0  0  0  0
   56.9203   30.6821   46.9958 H   0  0  0  0  0  0  0  0  0  0  0  0
   56.5628   32.4753   44.8449 H   0  0  0  0  0  0  0  0  0  0  0  0
   57.4822   34.7228   44.2759 H   0  0  0  0  0  0  0  0  0  0  0  0
   59.7556   35.3835   45.0662 H   0  0  0  0  0  0  0  0  0  0  0  0
   61.1146   33.7935   46.4251 H   0  0  0  0  0  0  0  0  0  0  0  0
   60.2102   31.5451   46.9989 H   0  0  0  0  0  0  0  0  0  0  0  0
   57.6909   27.3772   43.9743 H   0  0  0  0  0  0  0  0  0  0  0  0
   58.9191   27.8298   45.2331 H   0  0  0  0  0  0  0  0  0  0  0  0
   55.1360   27.4860   45.2970 H   0  0  0  0  0  0  0  0  0  0  0  0
   55.2000   26.3410   46.6830 H   0  0  0  0  0  0  0  0  0  0  0  0
  1  2  1  0
  2  3  1  0
  3  4  3  0
  4  5  1  0
  5  6  1  0
  6  7  2  0
  7  8  1  0
  8  9  2  0
  9 10  1  0
 10 11  2  0
  5 12  1  0
 12 13  2  0
 12 14  2  0
 12 15  1  0
 15 16  1  0
 16 17  1  0
 16 18  2  0
 11  6  1  0
  1 19  1  0
  1 20  1  0
  1 21  1  0
  2 22  1  0
  2 23  1  0
  5 24  1  1
  7 25  1  0
  8 26  1  0
  9 27  1  0
 10 28  1  0
 11 29  1  0
 15 30  1  0
 15 31  1  0
 17 32  1  0
 17 33  1  0
M  END
>  <UniqueID>  (75) 
71

>  <SMILES>  (75) 
CCC#C[C@@H](c1ccccc1)S(=O)(=O)CC(N)=O

>  <Energy>  (75) 
14.658963456556402

>  <Genealogy>  (75) 
CCC#C[C@@H](c1ccccc1)S(=O)(=O)CC(N)=O (chirality)
CCC#C[C@@H](c1ccccc1)S(=O)(=O)CC(N)=O (3D coordinates assigned)
CCC#C[C@@H](c1ccccc1)S(=O)(=O)CC(N)=O (optimized conformer: 14.658963456556402 kcal/mol)

>  <smiles>  (75) 
CCC#CC(c1ccccc1)S(=O)(=O)CC(N)=O

>  <score_type>  (75) 
oracle

>  <origin>  (75) 
adg

>  <m_score__min__energy>  (75) 
-6.5199999999999996

>  <m_primary>  (75) 
energy

$$$$
75:0
     RDKit          3D

 62 67  0  0  0  0  0  0  0  0999 V2000
   60.1750   28.6580   53.5930 C   0  0  0  0  0  0  0  0  0  0  0  0
   60.7030   29.4320   52.5230 O   0  0  0  0  0  0  0  0  0  0  0  0
   60.3260   29.2930   51.1770 C   0  0  0  0  0  0  0  0  0  0  0  0
   61.0270   28.4540   50.2930 C   0  0  0  0  0  0  0  0  0  0  0  0
   60.6570   28.3680   48.9500 C   0  0  0  0  0  0  0  0  0  0  0  0
   59.5780   29.1180   48.4520 C   0  0  0  0  0  0  0  0  0  0  0  0
   59.2410   29.0170   46.9630 C   0  0  2  0  0  0  0  0  0  0  0  0
   58.0620   29.8630   46.4620 C   0  0  1  0  0  0  0  0  0  0  0  0
   58.2120   31.3620   46.3170 C   0  0  0  0  0  0  0  0  0  0  0  0
   58.9780   32.1420   47.2020 C   0  0  0  0  0  0  0  0  0  0  0  0
   58.9860   33.5350   47.0840 C   0  0  0  0  0  0  0  0  0  0  0  0
   59.9600   34.4990   48.1770 Cl  0  0  0  0  0  0  0  0  0  0  0  0
   58.2170   34.1610   46.0990 C   0  0  0  0  0  0  0  0  0  0  0  0
   57.4340   33.3980   45.2270 C   0  0  0  0  0  0  0  0  0  0  0  0
   57.4210   32.0030   45.3320 C   0  0  0  0  0  0  0  0  0  0  0  0
   56.6410   31.2470   44.4310 O   0  0  0  0  0  0  0  0  0  0  0  0
   56.5400   29.8180   44.4970 C   0  0  0  0  0  0  0  0  0  0  0  0
   57.8370   29.2560   45.0960 C   0  0  2  0  0  0  0  0  0  0  0  0
   58.0050   27.7510   45.3450 C   0  0  2  0  0  0  0  0  0  0  0  0
   56.6630   27.0260   45.6210 C   0  0  0  0  0  0  0  0  0  0  0  0
   56.8900   25.5520   45.9950 C   0  0  0  0  0  0  0  0  0  0  0  0
   58.1400   25.3430   46.8680 C   0  0  0  0  0  0  0  0  0  0  0  0
   58.6020   26.6530   47.5090 C   0  0  0  0  0  0  0  0  0  0  0  0
   58.9860   27.6350   46.4670 N   0  0  0  0  0  0  0  0  0  0  0  0
   58.8470   29.9210   49.3480 C   0  0  0  0  0  0  0  0  0  0  0  0
   59.2190   30.0200   50.6970 C   0  0  0  0  0  0  0  0  0  0  0  0
   58.4990   31.0030   51.5840 C   0  0  0  0  0  0  0  0  0  0  0  0
   57.1310   30.5450   51.8120 N   0  0  0  0  0  0  0  0  0  0  0  0
   56.0140   31.2810   51.6460 C   0  0  0  0  0  0  0  0  0  0  0  0
   54.9490   30.5000   52.0350 C   0  0  0  0  0  0  0  0  0  0  0  0
   53.5660   30.8690   52.0350 N   0  0  0  0  0  0  0  0  0  0  0  0
   52.8970   30.8200   53.0880 O   0  0  0  0  0  0  0  0  0  0  0  0
   52.9600   31.2810   50.8690 O   0  0  0  0  0  0  0  0  0  0  0  0
   55.4860   29.2940   52.4380 C   0  0  0  0  0  0  0  0  0  0  0  0
   56.8260   29.3490   52.2980 N   0  0  0  0  0  0  0  0  0  0  0  0
   60.4786   29.1030   54.5521 H   0  0  0  0  0  0  0  0  0  0  0  0
   59.0771   28.6423   53.5272 H   0  0  0  0  0  0  0  0  0  0  0  0
   60.5610   27.6300   53.5272 H   0  0  0  0  0  0  0  0  0  0  0  0
   61.8752   27.8596   50.6634 H   0  0  0  0  0  0  0  0  0  0  0  0
   61.2166   27.7054   48.2734 H   0  0  0  0  0  0  0  0  0  0  0  0
   60.1784   29.4216   46.5535 H   0  0  0  0  0  0  0  0  0  0  0  0
   57.2600   29.8208   47.2136 H   0  0  0  0  0  0  0  0  0  0  0  0
   59.5723   31.6547   47.9890 H   0  0  0  0  0  0  0  0  0  0  0  0
   58.2277   35.2573   46.0094 H   0  0  0  0  0  0  0  0  0  0  0  0
   56.8268   33.8959   44.4567 H   0  0  0  0  0  0  0  0  0  0  0  0
   55.6874   29.5369   45.1326 H   0  0  0  0  0  0  0  0  0  0  0  0
   56.3866   29.4078   43.4879 H   0  0  0  0  0  0  0  0  0  0  0  0
   58.5384   29.5108   44.2879 H   0  0  0  0  0  0  0  0  0  0  0  0
   58.3794   27.2401   44.4456 H   0  0  0  0  0  0  0  0  0  0  0  0
   56.1473   27.5308   46.4512 H   0  0  0  0  0  0  0  0  0  0  0  0
   56.0547   27.0617   44.7052 H   0  0  0  0  0  0  0  0  0  0  0  0
   56.0107   25.1905   46.5483 H   0  0  0  0  0  0  0  0  0  0  0  0
   57.0424   24.9931   45.0599 H   0  0  0  0  0  0  0  0  0  0  0  0
   57.9041   24.6200   47.6627 H   0  0  0  0  0  0  0  0  0  0  0  0
   58.9507   24.9685   46.2257 H   0  0  0  0  0  0  0  0  0  0  0  0
   57.7824   27.0688   48.1135 H   0  0  0  0  0  0  0  0  0  0  0  0
   59.4765   26.4487   48.1442 H   0  0  0  0  0  0  0  0  0  0  0  0
   57.9713   30.4790   48.9850 H   0  0  0  0  0  0  0  0  0  0  0  0
   59.0246   31.0804   52.5472 H   0  0  0  0  0  0  0  0  0  0  0  0
   58.4782   31.9887   51.0961 H   0  0  0  0  0  0  0  0  0  0  0  0
   55.9629   32.3134   51.2698 H   0  0  0  0  0  0  0  0  0  0  0  0
   54.9153   28.4310   52.8115 H   0  0  0  0  0  0  0  0  0  0  0  0
  1  2  1  0
  2  3  1  0
  3  4  2  0
  4  5  1  0
  5  6  2  0
  6  7  1  0
  7  8  1  0
  8  9  1  0
  9 10  2  0
 10 11  1  0
 11 12  1  0
 11 13  2  0
 13 14  1  0
 14 15  2  0
 15 16  1  0
 16 17  1  0
 17 18  1  0
 18 19  1  0
 19 20  1  0
 20 21  1  0
 21 22  1  0
 22 23  1  0
 23 24  1  0
  6 25  1  0
 25 26  2  0
 26 27  1  0
 27 28  1  0
 28 29  1  0
 29 30  2  0
 30 31  1  0
 31 32  2  0
 31 33  1  0
 30 34  1  0
 34 35  2  0
 26  3  1  0
 35 28  1  0
 24  7  1  0
 18  8  1  0
 24 19  1  0
 15  9  1  0
  1 36  1  0
  1 37  1  0
  1 38  1  0
  4 39  1  0
  5 40  1  0
  7 41  1  6
  8 42  1  1
 10 43  1  0
 13 44  1  0
 14 45  1  0
 17 46  1  0
 17 47  1  0
 18 48  1  6
 19 49  1  6
 20 50  1  0
 20 51  1  0
 21 52  1  0
 21 53  1  0
 22 54  1  0
 22 55  1  0
 23 56  1  0
 23 57  1  0
 25 58  1  0
 27 59  1  0
 27 60  1  0
 29 61  1  0
 34 62  1  0
M  CHG  2  31   1  33  -1
M  END
>  <UniqueID>  (76) 
72

>  <SMILES>  (76) 
COc1ccc([C@@H]2[C@H]3c4cc(Cl)ccc4OCC3C3CCCCN32)cc1Cn1cc([N+](=O)[O-])cn1

>  <Energy>  (76) 
124.04167758818915

>  <Genealogy>  (76) 
COc1ccc([C@@H]2[C@H]3c4cc(Cl)ccc4OCC3C3CCCCN32)cc1Cn1cc([N+](=O)[O-])cn1 (chirality)
COc1ccc([C@@H]2[C@H]3c4cc(Cl)ccc4OCC3C3CCCCN32)cc1Cn1cc([N+](=O)[O-])cn1 (3D coordinates assigned)
COc1ccc([C@@H]2[C@H]3c4cc(Cl)ccc4OCC3C3CCCCN32)cc1Cn1cc([N+](=O)[O-])cn1 (nonaromatic ring conformer: 124.04167758818915 kcal/mol)

>  <smiles>  (76) 
COc1ccc(C2C3c4cc(Cl)ccc4OCC3C3CCCCN32)cc1Cn1cc([N+](=O)[O-])cn1

>  <score_type>  (76) 
oracle

>  <origin>  (76) 
adg

>  <m_score__min__energy>  (76) 
-10.48

>  <m_primary>  (76) 
energy

$$$$
76:0
     RDKit          3D

 65 68  0  0  0  0  0  0  0  0999 V2000
   60.6340   28.6810   50.6170 C   0  0  0  0  0  0  0  0  0  0  0  0
   59.6210   28.6770   49.4710 C   0  0  1  0  0  0  0  0  0  0  0  0
   59.2930   30.0410   49.0550 N   0  0  0  0  0  0  0  0  0  0  0  0
   58.9150   31.1330   49.9030 C   0  0  0  0  0  0  0  0  0  0  0  0
   59.3970   32.2840   49.7340 O   0  0  0  0  0  0  0  0  0  0  0  0
   57.9770   30.9060   51.0070 C   0  0  0  0  0  0  0  0  0  0  0  0
   57.3630   31.8840   51.7680 C   0  0  0  0  0  0  0  0  0  0  0  0
   56.5480   31.2080   52.6500 C   0  0  0  0  0  0  0  0  0  0  0  0
   56.7140   29.8660   52.3730 C   0  0  0  0  0  0  0  0  0  0  0  0
   57.5740   29.7180   51.3900 O   0  0  0  0  0  0  0  0  0  0  0  0
   60.1010   27.8430   48.3030 C   0  0  0  0  0  0  0  0  0  0  0  0
   61.1420   27.1420   48.4250 O   0  0  0  0  0  0  0  0  0  0  0  0
   59.4040   27.8510   47.0460 N   0  0  0  0  0  0  0  0  0  0  0  0
   60.1960   27.7760   45.8100 C   0  0  0  0  0  0  0  0  0  0  0  0
   59.2940   27.5940   44.5880 C   0  0  0  0  0  0  0  0  0  0  0  0
   58.1540   28.5260   44.6900 N   0  0  0  0  0  0  0  0  0  0  0  0
   57.3910   28.5960   43.4230 C   0  0  0  0  0  0  0  0  0  0  0  0
   56.8560   30.0120   43.1670 C   0  0  0  0  0  0  0  0  0  0  0  0
   56.1420   30.5920   44.3960 C   0  0  0  0  0  0  0  0  0  0  0  0
   56.7260   31.8450   44.7590 O   0  0  0  0  0  0  0  0  0  0  0  0
   57.9210   31.9890   45.4850 C   0  0  0  0  0  0  0  0  0  0  0  0
   58.8380   30.9340   45.6500 C   0  0  0  0  0  0  0  0  0  0  0  0
   60.0180   31.1300   46.3680 C   0  0  0  0  0  0  0  0  0  0  0  0
   60.3120   32.3830   46.9280 C   0  0  0  0  0  0  0  0  0  0  0  0
   61.5860   32.5770   47.6550 C   0  0  0  0  0  0  0  0  0  0  0  0
   62.5530   33.4730   47.1710 C   0  0  0  0  0  0  0  0  0  0  0  0
   63.7670   33.6060   47.8450 C   0  0  0  0  0  0  0  0  0  0  0  0
   64.0160   32.8450   48.9890 C   0  0  0  0  0  0  0  0  0  0  0  0
   65.2650   32.9720   49.6920 C   0  0  0  0  0  0  0  0  0  0  0  0
   66.2700   33.0730   50.2560 N   0  0  0  0  0  0  0  0  0  0  0  0
   63.0360   31.9560   49.4400 C   0  0  0  0  0  0  0  0  0  0  0  0
   61.8560   31.8400   48.7730 N   0  0  0  0  0  0  0  0  0  0  0  0
   59.3920   33.4350   46.7690 C   0  0  0  0  0  0  0  0  0  0  0  0
   59.6270   34.6500   47.3220 F   0  0  0  0  0  0  0  0  0  0  0  0
   58.2040   33.2300   46.0600 C   0  0  0  0  0  0  0  0  0  0  0  0
   57.2590   28.1670   45.8180 C   0  0  0  0  0  0  0  0  0  0  0  0
   57.9850   27.4810   46.9980 C   0  0  0  0  0  0  0  0  0  0  0  0
   60.0998   28.6789   51.5786 H   0  0  0  0  0  0  0  0  0  0  0  0
   61.2689   27.7854   50.5483 H   0  0  0  0  0  0  0  0  0  0  0  0
   61.2618   29.5816   50.5483 H   0  0  0  0  0  0  0  0  0  0  0  0
   58.6989   28.2086   49.8456 H   0  0  0  0  0  0  0  0  0  0  0  0
   57.4970   32.9728   51.6864 H   0  0  0  0  0  0  0  0  0  0  0  0
   55.8968   31.6488   53.4192 H   0  0  0  0  0  0  0  0  0  0  0  0
   56.2034   29.0440   52.8962 H   0  0  0  0  0  0  0  0  0  0  0  0
   60.7724   28.7059   45.6957 H   0  0  0  0  0  0  0  0  0  0  0  0
   60.8699   26.9093   45.8790 H   0  0  0  0  0  0  0  0  0  0  0  0
   59.8651   27.8085   43.6727 H   0  0  0  0  0  0  0  0  0  0  0  0
   58.9254   26.5584   44.5488 H   0  0  0  0  0  0  0  0  0  0  0  0
   58.0510   28.3074   42.5917 H   0  0  0  0  0  0  0  0  0  0  0  0
   56.5336   27.9109   43.4977 H   0  0  0  0  0  0  0  0  0  0  0  0
   57.6995   30.6676   42.9049 H   0  0  0  0  0  0  0  0  0  0  0  0
   56.1249   29.9541   42.3472 H   0  0  0  0  0  0  0  0  0  0  0  0
   55.0777   30.7413   44.1614 H   0  0  0  0  0  0  0  0  0  0  0  0
   56.2458   29.8901   45.2366 H   0  0  0  0  0  0  0  0  0  0  0  0
   58.6229   29.9490   45.2102 H   0  0  0  0  0  0  0  0  0  0  0  0
   60.7236   30.2959   46.4963 H   0  0  0  0  0  0  0  0  0  0  0  0
   62.3544   34.0662   46.2662 H   0  0  0  0  0  0  0  0  0  0  0  0
   64.5275   34.3097   47.4757 H   0  0  0  0  0  0  0  0  0  0  0  0
   63.2197   31.3477   50.3379 H   0  0  0  0  0  0  0  0  0  0  0  0
   61.1380   31.1830   49.1490 H   0  0  0  0  0  0  0  0  0  0  0  0
   57.4845   34.0553   45.9540 H   0  0  0  0  0  0  0  0  0  0  0  0
   56.7848   29.0870   46.1905 H   0  0  0  0  0  0  0  0  0  0  0  0
   56.5276   27.4436   45.4283 H   0  0  0  0  0  0  0  0  0  0  0  0
   57.5042   27.7861   47.9392 H   0  0  0  0  0  0  0  0  0  0  0  0
   57.9173   26.3920   46.8581 H   0  0  0  0  0  0  0  0  0  0  0  0
  1  2  1  0
  2  3  1  0
  3  4  1  0
  4  5  2  0
  4  6  1  0
  6  7  2  0
  7  8  1  0
  8  9  2  0
  9 10  1  0
  2 11  1  0
 11 12  2  0
 11 13  1  0
 13 14  1  0
 14 15  1  0
 15 16  1  0
 16 17  1  0
 17 18  1  0
 18 19  1  0
 19 20  1  0
 20 21  1  0
 21 22  2  0
 22 23  1  0
 23 24  2  0
 24 25  1  0
 25 26  2  0
 26 27  1  0
 27 28  2  0
 28 29  1  0
 29 30  3  0
 28 31  1  0
 31 32  2  0
 24 33  1  0
 33 34  1  0
 33 35  2  0
 16 36  1  0
 36 37  1  0
 10  6  1  0
 37 13  1  0
 35 21  1  0
 32 25  1  0
  1 38  1  0
  1 39  1  0
  1 40  1  0
  2 41  1  1
  7 42  1  0
  8 43  1  0
  9 44  1  0
 14 45  1  0
 14 46  1  0
 15 47  1  0
 15 48  1  0
 17 49  1  0
 17 50  1  0
 18 51  1  0
 18 52  1  0
 19 53  1  0
 19 54  1  0
 22 55  1  0
 23 56  1  0
 26 57  1  0
 27 58  1  0
 31 59  1  0
 32 60  1  0
 35 61  1  0
 36 62  1  0
 36 63  1  0
 37 64  1  0
 37 65  1  0
M  CHG  2   3  -1  32   1
M  END
>  <UniqueID>  (77) 
73

>  <SMILES>  (77) 
C[C@@H]([N-]C(=O)c1ccco1)C(=O)N1CCN(CCCOc2ccc(-c3ccc(C#N)c[nH+]3)c(F)c2)CC1

>  <Energy>  (77) 
103.31993696671121

>  <Genealogy>  (77) 
CC([N-]C(=O)c1ccco1)C(=O)N1CCN(CCCOc2ccc(-c3ccc(C#N)c[nH+]3)c(F)c2)CC1 (protonated)
C[C@@H]([N-]C(=O)c1ccco1)C(=O)N1CCN(CCCOc2ccc(-c3ccc(C#N)c[nH+]3)c(F)c2)CC1 (chirality)
C[C@@H]([N-]C(=O)c1ccco1)C(=O)N1CCN(CCCOc2ccc(-c3ccc(C#N)c[nH+]3)c(F)c2)CC1 (3D coordinates assigned)
C[C@@H]([N-]C(=O)c1ccco1)C(=O)N1CCN(CCCOc2ccc(-c3ccc(C#N)c[nH+]3)c(F)c2)CC1 (nonaromatic ring conformer: 103.31993696671121 kcal/mol)

>  <smiles>  (77) 
CC(NC(=O)c1ccco1)C(=O)N1CCN(CCCOc2ccc(-c3ccc(C#N)cn3)c(F)c2)CC1

>  <score_type>  (77) 
oracle

>  <origin>  (77) 
adg

>  <m_score__min__energy>  (77) 
-10.140000000000001

>  <m_primary>  (77) 
energy

$$$$
77:0
     RDKit          3D

 32 33  0  0  0  0  0  0  0  0999 V2000
   54.9860   26.3950   46.0010 O   0  0  0  0  0  0  0  0  0  0  0  0
   55.5160   25.1400   45.6720 C   0  0  0  0  0  0  0  0  0  0  0  0
   56.9830   25.2550   45.2200 C   0  0  0  0  0  0  0  0  0  0  0  0
   57.5180   26.6250   45.3360 N   0  0  0  0  0  0  0  0  0  0  0  0
   57.8220   27.2240   44.0260 C   0  0  0  0  0  0  0  0  0  0  0  0
   57.7680   28.7200   44.1100 C   0  0  0  0  0  0  0  0  0  0  0  0
   56.8050   29.5330   43.5290 C   0  0  0  0  0  0  0  0  0  0  0  0
   56.9590   30.8880   43.8450 C   0  0  0  0  0  0  0  0  0  0  0  0
   58.0390   31.1490   44.6910 C   0  0  0  0  0  0  0  0  0  0  0  0
   58.4600   32.4750   45.2160 C   0  0  0  0  0  0  0  0  0  0  0  0
   58.6830   32.6550   46.5950 C   0  0  0  0  0  0  0  0  0  0  0  0
   59.0790   33.8990   47.0950 C   0  0  0  0  0  0  0  0  0  0  0  0
   59.2610   34.9780   46.2270 C   0  0  0  0  0  0  0  0  0  0  0  0
   59.6470   36.1830   46.7140 F   0  0  0  0  0  0  0  0  0  0  0  0
   59.0490   34.8130   44.8570 C   0  0  0  0  0  0  0  0  0  0  0  0
   58.6520   33.5710   44.3520 C   0  0  0  0  0  0  0  0  0  0  0  0
   58.7870   29.6760   45.0400 S   0  0  0  0  0  0  0  0  0  0  0  0
   54.0780   26.2340   46.3700 H   0  0  0  0  0  0  0  0  0  0  0  0
   55.4630   24.4858   46.5547 H   0  0  0  0  0  0  0  0  0  0  0  0
   54.9282   24.7209   44.8420 H   0  0  0  0  0  0  0  0  0  0  0  0
   57.5949   24.5862   45.8431 H   0  0  0  0  0  0  0  0  0  0  0  0
   57.0216   24.9765   44.1566 H   0  0  0  0  0  0  0  0  0  0  0  0
   58.3770   26.6240   45.9350 H   0  0  0  0  0  0  0  0  0  0  0  0
   56.7910   27.2090   45.8120 H   0  0  0  0  0  0  0  0  0  0  0  0
   58.8296   26.9148   43.7112 H   0  0  0  0  0  0  0  0  0  0  0  0
   57.0754   26.8806   43.2948 H   0  0  0  0  0  0  0  0  0  0  0  0
   56.0003   29.1505   42.8840 H   0  0  0  0  0  0  0  0  0  0  0  0
   56.2914   31.6741   43.4625 H   0  0  0  0  0  0  0  0  0  0  0  0
   58.5443   31.8093   47.2846 H   0  0  0  0  0  0  0  0  0  0  0  0
   59.2476   34.0283   48.1743 H   0  0  0  0  0  0  0  0  0  0  0  0
   59.1946   35.6622   44.1731 H   0  0  0  0  0  0  0  0  0  0  0  0
   58.4883   33.4487   43.2712 H   0  0  0  0  0  0  0  0  0  0  0  0
  1  2  1  0
  2  3  1  0
  3  4  1  0
  4  5  1  0
  5  6  1  0
  6  7  2  0
  7  8  1  0
  8  9  2  0
  9 10  1  0
 10 11  2  0
 11 12  1  0
 12 13  2  0
 13 14  1  0
 13 15  1  0
 15 16  2  0
  9 17  1  0
 17  6  1  0
 16 10  1  0
  1 18  1  0
  2 19  1  0
  2 20  1  0
  3 21  1  0
  3 22  1  0
  4 23  1  0
  4 24  1  0
  5 25  1  0
  5 26  1  0
  7 27  1  0
  8 28  1  0
 11 29  1  0
 12 30  1  0
 15 31  1  0
 16 32  1  0
M  CHG  1   4   1
M  END
>  <UniqueID>  (78) 
74

>  <SMILES>  (78) 
OCC[NH2+]Cc1ccc(-c2ccc(F)cc2)s1

>  <Energy>  (78) 
58.87458398028852

>  <Genealogy>  (78) 
OCC[NH2+]Cc1ccc(-c2ccc(F)cc2)s1 (protonated)
OCC[NH2+]Cc1ccc(-c2ccc(F)cc2)s1 (3D coordinates assigned)
OCC[NH2+]Cc1ccc(-c2ccc(F)cc2)s1 (optimized conformer: 58.87458398028852 kcal/mol)

>  <smiles>  (78) 
OCCNCc1ccc(-c2ccc(F)cc2)s1

>  <score_type>  (78) 
oracle

>  <origin>  (78) 
adg

>  <m_score__min__energy>  (78) 
-5.4100000000000001

>  <m_primary>  (78) 
energy

$$$$
78:0
     RDKit          3D

 29 31  0  0  0  0  0  0  0  0999 V2000
   55.8060   29.8120   43.2670 C   0  0  0  0  0  0  0  0  0  0  0  0
   55.7030   29.6860   44.6810 O   0  0  0  0  0  0  0  0  0  0  0  0
   56.7270   29.2080   45.5130 C   0  0  0  0  0  0  0  0  0  0  0  0
   57.8270   30.0040   45.8890 C   0  0  0  0  0  0  0  0  0  0  0  0
   58.8380   29.4900   46.7220 C   0  0  0  0  0  0  0  0  0  0  0  0
   59.9930   30.3380   47.1110 C   0  0  0  0  0  0  0  0  0  0  0  0
   60.2670   31.5570   46.5730 N   0  0  0  0  0  0  0  0  0  0  0  0
   61.3830   32.1140   47.1120 C   0  0  0  0  0  0  0  0  0  0  0  0
   61.9040   33.3610   46.7570 C   0  0  0  0  0  0  0  0  0  0  0  0
   63.0670   33.8150   47.4010 C   0  0  0  0  0  0  0  0  0  0  0  0
   63.6920   33.0240   48.3880 C   0  0  0  0  0  0  0  0  0  0  0  0
   63.1600   31.7740   48.7370 C   0  0  0  0  0  0  0  0  0  0  0  0
   62.0070   31.3480   48.0820 C   0  0  0  0  0  0  0  0  0  0  0  0
   61.1460   29.9220   48.2900 S   0  0  0  0  0  0  0  0  0  0  0  0
   58.7300   28.1670   47.1840 C   0  0  0  0  0  0  0  0  0  0  0  0
   57.6400   27.3760   46.8150 C   0  0  0  0  0  0  0  0  0  0  0  0
   56.6450   27.8910   45.9840 C   0  0  0  0  0  0  0  0  0  0  0  0
   55.5660   27.0900   45.6250 O   0  0  0  0  0  0  0  0  0  0  0  0
   56.4846   30.6421   43.0213 H   0  0  0  0  0  0  0  0  0  0  0  0
   56.2019   28.8772   42.8434 H   0  0  0  0  0  0  0  0  0  0  0  0
   54.8111   30.0141   42.8434 H   0  0  0  0  0  0  0  0  0  0  0  0
   57.8964   31.0404   45.5268 H   0  0  0  0  0  0  0  0  0  0  0  0
   59.6850   32.0330   45.8480 H   0  0  0  0  0  0  0  0  0  0  0  0
   61.4129   33.9754   45.9880 H   0  0  0  0  0  0  0  0  0  0  0  0
   63.4931   34.7934   47.1341 H   0  0  0  0  0  0  0  0  0  0  0  0
   64.6017   33.3897   48.8867 H   0  0  0  0  0  0  0  0  0  0  0  0
   63.6390   31.1489   49.5050 H   0  0  0  0  0  0  0  0  0  0  0  0
   59.5091   27.7520   47.8404 H   0  0  0  0  0  0  0  0  0  0  0  0
   57.5656   26.3415   47.1815 H   0  0  0  0  0  0  0  0  0  0  0  0
  1  2  1  0
  2  3  1  0
  3  4  2  0
  4  5  1  0
  5  6  1  0
  6  7  2  0
  7  8  1  0
  8  9  2  0
  9 10  1  0
 10 11  2  0
 11 12  1  0
 12 13  2  0
 13 14  1  0
  5 15  2  0
 15 16  1  0
 16 17  2  0
 17 18  1  0
 17  3  1  0
 14  6  1  0
 13  8  1  0
  1 19  1  0
  1 20  1  0
  1 21  1  0
  4 22  1  0
  7 23  1  0
  9 24  1  0
 10 25  1  0
 11 26  1  0
 12 27  1  0
 15 28  1  0
 16 29  1  0
M  CHG  2   7   1  18  -1
M  END
>  <UniqueID>  (79) 
75

>  <SMILES>  (79) 
COc1cc(-c2[nH+]c3ccccc3s2)ccc1[O-]

>  <Energy>  (79) 
68.05202827225868

>  <Genealogy>  (79) 
COc1cc(-c2[nH+]c3ccccc3s2)ccc1[O-] (protonated)
COc1cc(-c2[nH+]c3ccccc3s2)ccc1[O-] (3D coordinates assigned)
COc1cc(-c2[nH+]c3ccccc3s2)ccc1[O-] (optimized conformer: 68.05202827225868 kcal/mol)

>  <smiles>  (79) 
COc1cc(-c2nc3ccccc3s2)ccc1O

>  <score_type>  (79) 
oracle

>  <origin>  (79) 
adg

>  <m_score__min__energy>  (79) 
-8.0399999999999991

>  <m_primary>  (79) 
energy

$$$$
79:0
     RDKit          3D

 39 42  0  0  0  0  0  0  0  0999 V2000
   67.3850   31.5720   51.0360 C   0  0  0  0  0  0  0  0  0  0  0  0
   67.5990   32.9530   51.0230 C   0  0  0  0  0  0  0  0  0  0  0  0
   66.5210   33.8280   50.8580 C   0  0  0  0  0  0  0  0  0  0  0  0
   65.2180   33.3220   50.6920 C   0  0  0  0  0  0  0  0  0  0  0  0
   64.1070   34.1650   50.5410 O   0  0  0  0  0  0  0  0  0  0  0  0
   63.0930   34.0100   49.5840 C   0  0  0  0  0  0  0  0  0  0  0  0
   61.7640   33.9700   50.0130 C   0  0  0  0  0  0  0  0  0  0  0  0
   60.7260   33.8020   49.0920 C   0  0  0  0  0  0  0  0  0  0  0  0
   61.0000   33.6600   47.7200 C   0  0  0  0  0  0  0  0  0  0  0  0
   59.9180   33.4880   46.7810 N   0  0  0  0  0  0  0  0  0  0  0  0
   59.5370   32.3560   46.1500 C   0  0  0  0  0  0  0  0  0  0  0  0
   58.4640   32.6900   45.3490 C   0  0  0  0  0  0  0  0  0  0  0  0
   57.7120   31.7760   44.4630 C   0  0  0  0  0  0  0  0  0  0  0  0
   57.7530   31.9010   43.0640 C   0  0  0  0  0  0  0  0  0  0  0  0
   57.0250   31.0100   42.2730 C   0  0  0  0  0  0  0  0  0  0  0  0
   56.2630   30.0060   42.8740 C   0  0  0  0  0  0  0  0  0  0  0  0
   56.2430   29.9080   44.2660 C   0  0  0  0  0  0  0  0  0  0  0  0
   56.9590   30.7850   45.0200 N   0  0  0  0  0  0  0  0  0  0  0  0
   58.2290   34.0080   45.5200 N   0  0  0  0  0  0  0  0  0  0  0  0
   59.1180   34.4680   46.3850 N   0  0  0  0  0  0  0  0  0  0  0  0
   62.3430   33.6760   47.2950 C   0  0  0  0  0  0  0  0  0  0  0  0
   63.3790   33.8450   48.2190 C   0  0  0  0  0  0  0  0  0  0  0  0
   65.0110   31.9370   50.7280 C   0  0  0  0  0  0  0  0  0  0  0  0
   66.0920   31.0640   50.8930 C   0  0  0  0  0  0  0  0  0  0  0  0
   68.2352   30.8850   51.1589 H   0  0  0  0  0  0  0  0  0  0  0  0
   68.6170   33.3522   51.1427 H   0  0  0  0  0  0  0  0  0  0  0  0
   66.6916   34.9147   50.8579 H   0  0  0  0  0  0  0  0  0  0  0  0
   61.5327   34.0715   51.0836 H   0  0  0  0  0  0  0  0  0  0  0  0
   59.6841   33.7806   49.4440 H   0  0  0  0  0  0  0  0  0  0  0  0
   59.9936   31.3607   46.2544 H   0  0  0  0  0  0  0  0  0  0  0  0
   58.3539   32.6945   42.5957 H   0  0  0  0  0  0  0  0  0  0  0  0
   57.0517   31.0989   41.1769 H   0  0  0  0  0  0  0  0  0  0  0  0
   55.6856   29.3010   42.2579 H   0  0  0  0  0  0  0  0  0  0  0  0
   55.6482   29.1215   44.7535 H   0  0  0  0  0  0  0  0  0  0  0  0
   57.4960   34.5940   45.0690 H   0  0  0  0  0  0  0  0  0  0  0  0
   62.5787   33.5545   46.2274 H   0  0  0  0  0  0  0  0  0  0  0  0
   64.4237   33.8487   47.8747 H   0  0  0  0  0  0  0  0  0  0  0  0
   63.9928   31.5334   50.6260 H   0  0  0  0  0  0  0  0  0  0  0  0
   65.9233   29.9771   50.9101 H   0  0  0  0  0  0  0  0  0  0  0  0
  1  2  2  0
  2  3  1  0
  3  4  2  0
  4  5  1  0
  5  6  1  0
  6  7  2  0
  7  8  1  0
  8  9  2  0
  9 10  1  0
 10 11  1  0
 11 12  2  0
 12 13  1  0
 13 14  2  0
 14 15  1  0
 15 16  2  0
 16 17  1  0
 17 18  2  0
 12 19  1  0
 19 20  2  0
  9 21  1  0
 21 22  2  0
  4 23  1  0
 23 24  2  0
 24  1  1  0
 22  6  1  0
 20 10  1  0
 18 13  1  0
  1 25  1  0
  2 26  1  0
  3 27  1  0
  7 28  1  0
  8 29  1  0
 11 30  1  0
 14 31  1  0
 15 32  1  0
 16 33  1  0
 17 34  1  0
 19 35  1  0
 21 36  1  0
 22 37  1  0
 23 38  1  0
 24 39  1  0
M  CHG  1  19   1
M  END
>  <UniqueID>  (80) 
76

>  <SMILES>  (80) 
c1ccc(Oc2ccc(-n3cc(-c4ccccn4)[nH+]n3)cc2)cc1

>  <Energy>  (80) 
89.92146020790993

>  <Genealogy>  (80) 
c1ccc(Oc2ccc(-n3cc(-c4ccccn4)[nH+]n3)cc2)cc1 (protonated)
c1ccc(Oc2ccc(-n3cc(-c4ccccn4)[nH+]n3)cc2)cc1 (3D coordinates assigned)
c1ccc(Oc2ccc(-n3cc(-c4ccccn4)[nH+]n3)cc2)cc1 (optimized conformer: 89.92146020790993 kcal/mol)

>  <smiles>  (80) 
c1ccc(Oc2ccc(-n3cc(-c4ccccn4)nn3)cc2)cc1

>  <score_type>  (80) 
oracle

>  <origin>  (80) 
adg

>  <m_score__min__energy>  (80) 
-6.6100000000000003

>  <m_primary>  (80) 
energy

$$$$
80:0
     RDKit          3D

 28 30  0  0  0  0  0  0  0  0999 V2000
   57.0340   23.8220   46.9280 O   0  0  0  0  0  0  0  0  0  0  0  0
   57.3880   24.9780   46.5790 C   0  0  0  0  0  0  0  0  0  0  0  0
   58.7520   25.3700   46.4060 N   0  0  0  0  0  0  0  0  0  0  0  0
   58.6500   26.7430   46.0140 C   0  0  0  0  0  0  0  0  0  0  0  0
   59.7160   27.5910   45.7220 C   0  0  0  0  0  0  0  0  0  0  0  0
   59.4330   28.9160   45.3490 C   0  0  0  0  0  0  0  0  0  0  0  0
   58.0970   29.3740   45.2710 C   0  0  0  0  0  0  0  0  0  0  0  0
   57.7760   31.0360   44.7880 S   0  0  0  0  0  0  0  0  0  0  0  0
   58.2790   31.2920   43.3950 O   0  0  0  0  0  0  0  0  0  0  0  0
   56.2900   31.2620   44.8080 O   0  0  0  0  0  0  0  0  0  0  0  0
   58.5890   32.1430   45.9020 C   0  0  0  0  0  0  0  0  0  0  0  0
   59.5890   31.6520   46.7560 C   0  0  0  0  0  0  0  0  0  0  0  0
   60.2540   32.5120   47.6360 C   0  0  0  0  0  0  0  0  0  0  0  0
   59.9280   33.8680   47.6680 C   0  0  0  0  0  0  0  0  0  0  0  0
   58.9370   34.3690   46.8200 C   0  0  0  0  0  0  0  0  0  0  0  0
   58.2660   33.5170   45.9360 C   0  0  0  0  0  0  0  0  0  0  0  0
   57.0330   34.2110   44.8860 Cl  0  0  0  0  0  0  0  0  0  0  0  0
   57.0340   28.4990   45.5730 C   0  0  0  0  0  0  0  0  0  0  0  0
   57.3450   27.1920   45.9400 C   0  0  0  0  0  0  0  0  0  0  0  0
   56.4860   26.0830   46.2970 C   0  0  0  0  0  0  0  0  0  0  0  0
   55.2280   26.0780   46.3520 O   0  0  0  0  0  0  0  0  0  0  0  0
   60.7541   27.2321   45.7820 H   0  0  0  0  0  0  0  0  0  0  0  0
   60.2589   29.6040   45.1153 H   0  0  0  0  0  0  0  0  0  0  0  0
   59.8513   30.5840   46.7330 H   0  0  0  0  0  0  0  0  0  0  0  0
   61.0349   32.1187   48.3035 H   0  0  0  0  0  0  0  0  0  0  0  0
   60.4513   34.5431   48.3611 H   0  0  0  0  0  0  0  0  0  0  0  0
   58.6830   35.4389   46.8475 H   0  0  0  0  0  0  0  0  0  0  0  0
   55.9891   28.8386   45.5203 H   0  0  0  0  0  0  0  0  0  0  0  0
  1  2  2  0
  2  3  1  0
  3  4  1  0
  4  5  2  0
  5  6  1  0
  6  7  2  0
  7  8  1  0
  8  9  2  0
  8 10  2  0
  8 11  1  0
 11 12  2  0
 12 13  1  0
 13 14  2  0
 14 15  1  0
 15 16  2  0
 16 17  1  0
  7 18  1  0
 18 19  2  0
 19 20  1  0
 20 21  2  0
 20  2  1  0
 19  4  1  0
 16 11  1  0
  5 22  1  0
  6 23  1  0
 12 24  1  0
 13 25  1  0
 14 26  1  0
 15 27  1  0
 18 28  1  0
M  CHG  1   3  -1
M  END
>  <UniqueID>  (81) 
77

>  <SMILES>  (81) 
O=C1[N-]c2ccc(S(=O)(=O)c3ccccc3Cl)cc2C1=O

>  <Energy>  (81) 
64.55809069480223

>  <Genealogy>  (81) 
O=C1[N-]c2ccc(S(=O)(=O)c3ccccc3Cl)cc2C1=O (protonated)
O=C1[N-]c2ccc(S(=O)(=O)c3ccccc3Cl)cc2C1=O (3D coordinates assigned)
O=C1[N-]c2ccc(S(=O)(=O)c3ccccc3Cl)cc2C1=O (nonaromatic ring conformer: 64.55809069480223 kcal/mol)

>  <smiles>  (81) 
O=C1Nc2ccc(S(=O)(=O)c3ccccc3Cl)cc2C1=O

>  <score_type>  (81) 
oracle

>  <origin>  (81) 
adg

>  <m_score__min__energy>  (81) 
-9.8599999999999994

>  <m_primary>  (81) 
energy

$$$$
81:0
     RDKit          3D

 39 41  0  0  0  0  0  0  0  0999 V2000
   60.1944   35.1499   48.4439 H   0  0  0  0  0  0  0  0  0  0  0  0
   60.5540   34.2520   47.9200 C   0  0  0  0  0  0  0  0  0  0  0  0
   61.7880   33.8080   48.2070 C   0  0  0  0  0  0  0  0  0  0  0  0
   62.4070   33.4890   49.8720 S   0  0  0  0  0  0  0  0  0  0  0  0
   64.0090   33.1200   49.1460 C   0  0  0  0  0  0  0  0  0  0  0  0
   65.1540   32.3090   49.9830 S   0  0  0  0  0  0  0  0  0  0  0  0
   64.0840   33.2540   47.7340 N   0  0  0  0  0  0  0  0  0  0  0  0
   64.9260   33.0250   47.1580 H   0  0  0  0  0  0  0  0  0  0  0  0
   62.8350   33.6480   47.2010 C   0  0  0  0  0  0  0  0  0  0  0  0
   62.6600   33.8280   45.9670 O   0  0  0  0  0  0  0  0  0  0  0  0
   59.6480   33.6100   46.9440 C   0  0  0  0  0  0  0  0  0  0  0  0
   58.5140   34.2730   46.4460 C   0  0  0  0  0  0  0  0  0  0  0  0
   58.3005   35.3046   46.7624 H   0  0  0  0  0  0  0  0  0  0  0  0
   57.6560   33.6290   45.5510 C   0  0  0  0  0  0  0  0  0  0  0  0
   56.7801   34.1626   45.1534 H   0  0  0  0  0  0  0  0  0  0  0  0
   57.9050   32.3050   45.1560 C   0  0  0  0  0  0  0  0  0  0  0  0
   56.9700   31.6010   44.2030 C   0  0  0  0  0  0  0  0  0  0  0  0
   56.2250   32.3243   43.8399 H   0  0  0  0  0  0  0  0  0  0  0  0
   57.5740   31.1964   43.3775 H   0  0  0  0  0  0  0  0  0  0  0  0
   56.2650   30.4740   44.8390 N   0  0  0  0  0  0  0  0  0  0  0  0
   55.2360   30.5750   44.6770 H   0  0  0  0  0  0  0  0  0  0  0  0
   56.6960   29.1650   44.3250 C   0  0  0  0  0  0  0  0  0  0  0  0
   55.8744   28.4431   44.4430 H   0  0  0  0  0  0  0  0  0  0  0  0
   56.9613   29.2736   43.2630 H   0  0  0  0  0  0  0  0  0  0  0  0
   57.9030   28.6660   45.0750 C   0  0  0  0  0  0  0  0  0  0  0  0
   57.7800   28.1790   46.3870 C   0  0  0  0  0  0  0  0  0  0  0  0
   56.7956   28.1691   46.8778 H   0  0  0  0  0  0  0  0  0  0  0  0
   58.9040   27.7070   47.0710 C   0  0  0  0  0  0  0  0  0  0  0  0
   58.8016   27.3254   48.0976 H   0  0  0  0  0  0  0  0  0  0  0  0
   60.1580   27.7190   46.4530 C   0  0  0  0  0  0  0  0  0  0  0  0
   61.0413   27.3477   46.9934 H   0  0  0  0  0  0  0  0  0  0  0  0
   60.2890   28.2030   45.1480 C   0  0  0  0  0  0  0  0  0  0  0  0
   61.2757   28.2118   44.6618 H   0  0  0  0  0  0  0  0  0  0  0  0
   59.1670   28.6760   44.4600 C   0  0  0  0  0  0  0  0  0  0  0  0
   59.2740   29.0573   43.4338 H   0  0  0  0  0  0  0  0  0  0  0  0
   59.0230   31.6340   45.6760 C   0  0  0  0  0  0  0  0  0  0  0  0
   59.2245   30.5946   45.3776 H   0  0  0  0  0  0  0  0  0  0  0  0
   59.8820   32.2790   46.5710 C   0  0  0  0  0  0  0  0  0  0  0  0
   60.7464   31.7390   46.9848 H   0  0  0  0  0  0  0  0  0  0  0  0
  1  2  1  0
  2  3  2  0
  3  4  1  0
  4  5  1  0
  5  6  2  0
  5  7  1  0
  7  8  1  0
  7  9  1  0
  9 10  2  0
  2 11  1  0
 11 12  2  0
 12 13  1  0
 12 14  1  0
 14 15  1  0
 14 16  2  0
 16 17  1  0
 17 18  1  0
 17 19  1  0
 17 20  1  0
 20 21  1  0
 20 22  1  0
 22 23  1  0
 22 24  1  0
 22 25  1  0
 25 26  2  0
 26 27  1  0
 26 28  1  0
 28 29  1  0
 28 30  2  0
 30 31  1  0
 30 32  1  0
 32 33  1  0
 32 34  2  0
 34 35  1  0
 16 36  1  0
 36 37  1  0
 36 38  2  0
 38 39  1  0
  9  3  1  0
 38 11  1  0
 34 25  1  0
M  END
>  <UniqueID>  (82) 
78

>  <SMILES>  (82) 
O=C1NC(=S)S/C1=C\c1ccc(CNCc2ccccc2)cc1

>  <Energy>  (82) 
64.93211970912633

>  <Genealogy>  (82) 
O=C1NC(=S)S/C1=C\c1ccc(CNCc2ccccc2)cc1 (cis-trans isomerization)
O=C1NC(=S)S/C1=C\c1ccc(CNCc2ccccc2)cc1 (3D coordinates assigned)
O=C1NC(=S)S/C1=C\c1ccc(CNCc2ccccc2)cc1 (nonaromatic ring conformer: 64.93211970912633 kcal/mol)

>  <smiles>  (82) 
O=C1NC(=S)SC1=Cc1ccc(CNCc2ccccc2)cc1

>  <score_type>  (82) 
oracle

>  <origin>  (82) 
adg

>  <m_score__min__energy>  (82) 
-8.8599999999999994

>  <m_primary>  (82) 
energy

$$$$
82:0
     RDKit          3D

 37 39  0  0  0  0  0  0  0  0999 V2000
   58.1960   27.0670   47.4860 C   0  0  0  0  0  0  0  0  0  0  0  0
   57.2350   25.9740   47.1040 C   0  0  0  0  0  0  0  0  0  0  0  0
   57.3230   24.7320   47.7550 C   0  0  0  0  0  0  0  0  0  0  0  0
   56.4200   23.7090   47.4560 C   0  0  0  0  0  0  0  0  0  0  0  0
   55.4230   23.9120   46.5020 C   0  0  0  0  0  0  0  0  0  0  0  0
   55.3360   25.1340   45.8310 C   0  0  0  0  0  0  0  0  0  0  0  0
   56.2510   26.1610   46.1020 C   0  0  0  0  0  0  0  0  0  0  0  0
   56.1370   27.3940   45.3780 N   0  0  0  0  0  0  0  0  0  0  0  0
   57.1980   27.9090   44.5610 C   0  0  0  0  0  0  0  0  0  0  0  0
   58.2430   27.2280   44.3700 O   0  0  0  0  0  0  0  0  0  0  0  0
   57.0270   29.2250   43.8580 C   0  0  2  0  0  0  0  0  0  0  0  0
   58.1710   30.2040   44.1780 C   0  0  0  0  0  0  0  0  0  0  0  0
   57.4330   31.3470   44.8050 C   0  0  0  0  0  0  0  0  0  0  0  0
   58.0590   32.5940   45.3060 C   0  0  0  0  0  0  0  0  0  0  0  0
   58.1380   32.8460   46.6890 C   0  0  0  0  0  0  0  0  0  0  0  0
   58.7280   34.0230   47.1620 C   0  0  0  0  0  0  0  0  0  0  0  0
   59.2440   34.9590   46.2630 C   0  0  0  0  0  0  0  0  0  0  0  0
   59.8160   36.0980   46.7240 F   0  0  0  0  0  0  0  0  0  0  0  0
   59.1710   34.7200   44.8890 C   0  0  0  0  0  0  0  0  0  0  0  0
   58.5820   33.5450   44.4110 C   0  0  0  0  0  0  0  0  0  0  0  0
   56.1640   31.1280   44.8690 N   0  0  0  0  0  0  0  0  0  0  0  0
   55.8750   29.9010   44.3340 O   0  0  0  0  0  0  0  0  0  0  0  0
   58.2563   27.1356   48.5822 H   0  0  0  0  0  0  0  0  0  0  0  0
   59.1916   26.8392   47.0775 H   0  0  0  0  0  0  0  0  0  0  0  0
   57.8426   28.0253   47.0775 H   0  0  0  0  0  0  0  0  0  0  0  0
   58.1090   24.5639   48.5059 H   0  0  0  0  0  0  0  0  0  0  0  0
   56.4954   22.7415   47.9739 H   0  0  0  0  0  0  0  0  0  0  0  0
   54.7049   23.1094   46.2779 H   0  0  0  0  0  0  0  0  0  0  0  0
   54.5437   25.2917   45.0844 H   0  0  0  0  0  0  0  0  0  0  0  0
   55.1910   27.8290   45.2910 H   0  0  0  0  0  0  0  0  0  0  0  0
   56.9798   28.9749   42.7878 H   0  0  0  0  0  0  0  0  0  0  0  0
   58.8926   29.7605   44.8798 H   0  0  0  0  0  0  0  0  0  0  0  0
   58.7703   30.4895   43.3008 H   0  0  0  0  0  0  0  0  0  0  0  0
   57.7332   32.1128   47.4021 H   0  0  0  0  0  0  0  0  0  0  0  0
   58.7856   34.2116   48.2442 H   0  0  0  0  0  0  0  0  0  0  0  0
   59.5776   35.4574   44.1813 H   0  0  0  0  0  0  0  0  0  0  0  0
   58.5273   33.3632   43.3275 H   0  0  0  0  0  0  0  0  0  0  0  0
  1  2  1  0
  2  3  2  0
  3  4  1  0
  4  5  2  0
  5  6  1  0
  6  7  2  0
  7  8  1  0
  8  9  1  0
  9 10  2  0
  9 11  1  0
 11 12  1  0
 12 13  1  0
 13 14  1  0
 14 15  2  0
 15 16  1  0
 16 17  2  0
 17 18  1  0
 17 19  1  0
 19 20  2  0
 13 21  2  0
 21 22  1  0
  7  2  1  0
 22 11  1  0
 20 14  1  0
  1 23  1  0
  1 24  1  0
  1 25  1  0
  3 26  1  0
  4 27  1  0
  5 28  1  0
  6 29  1  0
  8 30  1  0
 11 31  1  6
 12 32  1  0
 12 33  1  0
 15 34  1  0
 16 35  1  0
 19 36  1  0
 20 37  1  0
M  END
>  <UniqueID>  (83) 
79

>  <SMILES>  (83) 
Cc1ccccc1NC(=O)[C@@H]1CC(c2ccc(F)cc2)=NO1

>  <Energy>  (83) 
57.83841539904706

>  <Genealogy>  (83) 
Cc1ccccc1NC(=O)[C@@H]1CC(c2ccc(F)cc2)=NO1 (chirality)
Cc1ccccc1NC(=O)[C@@H]1CC(c2ccc(F)cc2)=NO1 (3D coordinates assigned)
Cc1ccccc1NC(=O)[C@@H]1CC(c2ccc(F)cc2)=NO1 (nonaromatic ring conformer: 57.83841539904706 kcal/mol)

>  <smiles>  (83) 
Cc1ccccc1NC(=O)C1CC(c2ccc(F)cc2)=NO1

>  <score_type>  (83) 
oracle

>  <origin>  (83) 
adg

>  <m_score__min__energy>  (83) 
-8.0899999999999999

>  <m_primary>  (83) 
energy

$$$$
83:0
     RDKit          3D

 35 36  0  0  0  0  0  0  0  0999 V2000
   61.2142   31.3453   48.7497 H   0  0  0  0  0  0  0  0  0  0  0  0
   60.9530   31.5960   47.7110 C   0  0  0  0  0  0  0  0  0  0  0  0
   60.7020   32.8810   47.4210 C   0  0  0  0  0  0  0  0  0  0  0  0
   61.4524   33.6261   47.7238 H   0  0  0  0  0  0  0  0  0  0  0  0
   59.4930   33.3730   46.7250 C   0  0  0  0  0  0  0  0  0  0  0  0
   58.2030   33.0110   47.1550 C   0  0  0  0  0  0  0  0  0  0  0  0
   58.0795   32.3745   48.0436 H   0  0  0  0  0  0  0  0  0  0  0  0
   57.0780   33.4580   46.4560 C   0  0  0  0  0  0  0  0  0  0  0  0
   56.0708   33.1879   46.8060 H   0  0  0  0  0  0  0  0  0  0  0  0
   57.2310   34.2470   45.3140 C   0  0  0  0  0  0  0  0  0  0  0  0
   56.3443   34.6034   44.7692 H   0  0  0  0  0  0  0  0  0  0  0  0
   58.5100   34.5840   44.8630 C   0  0  0  0  0  0  0  0  0  0  0  0
   58.6294   35.1985   43.9585 H   0  0  0  0  0  0  0  0  0  0  0  0
   59.6380   34.1410   45.5600 C   0  0  0  0  0  0  0  0  0  0  0  0
   60.6434   34.3957   45.1934 H   0  0  0  0  0  0  0  0  0  0  0  0
   60.9020   30.4990   46.7310 C   0  0  0  0  0  0  0  0  0  0  0  0
   61.7283   29.7760   46.6643 H   0  0  0  0  0  0  0  0  0  0  0  0
   59.8750   30.3920   45.9470 N   0  0  0  0  0  0  0  0  0  0  0  0
   58.8820   29.3560   46.0290 C   0  0  0  0  0  0  0  0  0  0  0  0
   59.2200   28.1720   46.6920 C   0  0  0  0  0  0  0  0  0  0  0  0
   60.2224   28.0631   47.1316 H   0  0  0  0  0  0  0  0  0  0  0  0
   58.3030   27.1280   46.8030 C   0  0  0  0  0  0  0  0  0  0  0  0
   58.5926   26.1993   47.3164 H   0  0  0  0  0  0  0  0  0  0  0  0
   57.0140   27.2530   46.2650 C   0  0  0  0  0  0  0  0  0  0  0  0
   56.0720   26.1700   46.3750 N   0  0  0  0  0  0  0  0  0  0  0  0
   56.4240   25.0620   46.8330 O   0  0  0  0  0  0  0  0  0  0  0  0
   54.7640   26.3370   45.9800 O   0  0  0  0  0  0  0  0  0  0  0  0
   56.6550   28.4550   45.6270 C   0  0  0  0  0  0  0  0  0  0  0  0
   55.6444   28.5652   45.2068 H   0  0  0  0  0  0  0  0  0  0  0  0
   57.5730   29.5200   45.5190 C   0  0  0  0  0  0  0  0  0  0  0  0
   57.2080   30.7480   44.9450 O   0  0  0  0  0  0  0  0  0  0  0  0
   57.5020   31.1420   43.6090 C   0  0  0  0  0  0  0  0  0  0  0  0
   58.1598   32.0235   43.6230 H   0  0  0  0  0  0  0  0  0  0  0  0
   58.0065   30.3163   43.0858 H   0  0  0  0  0  0  0  0  0  0  0  0
   56.5669   31.3906   43.0858 H   0  0  0  0  0  0  0  0  0  0  0  0
  1  2  1  0
  2  3  2  0
  3  4  1  0
  3  5  1  0
  5  6  2  0
  6  7  1  0
  6  8  1  0
  8  9  1  0
  8 10  2  0
 10 11  1  0
 10 12  1  0
 12 13  1  0
 12 14  2  0
 14 15  1  0
  2 16  1  0
 16 17  1  0
 16 18  2  0
 18 19  1  0
 19 20  2  0
 20 21  1  0
 20 22  1  0
 22 23  1  0
 22 24  2  0
 24 25  1  0
 25 26  2  0
 25 27  1  0
 24 28  1  0
 28 29  1  0
 28 30  2  0
 30 31  1  0
 31 32  1  0
 32 33  1  0
 32 34  1  0
 32 35  1  0
 14  5  1  0
 30 19  1  0
M  CHG  2  25   1  27  -1
M  END
>  <UniqueID>  (84) 
80

>  <SMILES>  (84) 
COc1cc([N+](=O)[O-])ccc1/N=C/C=Cc1ccccc1

>  <Energy>  (84) 
45.98408443770482

>  <Genealogy>  (84) 
COc1cc([N+](=O)[O-])ccc1/N=C/C=Cc1ccccc1 (cis-trans isomerization)
COc1cc([N+](=O)[O-])ccc1/N=C/C=Cc1ccccc1 (3D coordinates assigned)
COc1cc([N+](=O)[O-])ccc1/N=C/C=Cc1ccccc1 (optimized conformer: 45.98408443770482 kcal/mol)

>  <smiles>  (84) 
COc1cc([N+](=O)[O-])ccc1N=CC=Cc1ccccc1

>  <score_type>  (84) 
oracle

>  <origin>  (84) 
adg

>  <m_score__min__energy>  (84) 
-7.4299999999999997

>  <m_primary>  (84) 
energy

$$$$
84:0
     RDKit          3D

 55 58  0  0  0  0  0  0  0  0999 V2000
   53.5380   24.8090   45.5800 C   0  0  0  0  0  0  0  0  0  0  0  0
   54.7790   25.3840   45.9780 O   0  0  0  0  0  0  0  0  0  0  0  0
   56.0320   24.7730   45.8080 C   0  0  0  0  0  0  0  0  0  0  0  0
   56.1870   23.3730   45.8490 C   0  0  0  0  0  0  0  0  0  0  0  0
   57.4450   22.7950   45.6710 C   0  0  0  0  0  0  0  0  0  0  0  0
   58.5740   23.6010   45.4760 C   0  0  0  0  0  0  0  0  0  0  0  0
   59.9210   22.9760   45.2590 C   0  0  0  0  0  0  0  0  0  0  0  0
   58.4240   24.9930   45.4180 C   0  0  0  0  0  0  0  0  0  0  0  0
   57.1580   25.5860   45.5740 C   0  0  0  0  0  0  0  0  0  0  0  0
   57.0130   27.0170   45.5350 N   0  0  0  0  0  0  0  0  0  0  0  0
   57.6140   27.8380   44.5200 C   0  0  0  0  0  0  0  0  0  0  0  0
   57.9560   27.3180   43.4230 O   0  0  0  0  0  0  0  0  0  0  0  0
   57.8070   29.2930   44.7300 C   0  0  0  0  0  0  0  0  0  0  0  0
   56.8170   30.2020   44.3150 C   0  0  0  0  0  0  0  0  0  0  0  0
   57.0130   31.5780   44.4510 C   0  0  0  0  0  0  0  0  0  0  0  0
   58.2080   32.0760   44.9950 C   0  0  0  0  0  0  0  0  0  0  0  0
   58.4580   33.5690   45.0300 C   0  0  0  0  0  0  0  0  0  0  0  0
   58.5710   34.1190   46.4040 N   0  0  0  0  0  0  0  0  0  0  0  0
   58.0390   33.2310   47.4740 C   0  0  0  0  0  0  0  0  0  0  0  0
   59.0680   32.7960   48.5450 C   0  0  0  0  0  0  0  0  0  0  0  0
   60.4710   32.7650   48.0150 C   0  0  0  0  0  0  0  0  0  0  0  0
   61.3890   31.7890   48.4280 C   0  0  0  0  0  0  0  0  0  0  0  0
   62.7080   31.8300   47.9650 C   0  0  0  0  0  0  0  0  0  0  0  0
   63.1220   32.8570   47.1110 C   0  0  0  0  0  0  0  0  0  0  0  0
   62.2150   33.8440   46.7150 C   0  0  0  0  0  0  0  0  0  0  0  0
   60.8830   33.7900   47.1540 C   0  0  0  0  0  0  0  0  0  0  0  0
   59.8570   34.7870   46.6980 C   0  0  0  0  0  0  0  0  0  0  0  0
   59.1800   31.1710   45.4470 C   0  0  0  0  0  0  0  0  0  0  0  0
   58.9880   29.7940   45.3050 C   0  0  0  0  0  0  0  0  0  0  0  0
   52.9556   24.5392   46.4733 H   0  0  0  0  0  0  0  0  0  0  0  0
   52.9724   25.5368   44.9797 H   0  0  0  0  0  0  0  0  0  0  0  0
   53.7276   23.9070   44.9797 H   0  0  0  0  0  0  0  0  0  0  0  0
   55.3106   22.7312   46.0225 H   0  0  0  0  0  0  0  0  0  0  0  0
   57.5505   21.7001   45.6839 H   0  0  0  0  0  0  0  0  0  0  0  0
   60.3861   22.7602   46.2322 H   0  0  0  0  0  0  0  0  0  0  0  0
   59.8041   22.0401   44.6929 H   0  0  0  0  0  0  0  0  0  0  0  0
   60.5601   23.6696   44.6929 H   0  0  0  0  0  0  0  0  0  0  0  0
   59.3056   25.6287   45.2487 H   0  0  0  0  0  0  0  0  0  0  0  0
   56.3440   27.4660   46.2000 H   0  0  0  0  0  0  0  0  0  0  0  0
   55.8797   29.8255   43.8793 H   0  0  0  0  0  0  0  0  0  0  0  0
   56.2261   32.2763   44.1299 H   0  0  0  0  0  0  0  0  0  0  0  0
   59.3953   33.7776   44.4934 H   0  0  0  0  0  0  0  0  0  0  0  0
   57.5902   34.0532   44.5583 H   0  0  0  0  0  0  0  0  0  0  0  0
   57.2229   33.7642   47.9836 H   0  0  0  0  0  0  0  0  0  0  0  0
   57.7156   32.3081   46.9704 H   0  0  0  0  0  0  0  0  0  0  0  0
   59.0239   33.5049   49.3850 H   0  0  0  0  0  0  0  0  0  0  0  0
   58.8083   31.7754   48.8628 H   0  0  0  0  0  0  0  0  0  0  0  0
   61.0719   30.9914   49.1159 H   0  0  0  0  0  0  0  0  0  0  0  0
   63.4219   31.0521   48.2735 H   0  0  0  0  0  0  0  0  0  0  0  0
   64.1610   32.8881   46.7510 H   0  0  0  0  0  0  0  0  0  0  0  0
   62.5452   34.6631   46.0592 H   0  0  0  0  0  0  0  0  0  0  0  0
   59.7026   35.5339   47.4906 H   0  0  0  0  0  0  0  0  0  0  0  0
   60.2203   35.2726   45.7803 H   0  0  0  0  0  0  0  0  0  0  0  0
   60.1004   31.5481   45.9168 H   0  0  0  0  0  0  0  0  0  0  0  0
   59.7673   29.0965   45.6459 H   0  0  0  0  0  0  0  0  0  0  0  0
  1  2  1  0
  2  3  1  0
  3  4  2  0
  4  5  1  0
  5  6  2  0
  6  7  1  0
  6  8  1  0
  8  9  2  0
  9 10  1  0
 10 11  1  0
 11 12  2  0
 11 13  1  0
 13 14  2  0
 14 15  1  0
 15 16  2  0
 16 17  1  0
 17 18  1  0
 18 19  1  0
 19 20  1  0
 20 21  1  0
 21 22  2  0
 22 23  1  0
 23 24  2  0
 24 25  1  0
 25 26  2  0
 26 27  1  0
 16 28  1  0
 28 29  2  0
  9  3  1  0
 29 13  1  0
 27 18  1  0
 26 21  1  0
  1 30  1  0
  1 31  1  0
  1 32  1  0
  4 33  1  0
  5 34  1  0
  7 35  1  0
  7 36  1  0
  7 37  1  0
  8 38  1  0
 10 39  1  0
 14 40  1  0
 15 41  1  0
 17 42  1  0
 17 43  1  0
 19 44  1  0
 19 45  1  0
 20 46  1  0
 20 47  1  0
 22 48  1  0
 23 49  1  0
 24 50  1  0
 25 51  1  0
 27 52  1  0
 27 53  1  0
 28 54  1  0
 29 55  1  0
M  END
>  <UniqueID>  (85) 
81

>  <SMILES>  (85) 
COc1ccc(C)cc1NC(=O)c1ccc(CN2CCc3ccccc3C2)cc1

>  <Energy>  (85) 
74.64897994775296

>  <Genealogy>  (85) 
COc1ccc(C)cc1NC(=O)c1ccc(CN2CCc3ccccc3C2)cc1 (3D coordinates assigned)
COc1ccc(C)cc1NC(=O)c1ccc(CN2CCc3ccccc3C2)cc1 (nonaromatic ring conformer: 74.64897994775296 kcal/mol)

>  <smiles>  (85) 
COc1ccc(C)cc1NC(=O)c1ccc(CN2CCc3ccccc3C2)cc1

>  <score_type>  (85) 
oracle

>  <origin>  (85) 
adg

>  <m_score__min__energy>  (85) 
-9.0399999999999991

>  <m_primary>  (85) 
energy

$$$$
85:0
     RDKit          3D

 25 26  0  0  0  0  0  0  0  0999 V2000
   60.4450   28.7550   44.9500 C   0  0  0  0  0  0  0  0  0  0  0  0
   59.4740   28.9680   46.0830 C   0  0  0  0  0  0  0  0  0  0  0  0
   58.1160   29.1070   45.6730 N   0  0  0  0  0  0  0  0  0  0  0  0
   57.4560   30.2200   45.3830 C   0  0  0  0  0  0  0  0  0  0  0  0
   57.9500   31.5970   45.4060 C   0  0  0  0  0  0  0  0  0  0  0  0
   58.2680   32.2680   46.5560 C   0  0  0  0  0  0  0  0  0  0  0  0
   58.7330   33.5820   46.5000 C   0  0  0  0  0  0  0  0  0  0  0  0
   58.8790   34.2210   45.2860 C   0  0  0  0  0  0  0  0  0  0  0  0
   59.3240   35.4910   45.1590 F   0  0  0  0  0  0  0  0  0  0  0  0
   58.5600   33.5510   44.1130 C   0  0  0  0  0  0  0  0  0  0  0  0
   58.0930   32.2330   44.1690 C   0  0  0  0  0  0  0  0  0  0  0  0
   56.1700   29.9450   45.0300 N   0  0  0  0  0  0  0  0  0  0  0  0
   56.0490   28.6280   45.1110 N   0  0  0  0  0  0  0  0  0  0  0  0
   57.2230   28.0910   45.5010 C   0  0  0  0  0  0  0  0  0  0  0  0
   57.4990   26.4880   45.7210 S   0  0  0  0  0  0  0  0  0  0  0  0
   61.4427   28.5361   45.3584 H   0  0  0  0  0  0  0  0  0  0  0  0
   60.1080   27.9094   44.3324 H   0  0  0  0  0  0  0  0  0  0  0  0
   60.4929   29.6640   44.3324 H   0  0  0  0  0  0  0  0  0  0  0  0
   59.5423   28.1053   46.7621 H   0  0  0  0  0  0  0  0  0  0  0  0
   59.7560   29.9153   46.5658 H   0  0  0  0  0  0  0  0  0  0  0  0
   58.1563   31.7683   47.5296 H   0  0  0  0  0  0  0  0  0  0  0  0
   58.9850   34.1123   47.4302 H   0  0  0  0  0  0  0  0  0  0  0  0
   58.6740   34.0548   43.1418 H   0  0  0  0  0  0  0  0  0  0  0  0
   57.8389   31.6984   43.2418 H   0  0  0  0  0  0  0  0  0  0  0  0
   55.1430   28.1480   44.8880 H   0  0  0  0  0  0  0  0  0  0  0  0
  1  2  1  0
  2  3  1  0
  3  4  1  0
  4  5  1  0
  5  6  2  0
  6  7  1  0
  7  8  2  0
  8  9  1  0
  8 10  1  0
 10 11  2  0
  4 12  2  0
 12 13  1  0
 13 14  1  0
 14 15  2  0
 14  3  1  0
 11  5  1  0
  1 16  1  0
  1 17  1  0
  1 18  1  0
  2 19  1  0
  2 20  1  0
  6 21  1  0
  7 22  1  0
 10 23  1  0
 11 24  1  0
 13 25  1  0
M  END
>  <smiles>  (86) 
CCn1c(-c2ccc(F)cc2)n[nH]c1=S

>  <score_type>  (86) 
oracle

>  <origin>  (86) 
adg

>  <m_score__min__energy>  (86) 
-6.46

>  <m_primary>  (86) 
energy

$$$$
86:0
     RDKit          3D

 48 51  0  0  0  0  0  0  0  0999 V2000
   57.5929   34.5915   43.8677 H   0  0  0  0  0  0  0  0  0  0  0  0
   57.8170   33.6530   44.3960 C   0  0  0  0  0  0  0  0  0  0  0  0
   57.8520   32.3950   43.6210 C   0  0  0  0  0  0  0  0  0  0  0  0
   58.3950   32.4160   42.4840 O   0  0  0  0  0  0  0  0  0  0  0  0
   57.2970   31.1140   44.1250 C   0  0  0  0  0  0  0  0  0  0  0  0
   55.9180   30.8520   44.0730 C   0  0  0  0  0  0  0  0  0  0  0  0
   55.2360   31.5984   43.6396 H   0  0  0  0  0  0  0  0  0  0  0  0
   55.4070   29.6500   44.5680 C   0  0  0  0  0  0  0  0  0  0  0  0
   54.3270   29.4492   44.5106 H   0  0  0  0  0  0  0  0  0  0  0  0
   56.2620   28.7010   45.1360 C   0  0  0  0  0  0  0  0  0  0  0  0
   55.7280   27.5140   45.6270 O   0  0  0  0  0  0  0  0  0  0  0  0
   57.6440   28.9540   45.2140 C   0  0  0  0  0  0  0  0  0  0  0  0
   58.5900   27.9340   45.8140 C   0  0  0  0  0  0  0  0  0  0  0  0
   58.5770   27.0294   45.1883 H   0  0  0  0  0  0  0  0  0  0  0  0
   59.5921   28.3863   45.8487 H   0  0  0  0  0  0  0  0  0  0  0  0
   58.2140   27.5590   47.2030 N   0  0  0  0  0  0  0  0  0  0  0  0
   57.1750   27.4270   47.2240 H   0  0  0  0  0  0  0  0  0  0  0  0
   58.5340   28.6460   48.1650 C   0  0  0  0  0  0  0  0  0  0  0  0
   58.4917   29.6085   47.6342 H   0  0  0  0  0  0  0  0  0  0  0  0
   57.7957   28.5955   48.9788 H   0  0  0  0  0  0  0  0  0  0  0  0
   59.9340   28.4930   48.7980 C   0  0  0  0  0  0  0  0  0  0  0  0
   60.3622   29.4912   48.9722 H   0  0  0  0  0  0  0  0  0  0  0  0
   59.8339   27.9485   49.7485 H   0  0  0  0  0  0  0  0  0  0  0  0
   60.7910   27.7640   47.9470 O   0  0  0  0  0  0  0  0  0  0  0  0
   60.3570   26.4200   47.8530 C   0  0  0  0  0  0  0  0  0  0  0  0
   60.8692   25.9460   47.0027 H   0  0  0  0  0  0  0  0  0  0  0  0
   60.6006   25.9306   48.8075 H   0  0  0  0  0  0  0  0  0  0  0  0
   58.8280   26.2850   47.6440 C   0  0  0  0  0  0  0  0  0  0  0  0
   58.6405   25.5169   46.8793 H   0  0  0  0  0  0  0  0  0  0  0  0
   58.3765   26.0056   48.6074 H   0  0  0  0  0  0  0  0  0  0  0  0
   58.1510   30.1650   44.7120 C   0  0  0  0  0  0  0  0  0  0  0  0
   59.2292   30.3723   44.7795 H   0  0  0  0  0  0  0  0  0  0  0  0
   58.0470   33.6980   45.7160 C   0  0  0  0  0  0  0  0  0  0  0  0
   57.2439   34.0716   46.3683 H   0  0  0  0  0  0  0  0  0  0  0  0
   59.3200   33.2740   46.3500 C   0  0  0  0  0  0  0  0  0  0  0  0
   59.3090   32.1240   47.1820 C   0  0  0  0  0  0  0  0  0  0  0  0
   58.3686   31.5745   47.3359 H   0  0  0  0  0  0  0  0  0  0  0  0
   60.4840   31.6780   47.8120 C   0  0  0  0  0  0  0  0  0  0  0  0
   60.4810   30.7832   48.4517 H   0  0  0  0  0  0  0  0  0  0  0  0
   61.6500   32.4050   47.6000 C   0  0  0  0  0  0  0  0  0  0  0  0
   61.6730   33.5130   46.8170 C   0  0  0  0  0  0  0  0  0  0  0  0
   60.5330   33.9890   46.1750 C   0  0  0  0  0  0  0  0  0  0  0  0
   60.5716   34.8934   45.5500 H   0  0  0  0  0  0  0  0  0  0  0  0
   62.9520   34.0330   46.7950 O   0  0  0  0  0  0  0  0  0  0  0  0
   63.7850   33.1980   47.6120 C   0  0  0  0  0  0  0  0  0  0  0  0
   64.5983   32.7607   47.0143 H   0  0  0  0  0  0  0  0  0  0  0  0
   64.2608   33.7620   48.4278 H   0  0  0  0  0  0  0  0  0  0  0  0
   62.9140   32.1710   48.1050 O   0  0  0  0  0  0  0  0  0  0  0  0
  1  2  1  0
  2  3  1  0
  3  4  2  0
  3  5  1  0
  5  6  2  0
  6  7  1  0
  6  8  1  0
  8  9  1  0
  8 10  2  0
 10 11  1  0
 10 12  1  0
 12 13  1  0
 13 14  1  0
 13 15  1  0
 13 16  1  0
 16 17  1  0
 16 18  1  0
 18 19  1  0
 18 20  1  0
 18 21  1  0
 21 22  1  0
 21 23  1  0
 21 24  1  0
 24 25  1  0
 25 26  1  0
 25 27  1  0
 25 28  1  0
 28 29  1  0
 28 30  1  0
 12 31  2  0
 31 32  1  0
  2 33  2  0
 33 34  1  0
 33 35  1  0
 35 36  2  0
 36 37  1  0
 36 38  1  0
 38 39  1  0
 38 40  2  0
 40 41  1  0
 41 42  2  0
 42 43  1  0
 41 44  1  0
 44 45  1  0
 45 46  1  0
 45 47  1  0
 45 48  1  0
 31  5  1  0
 42 35  1  0
 28 16  1  0
 48 40  1  0
M  CHG  2  11  -1  16   1
M  END
>  <UniqueID>  (87) 
82

>  <SMILES>  (87) 
O=C(/C=C/c1ccc2c(c1)OCO2)c1ccc([O-])c(C[NH+]2CCOCC2)c1

>  <Energy>  (87) 
99.31130619757708

>  <Genealogy>  (87) 
O=C(C=Cc1ccc2c(c1)OCO2)c1ccc([O-])c(C[NH+]2CCOCC2)c1 (protonated)
O=C(/C=C/c1ccc2c(c1)OCO2)c1ccc([O-])c(C[NH+]2CCOCC2)c1 (cis-trans isomerization)
O=C(/C=C/c1ccc2c(c1)OCO2)c1ccc([O-])c(C[NH+]2CCOCC2)c1 (3D coordinates assigned)
O=C(/C=C/c1ccc2c(c1)OCO2)c1ccc([O-])c(C[NH+]2CCOCC2)c1 (nonaromatic ring conformer: 99.31130619757708 kcal/mol)

>  <smiles>  (87) 
O=C(C=Cc1ccc2c(c1)OCO2)c1ccc(O)c(CN2CCOCC2)c1

>  <score_type>  (87) 
oracle

>  <origin>  (87) 
adg

>  <m_score__min__energy>  (87) 
-8.9299999999999997

>  <m_primary>  (87) 
energy

$$$$
87:0
     RDKit          3D

 47 50  0  0  0  0  0  0  0  0999 V2000
   63.3930   33.8780   46.3840 C   0  0  0  0  0  0  0  0  0  0  0  0
   63.5710   33.5670   47.8150 N   0  0  0  0  0  0  0  0  0  0  0  0
   62.5000   34.1610   48.6420 C   0  0  0  0  0  0  0  0  0  0  0  0
   61.1270   33.5540   48.3130 C   0  0  0  0  0  0  0  0  0  0  0  0
   61.2490   32.1360   47.9600 N   0  0  0  0  0  0  0  0  0  0  0  0
   60.1950   31.5060   47.2070 C   0  0  0  0  0  0  0  0  0  0  0  0
   59.3080   32.2860   46.5150 N   0  0  0  0  0  0  0  0  0  0  0  0
   58.3500   31.6730   45.7810 C   0  0  0  0  0  0  0  0  0  0  0  0
   58.2380   30.3260   45.7060 C   0  0  0  0  0  0  0  0  0  0  0  0
   57.1400   30.0950   44.9020 C   0  0  0  0  0  0  0  0  0  0  0  0
   56.6380   31.2950   44.5140 N   0  0  0  0  0  0  0  0  0  0  0  0
   57.3870   32.2540   45.0520 N   0  0  0  0  0  0  0  0  0  0  0  0
   57.1520   33.6820   44.8880 C   0  0  0  0  0  0  0  0  0  0  0  0
   59.1370   29.5140   46.3890 C   0  0  0  0  0  0  0  0  0  0  0  0
   59.0510   28.0800   46.3360 N   0  0  0  0  0  0  0  0  0  0  0  0
   60.3010   27.3060   46.2060 C   0  0  0  0  0  0  0  0  0  0  0  0
   60.0890   25.7730   46.3180 C   0  0  0  0  0  0  0  0  0  0  0  0
   58.9400   25.4290   47.0650 O   0  0  0  0  0  0  0  0  0  0  0  0
   57.8080   25.9590   46.4190 C   0  0  0  0  0  0  0  0  0  0  0  0
   57.7610   27.4620   46.6400 C   0  0  0  0  0  0  0  0  0  0  0  0
   60.1140   30.1310   47.1250 N   0  0  0  0  0  0  0  0  0  0  0  0
   62.4200   31.3950   48.4360 C   0  0  0  0  0  0  0  0  0  0  0  0
   63.7330   32.1130   48.0490 C   0  0  0  0  0  0  0  0  0  0  0  0
   62.8490   34.8284   46.2802 H   0  0  0  0  0  0  0  0  0  0  0  0
   64.3781   33.9649   45.9024 H   0  0  0  0  0  0  0  0  0  0  0  0
   62.8191   33.0726   45.9024 H   0  0  0  0  0  0  0  0  0  0  0  0
   62.7258   33.9784   49.7030 H   0  0  0  0  0  0  0  0  0  0  0  0
   62.4590   35.2393   48.4283 H   0  0  0  0  0  0  0  0  0  0  0  0
   60.4714   33.6508   49.1910 H   0  0  0  0  0  0  0  0  0  0  0  0
   60.7028   34.0934   47.4533 H   0  0  0  0  0  0  0  0  0  0  0  0
   56.7407   29.1086   44.6237 H   0  0  0  0  0  0  0  0  0  0  0  0
   57.0739   34.1567   45.8772 H   0  0  0  0  0  0  0  0  0  0  0  0
   57.9885   34.1297   44.3315 H   0  0  0  0  0  0  0  0  0  0  0  0
   56.2161   33.8380   44.3315 H   0  0  0  0  0  0  0  0  0  0  0  0
   60.7472   27.5259   45.2249 H   0  0  0  0  0  0  0  0  0  0  0  0
   60.9571   27.6054   47.0366 H   0  0  0  0  0  0  0  0  0  0  0  0
   59.9857   25.3582   45.3045 H   0  0  0  0  0  0  0  0  0  0  0  0
   60.9609   25.3572   46.8441 H   0  0  0  0  0  0  0  0  0  0  0  0
   57.8676   25.7478   45.3411 H   0  0  0  0  0  0  0  0  0  0  0  0
   56.8987   25.4974   46.8313 H   0  0  0  0  0  0  0  0  0  0  0  0
   56.9912   27.8973   45.9859 H   0  0  0  0  0  0  0  0  0  0  0  0
   57.5232   27.6522   47.6970 H   0  0  0  0  0  0  0  0  0  0  0  0
   60.8350   29.5390   47.5880 H   0  0  0  0  0  0  0  0  0  0  0  0
   62.3683   31.3080   49.5313 H   0  0  0  0  0  0  0  0  0  0  0  0
   62.4163   30.4002   47.9666 H   0  0  0  0  0  0  0  0  0  0  0  0
   64.4591   31.9712   48.8630 H   0  0  0  0  0  0  0  0  0  0  0  0
   64.0732   31.6711   47.1008 H   0  0  0  0  0  0  0  0  0  0  0  0
  1  2  1  0
  2  3  1  0
  3  4  1  0
  4  5  1  0
  5  6  1  0
  6  7  2  0
  7  8  1  0
  8  9  2  0
  9 10  1  0
 10 11  2  0
 11 12  1  0
 12 13  1  0
  9 14  1  0
 14 15  1  0
 15 16  1  0
 16 17  1  0
 17 18  1  0
 18 19  1  0
 19 20  1  0
 14 21  2  0
  5 22  1  0
 22 23  1  0
 23  2  1  0
 21  6  1  0
 12  8  1  0
 20 15  1  0
  1 24  1  0
  1 25  1  0
  1 26  1  0
  3 27  1  0
  3 28  1  0
  4 29  1  0
  4 30  1  0
 10 31  1  0
 13 32  1  0
 13 33  1  0
 13 34  1  0
 16 35  1  0
 16 36  1  0
 17 37  1  0
 17 38  1  0
 19 39  1  0
 19 40  1  0
 20 41  1  0
 20 42  1  0
 21 43  1  0
 22 44  1  0
 22 45  1  0
 23 46  1  0
 23 47  1  0
M  CHG  1  21   1
M  END
>  <UniqueID>  (88) 
83

>  <SMILES>  (88) 
CN1CCN(c2nc3c(cnn3C)c(N3CCOCC3)[nH+]2)CC1

>  <Energy>  (88) 
108.43651184368603

>  <Genealogy>  (88) 
CN1CCN(c2nc3c(cnn3C)c(N3CCOCC3)[nH+]2)CC1 (protonated)
CN1CCN(c2nc3c(cnn3C)c(N3CCOCC3)[nH+]2)CC1 (3D coordinates assigned)
CN1CCN(c2nc3c(cnn3C)c(N3CCOCC3)[nH+]2)CC1 (nonaromatic ring conformer: 108.43651184368603 kcal/mol)

>  <smiles>  (88) 
CN1CCN(c2nc(N3CCOCC3)c3cnn(C)c3n2)CC1

>  <score_type>  (88) 
oracle

>  <origin>  (88) 
adg

>  <m_score__min__energy>  (88) 
-5.2800000000000002

>  <m_primary>  (88) 
energy

$$$$
88:0
     RDKit          3D

 39 41  0  0  0  0  0  0  0  0999 V2000
   56.6150   33.5040   46.1720 O   0  0  0  0  0  0  0  0  0  0  0  0
   57.4440   32.6670   45.7250 C   0  0  0  0  0  0  0  0  0  0  0  0
   57.0140   31.5900   44.8810 N   0  0  0  0  0  0  0  0  0  0  0  0
   57.4960   30.2400   44.9080 C   0  0  0  0  0  0  0  0  0  0  0  0
   56.6620   29.1560   45.2420 C   0  0  0  0  0  0  0  0  0  0  0  0
   57.1680   27.8520   45.2340 C   0  0  0  0  0  0  0  0  0  0  0  0
   58.5000   27.6180   44.8810 C   0  0  0  0  0  0  0  0  0  0  0  0
   59.3260   28.6880   44.5250 C   0  0  0  0  0  0  0  0  0  0  0  0
   60.6140   28.4600   44.1710 F   0  0  0  0  0  0  0  0  0  0  0  0
   58.8230   29.9930   44.5310 C   0  0  0  0  0  0  0  0  0  0  0  0
   58.8930   32.7900   46.1050 C   0  0  1  0  0  0  0  0  0  0  0  0
   59.3460   34.5340   46.4580 S   0  0  0  0  0  0  0  0  0  0  0  0
   60.9350   34.1440   47.1970 C   0  0  0  0  0  0  0  0  0  0  0  0
   61.0970   34.1960   48.5880 C   0  0  0  0  0  0  0  0  0  0  0  0
   62.3350   33.8920   49.1610 C   0  0  0  0  0  0  0  0  0  0  0  0
   63.4120   33.5270   48.3470 C   0  0  0  0  0  0  0  0  0  0  0  0
   63.2510   33.4640   46.9590 C   0  0  0  0  0  0  0  0  0  0  0  0
   62.0140   33.7690   46.3850 C   0  0  0  0  0  0  0  0  0  0  0  0
   59.1930   31.9140   47.3000 C   0  0  0  0  0  0  0  0  0  0  0  0
   60.1670   30.8970   47.2280 C   0  0  0  0  0  0  0  0  0  0  0  0
   60.4500   30.1080   48.3470 C   0  0  0  0  0  0  0  0  0  0  0  0
   59.7730   30.3280   49.5480 C   0  0  0  0  0  0  0  0  0  0  0  0
   58.8120   31.3380   49.6350 C   0  0  0  0  0  0  0  0  0  0  0  0
   58.5250   32.1300   48.5180 C   0  0  0  0  0  0  0  0  0  0  0  0
   55.6102   29.3349   45.5098 H   0  0  0  0  0  0  0  0  0  0  0  0
   56.5162   27.0088   45.5061 H   0  0  0  0  0  0  0  0  0  0  0  0
   58.8980   26.5925   44.8833 H   0  0  0  0  0  0  0  0  0  0  0  0
   59.4730   30.8307   44.2380 H   0  0  0  0  0  0  0  0  0  0  0  0
   59.4996   32.4527   45.2517 H   0  0  0  0  0  0  0  0  0  0  0  0
   60.2487   34.4764   49.2297 H   0  0  0  0  0  0  0  0  0  0  0  0
   62.4623   33.9398   50.2526 H   0  0  0  0  0  0  0  0  0  0  0  0
   64.3864   33.2893   48.7986 H   0  0  0  0  0  0  0  0  0  0  0  0
   64.0979   33.1745   46.3195 H   0  0  0  0  0  0  0  0  0  0  0  0
   61.8869   33.7147   45.2937 H   0  0  0  0  0  0  0  0  0  0  0  0
   60.7074   30.7233   46.2858 H   0  0  0  0  0  0  0  0  0  0  0  0
   61.2071   29.3128   48.2810 H   0  0  0  0  0  0  0  0  0  0  0  0
   59.9966   29.7053   50.4268 H   0  0  0  0  0  0  0  0  0  0  0  0
   58.2805   31.5108   50.5824 H   0  0  0  0  0  0  0  0  0  0  0  0
   57.7712   32.9275   48.5933 H   0  0  0  0  0  0  0  0  0  0  0  0
  1  2  2  0
  2  3  1  0
  3  4  1  0
  4  5  2  0
  5  6  1  0
  6  7  2  0
  7  8  1  0
  8  9  1  0
  8 10  2  0
  2 11  1  0
 11 12  1  0
 12 13  1  0
 13 14  2  0
 14 15  1  0
 15 16  2  0
 16 17  1  0
 17 18  2  0
 11 19  1  0
 19 20  2  0
 20 21  1  0
 21 22  2  0
 22 23  1  0
 23 24  2  0
 10  4  1  0
 18 13  1  0
 24 19  1  0
  5 25  1  0
  6 26  1  0
  7 27  1  0
 10 28  1  0
 11 29  1  6
 14 30  1  0
 15 31  1  0
 16 32  1  0
 17 33  1  0
 18 34  1  0
 20 35  1  0
 21 36  1  0
 22 37  1  0
 23 38  1  0
 24 39  1  0
M  CHG  1   3  -1
M  END
>  <UniqueID>  (89) 
84

>  <SMILES>  (89) 
O=C([N-]c1cccc(F)c1)[C@@H](Sc1ccccc1)c1ccccc1

>  <Energy>  (89) 
41.08866801954343

>  <Genealogy>  (89) 
O=C([N-]c1cccc(F)c1)C(Sc1ccccc1)c1ccccc1 (protonated)
O=C([N-]c1cccc(F)c1)[C@@H](Sc1ccccc1)c1ccccc1 (chirality)
O=C([N-]c1cccc(F)c1)[C@@H](Sc1ccccc1)c1ccccc1 (3D coordinates assigned)
O=C([N-]c1cccc(F)c1)[C@@H](Sc1ccccc1)c1ccccc1 (optimized conformer: 41.08866801954343 kcal/mol)

>  <smiles>  (89) 
O=C(Nc1cccc(F)c1)C(Sc1ccccc1)c1ccccc1

>  <score_type>  (89) 
oracle

>  <origin>  (89) 
adg

>  <m_score__min__energy>  (89) 
-9.2400000000000002

>  <m_primary>  (89) 
energy

$$$$
89:0
     RDKit          3D

 39 40  0  0  0  0  0  0  0  0999 V2000
   53.4480   22.7410   45.5400 H   0  0  0  0  0  0  0  0  0  0  0  0
   54.4330   22.7190   45.1930 N   0  0  0  0  0  0  0  0  0  0  0  0
   55.1780   23.7780   45.2030 C   0  0  0  0  0  0  0  0  0  0  0  0
   54.8450   24.8380   45.9880 N   0  0  0  0  0  0  0  0  0  0  0  0
   55.6020   25.9670   46.0280 C   0  0  0  0  0  0  0  0  0  0  0  0
   55.3017   26.8046   46.6747 H   0  0  0  0  0  0  0  0  0  0  0  0
   56.7650   26.0690   45.2480 C   0  0  0  0  0  0  0  0  0  0  0  0
   57.5940   27.2980   45.2730 C   0  0  0  0  0  0  0  0  0  0  0  0
   58.9910   27.1980   45.3720 C   0  0  0  0  0  0  0  0  0  0  0  0
   59.4645   26.2076   45.4421 H   0  0  0  0  0  0  0  0  0  0  0  0
   59.7830   28.3480   45.3820 C   0  0  0  0  0  0  0  0  0  0  0  0
   61.1310   28.2390   45.4740 F   0  0  0  0  0  0  0  0  0  0  0  0
   59.1920   29.6090   45.2900 C   0  0  0  0  0  0  0  0  0  0  0  0
   59.8214   30.5111   45.3003 H   0  0  0  0  0  0  0  0  0  0  0  0
   57.7930   29.7310   45.1840 C   0  0  0  0  0  0  0  0  0  0  0  0
   57.1440   30.9740   45.0740 O   0  0  0  0  0  0  0  0  0  0  0  0
   57.4410   31.9960   44.1200 C   0  0  0  0  0  0  0  0  0  0  0  0
   58.1420   31.5972   43.3720 H   0  0  0  0  0  0  0  0  0  0  0  0
   56.5029   32.3105   43.6394 H   0  0  0  0  0  0  0  0  0  0  0  0
   58.0760   33.2190   44.8030 C   0  0  2  0  0  0  0  0  0  0  0  0
   58.7441   33.7115   44.0811 H   0  0  0  0  0  0  0  0  0  0  0  0
   58.8370   32.7900   45.9810 N   0  0  0  0  0  0  0  0  0  0  0  0
   59.7640   34.0970   46.6550 S   0  0  0  0  0  0  0  0  0  0  0  0
   59.2440   34.4370   48.0230 O   0  0  0  0  0  0  0  0  0  0  0  0
   59.6790   35.3090   45.7690 O   0  0  0  0  0  0  0  0  0  0  0  0
   61.4640   33.5910   46.7770 C   0  0  0  0  0  0  0  0  0  0  0  0
   61.7464   33.5069   47.8368 H   0  0  0  0  0  0  0  0  0  0  0  0
   61.5925   32.6157   46.2848 H   0  0  0  0  0  0  0  0  0  0  0  0
   62.1049   34.3373   46.2848 H   0  0  0  0  0  0  0  0  0  0  0  0
   56.9950   34.2040   45.2470 C   0  0  0  0  0  0  0  0  0  0  0  0
   56.9584   34.2374   46.3459 H   0  0  0  0  0  0  0  0  0  0  0  0
   57.2292   35.2056   44.8573 H   0  0  0  0  0  0  0  0  0  0  0  0
   56.0194   33.8779   44.8573 H   0  0  0  0  0  0  0  0  0  0  0  0
   57.0020   28.5750   45.1920 C   0  0  0  0  0  0  0  0  0  0  0  0
   55.6510   28.7030   45.1340 F   0  0  0  0  0  0  0  0  0  0  0  0
   57.1160   24.9860   44.4260 C   0  0  0  0  0  0  0  0  0  0  0  0
   58.0175   25.0436   43.7983 H   0  0  0  0  0  0  0  0  0  0  0  0
   56.3240   23.8360   44.4030 C   0  0  0  0  0  0  0  0  0  0  0  0
   56.6740   22.7900   43.6120 F   0  0  0  0  0  0  0  0  0  0  0  0
  1  2  1  0
  2  3  2  0
  3  4  1  0
  4  5  1  0
  5  6  1  0
  5  7  2  0
  7  8  1  0
  8  9  2  0
  9 10  1  0
  9 11  1  0
 11 12  1  0
 11 13  2  0
 13 14  1  0
 13 15  1  0
 15 16  1  0
 16 17  1  0
 17 18  1  0
 17 19  1  0
 17 20  1  0
 20 21  1  6
 20 22  1  0
 22 23  1  0
 23 24  2  0
 23 25  2  0
 23 26  1  0
 26 27  1  0
 26 28  1  0
 26 29  1  0
 20 30  1  0
 30 31  1  0
 30 32  1  0
 30 33  1  0
 15 34  2  0
 34 35  1  0
  7 36  1  0
 36 37  1  0
 36 38  2  0
 38 39  1  0
 38  3  1  0
 34  8  1  0
M  CHG  2   4  -1  22  -1
M  END
>  <UniqueID>  (90) 
85

>  <SMILES>  (90) 
[H]/N=c1\[n-]cc(-c2cc(F)cc(OC[C@@H](C)[N-]S(C)(=O)=O)c2F)cc1F

>  <Energy>  (90) 
38.10174475259682

>  <Genealogy>  (90) 
CC(COc1cc(F)cc(-c2c[n-]c(=N)c(F)c2)c1F)[N-]S(C)(=O)=O (protonated)
C[C@H](COc1cc(F)cc(-c2c[n-]c(=N)c(F)c2)c1F)[N-]S(C)(=O)=O (chirality)
[H]/N=c1\[n-]cc(-c2cc(F)cc(OC[C@@H](C)[N-]S(C)(=O)=O)c2F)cc1F (cis-trans isomerization)
[H]/N=c1\[n-]cc(-c2cc(F)cc(OC[C@@H](C)[N-]S(C)(=O)=O)c2F)cc1F (3D coordinates assigned)
[H]/N=c1\[n-]cc(-c2cc(F)cc(OC[C@@H](C)[N-]S(C)(=O)=O)c2F)cc1F (optimized conformer: 38.10174475259682 kcal/mol)

>  <smiles>  (90) 
CC(COc1cc(F)cc(-c2c[nH]c(=N)c(F)c2)c1F)NS(C)(=O)=O

>  <score_type>  (90) 
oracle

>  <origin>  (90) 
adg

>  <m_score__min__energy>  (90) 
-10.48

>  <m_primary>  (90) 
energy

$$$$
90:0
     RDKit          3D

 45 49  0  0  0  0  0  0  0  0999 V2000
   63.4430   32.8040   46.8890 O   0  0  0  0  0  0  0  0  0  0  0  0
   63.0580   33.1640   48.0330 C   0  0  0  0  0  0  0  0  0  0  0  0
   63.9030   33.2690   49.2160 C   0  0  0  0  0  0  0  0  0  0  0  0
   65.2730   33.0530   49.3750 C   0  0  0  0  0  0  0  0  0  0  0  0
   65.8240   33.2230   50.6580 C   0  0  0  0  0  0  0  0  0  0  0  0
   65.0040   33.6010   51.7450 C   0  0  0  0  0  0  0  0  0  0  0  0
   63.6250   33.8080   51.5580 C   0  0  0  0  0  0  0  0  0  0  0  0
   62.8130   34.1820   52.6210 O   0  0  0  0  0  0  0  0  0  0  0  0
   63.1010   33.6300   50.2770 C   0  0  0  0  0  0  0  0  0  0  0  0
   61.7360   33.7570   49.7750 C   0  0  0  0  0  0  0  0  0  0  0  0
   60.7330   34.0970   50.4580 O   0  0  0  0  0  0  0  0  0  0  0  0
   61.7010   33.4690   48.3720 N   0  0  0  0  0  0  0  0  0  0  0  0
   60.5470   33.3890   47.5180 C   0  0  0  0  0  0  0  0  0  0  0  0
   59.5420   32.4450   47.7730 C   0  0  0  0  0  0  0  0  0  0  0  0
   58.4240   32.3550   46.9370 C   0  0  0  0  0  0  0  0  0  0  0  0
   58.2880   33.2200   45.8410 C   0  0  0  0  0  0  0  0  0  0  0  0
   57.1020   33.1010   44.9180 C   0  0  0  0  0  0  0  0  0  0  0  0
   57.1330   31.7850   44.1270 C   0  0  0  0  0  0  0  0  0  0  0  0
   56.2890   30.7650   44.7510 N   0  0  0  0  0  0  0  0  0  0  0  0
   56.7150   29.6130   45.1740 C   0  0  0  0  0  0  0  0  0  0  0  0
   57.9930   29.3960   45.5880 N   0  0  0  0  0  0  0  0  0  0  0  0
   57.9660   28.0970   45.9250 C   0  0  0  0  0  0  0  0  0  0  0  0
   59.0100   27.3240   46.4280 C   0  0  0  0  0  0  0  0  0  0  0  0
   58.7390   25.9740   46.7240 C   0  0  0  0  0  0  0  0  0  0  0  0
   57.4470   25.4400   46.5100 C   0  0  0  0  0  0  0  0  0  0  0  0
   56.4180   26.2510   45.9960 C   0  0  0  0  0  0  0  0  0  0  0  0
   56.7210   27.5820   45.7160 C   0  0  0  0  0  0  0  0  0  0  0  0
   55.9000   28.5280   45.2390 N   0  0  0  0  0  0  0  0  0  0  0  0
   59.2910   34.1660   45.5840 C   0  0  0  0  0  0  0  0  0  0  0  0
   60.4130   34.2490   46.4150 C   0  0  0  0  0  0  0  0  0  0  0  0
   65.9028   32.7587   48.5225 H   0  0  0  0  0  0  0  0  0  0  0  0
   66.9004   33.0606   50.8162 H   0  0  0  0  0  0  0  0  0  0  0  0
   65.4465   33.7342   52.7432 H   0  0  0  0  0  0  0  0  0  0  0  0
   59.6334   31.7702   48.6369 H   0  0  0  0  0  0  0  0  0  0  0  0
   57.6479   31.6024   47.1400 H   0  0  0  0  0  0  0  0  0  0  0  0
   56.1792   33.1370   45.5156 H   0  0  0  0  0  0  0  0  0  0  0  0
   57.1378   33.9348   44.2014 H   0  0  0  0  0  0  0  0  0  0  0  0
   56.7706   31.9731   43.1056 H   0  0  0  0  0  0  0  0  0  0  0  0
   58.1688   31.4149   44.1126 H   0  0  0  0  0  0  0  0  0  0  0  0
   60.0103   27.7527   46.5883 H   0  0  0  0  0  0  0  0  0  0  0  0
   59.5369   25.3311   47.1240 H   0  0  0  0  0  0  0  0  0  0  0  0
   57.2452   24.3849   46.7466 H   0  0  0  0  0  0  0  0  0  0  0  0
   55.4094   25.8481   45.8213 H   0  0  0  0  0  0  0  0  0  0  0  0
   59.1948   34.8460   44.7247 H   0  0  0  0  0  0  0  0  0  0  0  0
   61.1957   34.9925   46.2036 H   0  0  0  0  0  0  0  0  0  0  0  0
  1  2  2  0
  2  3  1  0
  3  4  2  0
  4  5  1  0
  5  6  2  0
  6  7  1  0
  7  8  1  0
  7  9  2  0
  9 10  1  0
 10 11  2  0
 10 12  1  0
 12 13  1  0
 13 14  2  0
 14 15  1  0
 15 16  2  0
 16 17  1  0
 17 18  1  0
 18 19  1  0
 19 20  2  3
 20 21  1  0
 21 22  1  0
 22 23  2  0
 23 24  1  0
 24 25  2  0
 25 26  1  0
 26 27  2  0
 27 28  1  0
 16 29  1  0
 29 30  2  0
 12  2  1  0
 30 13  1  0
  9  3  1  0
 28 20  1  0
 27 22  1  0
  4 31  1  0
  5 32  1  0
  6 33  1  0
 14 34  1  0
 15 35  1  0
 17 36  1  0
 17 37  1  0
 18 38  1  0
 18 39  1  0
 23 40  1  0
 24 41  1  0
 25 42  1  0
 26 43  1  0
 29 44  1  0
 30 45  1  0
M  CHG  3   8  -1  21  -1  28  -1
M  END
>  <UniqueID>  (91) 
86

>  <SMILES>  (91) 
O=C1c2cccc([O-])c2C(=O)N1c1ccc(CCN=c2[n-]c3ccccc3[n-]2)cc1

>  <Energy>  (91) 
120.97326774113131

>  <Genealogy>  (91) 
O=C1c2cccc([O-])c2C(=O)N1c1ccc(CCN=c2[n-]c3ccccc3[n-]2)cc1 (protonated)
O=C1c2cccc([O-])c2C(=O)N1c1ccc(CCN=c2[n-]c3ccccc3[n-]2)cc1 (3D coordinates assigned)
O=C1c2cccc([O-])c2C(=O)N1c1ccc(CCN=c2[n-]c3ccccc3[n-]2)cc1 (nonaromatic ring conformer: 120.97326774113131 kcal/mol)

>  <smiles>  (91) 
O=C1c2cccc(O)c2C(=O)N1c1ccc(CCN=c2[nH]c3ccccc3[nH]2)cc1

>  <score_type>  (91) 
oracle

>  <origin>  (91) 
adg

>  <m_score__min__energy>  (91) 
-13.109999999999999

>  <m_primary>  (91) 
energy

$$$$
91:0
     RDKit          3D

 51 53  0  0  0  0  0  0  0  0999 V2000
   57.4010   25.8410   45.6060 C   0  0  0  0  0  0  0  0  0  0  0  0
   56.3600   26.9070   45.7750 C   0  0  0  0  0  0  0  0  0  0  0  0
   55.1700   26.5700   46.0090 O   0  0  0  0  0  0  0  0  0  0  0  0
   56.6720   28.2990   45.6370 N   0  0  0  0  0  0  0  0  0  0  0  0
   55.9040   29.2650   44.8560 C   0  0  0  0  0  0  0  0  0  0  0  0
   56.8350   30.3240   44.2520 C   0  0  2  0  0  0  0  0  0  0  0  0
   58.2440   30.3060   44.9130 C   0  0  0  0  0  0  0  0  0  0  0  0
   58.3770   31.6000   45.5730 N   0  0  0  0  0  0  0  0  0  0  0  0
   59.4660   31.9940   46.4340 C   0  0  0  0  0  0  0  0  0  0  0  0
   59.8970   33.3300   46.4880 C   0  0  0  0  0  0  0  0  0  0  0  0
   60.9450   33.7040   47.3340 C   0  0  0  0  0  0  0  0  0  0  0  0
   61.5750   32.7530   48.1490 C   0  0  0  0  0  0  0  0  0  0  0  0
   62.6490   33.1520   49.0190 N   0  0  0  0  0  0  0  0  0  0  0  0
   63.9670   33.4840   48.4600 C   0  0  0  0  0  0  0  0  0  0  0  0
   65.1220   33.0020   49.3720 C   0  0  0  0  0  0  0  0  0  0  0  0
   64.7160   32.7340   50.7720 N   0  0  0  0  0  0  0  0  0  0  0  0
   64.3570   31.3110   50.9520 C   0  0  0  0  0  0  0  0  0  0  0  0
   63.6600   33.6780   51.2180 C   0  0  2  0  0  0  0  0  0  0  0  0
   63.4690   33.6380   52.7210 C   0  0  0  0  0  0  0  0  0  0  0  0
   64.4350   33.0220   53.5760 N   0  0  0  0  0  0  0  0  0  0  0  0
   62.3990   34.0730   53.2260 O   0  0  0  0  0  0  0  0  0  0  0  0
   62.3560   33.4390   50.4300 C   0  0  0  0  0  0  0  0  0  0  0  0
   61.1400   31.4170   48.1070 C   0  0  0  0  0  0  0  0  0  0  0  0
   61.7460   30.4690   48.8640 F   0  0  0  0  0  0  0  0  0  0  0  0
   60.0920   31.0450   47.2600 C   0  0  0  0  0  0  0  0  0  0  0  0
   57.2200   32.3480   45.2510 C   0  0  0  0  0  0  0  0  0  0  0  0
   57.0430   33.5540   45.5660 O   0  0  0  0  0  0  0  0  0  0  0  0
   56.3260   31.6310   44.4910 O   0  0  0  0  0  0  0  0  0  0  0  0
   57.7372   25.4967   46.5952 H   0  0  0  0  0  0  0  0  0  0  0  0
   56.9721   24.9946   45.0494 H   0  0  0  0  0  0  0  0  0  0  0  0
   58.2573   26.2497   45.0494 H   0  0  0  0  0  0  0  0  0  0  0  0
   55.3782   28.7396   44.0452 H   0  0  0  0  0  0  0  0  0  0  0  0
   55.1785   29.7622   45.5166 H   0  0  0  0  0  0  0  0  0  0  0  0
   56.8996   30.0884   43.1795 H   0  0  0  0  0  0  0  0  0  0  0  0
   58.3145   29.4900   45.6473 H   0  0  0  0  0  0  0  0  0  0  0  0
   59.0413   30.1392   44.1738 H   0  0  0  0  0  0  0  0  0  0  0  0
   59.4060   34.0877   45.8597 H   0  0  0  0  0  0  0  0  0  0  0  0
   61.2778   34.7521   47.3605 H   0  0  0  0  0  0  0  0  0  0  0  0
   64.0669   33.0026   47.4760 H   0  0  0  0  0  0  0  0  0  0  0  0
   64.0345   34.5787   48.3761 H   0  0  0  0  0  0  0  0  0  0  0  0
   65.5328   32.0740   48.9478 H   0  0  0  0  0  0  0  0  0  0  0  0
   65.8603   33.8167   49.4062 H   0  0  0  0  0  0  0  0  0  0  0  0
   64.2989   31.0805   52.0260 H   0  0  0  0  0  0  0  0  0  0  0  0
   63.3817   31.1166   50.4819 H   0  0  0  0  0  0  0  0  0  0  0  0
   65.1234   30.6772   50.4819 H   0  0  0  0  0  0  0  0  0  0  0  0
   63.9869   34.7036   50.9916 H   0  0  0  0  0  0  0  0  0  0  0  0
   64.2800   33.0010   54.6090 H   0  0  0  0  0  0  0  0  0  0  0  0
   65.2860   32.5530   53.1940 H   0  0  0  0  0  0  0  0  0  0  0  0
   61.8200   32.5846   50.8689 H   0  0  0  0  0  0  0  0  0  0  0  0
   61.7367   34.3464   50.4859 H   0  0  0  0  0  0  0  0  0  0  0  0
   59.7538   29.9985   47.2399 H   0  0  0  0  0  0  0  0  0  0  0  0
  1  2  1  0
  2  3  2  0
  2  4  1  0
  4  5  1  0
  5  6  1  0
  6  7  1  0
  7  8  1  0
  8  9  1  0
  9 10  2  0
 10 11  1  0
 11 12  2  0
 12 13  1  0
 13 14  1  0
 14 15  1  0
 15 16  1  0
 16 17  1  0
 16 18  1  0
 18 19  1  0
 19 20  1  0
 19 21  2  0
 18 22  1  0
 12 23  1  0
 23 24  1  0
 23 25  2  0
  8 26  1  0
 26 27  2  0
 26 28  1  0
 28  6  1  0
 25  9  1  0
 22 13  1  0
  1 29  1  0
  1 30  1  0
  1 31  1  0
  5 32  1  0
  5 33  1  0
  6 34  1  6
  7 35  1  0
  7 36  1  0
 10 37  1  0
 11 38  1  0
 14 39  1  0
 14 40  1  0
 15 41  1  0
 15 42  1  0
 17 43  1  0
 17 44  1  0
 17 45  1  0
 18 46  1  1
 20 47  1  0
 20 48  1  0
 22 49  1  0
 22 50  1  0
 25 51  1  0
M  CHG  1   4  -1
M  END
>  <UniqueID>  (92) 
87

>  <SMILES>  (92) 
CC(=O)[N-]C[C@@H]1CN(c2ccc(N3CCN(C)[C@H](C(N)=O)C3)c(F)c2)C(=O)O1

>  <Energy>  (92) 
81.09783336785331

>  <Genealogy>  (92) 
CC(=O)[N-]CC1CN(c2ccc(N3CCN(C)C(C(N)=O)C3)c(F)c2)C(=O)O1 (protonated)
CC(=O)[N-]C[C@@H]1CN(c2ccc(N3CCN(C)[C@H](C(N)=O)C3)c(F)c2)C(=O)O1 (chirality)
CC(=O)[N-]C[C@@H]1CN(c2ccc(N3CCN(C)[C@H](C(N)=O)C3)c(F)c2)C(=O)O1 (3D coordinates assigned)
CC(=O)[N-]C[C@@H]1CN(c2ccc(N3CCN(C)[C@H](C(N)=O)C3)c(F)c2)C(=O)O1 (nonaromatic ring conformer: 81.09783336785331 kcal/mol)

>  <smiles>  (92) 
CC(=O)NCC1CN(c2ccc(N3CCN(C)C(C(N)=O)C3)c(F)c2)C(=O)O1

>  <score_type>  (92) 
oracle

>  <origin>  (92) 
adg

>  <m_score__min__energy>  (92) 
-9.2100000000000009

>  <m_primary>  (92) 
energy

$$$$
92:0
     RDKit          3D

 23 25  0  0  0  0  0  0  0  0999 V2000
   64.3710   33.3970   47.3870 F   0  0  0  0  0  0  0  0  0  0  0  0
   63.0940   33.5810   47.8010 C   0  0  0  0  0  0  0  0  0  0  0  0
   62.8350   34.2240   49.0090 C   0  0  0  0  0  0  0  0  0  0  0  0
   61.5540   34.4050   49.4190 N   0  0  0  0  0  0  0  0  0  0  0  0
   60.4960   33.9750   48.6810 C   0  0  0  0  0  0  0  0  0  0  0  0
   60.6960   33.3180   47.4490 C   0  0  0  0  0  0  0  0  0  0  0  0
   59.5150   32.8550   46.6540 C   0  0  0  0  0  0  0  0  0  0  0  0
   58.4810   33.7320   46.2210 C   0  0  0  0  0  0  0  0  0  0  0  0
   57.3990   33.2370   45.4770 C   0  0  0  0  0  0  0  0  0  0  0  0
   57.3890   31.8800   45.1900 C   0  0  0  0  0  0  0  0  0  0  0  0
   56.4490   31.2090   44.4950 N   0  0  0  0  0  0  0  0  0  0  0  0
   56.9110   29.9310   44.5050 C   0  0  0  0  0  0  0  0  0  0  0  0
   58.1110   29.8560   45.2000 C   0  0  0  0  0  0  0  0  0  0  0  0
   58.3810   31.0970   45.6170 N   0  0  0  0  0  0  0  0  0  0  0  0
   59.4210   31.5310   46.3230 N   0  0  0  0  0  0  0  0  0  0  0  0
   62.0280   33.1290   47.0200 C   0  0  0  0  0  0  0  0  0  0  0  0
   63.6680   34.5848   49.6302 H   0  0  0  0  0  0  0  0  0  0  0  0
   59.4728   34.1414   49.0489 H   0  0  0  0  0  0  0  0  0  0  0  0
   58.5302   34.8022   46.4706 H   0  0  0  0  0  0  0  0  0  0  0  0
   56.5902   33.8994   45.1347 H   0  0  0  0  0  0  0  0  0  0  0  0
   56.4060   29.0770   44.0299 H   0  0  0  0  0  0  0  0  0  0  0  0
   58.7181   28.9552   45.3728 H   0  0  0  0  0  0  0  0  0  0  0  0
   62.2274   32.6223   46.0642 H   0  0  0  0  0  0  0  0  0  0  0  0
  1  2  1  0
  2  3  2  0
  3  4  1  0
  4  5  2  0
  5  6  1  0
  6  7  1  0
  7  8  1  0
  8  9  2  0
  9 10  1  0
 10 11  2  0
 11 12  1  0
 12 13  2  0
 13 14  1  0
 14 15  1  0
  6 16  2  0
 16  2  1  0
 15  7  2  0
 14 10  1  0
  3 17  1  0
  5 18  1  0
  8 19  1  0
  9 20  1  0
 12 21  1  0
 13 22  1  0
 16 23  1  0
M  END
>  <UniqueID>  (93) 
88

>  <SMILES>  (93) 
Fc1cncc(-c2ccc3nccn3n2)c1

>  <Energy>  (93) 
67.35030963248035

>  <Genealogy>  (93) 
Fc1cncc(-c2ccc3nccn3n2)c1 (3D coordinates assigned)
Fc1cncc(-c2ccc3nccn3n2)c1 (optimized conformer: 67.35030963248035 kcal/mol)

>  <smiles>  (93) 
Fc1cncc(-c2ccc3nccn3n2)c1

>  <score_type>  (93) 
oracle

>  <origin>  (93) 
adg

>  <m_score__min__energy>  (93) 
-5.6600000000000001

>  <m_primary>  (93) 
energy

$$$$
93:0
     RDKit          3D

 27 28  0  0  0  0  0  0  0  0999 V2000
   60.4855   35.7035   46.6915 H   0  0  0  0  0  0  0  0  0  0  0  0
   59.7840   34.8590   46.6230 C   0  0  0  0  0  0  0  0  0  0  0  0
   59.2480   34.4990   45.3830 C   0  0  0  0  0  0  0  0  0  0  0  0
   59.5386   35.0539   44.4788 H   0  0  0  0  0  0  0  0  0  0  0  0
   58.3410   33.4330   45.2870 C   0  0  0  0  0  0  0  0  0  0  0  0
   57.7760   33.0240   43.9520 C   0  0  0  0  0  0  0  0  0  0  0  0
   56.7006   33.2543   43.9281 H   0  0  0  0  0  0  0  0  0  0  0  0
   58.3001   33.5778   43.1591 H   0  0  0  0  0  0  0  0  0  0  0  0
   57.9660   31.5920   43.7330 N   0  0  0  0  0  0  0  0  0  0  0  0
   57.1640   30.6720   44.1830 C   0  0  0  0  0  0  0  0  0  0  0  0
   55.8440   30.8350   44.3950 N   0  0  0  0  0  0  0  0  0  0  0  0
   55.4400   29.6630   44.8710 N   0  0  0  0  0  0  0  0  0  0  0  0
   56.4620   28.8200   44.9510 N   0  0  0  0  0  0  0  0  0  0  0  0
   57.5480   29.4310   44.5140 N   0  0  0  0  0  0  0  0  0  0  0  0
   58.8900   28.8620   44.5070 C   0  0  0  0  0  0  0  0  0  0  0  0
   59.2322   28.7169   45.5423 H   0  0  0  0  0  0  0  0  0  0  0  0
   58.8747   27.8930   43.9867 H   0  0  0  0  0  0  0  0  0  0  0  0
   59.5759   29.5467   43.9867 H   0  0  0  0  0  0  0  0  0  0  0  0
   57.9780   32.7310   46.4470 C   0  0  0  0  0  0  0  0  0  0  0  0
   57.2686   31.8930   46.3803 H   0  0  0  0  0  0  0  0  0  0  0  0
   58.5140   33.0920   47.6870 C   0  0  0  0  0  0  0  0  0  0  0  0
   58.2147   32.5451   48.5933 H   0  0  0  0  0  0  0  0  0  0  0  0
   59.4320   34.1490   47.7800 C   0  0  0  0  0  0  0  0  0  0  0  0
   59.9770   34.5610   49.1160 C   0  0  0  0  0  0  0  0  0  0  0  0
   59.3736   34.1048   49.9146 H   0  0  0  0  0  0  0  0  0  0  0  0
   61.0201   34.2236   49.2064 H   0  0  0  0  0  0  0  0  0  0  0  0
   59.9368   35.6565   49.2064 H   0  0  0  0  0  0  0  0  0  0  0  0
  1  2  1  0
  2  3  2  0
  3  4  1  0
  3  5  1  0
  5  6  1  0
  6  7  1  0
  6  8  1  0
  6  9  1  0
  9 10  2  0
 10 11  1  0
 11 12  1  0
 12 13  2  0
 13 14  1  0
 14 15  1  0
 15 16  1  0
 15 17  1  0
 15 18  1  0
  5 19  2  0
 19 20  1  0
 19 21  1  0
 21 22  1  0
 21 23  2  0
 23 24  1  0
 24 25  1  0
 24 26  1  0
 24 27  1  0
 23  2  1  0
 14 10  1  0
M  CHG  1  11  -1
M  END
>  <UniqueID>  (94) 
89

>  <SMILES>  (94) 
Cc1ccc(C/N=c2\[n-]nnn2C)cc1

>  <Energy>  (94) 
65.67950515291102

>  <Genealogy>  (94) 
Cc1ccc(CN=c2[n-]nnn2C)cc1 (protonated)
Cc1ccc(C/N=c2\[n-]nnn2C)cc1 (cis-trans isomerization)
Cc1ccc(C/N=c2\[n-]nnn2C)cc1 (3D coordinates assigned)
Cc1ccc(C/N=c2\[n-]nnn2C)cc1 (optimized conformer: 65.67950515291102 kcal/mol)

>  <smiles>  (94) 
Cc1ccc(CN=c2[nH]nnn2C)cc1

>  <score_type>  (94) 
oracle

>  <origin>  (94) 
adg

>  <m_score__min__energy>  (94) 
-8.0700000000000003

>  <m_primary>  (94) 
energy

$$$$
94:0
     RDKit          3D

 30 32  0  0  0  0  0  0  0  0999 V2000
   57.3480   31.9110   42.5650 O   0  0  0  0  0  0  0  0  0  0  0  0
   57.4200   31.7140   43.8090 C   0  0  0  0  0  0  0  0  0  0  0  0
   58.0000   32.7720   44.6720 C   0  0  0  0  0  0  0  0  0  0  0  0
   58.7550   33.8270   44.1250 C   0  0  0  0  0  0  0  0  0  0  0  0
   59.2820   34.8230   44.9530 C   0  0  0  0  0  0  0  0  0  0  0  0
   59.0550   34.7820   46.3310 C   0  0  0  0  0  0  0  0  0  0  0  0
   59.5660   35.7490   47.1320 F   0  0  0  0  0  0  0  0  0  0  0  0
   58.2930   33.7490   46.8820 C   0  0  0  0  0  0  0  0  0  0  0  0
   57.7630   32.7520   46.0580 C   0  0  0  0  0  0  0  0  0  0  0  0
   56.8990   30.4480   44.3590 C   0  0  0  0  0  0  0  0  0  0  0  0
   57.6610   29.3660   44.7520 C   0  0  0  0  0  0  0  0  0  0  0  0
   56.7230   28.4280   45.1440 C   0  0  0  0  0  0  0  0  0  0  0  0
   56.9720   27.0660   45.6660 C   0  0  0  0  0  0  0  0  0  0  0  0
   55.9090   26.2030   46.0020 C   0  0  0  0  0  0  0  0  0  0  0  0
   56.1690   24.9200   46.4940 C   0  0  0  0  0  0  0  0  0  0  0  0
   57.4860   24.4850   46.6570 C   0  0  0  0  0  0  0  0  0  0  0  0
   58.5470   25.3310   46.3280 C   0  0  0  0  0  0  0  0  0  0  0  0
   58.2930   26.6150   45.8350 C   0  0  0  0  0  0  0  0  0  0  0  0
   55.5250   28.9440   44.9760 O   0  0  0  0  0  0  0  0  0  0  0  0
   55.5920   30.1530   44.5010 N   0  0  0  0  0  0  0  0  0  0  0  0
   58.9313   33.8680   43.0400 H   0  0  0  0  0  0  0  0  0  0  0  0
   59.8764   35.6403   44.5186 H   0  0  0  0  0  0  0  0  0  0  0  0
   58.1097   33.7201   47.9662 H   0  0  0  0  0  0  0  0  0  0  0  0
   57.1563   31.9461   46.4968 H   0  0  0  0  0  0  0  0  0  0  0  0
   58.7570   29.2719   44.7531 H   0  0  0  0  0  0  0  0  0  0  0  0
   54.8696   26.5406   45.8765 H   0  0  0  0  0  0  0  0  0  0  0  0
   55.3343   24.2520   46.7532 H   0  0  0  0  0  0  0  0  0  0  0  0
   57.6876   23.4755   47.0447 H   0  0  0  0  0  0  0  0  0  0  0  0
   59.5839   24.9872   46.4567 H   0  0  0  0  0  0  0  0  0  0  0  0
   59.1330   27.2769   45.5776 H   0  0  0  0  0  0  0  0  0  0  0  0
  1  2  2  0
  2  3  1  0
  3  4  2  0
  4  5  1  0
  5  6  2  0
  6  7  1  0
  6  8  1  0
  8  9  2  0
  2 10  1  0
 10 11  1  0
 11 12  2  0
 12 13  1  0
 13 14  2  0
 14 15  1  0
 15 16  2  0
 16 17  1  0
 17 18  2  0
 12 19  1  0
 19 20  1  0
  9  3  1  0
 20 10  2  0
 18 13  1  0
  4 21  1  0
  5 22  1  0
  8 23  1  0
  9 24  1  0
 11 25  1  0
 14 26  1  0
 15 27  1  0
 16 28  1  0
 17 29  1  0
 18 30  1  0
M  END
>  <UniqueID>  (95) 
90

>  <SMILES>  (95) 
O=C(c1ccc(F)cc1)c1cc(-c2ccccc2)on1

>  <Energy>  (95) 
67.98317228226676

>  <Genealogy>  (95) 
O=C(c1ccc(F)cc1)c1cc(-c2ccccc2)on1 (3D coordinates assigned)
O=C(c1ccc(F)cc1)c1cc(-c2ccccc2)on1 (optimized conformer: 67.98317228226676 kcal/mol)

>  <smiles>  (95) 
O=C(c1ccc(F)cc1)c1cc(-c2ccccc2)on1

>  <score_type>  (95) 
oracle

>  <origin>  (95) 
adg

>  <m_score__min__energy>  (95) 
-8.1099999999999994

>  <m_primary>  (95) 
energy

$$$$
