0:0
     RDKit          3D

 40 41  0  0  0  0  0  0  0  0999 V2000
   59.0050   24.0630   45.4570 O   0  0  0  0  0  0  0  0  0  0  0  0
   58.2400   25.0460   45.6610 C   0  0  0  0  0  0  0  0  0  0  0  0
   58.8040   26.3050   45.8540 C   0  0  0  0  0  0  0  0  0  0  0  0
   57.9670   27.3980   46.0560 C   0  0  0  0  0  0  0  0  0  0  0  0
   58.5360   28.7030   46.2510 N   0  0  0  0  0  0  0  0  0  0  0  0
   58.1850   29.8570   45.4680 C   0  0  0  0  0  0  0  0  0  0  0  0
   57.7110   29.6820   44.1610 C   0  0  0  0  0  0  0  0  0  0  0  0
   57.3580   30.7880   43.3850 C   0  0  0  0  0  0  0  0  0  0  0  0
   57.4520   32.0770   43.9140 C   0  0  0  0  0  0  0  0  0  0  0  0
   57.8760   32.2720   45.2400 C   0  0  0  0  0  0  0  0  0  0  0  0
   58.0110   33.6630   45.8050 C   0  0  0  0  0  0  0  0  0  0  0  0
   57.1200   34.5270   45.1910 F   0  0  0  0  0  0  0  0  0  0  0  0
   59.2920   34.1520   45.6070 F   0  0  0  0  0  0  0  0  0  0  0  0
   57.7470   33.6320   47.1610 F   0  0  0  0  0  0  0  0  0  0  0  0
   58.2560   31.1550   46.0070 C   0  0  0  0  0  0  0  0  0  0  0  0
   56.6200   27.2070   46.1110 N   0  0  0  0  0  0  0  0  0  0  0  0
   56.0730   25.9740   45.9270 C   0  0  0  0  0  0  0  0  0  0  0  0
   54.8190   25.8450   45.9840 O   0  0  0  0  0  0  0  0  0  0  0  0
   56.8760   24.8860   45.6840 N   0  0  0  0  0  0  0  0  0  0  0  0
   56.2680   23.5610   45.4430 C   0  0  0  0  0  0  0  0  0  0  0  0
   55.5660   23.4870   44.0740 C   0  0  0  0  0  0  0  0  0  0  0  0
   56.3920   22.7610   42.9940 C   0  0  0  0  0  0  0  0  0  0  0  0
   57.0950   21.5090   43.5340 C   0  0  0  0  0  0  0  0  0  0  0  0
   56.2700   20.3860   43.3780 O   0  0  0  0  0  0  0  0  0  0  0  0
   59.8965   26.4334   45.8468 H   0  0  0  0  0  0  0  0  0  0  0  0
   59.2600   28.8170   46.9970 H   0  0  0  0  0  0  0  0  0  0  0  0
   57.6165   28.6684   43.7442 H   0  0  0  0  0  0  0  0  0  0  0  0
   57.0046   30.6434   42.3534 H   0  0  0  0  0  0  0  0  0  0  0  0
   57.1928   32.9447   43.2895 H   0  0  0  0  0  0  0  0  0  0  0  0
   58.6120   31.2979   47.0379 H   0  0  0  0  0  0  0  0  0  0  0  0
   55.9880   28.0130   46.3190 H   0  0  0  0  0  0  0  0  0  0  0  0
   57.0579   22.7963   45.4785 H   0  0  0  0  0  0  0  0  0  0  0  0
   55.5109   23.3885   46.2221 H   0  0  0  0  0  0  0  0  0  0  0  0
   54.6131   22.9523   44.2006 H   0  0  0  0  0  0  0  0  0  0  0  0
   55.4233   24.5217   43.7289 H   0  0  0  0  0  0  0  0  0  0  0  0
   55.7191   22.4627   42.1766 H   0  0  0  0  0  0  0  0  0  0  0  0
   57.1696   23.4562   42.6448 H   0  0  0  0  0  0  0  0  0  0  0  0
   58.0323   21.3512   42.9804 H   0  0  0  0  0  0  0  0  0  0  0  0
   57.3102   21.6509   44.6034 H   0  0  0  0  0  0  0  0  0  0  0  0
   56.8530   19.5900   43.4870 H   0  0  0  0  0  0  0  0  0  0  0  0
  1  2  2  0
  2  3  1  0
  3  4  2  0
  4  5  1  0
  5  6  1  0
  6  7  2  0
  7  8  1  0
  8  9  2  0
  9 10  1  0
 10 11  1  0
 11 12  1  0
 11 13  1  0
 11 14  1  0
 10 15  2  0
  4 16  1  0
 16 17  1  0
 17 18  2  0
 17 19  1  0
 19 20  1  0
 20 21  1  0
 21 22  1  0
 22 23  1  0
 23 24  1  0
 19  2  1  0
 15  6  1  0
  3 25  1  0
  5 26  1  0
  7 27  1  0
  8 28  1  0
  9 29  1  0
 15 30  1  0
 16 31  1  0
 20 32  1  0
 20 33  1  0
 21 34  1  0
 21 35  1  0
 22 36  1  0
 22 37  1  0
 23 38  1  0
 23 39  1  0
 24 40  1  0
M  END
>  <UniqueID>  (1) 
1

>  <SMILES>  (1) 
O=c1cc(Nc2cccc(C(F)(F)F)c2)[nH]c(=O)n1CCCCO

>  <Energy>  (1) 
44.83449808843888

>  <Genealogy>  (1) 
O=c1cc(Nc2cccc(C(F)(F)F)c2)[nH]c(=O)n1CCCCO (3D coordinates assigned)
O=c1cc(Nc2cccc(C(F)(F)F)c2)[nH]c(=O)n1CCCCO (optimized conformer: 44.83449808843888 kcal/mol)

>  <smiles>  (1) 
O=c1cc(Nc2cccc(C(F)(F)F)c2)[nH]c(=O)n1CCCCO

>  <score_type>  (1) 
oracle

>  <origin>  (1) 
adg

>  <m_score__min__energy>  (1) 
-7.21

>  <m_primary>  (1) 
energy

$$$$
1:0
     RDKit          3D

 39 41  0  0  0  0  0  0  0  0999 V2000
   59.5389   27.8807   46.7032 H   0  0  0  0  0  0  0  0  0  0  0  0
   59.1410   28.8550   46.3830 C   0  0  0  0  0  0  0  0  0  0  0  0
   59.0370   29.9120   47.3160 C   0  0  0  0  0  0  0  0  0  0  0  0
   59.5880   29.6410   49.1230 Br  0  0  0  0  0  0  0  0  0  0  0  0
   58.5300   31.1640   46.9200 C   0  0  0  0  0  0  0  0  0  0  0  0
   58.4423   31.9936   47.6370 H   0  0  0  0  0  0  0  0  0  0  0  0
   58.1420   31.3190   45.5880 C   0  0  0  0  0  0  0  0  0  0  0  0
   57.6220   32.4020   44.9040 C   0  0  0  0  0  0  0  0  0  0  0  0
   57.2970   33.7660   45.4400 C   0  0  0  0  0  0  0  0  0  0  0  0
   56.7448   33.6604   46.3855 H   0  0  0  0  0  0  0  0  0  0  0  0
   56.6852   34.3010   44.6987 H   0  0  0  0  0  0  0  0  0  0  0  0
   58.5200   34.5310   45.6810 N   0  0  0  0  0  0  0  0  0  0  0  0
   59.5060   34.2010   46.4700 C   0  0  0  0  0  0  0  0  0  0  0  0
   59.2770   34.1780   47.8510 C   0  0  0  0  0  0  0  0  0  0  0  0
   58.2824   34.4287   48.2485 H   0  0  0  0  0  0  0  0  0  0  0  0
   60.3170   33.8350   48.7270 C   0  0  0  0  0  0  0  0  0  0  0  0
   60.0890   33.8380   50.2170 C   0  0  0  0  0  0  0  0  0  0  0  0
   59.7877   34.8490   50.5286 H   0  0  0  0  0  0  0  0  0  0  0  0
   61.0267   33.5352   50.7059 H   0  0  0  0  0  0  0  0  0  0  0  0
   58.9940   32.8440   50.6310 C   0  0  0  0  0  0  0  0  0  0  0  0
   59.4270   31.8332   50.6593 H   0  0  0  0  0  0  0  0  0  0  0  0
   58.1813   32.9141   49.8930 H   0  0  0  0  0  0  0  0  0  0  0  0
   58.4050   33.1640   52.0040 C   0  0  0  0  0  0  0  0  0  0  0  0
   59.0826   32.7959   52.7885 H   0  0  0  0  0  0  0  0  0  0  0  0
   58.2830   34.2524   52.1060 H   0  0  0  0  0  0  0  0  0  0  0  0
   57.4254   32.6741   52.1060 H   0  0  0  0  0  0  0  0  0  0  0  0
   61.5770   33.5240   48.2000 C   0  0  0  0  0  0  0  0  0  0  0  0
   62.4075   33.2593   48.8709 H   0  0  0  0  0  0  0  0  0  0  0  0
   61.7720   33.5520   46.8190 C   0  0  0  0  0  0  0  0  0  0  0  0
   62.7593   33.3059   46.4010 H   0  0  0  0  0  0  0  0  0  0  0  0
   60.7480   33.8820   45.9860 N   0  0  0  0  0  0  0  0  0  0  0  0
   60.9500   33.8810   44.9630 H   0  0  0  0  0  0  0  0  0  0  0  0
   57.4210   31.9610   43.5990 C   0  0  0  0  0  0  0  0  0  0  0  0
   57.0071   32.5756   42.7860 H   0  0  0  0  0  0  0  0  0  0  0  0
   57.8060   30.6710   43.4710 N   0  0  0  0  0  0  0  0  0  0  0  0
   57.7670   30.0910   42.6040 H   0  0  0  0  0  0  0  0  0  0  0  0
   58.2430   30.2920   44.6850 C   0  0  0  0  0  0  0  0  0  0  0  0
   58.7390   29.0410   45.0480 C   0  0  0  0  0  0  0  0  0  0  0  0
   58.8137   28.2252   44.3139 H   0  0  0  0  0  0  0  0  0  0  0  0
  1  2  1  0
  2  3  2  0
  3  4  1  0
  3  5  1  0
  5  6  1  0
  5  7  2  0
  7  8  1  0
  8  9  1  0
  9 10  1  0
  9 11  1  0
  9 12  1  0
 12 13  2  0
 13 14  1  0
 14 15  1  0
 14 16  2  0
 16 17  1  0
 17 18  1  0
 17 19  1  0
 17 20  1  0
 20 21  1  0
 20 22  1  0
 20 23  1  0
 23 24  1  0
 23 25  1  0
 23 26  1  0
 16 27  1  0
 27 28  1  0
 27 29  2  0
 29 30  1  0
 29 31  1  0
 31 32  1  0
  8 33  2  0
 33 34  1  0
 33 35  1  0
 35 36  1  0
 35 37  1  0
 37 38  2  0
 38 39  1  0
 38  2  1  0
 37  7  1  0
 31 13  1  0
M  END
>  <UniqueID>  (2) 
2

>  <SMILES>  (2) 
CCCc1cc[nH]/c(=N\Cc2c[nH]c3ccc(Br)cc23)c1

>  <Energy>  (2) 
69.52274573501046

>  <Genealogy>  (2) 
CCCc1cc[nH]/c(=N\Cc2c[nH]c3ccc(Br)cc23)c1 (cis-trans isomerization)
CCCc1cc[nH]/c(=N\Cc2c[nH]c3ccc(Br)cc23)c1 (3D coordinates assigned)
CCCc1cc[nH]/c(=N\Cc2c[nH]c3ccc(Br)cc23)c1 (optimized conformer: 69.52274573501046 kcal/mol)

>  <smiles>  (2) 
CCCc1cc[nH]c(=NCc2c[nH]c3ccc(Br)cc23)c1

>  <score_type>  (2) 
oracle

>  <origin>  (2) 
adg

>  <m_score__min__energy>  (2) 
-7.7199999999999998

>  <m_primary>  (2) 
energy

$$$$
2:0
     RDKit          3D

 36 38  0  0  0  0  0  0  0  0999 V2000
   55.4780   26.4390   46.0340 O   0  0  0  0  0  0  0  0  0  0  0  0
   56.2460   27.3690   45.6740 C   0  0  0  0  0  0  0  0  0  0  0  0
   55.6740   28.6020   45.2230 N   0  0  0  0  0  0  0  0  0  0  0  0
   56.3180   29.5780   44.3920 C   0  0  0  0  0  0  0  0  0  0  0  0
   56.0520   29.5740   43.0170 C   0  0  0  0  0  0  0  0  0  0  0  0
   56.6440   30.5230   42.1770 C   0  0  0  0  0  0  0  0  0  0  0  0
   57.4960   31.4960   42.7110 C   0  0  0  0  0  0  0  0  0  0  0  0
   58.2360   32.6880   41.6580 Cl  0  0  0  0  0  0  0  0  0  0  0  0
   57.7450   31.5240   44.0870 C   0  0  0  0  0  0  0  0  0  0  0  0
   57.1540   30.5750   44.9270 C   0  0  0  0  0  0  0  0  0  0  0  0
   57.6630   27.1600   45.6090 N   0  0  0  0  0  0  0  0  0  0  0  0
   58.6750   27.9600   46.2400 C   0  0  0  0  0  0  0  0  0  0  0  0
   58.6770   28.2050   47.6240 C   0  0  0  0  0  0  0  0  0  0  0  0
   59.6680   29.0110   48.1940 C   0  0  0  0  0  0  0  0  0  0  0  0
   60.6640   29.5830   47.3960 C   0  0  0  0  0  0  0  0  0  0  0  0
   61.6310   30.3970   48.0040 O   0  0  0  0  0  0  0  0  0  0  0  0
   62.0620   31.6440   47.5280 C   0  0  0  0  0  0  0  0  0  0  0  0
   61.1050   32.5630   47.0860 C   0  0  0  0  0  0  0  0  0  0  0  0
   61.5130   33.8160   46.6230 C   0  0  0  0  0  0  0  0  0  0  0  0
   62.8330   34.1450   46.6160 N   0  0  0  0  0  0  0  0  0  0  0  0
   63.7840   33.2780   47.0560 C   0  0  0  0  0  0  0  0  0  0  0  0
   63.4180   32.0150   47.5270 C   0  0  0  0  0  0  0  0  0  0  0  0
   60.6360   29.3730   46.0060 C   0  0  0  0  0  0  0  0  0  0  0  0
   59.6450   28.5680   45.4360 C   0  0  0  0  0  0  0  0  0  0  0  0
   55.3726   28.8191   42.5945 H   0  0  0  0  0  0  0  0  0  0  0  0
   56.4397   30.5043   41.0963 H   0  0  0  0  0  0  0  0  0  0  0  0
   58.4071   32.2942   44.5094 H   0  0  0  0  0  0  0  0  0  0  0  0
   57.3435   30.6082   46.0100 H   0  0  0  0  0  0  0  0  0  0  0  0
   57.8971   27.7617   48.2606 H   0  0  0  0  0  0  0  0  0  0  0  0
   59.6639   29.1964   49.2783 H   0  0  0  0  0  0  0  0  0  0  0  0
   60.0369   32.3005   47.1029 H   0  0  0  0  0  0  0  0  0  0  0  0
   60.7654   34.5383   46.2633 H   0  0  0  0  0  0  0  0  0  0  0  0
   64.8438   33.5721   47.0409 H   0  0  0  0  0  0  0  0  0  0  0  0
   64.1844   31.3165   47.8941 H   0  0  0  0  0  0  0  0  0  0  0  0
   61.3961   29.8435   45.3650 H   0  0  0  0  0  0  0  0  0  0  0  0
   59.6280   28.4116   44.3473 H   0  0  0  0  0  0  0  0  0  0  0  0
  1  2  2  0
  2  3  1  0
  3  4  1  0
  4  5  2  0
  5  6  1  0
  6  7  2  0
  7  8  1  0
  7  9  1  0
  9 10  2  0
  2 11  1  0
 11 12  1  0
 12 13  2  0
 13 14  1  0
 14 15  2  0
 15 16  1  0
 16 17  1  0
 17 18  2  0
 18 19  1  0
 19 20  2  0
 20 21  1  0
 21 22  2  0
 15 23  1  0
 23 24  2  0
 10  4  1  0
 24 12  1  0
 22 17  1  0
  5 25  1  0
  6 26  1  0
  9 27  1  0
 10 28  1  0
 13 29  1  0
 14 30  1  0
 18 31  1  0
 19 32  1  0
 21 33  1  0
 22 34  1  0
 23 35  1  0
 24 36  1  0
M  CHG  2   3  -1  11  -1
M  END
>  <UniqueID>  (3) 
3

>  <SMILES>  (3) 
O=C([N-]c1ccc(Cl)cc1)[N-]c1ccc(Oc2ccncc2)cc1

>  <Energy>  (3) 
52.86791971587208

>  <Genealogy>  (3) 
O=C([N-]c1ccc(Cl)cc1)[N-]c1ccc(Oc2ccncc2)cc1 (protonated)
O=C([N-]c1ccc(Cl)cc1)[N-]c1ccc(Oc2ccncc2)cc1 (3D coordinates assigned)
O=C([N-]c1ccc(Cl)cc1)[N-]c1ccc(Oc2ccncc2)cc1 (optimized conformer: 52.86791971587208 kcal/mol)

>  <smiles>  (3) 
O=C(Nc1ccc(Cl)cc1)Nc1ccc(Oc2ccncc2)cc1

>  <score_type>  (3) 
oracle

>  <origin>  (3) 
adg

>  <m_score__min__energy>  (3) 
-10.710000000000001

>  <m_primary>  (3) 
energy

$$$$
3:0
     RDKit          3D

 67 71  0  0  1  0  0  0  0  0999 V2000
   59.2830   33.2910   49.8520 C   0  0  0  0  0  0  0  0  0  0  0  0
   59.1450   33.5010   48.5700 O   0  0  0  0  0  0  0  0  0  0  0  0
   58.9800   33.7170   47.3250 C   0  0  0  0  0  0  0  0  0  0  0  0
   57.6320   33.6290   46.8460 C   0  0  0  0  0  0  0  0  0  0  0  0
   57.3070   33.8260   45.5500 C   0  0  0  0  0  0  0  0  0  0  0  0
   58.2880   34.1200   44.6560 C   0  0  0  0  0  0  0  0  0  0  0  0
   59.5760   34.2060   45.1080 C   0  0  0  0  0  0  0  0  0  0  0  0
   59.9870   34.0180   46.4280 C   0  0  0  0  0  0  0  0  0  0  0  0
   61.4310   34.2120   46.8210 C   0  0  0  0  0  0  0  0  0  0  0  0
   59.7320   30.0470   49.4480 N   0  0  0  0  0  0  0  0  0  0  0  0
   60.8440   30.6720   49.2940 C   0  0  0  0  0  0  0  0  0  0  0  0
   60.9590   31.5560   48.2870 N   0  0  0  0  0  0  0  0  0  0  0  0
   62.0920   32.2880   48.0650 C   0  0  0  0  0  0  0  0  0  0  0  0
   62.1030   33.0820   47.1550 N   0  0  0  0  0  0  0  0  0  0  0  0
   59.2600   29.1380   48.4800 C   0  0  2  0  0  0  0  0  0  0  0  0
   60.3180   28.0240   48.4120 C   0  0  0  0  0  0  0  0  0  0  0  0
   59.8830   26.8980   47.5580 C   0  0  0  0  0  0  0  0  0  0  0  0
   60.7670   26.2260   46.6990 C   0  0  0  0  0  0  0  0  0  0  0  0
   60.1980   25.2000   45.9720 C   0  0  0  0  0  0  0  0  0  0  0  0
   58.8920   24.8280   46.0410 C   0  0  0  0  0  0  0  0  0  0  0  0
   58.0130   25.4870   46.8870 C   0  0  0  0  0  0  0  0  0  0  0  0
   58.5590   26.5220   47.6310 C   0  0  0  0  0  0  0  0  0  0  0  0
   59.0880   29.6130   47.0980 C   0  0  0  0  0  0  0  0  0  0  0  0
   60.1280   30.0830   46.5020 O   0  0  0  0  0  0  0  0  0  0  0  0
   57.8220   29.5510   46.4680 N   0  0  0  0  0  0  0  0  0  0  0  0
   57.5190   29.9760   45.1800 C   0  0  0  0  0  0  0  0  0  0  0  0
   56.3780   29.3540   44.5810 C   0  0  0  0  0  0  0  0  0  0  0  0
   56.0310   29.7250   43.3050 C   0  0  0  0  0  0  0  0  0  0  0  0
   56.7070   30.6600   42.5570 C   0  0  0  0  0  0  0  0  0  0  0  0
   57.8290   31.2760   43.1400 C   0  0  0  0  0  0  0  0  0  0  0  0
   58.1400   30.8850   44.4000 C   0  0  0  0  0  0  0  0  0  0  0  0
   61.9130   30.5320   50.0900 N   0  0  0  0  0  0  0  0  0  0  0  0
   63.0490   31.2230   49.9140 C   0  0  0  0  0  0  0  0  0  0  0  0
   64.1070   31.0260   50.7740 C   0  0  0  0  0  0  0  0  0  0  0  0
   65.2340   31.7740   50.5220 C   0  0  0  0  0  0  0  0  0  0  0  0
   65.3750   32.6710   49.5120 C   0  0  0  0  0  0  0  0  0  0  0  0
   64.2870   32.8740   48.6260 C   0  0  0  0  0  0  0  0  0  0  0  0
   63.1770   32.1320   48.8840 C   0  0  0  0  0  0  0  0  0  0  0  0
   58.7628   34.0826   50.4113 H   0  0  0  0  0  0  0  0  0  0  0  0
   58.8506   32.3136   50.1121 H   0  0  0  0  0  0  0  0  0  0  0  0
   60.3518   33.3000   50.1121 H   0  0  0  0  0  0  0  0  0  0  0  0
   56.8311   33.3918   47.5617 H   0  0  0  0  0  0  0  0  0  0  0  0
   56.2600   33.7494   45.2215 H   0  0  0  0  0  0  0  0  0  0  0  0
   58.0515   34.2848   43.5944 H   0  0  0  0  0  0  0  0  0  0  0  0
   60.3542   34.4436   44.3678 H   0  0  0  0  0  0  0  0  0  0  0  0
   61.9532   34.6784   45.9726 H   0  0  0  0  0  0  0  0  0  0  0  0
   61.4157   34.8332   47.7287 H   0  0  0  0  0  0  0  0  0  0  0  0
   60.1320   31.6690   47.6710 H   0  0  0  0  0  0  0  0  0  0  0  0
   58.2471   28.8658   48.8116 H   0  0  0  0  0  0  0  0  0  0  0  0
   61.2485   28.4426   48.0009 H   0  0  0  0  0  0  0  0  0  0  0  0
   60.4711   27.6383   49.4307 H   0  0  0  0  0  0  0  0  0  0  0  0
   61.8298   26.4960   46.6122 H   0  0  0  0  0  0  0  0  0  0  0  0
   60.8503   24.6411   45.2849 H   0  0  0  0  0  0  0  0  0  0  0  0
   58.5292   23.9960   45.4195 H   0  0  0  0  0  0  0  0  0  0  0  0
   56.9519   25.2071   46.9630 H   0  0  0  0  0  0  0  0  0  0  0  0
   57.8992   27.0732   48.3172 H   0  0  0  0  0  0  0  0  0  0  0  0
   57.0290   29.1340   47.0450 H   0  0  0  0  0  0  0  0  0  0  0  0
   55.7944   28.5989   45.1279 H   0  0  0  0  0  0  0  0  0  0  0  0
   55.1534   29.2417   42.8509 H   0  0  0  0  0  0  0  0  0  0  0  0
   56.3816   30.9172   41.5382 H   0  0  0  0  0  0  0  0  0  0  0  0
   58.4207   32.0324   42.6037 H   0  0  0  0  0  0  0  0  0  0  0  0
   59.0174   31.3751   44.8471 H   0  0  0  0  0  0  0  0  0  0  0  0
   61.8800   29.8690   50.8790 H   0  0  0  0  0  0  0  0  0  0  0  0
   64.0540   30.3142   51.6110 H   0  0  0  0  0  0  0  0  0  0  0  0
   66.0928   31.6338   51.1949 H   0  0  0  0  0  0  0  0  0  0  0  0
   66.3144   33.2288   49.3840 H   0  0  0  0  0  0  0  0  0  0  0  0
   64.3373   33.5835   47.7869 H   0  0  0  0  0  0  0  0  0  0  0  0
  1  2  1  0
  2  3  1  0
  3  4  2  0
  4  5  1  0
  5  6  2  0
  6  7  1  0
  7  8  2  0
  8  9  1  0
  9 10  1  0
 10 11  2  0
 11 12  1  0
 12 13  1  0
 13 14  2  0
 14 15  1  0
 15 16  1  0
 16 17  1  0
 17 18  2  0
 18 19  1  0
 19 20  2  0
 20 21  1  0
 21 22  2  0
 15 23  1  0
 23 24  2  0
 23 25  1  0
 25 26  1  0
 26 27  2  0
 27 28  1  0
 28 29  2  0
 29 30  1  0
 30 31  2  0
 13 32  1  0
 32 33  1  0
 33 34  2  0
 34 35  1  0
 35 36  2  0
 36 37  1  0
 37 38  2  0
  8  3  1  0
 38 11  1  0
 22 17  1  0
 31 26  1  0
 38 33  1  0
  1 39  1  0
  1 40  1  0
  1 41  1  0
  4 42  1  0
  5 43  1  0
  6 44  1  0
  7 45  1  0
  9 46  1  0
  9 47  1  0
 12 48  1  0
 15 49  1  1
 16 50  1  0
 16 51  1  0
 18 52  1  0
 19 53  1  0
 20 54  1  0
 21 55  1  0
 22 56  1  0
 25 57  1  0
 27 58  1  0
 28 59  1  0
 29 60  1  0
 30 61  1  0
 31 62  1  0
 32 63  1  0
 34 64  1  0
 35 65  1  0
 36 66  1  0
 37 67  1  0
M  END
>  <smiles>  (4) 
COc1ccccc1CN=c1[nH]c(=NC(Cc2ccccc2)C(=O)Nc2ccccc2)[nH]c2ccccc12

>  <score_type>  (4) 
oracle

>  <origin>  (4) 
adg

>  <m_score__min__energy>  (4) 
-10.359999999999999

>  <m_primary>  (4) 
energy

$$$$
4:0
     RDKit          3D

 48 50  0  0  0  0  0  0  0  0999 V2000
   57.0090   20.7180   43.0010 C   0  0  0  0  0  0  0  0  0  0  0  0
   55.9170   21.6250   43.1100 O   0  0  0  0  0  0  0  0  0  0  0  0
   55.9460   22.8130   43.8570 C   0  0  0  0  0  0  0  0  0  0  0  0
   54.9820   22.9940   44.8560 C   0  0  0  0  0  0  0  0  0  0  0  0
   54.9690   24.1600   45.6270 C   0  0  0  0  0  0  0  0  0  0  0  0
   55.9200   25.1670   45.4050 C   0  0  0  0  0  0  0  0  0  0  0  0
   55.9260   26.4050   46.2630 C   0  0  0  0  0  0  0  0  0  0  0  0
   57.0050   27.3140   45.8410 N   0  0  0  0  0  0  0  0  0  0  0  0
   58.2970   26.9720   46.1080 C   0  0  0  0  0  0  0  0  0  0  0  0
   59.3490   27.7920   45.7050 C   0  0  0  0  0  0  0  0  0  0  0  0
   60.7730   27.4060   45.9970 C   0  0  0  0  0  0  0  0  0  0  0  0
   59.0470   28.9640   45.0010 C   0  0  0  0  0  0  0  0  0  0  0  0
   59.9900   29.7130   44.6190 O   0  0  0  0  0  0  0  0  0  0  0  0
   57.7430   29.2910   44.7260 N   0  0  0  0  0  0  0  0  0  0  0  0
   57.4240   30.5450   44.0120 C   0  0  0  0  0  0  0  0  0  0  0  0
   57.8870   31.7380   44.8100 C   0  0  0  0  0  0  0  0  0  0  0  0
   58.1150   31.6260   46.1910 C   0  0  0  0  0  0  0  0  0  0  0  0
   58.5750   32.7240   46.9230 C   0  0  0  0  0  0  0  0  0  0  0  0
   58.8290   33.9460   46.2820 C   0  0  0  0  0  0  0  0  0  0  0  0
   59.2850   35.1340   47.0750 C   0  0  0  0  0  0  0  0  0  0  0  0
   58.5880   34.0640   44.9060 C   0  0  0  0  0  0  0  0  0  0  0  0
   58.1290   32.9660   44.1730 C   0  0  0  0  0  0  0  0  0  0  0  0
   56.7270   28.4660   45.1480 C   0  0  0  0  0  0  0  0  0  0  0  0
   55.5260   28.7670   44.8950 O   0  0  0  0  0  0  0  0  0  0  0  0
   56.8930   24.9860   44.4100 C   0  0  0  0  0  0  0  0  0  0  0  0
   56.9060   23.8190   43.6380 C   0  0  0  0  0  0  0  0  0  0  0  0
   57.3513   20.4337   44.0070 H   0  0  0  0  0  0  0  0  0  0  0  0
   56.6858   19.8189   42.4559 H   0  0  0  0  0  0  0  0  0  0  0  0
   57.8336   21.2007   42.4559 H   0  0  0  0  0  0  0  0  0  0  0  0
   54.2289   22.2126   45.0356 H   0  0  0  0  0  0  0  0  0  0  0  0
   54.2091   24.2885   46.4119 H   0  0  0  0  0  0  0  0  0  0  0  0
   54.9587   26.9195   46.1645 H   0  0  0  0  0  0  0  0  0  0  0  0
   56.0928   26.1136   47.3105 H   0  0  0  0  0  0  0  0  0  0  0  0
   58.5117   26.0379   46.6478 H   0  0  0  0  0  0  0  0  0  0  0  0
   60.9258   27.3646   47.0855 H   0  0  0  0  0  0  0  0  0  0  0  0
   60.9824   26.4187   45.5595 H   0  0  0  0  0  0  0  0  0  0  0  0
   61.4523   28.1524   45.5595 H   0  0  0  0  0  0  0  0  0  0  0  0
   57.9296   30.5443   43.0351 H   0  0  0  0  0  0  0  0  0  0  0  0
   56.3346   30.6094   43.8743 H   0  0  0  0  0  0  0  0  0  0  0  0
   57.9304   30.6683   46.6997 H   0  0  0  0  0  0  0  0  0  0  0  0
   58.7387   32.6298   48.0067 H   0  0  0  0  0  0  0  0  0  0  0  0
   59.2000   34.9124   48.1491 H   0  0  0  0  0  0  0  0  0  0  0  0
   60.3333   35.3587   46.8288 H   0  0  0  0  0  0  0  0  0  0  0  0
   58.6563   36.0024   46.8288 H   0  0  0  0  0  0  0  0  0  0  0  0
   58.7610   35.0256   44.4006 H   0  0  0  0  0  0  0  0  0  0  0  0
   57.9563   33.0643   43.0911 H   0  0  0  0  0  0  0  0  0  0  0  0
   57.6493   25.7655   44.2361 H   0  0  0  0  0  0  0  0  0  0  0  0
   57.6693   23.6872   42.8570 H   0  0  0  0  0  0  0  0  0  0  0  0
  1  2  1  0
  2  3  1  0
  3  4  2  0
  4  5  1  0
  5  6  2  0
  6  7  1  0
  7  8  1  0
  8  9  1  0
  9 10  2  0
 10 11  1  0
 10 12  1  0
 12 13  2  0
 12 14  1  0
 14 15  1  0
 15 16  1  0
 16 17  2  0
 17 18  1  0
 18 19  2  0
 19 20  1  0
 19 21  1  0
 21 22  2  0
 14 23  1  0
 23 24  2  0
  6 25  1  0
 25 26  2  0
 26  3  1  0
 23  8  1  0
 22 16  1  0
  1 27  1  0
  1 28  1  0
  1 29  1  0
  4 30  1  0
  5 31  1  0
  7 32  1  0
  7 33  1  0
  9 34  1  0
 11 35  1  0
 11 36  1  0
 11 37  1  0
 15 38  1  0
 15 39  1  0
 17 40  1  0
 18 41  1  0
 20 42  1  0
 20 43  1  0
 20 44  1  0
 21 45  1  0
 22 46  1  0
 25 47  1  0
 26 48  1  0
M  END
>  <UniqueID>  (5) 
4

>  <SMILES>  (5) 
COc1ccc(Cn2cc(C)c(=O)n(Cc3ccc(C)cc3)c2=O)cc1

>  <Energy>  (5) 
53.30203860823327

>  <Genealogy>  (5) 
COc1ccc(Cn2cc(C)c(=O)n(Cc3ccc(C)cc3)c2=O)cc1 (3D coordinates assigned)
COc1ccc(Cn2cc(C)c(=O)n(Cc3ccc(C)cc3)c2=O)cc1 (optimized conformer: 53.30203860823327 kcal/mol)

>  <smiles>  (5) 
COc1ccc(Cn2cc(C)c(=O)n(Cc3ccc(C)cc3)c2=O)cc1

>  <score_type>  (5) 
oracle

>  <origin>  (5) 
adg

>  <m_score__min__energy>  (5) 
-8.2799999999999994

>  <m_primary>  (5) 
energy

$$$$
5:0
     RDKit          3D

 35 37  0  0  0  0  0  0  0  0999 V2000
   59.8543   27.8770   43.2125 H   0  0  0  0  0  0  0  0  0  0  0  0
   59.2630   27.9520   44.1370 C   0  0  0  0  0  0  0  0  0  0  0  0
   59.6400   28.8550   45.1360 C   0  0  0  0  0  0  0  0  0  0  0  0
   60.5337   29.4815   44.9993 H   0  0  0  0  0  0  0  0  0  0  0  0
   58.8820   28.9650   46.3130 C   0  0  0  0  0  0  0  0  0  0  0  0
   59.2760   29.8680   47.3630 N   0  0  0  0  0  0  0  0  0  0  0  0
   59.9930   29.5320   48.4710 C   0  0  0  0  0  0  0  0  0  0  0  0
   60.6260   28.0520   48.7780 S   0  0  0  0  0  0  0  0  0  0  0  0
   60.2890   30.8830   49.4350 S   0  0  0  0  0  0  0  0  0  0  0  0
   59.4540   31.8740   48.3610 C   0  0  0  0  0  0  0  0  0  0  0  0
   59.2430   33.6430   48.5460 S   0  0  0  0  0  0  0  0  0  0  0  0
   59.7870   34.0520   46.8480 C   0  0  0  0  0  0  0  0  0  0  0  0
   60.6248   33.3940   46.5741 H   0  0  0  0  0  0  0  0  0  0  0  0
   60.0931   35.1084   46.8316 H   0  0  0  0  0  0  0  0  0  0  0  0
   58.6820   33.8710   45.8520 C   0  0  0  0  0  0  0  0  0  0  0  0
   57.6430   34.5780   45.9470 O   0  0  0  0  0  0  0  0  0  0  0  0
   58.8160   32.8890   44.8130 N   0  0  0  0  0  0  0  0  0  0  0  0
   57.9810   31.9230   44.5670 C   0  0  0  0  0  0  0  0  0  0  0  0
   57.0940   31.4260   45.4520 N   0  0  0  0  0  0  0  0  0  0  0  0
   56.4270   30.5050   44.8190 O   0  0  0  0  0  0  0  0  0  0  0  0
   56.8430   30.3860   43.5780 C   0  0  0  0  0  0  0  0  0  0  0  0
   56.2600   29.4470   42.5770 C   0  0  0  0  0  0  0  0  0  0  0  0
   55.7494   28.6247   43.0996 H   0  0  0  0  0  0  0  0  0  0  0  0
   55.5372   29.9856   41.9465 H   0  0  0  0  0  0  0  0  0  0  0  0
   57.0633   29.0381   41.9465 H   0  0  0  0  0  0  0  0  0  0  0  0
   57.8590   31.2920   43.3510 C   0  0  0  0  0  0  0  0  0  0  0  0
   58.4296   31.4662   42.4269 H   0  0  0  0  0  0  0  0  0  0  0  0
   58.9810   31.1670   47.3130 N   0  0  0  0  0  0  0  0  0  0  0  0
   58.4290   31.5980   46.5370 H   0  0  0  0  0  0  0  0  0  0  0  0
   57.7590   28.1400   46.4870 C   0  0  0  0  0  0  0  0  0  0  0  0
   57.1707   28.2048   47.4142 H   0  0  0  0  0  0  0  0  0  0  0  0
   57.3850   27.2370   45.4880 C   0  0  0  0  0  0  0  0  0  0  0  0
   56.4999   26.5987   45.6268 H   0  0  0  0  0  0  0  0  0  0  0  0
   58.1360   27.1450   44.3120 C   0  0  0  0  0  0  0  0  0  0  0  0
   57.7750   26.2640   43.3460 F   0  0  0  0  0  0  0  0  0  0  0  0
  1  2  1  0
  2  3  2  0
  3  4  1  0
  3  5  1  0
  5  6  1  0
  6  7  1  0
  7  8  2  0
  7  9  1  0
  9 10  1  0
 10 11  1  0
 11 12  1  0
 12 13  1  0
 12 14  1  0
 12 15  1  0
 15 16  2  0
 15 17  1  0
 17 18  2  0
 18 19  1  0
 19 20  1  0
 20 21  1  0
 21 22  1  0
 22 23  1  0
 22 24  1  0
 22 25  1  0
 21 26  2  0
 26 27  1  0
 10 28  2  0
 28 29  1  0
  5 30  2  0
 30 31  1  0
 30 32  1  0
 32 33  1  0
 32 34  2  0
 34 35  1  0
 34  2  1  0
 28  6  1  0
 26 18  1  0
M  CHG  2  19  -1  28   1
M  END
>  <UniqueID>  (6) 
5

>  <SMILES>  (6) 
Cc1c/c(=N/C(=O)CSc2[nH+]n(-c3ccc(F)cc3)c(=S)s2)[n-]o1

>  <Energy>  (6) 
103.31671691344452

>  <Genealogy>  (6) 
Cc1cc(=NC(=O)CSc2[nH+]n(-c3ccc(F)cc3)c(=S)s2)[n-]o1 (protonated)
Cc1c/c(=N/C(=O)CSc2[nH+]n(-c3ccc(F)cc3)c(=S)s2)[n-]o1 (cis-trans isomerization)
Cc1c/c(=N/C(=O)CSc2[nH+]n(-c3ccc(F)cc3)c(=S)s2)[n-]o1 (3D coordinates assigned)
Cc1c/c(=N/C(=O)CSc2[nH+]n(-c3ccc(F)cc3)c(=S)s2)[n-]o1 (optimized conformer: 103.31671691344452 kcal/mol)

>  <smiles>  (6) 
Cc1cc(=NC(=O)CSc2nn(-c3ccc(F)cc3)c(=S)s2)[nH]o1

>  <score_type>  (6) 
oracle

>  <origin>  (6) 
adg

>  <m_score__min__energy>  (6) 
-9.0299999999999994

>  <m_primary>  (6) 
energy

$$$$
6:0
     RDKit          3D

 49 52  0  0  1  0  0  0  0  0999 V2000
   59.7190   26.3070   48.0990 N   0  0  0  0  0  0  0  0  0  0  0  0
   59.0200   26.9660   47.4440 C   0  0  0  0  0  0  0  0  0  0  0  0
   58.1370   27.7980   46.6490 C   0  0  0  0  0  0  0  0  0  0  0  0
   56.9310   27.2610   46.3020 C   0  0  0  0  0  0  0  0  0  0  0  0
   56.0670   27.9780   45.5670 N   0  0  0  0  0  0  0  0  0  0  0  0
   56.4040   29.2200   45.1810 C   0  0  0  0  0  0  0  0  0  0  0  0
   55.5480   29.8830   44.4730 N   0  0  0  0  0  0  0  0  0  0  0  0
   57.6340   29.7950   45.5220 C   0  0  0  0  0  0  0  0  0  0  0  0
   57.8670   31.1350   45.0200 C   0  0  0  0  0  0  0  0  0  0  0  0
   57.7120   31.5270   43.7640 N   0  0  0  0  0  0  0  0  0  0  0  0
   57.9420   32.7860   43.3520 C   0  0  0  0  0  0  0  0  0  0  0  0
   58.3630   33.7710   44.2190 C   0  0  0  0  0  0  0  0  0  0  0  0
   58.5360   33.3980   45.5430 C   0  0  0  0  0  0  0  0  0  0  0  0
   58.9570   34.3870   46.4070 C   0  0  0  0  0  0  0  0  0  0  0  0
   59.1350   34.0440   47.7220 C   0  0  0  0  0  0  0  0  0  0  0  0
   58.9060   32.7490   48.1810 C   0  0  0  0  0  0  0  0  0  0  0  0
   59.1510   32.3540   49.8890 S   0  0  0  0  0  0  0  0  0  0  0  0
   59.0010   33.5520   50.7580 O   0  0  0  0  0  0  0  0  0  0  0  0
   58.0770   31.3320   50.2170 O   0  0  0  0  0  0  0  0  0  0  0  0
   60.7300   31.6640   49.9820 N   0  0  0  0  0  0  0  0  0  0  0  0
   61.7020   32.0230   49.2150 C   0  0  0  0  0  0  0  0  0  0  0  0
   62.4680   33.1170   49.5450 C   0  0  0  0  0  0  0  0  0  0  0  0
   63.5010   33.4750   48.7000 C   0  0  0  0  0  0  0  0  0  0  0  0
   63.7790   32.7830   47.5660 N   0  0  0  0  0  0  0  0  0  0  0  0
   63.0060   31.7090   47.2710 C   0  0  0  0  0  0  0  0  0  0  0  0
   61.9940   31.3520   48.0870 N   0  0  0  0  0  0  0  0  0  0  0  0
   58.4870   31.8030   47.2720 C   0  0  0  0  0  0  0  0  0  0  0  0
   58.2910   32.0980   45.9370 C   0  0  0  0  0  0  0  0  0  0  0  0
   58.5330   29.0890   46.2690 C   0  0  0  0  0  0  0  0  0  0  0  0
   59.7670   29.4930   46.6840 O   0  0  0  0  0  0  0  0  0  0  0  0
   60.9740   29.5390   46.0210 C   0  0  0  0  0  0  0  0  0  0  0  0
   61.2170   28.5580   44.9270 C   0  0  0  0  0  0  0  0  0  0  0  0
   62.2900   28.9330   44.1210 F   0  0  0  0  0  0  0  0  0  0  0  0
   61.3050   27.2560   45.3530 F   0  0  0  0  0  0  0  0  0  0  0  0
   60.1100   28.6010   44.0800 F   0  0  0  0  0  0  0  0  0  0  0  0
   56.6679   26.2427   46.6242 H   0  0  0  0  0  0  0  0  0  0  0  0
   55.1410   27.5430   45.3110 H   0  0  0  0  0  0  0  0  0  0  0  0
   55.9110   30.6530   43.8720 H   0  0  0  0  0  0  0  0  0  0  0  0
   57.7897   33.0371   42.2919 H   0  0  0  0  0  0  0  0  0  0  0  0
   58.5519   34.7997   43.8783 H   0  0  0  0  0  0  0  0  0  0  0  0
   59.1429   35.4122   46.0542 H   0  0  0  0  0  0  0  0  0  0  0  0
   59.4680   34.8128   48.4348 H   0  0  0  0  0  0  0  0  0  0  0  0
   62.2631   33.6929   50.4595 H   0  0  0  0  0  0  0  0  0  0  0  0
   64.1181   34.3493   48.9547 H   0  0  0  0  0  0  0  0  0  0  0  0
   64.5720   33.0720   46.9360 H   0  0  0  0  0  0  0  0  0  0  0  0
   63.2058   31.1253   46.3603 H   0  0  0  0  0  0  0  0  0  0  0  0
   58.3020   30.7765   47.6214 H   0  0  0  0  0  0  0  0  0  0  0  0
   61.0672   30.5440   45.5837 H   0  0  0  0  0  0  0  0  0  0  0  0
   61.7159   29.2772   46.7898 H   0  0  0  0  0  0  0  0  0  0  0  0
  1  2  3  0
  2  3  1  0
  3  4  2  0
  4  5  1  0
  5  6  1  0
  6  7  2  3
  6  8  1  0
  8  9  1  0
  9 10  2  0
 10 11  1  0
 11 12  2  0
 12 13  1  0
 13 14  2  0
 14 15  1  0
 15 16  2  0
 16 17  1  0
 17 18  2  0
 17 19  2  0
 17 20  1  0
 20 21  2  0
 21 22  1  0
 22 23  2  0
 23 24  1  0
 24 25  1  0
 25 26  2  0
 16 27  1  0
 27 28  2  0
  8 29  2  0
 29 30  1  0
 30 31  1  0
 31 32  1  0
 32 33  1  0
 32 34  1  0
 32 35  1  0
 29  3  1  0
 28  9  1  0
 28 13  1  0
 26 21  1  0
  4 36  1  0
  5 37  1  0
  7 38  1  0
 11 39  1  0
 12 40  1  0
 14 41  1  0
 15 42  1  0
 22 43  1  0
 23 44  1  0
 24 45  1  0
 25 46  1  0
 27 47  1  0
 31 48  1  0
 31 49  1  0
M  END
>  <smiles>  (7) 
N#Cc1c[nH]c(=N)c(-c2nccc3ccc(S(=O)(=O)N=c4cc[nH]cn4)cc23)c1OCC(F)(F)F

>  <score_type>  (7) 
oracle

>  <origin>  (7) 
adg

>  <m_score__min__energy>  (7) 
-8.3000000000000007

>  <m_primary>  (7) 
energy

$$$$
7:0
     RDKit          3D

 66 69  0  0  0  0  0  0  0  0999 V2000
   57.7310   33.6630   46.9900 N   0  0  0  0  0  0  0  0  0  0  0  0
   57.6260   34.2070   45.6370 C   0  0  0  0  0  0  0  0  0  0  0  0
   57.4860   33.1010   44.6320 C   0  0  0  0  0  0  0  0  0  0  0  0
   58.2380   33.0380   43.4600 C   0  0  0  0  0  0  0  0  0  0  0  0
   57.8540   31.6070   42.6660 S   0  0  0  0  0  0  0  0  0  0  0  0
   56.7300   31.0650   43.7920 C   0  0  0  0  0  0  0  0  0  0  0  0
   56.0450   29.7400   43.7510 C   0  0  0  0  0  0  0  0  0  0  0  0
   55.9580   29.2030   45.1020 N   0  0  0  0  0  0  0  0  0  0  0  0
   56.6470   28.0200   45.5110 C   0  0  0  0  0  0  0  0  0  0  0  0
   56.0080   27.0490   46.0020 O   0  0  0  0  0  0  0  0  0  0  0  0
   58.1290   27.9120   45.2740 C   0  0  2  0  0  0  0  0  0  0  0  0
   58.5780   26.4510   45.2370 C   0  0  0  0  0  0  0  0  0  0  0  0
   59.8920   26.4010   46.0130 C   0  0  0  0  0  0  0  0  0  0  0  0
   59.8930   27.6320   46.9110 C   0  0  0  0  0  0  0  0  0  0  0  0
   58.8890   28.5260   46.3570 N   0  0  0  0  0  0  0  0  0  0  0  0
   58.7950   29.9240   46.6890 C   0  0  0  0  0  0  0  0  0  0  0  0
   57.6580   30.4720   46.7070 O   0  0  0  0  0  0  0  0  0  0  0  0
   60.0420   30.7280   47.0140 C   0  0  2  0  0  0  0  0  0  0  0  0
   60.6020   30.3840   48.4180 C   0  0  0  0  0  0  0  0  0  0  0  0
   59.6080   30.6980   49.5120 C   0  0  0  0  0  0  0  0  0  0  0  0
   59.1090   29.6810   50.3430 C   0  0  0  0  0  0  0  0  0  0  0  0
   58.1730   29.9770   51.3390 C   0  0  0  0  0  0  0  0  0  0  0  0
   57.7360   31.2910   51.5210 C   0  0  0  0  0  0  0  0  0  0  0  0
   58.2380   32.3120   50.7100 C   0  0  0  0  0  0  0  0  0  0  0  0
   59.1730   32.0210   49.7120 C   0  0  0  0  0  0  0  0  0  0  0  0
   59.8490   32.1830   46.8150 N   0  0  0  0  0  0  0  0  0  0  0  0
   61.0440   32.9460   46.3830 C   0  0  0  0  0  0  0  0  0  0  0  0
   61.9880   33.2610   47.5220 C   0  0  0  0  0  0  0  0  0  0  0  0
   63.3010   32.7580   47.5120 C   0  0  0  0  0  0  0  0  0  0  0  0
   64.1670   33.0260   48.5770 C   0  0  0  0  0  0  0  0  0  0  0  0
   63.7260   33.7830   49.6650 C   0  0  0  0  0  0  0  0  0  0  0  0
   62.4140   34.2620   49.6990 C   0  0  0  0  0  0  0  0  0  0  0  0
   61.5440   33.9940   48.6380 C   0  0  0  0  0  0  0  0  0  0  0  0
   56.6570   31.9870   44.8280 C   0  0  0  0  0  0  0  0  0  0  0  0
   57.6840   32.6200   46.9440 H   0  0  0  0  0  0  0  0  0  0  0  0
   58.6440   33.9420   47.4190 H   0  0  0  0  0  0  0  0  0  0  0  0
   56.9410   34.0130   47.5810 H   0  0  0  0  0  0  0  0  0  0  0  0
   56.7445   34.8624   45.5783 H   0  0  0  0  0  0  0  0  0  0  0  0
   58.5397   34.7768   45.4121 H   0  0  0  0  0  0  0  0  0  0  0  0
   58.9583   33.7941   43.1144 H   0  0  0  0  0  0  0  0  0  0  0  0
   55.0329   29.8619   43.3378 H   0  0  0  0  0  0  0  0  0  0  0  0
   56.6167   29.0483   43.1148 H   0  0  0  0  0  0  0  0  0  0  0  0
   58.3152   28.4186   44.3155 H   0  0  0  0  0  0  0  0  0  0  0  0
   57.8257   25.8066   45.7153 H   0  0  0  0  0  0  0  0  0  0  0  0
   58.7028   26.0914   44.2050 H   0  0  0  0  0  0  0  0  0  0  0  0
   59.9437   25.4848   46.6195 H   0  0  0  0  0  0  0  0  0  0  0  0
   60.7602   26.3928   45.3376 H   0  0  0  0  0  0  0  0  0  0  0  0
   59.6313   27.3540   47.9426 H   0  0  0  0  0  0  0  0  0  0  0  0
   60.8843   28.1076   46.9457 H   0  0  0  0  0  0  0  0  0  0  0  0
   60.8111   30.4268   46.2875 H   0  0  0  0  0  0  0  0  0  0  0  0
   60.8419   29.3110   48.4524 H   0  0  0  0  0  0  0  0  0  0  0  0
   61.5003   30.9961   48.5868 H   0  0  0  0  0  0  0  0  0  0  0  0
   59.4565   28.6459   50.2094 H   0  0  0  0  0  0  0  0  0  0  0  0
   57.7804   29.1738   51.9800 H   0  0  0  0  0  0  0  0  0  0  0  0
   56.9970   31.5219   52.3024 H   0  0  0  0  0  0  0  0  0  0  0  0
   57.8968   33.3473   50.8570 H   0  0  0  0  0  0  0  0  0  0  0  0
   59.5701   32.8296   49.0807 H   0  0  0  0  0  0  0  0  0  0  0  0
   59.0360   32.3310   46.1720 H   0  0  0  0  0  0  0  0  0  0  0  0
   61.5863   32.3524   45.6323 H   0  0  0  0  0  0  0  0  0  0  0  0
   60.6920   33.9041   45.9730 H   0  0  0  0  0  0  0  0  0  0  0  0
   63.6485   32.1511   46.6629 H   0  0  0  0  0  0  0  0  0  0  0  0
   65.1969   32.6401   48.5578 H   0  0  0  0  0  0  0  0  0  0  0  0
   64.4126   34.0022   50.4960 H   0  0  0  0  0  0  0  0  0  0  0  0
   62.0655   34.8501   50.5608 H   0  0  0  0  0  0  0  0  0  0  0  0
   60.5067   34.3581   48.6758 H   0  0  0  0  0  0  0  0  0  0  0  0
   56.0149   31.8568   45.7116 H   0  0  0  0  0  0  0  0  0  0  0  0
  1  2  1  0
  2  3  1  0
  3  4  2  0
  4  5  1  0
  5  6  1  0
  6  7  1  0
  7  8  1  0
  8  9  1  0
  9 10  2  0
  9 11  1  0
 11 12  1  0
 12 13  1  0
 13 14  1  0
 14 15  1  0
 15 16  1  0
 16 17  2  0
 16 18  1  0
 18 19  1  0
 19 20  1  0
 20 21  2  0
 21 22  1  0
 22 23  2  0
 23 24  1  0
 24 25  2  0
 18 26  1  0
 26 27  1  0
 27 28  1  0
 28 29  2  0
 29 30  1  0
 30 31  2  0
 31 32  1  0
 32 33  2  0
  6 34  2  0
 34  3  1  0
 15 11  1  0
 25 20  1  0
 33 28  1  0
  1 35  1  0
  1 36  1  0
  1 37  1  0
  2 38  1  0
  2 39  1  0
  4 40  1  0
  7 41  1  0
  7 42  1  0
 11 43  1  6
 12 44  1  0
 12 45  1  0
 13 46  1  0
 13 47  1  0
 14 48  1  0
 14 49  1  0
 18 50  1  6
 19 51  1  0
 19 52  1  0
 21 53  1  0
 22 54  1  0
 23 55  1  0
 24 56  1  0
 25 57  1  0
 26 58  1  0
 27 59  1  0
 27 60  1  0
 29 61  1  0
 30 62  1  0
 31 63  1  0
 32 64  1  0
 33 65  1  0
 34 66  1  0
M  CHG  2   1   1   8  -1
M  END
>  <UniqueID>  (8) 
6

>  <SMILES>  (8) 
[NH3+]Cc1csc(C[N-]C(=O)[C@@H]2CCCN2C(=O)[C@H](Cc2ccccc2)NCc2ccccc2)c1

>  <Energy>  (8) 
94.37578577232803

>  <Genealogy>  (8) 
[NH3+]Cc1csc(C[N-]C(=O)C2CCCN2C(=O)C(Cc2ccccc2)NCc2ccccc2)c1 (protonated)
[NH3+]Cc1csc(C[N-]C(=O)[C@@H]2CCCN2C(=O)[C@H](Cc2ccccc2)NCc2ccccc2)c1 (chirality)
[NH3+]Cc1csc(C[N-]C(=O)[C@@H]2CCCN2C(=O)[C@H](Cc2ccccc2)NCc2ccccc2)c1 (3D coordinates assigned)
[NH3+]Cc1csc(C[N-]C(=O)[C@@H]2CCCN2C(=O)[C@H](Cc2ccccc2)NCc2ccccc2)c1 (nonaromatic ring conformer: 94.37578577232803 kcal/mol)

>  <smiles>  (8) 
NCc1csc(CNC(=O)C2CCCN2C(=O)C(Cc2ccccc2)NCc2ccccc2)c1

>  <score_type>  (8) 
oracle

>  <origin>  (8) 
adg

>  <m_score__min__energy>  (8) 
-10.98

>  <m_primary>  (8) 
energy

$$$$
8:0
     RDKit          3D

 32 34  0  0  0  0  0  0  0  0999 V2000
   56.1860   24.8990   46.6310 C   0  0  0  0  0  0  0  0  0  0  0  0
   56.7950   26.2050   46.2450 C   0  0  0  0  0  0  0  0  0  0  0  0
   58.1260   26.4300   46.4690 N   0  0  0  0  0  0  0  0  0  0  0  0
   58.7230   27.5980   46.0990 C   0  0  0  0  0  0  0  0  0  0  0  0
   59.9490   27.7810   46.3230 O   0  0  0  0  0  0  0  0  0  0  0  0
   57.9530   28.5730   45.4680 C   0  0  0  0  0  0  0  0  0  0  0  0
   58.3590   29.8310   45.0090 C   0  0  0  0  0  0  0  0  0  0  0  0
   57.3110   30.5330   44.4060 C   0  0  0  0  0  0  0  0  0  0  0  0
   57.3920   31.8790   43.8170 C   0  0  0  0  0  0  0  0  0  0  0  0
   57.8250   32.0010   42.6420 O   0  0  0  0  0  0  0  0  0  0  0  0
   57.0410   33.0620   44.5500 N   0  0  0  0  0  0  0  0  0  0  0  0
   57.9340   34.1760   44.8660 C   0  0  0  0  0  0  0  0  0  0  0  0
   58.6060   33.9690   46.1980 C   0  0  0  0  0  0  0  0  0  0  0  0
   59.7030   34.7630   46.5770 C   0  0  0  0  0  0  0  0  0  0  0  0
   60.3040   34.5840   47.8260 C   0  0  0  0  0  0  0  0  0  0  0  0
   59.8250   33.6050   48.7010 C   0  0  0  0  0  0  0  0  0  0  0  0
   58.7440   32.8020   48.3270 C   0  0  0  0  0  0  0  0  0  0  0  0
   58.2820   31.8510   49.1760 F   0  0  0  0  0  0  0  0  0  0  0  0
   58.1370   32.9800   47.0790 C   0  0  0  0  0  0  0  0  0  0  0  0
   55.8880   29.6120   44.4790 S   0  0  0  0  0  0  0  0  0  0  0  0
   56.6180   28.3140   45.2450 C   0  0  0  0  0  0  0  0  0  0  0  0
   56.0350   27.1500   45.6190 N   0  0  0  0  0  0  0  0  0  0  0  0
   56.1497   24.8212   47.7276 H   0  0  0  0  0  0  0  0  0  0  0  0
   55.1656   24.8360   46.2250 H   0  0  0  0  0  0  0  0  0  0  0  0
   56.7936   24.0768   46.2250 H   0  0  0  0  0  0  0  0  0  0  0  0
   59.3823   30.2216   45.1106 H   0  0  0  0  0  0  0  0  0  0  0  0
   58.7031   34.2535   44.0834 H   0  0  0  0  0  0  0  0  0  0  0  0
   57.3383   35.0995   44.9141 H   0  0  0  0  0  0  0  0  0  0  0  0
   60.0896   35.5281   45.8876 H   0  0  0  0  0  0  0  0  0  0  0  0
   61.1556   35.2148   48.1209 H   0  0  0  0  0  0  0  0  0  0  0  0
   60.2988   33.4665   49.6840 H   0  0  0  0  0  0  0  0  0  0  0  0
   57.2892   32.3431   46.7864 H   0  0  0  0  0  0  0  0  0  0  0  0
  1  2  1  0
  2  3  2  0
  3  4  1  0
  4  5  2  0
  4  6  1  0
  6  7  1  0
  7  8  2  0
  8  9  1  0
  9 10  2  0
  9 11  1  0
 11 12  1  0
 12 13  1  0
 13 14  2  0
 14 15  1  0
 15 16  2  0
 16 17  1  0
 17 18  1  0
 17 19  2  0
  8 20  1  0
 20 21  1  0
 21 22  1  0
 22  2  1  0
 21  6  2  0
 19 13  1  0
  1 23  1  0
  1 24  1  0
  1 25  1  0
  7 26  1  0
 12 27  1  0
 12 28  1  0
 14 29  1  0
 15 30  1  0
 16 31  1  0
 19 32  1  0
M  CHG  2  11  -1  22  -1
M  END
>  <UniqueID>  (9) 
7

>  <SMILES>  (9) 
Cc1nc(=O)c2cc(C(=O)[N-]Cc3cccc(F)c3)sc2[n-]1

>  <Energy>  (9) 
68.05889018913103

>  <Genealogy>  (9) 
Cc1nc(=O)c2cc(C(=O)[N-]Cc3cccc(F)c3)sc2[n-]1 (protonated)
Cc1nc(=O)c2cc(C(=O)[N-]Cc3cccc(F)c3)sc2[n-]1 (3D coordinates assigned)
Cc1nc(=O)c2cc(C(=O)[N-]Cc3cccc(F)c3)sc2[n-]1 (optimized conformer: 68.05889018913103 kcal/mol)

>  <smiles>  (9) 
Cc1nc(=O)c2cc(C(=O)NCc3cccc(F)c3)sc2[nH]1

>  <score_type>  (9) 
oracle

>  <origin>  (9) 
adg

>  <m_score__min__energy>  (9) 
-9.75

>  <m_primary>  (9) 
energy

$$$$
9:0
     RDKit          3D

 43 45  0  0  0  0  0  0  0  0999 V2000
   56.0800   30.5580   44.2870 C   0  0  0  0  0  0  0  0  0  0  0  0
   56.7170   29.5660   44.9200 C   0  0  0  0  0  0  0  0  0  0  0  0
   56.1170   28.3890   45.2020 N   0  0  0  0  0  0  0  0  0  0  0  0
   56.9360   27.6460   45.9320 N   0  0  0  0  0  0  0  0  0  0  0  0
   56.6260   26.3320   46.4330 C   0  0  0  0  0  0  0  0  0  0  0  0
   57.6750   25.4940   47.0930 C   0  0  0  0  0  0  0  0  0  0  0  0
   55.4580   25.8700   46.3160 O   0  0  0  0  0  0  0  0  0  0  0  0
   58.0790   28.3370   46.1190 C   0  0  0  0  0  0  0  0  0  0  0  0
   59.0700   27.9080   46.7710 O   0  0  0  0  0  0  0  0  0  0  0  0
   58.0070   29.5640   45.4770 C   0  0  0  0  0  0  0  0  0  0  0  0
   59.0000   30.4750   45.4440 C   0  0  0  0  0  0  0  0  0  0  0  0
   58.8680   31.8920   45.8280 C   0  0  0  0  0  0  0  0  0  0  0  0
   58.5770   32.8390   44.8380 C   0  0  0  0  0  0  0  0  0  0  0  0
   58.4020   34.1820   45.1750 C   0  0  0  0  0  0  0  0  0  0  0  0
   58.5000   34.5850   46.5090 C   0  0  0  0  0  0  0  0  0  0  0  0
   58.7620   33.6470   47.5080 C   0  0  0  0  0  0  0  0  0  0  0  0
   58.9340   32.2860   47.1820 C   0  0  0  0  0  0  0  0  0  0  0  0
   59.1720   31.3050   48.1620 O   0  0  0  0  0  0  0  0  0  0  0  0
   60.4560   30.8390   48.5740 C   0  0  0  0  0  0  0  0  0  0  0  0
   61.5050   31.8920   48.3410 C   0  0  0  0  0  0  0  0  0  0  0  0
   62.4640   31.7340   47.3250 C   0  0  0  0  0  0  0  0  0  0  0  0
   63.4420   32.7140   47.1220 C   0  0  0  0  0  0  0  0  0  0  0  0
   63.4740   33.8510   47.9330 C   0  0  0  0  0  0  0  0  0  0  0  0
   62.5310   34.0100   48.9530 C   0  0  0  0  0  0  0  0  0  0  0  0
   61.5520   33.0330   49.1600 C   0  0  0  0  0  0  0  0  0  0  0  0
   56.6042   31.5017   44.0758 H   0  0  0  0  0  0  0  0  0  0  0  0
   55.0322   30.4298   43.9778 H   0  0  0  0  0  0  0  0  0  0  0  0
   55.1480   28.1150   44.9250 H   0  0  0  0  0  0  0  0  0  0  0  0
   57.5746   25.5742   48.1855 H   0  0  0  0  0  0  0  0  0  0  0  0
   57.5502   24.4441   46.7894 H   0  0  0  0  0  0  0  0  0  0  0  0
   58.6714   25.8476   46.7894 H   0  0  0  0  0  0  0  0  0  0  0  0
   59.9885   30.1334   45.1030 H   0  0  0  0  0  0  0  0  0  0  0  0
   58.4858   32.5224   43.7885 H   0  0  0  0  0  0  0  0  0  0  0  0
   58.1870   34.9227   44.3907 H   0  0  0  0  0  0  0  0  0  0  0  0
   58.3702   35.6450   46.7725 H   0  0  0  0  0  0  0  0  0  0  0  0
   58.8349   33.9712   48.5566 H   0  0  0  0  0  0  0  0  0  0  0  0
   60.4238   30.5926   49.6456 H   0  0  0  0  0  0  0  0  0  0  0  0
   60.7139   29.9470   47.9843 H   0  0  0  0  0  0  0  0  0  0  0  0
   62.4454   30.8375   46.6879 H   0  0  0  0  0  0  0  0  0  0  0  0
   64.1870   32.5889   46.3224 H   0  0  0  0  0  0  0  0  0  0  0  0
   64.2416   34.6217   47.7690 H   0  0  0  0  0  0  0  0  0  0  0  0
   62.5592   34.9041   49.5931 H   0  0  0  0  0  0  0  0  0  0  0  0
   60.8155   33.1582   49.9674 H   0  0  0  0  0  0  0  0  0  0  0  0
  1  2  2  0
  2  3  1  0
  3  4  1  0
  4  5  1  0
  5  6  1  0
  5  7  2  0
  4  8  1  0
  8  9  2  0
  8 10  1  0
 10 11  2  3
 11 12  1  0
 12 13  2  0
 13 14  1  0
 14 15  2  0
 15 16  1  0
 16 17  2  0
 17 18  1  0
 18 19  1  0
 19 20  1  0
 20 21  2  0
 21 22  1  0
 22 23  2  0
 23 24  1  0
 24 25  2  0
 10  2  1  0
 17 12  1  0
 25 20  1  0
  1 26  1  0
  1 27  1  0
  3 28  1  0
  6 29  1  0
  6 30  1  0
  6 31  1  0
 11 32  1  0
 13 33  1  0
 14 34  1  0
 15 35  1  0
 16 36  1  0
 19 37  1  0
 19 38  1  0
 21 39  1  0
 22 40  1  0
 23 41  1  0
 24 42  1  0
 25 43  1  0
M  END
>  <UniqueID>  (10) 
8

>  <SMILES>  (10) 
C=c1[nH]n(C(C)=O)c(=O)c1=Cc1ccccc1OCc1ccccc1

>  <Energy>  (10) 
90.38824444312587

>  <Genealogy>  (10) 
C=c1[nH]n(C(C)=O)c(=O)c1=Cc1ccccc1OCc1ccccc1 (3D coordinates assigned)
C=c1[nH]n(C(C)=O)c(=O)c1=Cc1ccccc1OCc1ccccc1 (optimized conformer: 90.38824444312587 kcal/mol)

>  <smiles>  (10) 
C=c1[nH]n(C(C)=O)c(=O)c1=Cc1ccccc1OCc1ccccc1

>  <score_type>  (10) 
oracle

>  <origin>  (10) 
adg

>  <m_score__min__energy>  (10) 
-8.8599999999999994

>  <m_primary>  (10) 
energy

$$$$
10:0
     RDKit          3D

 65 67  0  0  1  0  0  0  0  0999 V2000
   58.2840   26.5110   43.3960 O   0  0  0  0  0  0  0  0  0  0  0  0
   57.9570   25.8730   44.4380 C   0  0  0  0  0  0  0  0  0  0  0  0
   57.4830   24.4670   44.3740 C   0  0  0  0  0  0  0  0  0  0  0  0
   56.9220   24.1810   42.9810 C   0  0  0  0  0  0  0  0  0  0  0  0
   55.8550   23.1450   43.0760 C   0  0  0  0  0  0  0  0  0  0  0  0
   54.5940   23.4570   43.7560 C   0  0  0  0  0  0  0  0  0  0  0  0
   54.5010   23.6940   45.2050 C   0  0  0  0  0  0  0  0  0  0  0  0
   55.2590   22.8550   46.1540 C   0  0  0  0  0  0  0  0  0  0  0  0
   56.1460   23.6730   47.0560 C   0  0  0  0  0  0  0  0  0  0  0  0
   56.9910   22.9300   47.8840 O   0  0  0  0  0  0  0  0  0  0  0  0
   56.1910   24.9260   47.1280 N   0  0  0  0  0  0  0  0  0  0  0  0
   55.5680   25.8770   46.3980 O   0  0  0  0  0  0  0  0  0  0  0  0
   58.0280   26.4720   45.7280 N   0  0  0  0  0  0  0  0  0  0  0  0
   58.4640   27.8090   45.9420 C   0  0  0  0  0  0  0  0  0  0  0  0
   59.5050   28.0620   46.8110 C   0  0  0  0  0  0  0  0  0  0  0  0
   59.9520   29.3440   47.0420 C   0  0  0  0  0  0  0  0  0  0  0  0
   59.3800   30.4560   46.4120 C   0  0  0  0  0  0  0  0  0  0  0  0
   59.8960   31.7430   46.6740 N   0  0  0  0  0  0  0  0  0  0  0  0
   61.1410   32.0440   47.2590 C   0  0  0  0  0  0  0  0  0  0  0  0
   61.6810   31.3930   48.3420 C   0  0  0  0  0  0  0  0  0  0  0  0
   62.9030   31.7490   48.8780 C   0  0  0  0  0  0  0  0  0  0  0  0
   63.6350   32.7910   48.3290 C   0  0  0  0  0  0  0  0  0  0  0  0
   64.8880   33.1210   48.9140 N   0  0  0  0  0  0  0  0  0  0  0  0
   65.0570   33.4500   50.2810 C   0  0  0  0  0  0  0  0  0  0  0  0
   64.0470   33.4510   51.0260 O   0  0  0  0  0  0  0  0  0  0  0  0
   66.3380   33.7820   50.8470 C   0  0  0  0  0  0  0  0  0  0  0  0
   67.4720   33.1350   50.3810 C   0  0  0  0  0  0  0  0  0  0  0  0
   68.7230   33.4220   50.8960 C   0  0  0  0  0  0  0  0  0  0  0  0
   68.9000   34.3690   51.8990 C   0  0  0  0  0  0  0  0  0  0  0  0
   67.7680   35.0220   52.3690 C   0  0  0  0  0  0  0  0  0  0  0  0
   66.5210   34.7160   51.8360 C   0  0  0  0  0  0  0  0  0  0  0  0
   63.1170   33.4570   47.2430 C   0  0  0  0  0  0  0  0  0  0  0  0
   61.9000   33.0830   46.7300 C   0  0  0  0  0  0  0  0  0  0  0  0
   58.3430   30.1890   45.5470 C   0  0  0  0  0  0  0  0  0  0  0  0
   57.8850   28.8900   45.3090 C   0  0  0  0  0  0  0  0  0  0  0  0
   58.3235   23.7871   44.5774 H   0  0  0  0  0  0  0  0  0  0  0  0
   56.6950   24.3112   45.1256 H   0  0  0  0  0  0  0  0  0  0  0  0
   56.4990   25.1049   42.5597 H   0  0  0  0  0  0  0  0  0  0  0  0
   57.7295   23.8158   42.3294 H   0  0  0  0  0  0  0  0  0  0  0  0
   55.5984   22.8569   42.0459 H   0  0  0  0  0  0  0  0  0  0  0  0
   56.3058   22.3731   43.7170 H   0  0  0  0  0  0  0  0  0  0  0  0
   54.2078   24.3677   43.2748 H   0  0  0  0  0  0  0  0  0  0  0  0
   54.0486   22.5072   43.6535 H   0  0  0  0  0  0  0  0  0  0  0  0
   54.8236   24.7317   45.3754 H   0  0  0  0  0  0  0  0  0  0  0  0
   53.4554   23.4369   45.4299 H   0  0  0  0  0  0  0  0  0  0  0  0
   54.5471   22.2908   46.7744 H   0  0  0  0  0  0  0  0  0  0  0  0
   55.9025   22.1815   45.5689 H   0  0  0  0  0  0  0  0  0  0  0  0
   57.8310   22.5520   47.4960 H   0  0  0  0  0  0  0  0  0  0  0  0
   54.5580   25.9640   46.3710 H   0  0  0  0  0  0  0  0  0  0  0  0
   57.7500   25.9170   46.5850 H   0  0  0  0  0  0  0  0  0  0  0  0
   59.9885   27.2217   47.3307 H   0  0  0  0  0  0  0  0  0  0  0  0
   60.7848   29.4993   47.7437 H   0  0  0  0  0  0  0  0  0  0  0  0
   59.2770   32.5640   46.4010 H   0  0  0  0  0  0  0  0  0  0  0  0
   61.1221   30.5617   48.7966 H   0  0  0  0  0  0  0  0  0  0  0  0
   63.2985   31.2021   49.7466 H   0  0  0  0  0  0  0  0  0  0  0  0
   65.7130   33.1090   48.2510 H   0  0  0  0  0  0  0  0  0  0  0  0
   67.3750   32.3797   49.5872 H   0  0  0  0  0  0  0  0  0  0  0  0
   69.6003   32.8877   50.5023 H   0  0  0  0  0  0  0  0  0  0  0  0
   69.8979   34.5922   52.3043 H   0  0  0  0  0  0  0  0  0  0  0  0
   67.8579   35.7797   53.1613 H   0  0  0  0  0  0  0  0  0  0  0  0
   65.6398   35.2472   52.2250 H   0  0  0  0  0  0  0  0  0  0  0  0
   63.6763   34.2870   46.7868 H   0  0  0  0  0  0  0  0  0  0  0  0
   61.5067   33.6301   45.8605 H   0  0  0  0  0  0  0  0  0  0  0  0
   57.8579   31.0270   45.0250 H   0  0  0  0  0  0  0  0  0  0  0  0
   57.0527   28.7274   44.6084 H   0  0  0  0  0  0  0  0  0  0  0  0
  1  2  2  0
  2  3  1  0
  3  4  1  0
  4  5  1  0
  5  6  1  0
  6  7  1  0
  7  8  1  0
  8  9  1  0
  9 10  1  0
  9 11  2  0
 11 12  1  0
  2 13  1  0
 13 14  1  0
 14 15  2  0
 15 16  1  0
 16 17  2  0
 17 18  1  0
 18 19  1  0
 19 20  2  0
 20 21  1  0
 21 22  2  0
 22 23  1  0
 23 24  1  0
 24 25  2  0
 24 26  1  0
 26 27  2  0
 27 28  1  0
 28 29  2  0
 29 30  1  0
 30 31  2  0
 22 32  1  0
 32 33  2  0
 17 34  1  0
 34 35  2  0
 35 14  1  0
 33 19  1  0
 31 26  1  0
  3 36  1  0
  3 37  1  0
  4 38  1  0
  4 39  1  0
  5 40  1  0
  5 41  1  0
  6 42  1  0
  6 43  1  0
  7 44  1  0
  7 45  1  0
  8 46  1  0
  8 47  1  0
 10 48  1  0
 12 49  1  0
 13 50  1  0
 15 51  1  0
 16 52  1  0
 18 53  1  0
 20 54  1  0
 21 55  1  0
 23 56  1  0
 27 57  1  0
 28 58  1  0
 29 59  1  0
 30 60  1  0
 31 61  1  0
 32 62  1  0
 33 63  1  0
 34 64  1  0
 35 65  1  0
M  END
>  <smiles>  (11) 
O=C(CCCCCCC(O)=NO)Nc1ccc(Nc2ccc(NC(=O)c3ccccc3)cc2)cc1

>  <score_type>  (11) 
oracle

>  <origin>  (11) 
adg

>  <m_score__min__energy>  (11) 
-8.9100000000000001

>  <m_primary>  (11) 
energy

$$$$
11:0
     RDKit          3D

 39 40  0  0  0  0  0  0  0  0999 V2000
   55.1730   26.4350   45.9810 N   0  0  0  0  0  0  0  0  0  0  0  0
   56.8780   26.7080   45.9480 S   0  0  0  0  0  0  0  0  0  0  0  0
   57.4070   26.6410   47.3540 O   0  0  0  0  0  0  0  0  0  0  0  0
   57.5480   25.6450   45.1250 O   0  0  0  0  0  0  0  0  0  0  0  0
   57.2100   28.2910   45.2490 C   0  0  0  0  0  0  0  0  0  0  0  0
   56.1630   29.1520   44.8940 C   0  0  0  0  0  0  0  0  0  0  0  0
   56.4400   30.4050   44.3380 C   0  0  0  0  0  0  0  0  0  0  0  0
   57.7670   30.8140   44.1400 C   0  0  0  0  0  0  0  0  0  0  0  0
   58.0740   32.0820   43.4560 C   0  0  0  0  0  0  0  0  0  0  0  0
   58.4540   33.2110   44.0660 C   0  0  0  0  0  0  0  0  0  0  0  0
   58.1210   33.6150   45.7530 S   0  0  0  0  0  0  0  0  0  0  0  0
   58.7790   34.9280   46.0670 O   0  0  0  0  0  0  0  0  0  0  0  0
   56.6380   33.7610   45.9430 O   0  0  0  0  0  0  0  0  0  0  0  0
   58.7300   32.4170   46.8550 N   0  0  0  0  0  0  0  0  0  0  0  0
   60.1270   32.2370   47.1610 C   0  0  0  0  0  0  0  0  0  0  0  0
   61.0590   33.2440   46.8380 C   0  0  0  0  0  0  0  0  0  0  0  0
   62.4160   33.0750   47.1130 C   0  0  0  0  0  0  0  0  0  0  0  0
   62.8640   31.9110   47.7320 C   0  0  0  0  0  0  0  0  0  0  0  0
   61.9550   30.9150   48.0880 C   0  0  0  0  0  0  0  0  0  0  0  0
   60.5860   31.0610   47.8110 C   0  0  0  0  0  0  0  0  0  0  0  0
   59.4790   29.7750   48.3210 S   0  0  0  0  0  0  0  0  0  0  0  0
   60.1320   28.2240   47.9230 N   0  0  0  0  0  0  0  0  0  0  0  0
   58.1530   29.9170   47.6320 O   0  0  0  0  0  0  0  0  0  0  0  0
   59.2810   29.8540   49.8080 O   0  0  0  0  0  0  0  0  0  0  0  0
   58.8120   29.9430   44.4780 C   0  0  0  0  0  0  0  0  0  0  0  0
   58.5370   28.6950   45.0450 C   0  0  0  0  0  0  0  0  0  0  0  0
   54.7680   27.0950   46.6810 H   0  0  0  0  0  0  0  0  0  0  0  0
   55.1198   28.8413   45.0532 H   0  0  0  0  0  0  0  0  0  0  0  0
   55.6133   31.0730   44.0546 H   0  0  0  0  0  0  0  0  0  0  0  0
   57.9840   32.1025   42.3599 H   0  0  0  0  0  0  0  0  0  0  0  0
   59.0175   33.9444   43.4705 H   0  0  0  0  0  0  0  0  0  0  0  0
   58.0130   31.8330   47.3360 H   0  0  0  0  0  0  0  0  0  0  0  0
   60.7121   34.1739   46.3636 H   0  0  0  0  0  0  0  0  0  0  0  0
   63.1336   33.8628   46.8403 H   0  0  0  0  0  0  0  0  0  0  0  0
   63.9357   31.7769   47.9404 H   0  0  0  0  0  0  0  0  0  0  0  0
   62.3142   30.0052   48.5912 H   0  0  0  0  0  0  0  0  0  0  0  0
   59.3230   27.5940   47.7230 H   0  0  0  0  0  0  0  0  0  0  0  0
   59.8545   30.2432   44.2961 H   0  0  0  0  0  0  0  0  0  0  0  0
   59.3637   28.0284   45.3317 H   0  0  0  0  0  0  0  0  0  0  0  0
  1  2  1  0
  2  3  2  0
  2  4  2  0
  2  5  1  0
  5  6  2  0
  6  7  1  0
  7  8  2  0
  8  9  1  0
  9 10  2  3
 10 11  1  0
 11 12  2  0
 11 13  2  0
 11 14  1  0
 14 15  1  0
 15 16  2  0
 16 17  1  0
 17 18  2  0
 18 19  1  0
 19 20  2  0
 20 21  1  0
 21 22  1  0
 21 23  2  0
 21 24  2  0
  8 25  1  0
 25 26  2  0
 26  5  1  0
 20 15  1  0
  1 27  1  0
  6 28  1  0
  7 29  1  0
  9 30  1  0
 10 31  1  0
 14 32  1  0
 16 33  1  0
 17 34  1  0
 18 35  1  0
 19 36  1  0
 22 37  1  0
 25 38  1  0
 26 39  1  0
M  CHG  2   1  -1  22  -1
M  END
>  <UniqueID>  (12) 
9

>  <SMILES>  (12) 
[NH-]S(=O)(=O)c1ccc(C=CS(=O)(=O)Nc2ccccc2S([NH-])(=O)=O)cc1

>  <Energy>  (12) 
47.85656758557634

>  <Genealogy>  (12) 
[NH-]S(=O)(=O)c1ccc(C=CS(=O)(=O)Nc2ccccc2S([NH-])(=O)=O)cc1 (protonated)
[NH-]S(=O)(=O)c1ccc(C=CS(=O)(=O)Nc2ccccc2S([NH-])(=O)=O)cc1 (3D coordinates assigned)
[NH-]S(=O)(=O)c1ccc(C=CS(=O)(=O)Nc2ccccc2S([NH-])(=O)=O)cc1 (optimized conformer: 47.85656758557634 kcal/mol)

>  <smiles>  (12) 
NS(=O)(=O)c1ccc(C=CS(=O)(=O)Nc2ccccc2S(N)(=O)=O)cc1

>  <score_type>  (12) 
oracle

>  <origin>  (12) 
adg

>  <m_score__min__energy>  (12) 
-13.43

>  <m_primary>  (12) 
energy

$$$$
12:0
     RDKit          3D

 37 38  0  0  0  0  0  0  0  0999 V2000
   57.7160   24.2410   47.2780 H   0  0  0  0  0  0  0  0  0  0  0  0
   58.4800   24.8850   47.1250 O   0  0  0  0  0  0  0  0  0  0  0  0
   58.2970   26.1960   46.6840 C   0  0  0  0  0  0  0  0  0  0  0  0
   59.3730   27.0190   46.6640 N   0  0  0  0  0  0  0  0  0  0  0  0
   59.3000   28.2800   46.1740 C   0  0  0  0  0  0  0  0  0  0  0  0
   60.3400   28.9920   46.1460 O   0  0  0  0  0  0  0  0  0  0  0  0
   58.1170   28.7630   45.6920 N   0  0  0  0  0  0  0  0  0  0  0  0
   58.0610   30.0420   45.1030 N   0  0  0  0  0  0  0  0  0  0  0  0
   57.8520   30.2380   43.8340 C   0  0  0  0  0  0  0  0  0  0  0  0
   58.7104   30.2239   43.1463 H   0  0  0  0  0  0  0  0  0  0  0  0
   56.4790   30.4830   43.2750 C   0  0  0  0  0  0  0  0  0  0  0  0
   56.5104   31.3535   42.6032 H   0  0  0  0  0  0  0  0  0  0  0  0
   56.1536   29.5909   42.7197 H   0  0  0  0  0  0  0  0  0  0  0  0
   55.5330   30.7420   44.3550 N   0  0  0  0  0  0  0  0  0  0  0  0
   54.7770   30.0210   44.2940 H   0  0  0  0  0  0  0  0  0  0  0  0
   56.0230   30.5810   45.2640 H   0  0  0  0  0  0  0  0  0  0  0  0
   57.0000   27.9760   45.6970 C   0  0  0  0  0  0  0  0  0  0  0  0
   55.9130   28.4330   45.2430 O   0  0  0  0  0  0  0  0  0  0  0  0
   57.0520   26.6680   46.2180 C   0  0  0  0  0  0  0  0  0  0  0  0
   55.8350   25.8160   46.2240 C   0  0  0  0  0  0  0  0  0  0  0  0
   54.7160   26.3430   45.9860 O   0  0  0  0  0  0  0  0  0  0  0  0
   55.8920   24.4030   46.4620 N   0  0  0  0  0  0  0  0  0  0  0  0
   56.4190   23.4210   45.5600 C   0  0  0  0  0  0  0  0  0  0  0  0
   56.1380   23.5510   44.1930 C   0  0  0  0  0  0  0  0  0  0  0  0
   55.5352   24.3999   43.8381 H   0  0  0  0  0  0  0  0  0  0  0  0
   56.6170   22.6120   43.2790 C   0  0  0  0  0  0  0  0  0  0  0  0
   56.4074   22.7325   42.2059 H   0  0  0  0  0  0  0  0  0  0  0  0
   57.3620   21.5200   43.7260 C   0  0  0  0  0  0  0  0  0  0  0  0
   57.7488   20.7861   43.0037 H   0  0  0  0  0  0  0  0  0  0  0  0
   57.6170   21.3580   45.0900 C   0  0  0  0  0  0  0  0  0  0  0  0
   58.1970   20.4905   45.4379 H   0  0  0  0  0  0  0  0  0  0  0  0
   57.1360   22.2990   46.0240 C   0  0  0  0  0  0  0  0  0  0  0  0
   57.3240   22.1310   47.4050 O   0  0  0  0  0  0  0  0  0  0  0  0
   56.2690   21.9740   48.3480 C   0  0  0  0  0  0  0  0  0  0  0  0
   56.6767   22.0347   49.3678 H   0  0  0  0  0  0  0  0  0  0  0  0
   55.5254   22.7714   48.2024 H   0  0  0  0  0  0  0  0  0  0  0  0
   55.7898   20.9946   48.2024 H   0  0  0  0  0  0  0  0  0  0  0  0
  1  2  1  0
  2  3  1  0
  3  4  1  0
  4  5  1  0
  5  6  2  0
  5  7  1  0
  7  8  1  0
  8  9  2  0
  9 10  1  0
  9 11  1  0
 11 12  1  0
 11 13  1  0
 11 14  1  0
 14 15  1  0
 14 16  1  0
  7 17  1  0
 17 18  2  0
 17 19  1  0
 19 20  1  0
 20 21  2  0
 20 22  1  0
 22 23  1  0
 23 24  2  0
 24 25  1  0
 24 26  1  0
 26 27  1  0
 26 28  2  0
 28 29  1  0
 28 30  1  0
 30 31  1  0
 30 32  2  0
 32 33  1  0
 33 34  1  0
 34 35  1  0
 34 36  1  0
 34 37  1  0
 19  3  2  0
 32 23  1  0
M  CHG  2   4  -1  22  -1
M  END
>  <UniqueID>  (13) 
10

>  <SMILES>  (13) 
COc1ccccc1[N-]C(=O)c1c(O)[n-]c(=O)n(/N=C\CN)c1=O

>  <Energy>  (13) 
56.22228960652982

>  <Genealogy>  (13) 
COc1ccccc1[N-]C(=O)c1c(O)[n-]c(=O)n(N=CCN)c1=O (protonated)
COc1ccccc1[N-]C(=O)c1c(O)[n-]c(=O)n(/N=C\CN)c1=O (cis-trans isomerization)
COc1ccccc1[N-]C(=O)c1c(O)[n-]c(=O)n(/N=C\CN)c1=O (3D coordinates assigned)
COc1ccccc1[N-]C(=O)c1c(O)[n-]c(=O)n(/N=C\CN)c1=O (optimized conformer: 56.22228960652982 kcal/mol)

>  <smiles>  (13) 
COc1ccccc1NC(=O)c1c(O)[nH]c(=O)n(N=CCN)c1=O

>  <score_type>  (13) 
oracle

>  <origin>  (13) 
adg

>  <m_score__min__energy>  (13) 
-10.1

>  <m_primary>  (13) 
energy

$$$$
13:0
     RDKit          3D

 45 47  0  0  0  0  0  0  0  0999 V2000
   54.5020   26.4020   44.9750 H   0  0  0  0  0  0  0  0  0  0  0  0
   54.7510   26.3250   45.9860 N   0  0  0  0  0  0  0  0  0  0  0  0
   56.1140   26.3010   46.4040 C   0  0  0  0  0  0  0  0  0  0  0  0
   56.4640   25.5390   47.3440 O   0  0  0  0  0  0  0  0  0  0  0  0
   57.1040   27.1630   45.7370 C   0  0  0  0  0  0  0  0  0  0  0  0
   57.0490   28.5400   45.5990 C   0  0  0  0  0  0  0  0  0  0  0  0
   56.2401   29.1902   45.9637 H   0  0  0  0  0  0  0  0  0  0  0  0
   58.1560   28.9510   44.9410 N   0  0  0  0  0  0  0  0  0  0  0  0
   58.5200   30.3370   44.6180 C   0  0  2  0  0  0  0  0  0  0  0  0
   59.3367   30.3436   43.8811 H   0  0  0  0  0  0  0  0  0  0  0  0
   59.0480   31.0500   45.8840 C   0  0  0  0  0  0  0  0  0  0  0  0
   58.3929   30.8074   46.7337 H   0  0  0  0  0  0  0  0  0  0  0  0
   60.0741   30.7053   46.0796 H   0  0  0  0  0  0  0  0  0  0  0  0
   59.0710   32.5680   45.6860 C   0  0  0  0  0  0  0  0  0  0  0  0
   59.4942   33.0372   46.5864 H   0  0  0  0  0  0  0  0  0  0  0  0
   59.6835   32.7856   44.7986 H   0  0  0  0  0  0  0  0  0  0  0  0
   57.6610   33.1400   45.4430 C   0  0  0  0  0  0  0  0  0  0  0  0
   57.2703   33.5189   46.3989 H   0  0  0  0  0  0  0  0  0  0  0  0
   57.7612   33.9330   44.6872 H   0  0  0  0  0  0  0  0  0  0  0  0
   56.6610   32.1060   44.8830 C   0  0  0  0  0  0  0  0  0  0  0  0
   56.2070   31.5642   45.7258 H   0  0  0  0  0  0  0  0  0  0  0  0
   55.9089   32.6560   44.2984 H   0  0  0  0  0  0  0  0  0  0  0  0
   57.3240   31.0830   43.9400 C   0  0  1  0  0  0  0  0  0  0  0  0
   56.5754   30.3149   43.6960 H   0  0  0  0  0  0  0  0  0  0  0  0
   57.7540   31.7550   42.6980 C   0  0  0  0  0  0  0  0  0  0  0  0
   58.0910   32.2820   41.7250 N   0  0  0  0  0  0  0  0  0  0  0  0
   58.9130   27.9010   44.6560 N   0  0  0  0  0  0  0  0  0  0  0  0
   59.8500   27.9570   44.2000 H   0  0  0  0  0  0  0  0  0  0  0  0
   58.2880   26.7990   45.1200 C   0  0  0  0  0  0  0  0  0  0  0  0
   58.7550   25.5850   45.0580 N   0  0  0  0  0  0  0  0  0  0  0  0
   58.0410   24.4230   44.6130 C   0  0  0  0  0  0  0  0  0  0  0  0
   57.0200   24.5130   43.6520 C   0  0  0  0  0  0  0  0  0  0  0  0
   56.7807   25.4856   43.1972 H   0  0  0  0  0  0  0  0  0  0  0  0
   56.3070   23.3730   43.2710 C   0  0  0  0  0  0  0  0  0  0  0  0
   55.5223   23.4487   42.5039 H   0  0  0  0  0  0  0  0  0  0  0  0
   56.5890   22.1280   43.8650 C   0  0  0  0  0  0  0  0  0  0  0  0
   55.9040   20.9550   43.5160 O   0  0  0  0  0  0  0  0  0  0  0  0
   55.8820   19.7700   44.3060 C   0  0  0  0  0  0  0  0  0  0  0  0
   55.8870   20.0401   45.3723 H   0  0  0  0  0  0  0  0  0  0  0  0
   54.9730   19.1941   44.0779 H   0  0  0  0  0  0  0  0  0  0  0  0
   56.7690   19.1607   44.0779 H   0  0  0  0  0  0  0  0  0  0  0  0
   57.5840   22.0510   44.8460 C   0  0  0  0  0  0  0  0  0  0  0  0
   57.8077   21.0845   45.3213 H   0  0  0  0  0  0  0  0  0  0  0  0
   58.2960   23.1920   45.2270 C   0  0  0  0  0  0  0  0  0  0  0  0
   59.0612   23.1216   46.0141 H   0  0  0  0  0  0  0  0  0  0  0  0
  1  2  1  0
  2  3  1  0
  3  4  2  0
  3  5  1  0
  5  6  2  0
  6  7  1  0
  6  8  1  0
  8  9  1  0
  9 10  1  6
  9 11  1  0
 11 12  1  0
 11 13  1  0
 11 14  1  0
 14 15  1  0
 14 16  1  0
 14 17  1  0
 17 18  1  0
 17 19  1  0
 17 20  1  0
 20 21  1  0
 20 22  1  0
 20 23  1  0
 23 24  1  6
 23 25  1  0
 25 26  3  0
  8 27  1  0
 27 28  1  0
 27 29  1  0
 29 30  2  0
 30 31  1  0
 31 32  2  0
 32 33  1  0
 32 34  1  0
 34 35  1  0
 34 36  2  0
 36 37  1  0
 37 38  1  0
 38 39  1  0
 38 40  1  0
 38 41  1  0
 36 42  1  0
 42 43  1  0
 42 44  2  0
 44 45  1  0
 29  5  1  0
 44 31  1  0
 23  9  1  0
M  CHG  1   2  -1
M  END
>  <UniqueID>  (14) 
11

>  <SMILES>  (14) 
COc1ccc(/N=c2\[nH]n([C@@H]3CCCC[C@H]3C#N)cc2C([NH-])=O)cc1

>  <Energy>  (14) 
86.40634904541716

>  <Genealogy>  (14) 
COc1ccc(N=c2[nH]n(C3CCCCC3C#N)cc2C([NH-])=O)cc1 (protonated)
COc1ccc(N=c2[nH]n([C@@H]3CCCC[C@H]3C#N)cc2C([NH-])=O)cc1 (chirality)
COc1ccc(/N=c2\[nH]n([C@@H]3CCCC[C@H]3C#N)cc2C([NH-])=O)cc1 (cis-trans isomerization)
COc1ccc(/N=c2\[nH]n([C@@H]3CCCC[C@H]3C#N)cc2C([NH-])=O)cc1 (3D coordinates assigned)
COc1ccc(/N=c2\[nH]n([C@@H]3CCCC[C@H]3C#N)cc2C([NH-])=O)cc1 (nonaromatic ring conformer: 86.40634904541716 kcal/mol)

>  <smiles>  (14) 
COc1ccc(N=c2[nH]n(C3CCCCC3C#N)cc2C(N)=O)cc1

>  <score_type>  (14) 
oracle

>  <origin>  (14) 
adg

>  <m_score__min__energy>  (14) 
-11.109999999999999

>  <m_primary>  (14) 
energy

$$$$
14:0
     RDKit          3D

 33 35  0  0  0  0  0  0  0  0999 V2000
   57.4750   31.9870   43.9510 C   0  0  0  0  0  0  0  0  0  0  0  0
   57.4210   30.5820   44.3620 N   0  0  0  0  0  0  0  0  0  0  0  0
   58.6760   29.8290   44.4980 C   0  0  0  0  0  0  0  0  0  0  0  0
   58.5170   28.5150   45.2300 C   0  0  0  0  0  0  0  0  0  0  0  0
   59.6610   27.8420   45.6810 C   0  0  0  0  0  0  0  0  0  0  0  0
   59.5540   26.5960   46.3040 C   0  0  0  0  0  0  0  0  0  0  0  0
   58.2940   25.9960   46.4740 C   0  0  0  0  0  0  0  0  0  0  0  0
   58.1350   24.7210   47.1120 N   0  0  0  0  0  0  0  0  0  0  0  0
   56.7970   23.6450   46.8730 S   0  0  0  0  0  0  0  0  0  0  0  0
   55.5180   24.3610   47.2030 O   0  0  0  0  0  0  0  0  0  0  0  0
   56.9480   22.4610   47.7850 O   0  0  0  0  0  0  0  0  0  0  0  0
   56.7690   23.0850   45.2120 C   0  0  0  0  0  0  0  0  0  0  0  0
   56.1240   23.7150   44.1580 C   0  0  0  0  0  0  0  0  0  0  0  0
   56.2610   23.0250   42.9470 C   0  0  0  0  0  0  0  0  0  0  0  0
   57.0100   21.8590   43.0520 C   0  0  0  0  0  0  0  0  0  0  0  0
   57.5020   21.6830   44.6510 S   0  0  0  0  0  0  0  0  0  0  0  0
   57.1520   26.6590   46.0100 C   0  0  0  0  0  0  0  0  0  0  0  0
   57.2550   27.9120   45.3890 C   0  0  0  0  0  0  0  0  0  0  0  0
   56.0750   28.5820   44.9370 N   0  0  0  0  0  0  0  0  0  0  0  0
   56.1460   29.9240   44.4620 C   0  0  0  0  0  0  0  0  0  0  0  0
   55.0870   30.5300   44.1480 O   0  0  0  0  0  0  0  0  0  0  0  0
   57.4997   32.6294   44.8436 H   0  0  0  0  0  0  0  0  0  0  0  0
   58.3804   32.1588   43.3504 H   0  0  0  0  0  0  0  0  0  0  0  0
   56.5854   32.2278   43.3504 H   0  0  0  0  0  0  0  0  0  0  0  0
   59.0678   29.6212   43.4914 H   0  0  0  0  0  0  0  0  0  0  0  0
   59.3617   30.4494   45.0937 H   0  0  0  0  0  0  0  0  0  0  0  0
   60.6520   28.2991   45.5431 H   0  0  0  0  0  0  0  0  0  0  0  0
   60.4585   26.0829   46.6626 H   0  0  0  0  0  0  0  0  0  0  0  0
   55.5645   24.6563   44.2622 H   0  0  0  0  0  0  0  0  0  0  0  0
   55.8178   23.3729   42.0023 H   0  0  0  0  0  0  0  0  0  0  0  0
   57.2420   21.1678   42.2284 H   0  0  0  0  0  0  0  0  0  0  0  0
   56.1636   26.1924   46.1337 H   0  0  0  0  0  0  0  0  0  0  0  0
   55.1440   28.1140   45.0100 H   0  0  0  0  0  0  0  0  0  0  0  0
  1  2  1  0
  2  3  1  0
  3  4  1  0
  4  5  2  0
  5  6  1  0
  6  7  2  0
  7  8  1  0
  8  9  1  0
  9 10  2  0
  9 11  2  0
  9 12  1  0
 12 13  2  0
 13 14  1  0
 14 15  2  0
 15 16  1  0
  7 17  1  0
 17 18  2  0
 18 19  1  0
 19 20  1  0
 20 21  2  0
 20  2  1  0
 18  4  1  0
 16 12  1  0
  1 22  1  0
  1 23  1  0
  1 24  1  0
  3 25  1  0
  3 26  1  0
  5 27  1  0
  6 28  1  0
 13 29  1  0
 14 30  1  0
 15 31  1  0
 17 32  1  0
 19 33  1  0
M  CHG  1   8  -1
M  END
>  <UniqueID>  (15) 
12

>  <SMILES>  (15) 
CN1Cc2ccc([N-]S(=O)(=O)c3cccs3)cc2NC1=O

>  <Energy>  (15) 
63.36776477304321

>  <Genealogy>  (15) 
CN1Cc2ccc([N-]S(=O)(=O)c3cccs3)cc2NC1=O (protonated)
CN1Cc2ccc([N-]S(=O)(=O)c3cccs3)cc2NC1=O (3D coordinates assigned)
CN1Cc2ccc([N-]S(=O)(=O)c3cccs3)cc2NC1=O (nonaromatic ring conformer: 63.36776477304321 kcal/mol)

>  <smiles>  (15) 
CN1Cc2ccc(NS(=O)(=O)c3cccs3)cc2NC1=O

>  <score_type>  (15) 
oracle

>  <origin>  (15) 
adg

>  <m_score__min__energy>  (15) 
-9.3300000000000001

>  <m_primary>  (15) 
energy

$$$$
15:0
     RDKit          3D

 55 57  0  0  0  0  0  0  0  0999 V2000
   60.7610   26.5270   46.5080 C   0  0  0  0  0  0  0  0  0  0  0  0
   59.8600   27.6890   46.2100 C   0  0  0  0  0  0  0  0  0  0  0  0
   58.4760   27.4970   46.0960 C   0  0  0  0  0  0  0  0  0  0  0  0
   57.6370   28.5740   45.7900 C   0  0  0  0  0  0  0  0  0  0  0  0
   58.1690   29.8610   45.6080 C   0  0  0  0  0  0  0  0  0  0  0  0
   57.2910   30.9930   45.2420 C   0  0  0  0  0  0  0  0  0  0  0  0
   56.3410   30.8000   44.4390 O   0  0  0  0  0  0  0  0  0  0  0  0
   57.4660   32.3050   45.7960 N   0  0  0  0  0  0  0  0  0  0  0  0
   57.4200   33.5470   45.0300 C   0  0  0  0  0  0  0  0  0  0  0  0
   58.5700   34.4210   45.4060 C   0  0  0  0  0  0  0  0  0  0  0  0
   59.2280   35.0040   44.5040 O   0  0  0  0  0  0  0  0  0  0  0  0
   58.9360   34.5690   46.7800 N   0  0  0  0  0  0  0  0  0  0  0  0
   60.3290   34.5880   47.2150 C   0  0  0  0  0  0  0  0  0  0  0  0
   60.7250   33.2730   47.9600 C   0  0  0  0  0  0  0  0  0  0  0  0
   59.4890   32.4560   48.0580 N   0  0  0  0  0  0  0  0  0  0  0  0
   59.0180   31.7080   49.2030 C   0  0  0  0  0  0  0  0  0  0  0  0
   59.3550   30.3570   49.4190 C   0  0  0  0  0  0  0  0  0  0  0  0
   58.8800   29.6780   50.5450 C   0  0  0  0  0  0  0  0  0  0  0  0
   58.0550   30.3330   51.4660 C   0  0  0  0  0  0  0  0  0  0  0  0
   57.4050   29.4020   53.0030 Br  0  0  0  0  0  0  0  0  0  0  0  0
   57.7010   31.6670   51.2560 C   0  0  0  0  0  0  0  0  0  0  0  0
   58.1770   32.3490   50.1330 C   0  0  0  0  0  0  0  0  0  0  0  0
   61.7730   32.5050   47.0630 C   0  0  0  0  0  0  0  0  0  0  0  0
   63.2280   32.4130   47.5670 C   0  0  0  0  0  0  0  0  0  0  0  0
   63.5830   33.4560   48.6110 C   0  0  0  0  0  0  0  0  0  0  0  0
   62.6410   33.3180   49.7940 C   0  0  0  0  0  0  0  0  0  0  0  0
   61.1970   33.6660   49.4140 C   0  0  0  0  0  0  0  0  0  0  0  0
   59.5600   30.0440   45.6880 C   0  0  0  0  0  0  0  0  0  0  0  0
   60.3990   28.9640   45.9780 C   0  0  0  0  0  0  0  0  0  0  0  0
   60.8550   26.4058   47.5973 H   0  0  0  0  0  0  0  0  0  0  0  0
   60.3345   25.6113   46.0726 H   0  0  0  0  0  0  0  0  0  0  0  0
   61.7541   26.7120   46.0726 H   0  0  0  0  0  0  0  0  0  0  0  0
   58.0478   26.4952   46.2478 H   0  0  0  0  0  0  0  0  0  0  0  0
   56.5535   28.4117   45.6913 H   0  0  0  0  0  0  0  0  0  0  0  0
   57.4745   33.3150   43.9561 H   0  0  0  0  0  0  0  0  0  0  0  0
   56.4793   34.0729   45.2505 H   0  0  0  0  0  0  0  0  0  0  0  0
   60.9754   34.7053   46.3328 H   0  0  0  0  0  0  0  0  0  0  0  0
   60.4562   35.4274   47.9144 H   0  0  0  0  0  0  0  0  0  0  0  0
   58.8410   32.4600   47.2350 H   0  0  0  0  0  0  0  0  0  0  0  0
   59.9969   29.8324   48.6960 H   0  0  0  0  0  0  0  0  0  0  0  0
   59.1557   28.6256   50.7074 H   0  0  0  0  0  0  0  0  0  0  0  0
   57.0468   32.1817   51.9751 H   0  0  0  0  0  0  0  0  0  0  0  0
   57.8913   33.3992   49.9736 H   0  0  0  0  0  0  0  0  0  0  0  0
   61.4046   31.4761   46.9377 H   0  0  0  0  0  0  0  0  0  0  0  0
   61.8384   33.1042   46.1428 H   0  0  0  0  0  0  0  0  0  0  0  0
   63.3800   31.4164   48.0071 H   0  0  0  0  0  0  0  0  0  0  0  0
   63.8792   32.5945   46.6992 H   0  0  0  0  0  0  0  0  0  0  0  0
   64.6195   33.3034   48.9461 H   0  0  0  0  0  0  0  0  0  0  0  0
   63.4864   34.4620   48.1766 H   0  0  0  0  0  0  0  0  0  0  0  0
   62.6738   32.2799   50.1563 H   0  0  0  0  0  0  0  0  0  0  0  0
   62.9679   34.0194   50.5757 H   0  0  0  0  0  0  0  0  0  0  0  0
   60.5337   33.1555   50.1277 H   0  0  0  0  0  0  0  0  0  0  0  0
   61.1505   34.7646   49.4426 H   0  0  0  0  0  0  0  0  0  0  0  0
   59.9910   31.0423   45.5216 H   0  0  0  0  0  0  0  0  0  0  0  0
   61.4877   29.1143   46.0246 H   0  0  0  0  0  0  0  0  0  0  0  0
  1  2  1  0
  2  3  2  0
  3  4  1  0
  4  5  2  0
  5  6  1  0
  6  7  2  0
  6  8  1  0
  8  9  1  0
  9 10  1  0
 10 11  2  0
 10 12  1  0
 12 13  1  0
 13 14  1  0
 14 15  1  0
 15 16  1  0
 16 17  2  0
 17 18  1  0
 18 19  2  0
 19 20  1  0
 19 21  1  0
 21 22  2  0
 14 23  1  0
 23 24  1  0
 24 25  1  0
 25 26  1  0
 26 27  1  0
  5 28  1  0
 28 29  2  0
 29  2  1  0
 27 14  1  0
 22 16  1  0
  1 30  1  0
  1 31  1  0
  1 32  1  0
  3 33  1  0
  4 34  1  0
  9 35  1  0
  9 36  1  0
 13 37  1  0
 13 38  1  0
 15 39  1  0
 17 40  1  0
 18 41  1  0
 21 42  1  0
 22 43  1  0
 23 44  1  0
 23 45  1  0
 24 46  1  0
 24 47  1  0
 25 48  1  0
 25 49  1  0
 26 50  1  0
 26 51  1  0
 27 52  1  0
 27 53  1  0
 28 54  1  0
 29 55  1  0
M  CHG  2   8  -1  12  -1
M  END
>  <UniqueID>  (16) 
13

>  <SMILES>  (16) 
Cc1ccc(C(=O)[N-]CC(=O)[N-]CC2(Nc3ccc(Br)cc3)CCCCC2)cc1

>  <Energy>  (16) 
67.78091267138954

>  <Genealogy>  (16) 
Cc1ccc(C(=O)[N-]CC(=O)[N-]CC2(Nc3ccc(Br)cc3)CCCCC2)cc1 (protonated)
Cc1ccc(C(=O)[N-]CC(=O)[N-]CC2(Nc3ccc(Br)cc3)CCCCC2)cc1 (3D coordinates assigned)
Cc1ccc(C(=O)[N-]CC(=O)[N-]CC2(Nc3ccc(Br)cc3)CCCCC2)cc1 (nonaromatic ring conformer: 67.78091267138954 kcal/mol)

>  <smiles>  (16) 
Cc1ccc(C(=O)NCC(=O)NCC2(Nc3ccc(Br)cc3)CCCCC2)cc1

>  <score_type>  (16) 
oracle

>  <origin>  (16) 
adg

>  <m_score__min__energy>  (16) 
-12.1

>  <m_primary>  (16) 
energy

$$$$
16:0
     RDKit          3D

 39 41  0  0  0  0  0  0  0  0999 V2000
   57.7090   32.6460   42.7690 O   0  0  0  0  0  0  0  0  0  0  0  0
   57.4630   32.2960   43.9570 C   0  0  0  0  0  0  0  0  0  0  0  0
   56.7200   31.0010   44.1740 C   0  0  0  0  0  0  0  0  0  0  0  0
   57.4330   30.0610   45.1250 C   0  0  0  0  0  0  0  0  0  0  0  0
   58.7590   30.3150   45.5290 C   0  0  0  0  0  0  0  0  0  0  0  0
   59.4290   29.4420   46.3980 C   0  0  0  0  0  0  0  0  0  0  0  0
   60.7760   29.7480   46.7990 N   0  0  0  0  0  0  0  0  0  0  0  0
   61.2540   31.2740   47.4720 S   0  0  0  0  0  0  0  0  0  0  0  0
   62.6920   31.1950   47.9020 O   0  0  0  0  0  0  0  0  0  0  0  0
   61.1100   32.3440   46.4280 O   0  0  0  0  0  0  0  0  0  0  0  0
   60.2330   31.6800   48.8400 C   0  0  0  0  0  0  0  0  0  0  0  0
   60.3700   32.7960   49.6510 C   0  0  0  0  0  0  0  0  0  0  0  0
   59.3870   32.8700   50.6450 C   0  0  0  0  0  0  0  0  0  0  0  0
   58.4810   31.8170   50.6110 C   0  0  0  0  0  0  0  0  0  0  0  0
   58.9020   30.7910   49.3460 S   0  0  0  0  0  0  0  0  0  0  0  0
   58.7750   28.2780   46.8360 C   0  0  0  0  0  0  0  0  0  0  0  0
   57.4750   27.9990   46.4130 C   0  0  0  0  0  0  0  0  0  0  0  0
   56.8050   28.8750   45.5560 C   0  0  0  0  0  0  0  0  0  0  0  0
   55.5190   28.5550   45.1320 O   0  0  0  0  0  0  0  0  0  0  0  0
   57.9270   33.1550   45.0830 C   0  0  0  0  0  0  0  0  0  0  0  0
   57.5240   32.9140   46.4140 C   0  0  0  0  0  0  0  0  0  0  0  0
   57.9910   33.7220   47.4550 C   0  0  0  0  0  0  0  0  0  0  0  0
   58.8560   34.7850   47.1850 C   0  0  0  0  0  0  0  0  0  0  0  0
   59.2620   35.0380   45.8720 C   0  0  0  0  0  0  0  0  0  0  0  0
   60.1030   36.0700   45.6100 F   0  0  0  0  0  0  0  0  0  0  0  0
   58.8010   34.2310   44.8280 C   0  0  0  0  0  0  0  0  0  0  0  0
   55.7273   31.2316   44.5878 H   0  0  0  0  0  0  0  0  0  0  0  0
   56.6515   30.4940   43.2002 H   0  0  0  0  0  0  0  0  0  0  0  0
   59.2762   31.2117   45.1570 H   0  0  0  0  0  0  0  0  0  0  0  0
   61.5380   29.0720   46.5720 H   0  0  0  0  0  0  0  0  0  0  0  0
   61.1667   33.5441   49.5266 H   0  0  0  0  0  0  0  0  0  0  0  0
   59.3366   33.6843   51.3828 H   0  0  0  0  0  0  0  0  0  0  0  0
   57.6316   31.6777   51.2959 H   0  0  0  0  0  0  0  0  0  0  0  0
   59.2904   27.5834   47.5156 H   0  0  0  0  0  0  0  0  0  0  0  0
   56.9740   27.0822   46.7571 H   0  0  0  0  0  0  0  0  0  0  0  0
   56.8369   32.0837   46.6341 H   0  0  0  0  0  0  0  0  0  0  0  0
   57.6764   33.5201   48.4895 H   0  0  0  0  0  0  0  0  0  0  0  0
   59.2174   35.4225   48.0054 H   0  0  0  0  0  0  0  0  0  0  0  0
   59.1236   34.4377   43.7969 H   0  0  0  0  0  0  0  0  0  0  0  0
  1  2  2  0
  2  3  1  0
  3  4  1  0
  4  5  2  0
  5  6  1  0
  6  7  1  0
  7  8  1  0
  8  9  2  0
  8 10  2  0
  8 11  1  0
 11 12  2  0
 12 13  1  0
 13 14  2  0
 14 15  1  0
  6 16  2  0
 16 17  1  0
 17 18  2  0
 18 19  1  0
  2 20  1  0
 20 21  2  0
 21 22  1  0
 22 23  2  0
 23 24  1  0
 24 25  1  0
 24 26  2  0
 18  4  1  0
 26 20  1  0
 15 11  1  0
  3 27  1  0
  3 28  1  0
  5 29  1  0
  7 30  1  0
 12 31  1  0
 13 32  1  0
 14 33  1  0
 16 34  1  0
 17 35  1  0
 21 36  1  0
 22 37  1  0
 23 38  1  0
 26 39  1  0
M  CHG  1  19  -1
M  END
>  <UniqueID>  (17) 
14

>  <SMILES>  (17) 
O=C(Cc1cc(NS(=O)(=O)c2cccs2)ccc1[O-])c1cccc(F)c1

>  <Energy>  (17) 
72.6808045761413

>  <Genealogy>  (17) 
O=C(Cc1cc(NS(=O)(=O)c2cccs2)ccc1[O-])c1cccc(F)c1 (protonated)
O=C(Cc1cc(NS(=O)(=O)c2cccs2)ccc1[O-])c1cccc(F)c1 (3D coordinates assigned)
O=C(Cc1cc(NS(=O)(=O)c2cccs2)ccc1[O-])c1cccc(F)c1 (optimized conformer: 72.6808045761413 kcal/mol)

>  <smiles>  (17) 
O=C(Cc1cc(NS(=O)(=O)c2cccs2)ccc1O)c1cccc(F)c1

>  <score_type>  (17) 
oracle

>  <origin>  (17) 
adg

>  <m_score__min__energy>  (17) 
-11.4

>  <m_primary>  (17) 
energy

$$$$
17:0
     RDKit          3D

 44 46  0  0  0  0  0  0  0  0999 V2000
   54.7810   26.1440   45.8090 N   0  0  0  0  0  0  0  0  0  0  0  0
   54.6030   24.7040   45.6430 C   0  0  0  0  0  0  0  0  0  0  0  0
   55.7620   24.0940   44.8420 C   0  0  0  0  0  0  0  0  0  0  0  0
   57.0490   23.9050   45.6630 C   0  0  0  0  0  0  0  0  0  0  0  0
   56.8990   24.3650   47.1250 C   0  0  0  0  0  0  0  0  0  0  0  0
   57.5700   25.7230   47.3880 C   0  0  0  0  0  0  0  0  0  0  0  0
   57.3070   26.6810   46.2980 N   0  0  0  0  0  0  0  0  0  0  0  0
   58.2150   27.8400   46.3120 C   0  0  0  0  0  0  0  0  0  0  0  0
   57.8270   28.8510   45.2650 C   0  0  0  0  0  0  0  0  0  0  0  0
   57.0540   28.4830   44.1920 N   0  0  0  0  0  0  0  0  0  0  0  0
   56.6170   29.3920   43.2640 C   0  0  0  0  0  0  0  0  0  0  0  0
   56.9390   30.7540   43.3850 C   0  0  0  0  0  0  0  0  0  0  0  0
   57.7270   31.1220   44.4680 C   0  0  0  0  0  0  0  0  0  0  0  0
   58.1770   30.2010   45.3880 C   0  0  0  0  0  0  0  0  0  0  0  0
   58.8940   30.7930   46.3710 N   0  0  0  0  0  0  0  0  0  0  0  0
   58.8830   32.1070   46.0610 C   0  0  0  0  0  0  0  0  0  0  0  0
   59.4630   33.1470   46.7850 C   0  0  0  0  0  0  0  0  0  0  0  0
   59.3100   34.4570   46.2950 C   0  0  0  0  0  0  0  0  0  0  0  0
   58.5860   34.7000   45.1050 C   0  0  0  0  0  0  0  0  0  0  0  0
   58.0060   33.6340   44.3920 C   0  0  0  0  0  0  0  0  0  0  0  0
   58.1780   32.3470   44.9000 C   0  0  0  0  0  0  0  0  0  0  0  0
   55.5100   26.4660   45.1300 H   0  0  0  0  0  0  0  0  0  0  0  0
   55.1700   26.3090   46.7650 H   0  0  0  0  0  0  0  0  0  0  0  0
   54.5628   24.2300   46.6348 H   0  0  0  0  0  0  0  0  0  0  0  0
   53.6667   24.5282   45.0930 H   0  0  0  0  0  0  0  0  0  0  0  0
   55.4436   23.1112   44.4642 H   0  0  0  0  0  0  0  0  0  0  0  0
   55.9985   24.7988   44.0313 H   0  0  0  0  0  0  0  0  0  0  0  0
   57.3163   22.8380   45.6562 H   0  0  0  0  0  0  0  0  0  0  0  0
   57.8306   24.5252   45.1999 H   0  0  0  0  0  0  0  0  0  0  0  0
   55.8277   24.4498   47.3597 H   0  0  0  0  0  0  0  0  0  0  0  0
   57.3955   23.6185   47.7623 H   0  0  0  0  0  0  0  0  0  0  0  0
   57.1793   26.1375   48.3290 H   0  0  0  0  0  0  0  0  0  0  0  0
   58.6565   25.5627   47.4492 H   0  0  0  0  0  0  0  0  0  0  0  0
   56.3380   27.0530   46.4270 H   0  0  0  0  0  0  0  0  0  0  0  0
   58.1734   28.3160   47.3028 H   0  0  0  0  0  0  0  0  0  0  0  0
   59.2333   27.4863   46.0931 H   0  0  0  0  0  0  0  0  0  0  0  0
   56.7700   27.4850   44.0770 H   0  0  0  0  0  0  0  0  0  0  0  0
   56.0070   29.0511   42.4145 H   0  0  0  0  0  0  0  0  0  0  0  0
   56.5831   31.4958   42.6549 H   0  0  0  0  0  0  0  0  0  0  0  0
   59.3420   30.3430   47.2010 H   0  0  0  0  0  0  0  0  0  0  0  0
   60.0231   32.9498   47.7109 H   0  0  0  0  0  0  0  0  0  0  0  0
   59.7576   35.2996   46.8425 H   0  0  0  0  0  0  0  0  0  0  0  0
   58.4752   35.7295   44.7338 H   0  0  0  0  0  0  0  0  0  0  0  0
   57.4373   33.8100   43.4670 H   0  0  0  0  0  0  0  0  0  0  0  0
  1  2  1  0
  2  3  1  0
  3  4  1  0
  4  5  1  0
  5  6  1  0
  6  7  1  0
  7  8  1  0
  8  9  1  0
  9 10  2  0
 10 11  1  0
 11 12  2  0
 12 13  1  0
 13 14  2  0
 14 15  1  0
 15 16  1  0
 16 17  2  0
 17 18  1  0
 18 19  2  0
 19 20  1  0
 20 21  2  0
 14  9  1  0
 21 16  1  0
 21 13  1  0
  1 22  1  0
  1 23  1  0
  2 24  1  0
  2 25  1  0
  3 26  1  0
  3 27  1  0
  4 28  1  0
  4 29  1  0
  5 30  1  0
  5 31  1  0
  6 32  1  0
  6 33  1  0
  7 34  1  0
  8 35  1  0
  8 36  1  0
 10 37  1  0
 11 38  1  0
 12 39  1  0
 15 40  1  0
 17 41  1  0
 18 42  1  0
 19 43  1  0
 20 44  1  0
M  CHG  1  10   1
M  END
>  <UniqueID>  (18) 
15

>  <SMILES>  (18) 
NCCCCCNCc1[nH+]ccc2c1[nH]c1ccccc12

>  <Energy>  (18) 
77.38061186688506

>  <Genealogy>  (18) 
NCCCCCNCc1[nH+]ccc2c1[nH]c1ccccc12 (protonated)
NCCCCCNCc1[nH+]ccc2c1[nH]c1ccccc12 (3D coordinates assigned)
NCCCCCNCc1[nH+]ccc2c1[nH]c1ccccc12 (optimized conformer: 77.38061186688506 kcal/mol)

>  <smiles>  (18) 
NCCCCCNCc1nccc2c1[nH]c1ccccc12

>  <score_type>  (18) 
oracle

>  <origin>  (18) 
adg

>  <m_score__min__energy>  (18) 
-6.21

>  <m_primary>  (18) 
energy

$$$$
18:0
     RDKit          3D

 40 42  0  0  0  0  0  0  0  0999 V2000
   56.6410   30.4580   42.7350 C   0  0  0  0  0  0  0  0  0  0  0  0
   57.2940   30.0500   44.0270 C   0  0  0  0  0  0  0  0  0  0  0  0
   57.8190   28.7500   44.1340 C   0  0  0  0  0  0  0  0  0  0  0  0
   58.4880   28.3460   45.2920 C   0  0  0  0  0  0  0  0  0  0  0  0
   59.1490   26.7240   45.4050 Cl  0  0  0  0  0  0  0  0  0  0  0  0
   58.6440   29.2370   46.3550 C   0  0  0  0  0  0  0  0  0  0  0  0
   58.1100   30.5240   46.2720 C   0  0  0  0  0  0  0  0  0  0  0  0
   57.4020   30.9310   45.1330 C   0  0  0  0  0  0  0  0  0  0  0  0
   56.8390   32.2510   45.1230 N   0  0  0  0  0  0  0  0  0  0  0  0
   57.5380   33.4660   45.4250 C   0  0  0  0  0  0  0  0  0  0  0  0
   57.0730   34.5510   44.9860 O   0  0  0  0  0  0  0  0  0  0  0  0
   58.7950   33.4810   46.2110 C   0  0  0  0  0  0  0  0  0  0  0  0
   60.0240   33.7840   45.6150 C   0  0  0  0  0  0  0  0  0  0  0  0
   61.1930   33.7830   46.3740 C   0  0  0  0  0  0  0  0  0  0  0  0
   61.1350   33.4890   47.7480 C   0  0  0  0  0  0  0  0  0  0  0  0
   62.3380   33.4770   48.5510 N   0  0  0  0  0  0  0  0  0  0  0  0
   62.4970   34.2390   49.7800 C   0  0  0  0  0  0  0  0  0  0  0  0
   63.8230   33.7920   50.3790 C   0  0  0  0  0  0  0  0  0  0  0  0
   64.5820   33.1130   49.2450 C   0  0  0  0  0  0  0  0  0  0  0  0
   63.5240   32.6980   48.2310 C   0  0  0  0  0  0  0  0  0  0  0  0
   59.9190   33.2190   48.3150 N   0  0  0  0  0  0  0  0  0  0  0  0
   58.7700   33.2150   47.5870 C   0  0  0  0  0  0  0  0  0  0  0  0
   55.7263   31.0295   42.9510 H   0  0  0  0  0  0  0  0  0  0  0  0
   57.3355   31.0831   42.1546 H   0  0  0  0  0  0  0  0  0  0  0  0
   56.3837   29.5597   42.1546 H   0  0  0  0  0  0  0  0  0  0  0  0
   57.7019   28.0445   43.2982 H   0  0  0  0  0  0  0  0  0  0  0  0
   59.1881   28.9248   47.2586 H   0  0  0  0  0  0  0  0  0  0  0  0
   58.2461   31.2254   47.1084 H   0  0  0  0  0  0  0  0  0  0  0  0
   60.0679   34.0241   44.5424 H   0  0  0  0  0  0  0  0  0  0  0  0
   62.1587   34.0116   45.8994 H   0  0  0  0  0  0  0  0  0  0  0  0
   62.5197   35.3169   49.5617 H   0  0  0  0  0  0  0  0  0  0  0  0
   61.6613   34.0655   50.4739 H   0  0  0  0  0  0  0  0  0  0  0  0
   64.3869   34.6597   50.7519 H   0  0  0  0  0  0  0  0  0  0  0  0
   63.6742   33.1123   51.2310 H   0  0  0  0  0  0  0  0  0  0  0  0
   65.2968   33.8135   48.7885 H   0  0  0  0  0  0  0  0  0  0  0  0
   65.1609   32.2493   49.6041 H   0  0  0  0  0  0  0  0  0  0  0  0
   63.8646   32.9218   47.2093 H   0  0  0  0  0  0  0  0  0  0  0  0
   63.3222   31.6177   48.2770 H   0  0  0  0  0  0  0  0  0  0  0  0
   59.8450   33.0090   49.3340 H   0  0  0  0  0  0  0  0  0  0  0  0
   57.8118   33.0009   48.0830 H   0  0  0  0  0  0  0  0  0  0  0  0
  1  2  1  0
  2  3  2  0
  3  4  1  0
  4  5  1  0
  4  6  2  0
  6  7  1  0
  7  8  2  0
  8  9  1  0
  9 10  1  0
 10 11  2  0
 10 12  1  0
 12 13  2  0
 13 14  1  0
 14 15  2  0
 15 16  1  0
 16 17  1  0
 17 18  1  0
 18 19  1  0
 19 20  1  0
 15 21  1  0
 21 22  2  0
  8  2  1  0
 22 12  1  0
 20 16  1  0
  1 23  1  0
  1 24  1  0
  1 25  1  0
  3 26  1  0
  6 27  1  0
  7 28  1  0
 13 29  1  0
 14 30  1  0
 17 31  1  0
 17 32  1  0
 18 33  1  0
 18 34  1  0
 19 35  1  0
 19 36  1  0
 20 37  1  0
 20 38  1  0
 21 39  1  0
 22 40  1  0
M  CHG  2   9  -1  21   1
M  END
>  <UniqueID>  (19) 
16

>  <SMILES>  (19) 
Cc1cc(Cl)ccc1[N-]C(=O)c1ccc(N2CCCC2)[nH+]c1

>  <Energy>  (19) 
51.56523271189522

>  <Genealogy>  (19) 
Cc1cc(Cl)ccc1[N-]C(=O)c1ccc(N2CCCC2)[nH+]c1 (protonated)
Cc1cc(Cl)ccc1[N-]C(=O)c1ccc(N2CCCC2)[nH+]c1 (3D coordinates assigned)
Cc1cc(Cl)ccc1[N-]C(=O)c1ccc(N2CCCC2)[nH+]c1 (nonaromatic ring conformer: 51.56523271189522 kcal/mol)

>  <smiles>  (19) 
Cc1cc(Cl)ccc1NC(=O)c1ccc(N2CCCC2)nc1

>  <score_type>  (19) 
oracle

>  <origin>  (19) 
adg

>  <m_score__min__energy>  (19) 
-7.1900000000000004

>  <m_primary>  (19) 
energy

$$$$
19:0
     RDKit          3D

 56 57  0  0  0  0  0  0  0  0999 V2000
   59.2940   34.2610   44.9110 C   0  0  0  0  0  0  0  0  0  0  0  0
   58.3870   33.5830   45.9510 C   0  0  0  0  0  0  0  0  0  0  0  0
   56.9180   33.7910   45.5460 C   0  0  0  0  0  0  0  0  0  0  0  0
   58.6280   34.1460   47.2990 N   0  0  0  0  0  0  0  0  0  0  0  0
   60.0090   34.6310   47.4530 C   0  0  0  0  0  0  0  0  0  0  0  0
   60.5790   34.2210   48.8270 C   0  0  1  0  0  0  0  0  0  0  0  0
   59.5880   34.3010   49.8220 O   0  0  0  0  0  0  0  0  0  0  0  0
   61.1960   32.8120   48.7770 C   0  0  0  0  0  0  0  0  0  0  0  0
   60.1600   31.8510   48.9580 O   0  0  0  0  0  0  0  0  0  0  0  0
   59.9010   30.8500   48.0250 C   0  0  0  0  0  0  0  0  0  0  0  0
   60.2090   31.0700   46.6750 C   0  0  0  0  0  0  0  0  0  0  0  0
   60.0150   30.0560   45.7340 C   0  0  0  0  0  0  0  0  0  0  0  0
   59.5280   28.8010   46.1370 C   0  0  0  0  0  0  0  0  0  0  0  0
   59.4230   27.6730   45.1370 C   0  0  0  0  0  0  0  0  0  0  0  0
   58.0460   27.5740   44.5960 N   0  0  0  0  0  0  0  0  0  0  0  0
   57.6500   28.8540   43.9630 C   0  0  0  0  0  0  0  0  0  0  0  0
   56.6670   29.5930   44.8220 C   0  0  0  0  0  0  0  0  0  0  0  0
   57.0140   30.6370   45.4360 O   0  0  0  0  0  0  0  0  0  0  0  0
   55.3460   29.1670   44.8840 O   0  0  0  0  0  0  0  0  0  0  0  0
   57.0900   27.2020   45.6670 C   0  0  0  0  0  0  0  0  0  0  0  0
   56.6490   25.7670   45.5380 C   0  0  0  0  0  0  0  0  0  0  0  0
   57.5760   24.8160   45.2280 N   0  0  0  0  0  0  0  0  0  0  0  0
   57.2440   23.5080   45.0760 C   0  0  0  0  0  0  0  0  0  0  0  0
   55.9180   23.1000   45.2300 C   0  0  0  0  0  0  0  0  0  0  0  0
   54.9430   24.0500   45.5410 C   0  0  0  0  0  0  0  0  0  0  0  0
   55.3000   25.3910   45.6910 C   0  0  0  0  0  0  0  0  0  0  0  0
   54.3200   26.3330   45.9920 O   0  0  0  0  0  0  0  0  0  0  0  0
   59.1930   28.5920   47.4880 C   0  0  0  0  0  0  0  0  0  0  0  0
   59.3770   29.6140   48.4250 C   0  0  0  0  0  0  0  0  0  0  0  0
   60.0722   34.8427   45.4268 H   0  0  0  0  0  0  0  0  0  0  0  0
   59.7671   33.4933   44.2811 H   0  0  0  0  0  0  0  0  0  0  0  0
   58.6916   34.9321   44.2811 H   0  0  0  0  0  0  0  0  0  0  0  0
   58.6147   32.5073   45.9840 H   0  0  0  0  0  0  0  0  0  0  0  0
   56.2974   33.8789   46.4499 H   0  0  0  0  0  0  0  0  0  0  0  0
   56.8289   34.7107   44.9492 H   0  0  0  0  0  0  0  0  0  0  0  0
   56.5771   32.9322   44.9492 H   0  0  0  0  0  0  0  0  0  0  0  0
   58.4960   33.3880   48.0110 H   0  0  0  0  0  0  0  0  0  0  0  0
   60.6347   34.1984   46.6584 H   0  0  0  0  0  0  0  0  0  0  0  0
   60.0091   35.7287   47.3825 H   0  0  0  0  0  0  0  0  0  0  0  0
   61.3815   34.9280   49.0840 H   0  0  0  0  0  0  0  0  0  0  0  0
   58.9170   33.5970   49.6290 H   0  0  0  0  0  0  0  0  0  0  0  0
   61.6801   32.6547   47.8019 H   0  0  0  0  0  0  0  0  0  0  0  0
   61.9485   32.7049   49.5721 H   0  0  0  0  0  0  0  0  0  0  0  0
   60.6051   32.0452   46.3555 H   0  0  0  0  0  0  0  0  0  0  0  0
   60.2442   30.2405   44.6741 H   0  0  0  0  0  0  0  0  0  0  0  0
   60.1230   27.8589   44.3091 H   0  0  0  0  0  0  0  0  0  0  0  0
   59.6709   26.7288   45.6440 H   0  0  0  0  0  0  0  0  0  0  0  0
   58.5448   29.4778   43.8210 H   0  0  0  0  0  0  0  0  0  0  0  0
   57.1767   28.6360   42.9943 H   0  0  0  0  0  0  0  0  0  0  0  0
   57.5760   27.3403   46.6441 H   0  0  0  0  0  0  0  0  0  0  0  0
   56.2026   27.8457   45.5770 H   0  0  0  0  0  0  0  0  0  0  0  0
   58.0211   22.7690   44.8312 H   0  0  0  0  0  0  0  0  0  0  0  0
   55.6441   22.0417   45.1077 H   0  0  0  0  0  0  0  0  0  0  0  0
   53.8947   23.7419   45.6677 H   0  0  0  0  0  0  0  0  0  0  0  0
   58.7852   27.6218   47.8079 H   0  0  0  0  0  0  0  0  0  0  0  0
   59.1095   29.4467   49.4788 H   0  0  0  0  0  0  0  0  0  0  0  0
  1  2  1  0
  2  3  1  0
  2  4  1  0
  4  5  1  0
  5  6  1  0
  6  7  1  0
  6  8  1  0
  8  9  1  0
  9 10  1  0
 10 11  2  0
 11 12  1  0
 12 13  2  0
 13 14  1  0
 14 15  1  0
 15 16  1  0
 16 17  1  0
 17 18  2  0
 17 19  1  0
 15 20  1  0
 20 21  1  0
 21 22  2  0
 22 23  1  0
 23 24  2  0
 24 25  1  0
 25 26  2  0
 26 27  1  0
 13 28  1  0
 28 29  2  0
 29 10  1  0
 26 21  1  0
  1 30  1  0
  1 31  1  0
  1 32  1  0
  2 33  1  0
  3 34  1  0
  3 35  1  0
  3 36  1  0
  4 37  1  0
  5 38  1  0
  5 39  1  0
  6 40  1  1
  7 41  1  0
  8 42  1  0
  8 43  1  0
 11 44  1  0
 12 45  1  0
 14 46  1  0
 14 47  1  0
 16 48  1  0
 16 49  1  0
 20 50  1  0
 20 51  1  0
 23 52  1  0
 24 53  1  0
 25 54  1  0
 28 55  1  0
 29 56  1  0
M  CHG  2  19  -1  27  -1
M  END
>  <UniqueID>  (20) 
17

>  <SMILES>  (20) 
CC(C)NC[C@@H](O)COc1ccc(CN(CC(=O)[O-])Cc2ncccc2[O-])cc1

>  <Energy>  (20) 
58.822153443646926

>  <Genealogy>  (20) 
CC(C)NCC(O)COc1ccc(CN(CC(=O)[O-])Cc2ncccc2[O-])cc1 (protonated)
CC(C)NC[C@@H](O)COc1ccc(CN(CC(=O)[O-])Cc2ncccc2[O-])cc1 (chirality)
CC(C)NC[C@@H](O)COc1ccc(CN(CC(=O)[O-])Cc2ncccc2[O-])cc1 (3D coordinates assigned)
CC(C)NC[C@@H](O)COc1ccc(CN(CC(=O)[O-])Cc2ncccc2[O-])cc1 (optimized conformer: 58.822153443646926 kcal/mol)

>  <smiles>  (20) 
CC(C)NCC(O)COc1ccc(CN(CC(=O)O)Cc2ncccc2O)cc1

>  <score_type>  (20) 
oracle

>  <origin>  (20) 
adg

>  <m_score__min__energy>  (20) 
-13.98

>  <m_primary>  (20) 
energy

$$$$
20:0
     RDKit          3D

 29 30  0  0  0  0  0  0  0  0999 V2000
   60.1550   31.9080   47.6500 C   0  0  0  0  0  0  0  0  0  0  0  0
   61.2160   30.4860   47.4990 S   0  0  0  0  0  0  0  0  0  0  0  0
   62.6100   30.9070   47.1280 O   0  0  0  0  0  0  0  0  0  0  0  0
   61.2620   29.7820   48.8260 O   0  0  0  0  0  0  0  0  0  0  0  0
   60.5870   29.3900   46.3080 N   0  0  0  0  0  0  0  0  0  0  0  0
   59.1990   29.2970   45.9360 C   0  0  0  0  0  0  0  0  0  0  0  0
   58.5320   30.3410   45.2750 C   0  0  0  0  0  0  0  0  0  0  0  0
   57.1870   30.2130   44.9290 C   0  0  0  0  0  0  0  0  0  0  0  0
   56.4850   29.0440   45.2300 C   0  0  0  0  0  0  0  0  0  0  0  0
   55.1450   28.9620   44.8650 O   0  0  0  0  0  0  0  0  0  0  0  0
   57.1330   27.9740   45.8890 C   0  0  0  0  0  0  0  0  0  0  0  0
   56.4200   26.7120   46.2240 C   0  0  0  0  0  0  0  0  0  0  0  0
   55.1810   26.6070   46.0060 O   0  0  0  0  0  0  0  0  0  0  0  0
   57.1480   25.6120   46.7990 N   0  0  0  0  0  0  0  0  0  0  0  0
   56.6500   24.4760   47.1930 C   0  0  0  0  0  0  0  0  0  0  0  0
   57.3850   23.5750   47.8760 N   0  0  0  0  0  0  0  0  0  0  0  0
   56.5260   22.5630   48.0900 C   0  0  0  0  0  0  0  0  0  0  0  0
   55.3070   22.8760   47.5350 C   0  0  0  0  0  0  0  0  0  0  0  0
   55.3760   24.0900   46.9640 N   0  0  0  0  0  0  0  0  0  0  0  0
   58.4920   28.1200   46.2320 C   0  0  0  0  0  0  0  0  0  0  0  0
   59.9891   32.1303   48.7145 H   0  0  0  0  0  0  0  0  0  0  0  0
   60.6301   32.7732   47.1644 H   0  0  0  0  0  0  0  0  0  0  0  0
   59.1904   31.6990   47.1644 H   0  0  0  0  0  0  0  0  0  0  0  0
   61.2670   28.7170   45.8900 H   0  0  0  0  0  0  0  0  0  0  0  0
   59.0739   31.2660   45.0284 H   0  0  0  0  0  0  0  0  0  0  0  0
   56.6750   31.0397   44.4148 H   0  0  0  0  0  0  0  0  0  0  0  0
   56.7612   21.6311   48.6249 H   0  0  0  0  0  0  0  0  0  0  0  0
   54.4150   22.2327   47.5555 H   0  0  0  0  0  0  0  0  0  0  0  0
   59.0101   27.2947   46.7424 H   0  0  0  0  0  0  0  0  0  0  0  0
  1  2  1  0
  2  3  2  0
  2  4  2  0
  2  5  1  0
  5  6  1  0
  6  7  2  0
  7  8  1  0
  8  9  2  0
  9 10  1  0
  9 11  1  0
 11 12  1  0
 12 13  2  0
 12 14  1  0
 14 15  2  3
 15 16  1  0
 16 17  1  0
 17 18  2  0
 18 19  1  0
 11 20  2  0
 20  6  1  0
 19 15  1  0
  1 21  1  0
  1 22  1  0
  1 23  1  0
  5 24  1  0
  7 25  1  0
  8 26  1  0
 17 27  1  0
 18 28  1  0
 20 29  1  0
M  CHG  3  10  -1  16  -1  19  -1
M  END
>  <UniqueID>  (21) 
18

>  <SMILES>  (21) 
CS(=O)(=O)Nc1ccc([O-])c(C(=O)N=c2[n-]cc[n-]2)c1

>  <Energy>  (21) 
60.571306215281616

>  <Genealogy>  (21) 
CS(=O)(=O)Nc1ccc([O-])c(C(=O)N=c2[n-]cc[n-]2)c1 (protonated)
CS(=O)(=O)Nc1ccc([O-])c(C(=O)N=c2[n-]cc[n-]2)c1 (3D coordinates assigned)
CS(=O)(=O)Nc1ccc([O-])c(C(=O)N=c2[n-]cc[n-]2)c1 (optimized conformer: 60.571306215281616 kcal/mol)

>  <smiles>  (21) 
CS(=O)(=O)Nc1ccc(O)c(C(=O)N=c2[nH]cc[nH]2)c1

>  <score_type>  (21) 
oracle

>  <origin>  (21) 
adg

>  <m_score__min__energy>  (21) 
-12.710000000000001

>  <m_primary>  (21) 
energy

$$$$
21:0
     RDKit          3D

 40 42  0  0  0  0  0  0  0  0999 V2000
   55.1020   26.3400   46.2340 N   0  0  0  0  0  0  0  0  0  0  0  0
   56.5270   26.3630   46.2120 C   0  0  0  0  0  0  0  0  0  0  0  0
   57.1740   25.4080   46.7200 O   0  0  0  0  0  0  0  0  0  0  0  0
   57.2350   27.4910   45.5960 C   0  0  0  0  0  0  0  0  0  0  0  0
   56.6460   28.6060   45.0100 C   0  0  0  0  0  0  0  0  0  0  0  0
   57.5820   29.5410   44.5460 C   0  0  0  0  0  0  0  0  0  0  0  0
   57.1410   31.1080   43.8820 S   0  0  0  0  0  0  0  0  0  0  0  0
   56.9310   30.9670   42.4010 O   0  0  0  0  0  0  0  0  0  0  0  0
   55.8720   31.6130   44.5080 O   0  0  0  0  0  0  0  0  0  0  0  0
   58.4290   32.2300   44.1770 N   0  0  0  0  0  0  0  0  0  0  0  0
   58.6530   32.8570   45.4480 C   0  0  0  0  0  0  0  0  0  0  0  0
   58.2620   32.2440   46.6490 C   0  0  0  0  0  0  0  0  0  0  0  0
   58.5980   32.8190   47.8750 C   0  0  0  0  0  0  0  0  0  0  0  0
   59.3330   34.0180   47.9190 C   0  0  0  0  0  0  0  0  0  0  0  0
   59.7770   34.5830   49.1250 O   0  0  0  0  0  0  0  0  0  0  0  0
   60.9760   34.2120   49.8080 C   0  0  0  0  0  0  0  0  0  0  0  0
   61.8920   33.4380   48.8930 C   0  0  0  0  0  0  0  0  0  0  0  0
   61.7570   32.0460   48.7560 C   0  0  0  0  0  0  0  0  0  0  0  0
   62.5870   31.3400   47.8800 C   0  0  0  0  0  0  0  0  0  0  0  0
   63.5620   32.0170   47.1410 C   0  0  0  0  0  0  0  0  0  0  0  0
   63.7120   33.3990   47.2820 C   0  0  0  0  0  0  0  0  0  0  0  0
   62.8830   34.1080   48.1560 C   0  0  0  0  0  0  0  0  0  0  0  0
   59.6530   34.6660   46.7190 C   0  0  0  0  0  0  0  0  0  0  0  0
   59.3130   34.0900   45.4900 C   0  0  0  0  0  0  0  0  0  0  0  0
   58.9050   29.1670   44.7580 C   0  0  0  0  0  0  0  0  0  0  0  0
   58.9070   27.6740   45.5290 S   0  0  0  0  0  0  0  0  0  0  0  0
   54.5600   27.0800   46.7340 H   0  0  0  0  0  0  0  0  0  0  0  0
   55.5580   28.7406   44.9198 H   0  0  0  0  0  0  0  0  0  0  0  0
   57.6880   31.3060   46.6233 H   0  0  0  0  0  0  0  0  0  0  0  0
   58.2869   32.3328   48.8114 H   0  0  0  0  0  0  0  0  0  0  0  0
   61.4920   35.1207   50.1515 H   0  0  0  0  0  0  0  0  0  0  0  0
   60.7125   33.5759   50.6659 H   0  0  0  0  0  0  0  0  0  0  0  0
   60.9950   31.5095   49.3405 H   0  0  0  0  0  0  0  0  0  0  0  0
   62.4729   30.2513   47.7721 H   0  0  0  0  0  0  0  0  0  0  0  0
   64.2112   31.4614   46.4483 H   0  0  0  0  0  0  0  0  0  0  0  0
   64.4834   33.9296   46.7046 H   0  0  0  0  0  0  0  0  0  0  0  0
   63.0070   35.1953   48.2673 H   0  0  0  0  0  0  0  0  0  0  0  0
   60.1750   35.6340   46.7430 H   0  0  0  0  0  0  0  0  0  0  0  0
   59.5655   34.6085   44.5533 H   0  0  0  0  0  0  0  0  0  0  0  0
   59.7944   29.7472   44.4711 H   0  0  0  0  0  0  0  0  0  0  0  0
  1  2  1  0
  2  3  2  0
  2  4  1  0
  4  5  2  0
  5  6  1  0
  6  7  1  0
  7  8  2  0
  7  9  2  0
  7 10  1  0
 10 11  1  0
 11 12  2  0
 12 13  1  0
 13 14  2  0
 14 15  1  0
 15 16  1  0
 16 17  1  0
 17 18  2  0
 18 19  1  0
 19 20  2  0
 20 21  1  0
 21 22  2  0
 14 23  1  0
 23 24  2  0
  6 25  2  0
 25 26  1  0
 26  4  1  0
 24 11  1  0
 22 17  1  0
  1 27  1  0
  5 28  1  0
 12 29  1  0
 13 30  1  0
 16 31  1  0
 16 32  1  0
 18 33  1  0
 19 34  1  0
 20 35  1  0
 21 36  1  0
 22 37  1  0
 23 38  1  0
 24 39  1  0
 25 40  1  0
M  CHG  2   1  -1  10  -1
M  END
>  <UniqueID>  (22) 
19

>  <SMILES>  (22) 
[NH-]C(=O)c1cc(S(=O)(=O)[N-]c2ccc(OCc3ccccc3)cc2)cs1

>  <Energy>  (22) 
68.79893892063264

>  <Genealogy>  (22) 
[NH-]C(=O)c1cc(S(=O)(=O)[N-]c2ccc(OCc3ccccc3)cc2)cs1 (protonated)
[NH-]C(=O)c1cc(S(=O)(=O)[N-]c2ccc(OCc3ccccc3)cc2)cs1 (3D coordinates assigned)
[NH-]C(=O)c1cc(S(=O)(=O)[N-]c2ccc(OCc3ccccc3)cc2)cs1 (optimized conformer: 68.79893892063264 kcal/mol)

>  <smiles>  (22) 
NC(=O)c1cc(S(=O)(=O)Nc2ccc(OCc3ccccc3)cc2)cs1

>  <score_type>  (22) 
oracle

>  <origin>  (22) 
adg

>  <m_score__min__energy>  (22) 
-13.4

>  <m_primary>  (22) 
energy

$$$$
22:0
     RDKit          3D

 38 40  0  0  0  0  0  0  0  0999 V2000
   53.7333   24.5899   45.6820 H   0  0  0  0  0  0  0  0  0  0  0  0
   54.7640   24.9670   45.6080 C   0  0  0  0  0  0  0  0  0  0  0  0
   55.1140   26.2160   46.0140 N   0  0  0  0  0  0  0  0  0  0  0  0
   56.4320   26.4430   45.8210 C   0  0  0  0  0  0  0  0  0  0  0  0
   57.0280   27.5540   46.1210 N   0  0  0  0  0  0  0  0  0  0  0  0
   56.9280   28.9790   45.1390 S   0  0  0  0  0  0  0  0  0  0  0  0
   55.4890   29.3780   44.9640 O   0  0  0  0  0  0  0  0  0  0  0  0
   57.5320   28.7100   43.7880 O   0  0  0  0  0  0  0  0  0  0  0  0
   57.8100   30.2800   45.9290 C   0  0  0  0  0  0  0  0  0  0  0  0
   58.5170   30.0350   47.1120 C   0  0  0  0  0  0  0  0  0  0  0  0
   58.5108   29.0282   47.5551 H   0  0  0  0  0  0  0  0  0  0  0  0
   59.2300   31.0630   47.7320 C   0  0  0  0  0  0  0  0  0  0  0  0
   59.7736   30.8628   48.6671 H   0  0  0  0  0  0  0  0  0  0  0  0
   59.2590   32.3520   47.1710 C   0  0  0  0  0  0  0  0  0  0  0  0
   59.9740   33.4170   47.8280 N   0  0  0  0  0  0  0  0  0  0  0  0
   59.4190   34.1980   48.2470 H   0  0  0  0  0  0  0  0  0  0  0  0
   61.3950   33.4200   48.0390 C   0  0  0  0  0  0  0  0  0  0  0  0
   61.8960   33.2900   49.3440 C   0  0  0  0  0  0  0  0  0  0  0  0
   61.1981   33.1840   50.1877 H   0  0  0  0  0  0  0  0  0  0  0  0
   63.2790   33.2940   49.5820 C   0  0  0  0  0  0  0  0  0  0  0  0
   63.8030   33.1770   50.9830 C   0  0  0  0  0  0  0  0  0  0  0  0
   62.9859   33.3594   51.6965 H   0  0  0  0  0  0  0  0  0  0  0  0
   64.2079   32.1663   51.1398 H   0  0  0  0  0  0  0  0  0  0  0  0
   64.5994   33.9194   51.1398 H   0  0  0  0  0  0  0  0  0  0  0  0
   64.1630   33.4790   48.5100 C   0  0  0  0  0  0  0  0  0  0  0  0
   65.2477   33.5005   48.6913 H   0  0  0  0  0  0  0  0  0  0  0  0
   63.6710   33.6360   47.2130 C   0  0  0  0  0  0  0  0  0  0  0  0
   64.3702   33.7793   46.3760 H   0  0  0  0  0  0  0  0  0  0  0  0
   62.2950   33.6120   46.9730 C   0  0  0  0  0  0  0  0  0  0  0  0
   61.8420   33.8220   45.7100 F   0  0  0  0  0  0  0  0  0  0  0  0
   58.5390   32.6000   45.9830 C   0  0  0  0  0  0  0  0  0  0  0  0
   58.5450   33.9040   45.3670 C   0  0  0  0  0  0  0  0  0  0  0  0
   58.5500   34.9510   44.8730 N   0  0  0  0  0  0  0  0  0  0  0  0
   57.8270   31.5620   45.3650 C   0  0  0  0  0  0  0  0  0  0  0  0
   57.2784   31.7557   44.4315 H   0  0  0  0  0  0  0  0  0  0  0  0
   57.2130   25.1200   45.1450 S   0  0  0  0  0  0  0  0  0  0  0  0
   55.8040   24.2000   45.0920 C   0  0  0  0  0  0  0  0  0  0  0  0
   55.7201   23.1702   44.7146 H   0  0  0  0  0  0  0  0  0  0  0  0
  1  2  1  0
  2  3  1  0
  3  4  1  0
  4  5  2  0
  5  6  1  0
  6  7  2  0
  6  8  2  0
  6  9  1  0
  9 10  2  0
 10 11  1  0
 10 12  1  0
 12 13  1  0
 12 14  2  0
 14 15  1  0
 15 16  1  0
 15 17  1  0
 17 18  2  0
 18 19  1  0
 18 20  1  0
 20 21  1  0
 21 22  1  0
 21 23  1  0
 21 24  1  0
 20 25  2  0
 25 26  1  0
 25 27  1  0
 27 28  1  0
 27 29  2  0
 29 30  1  0
 14 31  1  0
 31 32  1  0
 32 33  3  0
 31 34  2  0
 34 35  1  0
  4 36  1  0
 36 37  1  0
 37 38  1  0
 37  2  2  0
 34  9  1  0
 29 17  1  0
M  CHG  1   3  -1
M  END
>  <UniqueID>  (23) 
20

>  <SMILES>  (23) 
Cc1ccc(F)c(Nc2ccc(S(=O)(=O)/N=c3\[n-]ccs3)cc2C#N)c1

>  <Energy>  (23) 
80.04013121993144

>  <Genealogy>  (23) 
Cc1ccc(F)c(Nc2ccc(S(=O)(=O)N=c3[n-]ccs3)cc2C#N)c1 (protonated)
Cc1ccc(F)c(Nc2ccc(S(=O)(=O)/N=c3\[n-]ccs3)cc2C#N)c1 (cis-trans isomerization)
Cc1ccc(F)c(Nc2ccc(S(=O)(=O)/N=c3\[n-]ccs3)cc2C#N)c1 (3D coordinates assigned)
Cc1ccc(F)c(Nc2ccc(S(=O)(=O)/N=c3\[n-]ccs3)cc2C#N)c1 (optimized conformer: 80.04013121993144 kcal/mol)

>  <smiles>  (23) 
Cc1ccc(F)c(Nc2ccc(S(=O)(=O)N=c3[nH]ccs3)cc2C#N)c1

>  <score_type>  (23) 
oracle

>  <origin>  (23) 
adg

>  <m_score__min__energy>  (23) 
-10.109999999999999

>  <m_primary>  (23) 
energy

$$$$
23:0
     RDKit          3D

 53 56  0  0  0  0  0  0  0  0999 V2000
   56.4590   22.1400   49.1660 C   0  0  0  0  0  0  0  0  0  0  0  0
   57.3840   22.6750   48.2260 O   0  0  0  0  0  0  0  0  0  0  0  0
   57.0200   23.3340   47.0420 C   0  0  0  0  0  0  0  0  0  0  0  0
   57.0130   24.7330   47.0380 C   0  0  0  0  0  0  0  0  0  0  0  0
   56.6510   25.4460   45.8830 C   0  0  0  0  0  0  0  0  0  0  0  0
   56.6650   26.8830   45.8550 N   0  0  0  0  0  0  0  0  0  0  0  0
   57.6790   27.6630   45.1920 C   0  0  0  0  0  0  0  0  0  0  0  0
   58.6690   27.0880   44.6620 O   0  0  0  0  0  0  0  0  0  0  0  0
   57.5880   29.1410   45.1250 C   0  0  0  0  0  0  0  0  0  0  0  0
   56.7390   29.7430   44.1840 C   0  0  0  0  0  0  0  0  0  0  0  0
   56.6430   31.1330   44.1020 C   0  0  0  0  0  0  0  0  0  0  0  0
   57.3890   31.9420   44.9640 C   0  0  0  0  0  0  0  0  0  0  0  0
   58.2800   31.3650   45.8900 C   0  0  0  0  0  0  0  0  0  0  0  0
   58.3710   29.9600   45.9610 C   0  0  0  0  0  0  0  0  0  0  0  0
   59.1620   32.2140   46.6680 N   0  0  0  0  0  0  0  0  0  0  0  0
   59.6210   31.8100   48.0100 C   0  0  0  0  0  0  0  0  0  0  0  0
   61.0910   32.1000   48.2160 C   0  0  0  0  0  0  0  0  0  0  0  0
   61.5330   32.9840   49.2200 C   0  0  0  0  0  0  0  0  0  0  0  0
   62.8950   33.2630   49.3630 C   0  0  0  0  0  0  0  0  0  0  0  0
   63.8280   32.6750   48.5040 C   0  0  0  0  0  0  0  0  0  0  0  0
   63.3980   31.8090   47.4960 C   0  0  0  0  0  0  0  0  0  0  0  0
   62.0360   31.5260   47.3470 C   0  0  0  0  0  0  0  0  0  0  0  0
   59.5600   33.5010   46.1450 C   0  0  0  0  0  0  0  0  0  0  0  0
   60.4020   34.2100   46.7630 O   0  0  0  0  0  0  0  0  0  0  0  0
   58.9930   34.0070   44.8540 C   0  0  0  0  0  0  0  0  0  0  0  0
   57.2000   33.7250   44.8710 S   0  0  0  0  0  0  0  0  0  0  0  0
   56.3330   24.7410   44.7130 C   0  0  0  0  0  0  0  0  0  0  0  0
   56.3340   23.3340   44.7030 C   0  0  0  0  0  0  0  0  0  0  0  0
   56.0070   22.5910   43.5570 O   0  0  0  0  0  0  0  0  0  0  0  0
   56.8530   21.6080   42.9670 C   0  0  0  0  0  0  0  0  0  0  0  0
   56.6730   22.6400   45.8680 C   0  0  0  0  0  0  0  0  0  0  0  0
   56.8136   22.3451   50.1869 H   0  0  0  0  0  0  0  0  0  0  0  0
   55.4745   22.6082   49.0188 H   0  0  0  0  0  0  0  0  0  0  0  0
   56.3739   21.0532   49.0188 H   0  0  0  0  0  0  0  0  0  0  0  0
   57.2941   25.2808   47.9495 H   0  0  0  0  0  0  0  0  0  0  0  0
   55.9130   27.3720   46.3890 H   0  0  0  0  0  0  0  0  0  0  0  0
   56.1441   29.1142   43.5052 H   0  0  0  0  0  0  0  0  0  0  0  0
   55.9780   31.5935   43.3565 H   0  0  0  0  0  0  0  0  0  0  0  0
   59.0634   29.4970   46.6795 H   0  0  0  0  0  0  0  0  0  0  0  0
   59.0409   32.3612   48.7648 H   0  0  0  0  0  0  0  0  0  0  0  0
   59.4713   30.7247   48.1083 H   0  0  0  0  0  0  0  0  0  0  0  0
   60.8033   33.4565   49.8940 H   0  0  0  0  0  0  0  0  0  0  0  0
   63.2340   33.9477   50.1543 H   0  0  0  0  0  0  0  0  0  0  0  0
   64.8995   32.8940   48.6218 H   0  0  0  0  0  0  0  0  0  0  0  0
   64.1317   31.3486   46.8180 H   0  0  0  0  0  0  0  0  0  0  0  0
   61.7024   30.8506   46.5454 H   0  0  0  0  0  0  0  0  0  0  0  0
   59.1996   35.0827   44.7531 H   0  0  0  0  0  0  0  0  0  0  0  0
   59.4521   33.4790   44.0052 H   0  0  0  0  0  0  0  0  0  0  0  0
   56.0807   25.2927   43.7954 H   0  0  0  0  0  0  0  0  0  0  0  0
   57.3508   21.0295   43.7592 H   0  0  0  0  0  0  0  0  0  0  0  0
   56.2499   20.9319   42.3432 H   0  0  0  0  0  0  0  0  0  0  0  0
   57.6114   22.1037   42.3432 H   0  0  0  0  0  0  0  0  0  0  0  0
   56.6685   21.5400   45.8671 H   0  0  0  0  0  0  0  0  0  0  0  0
  1  2  1  0
  2  3  1  0
  3  4  2  0
  4  5  1  0
  5  6  1  0
  6  7  1  0
  7  8  2  0
  7  9  1  0
  9 10  2  0
 10 11  1  0
 11 12  2  0
 12 13  1  0
 13 14  2  0
 13 15  1  0
 15 16  1  0
 16 17  1  0
 17 18  2  0
 18 19  1  0
 19 20  2  0
 20 21  1  0
 21 22  2  0
 15 23  1  0
 23 24  2  0
 23 25  1  0
 25 26  1  0
  5 27  2  0
 27 28  1  0
 28 29  1  0
 29 30  1  0
 28 31  2  0
 31  3  1  0
 14  9  1  0
 22 17  1  0
 26 12  1  0
  1 32  1  0
  1 33  1  0
  1 34  1  0
  4 35  1  0
  6 36  1  0
 10 37  1  0
 11 38  1  0
 14 39  1  0
 16 40  1  0
 16 41  1  0
 18 42  1  0
 19 43  1  0
 20 44  1  0
 21 45  1  0
 22 46  1  0
 25 47  1  0
 25 48  1  0
 27 49  1  0
 30 50  1  0
 30 51  1  0
 30 52  1  0
 31 53  1  0
M  END
>  <UniqueID>  (24) 
21

>  <SMILES>  (24) 
COc1cc(NC(=O)c2ccc3c(c2)N(Cc2ccccc2)C(=O)CS3)cc(OC)c1

>  <Energy>  (24) 
69.50419038130296

>  <Genealogy>  (24) 
COc1cc(NC(=O)c2ccc3c(c2)N(Cc2ccccc2)C(=O)CS3)cc(OC)c1 (3D coordinates assigned)
COc1cc(NC(=O)c2ccc3c(c2)N(Cc2ccccc2)C(=O)CS3)cc(OC)c1 (nonaromatic ring conformer: 69.50419038130296 kcal/mol)

>  <smiles>  (24) 
COc1cc(NC(=O)c2ccc3c(c2)N(Cc2ccccc2)C(=O)CS3)cc(OC)c1

>  <score_type>  (24) 
oracle

>  <origin>  (24) 
adg

>  <m_score__min__energy>  (24) 
-9.2100000000000009

>  <m_primary>  (24) 
energy

$$$$
24:0
     RDKit          3D

 40 42  0  0  0  0  0  0  0  0999 V2000
   60.0160   22.3620   44.8690 C   0  0  0  0  0  0  0  0  0  0  0  0
   58.6000   22.0550   45.3420 C   0  0  0  0  0  0  0  0  0  0  0  0
   57.6670   22.0810   44.2140 N   0  0  0  0  0  0  0  0  0  0  0  0
   57.1630   21.0070   43.5780 C   0  0  0  0  0  0  0  0  0  0  0  0
   56.1710   21.3570   42.7390 N   0  0  0  0  0  0  0  0  0  0  0  0
   56.0180   22.6690   42.8400 N   0  0  0  0  0  0  0  0  0  0  0  0
   56.9270   23.1040   43.7340 C   0  0  0  0  0  0  0  0  0  0  0  0
   57.0190   24.5120   44.1640 C   0  0  0  0  0  0  0  0  0  0  0  0
   56.3840   24.9210   45.3460 C   0  0  0  0  0  0  0  0  0  0  0  0
   56.4560   26.2540   45.7610 C   0  0  0  0  0  0  0  0  0  0  0  0
   57.1420   27.2030   44.9820 C   0  0  0  0  0  0  0  0  0  0  0  0
   57.2630   28.5750   45.3840 N   0  0  0  0  0  0  0  0  0  0  0  0
   56.4510   29.6700   44.9400 C   0  0  0  0  0  0  0  0  0  0  0  0
   55.2120   29.6720   45.1770 O   0  0  0  0  0  0  0  0  0  0  0  0
   57.0390   30.7520   44.1110 C   0  0  0  0  0  0  0  0  0  0  0  0
   56.7860   30.7450   42.7260 C   0  0  0  0  0  0  0  0  0  0  0  0
   57.3390   31.7190   41.8930 C   0  0  0  0  0  0  0  0  0  0  0  0
   58.1510   32.7160   42.4290 C   0  0  0  0  0  0  0  0  0  0  0  0
   58.4000   32.7540   43.8010 C   0  0  0  0  0  0  0  0  0  0  0  0
   57.8390   31.7910   44.6600 C   0  0  0  0  0  0  0  0  0  0  0  0
   58.1050   31.9080   46.1390 C   0  0  0  0  0  0  0  0  0  0  0  0
   57.7740   26.7910   43.8030 C   0  0  0  0  0  0  0  0  0  0  0  0
   57.7020   25.4580   43.3870 C   0  0  0  0  0  0  0  0  0  0  0  0
   60.6712   22.5040   45.7411 H   0  0  0  0  0  0  0  0  0  0  0  0
   60.3897   21.5240   44.2623 H   0  0  0  0  0  0  0  0  0  0  0  0
   60.0091   23.2795   44.2623 H   0  0  0  0  0  0  0  0  0  0  0  0
   58.5810   21.0573   45.8049 H   0  0  0  0  0  0  0  0  0  0  0  0
   58.2956   22.8177   46.0739 H   0  0  0  0  0  0  0  0  0  0  0  0
   57.5166   19.9759   43.7252 H   0  0  0  0  0  0  0  0  0  0  0  0
   55.8267   24.1893   45.9493 H   0  0  0  0  0  0  0  0  0  0  0  0
   55.9741   26.5619   46.7007 H   0  0  0  0  0  0  0  0  0  0  0  0
   56.1445   29.9622   42.2950 H   0  0  0  0  0  0  0  0  0  0  0  0
   57.1335   31.6993   40.8126 H   0  0  0  0  0  0  0  0  0  0  0  0
   58.5967   33.4748   41.7690 H   0  0  0  0  0  0  0  0  0  0  0  0
   59.0418   33.5452   44.2158 H   0  0  0  0  0  0  0  0  0  0  0  0
   57.2382   31.5267   46.6987 H   0  0  0  0  0  0  0  0  0  0  0  0
   58.9971   31.3192   46.3988 H   0  0  0  0  0  0  0  0  0  0  0  0
   58.2738   32.9635   46.3988 H   0  0  0  0  0  0  0  0  0  0  0  0
   58.3318   27.5217   43.1989 H   0  0  0  0  0  0  0  0  0  0  0  0
   58.1830   25.1506   42.4467 H   0  0  0  0  0  0  0  0  0  0  0  0
  1  2  1  0
  2  3  1  0
  3  4  1  0
  4  5  2  0
  5  6  1  0
  6  7  2  0
  7  8  1  0
  8  9  2  0
  9 10  1  0
 10 11  2  0
 11 12  1  0
 12 13  1  0
 13 14  2  0
 13 15  1  0
 15 16  2  0
 16 17  1  0
 17 18  2  0
 18 19  1  0
 19 20  2  0
 20 21  1  0
 11 22  1  0
 22 23  2  0
  7  3  1  0
 23  8  1  0
 20 15  1  0
  1 24  1  0
  1 25  1  0
  1 26  1  0
  2 27  1  0
  2 28  1  0
  4 29  1  0
  9 30  1  0
 10 31  1  0
 16 32  1  0
 17 33  1  0
 18 34  1  0
 19 35  1  0
 21 36  1  0
 21 37  1  0
 21 38  1  0
 22 39  1  0
 23 40  1  0
M  CHG  1  12  -1
M  END
>  <UniqueID>  (25) 
22

>  <SMILES>  (25) 
CCn1cnnc1-c1ccc([N-]C(=O)c2ccccc2C)cc1

>  <Energy>  (25) 
86.89053529623095

>  <Genealogy>  (25) 
CCn1cnnc1-c1ccc([N-]C(=O)c2ccccc2C)cc1 (protonated)
CCn1cnnc1-c1ccc([N-]C(=O)c2ccccc2C)cc1 (3D coordinates assigned)
CCn1cnnc1-c1ccc([N-]C(=O)c2ccccc2C)cc1 (optimized conformer: 86.89053529623095 kcal/mol)

>  <smiles>  (25) 
CCn1cnnc1-c1ccc(NC(=O)c2ccccc2C)cc1

>  <score_type>  (25) 
oracle

>  <origin>  (25) 
adg

>  <m_score__min__energy>  (25) 
-9.6899999999999995

>  <m_primary>  (25) 
energy

$$$$
25:0
     RDKit          3D

 36 39  0  0  0  0  0  0  0  0999 V2000
   55.1900   26.4250   45.6210 O   0  0  0  0  0  0  0  0  0  0  0  0
   56.2740   26.4990   46.2570 C   0  0  0  0  0  0  0  0  0  0  0  0
   56.6510   25.6000   47.1820 N   0  0  0  0  0  0  0  0  0  0  0  0
   57.8410   25.9860   47.6180 N   0  0  0  0  0  0  0  0  0  0  0  0
   58.1660   27.1110   46.9480 C   0  0  0  0  0  0  0  0  0  0  0  0
   59.6870   28.0180   47.2520 S   0  0  0  0  0  0  0  0  0  0  0  0
   58.8990   29.3210   48.2570 C   0  0  0  0  0  0  0  0  0  0  0  0
   59.0010   30.6480   47.5740 C   0  0  0  0  0  0  0  0  0  0  0  0
   60.1280   31.4600   47.5370 C   0  0  0  0  0  0  0  0  0  0  0  0
   59.8110   32.5350   46.7950 N   0  0  0  0  0  0  0  0  0  0  0  0
   60.5700   33.5990   46.4360 C   0  0  0  0  0  0  0  0  0  0  0  0
   59.9900   34.5790   45.6170 C   0  0  0  0  0  0  0  0  0  0  0  0
   58.6530   34.4280   45.1950 C   0  0  0  0  0  0  0  0  0  0  0  0
   57.9060   33.3070   45.5910 C   0  0  0  0  0  0  0  0  0  0  0  0
   58.5350   32.3680   46.4060 C   0  0  0  0  0  0  0  0  0  0  0  0
   58.0030   31.2190   46.8620 N   0  0  0  0  0  0  0  0  0  0  0  0
   57.1960   27.4660   46.0740 N   0  0  0  0  0  0  0  0  0  0  0  0
   57.1360   28.5920   45.1790 C   0  0  0  0  0  0  0  0  0  0  0  0
   58.3160   29.1270   44.6330 C   0  0  0  0  0  0  0  0  0  0  0  0
   58.2600   30.2070   43.7480 C   0  0  0  0  0  0  0  0  0  0  0  0
   57.0290   30.7670   43.4020 C   0  0  0  0  0  0  0  0  0  0  0  0
   56.9750   31.8080   42.5340 F   0  0  0  0  0  0  0  0  0  0  0  0
   55.8510   30.2550   43.9520 C   0  0  0  0  0  0  0  0  0  0  0  0
   55.9030   29.1780   44.8420 C   0  0  0  0  0  0  0  0  0  0  0  0
   57.8380   29.0713   48.4048 H   0  0  0  0  0  0  0  0  0  0  0  0
   59.4149   29.3811   49.2267 H   0  0  0  0  0  0  0  0  0  0  0  0
   61.0949   31.2610   48.0223 H   0  0  0  0  0  0  0  0  0  0  0  0
   61.6116   33.6914   46.7773 H   0  0  0  0  0  0  0  0  0  0  0  0
   60.5735   35.4583   45.3064 H   0  0  0  0  0  0  0  0  0  0  0  0
   58.1927   35.1927   44.5520 H   0  0  0  0  0  0  0  0  0  0  0  0
   56.8623   33.1749   45.2696 H   0  0  0  0  0  0  0  0  0  0  0  0
   57.0450   30.8440   46.6880 H   0  0  0  0  0  0  0  0  0  0  0  0
   59.2895   28.6926   44.9042 H   0  0  0  0  0  0  0  0  0  0  0  0
   59.1881   30.6168   43.3230 H   0  0  0  0  0  0  0  0  0  0  0  0
   54.8813   30.6999   43.6844 H   0  0  0  0  0  0  0  0  0  0  0  0
   54.9736   28.7866   45.2813 H   0  0  0  0  0  0  0  0  0  0  0  0
  1  2  2  0
  2  3  1  0
  3  4  1  0
  4  5  2  0
  5  6  1  0
  6  7  1  0
  7  8  1  0
  8  9  2  0
  9 10  1  0
 10 11  1  0
 11 12  2  0
 12 13  1  0
 13 14  2  0
 14 15  1  0
 15 16  2  0
  5 17  1  0
 17 18  1  0
 18 19  2  0
 19 20  1  0
 20 21  2  0
 21 22  1  0
 21 23  1  0
 23 24  2  0
 17  2  1  0
 24 18  1  0
 16  8  1  0
 15 10  1  0
  7 25  1  0
  7 26  1  0
  9 27  1  0
 11 28  1  0
 12 29  1  0
 13 30  1  0
 14 31  1  0
 16 32  1  0
 19 33  1  0
 20 34  1  0
 23 35  1  0
 24 36  1  0
M  CHG  2   3  -1  16   1
M  END
>  <UniqueID>  (26) 
23

>  <SMILES>  (26) 
O=c1[n-]nc(SCc2cn3ccccc3[nH+]2)n1-c1ccc(F)cc1

>  <Energy>  (26) 
108.2123242470005

>  <Genealogy>  (26) 
O=c1[n-]nc(SCc2cn3ccccc3[nH+]2)n1-c1ccc(F)cc1 (protonated)
O=c1[n-]nc(SCc2cn3ccccc3[nH+]2)n1-c1ccc(F)cc1 (3D coordinates assigned)
O=c1[n-]nc(SCc2cn3ccccc3[nH+]2)n1-c1ccc(F)cc1 (optimized conformer: 108.2123242470005 kcal/mol)

>  <smiles>  (26) 
O=c1[nH]nc(SCc2cn3ccccc3n2)n1-c1ccc(F)cc1

>  <score_type>  (26) 
oracle

>  <origin>  (26) 
adg

>  <m_score__min__energy>  (26) 
-7.5700000000000003

>  <m_primary>  (26) 
energy

$$$$
26:0
     RDKit          3D

 54 57  0  0  0  0  0  0  0  0999 V2000
   57.7110   19.4290   46.5300 C   0  0  0  0  0  0  0  0  0  0  0  0
   57.7710   20.7040   47.1630 O   0  0  0  0  0  0  0  0  0  0  0  0
   57.0430   21.8310   46.7500 C   0  0  0  0  0  0  0  0  0  0  0  0
   56.6790   22.0350   45.4060 C   0  0  0  0  0  0  0  0  0  0  0  0
   55.9500   23.1650   45.0330 C   0  0  0  0  0  0  0  0  0  0  0  0
   55.5650   24.1070   45.9950 C   0  0  0  0  0  0  0  0  0  0  0  0
   54.8150   25.3410   45.5850 C   0  0  0  0  0  0  0  0  0  0  0  0
   55.3930   26.5010   46.2530 N   0  0  0  0  0  0  0  0  0  0  0  0
   56.2630   27.4600   45.6390 C   0  0  0  0  0  0  0  0  0  0  0  0
   55.7640   28.5360   45.2210 O   0  0  0  0  0  0  0  0  0  0  0  0
   57.7470   27.2310   45.5140 C   0  0  0  0  0  0  0  0  0  0  0  0
   58.4860   28.1060   46.4260 N   0  0  0  0  0  0  0  0  0  0  0  0
   59.0270   27.5990   47.5280 N   0  0  0  0  0  0  0  0  0  0  0  0
   59.6330   28.5870   48.2080 C   0  0  0  0  0  0  0  0  0  0  0  0
   60.3620   28.3820   49.4950 C   0  0  0  0  0  0  0  0  0  0  0  0
   59.4700   29.7650   47.5100 C   0  0  0  0  0  0  0  0  0  0  0  0
   59.9140   31.0520   47.7800 C   0  0  0  0  0  0  0  0  0  0  0  0
   60.5780   31.2750   48.8320 O   0  0  0  0  0  0  0  0  0  0  0  0
   59.6230   32.0640   46.8940 N   0  0  0  0  0  0  0  0  0  0  0  0
   60.1080   33.4310   47.1790 C   0  0  0  0  0  0  0  0  0  0  0  0
   58.8800   31.8030   45.7480 C   0  0  0  0  0  0  0  0  0  0  0  0
   58.5660   32.8410   44.8330 C   0  0  0  0  0  0  0  0  0  0  0  0
   57.8220   32.5910   43.6860 C   0  0  0  0  0  0  0  0  0  0  0  0
   57.3660   31.3080   43.4160 C   0  0  0  0  0  0  0  0  0  0  0  0
   56.6370   31.0740   42.2960 F   0  0  0  0  0  0  0  0  0  0  0  0
   57.6510   30.2610   44.2890 C   0  0  0  0  0  0  0  0  0  0  0  0
   58.4090   30.4710   45.4610 C   0  0  0  0  0  0  0  0  0  0  0  0
   58.7410   29.4530   46.3920 C   0  0  0  0  0  0  0  0  0  0  0  0
   55.9410   23.9190   47.3340 C   0  0  0  0  0  0  0  0  0  0  0  0
   56.6770   22.7800   47.7180 C   0  0  0  0  0  0  0  0  0  0  0  0
   57.0630   22.5570   49.0480 O   0  0  0  0  0  0  0  0  0  0  0  0
   56.4410   21.6240   49.9250 C   0  0  0  0  0  0  0  0  0  0  0  0
   57.6739   18.6406   47.2962 H   0  0  0  0  0  0  0  0  0  0  0  0
   56.8092   19.3732   45.9025 H   0  0  0  0  0  0  0  0  0  0  0  0
   58.6035   19.2888   45.9025 H   0  0  0  0  0  0  0  0  0  0  0  0
   56.9714   21.2980   44.6435 H   0  0  0  0  0  0  0  0  0  0  0  0
   55.6765   23.3165   43.9784 H   0  0  0  0  0  0  0  0  0  0  0  0
   54.8883   25.4703   44.4951 H   0  0  0  0  0  0  0  0  0  0  0  0
   53.7573   25.2409   45.8701 H   0  0  0  0  0  0  0  0  0  0  0  0
   57.9721   26.1824   45.7585 H   0  0  0  0  0  0  0  0  0  0  0  0
   58.0533   27.4574   44.4821 H   0  0  0  0  0  0  0  0  0  0  0  0
   59.6805   28.5736   50.3370 H   0  0  0  0  0  0  0  0  0  0  0  0
   60.7281   27.3461   49.5481 H   0  0  0  0  0  0  0  0  0  0  0  0
   61.2144   29.0753   49.5481 H   0  0  0  0  0  0  0  0  0  0  0  0
   60.1614   33.5816   48.2673 H   0  0  0  0  0  0  0  0  0  0  0  0
   61.1082   33.5640   46.7409 H   0  0  0  0  0  0  0  0  0  0  0  0
   59.4153   34.1646   46.7409 H   0  0  0  0  0  0  0  0  0  0  0  0
   58.9182   33.8633   45.0353 H   0  0  0  0  0  0  0  0  0  0  0  0
   57.5939   33.4120   42.9903 H   0  0  0  0  0  0  0  0  0  0  0  0
   57.2784   29.2515   44.0609 H   0  0  0  0  0  0  0  0  0  0  0  0
   55.6590   24.6667   48.0899 H   0  0  0  0  0  0  0  0  0  0  0  0
   56.6352   21.9153   50.9678 H   0  0  0  0  0  0  0  0  0  0  0  0
   55.3563   21.6161   49.7424 H   0  0  0  0  0  0  0  0  0  0  0  0
   56.8509   20.6197   49.7424 H   0  0  0  0  0  0  0  0  0  0  0  0
  1  2  1  0
  2  3  1  0
  3  4  2  0
  4  5  1  0
  5  6  2  0
  6  7  1  0
  7  8  1  0
  8  9  1  0
  9 10  2  0
  9 11  1  0
 11 12  1  0
 12 13  1  0
 13 14  2  0
 14 15  1  0
 14 16  1  0
 16 17  1  0
 17 18  2  0
 17 19  1  0
 19 20  1  0
 19 21  1  0
 21 22  2  0
 22 23  1  0
 23 24  2  0
 24 25  1  0
 24 26  1  0
 26 27  2  0
 27 28  1  0
  6 29  1  0
 29 30  2  0
 30 31  1  0
 31 32  1  0
 30  3  1  0
 28 12  1  0
 28 16  2  0
 27 21  1  0
  1 33  1  0
  1 34  1  0
  1 35  1  0
  4 36  1  0
  5 37  1  0
  7 38  1  0
  7 39  1  0
 11 40  1  0
 11 41  1  0
 15 42  1  0
 15 43  1  0
 15 44  1  0
 20 45  1  0
 20 46  1  0
 20 47  1  0
 22 48  1  0
 23 49  1  0
 26 50  1  0
 29 51  1  0
 32 52  1  0
 32 53  1  0
 32 54  1  0
M  CHG  1   8  -1
M  END
>  <UniqueID>  (27) 
24

>  <SMILES>  (27) 
COc1ccc(C[N-]C(=O)Cn2nc(C)c3c(=O)n(C)c4ccc(F)cc4c32)cc1OC

>  <Energy>  (27) 
111.38254909259777

>  <Genealogy>  (27) 
COc1ccc(C[N-]C(=O)Cn2nc(C)c3c(=O)n(C)c4ccc(F)cc4c32)cc1OC (protonated)
COc1ccc(C[N-]C(=O)Cn2nc(C)c3c(=O)n(C)c4ccc(F)cc4c32)cc1OC (3D coordinates assigned)
COc1ccc(C[N-]C(=O)Cn2nc(C)c3c(=O)n(C)c4ccc(F)cc4c32)cc1OC (optimized conformer: 111.38254909259777 kcal/mol)

>  <smiles>  (27) 
COc1ccc(CNC(=O)Cn2nc(C)c3c(=O)n(C)c4ccc(F)cc4c32)cc1OC

>  <score_type>  (27) 
oracle

>  <origin>  (27) 
adg

>  <m_score__min__energy>  (27) 
-11.49

>  <m_primary>  (27) 
energy

$$$$
27:0
     RDKit          3D

 64 67  0  0  0  0  0  0  0  0999 V2000
   57.8550   31.3670   51.4520 C   0  0  0  0  0  0  0  0  0  0  0  0
   58.6330   32.1750   50.4570 C   0  0  0  0  0  0  0  0  0  0  0  0
   59.9430   32.5530   50.7430 C   0  0  0  0  0  0  0  0  0  0  0  0
   60.7210   33.2550   49.8050 C   0  0  0  0  0  0  0  0  0  0  0  0
   62.0090   33.8540   50.3090 C   0  0  0  0  0  0  0  0  0  0  0  0
   60.2120   33.4630   48.4830 C   0  0  0  0  0  0  0  0  0  0  0  0
   58.8270   33.2050   48.2620 C   0  0  0  0  0  0  0  0  0  0  0  0
   58.0650   32.5410   49.2370 C   0  0  0  0  0  0  0  0  0  0  0  0
   58.2430   33.5950   47.0450 C   0  0  0  0  0  0  0  0  0  0  0  0
   57.0090   33.4350   46.8320 O   0  0  0  0  0  0  0  0  0  0  0  0
   59.0280   34.1750   46.0600 C   0  0  0  0  0  0  0  0  0  0  0  0
   60.4030   34.2650   46.2430 C   0  0  0  0  0  0  0  0  0  0  0  0
   61.0010   33.8340   47.3990 N   0  0  0  0  0  0  0  0  0  0  0  0
   62.4610   33.5780   47.3170 C   0  0  0  0  0  0  0  0  0  0  0  0
   62.7800   32.1060   47.3360 C   0  0  0  0  0  0  0  0  0  0  0  0
   63.8800   31.7190   47.8140 O   0  0  0  0  0  0  0  0  0  0  0  0
   61.8570   31.1660   46.7740 N   0  0  0  0  0  0  0  0  0  0  0  0
   61.1580   30.1130   47.4550 C   0  0  0  0  0  0  0  0  0  0  0  0
   60.9260   30.1280   48.8430 C   0  0  0  0  0  0  0  0  0  0  0  0
   60.1900   29.1030   49.4420 C   0  0  0  0  0  0  0  0  0  0  0  0
   59.6550   28.0740   48.6640 C   0  0  0  0  0  0  0  0  0  0  0  0
   59.8400   28.0700   47.2740 C   0  0  0  0  0  0  0  0  0  0  0  0
   59.2300   26.9840   46.4240 C   0  0  0  0  0  0  0  0  0  0  0  0
   57.7810   26.6850   46.8200 C   0  0  0  0  0  0  0  0  0  0  0  0
   56.8640   27.1640   45.7780 N   0  0  0  0  0  0  0  0  0  0  0  0
   57.4720   28.2450   44.9920 C   0  0  0  0  0  0  0  0  0  0  0  0
   56.5960   29.5120   45.0400 C   0  0  2  0  0  0  0  0  0  0  0  0
   55.2390   29.1880   44.8780 O   0  0  0  0  0  0  0  0  0  0  0  0
   57.0310   30.4910   43.9710 C   0  0  0  0  0  0  0  0  0  0  0  0
   57.8420   31.5990   44.2790 C   0  0  0  0  0  0  0  0  0  0  0  0
   58.1610   32.5300   43.2880 C   0  0  0  0  0  0  0  0  0  0  0  0
   57.6500   32.3610   41.9980 C   0  0  0  0  0  0  0  0  0  0  0  0
   56.8540   31.2960   41.7160 N   0  0  0  0  0  0  0  0  0  0  0  0
   56.5370   30.3680   42.6600 C   0  0  0  0  0  0  0  0  0  0  0  0
   60.6020   29.0880   46.6800 C   0  0  0  0  0  0  0  0  0  0  0  0
   58.1421   31.6652   52.4712 H   0  0  0  0  0  0  0  0  0  0  0  0
   56.7791   31.5445   51.3074 H   0  0  0  0  0  0  0  0  0  0  0  0
   58.0730   30.2986   51.3074 H   0  0  0  0  0  0  0  0  0  0  0  0
   60.3771   32.2976   51.7209 H   0  0  0  0  0  0  0  0  0  0  0  0
   62.0079   33.8535   51.4090 H   0  0  0  0  0  0  0  0  0  0  0  0
   62.8583   33.2585   49.9429 H   0  0  0  0  0  0  0  0  0  0  0  0
   62.1008   34.8872   49.9429 H   0  0  0  0  0  0  0  0  0  0  0  0
   57.0090   32.3071   49.0363 H   0  0  0  0  0  0  0  0  0  0  0  0
   58.5656   34.5614   45.1397 H   0  0  0  0  0  0  0  0  0  0  0  0
   61.0252   34.6916   45.4424 H   0  0  0  0  0  0  0  0  0  0  0  0
   62.8453   34.0122   46.3822 H   0  0  0  0  0  0  0  0  0  0  0  0
   62.9356   34.0389   48.1958 H   0  0  0  0  0  0  0  0  0  0  0  0
   61.3251   30.9485   49.4574 H   0  0  0  0  0  0  0  0  0  0  0  0
   60.0312   29.1063   50.5305 H   0  0  0  0  0  0  0  0  0  0  0  0
   59.0863   27.2636   49.1434 H   0  0  0  0  0  0  0  0  0  0  0  0
   59.2509   27.3039   45.3717 H   0  0  0  0  0  0  0  0  0  0  0  0
   59.8177   26.0665   46.5751 H   0  0  0  0  0  0  0  0  0  0  0  0
   57.6546   25.5995   46.9449 H   0  0  0  0  0  0  0  0  0  0  0  0
   57.5525   27.1996   47.7650 H   0  0  0  0  0  0  0  0  0  0  0  0
   56.0280   27.5700   46.2680 H   0  0  0  0  0  0  0  0  0  0  0  0
   58.4651   28.4767   45.4043 H   0  0  0  0  0  0  0  0  0  0  0  0
   57.5605   27.9155   43.9463 H   0  0  0  0  0  0  0  0  0  0  0  0
   56.7236   29.9816   46.0265 H   0  0  0  0  0  0  0  0  0  0  0  0
   55.1750   28.1940   44.8860 H   0  0  0  0  0  0  0  0  0  0  0  0
   58.2252   31.7320   45.3015 H   0  0  0  0  0  0  0  0  0  0  0  0
   58.8084   33.3884   43.5205 H   0  0  0  0  0  0  0  0  0  0  0  0
   57.8922   33.0902   41.2108 H   0  0  0  0  0  0  0  0  0  0  0  0
   55.8912   29.5175   42.3961 H   0  0  0  0  0  0  0  0  0  0  0  0
   60.7644   29.0805   45.5921 H   0  0  0  0  0  0  0  0  0  0  0  0
  1  2  1  0
  2  3  2  0
  3  4  1  0
  4  5  1  0
  4  6  2  0
  6  7  1  0
  7  8  2  0
  7  9  1  0
  9 10  2  0
  9 11  1  0
 11 12  2  0
 12 13  1  0
 13 14  1  0
 14 15  1  0
 15 16  2  0
 15 17  1  0
 17 18  1  0
 18 19  2  0
 19 20  1  0
 20 21  2  0
 21 22  1  0
 22 23  1  0
 23 24  1  0
 24 25  1  0
 25 26  1  0
 26 27  1  0
 27 28  1  0
 27 29  1  0
 29 30  2  0
 30 31  1  0
 31 32  2  0
 32 33  1  0
 33 34  2  0
 22 35  2  0
  8  2  1  0
 35 18  1  0
 13  6  1  0
 34 29  1  0
  1 36  1  0
  1 37  1  0
  1 38  1  0
  3 39  1  0
  5 40  1  0
  5 41  1  0
  5 42  1  0
  8 43  1  0
 11 44  1  0
 12 45  1  0
 14 46  1  0
 14 47  1  0
 19 48  1  0
 20 49  1  0
 21 50  1  0
 23 51  1  0
 23 52  1  0
 24 53  1  0
 24 54  1  0
 25 55  1  0
 26 56  1  0
 26 57  1  0
 27 58  1  1
 28 59  1  0
 30 60  1  0
 31 61  1  0
 32 62  1  0
 34 63  1  0
 35 64  1  0
M  CHG  1  17  -1
M  END
>  <UniqueID>  (28) 
25

>  <SMILES>  (28) 
Cc1cc(C)c2c(c1)c(=O)ccn2CC(=O)[N-]c1cccc(CCNC[C@H](O)c2cccnc2)c1

>  <Energy>  (28) 
88.93853427501726

>  <Genealogy>  (28) 
Cc1cc(C)c2c(c1)c(=O)ccn2CC(=O)[N-]c1cccc(CCNCC(O)c2cccnc2)c1 (protonated)
Cc1cc(C)c2c(c1)c(=O)ccn2CC(=O)[N-]c1cccc(CCNC[C@H](O)c2cccnc2)c1 (chirality)
Cc1cc(C)c2c(c1)c(=O)ccn2CC(=O)[N-]c1cccc(CCNC[C@H](O)c2cccnc2)c1 (3D coordinates assigned)
Cc1cc(C)c2c(c1)c(=O)ccn2CC(=O)[N-]c1cccc(CCNC[C@H](O)c2cccnc2)c1 (optimized conformer: 88.93853427501726 kcal/mol)

>  <smiles>  (28) 
Cc1cc(C)c2c(c1)c(=O)ccn2CC(=O)Nc1cccc(CCNCC(O)c2cccnc2)c1

>  <score_type>  (28) 
oracle

>  <origin>  (28) 
adg

>  <m_score__min__energy>  (28) 
-10.99

>  <m_primary>  (28) 
energy

$$$$
28:0
     RDKit          3D

 23 24  0  0  0  0  0  0  0  0999 V2000
   59.6790   34.4490   48.6210 C   0  0  0  0  0  0  0  0  0  0  0  0
   59.3200   34.2210   47.1860 C   0  0  0  0  0  0  0  0  0  0  0  0
   58.7550   33.0030   46.7840 C   0  0  0  0  0  0  0  0  0  0  0  0
   58.4240   32.8030   45.4320 C   0  0  0  0  0  0  0  0  0  0  0  0
   57.8260   31.5330   44.9600 C   0  0  0  0  0  0  0  0  0  0  0  0
   58.5100   30.4380   44.5740 N   0  0  0  0  0  0  0  0  0  0  0  0
   57.5290   29.5790   44.2400 C   0  0  0  0  0  0  0  0  0  0  0  0
   57.7630   28.1730   43.8000 C   0  0  0  0  0  0  0  0  0  0  0  0
   56.3090   30.1150   44.4290 N   0  0  0  0  0  0  0  0  0  0  0  0
   56.5330   31.3200   44.8670 O   0  0  0  0  0  0  0  0  0  0  0  0
   58.6710   33.8350   44.5140 C   0  0  0  0  0  0  0  0  0  0  0  0
   59.2360   35.0330   44.9560 C   0  0  0  0  0  0  0  0  0  0  0  0
   59.5450   35.1990   46.2690 N   0  0  0  0  0  0  0  0  0  0  0  0
   58.9276   33.9718   49.2672 H   0  0  0  0  0  0  0  0  0  0  0  0
   60.6681   34.0132   48.8252 H   0  0  0  0  0  0  0  0  0  0  0  0
   59.7051   35.5296   48.8252 H   0  0  0  0  0  0  0  0  0  0  0  0
   58.5715   32.2081   47.5218 H   0  0  0  0  0  0  0  0  0  0  0  0
   59.5400   30.2710   44.5440 H   0  0  0  0  0  0  0  0  0  0  0  0
   57.8707   27.5256   44.6828 H   0  0  0  0  0  0  0  0  0  0  0  0
   56.9094   27.8308   43.1964 H   0  0  0  0  0  0  0  0  0  0  0  0
   58.6814   28.1257   43.1964 H   0  0  0  0  0  0  0  0  0  0  0  0
   58.4208   33.7010   43.4513 H   0  0  0  0  0  0  0  0  0  0  0  0
   59.4315   35.8445   44.2396 H   0  0  0  0  0  0  0  0  0  0  0  0
  1  2  1  0
  2  3  2  0
  3  4  1  0
  4  5  1  0
  5  6  2  0
  6  7  1  0
  7  8  1  0
  7  9  2  0
  9 10  1  0
  4 11  2  0
 11 12  1  0
 12 13  2  0
 13  2  1  0
 10  5  1  0
  1 14  1  0
  1 15  1  0
  1 16  1  0
  3 17  1  0
  6 18  1  0
  8 19  1  0
  8 20  1  0
  8 21  1  0
 11 22  1  0
 12 23  1  0
M  CHG  1   6   1
M  END
>  <UniqueID>  (29) 
26

>  <SMILES>  (29) 
Cc1cc(-c2[nH+]c(C)no2)ccn1

>  <Energy>  (29) 
56.92133825968598

>  <Genealogy>  (29) 
Cc1cc(-c2[nH+]c(C)no2)ccn1 (protonated)
Cc1cc(-c2[nH+]c(C)no2)ccn1 (3D coordinates assigned)
Cc1cc(-c2[nH+]c(C)no2)ccn1 (optimized conformer: 56.92133825968598 kcal/mol)

>  <smiles>  (29) 
Cc1cc(-c2nc(C)no2)ccn1

>  <score_type>  (29) 
oracle

>  <origin>  (29) 
adg

>  <m_score__min__energy>  (29) 
-4.4900000000000002

>  <m_primary>  (29) 
energy

$$$$
29:0
     RDKit          3D

 39 41  0  0  0  0  0  0  0  0999 V2000
   57.9635   29.4772   43.0059 H   0  0  0  0  0  0  0  0  0  0  0  0
   57.7530   29.4190   44.0840 C   0  0  0  0  0  0  0  0  0  0  0  0
   56.4820   29.9760   44.5930 C   0  0  0  0  0  0  0  0  0  0  0  0
   55.5270   29.2030   44.8760 O   0  0  0  0  0  0  0  0  0  0  0  0
   56.2700   31.3920   44.6850 N   0  0  0  0  0  0  0  0  0  0  0  0
   57.1700   32.2950   44.9410 C   0  0  0  0  0  0  0  0  0  0  0  0
   58.0110   32.7540   43.9900 N   0  0  0  0  0  0  0  0  0  0  0  0
   58.8420   33.7180   44.4710 C   0  0  0  0  0  0  0  0  0  0  0  0
   59.6117   34.2009   43.8510 H   0  0  0  0  0  0  0  0  0  0  0  0
   58.6420   34.0450   45.8080 C   0  0  0  0  0  0  0  0  0  0  0  0
   59.4620   35.0050   46.6100 C   0  0  0  0  0  0  0  0  0  0  0  0
   58.8454   35.4234   47.4192 H   0  0  0  0  0  0  0  0  0  0  0  0
   59.8153   35.8142   45.9539 H   0  0  0  0  0  0  0  0  0  0  0  0
   60.6480   34.2970   47.2030 C   0  0  0  0  0  0  0  0  0  0  0  0
   60.6950   34.0240   48.5780 C   0  0  0  0  0  0  0  0  0  0  0  0
   59.8758   34.3602   49.2305 H   0  0  0  0  0  0  0  0  0  0  0  0
   61.7770   33.3270   49.1240 C   0  0  0  0  0  0  0  0  0  0  0  0
   61.8083   33.1230   50.2045 H   0  0  0  0  0  0  0  0  0  0  0  0
   62.8270   32.8850   48.2960 C   0  0  0  0  0  0  0  0  0  0  0  0
   63.9340   32.1830   48.7940 O   0  0  0  0  0  0  0  0  0  0  0  0
   64.9100   32.7380   49.6700 C   0  0  0  0  0  0  0  0  0  0  0  0
   64.6067   32.5655   50.7132 H   0  0  0  0  0  0  0  0  0  0  0  0
   65.8826   32.2578   49.4867 H   0  0  0  0  0  0  0  0  0  0  0  0
   64.9946   33.8193   49.4867 H   0  0  0  0  0  0  0  0  0  0  0  0
   62.7700   33.1490   46.9220 C   0  0  0  0  0  0  0  0  0  0  0  0
   63.5840   32.8056   46.2666 H   0  0  0  0  0  0  0  0  0  0  0  0
   61.6880   33.8450   46.3760 C   0  0  0  0  0  0  0  0  0  0  0  0
   61.6514   34.0393   45.2939 H   0  0  0  0  0  0  0  0  0  0  0  0
   57.4040   33.0830   46.4180 S   0  0  0  0  0  0  0  0  0  0  0  0
   58.6560   28.8470   44.8870 C   0  0  0  0  0  0  0  0  0  0  0  0
   59.0437   27.8490   44.6345 H   0  0  0  0  0  0  0  0  0  0  0  0
   59.1430   29.5210   46.1000 C   0  0  0  0  0  0  0  0  0  0  0  0
   58.4440   29.6720   47.2040 O   0  0  0  0  0  0  0  0  0  0  0  0
   59.1850   30.3120   48.0800 C   0  0  0  0  0  0  0  0  0  0  0  0
   58.8689   30.5837   49.0980 H   0  0  0  0  0  0  0  0  0  0  0  0
   60.4190   30.5920   47.5310 C   0  0  0  0  0  0  0  0  0  0  0  0
   61.2542   31.1179   48.0166 H   0  0  0  0  0  0  0  0  0  0  0  0
   60.3950   30.0800   46.2510 C   0  0  0  0  0  0  0  0  0  0  0  0
   61.2043   30.1108   45.5066 H   0  0  0  0  0  0  0  0  0  0  0  0
  1  2  1  0
  2  3  1  0
  3  4  2  0
  3  5  1  0
  5  6  2  0
  6  7  1  0
  7  8  1  0
  8  9  1  0
  8 10  2  0
 10 11  1  0
 11 12  1  0
 11 13  1  0
 11 14  1  0
 14 15  2  0
 15 16  1  0
 15 17  1  0
 17 18  1  0
 17 19  2  0
 19 20  1  0
 20 21  1  0
 21 22  1  0
 21 23  1  0
 21 24  1  0
 19 25  1  0
 25 26  1  0
 25 27  2  0
 27 28  1  0
 10 29  1  0
  2 30  2  0
 30 31  1  0
 30 32  1  0
 32 33  1  0
 33 34  1  0
 34 35  1  0
 34 36  2  0
 36 37  1  0
 36 38  1  0
 38 39  1  0
 29  6  1  0
 38 32  2  0
 27 14  1  0
M  CHG  1   7  -1
M  END
>  <UniqueID>  (30) 
27

>  <SMILES>  (30) 
COc1ccc(Cc2c[n-]/c(=N/C(=O)/C=C/c3ccco3)s2)cc1

>  <Energy>  (30) 
98.67925592952605

>  <Genealogy>  (30) 
COc1ccc(Cc2c[n-]c(=NC(=O)C=Cc3ccco3)s2)cc1 (protonated)
COc1ccc(Cc2c[n-]/c(=N/C(=O)/C=C/c3ccco3)s2)cc1 (cis-trans isomerization)
COc1ccc(Cc2c[n-]/c(=N/C(=O)/C=C/c3ccco3)s2)cc1 (3D coordinates assigned)
COc1ccc(Cc2c[n-]/c(=N/C(=O)/C=C/c3ccco3)s2)cc1 (optimized conformer: 98.67925592952605 kcal/mol)

>  <smiles>  (30) 
COc1ccc(Cc2c[nH]c(=NC(=O)C=Cc3ccco3)s2)cc1

>  <score_type>  (30) 
oracle

>  <origin>  (30) 
adg

>  <m_score__min__energy>  (30) 
-10.42

>  <m_primary>  (30) 
energy

$$$$
30:0
     RDKit          3D

 30 31  0  0  0  0  0  0  0  0999 V2000
   58.2920   28.1670   45.0420 C   0  0  0  0  0  0  0  0  0  0  0  0
   57.6220   28.4140   43.7680 N   0  0  0  0  0  0  0  0  0  0  0  0
   56.5570   29.7790   43.9190 S   0  0  0  0  0  0  0  0  0  0  0  0
   55.4600   29.4440   44.8900 O   0  0  0  0  0  0  0  0  0  0  0  0
   55.9340   30.0880   42.5870 O   0  0  0  0  0  0  0  0  0  0  0  0
   57.4400   31.1840   44.5140 C   0  0  0  0  0  0  0  0  0  0  0  0
   57.8020   31.2800   45.8650 C   0  0  0  0  0  0  0  0  0  0  0  0
   58.4880   32.4040   46.3320 C   0  0  0  0  0  0  0  0  0  0  0  0
   58.8110   33.4520   45.4540 C   0  0  0  0  0  0  0  0  0  0  0  0
   59.5830   34.6440   45.9470 C   0  0  0  0  0  0  0  0  0  0  0  0
   60.7790   34.1920   46.7230 C   0  0  0  0  0  0  0  0  0  0  0  0
   60.8800   34.1460   48.1000 C   0  0  0  0  0  0  0  0  0  0  0  0
   62.1580   33.7050   48.3620 C   0  0  0  0  0  0  0  0  0  0  0  0
   62.7580   33.5150   47.1340 C   0  0  0  0  0  0  0  0  0  0  0  0
   61.9120   33.8160   46.1760 O   0  0  0  0  0  0  0  0  0  0  0  0
   58.4560   33.3500   44.1000 C   0  0  0  0  0  0  0  0  0  0  0  0
   57.7680   32.2250   43.6350 C   0  0  0  0  0  0  0  0  0  0  0  0
   57.6114   28.4179   45.8689 H   0  0  0  0  0  0  0  0  0  0  0  0
   58.5740   27.1058   45.1083 H   0  0  0  0  0  0  0  0  0  0  0  0
   59.1953   28.7912   45.1083 H   0  0  0  0  0  0  0  0  0  0  0  0
   57.0260   27.5820   43.5520 H   0  0  0  0  0  0  0  0  0  0  0  0
   57.5449   30.4672   46.5601 H   0  0  0  0  0  0  0  0  0  0  0  0
   58.7764   32.4686   47.3916 H   0  0  0  0  0  0  0  0  0  0  0  0
   59.9125   35.2459   45.0872 H   0  0  0  0  0  0  0  0  0  0  0  0
   58.9362   35.2491   46.5993 H   0  0  0  0  0  0  0  0  0  0  0  0
   60.1027   34.4069   48.8333 H   0  0  0  0  0  0  0  0  0  0  0  0
   62.6096   33.5379   49.3510 H   0  0  0  0  0  0  0  0  0  0  0  0
   63.7893   33.1643   46.9808 H   0  0  0  0  0  0  0  0  0  0  0  0
   58.7200   34.1581   43.4020 H   0  0  0  0  0  0  0  0  0  0  0  0
   57.4830   32.1568   42.5747 H   0  0  0  0  0  0  0  0  0  0  0  0
  1  2  1  0
  2  3  1  0
  3  4  2  0
  3  5  2  0
  3  6  1  0
  6  7  2  0
  7  8  1  0
  8  9  2  0
  9 10  1  0
 10 11  1  0
 11 12  2  0
 12 13  1  0
 13 14  2  0
 14 15  1  0
  9 16  1  0
 16 17  2  0
 17  6  1  0
 15 11  1  0
  1 18  1  0
  1 19  1  0
  1 20  1  0
  2 21  1  0
  7 22  1  0
  8 23  1  0
 10 24  1  0
 10 25  1  0
 12 26  1  0
 13 27  1  0
 14 28  1  0
 16 29  1  0
 17 30  1  0
M  END
>  <UniqueID>  (31) 
28

>  <SMILES>  (31) 
CNS(=O)(=O)c1ccc(Cc2ccco2)cc1

>  <Energy>  (31) 
51.07945662228567

>  <Genealogy>  (31) 
CNS(=O)(=O)c1ccc(Cc2ccco2)cc1 (3D coordinates assigned)
CNS(=O)(=O)c1ccc(Cc2ccco2)cc1 (optimized conformer: 51.07945662228567 kcal/mol)

>  <smiles>  (31) 
CNS(=O)(=O)c1ccc(Cc2ccco2)cc1

>  <score_type>  (31) 
oracle

>  <origin>  (31) 
adg

>  <m_score__min__energy>  (31) 
-7.1299999999999999

>  <m_primary>  (31) 
energy

$$$$
31:0
     RDKit          3D

 33 35  0  0  0  0  0  0  0  0999 V2000
   60.9039   31.2277   50.0495 H   0  0  0  0  0  0  0  0  0  0  0  0
   60.6490   30.7420   49.0960 C   0  0  0  0  0  0  0  0  0  0  0  0
   61.4170   30.9930   47.9570 C   0  0  0  0  0  0  0  0  0  0  0  0
   62.2765   31.6771   48.0140 H   0  0  0  0  0  0  0  0  0  0  0  0
   61.0950   30.3760   46.7440 C   0  0  0  0  0  0  0  0  0  0  0  0
   61.7036   30.5777   45.8501 H   0  0  0  0  0  0  0  0  0  0  0  0
   59.9980   29.4990   46.6590 C   0  0  0  0  0  0  0  0  0  0  0  0
   59.6830   28.8070   45.3880 C   0  0  0  0  0  0  0  0  0  0  0  0
   60.5820   28.6420   44.5180 O   0  0  0  0  0  0  0  0  0  0  0  0
   58.3830   28.2430   45.1790 N   0  0  0  0  0  0  0  0  0  0  0  0
   57.2390   28.8630   45.1060 C   0  0  0  0  0  0  0  0  0  0  0  0
   56.0780   28.2040   45.2430 N   0  0  0  0  0  0  0  0  0  0  0  0
   55.1480   29.0370   44.8650 O   0  0  0  0  0  0  0  0  0  0  0  0
   55.6010   30.2060   44.5080 N   0  0  0  0  0  0  0  0  0  0  0  0
   56.9320   30.1540   44.6750 C   0  0  0  0  0  0  0  0  0  0  0  0
   57.6580   31.2380   44.6610 N   0  0  0  0  0  0  0  0  0  0  0  0
   57.4480   32.4850   45.3410 C   0  0  0  0  0  0  0  0  0  0  0  0
   56.3090   33.0180   45.2710 O   0  0  0  0  0  0  0  0  0  0  0  0
   58.4890   33.1020   46.2060 C   0  0  0  0  0  0  0  0  0  0  0  0
   58.3370   33.1610   47.6050 C   0  0  0  0  0  0  0  0  0  0  0  0
   57.4267   32.7585   48.0734 H   0  0  0  0  0  0  0  0  0  0  0  0
   59.3360   33.7280   48.4020 C   0  0  0  0  0  0  0  0  0  0  0  0
   59.2135   33.7596   49.4947 H   0  0  0  0  0  0  0  0  0  0  0  0
   60.4880   34.2540   47.8160 C   0  0  0  0  0  0  0  0  0  0  0  0
   61.2769   34.6890   48.4472 H   0  0  0  0  0  0  0  0  0  0  0  0
   60.6390   34.2280   46.4280 C   0  0  0  0  0  0  0  0  0  0  0  0
   61.5426   34.6518   45.9655 H   0  0  0  0  0  0  0  0  0  0  0  0
   59.6430   33.6640   45.6260 C   0  0  0  0  0  0  0  0  0  0  0  0
   59.7613   33.6590   44.5324 H   0  0  0  0  0  0  0  0  0  0  0  0
   59.2310   29.2550   47.8140 C   0  0  0  0  0  0  0  0  0  0  0  0
   58.3696   28.5728   47.7639 H   0  0  0  0  0  0  0  0  0  0  0  0
   59.5570   29.8740   49.0240 C   0  0  0  0  0  0  0  0  0  0  0  0
   58.9523   29.6772   49.9215 H   0  0  0  0  0  0  0  0  0  0  0  0
  1  2  1  0
  2  3  2  0
  3  4  1  0
  3  5  1  0
  5  6  1  0
  5  7  2  0
  7  8  1  0
  8  9  2  0
  8 10  1  0
 10 11  2  3
 11 12  1  0
 12 13  1  0
 13 14  1  0
 14 15  1  0
 15 16  2  0
 16 17  1  0
 17 18  2  0
 17 19  1  0
 19 20  2  0
 20 21  1  0
 20 22  1  0
 22 23  1  0
 22 24  2  0
 24 25  1  0
 24 26  1  0
 26 27  1  0
 26 28  2  0
 28 29  1  0
  7 30  1  0
 30 31  1  0
 30 32  2  0
 32 33  1  0
 32  2  1  0
 15 11  1  0
 28 19  1  0
M  CHG  2  12  -1  14  -1
M  END
>  <UniqueID>  (32) 
29

>  <SMILES>  (32) 
O=C(N=c1[n-]o[n-]/c1=N/C(=O)c1ccccc1)c1ccccc1

>  <Energy>  (32) 
98.58110655585047

>  <Genealogy>  (32) 
O=C(N=c1[n-]o[n-]c1=NC(=O)c1ccccc1)c1ccccc1 (protonated)
O=C(N=c1[n-]o[n-]/c1=N/C(=O)c1ccccc1)c1ccccc1 (cis-trans isomerization)
O=C(N=c1[n-]o[n-]/c1=N/C(=O)c1ccccc1)c1ccccc1 (3D coordinates assigned)
O=C(N=c1[n-]o[n-]/c1=N/C(=O)c1ccccc1)c1ccccc1 (optimized conformer: 98.58110655585047 kcal/mol)

>  <smiles>  (32) 
O=C(N=c1[nH]o[nH]c1=NC(=O)c1ccccc1)c1ccccc1

>  <score_type>  (32) 
oracle

>  <origin>  (32) 
adg

>  <m_score__min__energy>  (32) 
-12

>  <m_primary>  (32) 
energy

$$$$
32:0
     RDKit          3D

 31 33  0  0  0  0  0  0  0  0999 V2000
   55.8670   29.3750   44.4890 C   0  0  0  0  0  0  0  0  0  0  0  0
   56.6880   30.5140   43.9590 C   0  0  0  0  0  0  0  0  0  0  0  0
   56.6950   30.8010   42.5860 C   0  0  0  0  0  0  0  0  0  0  0  0
   57.4290   31.8840   42.0980 C   0  0  0  0  0  0  0  0  0  0  0  0
   58.1520   32.6960   42.9760 C   0  0  0  0  0  0  0  0  0  0  0  0
   58.1410   32.4330   44.3560 C   0  0  0  0  0  0  0  0  0  0  0  0
   58.8950   33.2940   45.2910 C   0  0  0  0  0  0  0  0  0  0  0  0
   58.5910   34.5860   45.5370 N   0  0  0  0  0  0  0  0  0  0  0  0
   59.5210   34.9670   46.4320 C   0  0  0  0  0  0  0  0  0  0  0  0
   60.3530   33.8970   46.6960 C   0  0  0  0  0  0  0  0  0  0  0  0
   61.5140   33.8480   47.6130 C   0  0  0  0  0  0  0  0  0  0  0  0
   61.3920   34.1950   48.9730 C   0  0  0  0  0  0  0  0  0  0  0  0
   62.5050   34.1410   49.8180 C   0  0  0  0  0  0  0  0  0  0  0  0
   63.7450   33.7390   49.3190 C   0  0  0  0  0  0  0  0  0  0  0  0
   63.8780   33.3920   47.9730 C   0  0  0  0  0  0  0  0  0  0  0  0
   62.7690   33.4450   47.1240 C   0  0  0  0  0  0  0  0  0  0  0  0
   59.9390   32.8830   45.9760 O   0  0  0  0  0  0  0  0  0  0  0  0
   57.4000   31.3420   44.8420 C   0  0  0  0  0  0  0  0  0  0  0  0
   55.8806   29.3938   45.5888 H   0  0  0  0  0  0  0  0  0  0  0  0
   54.8307   29.4733   44.1334 H   0  0  0  0  0  0  0  0  0  0  0  0
   56.2879   28.4230   44.1334 H   0  0  0  0  0  0  0  0  0  0  0  0
   56.1203   30.1708   41.8913 H   0  0  0  0  0  0  0  0  0  0  0  0
   57.4382   32.0987   41.0192 H   0  0  0  0  0  0  0  0  0  0  0  0
   58.7322   33.5447   42.5849 H   0  0  0  0  0  0  0  0  0  0  0  0
   59.6048   35.9680   46.8803 H   0  0  0  0  0  0  0  0  0  0  0  0
   60.4165   34.5099   49.3721 H   0  0  0  0  0  0  0  0  0  0  0  0
   62.4030   34.4159   50.8782 H   0  0  0  0  0  0  0  0  0  0  0  0
   64.6182   33.6955   49.9866 H   0  0  0  0  0  0  0  0  0  0  0  0
   64.8561   33.0768   47.5806 H   0  0  0  0  0  0  0  0  0  0  0  0
   62.8790   33.1692   46.0648 H   0  0  0  0  0  0  0  0  0  0  0  0
   57.3776   31.1352   45.9221 H   0  0  0  0  0  0  0  0  0  0  0  0
  1  2  1  0
  2  3  2  0
  3  4  1  0
  4  5  2  0
  5  6  1  0
  6  7  1  0
  7  8  2  0
  8  9  1  0
  9 10  2  0
 10 11  1  0
 11 12  2  0
 12 13  1  0
 13 14  2  0
 14 15  1  0
 15 16  2  0
 10 17  1  0
  6 18  2  0
 18  2  1  0
 17  7  1  0
 16 11  1  0
  1 19  1  0
  1 20  1  0
  1 21  1  0
  3 22  1  0
  4 23  1  0
  5 24  1  0
  9 25  1  0
 12 26  1  0
 13 27  1  0
 14 28  1  0
 15 29  1  0
 16 30  1  0
 18 31  1  0
M  END
>  <UniqueID>  (33) 
30

>  <SMILES>  (33) 
Cc1cccc(-c2ncc(-c3ccccc3)o2)c1

>  <Energy>  (33) 
63.51677998409443

>  <Genealogy>  (33) 
Cc1cccc(-c2ncc(-c3ccccc3)o2)c1 (3D coordinates assigned)
Cc1cccc(-c2ncc(-c3ccccc3)o2)c1 (optimized conformer: 63.51677998409443 kcal/mol)

>  <smiles>  (33) 
Cc1cccc(-c2ncc(-c3ccccc3)o2)c1

>  <score_type>  (33) 
oracle

>  <origin>  (33) 
adg

>  <m_score__min__energy>  (33) 
-7.0300000000000002

>  <m_primary>  (33) 
energy

$$$$
33:0
     RDKit          3D

 35 38  0  0  0  0  0  0  0  0999 V2000
   57.9918   35.3949   46.1821 H   0  0  0  0  0  0  0  0  0  0  0  0
   58.0770   34.3310   45.9160 C   0  0  0  0  0  0  0  0  0  0  0  0
   58.4060   33.3920   46.8950 C   0  0  0  0  0  0  0  0  0  0  0  0
   58.5754   33.7180   47.9318 H   0  0  0  0  0  0  0  0  0  0  0  0
   58.5210   32.0390   46.5630 C   0  0  0  0  0  0  0  0  0  0  0  0
   58.7864   31.3050   47.3381 H   0  0  0  0  0  0  0  0  0  0  0  0
   58.2980   31.6120   45.2380 C   0  0  0  0  0  0  0  0  0  0  0  0
   57.9540   32.5650   44.2580 C   0  0  0  0  0  0  0  0  0  0  0  0
   57.8560   33.9220   44.6000 C   0  0  0  0  0  0  0  0  0  0  0  0
   57.6044   34.6654   43.8292 H   0  0  0  0  0  0  0  0  0  0  0  0
   57.7660   32.1120   42.8330 C   0  0  0  0  0  0  0  0  0  0  0  0
   58.7548   31.9641   42.3744 H   0  0  0  0  0  0  0  0  0  0  0  0
   57.1927   32.8874   42.3037 H   0  0  0  0  0  0  0  0  0  0  0  0
   56.9730   30.7900   42.7440 C   0  0  0  0  0  0  0  0  0  0  0  0
   57.2674   30.2768   41.8167 H   0  0  0  0  0  0  0  0  0  0  0  0
   55.9086   31.0666   42.7698 H   0  0  0  0  0  0  0  0  0  0  0  0
   57.1970   29.8130   43.9270 C   0  0  0  0  0  0  0  0  0  0  0  0
   57.3382   28.8007   43.5204 H   0  0  0  0  0  0  0  0  0  0  0  0
   56.3115   29.8826   44.5759 H   0  0  0  0  0  0  0  0  0  0  0  0
   58.4190   30.1650   44.7910 C   0  0  2  0  0  0  0  0  0  0  0  0
   59.3574   30.0711   44.2248 H   0  0  0  0  0  0  0  0  0  0  0  0
   58.4900   29.2250   45.9150 N   0  0  0  0  0  0  0  0  0  0  0  0
   57.9550   28.0400   45.9300 C   0  0  0  0  0  0  0  0  0  0  0  0
   58.7440   26.9100   45.9410 N   0  0  0  0  0  0  0  0  0  0  0  0
   58.2020   25.6550   45.9670 C   0  0  0  0  0  0  0  0  0  0  0  0
   59.0750   24.4420   45.9870 C   0  0  0  0  0  0  0  0  0  0  0  0
   59.2811   24.1557   47.0289 H   0  0  0  0  0  0  0  0  0  0  0  0
   58.5642   23.6141   45.4734 H   0  0  0  0  0  0  0  0  0  0  0  0
   60.0222   24.6634   45.4734 H   0  0  0  0  0  0  0  0  0  0  0  0
   56.8170   25.5650   45.9860 C   0  0  0  0  0  0  0  0  0  0  0  0
   56.0060   24.4990   46.0170 N   0  0  0  0  0  0  0  0  0  0  0  0
   54.7700   25.0030   46.0240 N   0  0  0  0  0  0  0  0  0  0  0  0
   54.7670   26.3370   46.0000 N   0  0  0  0  0  0  0  0  0  0  0  0
   56.0610   26.6790   45.9760 C   0  0  0  0  0  0  0  0  0  0  0  0
   56.5910   27.9240   45.9490 N   0  0  0  0  0  0  0  0  0  0  0  0
  1  2  1  0
  2  3  2  0
  3  4  1  0
  3  5  1  0
  5  6  1  0
  5  7  2  0
  7  8  1  0
  8  9  2  0
  9 10  1  0
  8 11  1  0
 11 12  1  0
 11 13  1  0
 11 14  1  0
 14 15  1  0
 14 16  1  0
 14 17  1  0
 17 18  1  0
 17 19  1  0
 17 20  1  0
 20 21  1  6
 20 22  1  0
 22 23  2  0
 23 24  1  0
 24 25  2  0
 25 26  1  0
 26 27  1  0
 26 28  1  0
 26 29  1  0
 25 30  1  0
 30 31  1  0
 31 32  2  0
 32 33  1  0
 33 34  1  0
 34 35  1  0
  9  2  1  0
 35 23  1  0
 20  7  1  0
 34 30  2  0
M  CHG  2  33  -1  35  -1
M  END
>  <UniqueID>  (34) 
31

>  <SMILES>  (34) 
Cc1n/c(=N\[C@H]2CCCc3ccccc32)[n-]c2[n-]nnc12

>  <Energy>  (34) 
91.39637849538876

>  <Genealogy>  (34) 
Cc1nc(=NC2CCCc3ccccc32)[n-]c2[n-]nnc12 (protonated)
Cc1nc(=N[C@H]2CCCc3ccccc32)[n-]c2[n-]nnc12 (chirality)
Cc1n/c(=N\[C@H]2CCCc3ccccc32)[n-]c2[n-]nnc12 (cis-trans isomerization)
Cc1n/c(=N\[C@H]2CCCc3ccccc32)[n-]c2[n-]nnc12 (3D coordinates assigned)
Cc1n/c(=N\[C@H]2CCCc3ccccc32)[n-]c2[n-]nnc12 (nonaromatic ring conformer: 91.39637849538876 kcal/mol)

>  <smiles>  (34) 
Cc1nc(=NC2CCCc3ccccc32)[nH]c2[nH]nnc12

>  <score_type>  (34) 
oracle

>  <origin>  (34) 
adg

>  <m_score__min__energy>  (34) 
-12.35

>  <m_primary>  (34) 
energy

$$$$
34:0
     RDKit          3D

 45 49  0  0  0  0  0  0  0  0999 V2000
   56.6350   22.3710   42.6390 C   0  0  0  0  0  0  0  0  0  0  0  0
   55.9170   21.7100   43.6760 O   0  0  0  0  0  0  0  0  0  0  0  0
   56.1170   21.8560   45.0620 C   0  0  0  0  0  0  0  0  0  0  0  0
   56.3070   20.6740   45.7930 C   0  0  0  0  0  0  0  0  0  0  0  0
   56.5230   20.7080   47.1710 C   0  0  0  0  0  0  0  0  0  0  0  0
   56.5390   21.9270   47.8450 C   0  0  0  0  0  0  0  0  0  0  0  0
   56.7970   21.9690   49.5800 Cl  0  0  0  0  0  0  0  0  0  0  0  0
   56.3420   23.1160   47.1400 C   0  0  0  0  0  0  0  0  0  0  0  0
   56.1470   23.1020   45.7450 C   0  0  0  0  0  0  0  0  0  0  0  0
   55.9280   24.3350   45.0430 N   0  0  0  0  0  0  0  0  0  0  0  0
   55.6270   25.6060   45.6350 C   0  0  0  0  0  0  0  0  0  0  0  0
   54.4220   25.9550   45.7330 O   0  0  0  0  0  0  0  0  0  0  0  0
   56.6910   26.5360   46.0830 C   0  0  0  0  0  0  0  0  0  0  0  0
   57.6140   26.1250   47.0780 C   0  0  0  0  0  0  0  0  0  0  0  0
   58.6370   26.9830   47.5130 C   0  0  0  0  0  0  0  0  0  0  0  0
   58.7170   28.2530   46.9470 C   0  0  0  0  0  0  0  0  0  0  0  0
   57.8040   28.6730   45.9800 C   0  0  0  0  0  0  0  0  0  0  0  0
   56.7830   27.8370   45.5390 C   0  0  0  0  0  0  0  0  0  0  0  0
   58.1530   30.2740   45.4840 S   0  0  0  0  0  0  0  0  0  0  0  0
   59.4610   30.3250   46.5500 C   0  0  0  0  0  0  0  0  0  0  0  0
   60.3590   31.2860   46.8280 N   0  0  0  0  0  0  0  0  0  0  0  0
   61.1380   30.6820   47.7760 C   0  0  0  0  0  0  0  0  0  0  0  0
   62.2980   31.3490   48.4170 C   0  0  0  0  0  0  0  0  0  0  0  0
   63.0380   32.3080   47.7010 C   0  0  0  0  0  0  0  0  0  0  0  0
   64.1350   32.9450   48.2900 C   0  0  0  0  0  0  0  0  0  0  0  0
   64.5060   32.6340   49.6010 C   0  0  0  0  0  0  0  0  0  0  0  0
   65.8810   33.4340   50.3390 Cl  0  0  0  0  0  0  0  0  0  0  0  0
   63.7790   31.6830   50.3220 C   0  0  0  0  0  0  0  0  0  0  0  0
   62.6810   31.0430   49.7370 C   0  0  0  0  0  0  0  0  0  0  0  0
   60.6800   29.3810   48.0330 C   0  0  0  0  0  0  0  0  0  0  0  0
   59.6240   29.2090   47.2350 N   0  0  0  0  0  0  0  0  0  0  0  0
   57.3755   23.0527   43.0827 H   0  0  0  0  0  0  0  0  0  0  0  0
   57.1504   21.6247   42.0166 H   0  0  0  0  0  0  0  0  0  0  0  0
   55.9337   22.9462   42.0166 H   0  0  0  0  0  0  0  0  0  0  0  0
   56.2854   19.7055   45.2719 H   0  0  0  0  0  0  0  0  0  0  0  0
   56.6808   19.7713   47.7257 H   0  0  0  0  0  0  0  0  0  0  0  0
   56.3390   24.0743   47.6800 H   0  0  0  0  0  0  0  0  0  0  0  0
   57.5274   25.1194   47.5154 H   0  0  0  0  0  0  0  0  0  0  0  0
   59.3561   26.6606   48.2804 H   0  0  0  0  0  0  0  0  0  0  0  0
   56.0624   28.1816   44.7827 H   0  0  0  0  0  0  0  0  0  0  0  0
   62.7512   32.5589   46.6691 H   0  0  0  0  0  0  0  0  0  0  0  0
   64.7069   33.6922   47.7203 H   0  0  0  0  0  0  0  0  0  0  0  0
   64.0711   31.4366   51.3535 H   0  0  0  0  0  0  0  0  0  0  0  0
   62.1135   30.2962   50.3117 H   0  0  0  0  0  0  0  0  0  0  0  0
   61.1026   28.6550   48.7432 H   0  0  0  0  0  0  0  0  0  0  0  0
  1  2  1  0
  2  3  1  0
  3  4  2  0
  4  5  1  0
  5  6  2  0
  6  7  1  0
  6  8  1  0
  8  9  2  0
  9 10  1  0
 10 11  1  0
 11 12  2  0
 11 13  1  0
 13 14  2  0
 14 15  1  0
 15 16  2  0
 16 17  1  0
 17 18  2  0
 17 19  1  0
 19 20  1  0
 20 21  2  0
 21 22  1  0
 22 23  1  0
 23 24  2  0
 24 25  1  0
 25 26  2  0
 26 27  1  0
 26 28  1  0
 28 29  2  0
 22 30  2  0
 30 31  1  0
  9  3  1  0
 18 13  1  0
 31 20  1  0
 31 16  1  0
 29 23  1  0
  1 32  1  0
  1 33  1  0
  1 34  1  0
  4 35  1  0
  5 36  1  0
  8 37  1  0
 14 38  1  0
 15 39  1  0
 18 40  1  0
 24 41  1  0
 25 42  1  0
 28 43  1  0
 29 44  1  0
 30 45  1  0
M  CHG  1  10  -1
M  END
>  <UniqueID>  (35) 
32

>  <SMILES>  (35) 
COc1ccc(Cl)cc1[N-]C(=O)c1ccc2c(c1)sc1nc(-c3ccc(Cl)cc3)cn12

>  <Energy>  (35) 
145.89910031727314

>  <Genealogy>  (35) 
COc1ccc(Cl)cc1[N-]C(=O)c1ccc2c(c1)sc1nc(-c3ccc(Cl)cc3)cn12 (protonated)
COc1ccc(Cl)cc1[N-]C(=O)c1ccc2c(c1)sc1nc(-c3ccc(Cl)cc3)cn12 (3D coordinates assigned)
COc1ccc(Cl)cc1[N-]C(=O)c1ccc2c(c1)sc1nc(-c3ccc(Cl)cc3)cn12 (optimized conformer: 145.89910031727314 kcal/mol)

>  <smiles>  (35) 
COc1ccc(Cl)cc1NC(=O)c1ccc2c(c1)sc1nc(-c3ccc(Cl)cc3)cn12

>  <score_type>  (35) 
oracle

>  <origin>  (35) 
adg

>  <m_score__min__energy>  (35) 
-11.07

>  <m_primary>  (35) 
energy

$$$$
35:0
     RDKit          3D

 33 34  0  0  0  0  0  0  0  0999 V2000
   58.4430   30.9460   43.9040 O   0  0  0  0  0  0  0  0  0  0  0  0
   57.5410   30.3490   44.5250 N   0  0  0  0  0  0  0  0  0  0  0  0
   56.3410   30.9910   44.7280 O   0  0  0  0  0  0  0  0  0  0  0  0
   57.8500   29.1720   45.2860 C   0  0  0  0  0  0  0  0  0  0  0  0
   56.9140   28.1240   45.3110 C   0  0  0  0  0  0  0  0  0  0  0  0
   57.1600   26.9600   46.0490 C   0  0  0  0  0  0  0  0  0  0  0  0
   55.9670   25.6670   46.0800 S   0  0  0  0  0  0  0  0  0  0  0  0
   56.1910   24.7380   44.9190 O   0  0  0  0  0  0  0  0  0  0  0  0
   56.0960   24.8830   47.3560 O   0  0  0  0  0  0  0  0  0  0  0  0
   54.4250   26.3260   45.9810 O   0  0  0  0  0  0  0  0  0  0  0  0
   58.3450   26.8410   46.7770 C   0  0  0  0  0  0  0  0  0  0  0  0
   59.2940   27.8630   46.7470 C   0  0  0  0  0  0  0  0  0  0  0  0
   59.0710   29.0350   45.9990 C   0  0  0  0  0  0  0  0  0  0  0  0
   60.1370   30.0110   45.8960 N   0  0  0  0  0  0  0  0  0  0  0  0
   60.2020   30.8670   47.0940 C   0  0  0  0  0  0  0  0  0  0  0  0
   59.8210   32.3010   46.7880 C   0  0  0  0  0  0  0  0  0  0  0  0
   58.4800   32.5920   46.4790 C   0  0  0  0  0  0  0  0  0  0  0  0
   58.0920   33.8940   46.1560 C   0  0  0  0  0  0  0  0  0  0  0  0
   59.0360   34.9200   46.1370 C   0  0  0  0  0  0  0  0  0  0  0  0
   60.3720   34.6470   46.4370 C   0  0  0  0  0  0  0  0  0  0  0  0
   60.7740   33.3460   46.7610 C   0  0  0  0  0  0  0  0  0  0  0  0
   62.4770   33.0740   47.1210 Cl  0  0  0  0  0  0  0  0  0  0  0  0
   55.9764   28.2195   44.7437 H   0  0  0  0  0  0  0  0  0  0  0  0
   58.5312   25.9378   47.3767 H   0  0  0  0  0  0  0  0  0  0  0  0
   60.2292   27.7518   47.3154 H   0  0  0  0  0  0  0  0  0  0  0  0
   59.9550   30.6240   45.0670 H   0  0  0  0  0  0  0  0  0  0  0  0
   61.0650   29.5680   45.7260 H   0  0  0  0  0  0  0  0  0  0  0  0
   59.5109   30.4699   47.8521 H   0  0  0  0  0  0  0  0  0  0  0  0
   61.2394   30.8616   47.4597 H   0  0  0  0  0  0  0  0  0  0  0  0
   57.7304   31.7870   46.4919 H   0  0  0  0  0  0  0  0  0  0  0  0
   57.0405   34.1104   45.9163 H   0  0  0  0  0  0  0  0  0  0  0  0
   58.7279   35.9455   45.8854 H   0  0  0  0  0  0  0  0  0  0  0  0
   61.1133   35.4595   46.4186 H   0  0  0  0  0  0  0  0  0  0  0  0
  1  2  2  0
  2  3  1  0
  2  4  1  0
  4  5  2  0
  5  6  1  0
  6  7  1  0
  7  8  2  0
  7  9  2  0
  7 10  1  0
  6 11  2  0
 11 12  1  0
 12 13  2  0
 13 14  1  0
 14 15  1  0
 15 16  1  0
 16 17  2  0
 17 18  1  0
 18 19  2  0
 19 20  1  0
 20 21  2  0
 21 22  1  0
 13  4  1  0
 21 16  1  0
  5 23  1  0
 11 24  1  0
 12 25  1  0
 14 26  1  0
 14 27  1  0
 15 28  1  0
 15 29  1  0
 17 30  1  0
 18 31  1  0
 19 32  1  0
 20 33  1  0
M  CHG  4   2   1   3  -1  10  -1  14   1
M  END
>  <UniqueID>  (36) 
33

>  <SMILES>  (36) 
O=[N+]([O-])c1cc(S(=O)(=O)[O-])ccc1[NH2+]Cc1ccccc1Cl

>  <Energy>  (36) 
42.09711373027021

>  <Genealogy>  (36) 
O=[N+]([O-])c1cc(S(=O)(=O)[O-])ccc1[NH2+]Cc1ccccc1Cl (protonated)
O=[N+]([O-])c1cc(S(=O)(=O)[O-])ccc1[NH2+]Cc1ccccc1Cl (3D coordinates assigned)
O=[N+]([O-])c1cc(S(=O)(=O)[O-])ccc1[NH2+]Cc1ccccc1Cl (optimized conformer: 42.09711373027021 kcal/mol)

>  <smiles>  (36) 
O=[N+]([O-])c1cc(S(=O)(=O)O)ccc1NCc1ccccc1Cl

>  <score_type>  (36) 
oracle

>  <origin>  (36) 
adg

>  <m_score__min__energy>  (36) 
-10.06

>  <m_primary>  (36) 
energy

$$$$
36:0
     RDKit          3D

 36 38  0  0  0  0  0  0  0  0999 V2000
   54.5100   21.7800   44.6580 H   0  0  0  0  0  0  0  0  0  0  0  0
   55.5090   21.4720   44.6520 N   0  0  0  0  0  0  0  0  0  0  0  0
   56.3350   22.4580   43.4980 S   0  0  0  0  0  0  0  0  0  0  0  0
   55.3710   22.9060   42.4360 O   0  0  0  0  0  0  0  0  0  0  0  0
   57.4270   21.6540   42.8510 O   0  0  0  0  0  0  0  0  0  0  0  0
   57.0170   23.8650   44.3060 C   0  0  0  0  0  0  0  0  0  0  0  0
   57.2840   25.0290   43.5750 C   0  0  0  0  0  0  0  0  0  0  0  0
   57.0759   25.0571   42.4952 H   0  0  0  0  0  0  0  0  0  0  0  0
   57.8130   26.1540   44.2100 C   0  0  0  0  0  0  0  0  0  0  0  0
   58.0126   27.0653   43.6272 H   0  0  0  0  0  0  0  0  0  0  0  0
   58.0920   26.1330   45.5830 C   0  0  0  0  0  0  0  0  0  0  0  0
   58.6300   27.3240   46.1830 N   0  0  0  0  0  0  0  0  0  0  0  0
   57.9590   28.2690   46.7670 C   0  0  0  0  0  0  0  0  0  0  0  0
   57.6815   28.1648   47.8263 H   0  0  0  0  0  0  0  0  0  0  0  0
   57.5650   29.4800   46.0260 C   0  0  0  0  0  0  0  0  0  0  0  0
   56.4460   29.6080   45.2140 C   0  0  0  0  0  0  0  0  0  0  0  0
   55.5180   28.5980   44.9810 O   0  0  0  0  0  0  0  0  0  0  0  0
   56.3450   30.8380   44.6620 N   0  0  0  0  0  0  0  0  0  0  0  0
   57.4200   31.4990   45.1350 C   0  0  0  0  0  0  0  0  0  0  0  0
   57.7660   32.8170   44.8520 C   0  0  0  0  0  0  0  0  0  0  0  0
   57.1453   33.4335   44.1852 H   0  0  0  0  0  0  0  0  0  0  0  0
   58.9310   33.3390   45.4420 C   0  0  0  0  0  0  0  0  0  0  0  0
   59.2307   34.3767   45.2339 H   0  0  0  0  0  0  0  0  0  0  0  0
   59.7200   32.5390   46.3010 C   0  0  0  0  0  0  0  0  0  0  0  0
   61.1810   33.1950   47.0350 S   0  0  0  0  0  0  0  0  0  0  0  0
   62.0250   33.8480   45.9760 O   0  0  0  0  0  0  0  0  0  0  0  0
   61.9780   32.0920   47.6740 O   0  0  0  0  0  0  0  0  0  0  0  0
   60.7520   34.3590   48.2360 N   0  0  0  0  0  0  0  0  0  0  0  0
   61.4790   34.3080   48.9840 H   0  0  0  0  0  0  0  0  0  0  0  0
   59.3480   31.2070   46.5650 C   0  0  0  0  0  0  0  0  0  0  0  0
   59.9561   30.5713   47.2254 H   0  0  0  0  0  0  0  0  0  0  0  0
   58.1860   30.7140   45.9660 C   0  0  0  0  0  0  0  0  0  0  0  0
   57.8030   24.9670   46.3220 C   0  0  0  0  0  0  0  0  0  0  0  0
   57.9973   24.9424   47.4044 H   0  0  0  0  0  0  0  0  0  0  0  0
   57.2710   23.8430   45.6850 C   0  0  0  0  0  0  0  0  0  0  0  0
   57.0504   22.9366   46.2679 H   0  0  0  0  0  0  0  0  0  0  0  0
  1  2  1  0
  2  3  1  0
  3  4  2  0
  3  5  2  0
  3  6  1  0
  6  7  2  0
  7  8  1  0
  7  9  1  0
  9 10  1  0
  9 11  2  0
 11 12  1  0
 12 13  2  0
 13 14  1  0
 13 15  1  0
 15 16  2  0
 16 17  1  0
 16 18  1  0
 18 19  1  0
 19 20  2  0
 20 21  1  0
 20 22  1  0
 22 23  1  0
 22 24  2  0
 24 25  1  0
 25 26  2  0
 25 27  2  0
 25 28  1  0
 28 29  1  0
 24 30  1  0
 30 31  1  0
 30 32  2  0
 11 33  1  0
 33 34  1  0
 33 35  2  0
 35 36  1  0
 35  6  1  0
 32 15  1  0
 32 19  1  0
M  CHG  4   2  -1  17  -1  18  -1  28  -1
M  END
>  <UniqueID>  (37) 
34

>  <SMILES>  (37) 
[NH-]S(=O)(=O)c1ccc(/N=C/c2c([O-])[n-]c3ccc(S([NH-])(=O)=O)cc23)cc1

>  <Energy>  (37) 
73.75833825249846

>  <Genealogy>  (37) 
[NH-]S(=O)(=O)c1ccc(N=Cc2c([O-])[n-]c3ccc(S([NH-])(=O)=O)cc23)cc1 (protonated)
[NH-]S(=O)(=O)c1ccc(/N=C/c2c([O-])[n-]c3ccc(S([NH-])(=O)=O)cc23)cc1 (cis-trans isomerization)
[NH-]S(=O)(=O)c1ccc(/N=C/c2c([O-])[n-]c3ccc(S([NH-])(=O)=O)cc23)cc1 (3D coordinates assigned)
[NH-]S(=O)(=O)c1ccc(/N=C/c2c([O-])[n-]c3ccc(S([NH-])(=O)=O)cc23)cc1 (optimized conformer: 73.75833825249846 kcal/mol)

>  <smiles>  (37) 
NS(=O)(=O)c1ccc(N=Cc2c(O)[nH]c3ccc(S(N)(=O)=O)cc23)cc1

>  <score_type>  (37) 
oracle

>  <origin>  (37) 
adg

>  <m_score__min__energy>  (37) 
-14.94

>  <m_primary>  (37) 
energy

$$$$
37:0
     RDKit          3D

 36 37  0  0  0  0  0  0  0  0999 V2000
   61.9080   31.5590   48.5290 C   0  0  0  0  0  0  0  0  0  0  0  0
   60.8520   31.7740   47.4850 C   0  0  0  0  0  0  0  0  0  0  0  0
   60.5680   33.0670   47.0210 C   0  0  0  0  0  0  0  0  0  0  0  0
   59.5600   33.2720   46.0750 C   0  0  0  0  0  0  0  0  0  0  0  0
   58.8130   32.1870   45.5940 C   0  0  0  0  0  0  0  0  0  0  0  0
   57.5520   32.4260   44.3890 S   0  0  0  0  0  0  0  0  0  0  0  0
   57.0180   33.8250   44.5100 O   0  0  0  0  0  0  0  0  0  0  0  0
   58.0990   32.2390   43.0000 O   0  0  0  0  0  0  0  0  0  0  0  0
   56.2690   31.2970   44.6580 N   0  0  0  0  0  0  0  0  0  0  0  0
   56.4470   29.8860   44.5200 C   0  0  0  0  0  0  0  0  0  0  0  0
   55.6710   29.0880   45.1120 O   0  0  0  0  0  0  0  0  0  0  0  0
   57.5130   29.3880   43.7040 N   0  0  0  0  0  0  0  0  0  0  0  0
   57.7710   27.9600   43.5320 C   0  0  0  0  0  0  0  0  0  0  0  0
   58.3400   27.3760   44.7960 C   0  0  0  0  0  0  0  0  0  0  0  0
   59.6420   27.7130   45.2000 C   0  0  0  0  0  0  0  0  0  0  0  0
   60.1700   27.1910   46.3850 C   0  0  0  0  0  0  0  0  0  0  0  0
   59.4000   26.3320   47.1760 C   0  0  0  0  0  0  0  0  0  0  0  0
   58.1020   25.9960   46.7820 C   0  0  0  0  0  0  0  0  0  0  0  0
   57.5700   26.5170   45.5980 C   0  0  0  0  0  0  0  0  0  0  0  0
   59.0860   30.8960   46.0660 C   0  0  0  0  0  0  0  0  0  0  0  0
   60.0950   30.6910   47.0120 C   0  0  0  0  0  0  0  0  0  0  0  0
   61.4590   31.6504   49.5290 H   0  0  0  0  0  0  0  0  0  0  0  0
   62.3404   30.5544   48.4117 H   0  0  0  0  0  0  0  0  0  0  0  0
   62.6988   32.3146   48.4117 H   0  0  0  0  0  0  0  0  0  0  0  0
   61.1417   33.9240   47.4037 H   0  0  0  0  0  0  0  0  0  0  0  0
   59.3519   34.2874   45.7066 H   0  0  0  0  0  0  0  0  0  0  0  0
   58.1210   30.0720   43.2000 H   0  0  0  0  0  0  0  0  0  0  0  0
   56.8286   27.4479   43.2879 H   0  0  0  0  0  0  0  0  0  0  0  0
   58.4966   27.8233   42.7166 H   0  0  0  0  0  0  0  0  0  0  0  0
   60.2492   28.3905   44.5817 H   0  0  0  0  0  0  0  0  0  0  0  0
   61.1915   27.4561   46.6953 H   0  0  0  0  0  0  0  0  0  0  0  0
   59.8160   25.9211   48.1078 H   0  0  0  0  0  0  0  0  0  0  0  0
   57.4973   25.3202   47.4045 H   0  0  0  0  0  0  0  0  0  0  0  0
   56.5462   26.2536   45.2940 H   0  0  0  0  0  0  0  0  0  0  0  0
   58.5044   30.0409   45.6909 H   0  0  0  0  0  0  0  0  0  0  0  0
   60.2963   29.6767   47.3871 H   0  0  0  0  0  0  0  0  0  0  0  0
  1  2  1  0
  2  3  2  0
  3  4  1  0
  4  5  2  0
  5  6  1  0
  6  7  2  0
  6  8  2  0
  6  9  1  0
  9 10  1  0
 10 11  2  0
 10 12  1  0
 12 13  1  0
 13 14  1  0
 14 15  2  0
 15 16  1  0
 16 17  2  0
 17 18  1  0
 18 19  2  0
  5 20  1  0
 20 21  2  0
 21  2  1  0
 19 14  1  0
  1 22  1  0
  1 23  1  0
  1 24  1  0
  3 25  1  0
  4 26  1  0
 12 27  1  0
 13 28  1  0
 13 29  1  0
 15 30  1  0
 16 31  1  0
 17 32  1  0
 18 33  1  0
 19 34  1  0
 20 35  1  0
 21 36  1  0
M  CHG  1   9  -1
M  END
>  <UniqueID>  (38) 
35

>  <SMILES>  (38) 
Cc1ccc(S(=O)(=O)[N-]C(=O)NCc2ccccc2)cc1

>  <Energy>  (38) 
34.47318976929068

>  <Genealogy>  (38) 
Cc1ccc(S(=O)(=O)[N-]C(=O)NCc2ccccc2)cc1 (protonated)
Cc1ccc(S(=O)(=O)[N-]C(=O)NCc2ccccc2)cc1 (3D coordinates assigned)
Cc1ccc(S(=O)(=O)[N-]C(=O)NCc2ccccc2)cc1 (optimized conformer: 34.47318976929068 kcal/mol)

>  <smiles>  (38) 
Cc1ccc(S(=O)(=O)NC(=O)NCc2ccccc2)cc1

>  <score_type>  (38) 
oracle

>  <origin>  (38) 
adg

>  <m_score__min__energy>  (38) 
-9.4000000000000004

>  <m_primary>  (38) 
energy

$$$$
38:0
     RDKit          3D

 70 71  0  0  0  0  0  0  0  0999 V2000
   57.0150   33.3890   46.0730 C   0  0  0  0  0  0  0  0  0  0  0  0
   58.2030   32.8620   45.2380 C   0  0  0  0  0  0  0  0  0  0  0  0
   57.8840   33.0950   43.7450 C   0  0  0  0  0  0  0  0  0  0  0  0
   59.4540   33.6930   45.6100 C   0  0  0  0  0  0  0  0  0  0  0  0
   58.4490   31.3510   45.5920 C   0  0  1  0  0  0  0  0  0  0  0  0
   58.7880   31.1360   47.0050 N   0  0  0  0  0  0  0  0  0  0  0  0
   60.0390   30.7370   47.5870 C   0  0  0  0  0  0  0  0  0  0  0  0
   61.0150   30.4050   46.8630 O   0  0  0  0  0  0  0  0  0  0  0  0
   60.1770   30.6800   49.0810 C   0  0  2  0  0  0  0  0  0  0  0  0
   59.7950   32.0390   49.6970 C   0  0  0  0  0  0  0  0  0  0  0  0
   58.7560   31.8780   50.7780 C   0  0  0  0  0  0  0  0  0  0  0  0
   58.0330   30.6790   50.8970 C   0  0  0  0  0  0  0  0  0  0  0  0
   57.0260   30.5550   51.8600 C   0  0  0  0  0  0  0  0  0  0  0  0
   56.7330   31.6270   52.7070 C   0  0  0  0  0  0  0  0  0  0  0  0
   57.4440   32.8250   52.5920 C   0  0  0  0  0  0  0  0  0  0  0  0
   58.4500   32.9540   51.6290 C   0  0  0  0  0  0  0  0  0  0  0  0
   61.5540   30.3270   49.4390 N   0  0  0  0  0  0  0  0  0  0  0  0
   62.0760   30.4990   50.7620 C   0  0  0  0  0  0  0  0  0  0  0  0
   61.2980   30.6910   51.7380 O   0  0  0  0  0  0  0  0  0  0  0  0
   63.4600   30.4800   50.9560 O   0  0  0  0  0  0  0  0  0  0  0  0
   64.3080   31.5400   50.5340 C   0  0  0  0  0  0  0  0  0  0  0  0
   63.6180   32.3250   49.4580 C   0  0  0  0  0  0  0  0  0  0  0  0
   63.7720   31.9560   48.1120 C   0  0  0  0  0  0  0  0  0  0  0  0
   63.1590   32.7050   47.1030 C   0  0  0  0  0  0  0  0  0  0  0  0
   62.3980   33.8300   47.4300 C   0  0  0  0  0  0  0  0  0  0  0  0
   62.2540   34.2140   48.7660 C   0  0  0  0  0  0  0  0  0  0  0  0
   62.8670   33.4680   49.7780 C   0  0  0  0  0  0  0  0  0  0  0  0
   57.3810   30.3940   45.1100 C   0  0  0  0  0  0  0  0  0  0  0  0
   56.2470   30.8080   44.7510 O   0  0  0  0  0  0  0  0  0  0  0  0
   57.6880   28.9970   45.0210 N   0  0  0  0  0  0  0  0  0  0  0  0
   57.3960   28.0400   46.0850 C   0  0  1  0  0  0  0  0  0  0  0  0
   57.0100   26.6870   45.4740 C   0  0  0  0  0  0  0  0  0  0  0  0
   55.8980   26.0450   46.2460 C   0  0  0  0  0  0  0  0  0  0  0  0
   56.1560   25.2050   47.1490 O   0  0  0  0  0  0  0  0  0  0  0  0
   54.5750   26.3360   45.9340 O   0  0  0  0  0  0  0  0  0  0  0  0
   58.6080   27.8880   46.9750 C   0  0  0  0  0  0  0  0  0  0  0  0
   58.5060   28.0950   48.1760 O   0  0  0  0  0  0  0  0  0  0  0  0
   59.9410   27.4800   46.4170 C   0  0  0  0  0  0  0  0  0  0  0  0
   60.5260   26.5440   47.2500 F   0  0  0  0  0  0  0  0  0  0  0  0
   57.2454   33.2868   47.1437 H   0  0  0  0  0  0  0  0  0  0  0  0
   56.8410   34.4487   45.8349 H   0  0  0  0  0  0  0  0  0  0  0  0
   56.1126   32.8068   45.8349 H   0  0  0  0  0  0  0  0  0  0  0  0
   56.9986   33.7417   43.6558 H   0  0  0  0  0  0  0  0  0  0  0  0
   58.7428   33.5799   43.2579 H   0  0  0  0  0  0  0  0  0  0  0  0
   57.6833   32.1294   43.2579 H   0  0  0  0  0  0  0  0  0  0  0  0
   59.5428   33.7520   46.7048 H   0  0  0  0  0  0  0  0  0  0  0  0
   60.3513   33.2108   45.1948 H   0  0  0  0  0  0  0  0  0  0  0  0
   59.3574   34.7070   45.1948 H   0  0  0  0  0  0  0  0  0  0  0  0
   59.3408   31.0931   45.0019 H   0  0  0  0  0  0  0  0  0  0  0  0
   59.4984   29.9108   49.4782 H   0  0  0  0  0  0  0  0  0  0  0  0
   60.6941   32.5015   50.1302 H   0  0  0  0  0  0  0  0  0  0  0  0
   59.3747   32.6741   48.9033 H   0  0  0  0  0  0  0  0  0  0  0  0
   58.2599   29.8342   50.2300 H   0  0  0  0  0  0  0  0  0  0  0  0
   56.4647   29.6133   51.9505 H   0  0  0  0  0  0  0  0  0  0  0  0
   55.9421   31.5281   53.4650 H   0  0  0  0  0  0  0  0  0  0  0  0
   57.2119   33.6676   53.2600 H   0  0  0  0  0  0  0  0  0  0  0  0
   59.0033   33.9003   51.5373 H   0  0  0  0  0  0  0  0  0  0  0  0
   62.2410   30.1440   48.6720 H   0  0  0  0  0  0  0  0  0  0  0  0
   64.5262   32.1987   51.3875 H   0  0  0  0  0  0  0  0  0  0  0  0
   65.2498   31.1268   50.1438 H   0  0  0  0  0  0  0  0  0  0  0  0
   64.3767   31.0751   47.8506 H   0  0  0  0  0  0  0  0  0  0  0  0
   63.2761   32.4081   46.0503 H   0  0  0  0  0  0  0  0  0  0  0  0
   61.9116   34.4142   46.6350 H   0  0  0  0  0  0  0  0  0  0  0  0
   61.6586   35.1029   49.0217 H   0  0  0  0  0  0  0  0  0  0  0  0
   62.7606   33.7775   50.8282 H   0  0  0  0  0  0  0  0  0  0  0  0
   56.5535   28.4077   46.6891 H   0  0  0  0  0  0  0  0  0  0  0  0
   56.6835   26.8419   44.4350 H   0  0  0  0  0  0  0  0  0  0  0  0
   57.8875   26.0246   45.5085 H   0  0  0  0  0  0  0  0  0  0  0  0
   59.8011   27.0435   45.4171 H   0  0  0  0  0  0  0  0  0  0  0  0
   60.5928   28.3632   46.3455 H   0  0  0  0  0  0  0  0  0  0  0  0
  1  2  1  0
  2  3  1  0
  2  4  1  0
  2  5  1  0
  5  6  1  0
  6  7  1  0
  7  8  2  0
  7  9  1  0
  9 10  1  0
 10 11  1  0
 11 12  2  0
 12 13  1  0
 13 14  2  0
 14 15  1  0
 15 16  2  0
  9 17  1  0
 17 18  1  0
 18 19  2  0
 18 20  1  0
 20 21  1  0
 21 22  1  0
 22 23  2  0
 23 24  1  0
 24 25  2  0
 25 26  1  0
 26 27  2  0
  5 28  1  0
 28 29  2  0
 28 30  1  0
 30 31  1  0
 31 32  1  0
 32 33  1  0
 33 34  2  0
 33 35  1  0
 31 36  1  0
 36 37  2  0
 36 38  1  0
 38 39  1  0
 16 11  1  0
 27 22  1  0
  1 40  1  0
  1 41  1  0
  1 42  1  0
  3 43  1  0
  3 44  1  0
  3 45  1  0
  4 46  1  0
  4 47  1  0
  4 48  1  0
  5 49  1  6
  9 50  1  1
 10 51  1  0
 10 52  1  0
 12 53  1  0
 13 54  1  0
 14 55  1  0
 15 56  1  0
 16 57  1  0
 17 58  1  0
 21 59  1  0
 21 60  1  0
 23 61  1  0
 24 62  1  0
 25 63  1  0
 26 64  1  0
 27 65  1  0
 31 66  1  1
 32 67  1  0
 32 68  1  0
 38 69  1  0
 38 70  1  0
M  CHG  3   6  -1  30  -1  35  -1
M  END
>  <UniqueID>  (39) 
36

>  <SMILES>  (39) 
CC(C)(C)[C@@H]([N-]C(=O)[C@H](Cc1ccccc1)NC(=O)OCc1ccccc1)C(=O)[N-]C(CC(=O)[O-])C(=O)CF

>  <Energy>  (39) 
53.95681589092907

>  <Genealogy>  (39) 
CC(C)(C)C([N-]C(=O)C(Cc1ccccc1)NC(=O)OCc1ccccc1)C(=O)[N-]C(CC(=O)[O-])C(=O)CF (protonated)
CC(C)(C)[C@@H]([N-]C(=O)[C@H](Cc1ccccc1)NC(=O)OCc1ccccc1)C(=O)[N-]C(CC(=O)[O-])C(=O)CF (chirality)
CC(C)(C)[C@@H]([N-]C(=O)[C@H](Cc1ccccc1)NC(=O)OCc1ccccc1)C(=O)[N-]C(CC(=O)[O-])C(=O)CF (3D coordinates assigned)
CC(C)(C)[C@@H]([N-]C(=O)[C@H](Cc1ccccc1)NC(=O)OCc1ccccc1)C(=O)[N-]C(CC(=O)[O-])C(=O)CF (optimized conformer: 53.95681589092907 kcal/mol)

>  <smiles>  (39) 
CC(C)(C)C(NC(=O)C(Cc1ccccc1)NC(=O)OCc1ccccc1)C(=O)NC(CC(=O)O)C(=O)CF

>  <score_type>  (39) 
oracle

>  <origin>  (39) 
adg

>  <m_score__min__energy>  (39) 
-14.58

>  <m_primary>  (39) 
energy

$$$$
39:0
     RDKit          3D

 68 73  0  0  0  0  0  0  0  0999 V2000
   66.9760   26.6420   50.6210 C   0  0  0  0  0  0  0  0  0  0  0  0
   67.6610   27.9670   50.5110 C   0  0  0  0  0  0  0  0  0  0  0  0
   68.3220   28.2130   49.4650 O   0  0  0  0  0  0  0  0  0  0  0  0
   67.5510   28.9620   51.5470 N   0  0  0  0  0  0  0  0  0  0  0  0
   68.1960   28.7660   52.8510 C   0  0  0  0  0  0  0  0  0  0  0  0
   66.6690   30.0830   51.3690 C   0  0  0  0  0  0  0  0  0  0  0  0
   65.2970   29.9520   51.6230 C   0  0  0  0  0  0  0  0  0  0  0  0
   64.4210   31.0030   51.3430 C   0  0  0  0  0  0  0  0  0  0  0  0
   64.9060   32.2110   50.8210 C   0  0  0  0  0  0  0  0  0  0  0  0
   63.9680   33.2310   50.4390 N   0  0  0  0  0  0  0  0  0  0  0  0
   63.3860   33.3790   49.2820 C   0  0  0  0  0  0  0  0  0  0  0  0
   61.9880   33.4980   49.1470 C   0  0  0  0  0  0  0  0  0  0  0  0
   61.4190   33.6240   47.8710 C   0  0  0  0  0  0  0  0  0  0  0  0
   59.9510   33.6270   47.7040 C   0  0  0  0  0  0  0  0  0  0  0  0
   58.9870   32.9050   48.4210 C   0  0  0  0  0  0  0  0  0  0  0  0
   59.2090   32.1260   49.6480 C   0  0  0  0  0  0  0  0  0  0  0  0
   59.3660   32.7870   50.8740 C   0  0  0  0  0  0  0  0  0  0  0  0
   59.6260   32.0590   52.0350 C   0  0  0  0  0  0  0  0  0  0  0  0
   59.7550   30.6690   51.9740 C   0  0  0  0  0  0  0  0  0  0  0  0
   59.6130   29.9930   50.7560 C   0  0  0  0  0  0  0  0  0  0  0  0
   59.8770   28.5820   50.7250 N   0  0  0  0  0  0  0  0  0  0  0  0
   60.3820   27.8270   49.6140 C   0  0  0  0  0  0  0  0  0  0  0  0
   61.1000   26.8230   49.8440 O   0  0  0  0  0  0  0  0  0  0  0  0
   60.0030   28.1420   48.2220 C   0  0  0  0  0  0  0  0  0  0  0  0
   60.7300   29.0900   47.4860 C   0  0  0  0  0  0  0  0  0  0  0  0
   60.3600   29.4000   46.1770 C   0  0  0  0  0  0  0  0  0  0  0  0
   59.2760   28.7490   45.5790 C   0  0  0  0  0  0  0  0  0  0  0  0
   58.5290   27.8030   46.3020 C   0  0  0  0  0  0  0  0  0  0  0  0
   57.4100   27.0440   45.6280 C   0  0  0  0  0  0  0  0  0  0  0  0
   56.2580   27.8110   45.5910 F   0  0  0  0  0  0  0  0  0  0  0  0
   57.7880   26.7330   44.3330 F   0  0  0  0  0  0  0  0  0  0  0  0
   57.1210   25.8720   46.3090 F   0  0  0  0  0  0  0  0  0  0  0  0
   58.9000   27.5050   47.6270 C   0  0  0  0  0  0  0  0  0  0  0  0
   59.3310   30.7280   49.5890 C   0  0  0  0  0  0  0  0  0  0  0  0
   57.7700   32.9840   47.8100 N   0  0  0  0  0  0  0  0  0  0  0  0
   58.0420   33.7760   46.7580 C   0  0  0  0  0  0  0  0  0  0  0  0
   57.1220   34.2130   45.4250 S   0  0  0  0  0  0  0  0  0  0  0  0
   58.4780   34.9530   44.6820 C   0  0  0  0  0  0  0  0  0  0  0  0
   59.6030   34.8030   45.5060 C   0  0  0  0  0  0  0  0  0  0  0  0
   59.3000   34.1570   46.6590 N   0  0  0  0  0  0  0  0  0  0  0  0
   62.2570   33.6420   46.7500 C   0  0  0  0  0  0  0  0  0  0  0  0
   63.6350   33.5000   46.9180 C   0  0  0  0  0  0  0  0  0  0  0  0
   64.1600   33.3670   48.1640 N   0  0  0  0  0  0  0  0  0  0  0  0
   66.2790   32.3490   50.5610 C   0  0  0  0  0  0  0  0  0  0  0  0
   67.1560   31.2930   50.8490 C   0  0  0  0  0  0  0  0  0  0  0  0
   66.8431   26.3849   51.6822 H   0  0  0  0  0  0  0  0  0  0  0  0
   65.9927   26.6958   50.1308 H   0  0  0  0  0  0  0  0  0  0  0  0
   67.5884   25.8708   50.1308 H   0  0  0  0  0  0  0  0  0  0  0  0
   67.4756   28.9849   53.6530 H   0  0  0  0  0  0  0  0  0  0  0  0
   68.5367   27.7238   52.9386 H   0  0  0  0  0  0  0  0  0  0  0  0
   69.0590   29.4425   52.9386 H   0  0  0  0  0  0  0  0  0  0  0  0
   64.9072   29.0144   52.0460 H   0  0  0  0  0  0  0  0  0  0  0  0
   63.3442   30.8826   51.5330 H   0  0  0  0  0  0  0  0  0  0  0  0
   61.3451   33.4921   50.0396 H   0  0  0  0  0  0  0  0  0  0  0  0
   59.2839   33.8829   50.9207 H   0  0  0  0  0  0  0  0  0  0  0  0
   59.7295   32.5792   52.9987 H   0  0  0  0  0  0  0  0  0  0  0  0
   59.9700   30.1007   52.8910 H   0  0  0  0  0  0  0  0  0  0  0  0
   61.5958   29.5912   47.9433 H   0  0  0  0  0  0  0  0  0  0  0  0
   60.9226   30.1588   45.6134 H   0  0  0  0  0  0  0  0  0  0  0  0
   59.0067   28.9786   44.5375 H   0  0  0  0  0  0  0  0  0  0  0  0
   58.3215   26.7669   48.2020 H   0  0  0  0  0  0  0  0  0  0  0  0
   59.2059   30.2063   48.6287 H   0  0  0  0  0  0  0  0  0  0  0  0
   58.4675   35.4663   43.7091 H   0  0  0  0  0  0  0  0  0  0  0  0
   60.6091   35.1654   45.2482 H   0  0  0  0  0  0  0  0  0  0  0  0
   61.8321   33.7673   45.7431 H   0  0  0  0  0  0  0  0  0  0  0  0
   64.2975   33.4957   46.0399 H   0  0  0  0  0  0  0  0  0  0  0  0
   66.6665   33.2847   50.1317 H   0  0  0  0  0  0  0  0  0  0  0  0
   68.2339   31.4137   50.6660 H   0  0  0  0  0  0  0  0  0  0  0  0
  1  2  1  0
  2  3  2  0
  2  4  1  0
  4  5  1  0
  4  6  1  0
  6  7  2  0
  7  8  1  0
  8  9  2  0
  9 10  1  0
 10 11  2  3
 11 12  1  0
 12 13  2  0
 13 14  1  0
 14 15  2  0
 15 16  1  0
 16 17  2  0
 17 18  1  0
 18 19  2  0
 19 20  1  0
 20 21  1  0
 21 22  1  0
 22 23  2  0
 22 24  1  0
 24 25  2  0
 25 26  1  0
 26 27  2  0
 27 28  1  0
 28 29  1  0
 29 30  1  0
 29 31  1  0
 29 32  1  0
 28 33  2  0
 20 34  2  0
 15 35  1  0
 35 36  2  0
 36 37  1  0
 37 38  1  0
 38 39  2  0
 39 40  1  0
 13 41  1  0
 41 42  2  0
 42 43  1  0
  9 44  1  0
 44 45  2  0
 45  6  1  0
 43 11  1  0
 40 14  1  0
 34 16  1  0
 40 36  1  0
 33 24  1  0
  1 46  1  0
  1 47  1  0
  1 48  1  0
  5 49  1  0
  5 50  1  0
  5 51  1  0
  7 52  1  0
  8 53  1  0
 12 54  1  0
 17 55  1  0
 18 56  1  0
 19 57  1  0
 25 58  1  0
 26 59  1  0
 27 60  1  0
 33 61  1  0
 34 62  1  0
 38 63  1  0
 39 64  1  0
 41 65  1  0
 42 66  1  0
 44 67  1  0
 45 68  1  0
M  CHG  2  21  -1  43  -1
M  END
>  <UniqueID>  (40) 
37

>  <SMILES>  (40) 
CC(=O)N(C)c1ccc(N=c2cc(-c3c(-c4cccc([N-]C(=O)c5cccc(C(F)(F)F)c5)c4)nc4sccn34)cc[n-]2)cc1

>  <Energy>  (40) 
180.40890519299555

>  <Genealogy>  (40) 
CC(=O)N(C)c1ccc(N=c2cc(-c3c(-c4cccc([N-]C(=O)c5cccc(C(F)(F)F)c5)c4)nc4sccn34)cc[n-]2)cc1 (protonated)
CC(=O)N(C)c1ccc(N=c2cc(-c3c(-c4cccc([N-]C(=O)c5cccc(C(F)(F)F)c5)c4)nc4sccn34)cc[n-]2)cc1 (3D coordinates assigned)
CC(=O)N(C)c1ccc(N=c2cc(-c3c(-c4cccc([N-]C(=O)c5cccc(C(F)(F)F)c5)c4)nc4sccn34)cc[n-]2)cc1 (optimized conformer: 180.40890519299555 kcal/mol)

>  <smiles>  (40) 
CC(=O)N(C)c1ccc(N=c2cc(-c3c(-c4cccc(NC(=O)c5cccc(C(F)(F)F)c5)c4)nc4sccn34)cc[nH]2)cc1

>  <score_type>  (40) 
oracle

>  <origin>  (40) 
adg

>  <m_score__min__energy>  (40) 
-12.869999999999999

>  <m_primary>  (40) 
energy

$$$$
40:0
     RDKit          3D

 52 54  0  0  1  0  0  0  0  0999 V2000
   64.4990   32.7650   49.9290 N   0  0  0  0  0  0  0  0  0  0  0  0
   63.6370   33.0230   49.0030 C   0  0  0  0  0  0  0  0  0  0  0  0
   64.0330   33.3130   47.7610 N   0  0  0  0  0  0  0  0  0  0  0  0
   63.1580   33.5970   46.7450 C   0  0  0  0  0  0  0  0  0  0  0  0
   63.5090   33.8430   45.6630 N   0  0  0  0  0  0  0  0  0  0  0  0
   61.8020   33.5590   47.1170 C   0  0  0  0  0  0  0  0  0  0  0  0
   60.8320   33.8190   46.1890 N   0  0  0  0  0  0  0  0  0  0  0  0
   59.5310   33.7820   46.5180 C   0  0  0  0  0  0  0  0  0  0  0  0
   58.4240   34.0530   45.5720 C   0  0  0  0  0  0  0  0  0  0  0  0
   58.3380   33.1110   44.4870 N   0  0  0  0  0  0  0  0  0  0  0  0
   58.1390   31.7430   44.8080 C   0  0  0  0  0  0  0  0  0  0  0  0
   59.1590   31.0090   45.3600 C   0  0  0  0  0  0  0  0  0  0  0  0
   59.0060   29.6850   45.6980 C   0  0  0  0  0  0  0  0  0  0  0  0
   57.8010   29.0010   45.5020 C   0  0  0  0  0  0  0  0  0  0  0  0
   57.6980   27.6140   45.9030 C   0  0  0  0  0  0  0  0  0  0  0  0
   58.4030   27.2450   46.9040 O   0  0  0  0  0  0  0  0  0  0  0  0
   56.9000   26.6320   45.3070 N   0  0  0  0  0  0  0  0  0  0  0  0
   56.9340   25.2720   45.8590 C   0  0  2  0  0  0  0  0  0  0  0  0
   57.5060   24.3960   44.7730 C   0  0  0  0  0  0  0  0  0  0  0  0
   56.6700   24.4570   43.5180 C   0  0  0  0  0  0  0  0  0  0  0  0
   55.7500   23.2620   43.4480 C   0  0  0  0  0  0  0  0  0  0  0  0
   56.1300   22.1660   42.9540 O   0  0  0  0  0  0  0  0  0  0  0  0
   54.4540   23.4300   43.9610 O   0  0  0  0  0  0  0  0  0  0  0  0
   55.5060   24.9190   46.1720 C   0  0  0  0  0  0  0  0  0  0  0  0
   55.2010   23.9460   46.9110 O   0  0  0  0  0  0  0  0  0  0  0  0
   54.4400   25.6530   45.6620 O   0  0  0  0  0  0  0  0  0  0  0  0
   56.7850   29.7410   44.9500 C   0  0  0  0  0  0  0  0  0  0  0  0
   55.5830   29.1950   44.7080 F   0  0  0  0  0  0  0  0  0  0  0  0
   56.9370   31.0860   44.6040 C   0  0  0  0  0  0  0  0  0  0  0  0
   59.1470   33.4740   47.8320 C   0  0  0  0  0  0  0  0  0  0  0  0
   60.1160   33.2160   48.7590 N   0  0  0  0  0  0  0  0  0  0  0  0
   61.4100   33.2590   48.4000 C   0  0  0  0  0  0  0  0  0  0  0  0
   62.3370   32.9940   49.3330 N   0  0  0  0  0  0  0  0  0  0  0  0
   65.4640   32.4310   49.6260 H   0  0  0  0  0  0  0  0  0  0  0  0
   65.0400   33.3320   47.5210 H   0  0  0  0  0  0  0  0  0  0  0  0
   63.7930   34.1290   44.7960 H   0  0  0  0  0  0  0  0  0  0  0  0
   57.4768   34.0248   46.1306 H   0  0  0  0  0  0  0  0  0  0  0  0
   58.6219   35.0379   45.1238 H   0  0  0  0  0  0  0  0  0  0  0  0
   58.4240   33.4680   43.5230 H   0  0  0  0  0  0  0  0  0  0  0  0
   60.1295   31.4953   45.5376 H   0  0  0  0  0  0  0  0  0  0  0  0
   59.8586   29.1459   46.1368 H   0  0  0  0  0  0  0  0  0  0  0  0
   56.2960   26.8490   44.4990 H   0  0  0  0  0  0  0  0  0  0  0  0
   57.5419   25.1586   46.7687 H   0  0  0  0  0  0  0  0  0  0  0  0
   58.5262   24.7350   44.5401 H   0  0  0  0  0  0  0  0  0  0  0  0
   57.5125   23.3570   45.1342 H   0  0  0  0  0  0  0  0  0  0  0  0
   56.0693   25.3785   43.5256 H   0  0  0  0  0  0  0  0  0  0  0  0
   57.3352   24.4506   42.6420 H   0  0  0  0  0  0  0  0  0  0  0  0
   54.3400   23.6140   44.9540 H   0  0  0  0  0  0  0  0  0  0  0  0
   53.8990   25.2880   44.8820 H   0  0  0  0  0  0  0  0  0  0  0  0
   56.0895   31.6312   44.1630 H   0  0  0  0  0  0  0  0  0  0  0  0
   58.0834   33.4409   48.1107 H   0  0  0  0  0  0  0  0  0  0  0  0
   62.0700   32.7650   50.3110 H   0  0  0  0  0  0  0  0  0  0  0  0
  1  2  2  3
  2  3  1  0
  3  4  1  0
  4  5  2  3
  4  6  1  0
  6  7  2  0
  7  8  1  0
  8  9  1  0
  9 10  1  0
 10 11  1  0
 11 12  2  0
 12 13  1  0
 13 14  2  0
 14 15  1  0
 15 16  2  0
 15 17  1  0
 17 18  1  0
 18 19  1  0
 19 20  1  0
 20 21  1  0
 21 22  2  0
 21 23  1  0
 18 24  1  0
 24 25  2  0
 24 26  1  0
 14 27  1  0
 27 28  1  0
 27 29  2  0
  8 30  2  0
 30 31  1  0
 31 32  2  0
 32 33  1  0
 33  2  1  0
 32  6  1  0
 29 11  1  0
  1 34  1  0
  3 35  1  0
  5 36  1  0
  9 37  1  0
  9 38  1  0
 10 39  1  0
 12 40  1  0
 13 41  1  0
 17 42  1  0
 18 43  1  1
 19 44  1  0
 19 45  1  0
 20 46  1  0
 20 47  1  0
 23 48  1  0
 26 49  1  0
 29 50  1  0
 30 51  1  0
 33 52  1  0
M  END
>  <smiles>  (41) 
N=c1[nH]c(=N)c2nc(CNc3ccc(C(=O)NC(CCC(=O)O)C(=O)O)c(F)c3)cnc2[nH]1

>  <score_type>  (41) 
oracle

>  <origin>  (41) 
adg

>  <m_score__min__energy>  (41) 
-9.9800000000000004

>  <m_primary>  (41) 
energy

$$$$
41:0
     RDKit          3D

 37 38  0  0  1  0  0  0  0  0999 V2000
   56.3400   31.0870   44.5160 O   0  0  0  0  0  0  0  0  0  0  0  0
   57.4280   31.0270   45.1430 C   0  0  0  0  0  0  0  0  0  0  0  0
   57.9580   29.7560   45.4900 N   0  0  0  0  0  0  0  0  0  0  0  0
   57.3230   28.5180   45.1660 C   0  0  0  0  0  0  0  0  0  0  0  0
   57.5300   27.5340   46.2930 C   0  0  0  0  0  0  0  0  0  0  0  0
   57.4600   26.1340   45.8130 C   0  0  0  0  0  0  0  0  0  0  0  0
   58.5380   25.3400   45.5470 C   0  0  0  0  0  0  0  0  0  0  0  0
   58.3820   24.0440   45.1090 C   0  0  0  0  0  0  0  0  0  0  0  0
   57.1380   23.4600   44.9080 C   0  0  0  0  0  0  0  0  0  0  0  0
   57.0730   22.1020   44.4480 C   0  0  0  0  0  0  0  0  0  0  0  0
   57.9830   21.1890   44.9990 O   0  0  0  0  0  0  0  0  0  0  0  0
   56.2700   21.6180   43.5820 N   0  0  0  0  0  0  0  0  0  0  0  0
   56.2820   20.3140   43.2260 O   0  0  0  0  0  0  0  0  0  0  0  0
   56.0580   24.2730   45.1800 C   0  0  0  0  0  0  0  0  0  0  0  0
   56.2080   25.5880   45.6260 C   0  0  0  0  0  0  0  0  0  0  0  0
   58.0700   32.2920   45.4690 C   0  0  0  0  0  0  0  0  0  0  0  0
   57.8770   33.3560   44.6100 C   0  0  0  0  0  0  0  0  0  0  0  0
   58.4700   34.5980   44.8700 C   0  0  0  0  0  0  0  0  0  0  0  0
   59.2600   34.7710   46.0020 C   0  0  0  0  0  0  0  0  0  0  0  0
   59.4580   33.7120   46.8660 C   0  0  0  0  0  0  0  0  0  0  0  0
   58.8570   32.4890   46.5810 C   0  0  0  0  0  0  0  0  0  0  0  0
   58.8740   29.7740   46.0150 H   0  0  0  0  0  0  0  0  0  0  0  0
   56.2458   28.6861   45.0196 H   0  0  0  0  0  0  0  0  0  0  0  0
   57.7607   28.1131   44.2416 H   0  0  0  0  0  0  0  0  0  0  0  0
   58.5187   27.7085   46.7424 H   0  0  0  0  0  0  0  0  0  0  0  0
   56.7305   27.6848   47.0333 H   0  0  0  0  0  0  0  0  0  0  0  0
   59.5518   25.7437   45.6854 H   0  0  0  0  0  0  0  0  0  0  0  0
   59.2825   23.4446   44.9094 H   0  0  0  0  0  0  0  0  0  0  0  0
   58.1460   20.3100   44.5400 H   0  0  0  0  0  0  0  0  0  0  0  0
   56.9740   19.6830   43.5910 H   0  0  0  0  0  0  0  0  0  0  0  0
   55.0432   23.8720   45.0409 H   0  0  0  0  0  0  0  0  0  0  0  0
   55.3148   26.1965   45.8309 H   0  0  0  0  0  0  0  0  0  0  0  0
   57.2522   33.2270   43.7139 H   0  0  0  0  0  0  0  0  0  0  0  0
   58.3108   35.4381   44.1779 H   0  0  0  0  0  0  0  0  0  0  0  0
   59.7247   35.7466   46.2079 H   0  0  0  0  0  0  0  0  0  0  0  0
   60.0805   33.8329   47.7648 H   0  0  0  0  0  0  0  0  0  0  0  0
   59.0172   31.6476   47.2711 H   0  0  0  0  0  0  0  0  0  0  0  0
  1  2  2  0
  2  3  1  0
  3  4  1  0
  4  5  1  0
  5  6  1  0
  6  7  2  0
  7  8  1  0
  8  9  2  0
  9 10  1  0
 10 11  1  0
 10 12  2  0
 12 13  1  0
  9 14  1  0
 14 15  2  0
  2 16  1  0
 16 17  2  0
 17 18  1  0
 18 19  2  0
 19 20  1  0
 20 21  2  0
 15  6  1  0
 21 16  1  0
  3 22  1  0
  4 23  1  0
  4 24  1  0
  5 25  1  0
  5 26  1  0
  7 27  1  0
  8 28  1  0
 11 29  1  0
 13 30  1  0
 14 31  1  0
 15 32  1  0
 17 33  1  0
 18 34  1  0
 19 35  1  0
 20 36  1  0
 21 37  1  0
M  END
>  <smiles>  (42) 
O=C(NCCc1ccc(C(O)=NO)cc1)c1ccccc1

>  <score_type>  (42) 
oracle

>  <origin>  (42) 
adg

>  <m_score__min__energy>  (42) 
-8.0099999999999998

>  <m_primary>  (42) 
energy

$$$$
42:0
     RDKit          3D

 49 51  0  0  0  0  0  0  0  0999 V2000
   57.0720   29.0570   43.4610 C   0  0  0  0  0  0  0  0  0  0  0  0
   57.9900   27.8460   43.5910 C   0  0  0  0  0  0  0  0  0  0  0  0
   59.2330   28.2150   44.1900 O   0  0  0  0  0  0  0  0  0  0  0  0
   59.3970   28.7110   45.4950 C   0  0  0  0  0  0  0  0  0  0  0  0
   60.4550   29.5960   45.7350 C   0  0  0  0  0  0  0  0  0  0  0  0
   60.6670   30.1230   47.0120 C   0  0  0  0  0  0  0  0  0  0  0  0
   59.8270   29.7550   48.0780 C   0  0  0  0  0  0  0  0  0  0  0  0
   59.9910   30.3050   49.3920 N   0  0  0  0  0  0  0  0  0  0  0  0
   59.2140   31.3710   49.9480 C   0  0  0  0  0  0  0  0  0  0  0  0
   59.2740   31.6320   51.1800 O   0  0  0  0  0  0  0  0  0  0  0  0
   58.2940   32.1560   49.0640 C   0  0  0  0  0  0  0  0  0  0  0  0
   59.0620   32.9710   48.1090 N   0  0  0  0  0  0  0  0  0  0  0  0
   60.1440   33.7910   48.5980 C   0  0  0  0  0  0  0  0  0  0  0  0
   59.8990   34.9550   49.0200 O   0  0  0  0  0  0  0  0  0  0  0  0
   61.5390   33.2910   48.6150 C   0  0  0  0  0  0  0  0  0  0  0  0
   62.4950   33.8370   47.7430 C   0  0  0  0  0  0  0  0  0  0  0  0
   63.8030   33.3520   47.7640 C   0  0  0  0  0  0  0  0  0  0  0  0
   64.1540   32.3390   48.6540 C   0  0  0  0  0  0  0  0  0  0  0  0
   63.1870   31.8260   49.5200 C   0  0  0  0  0  0  0  0  0  0  0  0
   61.9140   32.3050   49.4870 N   0  0  0  0  0  0  0  0  0  0  0  0
   58.6910   33.0130   46.7090 C   0  0  0  0  0  0  0  0  0  0  0  0
   59.1500   34.0560   45.8810 C   0  0  0  0  0  0  0  0  0  0  0  0
   58.7720   34.1130   44.5370 C   0  0  0  0  0  0  0  0  0  0  0  0
   57.9300   33.1360   44.0040 C   0  0  0  0  0  0  0  0  0  0  0  0
   57.4620   32.1000   44.8140 C   0  0  0  0  0  0  0  0  0  0  0  0
   57.8400   32.0350   46.1580 C   0  0  0  0  0  0  0  0  0  0  0  0
   58.7600   28.8830   47.8380 C   0  0  0  0  0  0  0  0  0  0  0  0
   58.5470   28.3550   46.5600 C   0  0  0  0  0  0  0  0  0  0  0  0
   56.7979   29.4186   44.4631 H   0  0  0  0  0  0  0  0  0  0  0  0
   57.5937   29.8555   42.9131 H   0  0  0  0  0  0  0  0  0  0  0  0
   56.1623   28.7703   42.9131 H   0  0  0  0  0  0  0  0  0  0  0  0
   57.4990   27.0866   44.2173 H   0  0  0  0  0  0  0  0  0  0  0  0
   58.1879   27.4436   42.5866 H   0  0  0  0  0  0  0  0  0  0  0  0
   61.1259   29.8793   44.9106 H   0  0  0  0  0  0  0  0  0  0  0  0
   61.4937   30.8280   47.1837 H   0  0  0  0  0  0  0  0  0  0  0  0
   57.6473   31.4614   48.5079 H   0  0  0  0  0  0  0  0  0  0  0  0
   57.6853   32.8244   49.6907 H   0  0  0  0  0  0  0  0  0  0  0  0
   62.2143   34.6420   47.0478 H   0  0  0  0  0  0  0  0  0  0  0  0
   64.5560   33.7687   47.0790 H   0  0  0  0  0  0  0  0  0  0  0  0
   65.1819   31.9479   48.6739 H   0  0  0  0  0  0  0  0  0  0  0  0
   63.4552   31.0314   50.2319 H   0  0  0  0  0  0  0  0  0  0  0  0
   61.2250   31.9130   50.1660 H   0  0  0  0  0  0  0  0  0  0  0  0
   59.8110   34.8314   46.2955 H   0  0  0  0  0  0  0  0  0  0  0  0
   59.1388   34.9296   43.8978 H   0  0  0  0  0  0  0  0  0  0  0  0
   57.6351   33.1823   42.9453 H   0  0  0  0  0  0  0  0  0  0  0  0
   56.7945   31.3333   44.3938 H   0  0  0  0  0  0  0  0  0  0  0  0
   57.4703   31.2142   46.7901 H   0  0  0  0  0  0  0  0  0  0  0  0
   58.0828   28.6101   48.6608 H   0  0  0  0  0  0  0  0  0  0  0  0
   57.7127   27.6594   46.3864 H   0  0  0  0  0  0  0  0  0  0  0  0
  1  2  1  0
  2  3  1  0
  3  4  1  0
  4  5  2  0
  5  6  1  0
  6  7  2  0
  7  8  1  0
  8  9  1  0
  9 10  2  0
  9 11  1  0
 11 12  1  0
 12 13  1  0
 13 14  2  0
 13 15  1  0
 15 16  2  0
 16 17  1  0
 17 18  2  0
 18 19  1  0
 19 20  2  0
 12 21  1  0
 21 22  2  0
 22 23  1  0
 23 24  2  0
 24 25  1  0
 25 26  2  0
  7 27  1  0
 27 28  2  0
 28  4  1  0
 20 15  1  0
 26 21  1  0
  1 29  1  0
  1 30  1  0
  1 31  1  0
  2 32  1  0
  2 33  1  0
  5 34  1  0
  6 35  1  0
 11 36  1  0
 11 37  1  0
 16 38  1  0
 17 39  1  0
 18 40  1  0
 19 41  1  0
 20 42  1  0
 22 43  1  0
 23 44  1  0
 24 45  1  0
 25 46  1  0
 26 47  1  0
 27 48  1  0
 28 49  1  0
M  CHG  2   8  -1  20   1
M  END
>  <UniqueID>  (43) 
38

>  <SMILES>  (43) 
CCOc1ccc([N-]C(=O)CN(C(=O)c2cccc[nH+]2)c2ccccc2)cc1

>  <Energy>  (43) 
60.060309381631946

>  <Genealogy>  (43) 
CCOc1ccc([N-]C(=O)CN(C(=O)c2cccc[nH+]2)c2ccccc2)cc1 (protonated)
CCOc1ccc([N-]C(=O)CN(C(=O)c2cccc[nH+]2)c2ccccc2)cc1 (3D coordinates assigned)
CCOc1ccc([N-]C(=O)CN(C(=O)c2cccc[nH+]2)c2ccccc2)cc1 (optimized conformer: 60.060309381631946 kcal/mol)

>  <smiles>  (43) 
CCOc1ccc(NC(=O)CN(C(=O)c2ccccn2)c2ccccc2)cc1

>  <score_type>  (43) 
oracle

>  <origin>  (43) 
adg

>  <m_score__min__energy>  (43) 
-7.25

>  <m_primary>  (43) 
energy

$$$$
43:0
     RDKit          3D

 38 39  0  0  0  0  0  0  0  0999 V2000
   65.4570   32.4340   50.1070 C   0  0  0  0  0  0  0  0  0  0  0  0
   64.9920   33.0980   48.9370 O   0  0  0  0  0  0  0  0  0  0  0  0
   63.6500   33.4240   48.6930 C   0  0  0  0  0  0  0  0  0  0  0  0
   62.8380   33.7620   49.7810 C   0  0  0  0  0  0  0  0  0  0  0  0
   61.4990   34.1120   49.5880 C   0  0  0  0  0  0  0  0  0  0  0  0
   60.9480   34.1180   48.2980 C   0  0  0  0  0  0  0  0  0  0  0  0
   59.5290   34.5820   48.0790 C   0  0  0  0  0  0  0  0  0  0  0  0
   59.3420   35.2050   46.6890 C   0  0  0  0  0  0  0  0  0  0  0  0
   58.5610   34.3010   45.7810 C   0  0  0  0  0  0  0  0  0  0  0  0
   57.3560   34.5750   45.5280 O   0  0  0  0  0  0  0  0  0  0  0  0
   59.1560   33.0850   45.2980 N   0  0  0  0  0  0  0  0  0  0  0  0
   58.4360   32.0740   44.5750 C   0  0  0  0  0  0  0  0  0  0  0  0
   58.0090   32.3390   43.2670 C   0  0  0  0  0  0  0  0  0  0  0  0
   57.2980   31.3770   42.5470 C   0  0  0  0  0  0  0  0  0  0  0  0
   56.9890   30.1370   43.1260 C   0  0  0  0  0  0  0  0  0  0  0  0
   56.2590   29.1680   42.3640 N   0  0  0  0  0  0  0  0  0  0  0  0
   57.3960   29.8740   44.4510 C   0  0  0  0  0  0  0  0  0  0  0  0
   57.0210   28.3510   45.2490 Cl  0  0  0  0  0  0  0  0  0  0  0  0
   58.1100   30.8430   45.1680 C   0  0  0  0  0  0  0  0  0  0  0  0
   61.7570   33.7740   47.2040 C   0  0  0  0  0  0  0  0  0  0  0  0
   63.0980   33.4280   47.3970 C   0  0  0  0  0  0  0  0  0  0  0  0
   65.0878   32.9612   50.9990 H   0  0  0  0  0  0  0  0  0  0  0  0
   65.0856   31.3986   50.1131 H   0  0  0  0  0  0  0  0  0  0  0  0
   66.5570   32.4290   50.1131 H   0  0  0  0  0  0  0  0  0  0  0  0
   63.2575   33.7521   50.7978 H   0  0  0  0  0  0  0  0  0  0  0  0
   60.8742   34.3840   50.4515 H   0  0  0  0  0  0  0  0  0  0  0  0
   58.8532   33.7196   48.1767 H   0  0  0  0  0  0  0  0  0  0  0  0
   59.3001   35.3505   48.8321 H   0  0  0  0  0  0  0  0  0  0  0  0
   58.8030   36.1581   46.7942 H   0  0  0  0  0  0  0  0  0  0  0  0
   60.3361   35.3638   46.2457 H   0  0  0  0  0  0  0  0  0  0  0  0
   60.1110   32.8410   45.6480 H   0  0  0  0  0  0  0  0  0  0  0  0
   58.2354   33.3110   42.8045 H   0  0  0  0  0  0  0  0  0  0  0  0
   56.9774   31.5931   41.5172 H   0  0  0  0  0  0  0  0  0  0  0  0
   55.5750   29.4440   41.6270 H   0  0  0  0  0  0  0  0  0  0  0  0
   56.3990   28.1470   42.5340 H   0  0  0  0  0  0  0  0  0  0  0  0
   58.4179   30.6381   46.2040 H   0  0  0  0  0  0  0  0  0  0  0  0
   61.3337   33.7766   46.1887 H   0  0  0  0  0  0  0  0  0  0  0  0
   63.7241   33.1580   46.5338 H   0  0  0  0  0  0  0  0  0  0  0  0
  1  2  1  0
  2  3  1  0
  3  4  2  0
  4  5  1  0
  5  6  2  0
  6  7  1  0
  7  8  1  0
  8  9  1  0
  9 10  2  0
  9 11  1  0
 11 12  1  0
 12 13  2  0
 13 14  1  0
 14 15  2  0
 15 16  1  0
 15 17  1  0
 17 18  1  0
 17 19  2  0
  6 20  1  0
 20 21  2  0
 21  3  1  0
 19 12  1  0
  1 22  1  0
  1 23  1  0
  1 24  1  0
  4 25  1  0
  5 26  1  0
  7 27  1  0
  7 28  1  0
  8 29  1  0
  8 30  1  0
 11 31  1  0
 13 32  1  0
 14 33  1  0
 16 34  1  0
 16 35  1  0
 19 36  1  0
 20 37  1  0
 21 38  1  0
M  END
>  <UniqueID>  (44) 
39

>  <SMILES>  (44) 
COc1ccc(CCC(=O)Nc2ccc(N)c(Cl)c2)cc1

>  <Energy>  (44) 
36.01352157048164

>  <Genealogy>  (44) 
COc1ccc(CCC(=O)Nc2ccc(N)c(Cl)c2)cc1 (3D coordinates assigned)
COc1ccc(CCC(=O)Nc2ccc(N)c(Cl)c2)cc1 (optimized conformer: 36.01352157048164 kcal/mol)

>  <smiles>  (44) 
COc1ccc(CCC(=O)Nc2ccc(N)c(Cl)c2)cc1

>  <score_type>  (44) 
oracle

>  <origin>  (44) 
adg

>  <m_score__min__energy>  (44) 
-7.3200000000000003

>  <m_primary>  (44) 
energy

$$$$
44:0
     RDKit          3D

 41 42  0  0  0  0  0  0  0  0999 V2000
   59.5830   32.1590   47.3220 C   0  0  0  0  0  0  0  0  0  0  0  0
   58.1920   32.0370   46.7110 C   0  0  0  0  0  0  0  0  0  0  0  0
   58.2780   32.1460   45.2360 N   0  0  0  0  0  0  0  0  0  0  0  0
   57.7860   33.4620   44.7710 C   0  0  0  0  0  0  0  0  0  0  0  0
   58.8330   34.5590   44.9640 C   0  0  0  0  0  0  0  0  0  0  0  0
   57.3850   30.8380   44.4760 S   0  0  0  0  0  0  0  0  0  0  0  0
   57.7350   30.7490   43.0170 O   0  0  0  0  0  0  0  0  0  0  0  0
   55.9060   31.0820   44.6000 O   0  0  0  0  0  0  0  0  0  0  0  0
   57.7920   29.2910   45.2190 C   0  0  0  0  0  0  0  0  0  0  0  0
   59.1030   29.0220   45.6320 C   0  0  0  0  0  0  0  0  0  0  0  0
   59.4230   27.7800   46.1850 C   0  0  0  0  0  0  0  0  0  0  0  0
   58.4390   26.7980   46.3200 C   0  0  0  0  0  0  0  0  0  0  0  0
   57.1220   27.0500   45.8990 C   0  0  0  0  0  0  0  0  0  0  0  0
   56.0770   26.0090   46.0240 C   0  0  0  0  0  0  0  0  0  0  0  0
   54.8640   26.3440   45.9880 O   0  0  0  0  0  0  0  0  0  0  0  0
   56.4030   24.6280   46.2330 N   0  0  0  0  0  0  0  0  0  0  0  0
   56.6270   23.6530   45.2030 C   0  0  0  0  0  0  0  0  0  0  0  0
   57.8130   22.9020   45.1350 C   0  0  0  0  0  0  0  0  0  0  0  0
   57.9920   21.9750   44.1070 C   0  0  0  0  0  0  0  0  0  0  0  0
   56.9920   21.8200   43.1450 C   0  0  0  0  0  0  0  0  0  0  0  0
   55.8620   22.5710   43.2100 N   0  0  0  0  0  0  0  0  0  0  0  0
   55.6640   23.4790   44.2030 C   0  0  0  0  0  0  0  0  0  0  0  0
   56.8030   28.3080   45.3620 C   0  0  0  0  0  0  0  0  0  0  0  0
   59.5035   32.1520   48.4191 H   0  0  0  0  0  0  0  0  0  0  0  0
   60.2032   31.3118   46.9939 H   0  0  0  0  0  0  0  0  0  0  0  0
   60.0462   33.1012   46.9939 H   0  0  0  0  0  0  0  0  0  0  0  0
   57.7596   31.0620   46.9801 H   0  0  0  0  0  0  0  0  0  0  0  0
   57.5544   32.8458   47.0974 H   0  0  0  0  0  0  0  0  0  0  0  0
   57.5367   33.3916   43.7019 H   0  0  0  0  0  0  0  0  0  0  0  0
   56.8997   33.7261   45.3666 H   0  0  0  0  0  0  0  0  0  0  0  0
   58.9937   34.7274   46.0391 H   0  0  0  0  0  0  0  0  0  0  0  0
   59.7791   34.2494   44.4959 H   0  0  0  0  0  0  0  0  0  0  0  0
   58.4796   35.4896   44.4959 H   0  0  0  0  0  0  0  0  0  0  0  0
   59.8822   29.7904   45.5206 H   0  0  0  0  0  0  0  0  0  0  0  0
   60.4521   27.5748   46.5149 H   0  0  0  0  0  0  0  0  0  0  0  0
   58.6962   25.8223   46.7581 H   0  0  0  0  0  0  0  0  0  0  0  0
   58.5992   23.0446   45.8910 H   0  0  0  0  0  0  0  0  0  0  0  0
   58.9112   21.3729   44.0553 H   0  0  0  0  0  0  0  0  0  0  0  0
   57.1194   21.0887   42.3333 H   0  0  0  0  0  0  0  0  0  0  0  0
   54.7425   24.0794   44.2200 H   0  0  0  0  0  0  0  0  0  0  0  0
   55.7699   28.5233   45.0515 H   0  0  0  0  0  0  0  0  0  0  0  0
  1  2  1  0
  2  3  1  0
  3  4  1  0
  4  5  1  0
  3  6  1  0
  6  7  2  0
  6  8  2  0
  6  9  1  0
  9 10  2  0
 10 11  1  0
 11 12  2  0
 12 13  1  0
 13 14  1  0
 14 15  2  0
 14 16  1  0
 16 17  1  0
 17 18  2  0
 18 19  1  0
 19 20  2  0
 20 21  1  0
 21 22  2  0
 13 23  2  0
 23  9  1  0
 22 17  1  0
  1 24  1  0
  1 25  1  0
  1 26  1  0
  2 27  1  0
  2 28  1  0
  4 29  1  0
  4 30  1  0
  5 31  1  0
  5 32  1  0
  5 33  1  0
 10 34  1  0
 11 35  1  0
 12 36  1  0
 18 37  1  0
 19 38  1  0
 20 39  1  0
 22 40  1  0
 23 41  1  0
M  CHG  1  16  -1
M  END
>  <UniqueID>  (45) 
40

>  <SMILES>  (45) 
CCN(CC)S(=O)(=O)c1cccc(C(=O)[N-]c2cccnc2)c1

>  <Energy>  (45) 
46.783129153432085

>  <Genealogy>  (45) 
CCN(CC)S(=O)(=O)c1cccc(C(=O)[N-]c2cccnc2)c1 (protonated)
CCN(CC)S(=O)(=O)c1cccc(C(=O)[N-]c2cccnc2)c1 (3D coordinates assigned)
CCN(CC)S(=O)(=O)c1cccc(C(=O)[N-]c2cccnc2)c1 (optimized conformer: 46.783129153432085 kcal/mol)

>  <smiles>  (45) 
CCN(CC)S(=O)(=O)c1cccc(C(=O)Nc2cccnc2)c1

>  <score_type>  (45) 
oracle

>  <origin>  (45) 
adg

>  <m_score__min__energy>  (45) 
-10.050000000000001

>  <m_primary>  (45) 
energy

$$$$
45:0
     RDKit          3D

 35 36  0  0  0  0  0  0  0  0999 V2000
   56.0370   23.3810   47.5760 C   0  0  0  0  0  0  0  0  0  0  0  0
   55.8770   24.7290   47.1490 O   0  0  0  0  0  0  0  0  0  0  0  0
   56.5960   25.3180   46.0990 C   0  0  0  0  0  0  0  0  0  0  0  0
   57.0600   24.5790   44.9940 C   0  0  0  0  0  0  0  0  0  0  0  0
   57.7660   25.2160   43.9680 C   0  0  0  0  0  0  0  0  0  0  0  0
   58.0180   26.5870   44.0360 C   0  0  0  0  0  0  0  0  0  0  0  0
   57.5760   27.3300   45.1380 C   0  0  0  0  0  0  0  0  0  0  0  0
   57.8260   28.7450   45.1960 N   0  0  0  0  0  0  0  0  0  0  0  0
   56.7330   29.6670   44.9890 C   0  0  0  0  0  0  0  0  0  0  0  0
   55.3860   29.2060   44.8420 N   0  0  0  0  0  0  0  0  0  0  0  0
   56.9710   30.9390   44.9080 N   0  0  0  0  0  0  0  0  0  0  0  0
   58.2950   31.4620   45.0140 C   0  0  0  0  0  0  0  0  0  0  0  0
   58.5300   32.8450   44.7560 N   0  0  0  0  0  0  0  0  0  0  0  0
   59.2890   30.6830   45.3070 N   0  0  0  0  0  0  0  0  0  0  0  0
   59.1460   29.2610   45.6400 C   0  0  0  0  0  0  0  0  0  0  0  0
   59.2730   29.1120   47.1630 C   0  0  0  0  0  0  0  0  0  0  0  0
   60.2920   28.5040   44.9480 C   0  0  0  0  0  0  0  0  0  0  0  0
   56.8550   26.6930   46.1590 C   0  0  0  0  0  0  0  0  0  0  0  0
   56.0415   23.3427   48.6753 H   0  0  0  0  0  0  0  0  0  0  0  0
   55.2047   22.7733   47.1914 H   0  0  0  0  0  0  0  0  0  0  0  0
   56.9884   22.9850   47.1914 H   0  0  0  0  0  0  0  0  0  0  0  0
   56.8668   23.4976   44.9373 H   0  0  0  0  0  0  0  0  0  0  0  0
   58.1235   24.6347   43.1053 H   0  0  0  0  0  0  0  0  0  0  0  0
   58.5651   27.0853   43.2221 H   0  0  0  0  0  0  0  0  0  0  0  0
   54.6130   29.8900   44.6840 H   0  0  0  0  0  0  0  0  0  0  0  0
   55.1390   28.1930   44.8900 H   0  0  0  0  0  0  0  0  0  0  0  0
   59.4940   33.2410   44.8170 H   0  0  0  0  0  0  0  0  0  0  0  0
   57.7350   33.4750   44.5060 H   0  0  0  0  0  0  0  0  0  0  0  0
   58.6361   29.8593   47.6589 H   0  0  0  0  0  0  0  0  0  0  0  0
   58.9534   28.1024   47.4606 H   0  0  0  0  0  0  0  0  0  0  0  0
   60.3205   29.2676   47.4606 H   0  0  0  0  0  0  0  0  0  0  0  0
   60.9546   28.0663   45.7092 H   0  0  0  0  0  0  0  0  0  0  0  0
   59.8755   27.7027   44.3199 H   0  0  0  0  0  0  0  0  0  0  0  0
   60.8656   29.2015   44.3199 H   0  0  0  0  0  0  0  0  0  0  0  0
   56.4895   27.2792   47.0150 H   0  0  0  0  0  0  0  0  0  0  0  0
  1  2  1  0
  2  3  1  0
  3  4  2  0
  4  5  1  0
  5  6  2  0
  6  7  1  0
  7  8  1  0
  8  9  1  0
  9 10  1  0
  9 11  2  0
 11 12  1  0
 12 13  1  0
 12 14  2  0
 14 15  1  0
 15 16  1  0
 15 17  1  0
  7 18  2  0
 18  3  1  0
 15  8  1  0
  1 19  1  0
  1 20  1  0
  1 21  1  0
  4 22  1  0
  5 23  1  0
  6 24  1  0
 10 25  1  0
 10 26  1  0
 13 27  1  0
 13 28  1  0
 16 29  1  0
 16 30  1  0
 16 31  1  0
 17 32  1  0
 17 33  1  0
 17 34  1  0
 18 35  1  0
M  END
>  <UniqueID>  (46) 
41

>  <SMILES>  (46) 
COc1cccc(N2C(N)=NC(N)=NC2(C)C)c1

>  <Energy>  (46) 
38.05233242570087

>  <Genealogy>  (46) 
COc1cccc(N2C(N)=NC(N)=NC2(C)C)c1 (3D coordinates assigned)
COc1cccc(N2C(N)=NC(N)=NC2(C)C)c1 (nonaromatic ring conformer: 38.05233242570087 kcal/mol)

>  <smiles>  (46) 
COc1cccc(N2C(N)=NC(N)=NC2(C)C)c1

>  <score_type>  (46) 
oracle

>  <origin>  (46) 
adg

>  <m_score__min__energy>  (46) 
-6.7300000000000004

>  <m_primary>  (46) 
energy

$$$$
46:0
     RDKit          3D

 49 51  0  0  0  0  0  0  0  0999 V2000
   64.1960   32.8630   49.0600 C   0  0  0  0  0  0  0  0  0  0  0  0
   63.6830   31.9910   47.9160 C   0  0  0  0  0  0  0  0  0  0  0  0
   62.3200   32.4060   47.5080 N   0  0  0  0  0  0  0  0  0  0  0  0
   62.1870   33.5390   46.7370 C   0  0  0  0  0  0  0  0  0  0  0  0
   63.1980   34.2270   46.4200 O   0  0  0  0  0  0  0  0  0  0  0  0
   60.9370   33.9560   46.2840 C   0  0  0  0  0  0  0  0  0  0  0  0
   59.7940   33.2390   46.6140 C   0  0  0  0  0  0  0  0  0  0  0  0
   58.2200   33.8040   45.9310 S   0  0  0  0  0  0  0  0  0  0  0  0
   58.5650   33.2060   44.2380 C   0  0  0  0  0  0  0  0  0  0  0  0
   57.5740   32.1520   43.8300 C   0  0  0  0  0  0  0  0  0  0  0  0
   57.3860   31.9290   42.6060 O   0  0  0  0  0  0  0  0  0  0  0  0
   56.9260   31.3080   44.7910 N   0  0  0  0  0  0  0  0  0  0  0  0
   57.2740   29.9470   45.0780 C   0  0  0  0  0  0  0  0  0  0  0  0
   56.2530   29.0060   45.2500 C   0  0  0  0  0  0  0  0  0  0  0  0
   56.5610   27.6710   45.5770 C   0  0  0  0  0  0  0  0  0  0  0  0
   55.5700   26.6910   45.7540 O   0  0  0  0  0  0  0  0  0  0  0  0
   55.8350   25.3140   46.0010 C   0  0  0  0  0  0  0  0  0  0  0  0
   57.9000   27.2960   45.7380 C   0  0  0  0  0  0  0  0  0  0  0  0
   58.9320   28.2420   45.5970 C   0  0  0  0  0  0  0  0  0  0  0  0
   60.2850   27.9140   45.7700 O   0  0  0  0  0  0  0  0  0  0  0  0
   60.7500   26.7510   46.4490 C   0  0  0  0  0  0  0  0  0  0  0  0
   58.6080   29.5660   45.2820 C   0  0  0  0  0  0  0  0  0  0  0  0
   59.9000   32.1190   47.4600 C   0  0  0  0  0  0  0  0  0  0  0  0
   58.7540   31.4120   47.8790 C   0  0  0  0  0  0  0  0  0  0  0  0
   58.8680   30.3080   48.7220 C   0  0  0  0  0  0  0  0  0  0  0  0
   60.1180   29.8990   49.1700 C   0  0  0  0  0  0  0  0  0  0  0  0
   61.2690   30.5890   48.7800 C   0  0  0  0  0  0  0  0  0  0  0  0
   61.1910   31.7080   47.9110 C   0  0  0  0  0  0  0  0  0  0  0  0
   63.9252   32.4028   50.0217 H   0  0  0  0  0  0  0  0  0  0  0  0
   65.2902   32.9517   48.9912 H   0  0  0  0  0  0  0  0  0  0  0  0
   63.7420   33.8626   48.9912 H   0  0  0  0  0  0  0  0  0  0  0  0
   64.3621   32.0881   47.0561 H   0  0  0  0  0  0  0  0  0  0  0  0
   63.6457   30.9463   48.2585 H   0  0  0  0  0  0  0  0  0  0  0  0
   60.8548   34.8589   45.6610 H   0  0  0  0  0  0  0  0  0  0  0  0
   58.5009   34.0514   43.5372 H   0  0  0  0  0  0  0  0  0  0  0  0
   59.5735   32.7671   44.2186 H   0  0  0  0  0  0  0  0  0  0  0  0
   55.2030   29.3107   45.1291 H   0  0  0  0  0  0  0  0  0  0  0  0
   55.8692   25.1361   47.0860 H   0  0  0  0  0  0  0  0  0  0  0  0
   55.0383   24.7013   45.5539 H   0  0  0  0  0  0  0  0  0  0  0  0
   56.8022   25.0408   45.5539 H   0  0  0  0  0  0  0  0  0  0  0  0
   58.1479   26.2513   45.9771 H   0  0  0  0  0  0  0  0  0  0  0  0
   60.6862   26.9106   47.5355 H   0  0  0  0  0  0  0  0  0  0  0  0
   60.1275   25.8888   46.1679 H   0  0  0  0  0  0  0  0  0  0  0  0
   61.7954   26.5557   46.1679 H   0  0  0  0  0  0  0  0  0  0  0  0
   59.4079   30.3159   45.1934 H   0  0  0  0  0  0  0  0  0  0  0  0
   57.7598   31.7352   47.5369 H   0  0  0  0  0  0  0  0  0  0  0  0
   57.9667   29.7595   49.0332 H   0  0  0  0  0  0  0  0  0  0  0  0
   60.2021   29.0271   49.8354 H   0  0  0  0  0  0  0  0  0  0  0  0
   62.2503   30.2597   49.1523 H   0  0  0  0  0  0  0  0  0  0  0  0
  1  2  1  0
  2  3  1  0
  3  4  1  0
  4  5  2  0
  4  6  1  0
  6  7  2  0
  7  8  1  0
  8  9  1  0
  9 10  1  0
 10 11  2  0
 10 12  1  0
 12 13  1  0
 13 14  2  0
 14 15  1  0
 15 16  1  0
 16 17  1  0
 15 18  2  0
 18 19  1  0
 19 20  1  0
 20 21  1  0
 19 22  2  0
  7 23  1  0
 23 24  2  0
 24 25  1  0
 25 26  2  0
 26 27  1  0
 27 28  2  0
 28  3  1  0
 22 13  1  0
 28 23  1  0
  1 29  1  0
  1 30  1  0
  1 31  1  0
  2 32  1  0
  2 33  1  0
  6 34  1  0
  9 35  1  0
  9 36  1  0
 14 37  1  0
 17 38  1  0
 17 39  1  0
 17 40  1  0
 18 41  1  0
 21 42  1  0
 21 43  1  0
 21 44  1  0
 22 45  1  0
 24 46  1  0
 25 47  1  0
 26 48  1  0
 27 49  1  0
M  CHG  1  12  -1
M  END
>  <UniqueID>  (47) 
42

>  <SMILES>  (47) 
CCn1c(=O)cc(SCC(=O)[N-]c2cc(OC)cc(OC)c2)c2ccccc21

>  <Energy>  (47) 
60.205637123844994

>  <Genealogy>  (47) 
CCn1c(=O)cc(SCC(=O)[N-]c2cc(OC)cc(OC)c2)c2ccccc21 (protonated)
CCn1c(=O)cc(SCC(=O)[N-]c2cc(OC)cc(OC)c2)c2ccccc21 (3D coordinates assigned)
CCn1c(=O)cc(SCC(=O)[N-]c2cc(OC)cc(OC)c2)c2ccccc21 (optimized conformer: 60.205637123844994 kcal/mol)

>  <smiles>  (47) 
CCn1c(=O)cc(SCC(=O)Nc2cc(OC)cc(OC)c2)c2ccccc21

>  <score_type>  (47) 
oracle

>  <origin>  (47) 
adg

>  <m_score__min__energy>  (47) 
-10.470000000000001

>  <m_primary>  (47) 
energy

$$$$
47:0
     RDKit          3D

 32 33  0  0  0  0  0  0  0  0999 V2000
   57.7800   32.3160   41.1570 C   0  0  0  0  0  0  0  0  0  0  0  0
   57.5970   32.9610   42.4130 O   0  0  0  0  0  0  0  0  0  0  0  0
   57.8070   32.3650   43.6670 C   0  0  0  0  0  0  0  0  0  0  0  0
   58.6070   32.9990   44.6370 C   0  0  0  0  0  0  0  0  0  0  0  0
   58.8250   32.4170   45.8910 C   0  0  0  0  0  0  0  0  0  0  0  0
   59.6750   33.0990   46.9010 C   0  0  0  0  0  0  0  0  0  0  0  0
   59.1220   34.0320   47.7950 C   0  0  0  0  0  0  0  0  0  0  0  0
   59.9090   34.6530   48.7180 N   0  0  0  0  0  0  0  0  0  0  0  0
   61.2400   34.3950   48.8070 C   0  0  0  0  0  0  0  0  0  0  0  0
   61.8350   33.4740   47.9420 C   0  0  0  0  0  0  0  0  0  0  0  0
   63.7050   33.1030   48.0670 Br  0  0  0  0  0  0  0  0  0  0  0  0
   61.0500   32.8270   46.9870 C   0  0  0  0  0  0  0  0  0  0  0  0
   58.2280   31.1850   46.1820 C   0  0  0  0  0  0  0  0  0  0  0  0
   57.4170   30.5290   45.2420 C   0  0  0  0  0  0  0  0  0  0  0  0
   56.8210   29.2630   45.5960 N   0  0  0  0  0  0  0  0  0  0  0  0
   57.4820   28.3810   46.1820 O   0  0  0  0  0  0  0  0  0  0  0  0
   55.5310   28.9720   45.2140 O   0  0  0  0  0  0  0  0  0  0  0  0
   57.2110   31.1110   43.9660 C   0  0  0  0  0  0  0  0  0  0  0  0
   56.4250   30.3960   43.0410 O   0  0  0  0  0  0  0  0  0  0  0  0
   56.6400   29.0660   42.5800 C   0  0  0  0  0  0  0  0  0  0  0  0
   58.0768   31.2697   41.3219 H   0  0  0  0  0  0  0  0  0  0  0  0
   56.8382   32.3448   40.5893 H   0  0  0  0  0  0  0  0  0  0  0  0
   58.5663   32.8351   40.5893 H   0  0  0  0  0  0  0  0  0  0  0  0
   59.0692   33.9698   44.4048 H   0  0  0  0  0  0  0  0  0  0  0  0
   58.0474   34.2623   47.7493 H   0  0  0  0  0  0  0  0  0  0  0  0
   59.4780   35.3460   49.3700 H   0  0  0  0  0  0  0  0  0  0  0  0
   61.8502   34.9126   49.5619 H   0  0  0  0  0  0  0  0  0  0  0  0
   61.5096   32.1017   46.2994 H   0  0  0  0  0  0  0  0  0  0  0  0
   58.3973   30.7220   47.1654 H   0  0  0  0  0  0  0  0  0  0  0  0
   56.7489   28.3921   43.4425 H   0  0  0  0  0  0  0  0  0  0  0  0
   55.7819   28.7459   41.9707 H   0  0  0  0  0  0  0  0  0  0  0  0
   57.5552   29.0326   41.9707 H   0  0  0  0  0  0  0  0  0  0  0  0
  1  2  1  0
  2  3  1  0
  3  4  2  0
  4  5  1  0
  5  6  1  0
  6  7  2  0
  7  8  1  0
  8  9  2  0
  9 10  1  0
 10 11  1  0
 10 12  2  0
  5 13  2  0
 13 14  1  0
 14 15  1  0
 15 16  2  0
 15 17  1  0
 14 18  2  0
 18 19  1  0
 19 20  1  0
 18  3  1  0
 12  6  1  0
  1 21  1  0
  1 22  1  0
  1 23  1  0
  4 24  1  0
  7 25  1  0
  8 26  1  0
  9 27  1  0
 12 28  1  0
 13 29  1  0
 20 30  1  0
 20 31  1  0
 20 32  1  0
M  CHG  3   8   1  15   1  17  -1
M  END
>  <UniqueID>  (48) 
43

>  <SMILES>  (48) 
COc1cc(-c2c[nH+]cc(Br)c2)cc([N+](=O)[O-])c1OC

>  <Energy>  (48) 
43.25364676071108

>  <Genealogy>  (48) 
COc1cc(-c2c[nH+]cc(Br)c2)cc([N+](=O)[O-])c1OC (protonated)
COc1cc(-c2c[nH+]cc(Br)c2)cc([N+](=O)[O-])c1OC (3D coordinates assigned)
COc1cc(-c2c[nH+]cc(Br)c2)cc([N+](=O)[O-])c1OC (optimized conformer: 43.25364676071108 kcal/mol)

>  <smiles>  (48) 
COc1cc(-c2cncc(Br)c2)cc([N+](=O)[O-])c1OC

>  <score_type>  (48) 
oracle

>  <origin>  (48) 
adg

>  <m_score__min__energy>  (48) 
-5.25

>  <m_primary>  (48) 
energy

$$$$
48:0
     RDKit          3D

 38 39  0  0  0  0  0  0  0  0999 V2000
   57.1140   26.4800   47.1390 O   0  0  0  0  0  0  0  0  0  0  0  0
   56.5280   26.8280   46.0800 C   0  0  0  0  0  0  0  0  0  0  0  0
   55.1450   26.7230   45.9910 O   0  0  0  0  0  0  0  0  0  0  0  0
   57.3190   27.3340   44.9160 C   0  0  0  0  0  0  0  0  0  0  0  0
   57.7460   28.7270   45.1590 N   0  0  0  0  0  0  0  0  0  0  0  0
   59.2120   28.8700   45.1290 C   0  0  0  0  0  0  0  0  0  0  0  0
   59.7090   29.4020   46.4460 C   0  0  0  0  0  0  0  0  0  0  0  0
   59.1410   28.9440   47.6470 C   0  0  0  0  0  0  0  0  0  0  0  0
   59.6070   29.4260   48.8750 C   0  0  0  0  0  0  0  0  0  0  0  0
   60.6400   30.3640   48.9130 C   0  0  0  0  0  0  0  0  0  0  0  0
   61.2110   30.8240   47.7230 C   0  0  0  0  0  0  0  0  0  0  0  0
   60.7490   30.3460   46.4930 C   0  0  0  0  0  0  0  0  0  0  0  0
   57.0000   29.8380   44.0260 S   0  0  0  0  0  0  0  0  0  0  0  0
   55.7580   30.3930   44.6640 O   0  0  0  0  0  0  0  0  0  0  0  0
   56.5950   29.1030   42.7780 O   0  0  0  0  0  0  0  0  0  0  0  0
   58.0520   31.2280   43.5850 C   0  0  0  0  0  0  0  0  0  0  0  0
   58.1160   32.2640   44.6750 C   0  0  0  0  0  0  0  0  0  0  0  0
   58.5180   33.5800   44.3860 C   0  0  0  0  0  0  0  0  0  0  0  0
   58.5570   34.5440   45.3990 C   0  0  0  0  0  0  0  0  0  0  0  0
   58.2010   34.2010   46.7060 C   0  0  0  0  0  0  0  0  0  0  0  0
   57.8130   32.8930   47.0050 C   0  0  0  0  0  0  0  0  0  0  0  0
   57.7740   31.9260   45.9960 C   0  0  0  0  0  0  0  0  0  0  0  0
   58.2073   26.7003   44.7768 H   0  0  0  0  0  0  0  0  0  0  0  0
   56.6912   27.3023   44.0133 H   0  0  0  0  0  0  0  0  0  0  0  0
   59.6691   27.8879   44.9380 H   0  0  0  0  0  0  0  0  0  0  0  0
   59.4878   29.5742   44.3302 H   0  0  0  0  0  0  0  0  0  0  0  0
   58.3274   28.2041   47.6215 H   0  0  0  0  0  0  0  0  0  0  0  0
   59.1585   29.0651   49.8123 H   0  0  0  0  0  0  0  0  0  0  0  0
   61.0048   30.7413   49.8797 H   0  0  0  0  0  0  0  0  0  0  0  0
   62.0250   31.5632   47.7543 H   0  0  0  0  0  0  0  0  0  0  0  0
   61.2012   30.7102   45.5587 H   0  0  0  0  0  0  0  0  0  0  0  0
   59.0685   30.8549   43.3914 H   0  0  0  0  0  0  0  0  0  0  0  0
   57.6224   31.7052   42.6918 H   0  0  0  0  0  0  0  0  0  0  0  0
   58.8030   33.8527   43.3591 H   0  0  0  0  0  0  0  0  0  0  0  0
   58.8682   35.5731   45.1664 H   0  0  0  0  0  0  0  0  0  0  0  0
   58.2264   34.9618   47.5001 H   0  0  0  0  0  0  0  0  0  0  0  0
   57.5378   32.6234   48.0353 H   0  0  0  0  0  0  0  0  0  0  0  0
   57.4742   30.8955   46.2370 H   0  0  0  0  0  0  0  0  0  0  0  0
  1  2  2  0
  2  3  1  0
  2  4  1  0
  4  5  1  0
  5  6  1  0
  6  7  1  0
  7  8  2  0
  8  9  1  0
  9 10  2  0
 10 11  1  0
 11 12  2  0
  5 13  1  0
 13 14  2  0
 13 15  2  0
 13 16  1  0
 16 17  1  0
 17 18  2  0
 18 19  1  0
 19 20  2  0
 20 21  1  0
 21 22  2  0
 12  7  1  0
 22 17  1  0
  4 23  1  0
  4 24  1  0
  6 25  1  0
  6 26  1  0
  8 27  1  0
  9 28  1  0
 10 29  1  0
 11 30  1  0
 12 31  1  0
 16 32  1  0
 16 33  1  0
 18 34  1  0
 19 35  1  0
 20 36  1  0
 21 37  1  0
 22 38  1  0
M  CHG  1   3  -1
M  END
>  <UniqueID>  (49) 
44

>  <SMILES>  (49) 
O=C([O-])CN(Cc1ccccc1)S(=O)(=O)Cc1ccccc1

>  <Energy>  (49) 
33.08199698554594

>  <Genealogy>  (49) 
O=C([O-])CN(Cc1ccccc1)S(=O)(=O)Cc1ccccc1 (protonated)
O=C([O-])CN(Cc1ccccc1)S(=O)(=O)Cc1ccccc1 (3D coordinates assigned)
O=C([O-])CN(Cc1ccccc1)S(=O)(=O)Cc1ccccc1 (optimized conformer: 33.08199698554594 kcal/mol)

>  <smiles>  (49) 
O=C(O)CN(Cc1ccccc1)S(=O)(=O)Cc1ccccc1

>  <score_type>  (49) 
oracle

>  <origin>  (49) 
adg

>  <m_score__min__energy>  (49) 
-10.449999999999999

>  <m_primary>  (49) 
energy

$$$$
49:0
     RDKit          3D

 35 35  0  0  0  0  0  0  0  0999 V2000
   60.7460   30.8250   47.7130 C   0  0  0  0  0  0  0  0  0  0  0  0
   59.8960   31.7090   46.8570 C   0  0  0  0  0  0  0  0  0  0  0  0
   60.2050   33.0640   46.7070 C   0  0  0  0  0  0  0  0  0  0  0  0
   59.3720   33.8550   45.9110 C   0  0  0  0  0  0  0  0  0  0  0  0
   59.6550   35.3130   45.7350 C   0  0  0  0  0  0  0  0  0  0  0  0
   58.2830   33.2990   45.3170 N   0  0  0  0  0  0  0  0  0  0  0  0
   57.9920   31.9810   45.4680 C   0  0  0  0  0  0  0  0  0  0  0  0
   56.9300   31.4960   44.8950 N   0  0  0  0  0  0  0  0  0  0  0  0
   56.6380   30.1060   44.6830 C   0  0  0  0  0  0  0  0  0  0  0  0
   55.4620   29.7260   43.6090 S   0  0  0  0  0  0  0  0  0  0  0  0
   57.5410   29.0890   45.1500 N   0  0  0  0  0  0  0  0  0  0  0  0
   57.1280   27.7610   45.5050 C   0  0  0  0  0  0  0  0  0  0  0  0
   55.9030   27.4740   45.5970 O   0  0  0  0  0  0  0  0  0  0  0  0
   58.1560   26.6980   45.7750 C   0  0  0  0  0  0  0  0  0  0  0  0
   59.3470   27.2030   46.6170 C   0  0  0  0  0  0  0  0  0  0  0  0
   58.8950   28.0770   47.7950 C   0  0  0  0  0  0  0  0  0  0  0  0
   60.3880   27.9370   45.7610 C   0  0  0  0  0  0  0  0  0  0  0  0
   58.7940   31.2010   46.2450 N   0  0  0  0  0  0  0  0  0  0  0  0
   60.5430   31.0362   48.7733 H   0  0  0  0  0  0  0  0  0  0  0  0
   60.5127   29.7718   47.4977 H   0  0  0  0  0  0  0  0  0  0  0  0
   61.8075   31.0168   47.4977 H   0  0  0  0  0  0  0  0  0  0  0  0
   61.0847   33.4982   47.2046 H   0  0  0  0  0  0  0  0  0  0  0  0
   59.7476   35.7903   46.7217 H   0  0  0  0  0  0  0  0  0  0  0  0
   60.5944   35.4394   45.1769 H   0  0  0  0  0  0  0  0  0  0  0  0
   58.8311   35.7817   45.1769 H   0  0  0  0  0  0  0  0  0  0  0  0
   58.5520   29.3330   45.2460 H   0  0  0  0  0  0  0  0  0  0  0  0
   57.6709   25.8720   46.3158 H   0  0  0  0  0  0  0  0  0  0  0  0
   58.5567   26.3765   44.8023 H   0  0  0  0  0  0  0  0  0  0  0  0
   59.8293   26.3069   47.0346 H   0  0  0  0  0  0  0  0  0  0  0  0
   59.1527   27.5788   48.7413 H   0  0  0  0  0  0  0  0  0  0  0  0
   59.4020   29.0519   47.7440 H   0  0  0  0  0  0  0  0  0  0  0  0
   57.8064   28.2267   47.7440 H   0  0  0  0  0  0  0  0  0  0  0  0
   61.1095   28.4457   46.4173 H   0  0  0  0  0  0  0  0  0  0  0  0
   60.9179   27.2117   45.1261 H   0  0  0  0  0  0  0  0  0  0  0  0
   59.8828   28.6797   45.1261 H   0  0  0  0  0  0  0  0  0  0  0  0
  1  2  1  0
  2  3  1  0
  3  4  2  0
  4  5  1  0
  4  6  1  0
  6  7  1  0
  7  8  2  3
  8  9  1  0
  9 10  2  0
  9 11  1  0
 11 12  1  0
 12 13  2  0
 12 14  1  0
 14 15  1  0
 15 16  1  0
 15 17  1  0
  7 18  1  0
 18  2  2  0
  1 19  1  0
  1 20  1  0
  1 21  1  0
  3 22  1  0
  5 23  1  0
  5 24  1  0
  5 25  1  0
 11 26  1  0
 14 27  1  0
 14 28  1  0
 15 29  1  0
 16 30  1  0
 16 31  1  0
 16 32  1  0
 17 33  1  0
 17 34  1  0
 17 35  1  0
M  CHG  1   6  -1
M  END
>  <UniqueID>  (50) 
45

>  <SMILES>  (50) 
Cc1cc(C)[n-]c(=NC(=S)NC(=O)CC(C)C)n1

>  <Energy>  (50) 
29.99164152104142

>  <Genealogy>  (50) 
Cc1cc(C)[n-]c(=NC(=S)NC(=O)CC(C)C)n1 (protonated)
Cc1cc(C)[n-]c(=NC(=S)NC(=O)CC(C)C)n1 (3D coordinates assigned)
Cc1cc(C)[n-]c(=NC(=S)NC(=O)CC(C)C)n1 (optimized conformer: 29.99164152104142 kcal/mol)

>  <smiles>  (50) 
Cc1cc(C)[nH]c(=NC(=S)NC(=O)CC(C)C)n1

>  <score_type>  (50) 
oracle

>  <origin>  (50) 
adg

>  <m_score__min__energy>  (50) 
-8.6300000000000008

>  <m_primary>  (50) 
energy

$$$$
50:0
     RDKit          3D

 34 36  0  0  0  0  0  0  0  0999 V2000
   56.6390   34.4500   44.7740 O   0  0  0  0  0  0  0  0  0  0  0  0
   57.5140   33.5480   44.8670 C   0  0  0  0  0  0  0  0  0  0  0  0
   57.4200   32.4060   44.0030 N   0  0  0  0  0  0  0  0  0  0  0  0
   57.0810   31.2050   44.3710 C   0  0  0  0  0  0  0  0  0  0  0  0
   55.7930   30.8330   44.5230 N   0  0  0  0  0  0  0  0  0  0  0  0
   55.6560   29.5630   44.9040 N   0  0  0  0  0  0  0  0  0  0  0  0
   56.8360   28.9200   45.0410 C   0  0  0  0  0  0  0  0  0  0  0  0
   56.9840   27.2610   45.5900 S   0  0  0  0  0  0  0  0  0  0  0  0
   55.6400   26.7270   45.9970 O   0  0  0  0  0  0  0  0  0  0  0  0
   57.5360   26.4250   44.4710 O   0  0  0  0  0  0  0  0  0  0  0  0
   58.0680   27.1860   46.9420 N   0  0  0  0  0  0  0  0  0  0  0  0
   58.8750   28.2740   47.4150 C   0  0  0  0  0  0  0  0  0  0  0  0
   58.5370   29.0100   48.5670 C   0  0  0  0  0  0  0  0  0  0  0  0
   59.3400   30.0780   48.9800 C   0  0  0  0  0  0  0  0  0  0  0  0
   60.4820   30.4190   48.2500 C   0  0  0  0  0  0  0  0  0  0  0  0
   60.8260   29.6900   47.1100 C   0  0  0  0  0  0  0  0  0  0  0  0
   60.0270   28.6180   46.6980 C   0  0  0  0  0  0  0  0  0  0  0  0
   58.1380   29.9230   44.6810 S   0  0  0  0  0  0  0  0  0  0  0  0
   58.5620   33.6530   45.9120 C   0  0  0  0  0  0  0  0  0  0  0  0
   59.8820   33.9910   45.5550 C   0  0  0  0  0  0  0  0  0  0  0  0
   60.8730   34.1000   46.5330 C   0  0  0  0  0  0  0  0  0  0  0  0
   60.5610   33.8750   47.8760 C   0  0  0  0  0  0  0  0  0  0  0  0
   59.2580   33.5290   48.2410 C   0  0  0  0  0  0  0  0  0  0  0  0
   58.2610   33.4110   47.2660 C   0  0  0  0  0  0  0  0  0  0  0  0
   56.9980   33.0910   47.6500 F   0  0  0  0  0  0  0  0  0  0  0  0
   57.6388   28.7442   49.1437 H   0  0  0  0  0  0  0  0  0  0  0  0
   59.0724   30.6503   49.8805 H   0  0  0  0  0  0  0  0  0  0  0  0
   61.1100   31.2621   48.5737 H   0  0  0  0  0  0  0  0  0  0  0  0
   61.7251   29.9585   46.5359 H   0  0  0  0  0  0  0  0  0  0  0  0
   60.3061   28.0411   45.8040 H   0  0  0  0  0  0  0  0  0  0  0  0
   60.1338   34.1702   44.4993 H   0  0  0  0  0  0  0  0  0  0  0  0
   61.9014   34.3636   46.2452 H   0  0  0  0  0  0  0  0  0  0  0  0
   61.3411   33.9703   48.6456 H   0  0  0  0  0  0  0  0  0  0  0  0
   59.0146   33.3486   49.2985 H   0  0  0  0  0  0  0  0  0  0  0  0
  1  2  2  0
  2  3  1  0
  3  4  2  3
  4  5  1  0
  5  6  1  0
  6  7  2  0
  7  8  1  0
  8  9  2  0
  8 10  2  0
  8 11  1  0
 11 12  1  0
 12 13  2  0
 13 14  1  0
 14 15  2  0
 15 16  1  0
 16 17  2  0
  7 18  1  0
  2 19  1  0
 19 20  2  0
 20 21  1  0
 21 22  2  0
 22 23  1  0
 23 24  2  0
 24 25  1  0
 18  4  1  0
 24 19  1  0
 17 12  1  0
 13 26  1  0
 14 27  1  0
 15 28  1  0
 16 29  1  0
 17 30  1  0
 20 31  1  0
 21 32  1  0
 22 33  1  0
 23 34  1  0
M  CHG  2   5  -1  11  -1
M  END
>  <UniqueID>  (51) 
46

>  <SMILES>  (51) 
O=C(N=c1[n-]nc(S(=O)(=O)[N-]c2ccccc2)s1)c1ccccc1F

>  <Energy>  (51) 
81.35435468303389

>  <Genealogy>  (51) 
O=C(N=c1[n-]nc(S(=O)(=O)[N-]c2ccccc2)s1)c1ccccc1F (protonated)
O=C(N=c1[n-]nc(S(=O)(=O)[N-]c2ccccc2)s1)c1ccccc1F (3D coordinates assigned)
O=C(N=c1[n-]nc(S(=O)(=O)[N-]c2ccccc2)s1)c1ccccc1F (optimized conformer: 81.35435468303389 kcal/mol)

>  <smiles>  (51) 
O=C(N=c1[nH]nc(S(=O)(=O)Nc2ccccc2)s1)c1ccccc1F

>  <score_type>  (51) 
oracle

>  <origin>  (51) 
adg

>  <m_score__min__energy>  (51) 
-11.619999999999999

>  <m_primary>  (51) 
energy

$$$$
51:0
     RDKit          3D

 58 61  0  0  0  0  0  0  0  0999 V2000
   57.0100   34.2230   44.8770 C   0  0  0  0  0  0  0  0  0  0  0  0
   58.1430   33.9770   45.8180 C   0  0  0  0  0  0  0  0  0  0  0  0
   59.3230   33.9410   45.3760 O   0  0  0  0  0  0  0  0  0  0  0  0
   57.8870   33.8280   47.2210 N   0  0  0  0  0  0  0  0  0  0  0  0
   58.9490   33.5750   48.1920 C   0  0  0  0  0  0  0  0  0  0  0  0
   58.9440   32.0990   48.6200 C   0  0  0  0  0  0  0  0  0  0  0  0
   60.0180   31.3440   47.9340 N   0  0  0  0  0  0  0  0  0  0  0  0
   61.3770   31.9130   47.8940 C   0  0  0  0  0  0  0  0  0  0  0  0
   62.3820   31.5010   48.8110 C   0  0  0  0  0  0  0  0  0  0  0  0
   63.6700   32.0410   48.7740 C   0  0  0  0  0  0  0  0  0  0  0  0
   64.0000   33.0100   47.8320 C   0  0  0  0  0  0  0  0  0  0  0  0
   63.0400   33.4440   46.9220 C   0  0  0  0  0  0  0  0  0  0  0  0
   63.3610   34.3900   46.0060 F   0  0  0  0  0  0  0  0  0  0  0  0
   61.7480   32.9090   46.9490 C   0  0  0  0  0  0  0  0  0  0  0  0
   59.7350   30.0380   47.2620 C   0  0  1  0  0  0  0  0  0  0  0  0
   58.7360   29.1800   48.0850 C   0  0  0  0  0  0  0  0  0  0  0  0
   58.3930   27.8490   47.3710 C   0  0  0  0  0  0  0  0  0  0  0  0
   58.1190   28.0210   45.8430 C   0  0  1  0  0  0  0  0  0  0  0  0
   57.7420   26.6660   45.2240 C   0  0  0  0  0  0  0  0  0  0  0  0
   57.2710   25.5960   46.0190 C   0  0  0  0  0  0  0  0  0  0  0  0
   56.8980   24.3800   45.4390 C   0  0  0  0  0  0  0  0  0  0  0  0
   56.9650   24.2100   44.0560 C   0  0  0  0  0  0  0  0  0  0  0  0
   56.5780   22.9570   43.4610 C   0  0  0  0  0  0  0  0  0  0  0  0
   56.2670   21.9500   42.9830 N   0  0  0  0  0  0  0  0  0  0  0  0
   57.3950   25.2660   43.2480 C   0  0  0  0  0  0  0  0  0  0  0  0
   57.7700   26.4860   43.8190 C   0  0  0  0  0  0  0  0  0  0  0  0
   58.1430   27.4930   42.9900 F   0  0  0  0  0  0  0  0  0  0  0  0
   57.0400   29.0970   45.5980 C   0  0  0  0  0  0  0  0  0  0  0  0
   57.7880   30.4350   45.5620 C   0  0  0  0  0  0  0  0  0  0  0  0
   59.2820   30.0970   45.7590 C   0  0  2  0  0  0  0  0  0  0  0  0
   59.3520   28.6790   45.2060 C   0  0  0  0  0  0  0  0  0  0  0  0
   56.0931   34.4221   45.4512 H   0  0  0  0  0  0  0  0  0  0  0  0
   57.2417   35.0918   44.2433 H   0  0  0  0  0  0  0  0  0  0  0  0
   56.8606   33.3364   44.2433 H   0  0  0  0  0  0  0  0  0  0  0  0
   56.9100   33.9490   47.5720 H   0  0  0  0  0  0  0  0  0  0  0  0
   59.9209   33.8171   47.7373 H   0  0  0  0  0  0  0  0  0  0  0  0
   58.7789   34.2038   49.0784 H   0  0  0  0  0  0  0  0  0  0  0  0
   59.1002   32.0391   49.7072 H   0  0  0  0  0  0  0  0  0  0  0  0
   57.9747   31.6576   48.3452 H   0  0  0  0  0  0  0  0  0  0  0  0
   62.1401   30.7395   49.5671 H   0  0  0  0  0  0  0  0  0  0  0  0
   64.4276   31.6979   49.4940 H   0  0  0  0  0  0  0  0  0  0  0  0
   65.0156   33.4317   47.8063 H   0  0  0  0  0  0  0  0  0  0  0  0
   61.0025   33.2664   46.2234 H   0  0  0  0  0  0  0  0  0  0  0  0
   60.7254   29.5602   47.2320 H   0  0  0  0  0  0  0  0  0  0  0  0
   59.1841   28.9533   49.0637 H   0  0  0  0  0  0  0  0  0  0  0  0
   57.8055   29.7555   48.1986 H   0  0  0  0  0  0  0  0  0  0  0  0
   59.2380   27.1564   47.4985 H   0  0  0  0  0  0  0  0  0  0  0  0
   57.4690   27.4633   47.8265 H   0  0  0  0  0  0  0  0  0  0  0  0
   57.1970   25.7221   47.1092 H   0  0  0  0  0  0  0  0  0  0  0  0
   56.5501   23.5535   46.0760 H   0  0  0  0  0  0  0  0  0  0  0  0
   57.4387   25.1367   42.1565 H   0  0  0  0  0  0  0  0  0  0  0  0
   56.5297   28.9171   44.6403 H   0  0  0  0  0  0  0  0  0  0  0  0
   56.2689   29.0843   46.3823 H   0  0  0  0  0  0  0  0  0  0  0  0
   57.6338   30.9324   44.5931 H   0  0  0  0  0  0  0  0  0  0  0  0
   57.4248   31.1192   46.3430 H   0  0  0  0  0  0  0  0  0  0  0  0
   59.9231   30.8559   45.2868 H   0  0  0  0  0  0  0  0  0  0  0  0
   59.2836   28.6753   44.1081 H   0  0  0  0  0  0  0  0  0  0  0  0
   60.2958   28.1621   45.4343 H   0  0  0  0  0  0  0  0  0  0  0  0
  1  2  1  0
  2  3  2  0
  2  4  1  0
  4  5  1  0
  5  6  1  0
  6  7  1  0
  7  8  1  0
  8  9  2  0
  9 10  1  0
 10 11  2  0
 11 12  1  0
 12 13  1  0
 12 14  2  0
  7 15  1  0
 15 16  1  0
 16 17  1  0
 17 18  1  0
 18 19  1  6
 19 20  2  0
 20 21  1  0
 21 22  2  0
 22 23  1  0
 23 24  3  0
 22 25  1  0
 25 26  2  0
 26 27  1  0
 18 28  1  0
 28 29  1  0
 29 30  1  0
 30 31  1  0
 14  8  1  0
 30 15  1  0
 31 18  1  0
 26 19  1  0
  1 32  1  0
  1 33  1  0
  1 34  1  0
  4 35  1  0
  5 36  1  0
  5 37  1  0
  6 38  1  0
  6 39  1  0
  9 40  1  0
 10 41  1  0
 11 42  1  0
 14 43  1  0
 15 44  1  6
 16 45  1  0
 16 46  1  0
 17 47  1  0
 17 48  1  0
 20 49  1  0
 21 50  1  0
 25 51  1  0
 28 52  1  0
 28 53  1  0
 29 54  1  0
 29 55  1  0
 30 56  1  6
 31 57  1  0
 31 58  1  0
M  END
>  <UniqueID>  (52) 
47

>  <SMILES>  (52) 
CC(=O)NCCN(c1cccc(F)c1)[C@H]1CC[C@@]2(c3ccc(C#N)cc3F)CCC1C2

>  <Energy>  (52) 
82.15417228522027

>  <Genealogy>  (52) 
CC(=O)NCCN(c1cccc(F)c1)[C@H]1CC[C@@]2(c3ccc(C#N)cc3F)CCC1C2 (chirality)
CC(=O)NCCN(c1cccc(F)c1)[C@H]1CC[C@@]2(c3ccc(C#N)cc3F)CCC1C2 (3D coordinates assigned)
CC(=O)NCCN(c1cccc(F)c1)[C@H]1CC[C@@]2(c3ccc(C#N)cc3F)CCC1C2 (nonaromatic ring conformer: 82.15417228522027 kcal/mol)

>  <smiles>  (52) 
CC(=O)NCCN(c1cccc(F)c1)C1CCC2(c3ccc(C#N)cc3F)CCC1C2

>  <score_type>  (52) 
oracle

>  <origin>  (52) 
adg

>  <m_score__min__energy>  (52) 
-8.9600000000000009

>  <m_primary>  (52) 
energy

$$$$
52:0
     RDKit          3D

 23 24  0  0  0  0  0  0  0  0999 V2000
   57.6680   28.2230   44.4520 C   0  0  0  0  0  0  0  0  0  0  0  0
   58.2150   29.4900   44.9720 N   0  0  0  0  0  0  0  0  0  0  0  0
   59.4770   29.5290   45.5290 C   0  0  0  0  0  0  0  0  0  0  0  0
   60.3700   28.3190   45.6000 C   0  0  0  0  0  0  0  0  0  0  0  0
   60.0020   27.3800   47.0690 Cl  0  0  0  0  0  0  0  0  0  0  0  0
   59.9760   30.7010   46.0020 N   0  0  0  0  0  0  0  0  0  0  0  0
   59.2580   31.8470   45.9770 C   0  0  0  0  0  0  0  0  0  0  0  0
   59.8110   33.0310   46.4790 C   0  0  0  0  0  0  0  0  0  0  0  0
   59.0650   34.2130   46.4610 C   0  0  0  0  0  0  0  0  0  0  0  0
   57.7670   34.2160   45.9440 C   0  0  0  0  0  0  0  0  0  0  0  0
   57.2090   33.0350   45.4410 C   0  0  0  0  0  0  0  0  0  0  0  0
   57.9550   31.8410   45.4530 C   0  0  0  0  0  0  0  0  0  0  0  0
   57.4430   30.6290   44.9560 C   0  0  0  0  0  0  0  0  0  0  0  0
   56.2670   30.5970   44.4960 O   0  0  0  0  0  0  0  0  0  0  0  0
   57.3871   27.5723   45.2932 H   0  0  0  0  0  0  0  0  0  0  0  0
   56.7799   28.4318   43.8375 H   0  0  0  0  0  0  0  0  0  0  0  0
   58.4290   27.7199   43.8375 H   0  0  0  0  0  0  0  0  0  0  0  0
   60.2030   27.6897   44.7134 H   0  0  0  0  0  0  0  0  0  0  0  0
   61.4201   28.6449   45.6318 H   0  0  0  0  0  0  0  0  0  0  0  0
   60.8323   33.0312   46.8875 H   0  0  0  0  0  0  0  0  0  0  0  0
   59.5009   35.1430   46.8548 H   0  0  0  0  0  0  0  0  0  0  0  0
   57.1827   35.1479   45.9322 H   0  0  0  0  0  0  0  0  0  0  0  0
   56.1864   33.0397   45.0358 H   0  0  0  0  0  0  0  0  0  0  0  0
  1  2  1  0
  2  3  1  0
  3  4  1  0
  4  5  1  0
  3  6  2  0
  6  7  1  0
  7  8  2  0
  8  9  1  0
  9 10  2  0
 10 11  1  0
 11 12  2  0
 12 13  1  0
 13 14  2  0
 13  2  1  0
 12  7  1  0
  1 15  1  0
  1 16  1  0
  1 17  1  0
  4 18  1  0
  4 19  1  0
  8 20  1  0
  9 21  1  0
 10 22  1  0
 11 23  1  0
M  END
>  <UniqueID>  (53) 
48

>  <SMILES>  (53) 
Cn1c(CCl)nc2ccccc2c1=O

>  <Energy>  (53) 
31.42295169335711

>  <Genealogy>  (53) 
Cn1c(CCl)nc2ccccc2c1=O (3D coordinates assigned)
Cn1c(CCl)nc2ccccc2c1=O (optimized conformer: 31.42295169335711 kcal/mol)

>  <smiles>  (53) 
Cn1c(CCl)nc2ccccc2c1=O

>  <score_type>  (53) 
oracle

>  <origin>  (53) 
adg

>  <m_score__min__energy>  (53) 
-5.5

>  <m_primary>  (53) 
energy

$$$$
53:0
     RDKit          3D

 50 53  0  0  0  0  0  0  0  0999 V2000
   58.9840   30.4640   47.9090 C   0  0  0  0  0  0  0  0  0  0  0  0
   58.1970   31.5480   47.4300 O   0  0  0  0  0  0  0  0  0  0  0  0
   58.7010   32.8210   47.1150 C   0  0  0  0  0  0  0  0  0  0  0  0
   59.5320   33.5370   48.0000 C   0  0  0  0  0  0  0  0  0  0  0  0
   60.0300   34.7920   47.6380 C   0  0  0  0  0  0  0  0  0  0  0  0
   59.7090   35.3420   46.3950 C   0  0  0  0  0  0  0  0  0  0  0  0
   58.8860   34.6410   45.5110 C   0  0  0  0  0  0  0  0  0  0  0  0
   58.3800   33.3810   45.8650 C   0  0  0  0  0  0  0  0  0  0  0  0
   57.5250   32.6640   44.9670 N   0  0  0  0  0  0  0  0  0  0  0  0
   57.9080   32.3890   43.6110 C   0  0  0  0  0  0  0  0  0  0  0  0
   58.7760   33.0980   43.0330 O   0  0  0  0  0  0  0  0  0  0  0  0
   57.3310   31.2010   42.9020 C   0  0  0  0  0  0  0  0  0  0  0  0
   57.0540   30.1390   43.8710 N   0  0  0  0  0  0  0  0  0  0  0  0
   55.8430   29.6190   44.1980 C   0  0  0  0  0  0  0  0  0  0  0  0
   54.7480   30.0900   43.7910 O   0  0  0  0  0  0  0  0  0  0  0  0
   55.9280   28.5480   44.9680 O   0  0  0  0  0  0  0  0  0  0  0  0
   57.2120   28.3460   45.1480 C   0  0  0  0  0  0  0  0  0  0  0  0
   57.8360   27.3250   45.8580 C   0  0  0  0  0  0  0  0  0  0  0  0
   59.2460   27.3060   45.8790 C   0  0  0  0  0  0  0  0  0  0  0  0
   60.0780   26.0180   46.7430 S   0  0  0  0  0  0  0  0  0  0  0  0
   61.5370   25.9780   46.3810 O   0  0  0  0  0  0  0  0  0  0  0  0
   59.9610   26.2700   48.2190 O   0  0  0  0  0  0  0  0  0  0  0  0
   59.3440   24.4920   46.3670 N   0  0  0  0  0  0  0  0  0  0  0  0
   57.9950   24.3070   45.9160 C   0  0  0  0  0  0  0  0  0  0  0  0
   56.8980   24.3290   46.7970 C   0  0  0  0  0  0  0  0  0  0  0  0
   55.6000   24.1410   46.3090 C   0  0  0  0  0  0  0  0  0  0  0  0
   55.3870   23.9310   44.9450 C   0  0  0  0  0  0  0  0  0  0  0  0
   56.4730   23.9020   44.0650 C   0  0  0  0  0  0  0  0  0  0  0  0
   57.7700   24.0920   44.5490 C   0  0  0  0  0  0  0  0  0  0  0  0
   59.9790   28.3080   45.1940 C   0  0  0  0  0  0  0  0  0  0  0  0
   59.3150   29.3220   44.4800 C   0  0  0  0  0  0  0  0  0  0  0  0
   57.9200   29.3090   44.4840 C   0  0  0  0  0  0  0  0  0  0  0  0
   58.9817   30.4672   49.0090 H   0  0  0  0  0  0  0  0  0  0  0  0
   58.5626   29.5157   47.5442 H   0  0  0  0  0  0  0  0  0  0  0  0
   60.0162   30.5710   47.5442 H   0  0  0  0  0  0  0  0  0  0  0  0
   59.7896   33.1067   48.9790 H   0  0  0  0  0  0  0  0  0  0  0  0
   60.6761   35.3476   48.3336 H   0  0  0  0  0  0  0  0  0  0  0  0
   60.1049   36.3285   46.1120 H   0  0  0  0  0  0  0  0  0  0  0  0
   58.6335   35.0781   44.5337 H   0  0  0  0  0  0  0  0  0  0  0  0
   56.7550   32.0950   45.3840 H   0  0  0  0  0  0  0  0  0  0  0  0
   56.3963   31.4921   42.4004 H   0  0  0  0  0  0  0  0  0  0  0  0
   58.0509   30.8357   42.1548 H   0  0  0  0  0  0  0  0  0  0  0  0
   57.2492   26.5584   46.3852 H   0  0  0  0  0  0  0  0  0  0  0  0
   57.0612   24.4944   47.8722 H   0  0  0  0  0  0  0  0  0  0  0  0
   54.7455   24.1587   47.0015 H   0  0  0  0  0  0  0  0  0  0  0  0
   54.3653   23.7885   44.5631 H   0  0  0  0  0  0  0  0  0  0  0  0
   56.3064   23.7296   42.9914 H   0  0  0  0  0  0  0  0  0  0  0  0
   58.6209   24.0727   43.8522 H   0  0  0  0  0  0  0  0  0  0  0  0
   61.0786   28.2923   45.2212 H   0  0  0  0  0  0  0  0  0  0  0  0
   59.8758   30.0976   43.9378 H   0  0  0  0  0  0  0  0  0  0  0  0
  1  2  1  0
  2  3  1  0
  3  4  2  0
  4  5  1  0
  5  6  2  0
  6  7  1  0
  7  8  2  0
  8  9  1  0
  9 10  1  0
 10 11  2  0
 10 12  1  0
 12 13  1  0
 13 14  1  0
 14 15  2  0
 14 16  1  0
 16 17  1  0
 17 18  2  0
 18 19  1  0
 19 20  1  0
 20 21  2  0
 20 22  2  0
 20 23  1  0
 23 24  1  0
 24 25  2  0
 25 26  1  0
 26 27  2  0
 27 28  1  0
 28 29  2  0
 19 30  2  0
 30 31  1  0
 31 32  2  0
  8  3  1  0
 32 13  1  0
 32 17  1  0
 29 24  1  0
  1 33  1  0
  1 34  1  0
  1 35  1  0
  4 36  1  0
  5 37  1  0
  6 38  1  0
  7 39  1  0
  9 40  1  0
 12 41  1  0
 12 42  1  0
 18 43  1  0
 25 44  1  0
 26 45  1  0
 27 46  1  0
 28 47  1  0
 29 48  1  0
 30 49  1  0
 31 50  1  0
M  CHG  1  23  -1
M  END
>  <UniqueID>  (54) 
49

>  <SMILES>  (54) 
COc1ccccc1NC(=O)Cn1c(=O)oc2cc(S(=O)(=O)[N-]c3ccccc3)ccc21

>  <Energy>  (54) 
98.36139589962956

>  <Genealogy>  (54) 
COc1ccccc1NC(=O)Cn1c(=O)oc2cc(S(=O)(=O)[N-]c3ccccc3)ccc21 (protonated)
COc1ccccc1NC(=O)Cn1c(=O)oc2cc(S(=O)(=O)[N-]c3ccccc3)ccc21 (3D coordinates assigned)
COc1ccccc1NC(=O)Cn1c(=O)oc2cc(S(=O)(=O)[N-]c3ccccc3)ccc21 (optimized conformer: 98.36139589962956 kcal/mol)

>  <smiles>  (54) 
COc1ccccc1NC(=O)Cn1c(=O)oc2cc(S(=O)(=O)Nc3ccccc3)ccc21

>  <score_type>  (54) 
oracle

>  <origin>  (54) 
adg

>  <m_score__min__energy>  (54) 
-9.9800000000000004

>  <m_primary>  (54) 
energy

$$$$
54:0
     RDKit          3D

 36 38  0  0  1  0  0  0  0  0999 V2000
   60.7790   32.7740   49.4110 C   0  0  0  0  0  0  0  0  0  0  0  0
   59.3270   32.3140   49.4810 C   0  0  0  0  0  0  0  0  0  0  0  0
   59.3750   30.7920   49.3340 C   0  0  0  0  0  0  0  0  0  0  0  0
   58.5390   32.8850   48.5320 O   0  0  0  0  0  0  0  0  0  0  0  0
   58.6890   33.1780   47.2300 C   0  0  0  0  0  0  0  0  0  0  0  0
   59.0830   34.4950   46.9180 C   0  0  0  0  0  0  0  0  0  0  0  0
   59.2710   34.9140   45.6250 C   0  0  0  0  0  0  0  0  0  0  0  0
   59.6540   36.2040   45.3720 F   0  0  0  0  0  0  0  0  0  0  0  0
   59.0820   34.0680   44.5550 C   0  0  0  0  0  0  0  0  0  0  0  0
   58.6990   32.7810   44.8310 C   0  0  0  0  0  0  0  0  0  0  0  0
   58.5080   32.3540   46.1470 C   0  0  0  0  0  0  0  0  0  0  0  0
   58.1120   31.0000   46.3010 N   0  0  0  0  0  0  0  0  0  0  0  0
   57.4700   30.4300   45.3150 C   0  0  0  0  0  0  0  0  0  0  0  0
   56.3480   31.0050   44.8460 N   0  0  0  0  0  0  0  0  0  0  0  0
   55.6380   30.4730   43.8330 C   0  0  0  0  0  0  0  0  0  0  0  0
   56.0330   29.3340   43.2530 N   0  0  0  0  0  0  0  0  0  0  0  0
   57.1430   28.7420   43.6990 C   0  0  0  0  0  0  0  0  0  0  0  0
   57.7670   27.6100   43.3120 N   0  0  0  0  0  0  0  0  0  0  0  0
   58.8720   27.4040   44.0630 C   0  0  0  0  0  0  0  0  0  0  0  0
   58.9760   28.4480   44.9830 C   0  0  0  0  0  0  0  0  0  0  0  0
   60.1990   28.6820   46.1810 Cl  0  0  0  0  0  0  0  0  0  0  0  0
   57.9100   29.2530   44.7420 C   0  0  0  0  0  0  0  0  0  0  0  0
   61.1736   32.8990   50.4302 H   0  0  0  0  0  0  0  0  0  0  0  0
   61.3767   32.0212   48.8762 H   0  0  0  0  0  0  0  0  0  0  0  0
   60.8342   33.7336   48.8762 H   0  0  0  0  0  0  0  0  0  0  0  0
   58.8696   32.6233   50.4324 H   0  0  0  0  0  0  0  0  0  0  0  0
   59.3896   30.3276   50.3311 H   0  0  0  0  0  0  0  0  0  0  0  0
   58.4872   30.4487   48.7826 H   0  0  0  0  0  0  0  0  0  0  0  0
   60.2826   30.5053   48.7826 H   0  0  0  0  0  0  0  0  0  0  0  0
   59.2450   35.2102   47.7379 H   0  0  0  0  0  0  0  0  0  0  0  0
   59.2323   34.4110   43.5207 H   0  0  0  0  0  0  0  0  0  0  0  0
   58.5397   32.0739   44.0035 H   0  0  0  0  0  0  0  0  0  0  0  0
   54.7270   30.9784   43.4800 H   0  0  0  0  0  0  0  0  0  0  0  0
   55.4560   28.9550   42.4730 H   0  0  0  0  0  0  0  0  0  0  0  0
   57.4210   26.9900   42.5330 H   0  0  0  0  0  0  0  0  0  0  0  0
   59.5692   26.5588   43.9656 H   0  0  0  0  0  0  0  0  0  0  0  0
  1  2  1  0
  2  3  1  0
  2  4  1  0
  4  5  1  0
  5  6  2  0
  6  7  1  0
  7  8  1  0
  7  9  2  0
  9 10  1  0
 10 11  2  0
 11 12  1  0
 12 13  2  0
 13 14  1  0
 14 15  2  0
 15 16  1  0
 16 17  1  0
 17 18  1  0
 18 19  1  0
 19 20  2  0
 20 21  1  0
 20 22  1  0
 11  5  1  0
 22 13  1  0
 22 17  2  0
  1 23  1  0
  1 24  1  0
  1 25  1  0
  2 26  1  0
  3 27  1  0
  3 28  1  0
  3 29  1  0
  6 30  1  0
  9 31  1  0
 10 32  1  0
 15 33  1  0
 16 34  1  0
 18 35  1  0
 19 36  1  0
M  END
>  <smiles>  (55) 
CC(C)Oc1cc(F)ccc1N=c1nc[nH]c2[nH]cc(Cl)c12

>  <score_type>  (55) 
oracle

>  <origin>  (55) 
adg

>  <m_score__min__energy>  (55) 
-7.2199999999999998

>  <m_primary>  (55) 
energy

$$$$
55:0
     RDKit          3D

 44 46  0  0  0  0  0  0  0  0999 V2000
   55.1640   26.7160   46.0010 N   0  0  0  0  0  0  0  0  0  0  0  0
   56.2640   25.9250   46.4460 C   0  0  0  0  0  0  0  0  0  0  0  0
   56.0490   24.7530   46.8580 O   0  0  0  0  0  0  0  0  0  0  0  0
   57.6440   26.4670   46.3950 C   0  0  0  0  0  0  0  0  0  0  0  0
   58.6490   25.8490   47.1630 C   0  0  0  0  0  0  0  0  0  0  0  0
   59.9430   26.3740   47.2000 C   0  0  0  0  0  0  0  0  0  0  0  0
   60.2530   27.5240   46.4750 C   0  0  0  0  0  0  0  0  0  0  0  0
   59.2750   28.1420   45.6960 C   0  0  0  0  0  0  0  0  0  0  0  0
   57.9790   27.6140   45.6270 C   0  0  0  0  0  0  0  0  0  0  0  0
   57.0270   28.2520   44.7610 N   0  0  0  0  0  0  0  0  0  0  0  0
   57.1430   29.6180   44.3160 C   0  0  0  0  0  0  0  0  0  0  0  0
   57.0370   29.9630   42.9570 C   0  0  0  0  0  0  0  0  0  0  0  0
   57.1670   31.2950   42.5560 C   0  0  0  0  0  0  0  0  0  0  0  0
   57.3990   32.2950   43.5040 C   0  0  0  0  0  0  0  0  0  0  0  0
   57.4930   31.9680   44.8670 C   0  0  0  0  0  0  0  0  0  0  0  0
   57.7570   32.9590   45.8710 N   0  0  0  0  0  0  0  0  0  0  0  0
   58.7400   34.0020   45.8060 C   0  0  0  0  0  0  0  0  0  0  0  0
   58.5430   35.0120   45.0770 O   0  0  0  0  0  0  0  0  0  0  0  0
   59.9630   33.9210   46.6380 C   0  0  0  0  0  0  0  0  0  0  0  0
   59.8750   33.9210   48.0410 C   0  0  0  0  0  0  0  0  0  0  0  0
   61.0290   33.8450   48.8260 C   0  0  0  0  0  0  0  0  0  0  0  0
   62.3000   33.7760   48.2280 C   0  0  0  0  0  0  0  0  0  0  0  0
   63.5140   33.6930   49.0760 C   0  0  0  0  0  0  0  0  0  0  0  0
   64.7120   33.0650   48.6100 N   0  0  0  0  0  0  0  0  0  0  0  0
   63.5020   34.1950   50.2320 O   0  0  0  0  0  0  0  0  0  0  0  0
   62.3870   33.7660   46.8250 C   0  0  0  0  0  0  0  0  0  0  0  0
   61.2340   33.8400   46.0390 C   0  0  0  0  0  0  0  0  0  0  0  0
   57.3870   30.6280   45.2600 C   0  0  0  0  0  0  0  0  0  0  0  0
   55.1450   27.1150   45.0370 H   0  0  0  0  0  0  0  0  0  0  0  0
   58.4128   24.9429   47.7402 H   0  0  0  0  0  0  0  0  0  0  0  0
   60.7190   25.8791   47.8024 H   0  0  0  0  0  0  0  0  0  0  0  0
   61.2689   27.9438   46.5174 H   0  0  0  0  0  0  0  0  0  0  0  0
   59.5234   29.0523   45.1306 H   0  0  0  0  0  0  0  0  0  0  0  0
   56.1400   27.7380   44.5600 H   0  0  0  0  0  0  0  0  0  0  0  0
   56.8509   29.1808   42.2063 H   0  0  0  0  0  0  0  0  0  0  0  0
   57.0865   31.5573   41.4908 H   0  0  0  0  0  0  0  0  0  0  0  0
   57.5083   33.3412   43.1821 H   0  0  0  0  0  0  0  0  0  0  0  0
   58.8892   33.9813   48.5254 H   0  0  0  0  0  0  0  0  0  0  0  0
   60.9422   33.8391   49.9226 H   0  0  0  0  0  0  0  0  0  0  0  0
   65.5310   32.9690   49.2490 H   0  0  0  0  0  0  0  0  0  0  0  0
   64.8290   32.7760   47.6140 H   0  0  0  0  0  0  0  0  0  0  0  0
   63.3726   33.6993   46.3410 H   0  0  0  0  0  0  0  0  0  0  0  0
   61.3205   33.8349   44.9424 H   0  0  0  0  0  0  0  0  0  0  0  0
   57.4963   30.3635   46.3221 H   0  0  0  0  0  0  0  0  0  0  0  0
  1  2  1  0
  2  3  2  0
  2  4  1  0
  4  5  2  0
  5  6  1  0
  6  7  2  0
  7  8  1  0
  8  9  2  0
  9 10  1  0
 10 11  1  0
 11 12  2  0
 12 13  1  0
 13 14  2  0
 14 15  1  0
 15 16  1  0
 16 17  1  0
 17 18  2  0
 17 19  1  0
 19 20  2  0
 20 21  1  0
 21 22  2  0
 22 23  1  0
 23 24  1  0
 23 25  2  0
 22 26  1  0
 26 27  2  0
 15 28  2  0
  9  4  1  0
 28 11  1  0
 27 19  1  0
  1 29  1  0
  5 30  1  0
  6 31  1  0
  7 32  1  0
  8 33  1  0
 10 34  1  0
 12 35  1  0
 13 36  1  0
 14 37  1  0
 20 38  1  0
 21 39  1  0
 24 40  1  0
 24 41  1  0
 26 42  1  0
 27 43  1  0
 28 44  1  0
M  CHG  2   1  -1  16  -1
M  END
>  <UniqueID>  (56) 
50

>  <SMILES>  (56) 
[NH-]C(=O)c1ccccc1Nc1cccc([N-]C(=O)c2ccc(C(N)=O)cc2)c1

>  <Energy>  (56) 
62.357495885350794

>  <Genealogy>  (56) 
[NH-]C(=O)c1ccccc1Nc1cccc([N-]C(=O)c2ccc(C(N)=O)cc2)c1 (protonated)
[NH-]C(=O)c1ccccc1Nc1cccc([N-]C(=O)c2ccc(C(N)=O)cc2)c1 (3D coordinates assigned)
[NH-]C(=O)c1ccccc1Nc1cccc([N-]C(=O)c2ccc(C(N)=O)cc2)c1 (optimized conformer: 62.357495885350794 kcal/mol)

>  <smiles>  (56) 
NC(=O)c1ccc(C(=O)Nc2cccc(Nc3ccccc3C(N)=O)c2)cc1

>  <score_type>  (56) 
oracle

>  <origin>  (56) 
adg

>  <m_score__min__energy>  (56) 
-13.960000000000001

>  <m_primary>  (56) 
energy

$$$$
56:0
     RDKit          3D

 44 46  0  0  0  0  0  0  0  0999 V2000
   56.6869   32.4355   42.7620 H   0  0  0  0  0  0  0  0  0  0  0  0
   57.4190   32.0410   43.4820 C   0  0  0  0  0  0  0  0  0  0  0  0
   57.1590   30.7300   44.1090 C   0  0  0  0  0  0  0  0  0  0  0  0
   56.0900   30.5780   44.7610 O   0  0  0  0  0  0  0  0  0  0  0  0
   58.0600   29.6230   43.9400 N   0  0  0  0  0  0  0  0  0  0  0  0
   58.6390   29.5880   43.0700 H   0  0  0  0  0  0  0  0  0  0  0  0
   58.0950   28.4830   44.8150 C   0  0  0  0  0  0  0  0  0  0  0  0
   59.3230   28.0430   45.3240 C   0  0  0  0  0  0  0  0  0  0  0  0
   60.2505   28.5550   45.0281 H   0  0  0  0  0  0  0  0  0  0  0  0
   59.3810   26.9600   46.2040 C   0  0  0  0  0  0  0  0  0  0  0  0
   60.3537   26.6225   46.5913 H   0  0  0  0  0  0  0  0  0  0  0  0
   58.2030   26.2970   46.5990 C   0  0  0  0  0  0  0  0  0  0  0  0
   58.2280   25.2470   47.5330 O   0  0  0  0  0  0  0  0  0  0  0  0
   57.4040   24.0870   47.4700 C   0  0  0  0  0  0  0  0  0  0  0  0
   57.1653   23.7510   48.4899 H   0  0  0  0  0  0  0  0  0  0  0  0
   56.4729   24.3272   46.9357 H   0  0  0  0  0  0  0  0  0  0  0  0
   57.9374   23.2869   46.9357 H   0  0  0  0  0  0  0  0  0  0  0  0
   56.9660   26.7220   46.0710 C   0  0  0  0  0  0  0  0  0  0  0  0
   55.7310   26.0960   46.4440 N   0  0  0  0  0  0  0  0  0  0  0  0
   54.9760   25.1980   45.6200 C   0  0  0  0  0  0  0  0  0  0  0  0
   53.7170   25.2620   45.5900 O   0  0  0  0  0  0  0  0  0  0  0  0
   55.6650   24.1640   44.8410 C   0  0  0  0  0  0  0  0  0  0  0  0
   55.4390   22.8770   44.9690 O   0  0  0  0  0  0  0  0  0  0  0  0
   56.2150   22.2300   44.1300 C   0  0  0  0  0  0  0  0  0  0  0  0
   56.2468   21.1369   44.0109 H   0  0  0  0  0  0  0  0  0  0  0  0
   56.9850   23.1300   43.4200 C   0  0  0  0  0  0  0  0  0  0  0  0
   57.7302   22.8959   42.6455 H   0  0  0  0  0  0  0  0  0  0  0  0
   56.6310   24.3810   43.8780 C   0  0  0  0  0  0  0  0  0  0  0  0
   57.0336   25.3494   43.5460 H   0  0  0  0  0  0  0  0  0  0  0  0
   56.9170   27.8300   45.2160 C   0  0  0  0  0  0  0  0  0  0  0  0
   55.9442   28.1938   44.8537 H   0  0  0  0  0  0  0  0  0  0  0  0
   58.5110   32.7710   43.7540 C   0  0  0  0  0  0  0  0  0  0  0  0
   59.2308   32.9531   42.9424 H   0  0  0  0  0  0  0  0  0  0  0  0
   58.8000   33.3460   45.0910 C   0  0  0  0  0  0  0  0  0  0  0  0
   59.2710   34.6670   45.1680 C   0  0  0  0  0  0  0  0  0  0  0  0
   59.4240   35.2462   44.2454 H   0  0  0  0  0  0  0  0  0  0  0  0
   59.5470   35.2520   46.4080 C   0  0  0  0  0  0  0  0  0  0  0  0
   59.9246   36.2840   46.4564 H   0  0  0  0  0  0  0  0  0  0  0  0
   59.3440   34.5280   47.5850 C   0  0  0  0  0  0  0  0  0  0  0  0
   59.5662   34.9882   48.5591 H   0  0  0  0  0  0  0  0  0  0  0  0
   58.8590   33.2200   47.5250 C   0  0  0  0  0  0  0  0  0  0  0  0
   58.5850   32.3190   49.0060 Cl  0  0  0  0  0  0  0  0  0  0  0  0
   58.5830   32.6290   46.2860 C   0  0  0  0  0  0  0  0  0  0  0  0
   58.1951   31.6005   46.2445 H   0  0  0  0  0  0  0  0  0  0  0  0
  1  2  1  0
  2  3  1  0
  3  4  2  0
  3  5  1  0
  5  6  1  0
  5  7  1  0
  7  8  2  0
  8  9  1  0
  8 10  1  0
 10 11  1  0
 10 12  2  0
 12 13  1  0
 13 14  1  0
 14 15  1  0
 14 16  1  0
 14 17  1  0
 12 18  1  0
 18 19  1  0
 19 20  1  0
 20 21  2  0
 20 22  1  0
 22 23  1  0
 23 24  1  0
 24 25  1  0
 24 26  2  0
 26 27  1  0
 26 28  1  0
 28 29  1  0
 18 30  2  0
 30 31  1  0
  2 32  2  0
 32 33  1  0
 32 34  1  0
 34 35  2  0
 35 36  1  0
 35 37  1  0
 37 38  1  0
 37 39  2  0
 39 40  1  0
 39 41  1  0
 41 42  1  0
 41 43  2  0
 43 44  1  0
 30  7  1  0
 43 34  1  0
 28 22  2  0
M  CHG  1  19  -1
M  END
>  <UniqueID>  (57) 
51

>  <SMILES>  (57) 
COc1ccc(NC(=O)/C=C/c2cccc(Cl)c2)cc1[N-]C(=O)c1ccco1

>  <Energy>  (57) 
82.04933893458778

>  <Genealogy>  (57) 
COc1ccc(NC(=O)C=Cc2cccc(Cl)c2)cc1[N-]C(=O)c1ccco1 (protonated)
COc1ccc(NC(=O)/C=C/c2cccc(Cl)c2)cc1[N-]C(=O)c1ccco1 (cis-trans isomerization)
COc1ccc(NC(=O)/C=C/c2cccc(Cl)c2)cc1[N-]C(=O)c1ccco1 (3D coordinates assigned)
COc1ccc(NC(=O)/C=C/c2cccc(Cl)c2)cc1[N-]C(=O)c1ccco1 (optimized conformer: 82.04933893458778 kcal/mol)

>  <smiles>  (57) 
COc1ccc(NC(=O)C=Cc2cccc(Cl)c2)cc1NC(=O)c1ccco1

>  <score_type>  (57) 
oracle

>  <origin>  (57) 
adg

>  <m_score__min__energy>  (57) 
-11.49

>  <m_primary>  (57) 
energy

$$$$
57:0
     RDKit          3D

 49 53  0  0  1  0  0  0  0  0999 V2000
   57.7570   32.9250   44.0040 C   0  0  0  0  0  0  0  0  0  0  0  0
   57.5790   31.4790   44.2890 C   0  0  0  0  0  0  0  0  0  0  0  0
   57.2720   30.6400   43.2750 C   0  0  0  0  0  0  0  0  0  0  0  0
   57.1090   29.2990   43.5320 C   0  0  0  0  0  0  0  0  0  0  0  0
   57.2550   28.7780   44.8150 C   0  0  0  0  0  0  0  0  0  0  0  0
   57.0880   27.3190   45.0350 C   0  0  0  0  0  0  0  0  0  0  0  0
   56.3000   26.9880   45.9840 O   0  0  0  0  0  0  0  0  0  0  0  0
   57.7730   26.3960   44.2290 N   0  0  0  0  0  0  0  0  0  0  0  0
   57.6650   24.9630   44.3720 C   0  0  0  0  0  0  0  0  0  0  0  0
   58.3080   24.3480   45.4140 C   0  0  0  0  0  0  0  0  0  0  0  0
   58.2030   22.9650   45.5780 C   0  0  0  0  0  0  0  0  0  0  0  0
   57.4270   22.3070   44.6390 C   0  0  0  0  0  0  0  0  0  0  0  0
   56.7880   22.9330   43.6020 C   0  0  0  0  0  0  0  0  0  0  0  0
   56.8900   24.3160   43.4340 C   0  0  0  0  0  0  0  0  0  0  0  0
   57.5680   29.6250   45.8560 C   0  0  0  0  0  0  0  0  0  0  0  0
   57.7450   31.0170   45.6430 C   0  0  0  0  0  0  0  0  0  0  0  0
   58.1730   31.8550   46.5250 N   0  0  0  0  0  0  0  0  0  0  0  0
   58.9560   32.6790   46.8730 C   0  0  0  0  0  0  0  0  0  0  0  0
   58.5230   33.9810   46.9320 N   0  0  0  0  0  0  0  0  0  0  0  0
   59.3440   35.0110   47.1780 C   0  0  0  0  0  0  0  0  0  0  0  0
   60.6160   34.7290   47.3680 N   0  0  0  0  0  0  0  0  0  0  0  0
   61.0620   33.4500   47.3180 C   0  0  0  0  0  0  0  0  0  0  0  0
   62.7230   32.9290   47.5040 S   0  0  0  0  0  0  0  0  0  0  0  0
   62.3490   31.2430   47.2630 C   0  0  0  0  0  0  0  0  0  0  0  0
   60.8890   31.1560   47.0430 C   0  0  0  0  0  0  0  0  0  0  0  0
   60.5440   29.7250   46.9020 C   0  0  0  0  0  0  0  0  0  0  0  0
   60.2330   28.7550   47.7320 C   0  0  0  0  0  0  0  0  0  0  0  0
   60.1320   27.4760   47.3280 C   0  0  0  0  0  0  0  0  0  0  0  0
   60.3750   27.2340   45.9970 C   0  0  0  0  0  0  0  0  0  0  0  0
   60.7650   28.9280   45.3010 S   0  0  0  0  0  0  0  0  0  0  0  0
   60.3000   32.3320   47.0770 C   0  0  0  0  0  0  0  0  0  0  0  0
   57.8253   33.4798   44.9514 H   0  0  0  0  0  0  0  0  0  0  0  0
   58.6802   33.0736   43.4247 H   0  0  0  0  0  0  0  0  0  0  0  0
   56.8974   33.2931   43.4247 H   0  0  0  0  0  0  0  0  0  0  0  0
   57.1534   31.0268   42.2521 H   0  0  0  0  0  0  0  0  0  0  0  0
   56.8570   28.6209   42.7033 H   0  0  0  0  0  0  0  0  0  0  0  0
   58.4390   26.6740   43.4470 H   0  0  0  0  0  0  0  0  0  0  0  0
   58.9060   24.9426   46.1203 H   0  0  0  0  0  0  0  0  0  0  0  0
   58.7044   22.4330   46.4000 H   0  0  0  0  0  0  0  0  0  0  0  0
   57.3172   21.2164   44.7314 H   0  0  0  0  0  0  0  0  0  0  0  0
   56.1887   22.3411   42.8946 H   0  0  0  0  0  0  0  0  0  0  0  0
   56.3885   24.8495   42.6131 H   0  0  0  0  0  0  0  0  0  0  0  0
   57.6827   29.2149   46.8702 H   0  0  0  0  0  0  0  0  0  0  0  0
   57.5150   34.2290   46.7880 H   0  0  0  0  0  0  0  0  0  0  0  0
   58.9721   36.0454   47.2193 H   0  0  0  0  0  0  0  0  0  0  0  0
   63.0618   30.4053   47.2727 H   0  0  0  0  0  0  0  0  0  0  0  0
   60.0497   28.9963   48.7894 H   0  0  0  0  0  0  0  0  0  0  0  0
   59.8690   26.6671   48.0255 H   0  0  0  0  0  0  0  0  0  0  0  0
   60.3470   26.2713   45.4655 H   0  0  0  0  0  0  0  0  0  0  0  0
  1  2  1  0
  2  3  2  0
  3  4  1  0
  4  5  2  0
  5  6  1  0
  6  7  2  0
  6  8  1  0
  8  9  1  0
  9 10  2  0
 10 11  1  0
 11 12  2  0
 12 13  1  0
 13 14  2  0
  5 15  1  0
 15 16  2  0
 16 17  1  0
 17 18  2  0
 18 19  1  0
 19 20  1  0
 20 21  2  0
 21 22  1  0
 22 23  1  0
 23 24  1  0
 24 25  2  0
 25 26  1  0
 26 27  2  0
 27 28  1  0
 28 29  2  0
 29 30  1  0
 25 31  1  0
 16  2  1  0
 31 18  1  0
 14  9  1  0
 31 22  2  0
 30 26  1  0
  1 32  1  0
  1 33  1  0
  1 34  1  0
  3 35  1  0
  4 36  1  0
  8 37  1  0
 10 38  1  0
 11 39  1  0
 12 40  1  0
 13 41  1  0
 14 42  1  0
 15 43  1  0
 19 44  1  0
 20 45  1  0
 24 46  1  0
 27 47  1  0
 28 48  1  0
 29 49  1  0
M  END
>  <smiles>  (58) 
Cc1ccc(C(=O)Nc2ccccc2)cc1N=c1[nH]cnc2scc(-c3cccs3)c12

>  <score_type>  (58) 
oracle

>  <origin>  (58) 
adg

>  <m_score__min__energy>  (58) 
-9.4800000000000004

>  <m_primary>  (58) 
energy

$$$$
58:0
     RDKit          3D

 49 51  0  0  0  0  0  0  0  0999 V2000
   55.3664   29.3250   43.5091 H   0  0  0  0  0  0  0  0  0  0  0  0
   56.2740   29.7850   43.9270 C   0  0  0  0  0  0  0  0  0  0  0  0
   57.1350   29.2320   45.2600 S   0  0  0  0  0  0  0  0  0  0  0  0
   58.3200   30.4240   45.2310 C   0  0  0  0  0  0  0  0  0  0  0  0
   59.4310   30.5330   46.2370 C   0  0  0  0  0  0  0  0  0  0  0  0
   60.1628   31.2716   45.8779 H   0  0  0  0  0  0  0  0  0  0  0  0
   59.8868   29.5378   46.3457 H   0  0  0  0  0  0  0  0  0  0  0  0
   58.9420   30.9550   47.5650 N   0  0  0  0  0  0  0  0  0  0  0  0
   58.8420   30.0780   48.6260 C   0  0  0  0  0  0  0  0  0  0  0  0
   58.9920   28.5830   48.4790 C   0  0  0  0  0  0  0  0  0  0  0  0
   59.0385   28.1194   49.4755 H   0  0  0  0  0  0  0  0  0  0  0  0
   58.1297   28.1805   47.9272 H   0  0  0  0  0  0  0  0  0  0  0  0
   59.9170   28.3598   47.9272 H   0  0  0  0  0  0  0  0  0  0  0  0
   58.6220   30.6880   49.8760 C   0  0  0  0  0  0  0  0  0  0  0  0
   58.5550   30.0330   51.2080 C   0  0  0  0  0  0  0  0  0  0  0  0
   57.4540   29.5670   51.6150 O   0  0  0  0  0  0  0  0  0  0  0  0
   59.7300   29.9130   52.0470 N   0  0  0  0  0  0  0  0  0  0  0  0
   59.5760   29.2050   52.8030 H   0  0  0  0  0  0  0  0  0  0  0  0
   60.8770   29.4590   51.2440 C   0  0  0  0  0  0  0  0  0  0  0  0
   61.6888   29.1377   51.9131 H   0  0  0  0  0  0  0  0  0  0  0  0
   60.5691   28.6149   50.6094 H   0  0  0  0  0  0  0  0  0  0  0  0
   61.2302   30.2851   50.6094 H   0  0  0  0  0  0  0  0  0  0  0  0
   60.0250   31.2030   52.6960 C   0  0  0  0  0  0  0  0  0  0  0  0
   59.9966   31.0787   53.7886 H   0  0  0  0  0  0  0  0  0  0  0  0
   61.0248   31.5463   52.3919 H   0  0  0  0  0  0  0  0  0  0  0  0
   59.2738   31.9467   52.3919 H   0  0  0  0  0  0  0  0  0  0  0  0
   58.5080   32.3440   49.6230 S   0  0  0  0  0  0  0  0  0  0  0  0
   58.7200   32.2470   47.9680 C   0  0  0  0  0  0  0  0  0  0  0  0
   58.6750   33.3180   47.2230 N   0  0  0  0  0  0  0  0  0  0  0  0
   59.6860   34.3030   46.9860 C   0  0  0  0  0  0  0  0  0  0  0  0
   59.3560   35.4320   46.5340 O   0  0  0  0  0  0  0  0  0  0  0  0
   61.0940   34.0390   47.3680 C   0  0  0  0  0  0  0  0  0  0  0  0
   62.0740   33.8450   46.3780 C   0  0  0  0  0  0  0  0  0  0  0  0
   61.7931   33.8864   45.3153 H   0  0  0  0  0  0  0  0  0  0  0  0
   63.4020   33.6000   46.7360 C   0  0  0  0  0  0  0  0  0  0  0  0
   64.1631   33.4593   45.9544 H   0  0  0  0  0  0  0  0  0  0  0  0
   63.7670   33.5330   48.0820 C   0  0  0  0  0  0  0  0  0  0  0  0
   64.8174   33.3548   48.3556 H   0  0  0  0  0  0  0  0  0  0  0  0
   62.8000   33.6920   49.0890 C   0  0  0  0  0  0  0  0  0  0  0  0
   63.2010   33.6690   50.5420 C   0  0  0  0  0  0  0  0  0  0  0  0
   62.2390   33.0280   51.3030 F   0  0  0  0  0  0  0  0  0  0  0  0
   63.3430   34.9670   50.9960 F   0  0  0  0  0  0  0  0  0  0  0  0
   64.4010   32.9990   50.7100 F   0  0  0  0  0  0  0  0  0  0  0  0
   61.4690   33.9680   48.7220 C   0  0  0  0  0  0  0  0  0  0  0  0
   60.7127   34.1302   49.5041 H   0  0  0  0  0  0  0  0  0  0  0  0
   58.0500   31.2850   44.1700 C   0  0  0  0  0  0  0  0  0  0  0  0
   58.6710   32.1597   43.9266 H   0  0  0  0  0  0  0  0  0  0  0  0
   56.9070   30.9240   43.4440 C   0  0  0  0  0  0  0  0  0  0  0  0
   56.5446   31.4895   42.5729 H   0  0  0  0  0  0  0  0  0  0  0  0
  1  2  1  0
  2  3  1  0
  3  4  1  0
  4  5  1  0
  5  6  1  0
  5  7  1  0
  5  8  1  0
  8  9  1  0
  9 10  1  0
 10 11  1  0
 10 12  1  0
 10 13  1  0
  9 14  2  0
 14 15  1  0
 15 16  2  0
 15 17  1  0
 17 18  1  0
 17 19  1  0
 19 20  1  0
 19 21  1  0
 19 22  1  0
 17 23  1  0
 23 24  1  0
 23 25  1  0
 23 26  1  0
 14 27  1  0
 27 28  1  0
 28 29  2  0
 29 30  1  0
 30 31  2  0
 30 32  1  0
 32 33  2  0
 33 34  1  0
 33 35  1  0
 35 36  1  0
 35 37  2  0
 37 38  1  0
 37 39  1  0
 39 40  1  0
 40 41  1  0
 40 42  1  0
 40 43  1  0
 39 44  2  0
 44 45  1  0
  4 46  2  0
 46 47  1  0
 46 48  1  0
 48 49  1  0
 48  2  2  0
 28  8  1  0
 44 32  1  0
M  CHG  1  17   1
M  END
>  <UniqueID>  (59) 
52

>  <SMILES>  (59) 
Cc1c(C(=O)[NH+](C)C)s/c(=N/C(=O)c2cccc(C(F)(F)F)c2)n1Cc1cccs1

>  <Energy>  (59) 
126.73224724558484

>  <Genealogy>  (59) 
Cc1c(C(=O)[NH+](C)C)sc(=NC(=O)c2cccc(C(F)(F)F)c2)n1Cc1cccs1 (protonated)
Cc1c(C(=O)[NH+](C)C)s/c(=N/C(=O)c2cccc(C(F)(F)F)c2)n1Cc1cccs1 (cis-trans isomerization)
Cc1c(C(=O)[NH+](C)C)s/c(=N/C(=O)c2cccc(C(F)(F)F)c2)n1Cc1cccs1 (3D coordinates assigned)
Cc1c(C(=O)[NH+](C)C)s/c(=N/C(=O)c2cccc(C(F)(F)F)c2)n1Cc1cccs1 (optimized conformer: 126.73224724558484 kcal/mol)

>  <smiles>  (59) 
Cc1c(C(=O)N(C)C)sc(=NC(=O)c2cccc(C(F)(F)F)c2)n1Cc1cccs1

>  <score_type>  (59) 
oracle

>  <origin>  (59) 
adg

>  <m_score__min__energy>  (59) 
-6.7000000000000002

>  <m_primary>  (59) 
energy

$$$$
59:0
     RDKit          3D

 35 36  0  0  0  0  0  0  0  0999 V2000
   55.4960   24.1170   47.7660 O   0  0  0  0  0  0  0  0  0  0  0  0
   55.1880   24.4070   46.3230 S   0  0  0  0  0  0  0  0  0  0  0  0
   53.7330   24.1220   46.0770 O   0  0  0  0  0  0  0  0  0  0  0  0
   55.5040   26.0720   45.9800 N   0  0  0  0  0  0  0  0  0  0  0  0
   56.8190   26.5980   46.1450 C   0  0  0  0  0  0  0  0  0  0  0  0
   57.6500   26.1070   47.1580 C   0  0  0  0  0  0  0  0  0  0  0  0
   58.9580   26.5810   47.2760 C   0  0  0  0  0  0  0  0  0  0  0  0
   59.4440   27.5320   46.3750 C   0  0  0  0  0  0  0  0  0  0  0  0
   58.6260   28.0210   45.3480 C   0  0  0  0  0  0  0  0  0  0  0  0
   59.1750   28.9500   44.4510 O   0  0  0  0  0  0  0  0  0  0  0  0
   58.8200   30.3320   44.3630 C   0  0  0  0  0  0  0  0  0  0  0  0
   57.3250   30.5140   44.0330 C   0  0  0  0  0  0  0  0  0  0  0  0
   56.6370   31.5020   44.8710 N   0  0  0  0  0  0  0  0  0  0  0  0
   57.1200   32.6280   45.2220 C   0  0  0  0  0  0  0  0  0  0  0  0
   57.7320   34.0510   45.6640 S   0  0  0  0  0  0  0  0  0  0  0  0
   57.2980   27.5620   45.2510 C   0  0  0  0  0  0  0  0  0  0  0  0
   56.1750   23.3940   45.2670 C   0  0  0  0  0  0  0  0  0  0  0  0
   55.6970   23.0310   43.9990 C   0  0  0  0  0  0  0  0  0  0  0  0
   56.4890   22.2590   43.1430 C   0  0  0  0  0  0  0  0  0  0  0  0
   56.0220   21.9130   41.9170 F   0  0  0  0  0  0  0  0  0  0  0  0
   57.7630   21.8490   43.5440 C   0  0  0  0  0  0  0  0  0  0  0  0
   58.2490   22.2170   44.8010 C   0  0  0  0  0  0  0  0  0  0  0  0
   57.4620   22.9870   45.6640 C   0  0  0  0  0  0  0  0  0  0  0  0
   57.9610   23.3460   46.8730 F   0  0  0  0  0  0  0  0  0  0  0  0
   57.2734   25.3488   47.8603 H   0  0  0  0  0  0  0  0  0  0  0  0
   59.6074   26.2049   48.0802 H   0  0  0  0  0  0  0  0  0  0  0  0
   60.4762   27.8994   46.4727 H   0  0  0  0  0  0  0  0  0  0  0  0
   59.0346   30.8178   45.3263 H   0  0  0  0  0  0  0  0  0  0  0  0
   59.4090   30.7877   43.5534 H   0  0  0  0  0  0  0  0  0  0  0  0
   57.2404   30.8337   42.9839 H   0  0  0  0  0  0  0  0  0  0  0  0
   56.8401   29.5457   44.2258 H   0  0  0  0  0  0  0  0  0  0  0  0
   56.6352   27.9627   44.4699 H   0  0  0  0  0  0  0  0  0  0  0  0
   54.6962   23.3546   43.6770 H   0  0  0  0  0  0  0  0  0  0  0  0
   58.3823   21.2376   42.8712 H   0  0  0  0  0  0  0  0  0  0  0  0
   59.2549   21.8999   45.1135 H   0  0  0  0  0  0  0  0  0  0  0  0
  1  2  2  0
  2  3  2  0
  2  4  1  0
  4  5  1  0
  5  6  2  0
  6  7  1  0
  7  8  2  0
  8  9  1  0
  9 10  1  0
 10 11  1  0
 11 12  1  0
 12 13  1  0
 13 14  2  0
 14 15  2  0
  9 16  2  0
  2 17  1  0
 17 18  2  0
 18 19  1  0
 19 20  1  0
 19 21  2  0
 21 22  1  0
 22 23  2  0
 23 24  1  0
 16  5  1  0
 23 17  1  0
  6 25  1  0
  7 26  1  0
  8 27  1  0
 11 28  1  0
 11 29  1  0
 12 30  1  0
 12 31  1  0
 16 32  1  0
 18 33  1  0
 21 34  1  0
 22 35  1  0
M  CHG  1   4  -1
M  END
>  <UniqueID>  (60) 
53

>  <SMILES>  (60) 
O=S(=O)([N-]c1cccc(OCCN=C=S)c1)c1cc(F)ccc1F

>  <Energy>  (60) 
43.31307012071412

>  <Genealogy>  (60) 
O=S(=O)([N-]c1cccc(OCCN=C=S)c1)c1cc(F)ccc1F (protonated)
O=S(=O)([N-]c1cccc(OCCN=C=S)c1)c1cc(F)ccc1F (3D coordinates assigned)
O=S(=O)([N-]c1cccc(OCCN=C=S)c1)c1cc(F)ccc1F (optimized conformer: 43.31307012071412 kcal/mol)

>  <smiles>  (60) 
O=S(=O)(Nc1cccc(OCCN=C=S)c1)c1cc(F)ccc1F

>  <score_type>  (60) 
oracle

>  <origin>  (60) 
adg

>  <m_score__min__energy>  (60) 
-8.6899999999999995

>  <m_primary>  (60) 
energy

$$$$
60:0
     RDKit          3D

 39 40  0  0  0  0  0  0  0  0999 V2000
   63.3880   32.6030   48.2290 C   0  0  0  0  0  0  0  0  0  0  0  0
   62.0150   32.4110   48.5560 O   0  0  0  0  0  0  0  0  0  0  0  0
   60.9570   32.5610   47.6470 C   0  0  0  0  0  0  0  0  0  0  0  0
   59.8220   31.7630   47.8120 C   0  0  0  0  0  0  0  0  0  0  0  0
   58.7370   31.8710   46.9370 C   0  0  0  0  0  0  0  0  0  0  0  0
   58.7580   32.7960   45.8660 C   0  0  0  0  0  0  0  0  0  0  0  0
   57.6020   32.9670   44.8640 C   0  0  0  0  0  0  0  0  0  0  0  0
   58.1590   32.6770   43.4520 C   0  0  0  0  0  0  0  0  0  0  0  0
   57.0220   34.4030   44.8820 C   0  0  0  0  0  0  0  0  0  0  0  0
   56.5830   31.9610   45.2430 N   0  0  0  0  0  0  0  0  0  0  0  0
   56.6560   30.3840   44.4910 S   0  0  0  0  0  0  0  0  0  0  0  0
   56.6630   30.5270   42.9940 O   0  0  0  0  0  0  0  0  0  0  0  0
   55.4150   29.6280   44.8710 O   0  0  0  0  0  0  0  0  0  0  0  0
   58.0400   29.4370   45.0280 C   0  0  0  0  0  0  0  0  0  0  0  0
   59.3190   29.6670   44.4960 C   0  0  0  0  0  0  0  0  0  0  0  0
   60.4090   28.9120   44.9390 C   0  0  0  0  0  0  0  0  0  0  0  0
   60.2280   27.9240   45.9110 C   0  0  0  0  0  0  0  0  0  0  0  0
   58.9560   27.6870   46.4390 C   0  0  0  0  0  0  0  0  0  0  0  0
   57.8630   28.4380   45.9970 C   0  0  0  0  0  0  0  0  0  0  0  0
   59.9170   33.5870   45.7060 C   0  0  0  0  0  0  0  0  0  0  0  0
   60.9980   33.4760   46.5830 C   0  0  0  0  0  0  0  0  0  0  0  0
   63.9772   32.6854   49.1542 H   0  0  0  0  0  0  0  0  0  0  0  0
   63.7479   31.7464   47.6401 H   0  0  0  0  0  0  0  0  0  0  0  0
   63.4992   33.5254   47.6401 H   0  0  0  0  0  0  0  0  0  0  0  0
   59.7816   31.0408   48.6407 H   0  0  0  0  0  0  0  0  0  0  0  0
   57.8558   31.2289   47.0828 H   0  0  0  0  0  0  0  0  0  0  0  0
   59.1317   32.1706   43.5384 H   0  0  0  0  0  0  0  0  0  0  0  0
   57.4561   32.0304   42.9063 H   0  0  0  0  0  0  0  0  0  0  0  0
   58.2857   33.6236   42.9063 H   0  0  0  0  0  0  0  0  0  0  0  0
   56.8892   34.7318   45.9233 H   0  0  0  0  0  0  0  0  0  0  0  0
   57.7152   35.0849   44.3678 H   0  0  0  0  0  0  0  0  0  0  0  0
   56.0496   34.4122   44.3678 H   0  0  0  0  0  0  0  0  0  0  0  0
   59.4635   30.4425   43.7294 H   0  0  0  0  0  0  0  0  0  0  0  0
   61.4102   29.0957   44.5221 H   0  0  0  0  0  0  0  0  0  0  0  0
   61.0872   27.3327   46.2605 H   0  0  0  0  0  0  0  0  0  0  0  0
   58.8147   26.9086   47.2033 H   0  0  0  0  0  0  0  0  0  0  0  0
   56.8618   28.2453   46.4099 H   0  0  0  0  0  0  0  0  0  0  0  0
   59.9692   34.3047   44.8741 H   0  0  0  0  0  0  0  0  0  0  0  0
   61.8863   34.1088   46.4394 H   0  0  0  0  0  0  0  0  0  0  0  0
  1  2  1  0
  2  3  1  0
  3  4  2  0
  4  5  1  0
  5  6  2  0
  6  7  1  0
  7  8  1  0
  7  9  1  0
  7 10  1  0
 10 11  1  0
 11 12  2  0
 11 13  2  0
 11 14  1  0
 14 15  2  0
 15 16  1  0
 16 17  2  0
 17 18  1  0
 18 19  2  0
  6 20  1  0
 20 21  2  0
 21  3  1  0
 19 14  1  0
  1 22  1  0
  1 23  1  0
  1 24  1  0
  4 25  1  0
  5 26  1  0
  8 27  1  0
  8 28  1  0
  8 29  1  0
  9 30  1  0
  9 31  1  0
  9 32  1  0
 15 33  1  0
 16 34  1  0
 17 35  1  0
 18 36  1  0
 19 37  1  0
 20 38  1  0
 21 39  1  0
M  CHG  1  10  -1
M  END
>  <UniqueID>  (61) 
54

>  <SMILES>  (61) 
COc1ccc(C(C)(C)[N-]S(=O)(=O)c2ccccc2)cc1

>  <Energy>  (61) 
48.1521785092519

>  <Genealogy>  (61) 
COc1ccc(C(C)(C)[N-]S(=O)(=O)c2ccccc2)cc1 (protonated)
COc1ccc(C(C)(C)[N-]S(=O)(=O)c2ccccc2)cc1 (3D coordinates assigned)
COc1ccc(C(C)(C)[N-]S(=O)(=O)c2ccccc2)cc1 (optimized conformer: 48.1521785092519 kcal/mol)

>  <smiles>  (61) 
COc1ccc(C(C)(C)NS(=O)(=O)c2ccccc2)cc1

>  <score_type>  (61) 
oracle

>  <origin>  (61) 
adg

>  <m_score__min__energy>  (61) 
-8.8699999999999992

>  <m_primary>  (61) 
energy

$$$$
61:0
     RDKit          3D

 48 51  0  0  0  0  0  0  0  0999 V2000
   56.8590   30.4890   45.1770 O   0  0  0  0  0  0  0  0  0  0  0  0
   57.7870   30.3840   46.0240 C   0  0  0  0  0  0  0  0  0  0  0  0
   58.2150   31.5260   46.7760 N   0  0  0  0  0  0  0  0  0  0  0  0
   58.5640   32.8150   46.2450 C   0  0  0  0  0  0  0  0  0  0  0  0
   58.0250   33.2700   45.0280 C   0  0  0  0  0  0  0  0  0  0  0  0
   58.3710   34.5250   44.5250 C   0  0  0  0  0  0  0  0  0  0  0  0
   59.2710   35.3330   45.2210 C   0  0  0  0  0  0  0  0  0  0  0  0
   59.8330   34.8860   46.4170 C   0  0  0  0  0  0  0  0  0  0  0  0
   59.4890   33.6270   46.9390 C   0  0  0  0  0  0  0  0  0  0  0  0
   60.1170   33.1620   48.2010 C   0  0  0  0  0  0  0  0  0  0  0  0
   59.4460   33.2180   49.2670 O   0  0  0  0  0  0  0  0  0  0  0  0
   61.4680   32.6590   48.2350 N   0  0  0  0  0  0  0  0  0  0  0  0
   62.4490   33.0100   47.2010 C   0  0  0  0  0  0  0  0  0  0  0  0
   63.8300   33.1940   47.8370 C   0  0  0  0  0  0  0  0  0  0  0  0
   64.1780   32.0690   48.6240 O   0  0  0  0  0  0  0  0  0  0  0  0
   63.2890   31.9560   49.7180 C   0  0  0  0  0  0  0  0  0  0  0  0
   61.8650   31.6610   49.2350 C   0  0  0  0  0  0  0  0  0  0  0  0
   58.3640   29.1040   46.3160 N   0  0  0  0  0  0  0  0  0  0  0  0
   58.0630   27.8990   45.5920 C   0  0  0  0  0  0  0  0  0  0  0  0
   58.3740   27.8250   44.2260 C   0  0  0  0  0  0  0  0  0  0  0  0
   58.0840   26.6710   43.4920 C   0  0  0  0  0  0  0  0  0  0  0  0
   57.4580   25.5810   44.1110 C   0  0  0  0  0  0  0  0  0  0  0  0
   57.1580   24.4190   43.3820 C   0  0  0  0  0  0  0  0  0  0  0  0
   56.5180   23.3460   44.0070 C   0  0  0  0  0  0  0  0  0  0  0  0
   56.1750   23.4220   45.3590 C   0  0  0  0  0  0  0  0  0  0  0  0
   56.4710   24.5710   46.0970 C   0  0  0  0  0  0  0  0  0  0  0  0
   57.1150   25.6560   45.4820 C   0  0  0  0  0  0  0  0  0  0  0  0
   57.4150   26.8170   46.2120 C   0  0  0  0  0  0  0  0  0  0  0  0
   57.3254   32.6317   44.4684 H   0  0  0  0  0  0  0  0  0  0  0  0
   57.9339   34.8775   43.5791 H   0  0  0  0  0  0  0  0  0  0  0  0
   59.5378   36.3243   44.8258 H   0  0  0  0  0  0  0  0  0  0  0  0
   60.5502   35.5231   46.9552 H   0  0  0  0  0  0  0  0  0  0  0  0
   62.4957   32.2044   46.4534 H   0  0  0  0  0  0  0  0  0  0  0  0
   62.1447   33.9490   46.7156 H   0  0  0  0  0  0  0  0  0  0  0  0
   64.5787   33.3224   47.0414 H   0  0  0  0  0  0  0  0  0  0  0  0
   63.8026   34.0819   48.4858 H   0  0  0  0  0  0  0  0  0  0  0  0
   63.6245   31.1377   50.3721 H   0  0  0  0  0  0  0  0  0  0  0  0
   63.2841   32.9088   50.2677 H   0  0  0  0  0  0  0  0  0  0  0  0
   61.8316   30.6580   48.7846 H   0  0  0  0  0  0  0  0  0  0  0  0
   61.1731   31.7042   50.0891 H   0  0  0  0  0  0  0  0  0  0  0  0
   58.9340   29.0240   47.1890 H   0  0  0  0  0  0  0  0  0  0  0  0
   58.8502   28.6825   43.7281 H   0  0  0  0  0  0  0  0  0  0  0  0
   58.3480   26.6186   42.4254 H   0  0  0  0  0  0  0  0  0  0  0  0
   57.4273   24.3535   42.3175 H   0  0  0  0  0  0  0  0  0  0  0  0
   56.2833   22.4379   43.4324 H   0  0  0  0  0  0  0  0  0  0  0  0
   55.6699   22.5740   45.8446 H   0  0  0  0  0  0  0  0  0  0  0  0
   56.1989   24.6253   47.1614 H   0  0  0  0  0  0  0  0  0  0  0  0
   57.1413   26.8802   47.2755 H   0  0  0  0  0  0  0  0  0  0  0  0
  1  2  2  0
  2  3  1  0
  3  4  1  0
  4  5  2  0
  5  6  1  0
  6  7  2  0
  7  8  1  0
  8  9  2  0
  9 10  1  0
 10 11  2  0
 10 12  1  0
 12 13  1  0
 13 14  1  0
 14 15  1  0
 15 16  1  0
 16 17  1  0
  2 18  1  0
 18 19  1  0
 19 20  2  0
 20 21  1  0
 21 22  2  0
 22 23  1  0
 23 24  2  0
 24 25  1  0
 25 26  2  0
 26 27  1  0
 27 28  2  0
  9  4  1  0
 17 12  1  0
 28 19  1  0
 27 22  1  0
  5 29  1  0
  6 30  1  0
  7 31  1  0
  8 32  1  0
 13 33  1  0
 13 34  1  0
 14 35  1  0
 14 36  1  0
 16 37  1  0
 16 38  1  0
 17 39  1  0
 17 40  1  0
 18 41  1  0
 20 42  1  0
 21 43  1  0
 23 44  1  0
 24 45  1  0
 25 46  1  0
 26 47  1  0
 28 48  1  0
M  CHG  1   3  -1
M  END
>  <UniqueID>  (62) 
55

>  <SMILES>  (62) 
O=C([N-]c1ccccc1C(=O)N1CCOCC1)Nc1ccc2ccccc2c1

>  <Energy>  (62) 
69.49085472349906

>  <Genealogy>  (62) 
O=C([N-]c1ccccc1C(=O)N1CCOCC1)Nc1ccc2ccccc2c1 (protonated)
O=C([N-]c1ccccc1C(=O)N1CCOCC1)Nc1ccc2ccccc2c1 (3D coordinates assigned)
O=C([N-]c1ccccc1C(=O)N1CCOCC1)Nc1ccc2ccccc2c1 (nonaromatic ring conformer: 69.49085472349906 kcal/mol)

>  <smiles>  (62) 
O=C(Nc1ccc2ccccc2c1)Nc1ccccc1C(=O)N1CCOCC1

>  <score_type>  (62) 
oracle

>  <origin>  (62) 
adg

>  <m_score__min__energy>  (62) 
-10.76

>  <m_primary>  (62) 
energy

$$$$
62:0
     RDKit          3D

 25 25  0  0  0  0  0  0  0  0999 V2000
   58.6274   25.6722   47.3386 H   0  0  0  0  0  0  0  0  0  0  0  0
   58.6250   26.5570   46.6850 C   0  0  0  0  0  0  0  0  0  0  0  0
   59.8240   27.1930   46.3830 C   0  0  0  0  0  0  0  0  0  0  0  0
   60.7709   26.8249   46.8049 H   0  0  0  0  0  0  0  0  0  0  0  0
   59.8120   28.2990   45.5420 C   0  0  0  0  0  0  0  0  0  0  0  0
   60.7572   28.7926   45.2719 H   0  0  0  0  0  0  0  0  0  0  0  0
   58.6360   28.7730   45.0520 N   0  0  0  0  0  0  0  0  0  0  0  0
   58.6660   29.6240   44.4450 H   0  0  0  0  0  0  0  0  0  0  0  0
   57.4290   28.2110   45.3610 C   0  0  0  0  0  0  0  0  0  0  0  0
   56.3570   28.8290   44.9320 N   0  0  0  0  0  0  0  0  0  0  0  0
   56.1330   29.7350   43.8030 C   0  0  0  0  0  0  0  0  0  0  0  0
   55.0624   29.7371   43.5504 H   0  0  0  0  0  0  0  0  0  0  0  0
   56.7300   29.3841   42.9483 H   0  0  0  0  0  0  0  0  0  0  0  0
   56.5680   31.1600   44.1490 C   0  0  0  0  0  0  0  0  0  0  0  0
   55.6763   31.7789   44.3275 H   0  0  0  0  0  0  0  0  0  0  0  0
   57.1490   31.5715   43.3105 H   0  0  0  0  0  0  0  0  0  0  0  0
   57.3720   31.1560   45.3080 O   0  0  0  0  0  0  0  0  0  0  0  0
   58.0390   32.3920   45.4200 C   0  0  0  0  0  0  0  0  0  0  0  0
   58.1734   32.6411   46.4830 H   0  0  0  0  0  0  0  0  0  0  0  0
   59.0226   32.3234   44.9322 H   0  0  0  0  0  0  0  0  0  0  0  0
   57.4418   33.1765   44.9322 H   0  0  0  0  0  0  0  0  0  0  0  0
   57.4140   27.0320   46.1650 C   0  0  0  0  0  0  0  0  0  0  0  0
   56.2510   26.2180   46.3370 N   0  0  0  0  0  0  0  0  0  0  0  0
   55.1370   26.6600   45.9900 O   0  0  0  0  0  0  0  0  0  0  0  0
   56.2990   25.1940   47.2540 O   0  0  0  0  0  0  0  0  0  0  0  0
  1  2  1  0
  2  3  1  0
  3  4  1  0
  3  5  2  0
  5  6  1  0
  5  7  1  0
  7  8  1  0
  7  9  1  0
  9 10  2  0
 10 11  1  0
 11 12  1  0
 11 13  1  0
 11 14  1  0
 14 15  1  0
 14 16  1  0
 14 17  1  0
 17 18  1  0
 18 19  1  0
 18 20  1  0
 18 21  1  0
  9 22  1  0
 22 23  1  0
 23 24  2  0
 23 25  1  0
 22  2  2  0
M  CHG  2  23   1  25  -1
M  END
>  <UniqueID>  (63) 
56

>  <SMILES>  (63) 
COCC/N=c1/[nH]cccc1[N+](=O)[O-]

>  <Energy>  (63) 
39.84233263463859

>  <Genealogy>  (63) 
COCC/N=c1/[nH]cccc1[N+](=O)[O-] (cis-trans isomerization)
COCC/N=c1/[nH]cccc1[N+](=O)[O-] (3D coordinates assigned)
COCC/N=c1/[nH]cccc1[N+](=O)[O-] (optimized conformer: 39.84233263463859 kcal/mol)

>  <smiles>  (63) 
COCCN=c1[nH]cccc1[N+](=O)[O-]

>  <score_type>  (63) 
oracle

>  <origin>  (63) 
adg

>  <m_score__min__energy>  (63) 
-5.2000000000000002

>  <m_primary>  (63) 
energy

$$$$
63:0
     RDKit          3D

 28 28  0  0  0  0  0  0  0  0999 V2000
   55.8950   28.3430   52.8100 H   0  0  0  0  0  0  0  0  0  0  0  0
   54.9020   28.2240   52.9700 O   0  0  0  0  0  0  0  0  0  0  0  0
   53.9730   29.1660   52.5280 C   0  0  0  0  0  0  0  0  0  0  0  0
   52.6050   28.9620   52.7470 C   0  0  0  0  0  0  0  0  0  0  0  0
   52.2634   28.0578   53.2720 H   0  0  0  0  0  0  0  0  0  0  0  0
   51.6730   29.9010   52.3020 C   0  0  0  0  0  0  0  0  0  0  0  0
   50.6012   29.7378   52.4881 H   0  0  0  0  0  0  0  0  0  0  0  0
   52.0950   31.0530   51.6180 C   0  0  0  0  0  0  0  0  0  0  0  0
   51.1060   32.0360   51.1200 C   0  0  0  0  0  0  0  0  0  0  0  0
   51.0130   32.2820   49.8880 O   0  0  0  0  0  0  0  0  0  0  0  0
   50.2690   32.7050   52.0060 O   0  0  0  0  0  0  0  0  0  0  0  0
   53.4700   31.2520   51.3990 C   0  0  0  0  0  0  0  0  0  0  0  0
   53.8104   32.1452   50.8547 H   0  0  0  0  0  0  0  0  0  0  0  0
   54.4140   30.3220   51.8680 C   0  0  0  0  0  0  0  0  0  0  0  0
   55.8210   30.4920   51.6330 N   0  0  0  0  0  0  0  0  0  0  0  0
   56.7980   30.9370   52.5840 C   0  0  0  0  0  0  0  0  0  0  0  0
   57.5000   31.9570   52.3450 O   0  0  0  0  0  0  0  0  0  0  0  0
   56.9410   30.2250   53.8670 C   0  0  0  0  0  0  0  0  0  0  0  0
   57.5700   29.0890   53.8860 N   0  0  0  0  0  0  0  0  0  0  0  0
   58.0800   28.5130   52.7420 O   0  0  0  0  0  0  0  0  0  0  0  0
   59.4450   28.6830   52.4000 C   0  0  0  0  0  0  0  0  0  0  0  0
   60.0464   28.7579   53.3180 H   0  0  0  0  0  0  0  0  0  0  0  0
   59.7849   27.8203   51.8083 H   0  0  0  0  0  0  0  0  0  0  0  0
   59.5630   29.6028   51.8083 H   0  0  0  0  0  0  0  0  0  0  0  0
   56.4500   30.8480   55.1480 C   0  0  0  0  0  0  0  0  0  0  0  0
   56.8763   30.3071   56.0057 H   0  0  0  0  0  0  0  0  0  0  0  0
   56.7630   31.9018   55.1867 H   0  0  0  0  0  0  0  0  0  0  0  0
   55.3522   30.7899   55.1867 H   0  0  0  0  0  0  0  0  0  0  0  0
  1  2  1  0
  2  3  1  0
  3  4  2  0
  4  5  1  0
  4  6  1  0
  6  7  1  0
  6  8  2  0
  8  9  1  0
  9 10  2  0
  9 11  1  0
  8 12  1  0
 12 13  1  0
 12 14  2  0
 14 15  1  0
 15 16  1  0
 16 17  2  0
 16 18  1  0
 18 19  2  0
 19 20  1  0
 20 21  1  0
 21 22  1  0
 21 23  1  0
 21 24  1  0
 18 25  1  0
 25 26  1  0
 25 27  1  0
 25 28  1  0
 14  3  1  0
M  CHG  2  11  -1  15  -1
M  END
>  <UniqueID>  (64) 
57

>  <SMILES>  (64) 
CO/N=C(\C)C(=O)[N-]c1cc(C(=O)[O-])ccc1O

>  <Energy>  (64) 
25.290334037641372

>  <Genealogy>  (64) 
CON=C(C)C(=O)[N-]c1cc(C(=O)[O-])ccc1O (protonated)
CO/N=C(\C)C(=O)[N-]c1cc(C(=O)[O-])ccc1O (cis-trans isomerization)
CO/N=C(\C)C(=O)[N-]c1cc(C(=O)[O-])ccc1O (3D coordinates assigned)
CO/N=C(\C)C(=O)[N-]c1cc(C(=O)[O-])ccc1O (optimized conformer: 25.290334037641372 kcal/mol)

>  <smiles>  (64) 
CON=C(C)C(=O)Nc1cc(C(=O)O)ccc1O

>  <score_type>  (64) 
oracle

>  <origin>  (64) 
adg

>  <m_score__min__energy>  (64) 
-9.2799999999999994

>  <m_primary>  (64) 
energy

$$$$
64:0
     RDKit          3D

 42 44  0  0  0  0  0  0  0  0999 V2000
   55.6130   29.6000   44.8250 O   0  0  0  0  0  0  0  0  0  0  0  0
   56.3230   28.6930   45.3350 C   0  0  0  0  0  0  0  0  0  0  0  0
   55.7370   27.4650   45.6210 O   0  0  0  0  0  0  0  0  0  0  0  0
   57.7460   28.9500   45.6590 C   0  0  0  0  0  0  0  0  0  0  0  0
   58.0670   29.8820   46.6640 C   0  0  0  0  0  0  0  0  0  0  0  0
   59.3990   30.0930   47.0530 C   0  0  0  0  0  0  0  0  0  0  0  0
   59.7210   31.0950   48.1310 C   0  0  0  0  0  0  0  0  0  0  0  0
   58.8300   32.2100   48.0710 O   0  0  0  0  0  0  0  0  0  0  0  0
   58.7160   33.1010   46.9920 C   0  0  0  0  0  0  0  0  0  0  0  0
   59.7050   34.0820   46.8350 C   0  0  0  0  0  0  0  0  0  0  0  0
   59.6410   34.9900   45.7740 C   0  0  0  0  0  0  0  0  0  0  0  0
   58.5850   34.9270   44.8610 C   0  0  0  0  0  0  0  0  0  0  0  0
   57.5910   33.9580   45.0100 C   0  0  0  0  0  0  0  0  0  0  0  0
   57.6510   33.0480   46.0700 C   0  0  0  0  0  0  0  0  0  0  0  0
   60.4230   29.3800   46.4170 C   0  0  0  0  0  0  0  0  0  0  0  0
   60.1200   28.4630   45.4100 C   0  0  0  0  0  0  0  0  0  0  0  0
   58.7960   28.2570   45.0090 C   0  0  0  0  0  0  0  0  0  0  0  0
   58.5550   27.3660   43.9570 O   0  0  0  0  0  0  0  0  0  0  0  0
   58.1030   26.0480   44.1270 C   0  0  0  0  0  0  0  0  0  0  0  0
   58.4440   25.2840   45.2570 C   0  0  0  0  0  0  0  0  0  0  0  0
   57.9700   23.9770   45.3750 C   0  0  0  0  0  0  0  0  0  0  0  0
   58.3020   23.2490   46.4720 F   0  0  0  0  0  0  0  0  0  0  0  0
   57.1560   23.4280   44.3720 C   0  0  0  0  0  0  0  0  0  0  0  0
   56.6380   22.0170   44.5070 C   0  0  0  0  0  0  0  0  0  0  0  0
   55.4300   22.0330   45.1790 F   0  0  0  0  0  0  0  0  0  0  0  0
   56.4490   21.4200   43.2720 F   0  0  0  0  0  0  0  0  0  0  0  0
   57.5440   21.2570   45.2250 F   0  0  0  0  0  0  0  0  0  0  0  0
   56.8280   24.2300   43.2650 C   0  0  0  0  0  0  0  0  0  0  0  0
   57.3020   25.5030   43.1700 N   0  0  0  0  0  0  0  0  0  0  0  0
   57.2628   30.4528   47.1512 H   0  0  0  0  0  0  0  0  0  0  0  0
   59.6260   30.6102   49.1138 H   0  0  0  0  0  0  0  0  0  0  0  0
   60.7487   31.4569   47.9798 H   0  0  0  0  0  0  0  0  0  0  0  0
   60.5375   34.1377   47.5519 H   0  0  0  0  0  0  0  0  0  0  0  0
   60.4228   35.7550   45.6577 H   0  0  0  0  0  0  0  0  0  0  0  0
   58.5369   35.6406   44.0252 H   0  0  0  0  0  0  0  0  0  0  0  0
   56.7589   33.9103   44.2921 H   0  0  0  0  0  0  0  0  0  0  0  0
   56.8642   32.2879   46.1848 H   0  0  0  0  0  0  0  0  0  0  0  0
   61.4699   29.5435   46.7124 H   0  0  0  0  0  0  0  0  0  0  0  0
   60.9300   27.8968   44.9270 H   0  0  0  0  0  0  0  0  0  0  0  0
   59.0810   25.7143   46.0438 H   0  0  0  0  0  0  0  0  0  0  0  0
   56.1839   23.8263   42.4699 H   0  0  0  0  0  0  0  0  0  0  0  0
   57.0450   26.0740   42.3350 H   0  0  0  0  0  0  0  0  0  0  0  0
  1  2  2  0
  2  3  1  0
  2  4  1  0
  4  5  2  0
  5  6  1  0
  6  7  1  0
  7  8  1  0
  8  9  1  0
  9 10  2  0
 10 11  1  0
 11 12  2  0
 12 13  1  0
 13 14  2  0
  6 15  2  0
 15 16  1  0
 16 17  2  0
 17 18  1  0
 18 19  1  0
 19 20  2  0
 20 21  1  0
 21 22  1  0
 21 23  2  0
 23 24  1  0
 24 25  1  0
 24 26  1  0
 24 27  1  0
 23 28  1  0
 28 29  2  0
 17  4  1  0
 29 19  1  0
 14  9  1  0
  5 30  1  0
  7 31  1  0
  7 32  1  0
 10 33  1  0
 11 34  1  0
 12 35  1  0
 13 36  1  0
 14 37  1  0
 15 38  1  0
 16 39  1  0
 20 40  1  0
 28 41  1  0
 29 42  1  0
M  CHG  2   3  -1  29   1
M  END
>  <UniqueID>  (65) 
58

>  <SMILES>  (65) 
O=C([O-])c1cc(COc2ccccc2)ccc1Oc1cc(F)c(C(F)(F)F)c[nH+]1

>  <Energy>  (65) 
57.05855391061702

>  <Genealogy>  (65) 
O=C([O-])c1cc(COc2ccccc2)ccc1Oc1cc(F)c(C(F)(F)F)c[nH+]1 (protonated)
O=C([O-])c1cc(COc2ccccc2)ccc1Oc1cc(F)c(C(F)(F)F)c[nH+]1 (3D coordinates assigned)
O=C([O-])c1cc(COc2ccccc2)ccc1Oc1cc(F)c(C(F)(F)F)c[nH+]1 (optimized conformer: 57.05855391061702 kcal/mol)

>  <smiles>  (65) 
O=C(O)c1cc(COc2ccccc2)ccc1Oc1cc(F)c(C(F)(F)F)cn1

>  <score_type>  (65) 
oracle

>  <origin>  (65) 
adg

>  <m_score__min__energy>  (65) 
-8.5299999999999994

>  <m_primary>  (65) 
energy

$$$$
65:0
     RDKit          3D

 49 52  0  0  0  0  0  0  0  0999 V2000
   54.5780   24.5800   45.9880 N   0  0  0  0  0  0  0  0  0  0  0  0
   55.7500   23.7870   45.7670 C   0  0  0  0  0  0  0  0  0  0  0  0
   55.7450   22.4380   46.1580 C   0  0  0  0  0  0  0  0  0  0  0  0
   56.8840   21.6470   45.9970 C   0  0  0  0  0  0  0  0  0  0  0  0
   58.0410   22.1930   45.4410 C   0  0  0  0  0  0  0  0  0  0  0  0
   58.0600   23.5310   45.0390 C   0  0  0  0  0  0  0  0  0  0  0  0
   56.9220   24.3430   45.2000 C   0  0  0  0  0  0  0  0  0  0  0  0
   56.9400   25.7010   44.7260 N   0  0  0  0  0  0  0  0  0  0  0  0
   56.7380   26.8300   45.5930 C   0  0  0  0  0  0  0  0  0  0  0  0
   56.2090   26.6590   46.7250 O   0  0  0  0  0  0  0  0  0  0  0  0
   57.1060   28.2000   45.1610 C   0  0  0  0  0  0  0  0  0  0  0  0
   56.1180   29.1400   44.8140 C   0  0  0  0  0  0  0  0  0  0  0  0
   56.4760   30.4270   44.4040 C   0  0  0  0  0  0  0  0  0  0  0  0
   57.8280   30.7940   44.3180 C   0  0  0  0  0  0  0  0  0  0  0  0
   58.2150   32.1900   43.9160 C   0  0  0  0  0  0  0  0  0  0  0  0
   58.5950   32.9660   45.1010 N   0  0  0  0  0  0  0  0  0  0  0  0
   59.7710   32.7020   45.6760 N   0  0  0  0  0  0  0  0  0  0  0  0
   60.2010   33.3400   46.7990 C   0  0  0  0  0  0  0  0  0  0  0  0
   61.5190   32.9800   47.3830 C   0  0  0  0  0  0  0  0  0  0  0  0
   62.6540   33.7580   47.0920 C   0  0  0  0  0  0  0  0  0  0  0  0
   63.8940   33.4300   47.6410 C   0  0  0  0  0  0  0  0  0  0  0  0
   63.9940   32.3270   48.4890 C   0  0  0  0  0  0  0  0  0  0  0  0
   62.8920   31.5880   48.7770 N   0  0  0  0  0  0  0  0  0  0  0  0
   61.6720   31.8840   48.2520 C   0  0  0  0  0  0  0  0  0  0  0  0
   59.3660   34.3010   47.3850 C   0  0  0  0  0  0  0  0  0  0  0  0
   58.1340   34.5790   46.8010 C   0  0  0  0  0  0  0  0  0  0  0  0
   57.7510   33.8960   45.6490 C   0  0  0  0  0  0  0  0  0  0  0  0
   56.6290   34.1410   45.1270 O   0  0  0  0  0  0  0  0  0  0  0  0
   58.8150   29.8610   44.6630 C   0  0  0  0  0  0  0  0  0  0  0  0
   58.4580   28.5730   45.0730 C   0  0  0  0  0  0  0  0  0  0  0  0
   53.6280   24.1730   45.8400 H   0  0  0  0  0  0  0  0  0  0  0  0
   54.6280   25.5520   46.3630 H   0  0  0  0  0  0  0  0  0  0  0  0
   54.8352   22.0007   46.5951 H   0  0  0  0  0  0  0  0  0  0  0  0
   56.8691   20.5922   46.3089 H   0  0  0  0  0  0  0  0  0  0  0  0
   58.9391   21.5697   45.3190 H   0  0  0  0  0  0  0  0  0  0  0  0
   58.9724   23.9533   44.5928 H   0  0  0  0  0  0  0  0  0  0  0  0
   57.0540   25.8680   43.7030 H   0  0  0  0  0  0  0  0  0  0  0  0
   55.0556   28.8595   44.8659 H   0  0  0  0  0  0  0  0  0  0  0  0
   55.6938   31.1566   44.1472 H   0  0  0  0  0  0  0  0  0  0  0  0
   59.0664   32.1461   43.2209 H   0  0  0  0  0  0  0  0  0  0  0  0
   57.3580   32.6754   43.4261 H   0  0  0  0  0  0  0  0  0  0  0  0
   62.5635   34.6301   46.4277 H   0  0  0  0  0  0  0  0  0  0  0  0
   64.7829   34.0345   47.4077 H   0  0  0  0  0  0  0  0  0  0  0  0
   64.9668   32.0556   48.9249 H   0  0  0  0  0  0  0  0  0  0  0  0
   60.8008   31.2632   48.5083 H   0  0  0  0  0  0  0  0  0  0  0  0
   59.6811   34.8297   48.2967 H   0  0  0  0  0  0  0  0  0  0  0  0
   57.4674   35.3326   47.2458 H   0  0  0  0  0  0  0  0  0  0  0  0
   59.8768   30.1437   44.6109 H   0  0  0  0  0  0  0  0  0  0  0  0
   59.2422   27.8453   45.3289 H   0  0  0  0  0  0  0  0  0  0  0  0
  1  2  1  0
  2  3  2  0
  3  4  1  0
  4  5  2  0
  5  6  1  0
  6  7  2  0
  7  8  1  0
  8  9  1  0
  9 10  2  0
  9 11  1  0
 11 12  2  0
 12 13  1  0
 13 14  2  0
 14 15  1  0
 15 16  1  0
 16 17  1  0
 17 18  2  0
 18 19  1  0
 19 20  2  0
 20 21  1  0
 21 22  2  0
 22 23  1  0
 23 24  2  0
 18 25  1  0
 25 26  2  0
 26 27  1  0
 27 28  2  0
 14 29  1  0
 29 30  2  0
  7  2  1  0
 30 11  1  0
 27 16  1  0
 24 19  1  0
  1 31  1  0
  1 32  1  0
  3 33  1  0
  4 34  1  0
  5 35  1  0
  6 36  1  0
  8 37  1  0
 12 38  1  0
 13 39  1  0
 15 40  1  0
 15 41  1  0
 20 42  1  0
 21 43  1  0
 22 44  1  0
 24 45  1  0
 25 46  1  0
 26 47  1  0
 29 48  1  0
 30 49  1  0
M  END
>  <UniqueID>  (66) 
59

>  <SMILES>  (66) 
Nc1ccccc1NC(=O)c1ccc(Cn2nc(-c3cccnc3)ccc2=O)cc1

>  <Energy>  (66) 
65.87044556875674

>  <Genealogy>  (66) 
Nc1ccccc1NC(=O)c1ccc(Cn2nc(-c3cccnc3)ccc2=O)cc1 (3D coordinates assigned)
Nc1ccccc1NC(=O)c1ccc(Cn2nc(-c3cccnc3)ccc2=O)cc1 (optimized conformer: 65.87044556875674 kcal/mol)

>  <smiles>  (66) 
Nc1ccccc1NC(=O)c1ccc(Cn2nc(-c3cccnc3)ccc2=O)cc1

>  <score_type>  (66) 
oracle

>  <origin>  (66) 
adg

>  <m_score__min__energy>  (66) 
-8.5800000000000001

>  <m_primary>  (66) 
energy

$$$$
66:0
     RDKit          3D

 56 58  0  0  0  0  0  0  0  0999 V2000
   55.1190   29.7130   42.6360 H   0  0  0  0  0  0  0  0  0  0  0  0
   55.1290   29.9940   43.6440 N   0  0  0  0  0  0  0  0  0  0  0  0
   56.2360   30.1020   44.3040 C   0  0  0  0  0  0  0  0  0  0  0  0
   56.8080   29.0010   44.8620 N   0  0  0  0  0  0  0  0  0  0  0  0
   57.9850   29.0620   45.5460 C   0  0  0  0  0  0  0  0  0  0  0  0
   58.5300   27.8660   46.1310 N   0  0  0  0  0  0  0  0  0  0  0  0
   57.7730   27.0730   47.1080 C   0  0  0  0  0  0  0  0  0  0  0  0
   58.2502   27.1548   48.0957 H   0  0  0  0  0  0  0  0  0  0  0  0
   56.7416   27.4507   47.1676 H   0  0  0  0  0  0  0  0  0  0  0  0
   57.7560   25.6070   46.6690 C   0  0  0  0  0  0  0  0  0  0  0  0
   57.4082   24.9865   47.5080 H   0  0  0  0  0  0  0  0  0  0  0  0
   57.0802   25.5125   45.8062 H   0  0  0  0  0  0  0  0  0  0  0  0
   59.0940   25.1520   46.2600 N   0  0  0  0  0  0  0  0  0  0  0  0
   59.2670   23.7780   45.8690 C   0  0  0  0  0  0  0  0  0  0  0  0
   60.4150   23.3390   45.5870 O   0  0  0  0  0  0  0  0  0  0  0  0
   58.1440   22.9350   45.8040 O   0  0  0  0  0  0  0  0  0  0  0  0
   57.3080   22.7150   44.6580 C   0  0  0  0  0  0  0  0  0  0  0  0
   55.9030   22.3820   45.1820 C   0  0  0  0  0  0  0  0  0  0  0  0
   55.9119   22.3841   46.2820 H   0  0  0  0  0  0  0  0  0  0  0  0
   55.1884   23.1356   44.8196 H   0  0  0  0  0  0  0  0  0  0  0  0
   55.6026   21.3878   44.8196 H   0  0  0  0  0  0  0  0  0  0  0  0
   57.2290   23.9890   43.7950 C   0  0  0  0  0  0  0  0  0  0  0  0
   57.1743   24.8719   44.4488 H   0  0  0  0  0  0  0  0  0  0  0  0
   58.1246   24.0579   43.1601 H   0  0  0  0  0  0  0  0  0  0  0  0
   56.3318   23.9467   43.1601 H   0  0  0  0  0  0  0  0  0  0  0  0
   57.8240   21.5260   43.8270 C   0  0  0  0  0  0  0  0  0  0  0  0
   58.1697   20.7294   44.5022 H   0  0  0  0  0  0  0  0  0  0  0  0
   57.0116   21.1420   43.1926 H   0  0  0  0  0  0  0  0  0  0  0  0
   58.6594   21.8571   43.1926 H   0  0  0  0  0  0  0  0  0  0  0  0
   60.2420   26.0700   46.3410 C   0  0  0  0  0  0  0  0  0  0  0  0
   60.5249   26.2045   47.3955 H   0  0  0  0  0  0  0  0  0  0  0  0
   61.0826   25.6409   45.7759 H   0  0  0  0  0  0  0  0  0  0  0  0
   59.8800   27.4350   45.7360 C   0  0  0  0  0  0  0  0  0  0  0  0
   60.6084   28.1828   46.0828 H   0  0  0  0  0  0  0  0  0  0  0  0
   59.9023   27.3405   44.6403 H   0  0  0  0  0  0  0  0  0  0  0  0
   58.6200   30.3030   45.7130 C   0  0  0  0  0  0  0  0  0  0  0  0
   59.5706   30.3676   46.2627 H   0  0  0  0  0  0  0  0  0  0  0  0
   58.0360   31.4620   45.1750 C   0  0  0  0  0  0  0  0  0  0  0  0
   58.6570   32.7500   45.3250 N   0  0  0  0  0  0  0  0  0  0  0  0
   58.5020   33.4570   44.5690 H   0  0  0  0  0  0  0  0  0  0  0  0
   59.4580   33.1410   46.4540 C   0  0  0  0  0  0  0  0  0  0  0  0
   58.8760   33.7200   47.5970 C   0  0  0  0  0  0  0  0  0  0  0  0
   57.7851   33.8514   47.6491 H   0  0  0  0  0  0  0  0  0  0  0  0
   59.6760   34.1280   48.6640 C   0  0  0  0  0  0  0  0  0  0  0  0
   59.2130   34.5719   49.5577 H   0  0  0  0  0  0  0  0  0  0  0  0
   61.0630   33.9750   48.6020 C   0  0  0  0  0  0  0  0  0  0  0  0
   61.6884   34.3085   49.4433 H   0  0  0  0  0  0  0  0  0  0  0  0
   61.6640   33.3970   47.4700 C   0  0  0  0  0  0  0  0  0  0  0  0
   63.1660   33.2870   47.3830 C   0  0  0  0  0  0  0  0  0  0  0  0
   63.7600   33.8390   48.5040 F   0  0  0  0  0  0  0  0  0  0  0  0
   63.5570   31.9610   47.2960 F   0  0  0  0  0  0  0  0  0  0  0  0
   63.6070   33.9610   46.2600 F   0  0  0  0  0  0  0  0  0  0  0  0
   60.8530   33.0120   46.3880 C   0  0  0  0  0  0  0  0  0  0  0  0
   61.3184   32.6045   45.4784 H   0  0  0  0  0  0  0  0  0  0  0  0
   56.8480   31.3510   44.4440 C   0  0  0  0  0  0  0  0  0  0  0  0
   56.3980   32.2420   43.9819 H   0  0  0  0  0  0  0  0  0  0  0  0
  1  2  1  0
  2  3  2  0
  3  4  1  0
  4  5  1  0
  5  6  1  0
  6  7  1  0
  7  8  1  0
  7  9  1  0
  7 10  1  0
 10 11  1  0
 10 12  1  0
 10 13  1  0
 13 14  1  0
 14 15  2  0
 14 16  1  0
 16 17  1  0
 17 18  1  0
 18 19  1  0
 18 20  1  0
 18 21  1  0
 17 22  1  0
 22 23  1  0
 22 24  1  0
 22 25  1  0
 17 26  1  0
 26 27  1  0
 26 28  1  0
 26 29  1  0
 13 30  1  0
 30 31  1  0
 30 32  1  0
 30 33  1  0
 33 34  1  0
 33 35  1  0
  5 36  2  0
 36 37  1  0
 36 38  1  0
 38 39  1  0
 39 40  1  0
 39 41  1  0
 41 42  2  0
 42 43  1  0
 42 44  1  0
 44 45  1  0
 44 46  2  0
 46 47  1  0
 46 48  1  0
 48 49  1  0
 49 50  1  0
 49 51  1  0
 49 52  1  0
 48 53  2  0
 53 54  1  0
 38 55  2  0
 55 56  1  0
 55  3  1  0
 33  6  1  0
 53 41  1  0
M  CHG  1   4  -1
M  END
>  <UniqueID>  (67) 
60

>  <SMILES>  (67) 
[H]/N=c1/cc(Nc2cccc(C(F)(F)F)c2)cc(N2CCN(C(=O)OC(C)(C)C)CC2)[n-]1

>  <Energy>  (67) 
61.15036723611278

>  <Genealogy>  (67) 
CC(C)(C)OC(=O)N1CCN(c2cc(Nc3cccc(C(F)(F)F)c3)cc(=N)[n-]2)CC1 (protonated)
[H]/N=c1/cc(Nc2cccc(C(F)(F)F)c2)cc(N2CCN(C(=O)OC(C)(C)C)CC2)[n-]1 (cis-trans isomerization)
[H]/N=c1/cc(Nc2cccc(C(F)(F)F)c2)cc(N2CCN(C(=O)OC(C)(C)C)CC2)[n-]1 (3D coordinates assigned)
[H]/N=c1/cc(Nc2cccc(C(F)(F)F)c2)cc(N2CCN(C(=O)OC(C)(C)C)CC2)[n-]1 (nonaromatic ring conformer: 61.15036723611278 kcal/mol)

>  <smiles>  (67) 
CC(C)(C)OC(=O)N1CCN(c2cc(Nc3cccc(C(F)(F)F)c3)cc(=N)[nH]2)CC1

>  <score_type>  (67) 
oracle

>  <origin>  (67) 
adg

>  <m_score__min__energy>  (67) 
-9.4000000000000004

>  <m_primary>  (67) 
energy

$$$$
67:0
     RDKit          3D

 39 41  0  0  0  0  0  0  0  0999 V2000
   54.1770   26.6670   46.7370 H   0  0  0  0  0  0  0  0  0  0  0  0
   54.7300   26.2690   45.9890 O   0  0  0  0  0  0  0  0  0  0  0  0
   56.1200   26.1790   46.0590 C   0  0  0  0  0  0  0  0  0  0  0  0
   56.7140   25.0030   46.5160 C   0  0  0  0  0  0  0  0  0  0  0  0
   56.0830   24.1533   46.8158 H   0  0  0  0  0  0  0  0  0  0  0  0
   58.1080   24.8960   46.5960 C   0  0  0  0  0  0  0  0  0  0  0  0
   58.5552   23.9594   46.9603 H   0  0  0  0  0  0  0  0  0  0  0  0
   58.9540   25.9650   46.2190 C   0  0  0  0  0  0  0  0  0  0  0  0
   60.4390   25.7470   46.3470 C   0  0  0  0  0  0  0  0  0  0  0  0
   60.7133   25.7067   47.4115 H   0  0  0  0  0  0  0  0  0  0  0  0
   60.7136   24.7989   45.8615 H   0  0  0  0  0  0  0  0  0  0  0  0
   60.9745   26.5762   45.8615 H   0  0  0  0  0  0  0  0  0  0  0  0
   58.3480   27.1730   45.7490 C   0  0  0  0  0  0  0  0  0  0  0  0
   56.9510   27.2370   45.6860 C   0  0  0  0  0  0  0  0  0  0  0  0
   56.4770   28.7340   45.1080 S   0  0  0  0  0  0  0  0  0  0  0  0
   58.0640   29.2860   44.9610 C   0  0  0  0  0  0  0  0  0  0  0  0
   58.4180   30.4560   44.5000 N   0  0  0  0  0  0  0  0  0  0  0  0
   57.5920   31.5910   44.1860 C   0  0  0  0  0  0  0  0  0  0  0  0
   56.3830   31.5690   44.5380 O   0  0  0  0  0  0  0  0  0  0  0  0
   58.0860   32.7680   43.3960 C   0  0  0  0  0  0  0  0  0  0  0  0
   59.1279   32.5916   43.0905 H   0  0  0  0  0  0  0  0  0  0  0  0
   57.4555   32.8976   42.5040 H   0  0  0  0  0  0  0  0  0  0  0  0
   58.0200   33.9470   44.1950 O   0  0  0  0  0  0  0  0  0  0  0  0
   58.5070   34.0460   45.5060 C   0  0  0  0  0  0  0  0  0  0  0  0
   59.4930   35.0040   45.7780 C   0  0  0  0  0  0  0  0  0  0  0  0
   59.8589   35.6557   44.9709 H   0  0  0  0  0  0  0  0  0  0  0  0
   60.0150   35.1370   47.0690 C   0  0  0  0  0  0  0  0  0  0  0  0
   60.7895   35.8907   47.2739 H   0  0  0  0  0  0  0  0  0  0  0  0
   59.5530   34.3130   48.0980 C   0  0  0  0  0  0  0  0  0  0  0  0
   59.9643   34.4178   49.1128 H   0  0  0  0  0  0  0  0  0  0  0  0
   58.5690   33.3560   47.8390 C   0  0  0  0  0  0  0  0  0  0  0  0
   58.2061   32.7081   48.6505 H   0  0  0  0  0  0  0  0  0  0  0  0
   58.0440   33.2200   46.5490 C   0  0  0  0  0  0  0  0  0  0  0  0
   57.2680   32.4664   46.3489 H   0  0  0  0  0  0  0  0  0  0  0  0
   58.9720   28.3330   45.3310 N   0  0  0  0  0  0  0  0  0  0  0  0
   60.4220   28.5720   45.2720 C   0  0  0  0  0  0  0  0  0  0  0  0
   60.8245   28.6384   46.2935 H   0  0  0  0  0  0  0  0  0  0  0  0
   60.9090   27.7420   44.7392 H   0  0  0  0  0  0  0  0  0  0  0  0
   60.6169   29.5144   44.7392 H   0  0  0  0  0  0  0  0  0  0  0  0
  1  2  1  0
  2  3  1  0
  3  4  2  0
  4  5  1  0
  4  6  1  0
  6  7  1  0
  6  8  2  0
  8  9  1  0
  9 10  1  0
  9 11  1  0
  9 12  1  0
  8 13  1  0
 13 14  2  0
 14 15  1  0
 15 16  1  0
 16 17  2  0
 17 18  1  0
 18 19  2  0
 18 20  1  0
 20 21  1  0
 20 22  1  0
 20 23  1  0
 23 24  1  0
 24 25  2  0
 25 26  1  0
 25 27  1  0
 27 28  1  0
 27 29  2  0
 29 30  1  0
 29 31  1  0
 31 32  1  0
 31 33  2  0
 33 34  1  0
 16 35  1  0
 35 36  1  0
 36 37  1  0
 36 38  1  0
 36 39  1  0
 14  3  1  0
 33 24  1  0
 35 13  1  0
M  END
>  <UniqueID>  (68) 
61

>  <SMILES>  (68) 
Cc1ccc(O)c2s/c(=N\C(=O)COc3ccccc3)n(C)c12

>  <Energy>  (68) 
88.82224606139148

>  <Genealogy>  (68) 
Cc1ccc(O)c2s/c(=N\C(=O)COc3ccccc3)n(C)c12 (cis-trans isomerization)
Cc1ccc(O)c2s/c(=N\C(=O)COc3ccccc3)n(C)c12 (3D coordinates assigned)
Cc1ccc(O)c2s/c(=N\C(=O)COc3ccccc3)n(C)c12 (optimized conformer: 88.82224606139148 kcal/mol)

>  <smiles>  (68) 
Cc1ccc(O)c2sc(=NC(=O)COc3ccccc3)n(C)c12

>  <score_type>  (68) 
oracle

>  <origin>  (68) 
adg

>  <m_score__min__energy>  (68) 
-9.0600000000000005

>  <m_primary>  (68) 
energy

$$$$
68:0
     RDKit          3D

 44 46  0  0  0  0  0  0  0  0999 V2000
   54.9920   22.5400   45.3880 C   0  0  0  0  0  0  0  0  0  0  0  0
   55.3000   23.9580   45.1360 N   0  0  0  0  0  0  0  0  0  0  0  0
   55.7030   24.6260   46.3970 C   0  0  0  0  0  0  0  0  0  0  0  0
   56.3620   25.9850   46.1380 C   0  0  0  0  0  0  0  0  0  0  0  0
   57.5050   25.8260   45.2380 N   0  0  0  0  0  0  0  0  0  0  0  0
   58.5970   26.7520   45.3120 C   0  0  0  0  0  0  0  0  0  0  0  0
   59.7070   26.4290   46.1050 C   0  0  0  0  0  0  0  0  0  0  0  0
   60.7710   27.3230   46.2250 C   0  0  0  0  0  0  0  0  0  0  0  0
   60.7320   28.5460   45.5600 C   0  0  0  0  0  0  0  0  0  0  0  0
   59.6340   28.8780   44.7620 C   0  0  0  0  0  0  0  0  0  0  0  0
   58.5550   27.9820   44.6180 C   0  0  0  0  0  0  0  0  0  0  0  0
   57.4330   28.2880   43.7640 N   0  0  0  0  0  0  0  0  0  0  0  0
   56.4310   29.6940   43.9370 S   0  0  0  0  0  0  0  0  0  0  0  0
   55.8830   30.0810   42.5920 O   0  0  0  0  0  0  0  0  0  0  0  0
   55.2840   29.3720   44.8560 O   0  0  0  0  0  0  0  0  0  0  0  0
   57.3820   31.0340   44.5680 C   0  0  0  0  0  0  0  0  0  0  0  0
   57.8160   31.0340   45.9010 C   0  0  0  0  0  0  0  0  0  0  0  0
   58.5880   32.0960   46.3880 C   0  0  0  0  0  0  0  0  0  0  0  0
   58.9300   33.1580   45.5440 C   0  0  0  0  0  0  0  0  0  0  0  0
   59.9040   34.4810   46.1580 Cl  0  0  0  0  0  0  0  0  0  0  0  0
   58.4820   33.1710   44.2170 C   0  0  0  0  0  0  0  0  0  0  0  0
   57.7110   32.1110   43.7290 C   0  0  0  0  0  0  0  0  0  0  0  0
   57.6460   24.6060   44.4450 C   0  0  0  0  0  0  0  0  0  0  0  0
   56.2610   24.1110   44.0090 C   0  0  0  0  0  0  0  0  0  0  0  0
   54.9530   22.3604   46.4725 H   0  0  0  0  0  0  0  0  0  0  0  0
   54.0188   22.2909   44.9398 H   0  0  0  0  0  0  0  0  0  0  0  0
   55.7742   21.9096   44.9398 H   0  0  0  0  0  0  0  0  0  0  0  0
   54.8096   24.7770   47.0208 H   0  0  0  0  0  0  0  0  0  0  0  0
   56.4366   23.9824   46.9045 H   0  0  0  0  0  0  0  0  0  0  0  0
   55.6283   26.6634   45.6781 H   0  0  0  0  0  0  0  0  0  0  0  0
   56.7113   26.4038   47.0933 H   0  0  0  0  0  0  0  0  0  0  0  0
   59.7391   25.4658   46.6352 H   0  0  0  0  0  0  0  0  0  0  0  0
   61.6412   27.0619   46.8451 H   0  0  0  0  0  0  0  0  0  0  0  0
   61.5683   29.2530   45.6633 H   0  0  0  0  0  0  0  0  0  0  0  0
   59.6113   29.8469   44.2416 H   0  0  0  0  0  0  0  0  0  0  0  0
   57.2310   27.6840   42.9370 H   0  0  0  0  0  0  0  0  0  0  0  0
   57.5498   30.1987   46.5653 H   0  0  0  0  0  0  0  0  0  0  0  0
   58.9257   32.0952   47.4349 H   0  0  0  0  0  0  0  0  0  0  0  0
   58.7365   34.0148   43.5587 H   0  0  0  0  0  0  0  0  0  0  0  0
   57.3617   32.1210   42.6860 H   0  0  0  0  0  0  0  0  0  0  0  0
   58.2561   24.8170   43.5544 H   0  0  0  0  0  0  0  0  0  0  0  0
   58.1358   23.8307   45.0525 H   0  0  0  0  0  0  0  0  0  0  0  0
   55.8436   24.8331   43.2918 H   0  0  0  0  0  0  0  0  0  0  0  0
   56.3998   23.1137   43.5662 H   0  0  0  0  0  0  0  0  0  0  0  0
  1  2  1  0
  2  3  1  0
  3  4  1  0
  4  5  1  0
  5  6  1  0
  6  7  2  0
  7  8  1  0
  8  9  2  0
  9 10  1  0
 10 11  2  0
 11 12  1  0
 12 13  1  0
 13 14  2  0
 13 15  2  0
 13 16  1  0
 16 17  2  0
 17 18  1  0
 18 19  2  0
 19 20  1  0
 19 21  1  0
 21 22  2  0
  5 23  1  0
 23 24  1  0
 24  2  1  0
 11  6  1  0
 22 16  1  0
  1 25  1  0
  1 26  1  0
  1 27  1  0
  3 28  1  0
  3 29  1  0
  4 30  1  0
  4 31  1  0
  7 32  1  0
  8 33  1  0
  9 34  1  0
 10 35  1  0
 12 36  1  0
 17 37  1  0
 18 38  1  0
 21 39  1  0
 22 40  1  0
 23 41  1  0
 23 42  1  0
 24 43  1  0
 24 44  1  0
M  END
>  <UniqueID>  (69) 
62

>  <SMILES>  (69) 
CN1CCN(c2ccccc2NS(=O)(=O)c2ccc(Cl)cc2)CC1

>  <Energy>  (69) 
60.28116002343049

>  <Genealogy>  (69) 
CN1CCN(c2ccccc2NS(=O)(=O)c2ccc(Cl)cc2)CC1 (3D coordinates assigned)
CN1CCN(c2ccccc2NS(=O)(=O)c2ccc(Cl)cc2)CC1 (nonaromatic ring conformer: 60.28116002343049 kcal/mol)

>  <smiles>  (69) 
CN1CCN(c2ccccc2NS(=O)(=O)c2ccc(Cl)cc2)CC1

>  <score_type>  (69) 
oracle

>  <origin>  (69) 
adg

>  <m_score__min__energy>  (69) 
-8.3900000000000006

>  <m_primary>  (69) 
energy

$$$$
69:0
     RDKit          3D

 43 46  0  0  0  0  0  0  0  0999 V2000
   58.1350   32.3230   43.4000 C   0  0  0  0  0  0  0  0  0  0  0  0
   57.3250   32.1870   44.6940 C   0  0  0  0  0  0  0  0  0  0  0  0
   58.1850   32.4660   45.9270 C   0  0  0  0  0  0  0  0  0  0  0  0
   56.6380   30.8470   44.8000 C   0  0  0  0  0  0  0  0  0  0  0  0
   55.4950   30.5380   44.1220 N   0  0  0  0  0  0  0  0  0  0  0  0
   55.1540   29.2700   44.3620 N   0  0  0  0  0  0  0  0  0  0  0  0
   56.0930   28.8220   45.2010 C   0  0  0  0  0  0  0  0  0  0  0  0
   56.3240   27.6090   45.7180 N   0  0  0  0  0  0  0  0  0  0  0  0
   57.4550   27.7480   46.4130 N   0  0  0  0  0  0  0  0  0  0  0  0
   57.8940   29.0340   46.3090 C   0  0  0  0  0  0  0  0  0  0  0  0
   59.1300   29.5350   46.9160 C   0  0  0  0  0  0  0  0  0  0  0  0
   60.2740   29.7190   46.1320 C   0  0  0  0  0  0  0  0  0  0  0  0
   61.4270   30.2770   46.6940 C   0  0  0  0  0  0  0  0  0  0  0  0
   61.4480   30.6550   48.0420 C   0  0  0  0  0  0  0  0  0  0  0  0
   62.6000   31.2820   48.5420 O   0  0  0  0  0  0  0  0  0  0  0  0
   62.9510   32.6480   48.3130 C   0  0  0  0  0  0  0  0  0  0  0  0
   61.7280   33.4590   47.9670 C   0  0  0  0  0  0  0  0  0  0  0  0
   60.7960   33.7900   48.9640 C   0  0  0  0  0  0  0  0  0  0  0  0
   59.6780   34.5680   48.6550 C   0  0  0  0  0  0  0  0  0  0  0  0
   59.4770   35.0170   47.3460 C   0  0  0  0  0  0  0  0  0  0  0  0
   60.3930   34.6830   46.3450 C   0  0  0  0  0  0  0  0  0  0  0  0
   61.5130   33.9030   46.6500 C   0  0  0  0  0  0  0  0  0  0  0  0
   60.3150   30.4080   48.8420 C   0  0  0  0  0  0  0  0  0  0  0  0
   59.1660   29.8480   48.2800 C   0  0  0  0  0  0  0  0  0  0  0  0
   57.0110   29.7180   45.5040 C   0  0  0  0  0  0  0  0  0  0  0  0
   59.1923   32.5005   43.6462 H   0  0  0  0  0  0  0  0  0  0  0  0
   58.0457   31.3973   42.8125 H   0  0  0  0  0  0  0  0  0  0  0  0
   57.7483   33.1688   42.8125 H   0  0  0  0  0  0  0  0  0  0  0  0
   56.5357   32.9522   44.6538 H   0  0  0  0  0  0  0  0  0  0  0  0
   57.5957   32.2748   46.8360 H   0  0  0  0  0  0  0  0  0  0  0  0
   59.0662   31.8076   45.9161 H   0  0  0  0  0  0  0  0  0  0  0  0
   58.5119   33.5163   45.9161 H   0  0  0  0  0  0  0  0  0  0  0  0
   60.2668   29.4245   45.0722 H   0  0  0  0  0  0  0  0  0  0  0  0
   62.3234   30.4198   46.0726 H   0  0  0  0  0  0  0  0  0  0  0  0
   63.4127   33.0600   49.2224 H   0  0  0  0  0  0  0  0  0  0  0  0
   63.6583   32.6963   47.4720 H   0  0  0  0  0  0  0  0  0  0  0  0
   60.9473   33.4346   49.9939 H   0  0  0  0  0  0  0  0  0  0  0  0
   58.9549   34.8278   49.4421 H   0  0  0  0  0  0  0  0  0  0  0  0
   58.5982   35.6329   47.1044 H   0  0  0  0  0  0  0  0  0  0  0  0
   60.2328   35.0343   45.3150 H   0  0  0  0  0  0  0  0  0  0  0  0
   62.2277   33.6360   45.8576 H   0  0  0  0  0  0  0  0  0  0  0  0
   60.3356   30.6572   49.9132 H   0  0  0  0  0  0  0  0  0  0  0  0
   58.2865   29.6522   48.9109 H   0  0  0  0  0  0  0  0  0  0  0  0
  1  2  1  0
  2  3  1  0
  2  4  1  0
  4  5  2  0
  5  6  1  0
  6  7  1  0
  7  8  1  0
  8  9  1  0
  9 10  2  0
 10 11  1  0
 11 12  2  0
 12 13  1  0
 13 14  2  0
 14 15  1  0
 15 16  1  0
 16 17  1  0
 17 18  2  0
 18 19  1  0
 19 20  2  0
 20 21  1  0
 21 22  2  0
 14 23  1  0
 23 24  2  0
 10 25  1  0
 25  4  1  0
 25  7  2  0
 24 11  1  0
 22 17  1  0
  1 26  1  0
  1 27  1  0
  1 28  1  0
  2 29  1  0
  3 30  1  0
  3 31  1  0
  3 32  1  0
 12 33  1  0
 13 34  1  0
 16 35  1  0
 16 36  1  0
 18 37  1  0
 19 38  1  0
 20 39  1  0
 21 40  1  0
 22 41  1  0
 23 42  1  0
 24 43  1  0
M  CHG  2   6  -1   8  -1
M  END
>  <UniqueID>  (70) 
63

>  <SMILES>  (70) 
CC(C)c1n[n-]c2[n-]nc(-c3ccc(OCc4ccccc4)cc3)c12

>  <Energy>  (70) 
144.459653640194

>  <Genealogy>  (70) 
CC(C)c1n[n-]c2[n-]nc(-c3ccc(OCc4ccccc4)cc3)c12 (protonated)
CC(C)c1n[n-]c2[n-]nc(-c3ccc(OCc4ccccc4)cc3)c12 (3D coordinates assigned)
CC(C)c1n[n-]c2[n-]nc(-c3ccc(OCc4ccccc4)cc3)c12 (optimized conformer: 144.459653640194 kcal/mol)

>  <smiles>  (70) 
CC(C)c1n[nH]c2[nH]nc(-c3ccc(OCc4ccccc4)cc3)c12

>  <score_type>  (70) 
oracle

>  <origin>  (70) 
adg

>  <m_score__min__energy>  (70) 
-11.859999999999999

>  <m_primary>  (70) 
energy

$$$$
70:0
     RDKit          3D

 35 37  0  0  0  0  0  0  0  0999 V2000
   57.5387   34.3513   47.2740 H   0  0  0  0  0  0  0  0  0  0  0  0
   57.7140   33.8630   46.3040 C   0  0  0  0  0  0  0  0  0  0  0  0
   57.0050   32.7530   45.9640 N   0  0  0  0  0  0  0  0  0  0  0  0
   57.1900   32.1160   44.7720 C   0  0  0  0  0  0  0  0  0  0  0  0
   56.5050   31.0550   44.4560 N   0  0  0  0  0  0  0  0  0  0  0  0
   56.5920   29.7510   45.0620 C   0  0  0  0  0  0  0  0  0  0  0  0
   55.6270   28.9410   44.9800 O   0  0  0  0  0  0  0  0  0  0  0  0
   57.8240   29.3560   45.7850 C   0  0  0  0  0  0  0  0  0  0  0  0
   58.3290   28.0470   45.6770 C   0  0  0  0  0  0  0  0  0  0  0  0
   57.7996   27.3062   45.0598 H   0  0  0  0  0  0  0  0  0  0  0  0
   59.4990   27.6820   46.3490 C   0  0  0  0  0  0  0  0  0  0  0  0
   60.1240   26.0490   46.1950 Cl  0  0  0  0  0  0  0  0  0  0  0  0
   60.1720   28.6130   47.1430 C   0  0  0  0  0  0  0  0  0  0  0  0
   61.0970   28.3222   47.6625 H   0  0  0  0  0  0  0  0  0  0  0  0
   59.6760   29.9130   47.2810 C   0  0  0  0  0  0  0  0  0  0  0  0
   60.3880   30.8220   48.0780 O   0  0  0  0  0  0  0  0  0  0  0  0
   61.3560   31.7260   47.6120 C   0  0  0  0  0  0  0  0  0  0  0  0
   61.0180   32.9980   47.1200 C   0  0  0  0  0  0  0  0  0  0  0  0
   59.9641   33.3101   47.0773 H   0  0  0  0  0  0  0  0  0  0  0  0
   62.0210   33.8640   46.6860 C   0  0  0  0  0  0  0  0  0  0  0  0
   61.7634   34.8575   46.2904 H   0  0  0  0  0  0  0  0  0  0  0  0
   63.3550   33.4590   46.7580 C   0  0  0  0  0  0  0  0  0  0  0  0
   64.1528   34.1328   46.4124 H   0  0  0  0  0  0  0  0  0  0  0  0
   63.6700   32.2320   47.2550 N   0  0  0  0  0  0  0  0  0  0  0  0
   64.6730   31.9450   47.3100 H   0  0  0  0  0  0  0  0  0  0  0  0
   62.7070   31.3710   47.6850 C   0  0  0  0  0  0  0  0  0  0  0  0
   62.9932   30.3901   48.0924 H   0  0  0  0  0  0  0  0  0  0  0  0
   58.5120   30.2860   46.5870 C   0  0  0  0  0  0  0  0  0  0  0  0
   58.1346   31.3158   46.6715 H   0  0  0  0  0  0  0  0  0  0  0  0
   58.1340   32.6130   43.8650 C   0  0  0  0  0  0  0  0  0  0  0  0
   58.2927   32.1103   42.8995 H   0  0  0  0  0  0  0  0  0  0  0  0
   58.8730   33.7520   44.1950 C   0  0  0  0  0  0  0  0  0  0  0  0
   59.6171   34.1504   43.4896 H   0  0  0  0  0  0  0  0  0  0  0  0
   58.6640   34.3830   45.4230 C   0  0  0  0  0  0  0  0  0  0  0  0
   59.3740   35.4890   45.7540 F   0  0  0  0  0  0  0  0  0  0  0  0
  1  2  1  0
  2  3  1  0
  3  4  1  0
  4  5  2  0
  5  6  1  0
  6  7  2  0
  6  8  1  0
  8  9  2  0
  9 10  1  0
  9 11  1  0
 11 12  1  0
 11 13  2  0
 13 14  1  0
 13 15  1  0
 15 16  1  0
 16 17  1  0
 17 18  2  0
 18 19  1  0
 18 20  1  0
 20 21  1  0
 20 22  2  0
 22 23  1  0
 22 24  1  0
 24 25  1  0
 24 26  2  0
 26 27  1  0
 15 28  2  0
 28 29  1  0
  4 30  1  0
 30 31  1  0
 30 32  2  0
 32 33  1  0
 32 34  1  0
 34 35  1  0
 34  2  2  0
 28  8  1  0
 26 17  1  0
M  CHG  2   3  -1  24   1
M  END
>  <UniqueID>  (71) 
64

>  <SMILES>  (71) 
O=C(/N=c1/ccc(F)c[n-]1)c1cc(Cl)cc(Oc2ccc[nH+]c2)c1

>  <Energy>  (71) 
48.550613880940766

>  <Genealogy>  (71) 
O=C(N=c1ccc(F)c[n-]1)c1cc(Cl)cc(Oc2ccc[nH+]c2)c1 (protonated)
O=C(/N=c1/ccc(F)c[n-]1)c1cc(Cl)cc(Oc2ccc[nH+]c2)c1 (cis-trans isomerization)
O=C(/N=c1/ccc(F)c[n-]1)c1cc(Cl)cc(Oc2ccc[nH+]c2)c1 (3D coordinates assigned)
O=C(/N=c1/ccc(F)c[n-]1)c1cc(Cl)cc(Oc2ccc[nH+]c2)c1 (optimized conformer: 48.550613880940766 kcal/mol)

>  <smiles>  (71) 
O=C(N=c1ccc(F)c[nH]1)c1cc(Cl)cc(Oc2cccnc2)c1

>  <score_type>  (71) 
oracle

>  <origin>  (71) 
adg

>  <m_score__min__energy>  (71) 
-8.6600000000000001

>  <m_primary>  (71) 
energy

$$$$
71:0
     RDKit          3D

 51 52  0  0  0  0  0  0  0  0999 V2000
   55.2110   24.2230   45.8720 C   0  0  0  0  0  0  0  0  0  0  0  0
   55.6080   25.4970   46.3680 O   0  0  0  0  0  0  0  0  0  0  0  0
   56.7700   26.1740   45.9690 C   0  0  0  0  0  0  0  0  0  0  0  0
   57.3440   26.0040   44.6950 C   0  0  0  0  0  0  0  0  0  0  0  0
   58.5010   26.7060   44.3450 C   0  0  0  0  0  0  0  0  0  0  0  0
   59.1070   27.5780   45.2600 C   0  0  0  0  0  0  0  0  0  0  0  0
   60.3040   28.3960   44.8530 C   0  0  0  0  0  0  0  0  0  0  0  0
   60.0610   29.8140   45.1160 N   0  0  0  0  0  0  0  0  0  0  0  0
   58.8910   30.5290   44.6770 C   0  0  0  0  0  0  0  0  0  0  0  0
   57.9890   29.9510   43.9350 N   0  0  0  0  0  0  0  0  0  0  0  0
   58.7580   31.9080   45.0600 N   0  0  0  0  0  0  0  0  0  0  0  0
   57.5010   32.6600   45.0110 C   0  0  0  0  0  0  0  0  0  0  0  0
   57.5210   33.8320   46.0100 C   0  0  0  0  0  0  0  0  0  0  0  0
   58.9040   34.4930   46.1470 C   0  0  0  0  0  0  0  0  0  0  0  0
   59.6260   34.0200   47.3300 N   0  0  0  0  0  0  0  0  0  0  0  0
   59.5290   34.5420   48.5440 N   0  0  0  0  0  0  0  0  0  0  0  0
   60.4210   33.8910   49.3220 C   0  0  0  0  0  0  0  0  0  0  0  0
   60.6810   34.1860   50.6640 O   0  0  0  0  0  0  0  0  0  0  0  0
   60.0530   33.5010   51.7390 C   0  0  0  0  0  0  0  0  0  0  0  0
   61.0700   32.9310   48.6280 N   0  0  0  0  0  0  0  0  0  0  0  0
   62.1800   32.0930   49.0680 C   0  0  0  0  0  0  0  0  0  0  0  0
   60.5680   33.0570   47.3860 C   0  0  0  0  0  0  0  0  0  0  0  0
   60.9510   32.3790   46.3950 O   0  0  0  0  0  0  0  0  0  0  0  0
   58.5280   27.7580   46.5260 C   0  0  0  0  0  0  0  0  0  0  0  0
   57.3720   27.0530   46.8770 C   0  0  0  0  0  0  0  0  0  0  0  0
   55.0012   23.5499   46.7164 H   0  0  0  0  0  0  0  0  0  0  0  0
   54.3050   24.3346   45.2582 H   0  0  0  0  0  0  0  0  0  0  0  0
   56.0200   23.8001   45.2582 H   0  0  0  0  0  0  0  0  0  0  0  0
   56.8805   25.3163   43.9723 H   0  0  0  0  0  0  0  0  0  0  0  0
   58.9389   26.5732   43.3447 H   0  0  0  0  0  0  0  0  0  0  0  0
   61.1820   28.0654   45.4272 H   0  0  0  0  0  0  0  0  0  0  0  0
   60.4843   28.2567   43.7768 H   0  0  0  0  0  0  0  0  0  0  0  0
   60.7660   30.3480   45.6750 H   0  0  0  0  0  0  0  0  0  0  0  0
   58.1590   29.7270   42.9320 H   0  0  0  0  0  0  0  0  0  0  0  0
   57.0450   29.7110   44.3080 H   0  0  0  0  0  0  0  0  0  0  0  0
   59.6070   32.3780   45.4470 H   0  0  0  0  0  0  0  0  0  0  0  0
   57.3577   33.0557   43.9947 H   0  0  0  0  0  0  0  0  0  0  0  0
   56.6766   31.9834   45.2803 H   0  0  0  0  0  0  0  0  0  0  0  0
   56.8029   34.5927   45.6699 H   0  0  0  0  0  0  0  0  0  0  0  0
   57.2567   33.4232   46.9964 H   0  0  0  0  0  0  0  0  0  0  0  0
   59.4989   34.2597   45.2516 H   0  0  0  0  0  0  0  0  0  0  0  0
   58.7521   35.5772   46.2540 H   0  0  0  0  0  0  0  0  0  0  0  0
   58.9050   35.3380   48.8100 H   0  0  0  0  0  0  0  0  0  0  0  0
   60.4211   33.9026   52.6946 H   0  0  0  0  0  0  0  0  0  0  0  0
   58.9638   33.6420   51.6773 H   0  0  0  0  0  0  0  0  0  0  0  0
   60.2879   32.4281   51.6773 H   0  0  0  0  0  0  0  0  0  0  0  0
   62.2093   32.0708   50.1674 H   0  0  0  0  0  0  0  0  0  0  0  0
   62.0427   31.0713   48.6842 H   0  0  0  0  0  0  0  0  0  0  0  0
   63.1250   32.5049   48.6842 H   0  0  0  0  0  0  0  0  0  0  0  0
   58.9845   28.4553   47.2439 H   0  0  0  0  0  0  0  0  0  0  0  0
   56.9319   27.1906   47.8757 H   0  0  0  0  0  0  0  0  0  0  0  0
  1  2  1  0
  2  3  1  0
  3  4  2  0
  4  5  1  0
  5  6  2  0
  6  7  1  0
  7  8  1  0
  8  9  1  0
  9 10  2  0
  9 11  1  0
 11 12  1  0
 12 13  1  0
 13 14  1  0
 14 15  1  0
 15 16  1  0
 16 17  2  0
 17 18  1  0
 18 19  1  0
 17 20  1  0
 20 21  1  0
 20 22  1  0
 22 23  2  0
  6 24  1  0
 24 25  2  0
 25  3  1  0
 22 15  1  0
  1 26  1  0
  1 27  1  0
  1 28  1  0
  4 29  1  0
  5 30  1  0
  7 31  1  0
  7 32  1  0
  8 33  1  0
 10 34  1  0
 10 35  1  0
 11 36  1  0
 12 37  1  0
 12 38  1  0
 13 39  1  0
 13 40  1  0
 14 41  1  0
 14 42  1  0
 16 43  1  0
 19 44  1  0
 19 45  1  0
 19 46  1  0
 21 47  1  0
 21 48  1  0
 21 49  1  0
 24 50  1  0
 25 51  1  0
M  CHG  2  10   1  16   1
M  END
>  <UniqueID>  (72) 
65

>  <SMILES>  (72) 
COc1ccc(CNC(=[NH2+])NCCCn2[nH+]c(OC)n(C)c2=O)cc1

>  <Energy>  (72) 
76.35002692799785

>  <Genealogy>  (72) 
COc1ccc(CNC(=[NH2+])NCCCn2[nH+]c(OC)n(C)c2=O)cc1 (protonated)
COc1ccc(CNC(=[NH2+])NCCCn2[nH+]c(OC)n(C)c2=O)cc1 (3D coordinates assigned)
COc1ccc(CNC(=[NH2+])NCCCn2[nH+]c(OC)n(C)c2=O)cc1 (optimized conformer: 76.35002692799785 kcal/mol)

>  <smiles>  (72) 
COc1ccc(CNC(=N)NCCCn2nc(OC)n(C)c2=O)cc1

>  <score_type>  (72) 
oracle

>  <origin>  (72) 
adg

>  <m_score__min__energy>  (72) 
-4.3399999999999999

>  <m_primary>  (72) 
energy

$$$$
72:0
     RDKit          3D

 38 40  0  0  0  0  0  0  0  0999 V2000
   58.7950   33.8180   44.2690 C   0  0  0  0  0  0  0  0  0  0  0  0
   58.8610   33.6190   45.7270 N   0  0  0  0  0  0  0  0  0  0  0  0
   58.4330   32.4390   46.2880 C   0  0  0  0  0  0  0  0  0  0  0  0
   57.9090   31.3750   45.4790 N   0  0  0  0  0  0  0  0  0  0  0  0
   56.7450   31.6200   44.6250 C   0  0  0  0  0  0  0  0  0  0  0  0
   56.1670   30.2950   44.1180 C   0  0  0  0  0  0  0  0  0  0  0  0
   56.0980   29.3190   45.2130 N   0  0  0  0  0  0  0  0  0  0  0  0
   57.4280   28.9580   45.7470 C   0  0  0  0  0  0  0  0  0  0  0  0
   58.5090   30.0400   45.5450 C   0  0  0  0  0  0  0  0  0  0  0  0
   58.4990   32.2480   47.6730 C   0  0  0  0  0  0  0  0  0  0  0  0
   58.9750   33.2700   48.5020 C   0  0  0  0  0  0  0  0  0  0  0  0
   59.0500   33.0850   49.9740 C   0  0  0  0  0  0  0  0  0  0  0  0
   60.2510   33.3160   50.6630 C   0  0  0  0  0  0  0  0  0  0  0  0
   60.2820   33.1230   52.0420 C   0  0  0  0  0  0  0  0  0  0  0  0
   59.1630   32.7200   52.6950 N   0  0  0  0  0  0  0  0  0  0  0  0
   58.0050   32.5000   52.0230 C   0  0  0  0  0  0  0  0  0  0  0  0
   57.9500   32.6800   50.6760 N   0  0  0  0  0  0  0  0  0  0  0  0
   59.3720   34.4770   47.9180 C   0  0  0  0  0  0  0  0  0  0  0  0
   59.3010   34.6420   46.5310 C   0  0  0  0  0  0  0  0  0  0  0  0
   59.6460   35.7490   46.0350 O   0  0  0  0  0  0  0  0  0  0  0  0
   58.4554   34.8419   44.0537 H   0  0  0  0  0  0  0  0  0  0  0  0
   59.7926   33.6631   43.8323 H   0  0  0  0  0  0  0  0  0  0  0  0
   58.0877   33.0976   43.8323 H   0  0  0  0  0  0  0  0  0  0  0  0
   55.9764   32.1530   45.2039 H   0  0  0  0  0  0  0  0  0  0  0  0
   57.0566   32.2270   43.7622 H   0  0  0  0  0  0  0  0  0  0  0  0
   55.1557   30.4680   43.7214 H   0  0  0  0  0  0  0  0  0  0  0  0
   56.8190   29.8992   43.3254 H   0  0  0  0  0  0  0  0  0  0  0  0
   55.5220   29.7290   45.9860 H   0  0  0  0  0  0  0  0  0  0  0  0
   57.3264   28.7699   46.8260 H   0  0  0  0  0  0  0  0  0  0  0  0
   57.7617   28.0715   45.1877 H   0  0  0  0  0  0  0  0  0  0  0  0
   59.2156   30.0043   46.3873 H   0  0  0  0  0  0  0  0  0  0  0  0
   59.0300   29.8424   44.5966 H   0  0  0  0  0  0  0  0  0  0  0  0
   58.1759   31.2921   48.1110 H   0  0  0  0  0  0  0  0  0  0  0  0
   61.1518   33.6437   50.1233 H   0  0  0  0  0  0  0  0  0  0  0  0
   61.2130   33.2972   52.6013 H   0  0  0  0  0  0  0  0  0  0  0  0
   57.1075   32.1749   52.5696 H   0  0  0  0  0  0  0  0  0  0  0  0
   57.0390   32.5210   50.1900 H   0  0  0  0  0  0  0  0  0  0  0  0
   59.7407   35.2980   48.5505 H   0  0  0  0  0  0  0  0  0  0  0  0
  1  2  1  0
  2  3  1  0
  3  4  1  0
  4  5  1  0
  5  6  1  0
  6  7  1  0
  7  8  1  0
  8  9  1  0
  3 10  2  0
 10 11  1  0
 11 12  1  0
 12 13  2  0
 13 14  1  0
 14 15  2  0
 15 16  1  0
 16 17  2  0
 11 18  2  0
 18 19  1  0
 19 20  2  0
 19  2  1  0
  9  4  1  0
 17 12  1  0
  1 21  1  0
  1 22  1  0
  1 23  1  0
  5 24  1  0
  5 25  1  0
  6 26  1  0
  6 27  1  0
  7 28  1  0
  8 29  1  0
  8 30  1  0
  9 31  1  0
  9 32  1  0
 10 33  1  0
 13 34  1  0
 14 35  1  0
 16 36  1  0
 17 37  1  0
 18 38  1  0
M  CHG  1  17   1
M  END
>  <UniqueID>  (73) 
66

>  <SMILES>  (73) 
Cn1c(N2CCNCC2)cc(-c2ccnc[nH+]2)cc1=O

>  <Energy>  (73) 
58.17966667460809

>  <Genealogy>  (73) 
Cn1c(N2CCNCC2)cc(-c2ccnc[nH+]2)cc1=O (protonated)
Cn1c(N2CCNCC2)cc(-c2ccnc[nH+]2)cc1=O (3D coordinates assigned)
Cn1c(N2CCNCC2)cc(-c2ccnc[nH+]2)cc1=O (nonaromatic ring conformer: 58.17966667460809 kcal/mol)

>  <smiles>  (73) 
Cn1c(N2CCNCC2)cc(-c2ccncn2)cc1=O

>  <score_type>  (73) 
oracle

>  <origin>  (73) 
adg

>  <m_score__min__energy>  (73) 
-5.6799999999999997

>  <m_primary>  (73) 
energy

$$$$
73:0
     RDKit          3D

 37 40  0  0  0  0  0  0  0  0999 V2000
   59.6660   25.9630   46.3770 C   0  0  0  0  0  0  0  0  0  0  0  0
   58.3820   25.4190   46.3700 C   0  0  0  0  0  0  0  0  0  0  0  0
   57.2970   26.2370   46.3540 N   0  0  0  0  0  0  0  0  0  0  0  0
   57.4210   27.5910   46.3570 C   0  0  0  0  0  0  0  0  0  0  0  0
   58.6950   28.1880   46.3760 C   0  0  0  0  0  0  0  0  0  0  0  0
   58.8570   29.6620   46.3720 C   0  0  0  0  0  0  0  0  0  0  0  0
   57.8880   30.4380   45.8100 N   0  0  0  0  0  0  0  0  0  0  0  0
   57.9940   31.7890   45.7860 C   0  0  0  0  0  0  0  0  0  0  0  0
   57.0190   32.5490   45.2240 N   0  0  0  0  0  0  0  0  0  0  0  0
   57.1200   33.9050   45.1930 C   0  0  0  0  0  0  0  0  0  0  0  0
   58.2440   34.5270   45.7450 C   0  0  0  0  0  0  0  0  0  0  0  0
   59.2210   33.7680   46.3110 N   0  0  0  0  0  0  0  0  0  0  0  0
   59.1190   32.4120   46.3460 C   0  0  0  0  0  0  0  0  0  0  0  0
   60.1130   31.6090   46.9150 C   0  0  0  0  0  0  0  0  0  0  0  0
   61.2930   32.1910   47.4850 N   0  0  0  0  0  0  0  0  0  0  0  0
   61.1730   33.0020   48.6960 C   0  0  0  0  0  0  0  0  0  0  0  0
   62.3550   33.9720   48.7850 C   0  0  0  0  0  0  0  0  0  0  0  0
   63.5830   33.2840   48.6370 O   0  0  0  0  0  0  0  0  0  0  0  0
   63.6730   32.7370   47.3340 C   0  0  0  0  0  0  0  0  0  0  0  0
   62.6060   31.6590   47.1220 C   0  0  0  0  0  0  0  0  0  0  0  0
   59.9670   30.2540   46.9100 N   0  0  0  0  0  0  0  0  0  0  0  0
   59.8220   27.3500   46.3760 C   0  0  0  0  0  0  0  0  0  0  0  0
   60.5476   25.3052   46.3832 H   0  0  0  0  0  0  0  0  0  0  0  0
   58.2474   24.3273   46.3774 H   0  0  0  0  0  0  0  0  0  0  0  0
   56.5207   28.2229   46.3445 H   0  0  0  0  0  0  0  0  0  0  0  0
   56.3220   34.5088   44.7363 H   0  0  0  0  0  0  0  0  0  0  0  0
   58.3377   35.6228   45.7218 H   0  0  0  0  0  0  0  0  0  0  0  0
   60.2331   33.5725   48.6627 H   0  0  0  0  0  0  0  0  0  0  0  0
   61.1737   32.3440   49.5775 H   0  0  0  0  0  0  0  0  0  0  0  0
   62.2648   34.7242   47.9875 H   0  0  0  0  0  0  0  0  0  0  0  0
   62.3395   34.4565   49.7724 H   0  0  0  0  0  0  0  0  0  0  0  0
   63.5272   33.5389   46.5953 H   0  0  0  0  0  0  0  0  0  0  0  0
   64.6658   32.2795   47.2114 H   0  0  0  0  0  0  0  0  0  0  0  0
   62.5982   31.3543   46.0651 H   0  0  0  0  0  0  0  0  0  0  0  0
   62.8352   30.7885   47.7542 H   0  0  0  0  0  0  0  0  0  0  0  0
   60.7380   29.6730   47.3080 H   0  0  0  0  0  0  0  0  0  0  0  0
   60.8310   27.7882   46.3752 H   0  0  0  0  0  0  0  0  0  0  0  0
  1  2  2  0
  2  3  1  0
  3  4  2  0
  4  5  1  0
  5  6  1  0
  6  7  2  0
  7  8  1  0
  8  9  2  0
  9 10  1  0
 10 11  2  0
 11 12  1  0
 12 13  2  0
 13 14  1  0
 14 15  1  0
 15 16  1  0
 16 17  1  0
 17 18  1  0
 18 19  1  0
 19 20  1  0
 14 21  2  0
  5 22  2  0
 22  1  1  0
 21  6  1  0
 13  8  1  0
 20 15  1  0
  1 23  1  0
  2 24  1  0
  4 25  1  0
 10 26  1  0
 11 27  1  0
 16 28  1  0
 16 29  1  0
 17 30  1  0
 17 31  1  0
 19 32  1  0
 19 33  1  0
 20 34  1  0
 20 35  1  0
 21 36  1  0
 22 37  1  0
M  CHG  1  21   1
M  END
>  <UniqueID>  (74) 
67

>  <SMILES>  (74) 
c1cncc(-c2nc3nccnc3c(N3CCOCC3)[nH+]2)c1

>  <Energy>  (74) 
56.544608424857

>  <Genealogy>  (74) 
c1cncc(-c2nc3nccnc3c(N3CCOCC3)[nH+]2)c1 (protonated)
c1cncc(-c2nc3nccnc3c(N3CCOCC3)[nH+]2)c1 (3D coordinates assigned)
c1cncc(-c2nc3nccnc3c(N3CCOCC3)[nH+]2)c1 (nonaromatic ring conformer: 56.544608424857 kcal/mol)

>  <smiles>  (74) 
c1cncc(-c2nc(N3CCOCC3)c3nccnc3n2)c1

>  <score_type>  (74) 
oracle

>  <origin>  (74) 
adg

>  <m_score__min__energy>  (74) 
-4.8600000000000003

>  <m_primary>  (74) 
energy

$$$$
74:0
     RDKit          3D

 48 51  0  0  0  0  0  0  0  0999 V2000
   56.2960   33.9360   45.2280 O   0  0  0  0  0  0  0  0  0  0  0  0
   57.5030   33.7760   45.5550 C   0  0  0  0  0  0  0  0  0  0  0  0
   58.2790   34.9020   45.9860 N   0  0  0  0  0  0  0  0  0  0  0  0
   59.7210   35.0110   45.7970 C   0  0  0  0  0  0  0  0  0  0  0  0
   60.4450   34.4440   46.9870 C   0  0  0  0  0  0  0  0  0  0  0  0
   59.8950   34.5800   48.2690 C   0  0  0  0  0  0  0  0  0  0  0  0
   60.5690   34.0720   49.3800 C   0  0  0  0  0  0  0  0  0  0  0  0
   61.8050   33.4380   49.2240 C   0  0  0  0  0  0  0  0  0  0  0  0
   62.3880   33.3210   47.9500 C   0  0  0  0  0  0  0  0  0  0  0  0
   63.7080   32.6150   47.7610 C   0  0  0  0  0  0  0  0  0  0  0  0
   63.5730   31.2650   48.0370 F   0  0  0  0  0  0  0  0  0  0  0  0
   64.1600   32.7470   46.4590 F   0  0  0  0  0  0  0  0  0  0  0  0
   64.6440   33.1600   48.6190 F   0  0  0  0  0  0  0  0  0  0  0  0
   61.6890   33.8090   46.8320 C   0  0  0  0  0  0  0  0  0  0  0  0
   58.1150   32.4280   45.4950 C   0  0  0  0  0  0  0  0  0  0  0  0
   58.6640   31.8360   46.6460 C   0  0  0  0  0  0  0  0  0  0  0  0
   59.2370   30.5600   46.5870 C   0  0  0  0  0  0  0  0  0  0  0  0
   59.2810   29.8510   45.3730 C   0  0  0  0  0  0  0  0  0  0  0  0
   59.8660   28.5410   45.2720 N   0  0  0  0  0  0  0  0  0  0  0  0
   59.8070   27.3430   46.5300 S   0  0  0  0  0  0  0  0  0  0  0  0
   59.7100   28.0180   47.8700 O   0  0  0  0  0  0  0  0  0  0  0  0
   61.0730   26.5370   46.5010 O   0  0  0  0  0  0  0  0  0  0  0  0
   58.4400   26.2660   46.2620 C   0  0  0  0  0  0  0  0  0  0  0  0
   58.6420   24.8790   46.0440 C   0  0  0  0  0  0  0  0  0  0  0  0
   57.5460   24.0250   45.8160 C   0  0  0  0  0  0  0  0  0  0  0  0
   56.2740   24.5900   45.8050 C   0  0  0  0  0  0  0  0  0  0  0  0
   55.1070   23.9770   45.5630 N   0  0  0  0  0  0  0  0  0  0  0  0
   54.2230   25.0080   45.6360 C   0  0  0  0  0  0  0  0  0  0  0  0
   52.9880   24.8520   45.4490 O   0  0  0  0  0  0  0  0  0  0  0  0
   54.7710   26.2200   45.9090 N   0  0  0  0  0  0  0  0  0  0  0  0
   56.0760   25.9220   46.0120 C   0  0  0  0  0  0  0  0  0  0  0  0
   57.1310   26.7970   46.2500 C   0  0  0  0  0  0  0  0  0  0  0  0
   58.7260   30.4390   44.2250 C   0  0  0  0  0  0  0  0  0  0  0  0
   58.1510   31.7130   44.2830 C   0  0  0  0  0  0  0  0  0  0  0  0
   60.0124   34.4533   44.8948 H   0  0  0  0  0  0  0  0  0  0  0  0
   59.9893   36.0720   45.6856 H   0  0  0  0  0  0  0  0  0  0  0  0
   58.9286   35.0890   48.3997 H   0  0  0  0  0  0  0  0  0  0  0  0
   60.1262   34.1707   50.3821 H   0  0  0  0  0  0  0  0  0  0  0  0
   62.3244   33.0284   50.1029 H   0  0  0  0  0  0  0  0  0  0  0  0
   62.1199   33.6927   45.8266 H   0  0  0  0  0  0  0  0  0  0  0  0
   58.6431   32.3804   47.6016 H   0  0  0  0  0  0  0  0  0  0  0  0
   59.6564   30.1080   47.4979 H   0  0  0  0  0  0  0  0  0  0  0  0
   60.3740   28.2790   44.3970 H   0  0  0  0  0  0  0  0  0  0  0  0
   59.6622   24.4677   46.0531 H   0  0  0  0  0  0  0  0  0  0  0  0
   57.6903   22.9469   45.6520 H   0  0  0  0  0  0  0  0  0  0  0  0
   56.9516   27.8683   46.4233 H   0  0  0  0  0  0  0  0  0  0  0  0
   58.7435   29.8924   43.2706 H   0  0  0  0  0  0  0  0  0  0  0  0
   57.7232   32.1600   43.3735 H   0  0  0  0  0  0  0  0  0  0  0  0
  1  2  2  0
  2  3  1  0
  3  4  1  0
  4  5  1  0
  5  6  2  0
  6  7  1  0
  7  8  2  0
  8  9  1  0
  9 10  1  0
 10 11  1  0
 10 12  1  0
 10 13  1  0
  9 14  2  0
  2 15  1  0
 15 16  2  0
 16 17  1  0
 17 18  2  0
 18 19  1  0
 19 20  1  0
 20 21  2  0
 20 22  2  0
 20 23  1  0
 23 24  2  0
 24 25  1  0
 25 26  2  0
 26 27  1  0
 27 28  1  0
 28 29  2  0
 28 30  1  0
 30 31  1  0
 31 32  2  0
 18 33  1  0
 33 34  2  0
 14  5  1  0
 34 15  1  0
 32 23  1  0
 31 26  1  0
  4 35  1  0
  4 36  1  0
  6 37  1  0
  7 38  1  0
  8 39  1  0
 14 40  1  0
 16 41  1  0
 17 42  1  0
 19 43  1  0
 24 44  1  0
 25 45  1  0
 32 46  1  0
 33 47  1  0
 34 48  1  0
M  CHG  3   3  -1  27  -1  30  -1
M  END
>  <UniqueID>  (75) 
68

>  <SMILES>  (75) 
O=C([N-]Cc1cccc(C(F)(F)F)c1)c1ccc(NS(=O)(=O)c2ccc3[n-]c(=O)[n-]c3c2)cc1

>  <Energy>  (75) 
90.22526984363927

>  <Genealogy>  (75) 
O=C([N-]Cc1cccc(C(F)(F)F)c1)c1ccc(NS(=O)(=O)c2ccc3[n-]c(=O)[n-]c3c2)cc1 (protonated)
O=C([N-]Cc1cccc(C(F)(F)F)c1)c1ccc(NS(=O)(=O)c2ccc3[n-]c(=O)[n-]c3c2)cc1 (3D coordinates assigned)
O=C([N-]Cc1cccc(C(F)(F)F)c1)c1ccc(NS(=O)(=O)c2ccc3[n-]c(=O)[n-]c3c2)cc1 (optimized conformer: 90.22526984363927 kcal/mol)

>  <smiles>  (75) 
O=C(NCc1cccc(C(F)(F)F)c1)c1ccc(NS(=O)(=O)c2ccc3[nH]c(=O)[nH]c3c2)cc1

>  <score_type>  (75) 
oracle

>  <origin>  (75) 
adg

>  <m_score__min__energy>  (75) 
-14.029999999999999

>  <m_primary>  (75) 
energy

$$$$
75:0
     RDKit          3D

 32 34  0  0  0  0  0  0  0  0999 V2000
   58.6782   26.5972   43.5039 H   0  0  0  0  0  0  0  0  0  0  0  0
   58.5660   27.4220   44.2230 C   0  0  0  0  0  0  0  0  0  0  0  0
   57.7550   28.5150   43.9070 C   0  0  0  0  0  0  0  0  0  0  0  0
   57.2111   28.5321   42.9510 H   0  0  0  0  0  0  0  0  0  0  0  0
   57.6280   29.5940   44.8010 C   0  0  0  0  0  0  0  0  0  0  0  0
   56.7590   30.7440   44.4530 C   0  0  0  0  0  0  0  0  0  0  0  0
   55.5050   30.6120   44.4920 O   0  0  0  0  0  0  0  0  0  0  0  0
   57.3070   32.0040   44.0560 N   0  0  0  0  0  0  0  0  0  0  0  0
   58.3230   32.1230   43.8530 H   0  0  0  0  0  0  0  0  0  0  0  0
   56.6720   32.8140   43.8750 H   0  0  0  0  0  0  0  0  0  0  0  0
   58.3270   29.5500   46.0210 C   0  0  0  0  0  0  0  0  0  0  0  0
   58.2368   30.3838   46.7328 H   0  0  0  0  0  0  0  0  0  0  0  0
   59.1360   28.4530   46.3350 C   0  0  0  0  0  0  0  0  0  0  0  0
   59.6960   28.4406   47.2817 H   0  0  0  0  0  0  0  0  0  0  0  0
   59.2380   27.3720   45.4540 C   0  0  0  0  0  0  0  0  0  0  0  0
   60.1100   26.2800   45.7830 N   0  0  0  0  0  0  0  0  0  0  0  0
   59.7620   25.1990   46.3720 N   0  0  0  0  0  0  0  0  0  0  0  0
   58.8590   24.2110   45.8510 C   0  0  0  0  0  0  0  0  0  0  0  0
   59.1820   22.9930   45.2560 C   0  0  0  0  0  0  0  0  0  0  0  0
   60.1946   22.5670   45.1997 H   0  0  0  0  0  0  0  0  0  0  0  0
   58.0670   22.4120   44.7580 N   0  0  0  0  0  0  0  0  0  0  0  0
   58.0100   21.5020   44.2510 H   0  0  0  0  0  0  0  0  0  0  0  0
   57.0570   23.2650   45.0090 C   0  0  0  0  0  0  0  0  0  0  0  0
   55.7160   23.1180   44.6540 C   0  0  0  0  0  0  0  0  0  0  0  0
   55.3633   22.2188   44.1276 H   0  0  0  0  0  0  0  0  0  0  0  0
   54.8290   24.1570   44.9910 C   0  0  0  0  0  0  0  0  0  0  0  0
   53.7638   24.0710   44.7305 H   0  0  0  0  0  0  0  0  0  0  0  0
   55.2960   25.3110   45.6620 C   0  0  0  0  0  0  0  0  0  0  0  0
   54.4090   26.3300   45.9850 O   0  0  0  0  0  0  0  0  0  0  0  0
   56.6560   25.4340   46.0040 C   0  0  0  0  0  0  0  0  0  0  0  0
   57.0340   26.3276   46.5223 H   0  0  0  0  0  0  0  0  0  0  0  0
   57.5070   24.3840   45.6630 C   0  0  0  0  0  0  0  0  0  0  0  0
  1  2  1  0
  2  3  2  0
  3  4  1  0
  3  5  1  0
  5  6  1  0
  6  7  2  0
  6  8  1  0
  8  9  1  0
  8 10  1  0
  5 11  2  0
 11 12  1  0
 11 13  1  0
 13 14  1  0
 13 15  2  0
 15 16  1  0
 16 17  2  0
 17 18  1  0
 18 19  2  0
 19 20  1  0
 19 21  1  0
 21 22  1  0
 21 23  1  0
 23 24  2  0
 24 25  1  0
 24 26  1  0
 26 27  1  0
 26 28  2  0
 28 29  1  0
 28 30  1  0
 30 31  1  0
 30 32  2  0
 15  2  1  0
 32 18  1  0
 32 23  1  0
M  CHG  1  29  -1
M  END
>  <UniqueID>  (76) 
69

>  <SMILES>  (76) 
NC(=O)c1ccc(/N=N\c2c[nH]c3ccc([O-])cc23)cc1

>  <Energy>  (76) 
82.2530551465543

>  <Genealogy>  (76) 
NC(=O)c1ccc(N=Nc2c[nH]c3ccc([O-])cc23)cc1 (protonated)
NC(=O)c1ccc(/N=N\c2c[nH]c3ccc([O-])cc23)cc1 (cis-trans isomerization)
NC(=O)c1ccc(/N=N\c2c[nH]c3ccc([O-])cc23)cc1 (3D coordinates assigned)
NC(=O)c1ccc(/N=N\c2c[nH]c3ccc([O-])cc23)cc1 (optimized conformer: 82.2530551465543 kcal/mol)

>  <smiles>  (76) 
NC(=O)c1ccc(N=Nc2c[nH]c3ccc(O)cc23)cc1

>  <score_type>  (76) 
oracle

>  <origin>  (76) 
adg

>  <m_score__min__energy>  (76) 
-10.5

>  <m_primary>  (76) 
energy

$$$$
76:0
     RDKit          3D

 48 51  0  0  0  0  0  0  0  0999 V2000
   56.5040   30.7640   54.6330 C   0  0  0  0  0  0  0  0  0  0  0  0
   57.1490   31.0440   53.3530 N   0  0  0  0  0  0  0  0  0  0  0  0
   57.7940   32.2060   53.2010 N   0  0  0  0  0  0  0  0  0  0  0  0
   58.4250   32.5380   52.0450 C   0  0  0  0  0  0  0  0  0  0  0  0
   58.4110   31.6470   50.9680 C   0  0  0  0  0  0  0  0  0  0  0  0
   59.1110   31.9540   49.7470 N   0  0  0  0  0  0  0  0  0  0  0  0
   59.2880   33.3490   49.3220 C   0  0  0  0  0  0  0  0  0  0  0  0
   58.7720   33.5280   47.8900 C   0  0  0  0  0  0  0  0  0  0  0  0
   59.0960   32.3720   47.0450 N   0  0  0  0  0  0  0  0  0  0  0  0
   58.6400   32.3690   45.6790 C   0  0  0  0  0  0  0  0  0  0  0  0
   59.0150   33.4200   44.8240 C   0  0  0  0  0  0  0  0  0  0  0  0
   58.6310   33.4140   43.4820 C   0  0  0  0  0  0  0  0  0  0  0  0
   57.8670   32.3630   42.9770 C   0  0  0  0  0  0  0  0  0  0  0  0
   57.3480   32.3520   41.1380 Br  0  0  0  0  0  0  0  0  0  0  0  0
   57.4860   31.3100   43.8150 C   0  0  0  0  0  0  0  0  0  0  0  0
   57.8830   31.2940   45.1650 C   0  0  0  0  0  0  0  0  0  0  0  0
   57.5070   30.2110   46.0280 N   0  0  0  0  0  0  0  0  0  0  0  0
   56.9760   28.9460   45.6130 C   0  0  0  0  0  0  0  0  0  0  0  0
   55.8220   28.9080   45.1080 O   0  0  0  0  0  0  0  0  0  0  0  0
   57.7130   27.6880   45.8270 C   0  0  0  0  0  0  0  0  0  0  0  0
   59.0950   27.5620   45.8630 C   0  0  0  0  0  0  0  0  0  0  0  0
   59.5250   26.2390   46.0270 C   0  0  0  0  0  0  0  0  0  0  0  0
   58.4890   25.3160   46.1090 C   0  0  0  0  0  0  0  0  0  0  0  0
   57.0370   26.1500   45.9780 S   0  0  0  0  0  0  0  0  0  0  0  0
   60.0360   31.3480   47.5200 C   0  0  0  0  0  0  0  0  0  0  0  0
   59.6450   30.8590   48.9230 C   0  0  0  0  0  0  0  0  0  0  0  0
   57.7440   30.4260   51.1210 C   0  0  0  0  0  0  0  0  0  0  0  0
   57.1210   30.1270   52.3360 C   0  0  0  0  0  0  0  0  0  0  0  0
   56.5480   29.0110   52.4860 O   0  0  0  0  0  0  0  0  0  0  0  0
   57.1759   31.0557   55.4537 H   0  0  0  0  0  0  0  0  0  0  0  0
   55.5675   31.3366   54.7047 H   0  0  0  0  0  0  0  0  0  0  0  0
   56.2828   29.6889   54.7047 H   0  0  0  0  0  0  0  0  0  0  0  0
   58.9446   33.5035   51.9567 H   0  0  0  0  0  0  0  0  0  0  0  0
   58.7255   34.0102   49.9976 H   0  0  0  0  0  0  0  0  0  0  0  0
   60.3573   33.6049   49.3561 H   0  0  0  0  0  0  0  0  0  0  0  0
   57.6795   33.6533   47.9183 H   0  0  0  0  0  0  0  0  0  0  0  0
   59.2607   34.4142   47.4589 H   0  0  0  0  0  0  0  0  0  0  0  0
   59.6159   34.2539   45.2157 H   0  0  0  0  0  0  0  0  0  0  0  0
   58.9319   34.2405   42.8214 H   0  0  0  0  0  0  0  0  0  0  0  0
   56.8720   30.4890   43.4162 H   0  0  0  0  0  0  0  0  0  0  0  0
   59.7832   28.4153   45.7719 H   0  0  0  0  0  0  0  0  0  0  0  0
   60.5864   25.9561   46.0856 H   0  0  0  0  0  0  0  0  0  0  0  0
   58.6006   24.2292   46.2373 H   0  0  0  0  0  0  0  0  0  0  0  0
   60.0233   30.4960   46.8243 H   0  0  0  0  0  0  0  0  0  0  0  0
   61.0431   31.7879   47.5673 H   0  0  0  0  0  0  0  0  0  0  0  0
   58.8777   30.0766   48.8277 H   0  0  0  0  0  0  0  0  0  0  0  0
   60.5469   30.4657   49.4148 H   0  0  0  0  0  0  0  0  0  0  0  0
   57.7103   29.7060   50.2900 H   0  0  0  0  0  0  0  0  0  0  0  0
  1  2  1  0
  2  3  1  0
  3  4  2  0
  4  5  1  0
  5  6  1  0
  6  7  1  0
  7  8  1  0
  8  9  1  0
  9 10  1  0
 10 11  2  0
 11 12  1  0
 12 13  2  0
 13 14  1  0
 13 15  1  0
 15 16  2  0
 16 17  1  0
 17 18  1  0
 18 19  2  0
 18 20  1  0
 20 21  2  0
 21 22  1  0
 22 23  2  0
 23 24  1  0
  9 25  1  0
 25 26  1  0
  5 27  2  0
 27 28  1  0
 28 29  2  0
 28  2  1  0
 26  6  1  0
 16 10  1  0
 24 20  1  0
  1 30  1  0
  1 31  1  0
  1 32  1  0
  4 33  1  0
  7 34  1  0
  7 35  1  0
  8 36  1  0
  8 37  1  0
 11 38  1  0
 12 39  1  0
 15 40  1  0
 21 41  1  0
 22 42  1  0
 23 43  1  0
 25 44  1  0
 25 45  1  0
 26 46  1  0
 26 47  1  0
 27 48  1  0
M  CHG  1  17  -1
M  END
>  <UniqueID>  (77) 
70

>  <SMILES>  (77) 
Cn1ncc(N2CCN(c3ccc(Br)cc3[N-]C(=O)c3cccs3)CC2)cc1=O

>  <Energy>  (77) 
94.24820280456011

>  <Genealogy>  (77) 
Cn1ncc(N2CCN(c3ccc(Br)cc3[N-]C(=O)c3cccs3)CC2)cc1=O (protonated)
Cn1ncc(N2CCN(c3ccc(Br)cc3[N-]C(=O)c3cccs3)CC2)cc1=O (3D coordinates assigned)
Cn1ncc(N2CCN(c3ccc(Br)cc3[N-]C(=O)c3cccs3)CC2)cc1=O (nonaromatic ring conformer: 94.24820280456011 kcal/mol)

>  <smiles>  (77) 
Cn1ncc(N2CCN(c3ccc(Br)cc3NC(=O)c3cccs3)CC2)cc1=O

>  <score_type>  (77) 
oracle

>  <origin>  (77) 
adg

>  <m_score__min__energy>  (77) 
-10.26

>  <m_primary>  (77) 
energy

$$$$
77:0
     RDKit          3D

 44 47  0  0  0  0  0  0  0  0999 V2000
   57.3990   31.6310   42.2110 C   0  0  0  0  0  0  0  0  0  0  0  0
   57.4410   31.6360   43.6730 N   0  0  0  0  0  0  0  0  0  0  0  0
   57.1540   30.6130   44.5250 C   0  0  0  0  0  0  0  0  0  0  0  0
   56.6910   29.2500   44.0980 C   0  0  0  0  0  0  0  0  0  0  0  0
   57.4210   28.1820   44.8680 C   0  0  0  0  0  0  0  0  0  0  0  0
   58.8240   28.1240   44.8550 C   0  0  0  0  0  0  0  0  0  0  0  0
   59.4950   27.1400   45.5910 C   0  0  0  0  0  0  0  0  0  0  0  0
   58.7700   26.2100   46.3410 C   0  0  0  0  0  0  0  0  0  0  0  0
   57.3740   26.2620   46.3590 C   0  0  0  0  0  0  0  0  0  0  0  0
   56.7000   27.2430   45.6260 C   0  0  0  0  0  0  0  0  0  0  0  0
   57.4180   30.9070   45.8260 N   0  0  0  0  0  0  0  0  0  0  0  0
   57.8880   32.1660   45.7650 C   0  0  0  0  0  0  0  0  0  0  0  0
   58.3410   32.9500   46.8210 C   0  0  0  0  0  0  0  0  0  0  0  0
   58.8380   34.2420   46.5280 C   0  0  0  0  0  0  0  0  0  0  0  0
   59.3480   35.0800   47.5830 N   0  0  0  0  0  0  0  0  0  0  0  0
   60.0190   34.2570   48.5970 C   0  0  0  0  0  0  0  0  0  0  0  0
   61.3910   33.8720   48.1350 C   0  0  0  0  0  0  0  0  0  0  0  0
   61.8320   33.8600   46.8180 C   0  0  0  0  0  0  0  0  0  0  0  0
   63.1880   33.5330   46.6970 C   0  0  0  0  0  0  0  0  0  0  0  0
   63.8180   33.3020   47.9130 C   0  0  0  0  0  0  0  0  0  0  0  0
   62.6870   33.5090   49.1420 S   0  0  0  0  0  0  0  0  0  0  0  0
   58.8830   34.6850   45.1780 C   0  0  0  0  0  0  0  0  0  0  0  0
   58.4200   33.8620   44.1350 C   0  0  0  0  0  0  0  0  0  0  0  0
   57.9180   32.6040   44.4740 C   0  0  0  0  0  0  0  0  0  0  0  0
   56.3591   31.5072   41.8745 H   0  0  0  0  0  0  0  0  0  0  0  0
   57.7970   32.5829   41.8295 H   0  0  0  0  0  0  0  0  0  0  0  0
   58.0093   30.7992   41.8295 H   0  0  0  0  0  0  0  0  0  0  0  0
   55.6111   29.1586   44.2866 H   0  0  0  0  0  0  0  0  0  0  0  0
   56.8999   29.1222   43.0256 H   0  0  0  0  0  0  0  0  0  0  0  0
   59.3975   28.8539   44.2648 H   0  0  0  0  0  0  0  0  0  0  0  0
   60.5942   27.0989   45.5789 H   0  0  0  0  0  0  0  0  0  0  0  0
   59.2988   25.4366   46.9175 H   0  0  0  0  0  0  0  0  0  0  0  0
   56.8046   25.5301   46.9507 H   0  0  0  0  0  0  0  0  0  0  0  0
   55.6008   27.2804   45.6424 H   0  0  0  0  0  0  0  0  0  0  0  0
   58.3136   32.5760   47.8551 H   0  0  0  0  0  0  0  0  0  0  0  0
   58.5590   35.6120   48.0240 H   0  0  0  0  0  0  0  0  0  0  0  0
   60.0230   35.7750   47.1860 H   0  0  0  0  0  0  0  0  0  0  0  0
   60.0994   34.8295   49.5329 H   0  0  0  0  0  0  0  0  0  0  0  0
   59.4291   33.3432   48.7614 H   0  0  0  0  0  0  0  0  0  0  0  0
   61.1829   34.0843   45.9587 H   0  0  0  0  0  0  0  0  0  0  0  0
   63.7061   33.4654   45.7290 H   0  0  0  0  0  0  0  0  0  0  0  0
   64.8751   33.0303   48.0495 H   0  0  0  0  0  0  0  0  0  0  0  0
   59.2844   35.6826   44.9462 H   0  0  0  0  0  0  0  0  0  0  0  0
   58.4524   34.1982   43.0881 H   0  0  0  0  0  0  0  0  0  0  0  0
  1  2  1  0
  2  3  1  0
  3  4  1  0
  4  5  1  0
  5  6  2  0
  6  7  1  0
  7  8  2  0
  8  9  1  0
  9 10  2  0
  3 11  2  0
 11 12  1  0
 12 13  2  0
 13 14  1  0
 14 15  1  0
 15 16  1  0
 16 17  1  0
 17 18  2  0
 18 19  1  0
 19 20  2  0
 20 21  1  0
 14 22  2  0
 22 23  1  0
 23 24  2  0
 24  2  1  0
 10  5  1  0
 24 12  1  0
 21 17  1  0
  1 25  1  0
  1 26  1  0
  1 27  1  0
  4 28  1  0
  4 29  1  0
  6 30  1  0
  7 31  1  0
  8 32  1  0
  9 33  1  0
 10 34  1  0
 13 35  1  0
 15 36  1  0
 15 37  1  0
 16 38  1  0
 16 39  1  0
 18 40  1  0
 19 41  1  0
 20 42  1  0
 22 43  1  0
 23 44  1  0
M  CHG  1  15   1
M  END
>  <UniqueID>  (78) 
71

>  <SMILES>  (78) 
Cn1c(Cc2ccccc2)nc2cc([NH2+]Cc3cccs3)ccc21

>  <Energy>  (78) 
108.53458524473282

>  <Genealogy>  (78) 
Cn1c(Cc2ccccc2)nc2cc([NH2+]Cc3cccs3)ccc21 (protonated)
Cn1c(Cc2ccccc2)nc2cc([NH2+]Cc3cccs3)ccc21 (3D coordinates assigned)
Cn1c(Cc2ccccc2)nc2cc([NH2+]Cc3cccs3)ccc21 (optimized conformer: 108.53458524473282 kcal/mol)

>  <smiles>  (78) 
Cn1c(Cc2ccccc2)nc2cc(NCc3cccs3)ccc21

>  <score_type>  (78) 
oracle

>  <origin>  (78) 
adg

>  <m_score__min__energy>  (78) 
-7.21

>  <m_primary>  (78) 
energy

$$$$
78:0
     RDKit          3D

 32 34  0  0  0  0  0  0  0  0999 V2000
   54.6100   30.6560   44.9510 H   0  0  0  0  0  0  0  0  0  0  0  0
   55.3890   30.3800   44.3120 N   0  0  0  0  0  0  0  0  0  0  0  0
   56.3860   29.6430   44.7020 C   0  0  0  0  0  0  0  0  0  0  0  0
   57.6810   30.0800   44.5370 N   0  0  0  0  0  0  0  0  0  0  0  0
   57.9500   31.3800   43.8810 C   0  0  0  0  0  0  0  0  0  0  0  0
   58.8383   31.2843   43.2393 H   0  0  0  0  0  0  0  0  0  0  0  0
   57.0741   31.6613   43.2780 H   0  0  0  0  0  0  0  0  0  0  0  0
   58.1960   32.4520   44.9110 C   0  0  0  0  0  0  0  0  0  0  0  0
   57.8250   32.2470   46.2500 C   0  0  0  0  0  0  0  0  0  0  0  0
   57.3344   31.3074   46.5441 H   0  0  0  0  0  0  0  0  0  0  0  0
   58.0760   33.2310   47.2110 C   0  0  0  0  0  0  0  0  0  0  0  0
   57.7806   33.0644   48.2574 H   0  0  0  0  0  0  0  0  0  0  0  0
   58.7010   34.4250   46.8450 C   0  0  0  0  0  0  0  0  0  0  0  0
   58.8987   35.1974   47.6028 H   0  0  0  0  0  0  0  0  0  0  0  0
   59.0750   34.6380   45.5160 C   0  0  0  0  0  0  0  0  0  0  0  0
   59.5660   35.5792   45.2278 H   0  0  0  0  0  0  0  0  0  0  0  0
   58.8260   33.6560   44.5510 C   0  0  0  0  0  0  0  0  0  0  0  0
   59.1245   33.8268   43.5061 H   0  0  0  0  0  0  0  0  0  0  0  0
   58.7260   29.2900   44.9490 C   0  0  0  0  0  0  0  0  0  0  0  0
   59.9180   29.6790   44.8000 O   0  0  0  0  0  0  0  0  0  0  0  0
   58.4800   28.0410   45.5440 C   0  0  0  0  0  0  0  0  0  0  0  0
   59.5230   27.2000   45.9810 C   0  0  0  0  0  0  0  0  0  0  0  0
   60.5695   27.5163   45.8598 H   0  0  0  0  0  0  0  0  0  0  0  0
   59.2320   25.9650   46.5680 C   0  0  0  0  0  0  0  0  0  0  0  0
   60.0495   25.3128   46.9091 H   0  0  0  0  0  0  0  0  0  0  0  0
   57.9050   25.5580   46.7220 C   0  0  0  0  0  0  0  0  0  0  0  0
   57.6794   24.5851   47.1832 H   0  0  0  0  0  0  0  0  0  0  0  0
   56.8640   26.3830   46.2920 C   0  0  0  0  0  0  0  0  0  0  0  0
   55.8203   26.0584   46.4161 H   0  0  0  0  0  0  0  0  0  0  0  0
   57.1450   27.6270   45.7010 C   0  0  0  0  0  0  0  0  0  0  0  0
   56.1350   28.4330   45.2800 N   0  0  0  0  0  0  0  0  0  0  0  0
   55.1450   28.1170   45.4000 H   0  0  0  0  0  0  0  0  0  0  0  0
  1  2  1  0
  2  3  2  0
  3  4  1  0
  4  5  1  0
  5  6  1  0
  5  7  1  0
  5  8  1  0
  8  9  2  0
  9 10  1  0
  9 11  1  0
 11 12  1  0
 11 13  2  0
 13 14  1  0
 13 15  1  0
 15 16  1  0
 15 17  2  0
 17 18  1  0
  4 19  1  0
 19 20  2  0
 19 21  1  0
 21 22  2  0
 22 23  1  0
 22 24  1  0
 24 25  1  0
 24 26  2  0
 26 27  1  0
 26 28  1  0
 28 29  1  0
 28 30  2  0
 30 31  1  0
 31 32  1  0
 31  3  1  0
 17  8  1  0
 30 21  1  0
M  END
>  <UniqueID>  (79) 
72

>  <SMILES>  (79) 
[H]/N=c1\[nH]c2ccccc2c(=O)n1Cc1ccccc1

>  <Energy>  (79) 
43.54873792967791

>  <Genealogy>  (79) 
[H]/N=c1\[nH]c2ccccc2c(=O)n1Cc1ccccc1 (cis-trans isomerization)
[H]/N=c1\[nH]c2ccccc2c(=O)n1Cc1ccccc1 (3D coordinates assigned)
[H]/N=c1\[nH]c2ccccc2c(=O)n1Cc1ccccc1 (optimized conformer: 43.54873792967791 kcal/mol)

>  <smiles>  (79) 
N=c1[nH]c2ccccc2c(=O)n1Cc1ccccc1

>  <score_type>  (79) 
oracle

>  <origin>  (79) 
adg

>  <m_score__min__energy>  (79) 
-7.54

>  <m_primary>  (79) 
energy

$$$$
79:0
     RDKit          3D

 32 34  0  0  0  0  0  0  0  0999 V2000
   54.1310   26.7060   46.3510 H   0  0  0  0  0  0  0  0  0  0  0  0
   55.0140   26.3490   45.9230 N   0  0  0  0  0  0  0  0  0  0  0  0
   56.0100   27.1380   45.6860 C   0  0  0  0  0  0  0  0  0  0  0  0
   57.2920   26.7540   45.8420 N   0  0  0  0  0  0  0  0  0  0  0  0
   57.9940   27.8490   45.4980 C   0  0  0  0  0  0  0  0  0  0  0  0
   59.0912   27.9274   45.4961 H   0  0  0  0  0  0  0  0  0  0  0  0
   57.1180   28.8610   45.1470 C   0  0  0  0  0  0  0  0  0  0  0  0
   57.4630   30.2350   44.7060 C   0  0  0  0  0  0  0  0  0  0  0  0
   57.4260   30.5590   43.3380 C   0  0  0  0  0  0  0  0  0  0  0  0
   57.1344   29.7939   42.6034 H   0  0  0  0  0  0  0  0  0  0  0  0
   57.7570   31.8460   42.9050 C   0  0  0  0  0  0  0  0  0  0  0  0
   57.7303   32.0874   41.8321 H   0  0  0  0  0  0  0  0  0  0  0  0
   58.1210   32.8250   43.8290 C   0  0  0  0  0  0  0  0  0  0  0  0
   58.3932   33.8327   43.4819 H   0  0  0  0  0  0  0  0  0  0  0  0
   58.1410   32.5280   45.2010 C   0  0  0  0  0  0  0  0  0  0  0  0
   58.5240   33.5080   46.1770 N   0  0  0  0  0  0  0  0  0  0  0  0
   59.6640   34.3750   46.1040 C   0  0  0  0  0  0  0  0  0  0  0  0
   59.6580   35.3080   45.2580 O   0  0  0  0  0  0  0  0  0  0  0  0
   60.8630   34.1710   46.9520 C   0  0  0  0  0  0  0  0  0  0  0  0
   62.0980   33.8460   46.3610 C   0  0  0  0  0  0  0  0  0  0  0  0
   62.1719   33.7480   45.2679 H   0  0  0  0  0  0  0  0  0  0  0  0
   63.2310   33.6470   47.1540 C   0  0  0  0  0  0  0  0  0  0  0  0
   64.1939   33.3994   46.6834 H   0  0  0  0  0  0  0  0  0  0  0  0
   63.1430   33.7620   48.5440 C   0  0  0  0  0  0  0  0  0  0  0  0
   64.2440   33.5690   49.3120 F   0  0  0  0  0  0  0  0  0  0  0  0
   61.9180   34.0690   49.1420 C   0  0  0  0  0  0  0  0  0  0  0  0
   61.8478   34.1550   50.2364 H   0  0  0  0  0  0  0  0  0  0  0  0
   60.7820   34.2670   48.3530 C   0  0  0  0  0  0  0  0  0  0  0  0
   59.8186   34.4993   48.8303 H   0  0  0  0  0  0  0  0  0  0  0  0
   57.8310   31.2320   45.6300 C   0  0  0  0  0  0  0  0  0  0  0  0
   57.8754   30.9894   46.7020 H   0  0  0  0  0  0  0  0  0  0  0  0
   55.8550   28.4090   45.2660 N   0  0  0  0  0  0  0  0  0  0  0  0
  1  2  1  0
  2  3  2  0
  3  4  1  0
  4  5  1  0
  5  6  1  0
  5  7  2  0
  7  8  1  0
  8  9  2  0
  9 10  1  0
  9 11  1  0
 11 12  1  0
 11 13  2  0
 13 14  1  0
 13 15  1  0
 15 16  1  0
 16 17  1  0
 17 18  2  0
 17 19  1  0
 19 20  2  0
 20 21  1  0
 20 22  1  0
 22 23  1  0
 22 24  2  0
 24 25  1  0
 24 26  1  0
 26 27  1  0
 26 28  2  0
 28 29  1  0
 15 30  2  0
 30 31  1  0
  7 32  1  0
 32  3  1  0
 30  8  1  0
 28 19  1  0
M  CHG  3   4  -1  16  -1  32  -1
M  END
>  <UniqueID>  (80) 
73

>  <SMILES>  (80) 
[H]/N=c1/[n-]cc(-c2cccc([N-]C(=O)c3ccc(F)cc3)c2)[n-]1

>  <Energy>  (80) 
70.98132690146

>  <Genealogy>  (80) 
N=c1[n-]cc(-c2cccc([N-]C(=O)c3ccc(F)cc3)c2)[n-]1 (protonated)
[H]/N=c1/[n-]cc(-c2cccc([N-]C(=O)c3ccc(F)cc3)c2)[n-]1 (cis-trans isomerization)
[H]/N=c1/[n-]cc(-c2cccc([N-]C(=O)c3ccc(F)cc3)c2)[n-]1 (3D coordinates assigned)
[H]/N=c1/[n-]cc(-c2cccc([N-]C(=O)c3ccc(F)cc3)c2)[n-]1 (optimized conformer: 70.98132690146 kcal/mol)

>  <smiles>  (80) 
N=c1[nH]cc(-c2cccc(NC(=O)c3ccc(F)cc3)c2)[nH]1

>  <score_type>  (80) 
oracle

>  <origin>  (80) 
adg

>  <m_score__min__energy>  (80) 
-13.27

>  <m_primary>  (80) 
energy

$$$$
80:0
     RDKit          3D

 47 50  0  0  0  0  0  0  0  0999 V2000
   57.6070   29.7570   52.9720 C   0  0  0  0  0  0  0  0  0  0  0  0
   57.7760   29.6880   51.5610 O   0  0  0  0  0  0  0  0  0  0  0  0
   58.8400   30.2760   50.8580 C   0  0  0  0  0  0  0  0  0  0  0  0
   59.8110   29.5060   50.1890 C   0  0  0  0  0  0  0  0  0  0  0  0
   60.8520   30.1280   49.4990 C   0  0  0  0  0  0  0  0  0  0  0  0
   60.9530   31.5250   49.4770 C   0  0  0  0  0  0  0  0  0  0  0  0
   62.0430   32.1820   48.7280 C   0  0  0  0  0  0  0  0  0  0  0  0
   63.4080   32.1400   48.9900 C   0  0  0  0  0  0  0  0  0  0  0  0
   64.1180   31.5110   50.1150 C   0  0  0  0  0  0  0  0  0  0  0  0
   65.4170   31.7530   50.5250 C   0  0  0  0  0  0  0  0  0  0  0  0
   65.6370   30.9080   51.5900 C   0  0  0  0  0  0  0  0  0  0  0  0
   64.4680   30.1960   51.7620 C   0  0  0  0  0  0  0  0  0  0  0  0
   63.5850   30.5750   50.8660 O   0  0  0  0  0  0  0  0  0  0  0  0
   64.0350   32.8730   48.0480 N   0  0  0  0  0  0  0  0  0  0  0  0
   63.0920   33.3520   47.2500 N   0  0  0  0  0  0  0  0  0  0  0  0
   61.8870   32.9550   47.6300 N   0  0  0  0  0  0  0  0  0  0  0  0
   60.6740   33.2900   46.9360 C   0  0  0  0  0  0  0  0  0  0  0  0
   59.7730   32.2780   46.5720 C   0  0  0  0  0  0  0  0  0  0  0  0
   58.5920   32.5920   45.8930 C   0  0  0  0  0  0  0  0  0  0  0  0
   58.2970   33.9240   45.5660 C   0  0  0  0  0  0  0  0  0  0  0  0
   57.0130   34.2570   44.8650 C   0  0  0  0  0  0  0  0  0  0  0  0
   59.1820   34.9410   45.9540 C   0  0  0  0  0  0  0  0  0  0  0  0
   60.3600   34.6270   46.6370 C   0  0  0  0  0  0  0  0  0  0  0  0
   59.9880   32.2950   50.1390 C   0  0  0  0  0  0  0  0  0  0  0  0
   58.9260   31.6780   50.8270 C   0  0  0  0  0  0  0  0  0  0  0  0
   57.9340   32.4210   51.4870 O   0  0  0  0  0  0  0  0  0  0  0  0
   58.1970   33.4710   52.4140 C   0  0  0  0  0  0  0  0  0  0  0  0
   58.5157   29.3860   53.4687 H   0  0  0  0  0  0  0  0  0  0  0  0
   57.4268   30.8007   53.2691 H   0  0  0  0  0  0  0  0  0  0  0  0
   56.7478   29.1377   53.2691 H   0  0  0  0  0  0  0  0  0  0  0  0
   59.7484   28.4080   50.2106 H   0  0  0  0  0  0  0  0  0  0  0  0
   61.5980   29.5176   48.9690 H   0  0  0  0  0  0  0  0  0  0  0  0
   66.1272   32.4717   50.0902 H   0  0  0  0  0  0  0  0  0  0  0  0
   66.5588   30.8188   52.1836 H   0  0  0  0  0  0  0  0  0  0  0  0
   64.3007   29.4282   52.5318 H   0  0  0  0  0  0  0  0  0  0  0  0
   63.2870   33.9490   46.4160 H   0  0  0  0  0  0  0  0  0  0  0  0
   59.9973   31.2307   46.8225 H   0  0  0  0  0  0  0  0  0  0  0  0
   57.8912   31.7914   45.6140 H   0  0  0  0  0  0  0  0  0  0  0  0
   56.2302   34.4600   45.6106 H   0  0  0  0  0  0  0  0  0  0  0  0
   57.1592   35.1469   44.2352 H   0  0  0  0  0  0  0  0  0  0  0  0
   56.7083   33.4082   44.2352 H   0  0  0  0  0  0  0  0  0  0  0  0
   58.9477   35.9899   45.7196 H   0  0  0  0  0  0  0  0  0  0  0  0
   61.0457   35.4311   46.9425 H   0  0  0  0  0  0  0  0  0  0  0  0
   60.0608   33.3924   50.1211 H   0  0  0  0  0  0  0  0  0  0  0  0
   58.1008   33.0868   53.4402 H   0  0  0  0  0  0  0  0  0  0  0  0
   59.2178   33.8501   52.2587 H   0  0  0  0  0  0  0  0  0  0  0  0
   57.4754   34.2866   52.2587 H   0  0  0  0  0  0  0  0  0  0  0  0
  1  2  1  0
  2  3  1  0
  3  4  2  0
  4  5  1  0
  5  6  2  0
  6  7  1  0
  7  8  2  0
  8  9  1  0
  9 10  2  0
 10 11  1  0
 11 12  2  0
 12 13  1  0
  8 14  1  0
 14 15  2  0
 15 16  1  0
 16 17  1  0
 17 18  2  0
 18 19  1  0
 19 20  2  0
 20 21  1  0
 20 22  1  0
 22 23  2  0
  6 24  1  0
 24 25  2  0
 25 26  1  0
 26 27  1  0
 25  3  1  0
 16  7  1  0
 23 17  1  0
 13  9  1  0
  1 28  1  0
  1 29  1  0
  1 30  1  0
  4 31  1  0
  5 32  1  0
 10 33  1  0
 11 34  1  0
 12 35  1  0
 15 36  1  0
 18 37  1  0
 19 38  1  0
 21 39  1  0
 21 40  1  0
 21 41  1  0
 22 42  1  0
 23 43  1  0
 24 44  1  0
 27 45  1  0
 27 46  1  0
 27 47  1  0
M  CHG  1  15   1
M  END
>  <UniqueID>  (81) 
74

>  <SMILES>  (81) 
COc1ccc(-c2c(-c3ccco3)n[nH+]n2-c2ccc(C)cc2)cc1OC

>  <Energy>  (81) 
121.27954900492371

>  <Genealogy>  (81) 
COc1ccc(-c2c(-c3ccco3)n[nH+]n2-c2ccc(C)cc2)cc1OC (protonated)
COc1ccc(-c2c(-c3ccco3)n[nH+]n2-c2ccc(C)cc2)cc1OC (3D coordinates assigned)
COc1ccc(-c2c(-c3ccco3)n[nH+]n2-c2ccc(C)cc2)cc1OC (optimized conformer: 121.27954900492371 kcal/mol)

>  <smiles>  (81) 
COc1ccc(-c2c(-c3ccco3)nnn2-c2ccc(C)cc2)cc1OC

>  <score_type>  (81) 
oracle

>  <origin>  (81) 
adg

>  <m_score__min__energy>  (81) 
-6.7300000000000004

>  <m_primary>  (81) 
energy

$$$$
81:0
     RDKit          3D

 36 38  0  0  1  0  0  0  0  0999 V2000
   60.7840   26.3190   46.4100 C   0  0  0  0  0  0  0  0  0  0  0  0
   59.3920   26.4390   46.5850 O   0  0  0  0  0  0  0  0  0  0  0  0
   58.7970   27.5830   46.1040 C   0  0  0  0  0  0  0  0  0  0  0  0
   58.1980   27.5330   44.8730 C   0  0  0  0  0  0  0  0  0  0  0  0
   57.6080   28.6620   44.3970 C   0  0  0  0  0  0  0  0  0  0  0  0
   57.0210   28.6070   43.1880 N   0  0  0  0  0  0  0  0  0  0  0  0
   56.4280   29.6940   42.6780 C   0  0  0  0  0  0  0  0  0  0  0  0
   56.4430   30.8130   43.4080 N   0  0  0  0  0  0  0  0  0  0  0  0
   57.0200   30.9030   44.6210 C   0  0  0  0  0  0  0  0  0  0  0  0
   56.9830   31.9800   45.2250 N   0  0  0  0  0  0  0  0  0  0  0  0
   57.9130   32.9090   45.5830 C   0  0  0  0  0  0  0  0  0  0  0  0
   58.2780   33.8940   44.6320 C   0  0  0  0  0  0  0  0  0  0  0  0
   59.1310   34.9220   44.9810 C   0  0  0  0  0  0  0  0  0  0  0  0
   59.6370   34.9950   46.2660 C   0  0  0  0  0  0  0  0  0  0  0  0
   59.3010   34.0540   47.2100 C   0  0  0  0  0  0  0  0  0  0  0  0
   60.0190   34.1820   48.9920 Br  0  0  0  0  0  0  0  0  0  0  0  0
   58.4440   33.0060   46.8940 C   0  0  0  0  0  0  0  0  0  0  0  0
   57.6360   29.8120   45.1720 C   0  0  0  0  0  0  0  0  0  0  0  0
   58.2360   29.8460   46.3960 C   0  0  0  0  0  0  0  0  0  0  0  0
   58.8530   28.6880   46.9080 C   0  0  0  0  0  0  0  0  0  0  0  0
   59.4740   28.6470   48.1260 O   0  0  0  0  0  0  0  0  0  0  0  0
   60.2000   29.6400   48.7500 C   0  0  0  0  0  0  0  0  0  0  0  0
   61.2749   26.2767   47.3935 H   0  0  0  0  0  0  0  0  0  0  0  0
   61.0051   25.3985   45.8499 H   0  0  0  0  0  0  0  0  0  0  0  0
   61.1594   27.1881   45.8499 H   0  0  0  0  0  0  0  0  0  0  0  0
   58.1944   26.6035   44.2847 H   0  0  0  0  0  0  0  0  0  0  0  0
   57.0110   27.7310   42.6190 H   0  0  0  0  0  0  0  0  0  0  0  0
   55.9444   29.6665   41.6904 H   0  0  0  0  0  0  0  0  0  0  0  0
   57.8789   33.8392   43.6084 H   0  0  0  0  0  0  0  0  0  0  0  0
   59.4082   35.6831   44.2368 H   0  0  0  0  0  0  0  0  0  0  0  0
   60.3169   35.8164   46.5361 H   0  0  0  0  0  0  0  0  0  0  0  0
   58.1798   32.2575   47.6555 H   0  0  0  0  0  0  0  0  0  0  0  0
   58.2381   30.7765   46.9827 H   0  0  0  0  0  0  0  0  0  0  0  0
   60.1161   29.5252   49.8408 H   0  0  0  0  0  0  0  0  0  0  0  0
   61.2565   29.5633   48.4534 H   0  0  0  0  0  0  0  0  0  0  0  0
   59.8064   30.6234   48.4534 H   0  0  0  0  0  0  0  0  0  0  0  0
  1  2  1  0
  2  3  1  0
  3  4  2  0
  4  5  1  0
  5  6  1  0
  6  7  1  0
  7  8  2  0
  8  9  1  0
  9 10  2  0
 10 11  1  0
 11 12  2  0
 12 13  1  0
 13 14  2  0
 14 15  1  0
 15 16  1  0
 15 17  2  0
  9 18  1  0
 18 19  1  0
 19 20  2  0
 20 21  1  0
 21 22  1  0
 20  3  1  0
 18  5  2  0
 17 11  1  0
  1 23  1  0
  1 24  1  0
  1 25  1  0
  4 26  1  0
  6 27  1  0
  7 28  1  0
 12 29  1  0
 13 30  1  0
 14 31  1  0
 17 32  1  0
 19 33  1  0
 22 34  1  0
 22 35  1  0
 22 36  1  0
M  END
>  <smiles>  (82) 
COc1cc2[nH]cnc(=Nc3cccc(Br)c3)c2cc1OC

>  <score_type>  (82) 
oracle

>  <origin>  (82) 
adg

>  <m_score__min__energy>  (82) 
-7.46

>  <m_primary>  (82) 
energy

$$$$
82:0
     RDKit          3D

 31 32  0  0  0  0  0  0  0  0999 V2000
   63.1791   33.4178   51.3006 H   0  0  0  0  0  0  0  0  0  0  0  0
   62.2280   33.7420   50.8530 C   0  0  0  0  0  0  0  0  0  0  0  0
   61.3683   33.9765   51.4979 H   0  0  0  0  0  0  0  0  0  0  0  0
   62.1170   33.8510   49.5260 C   0  0  0  0  0  0  0  0  0  0  0  0
   63.1090   33.5710   48.6450 N   0  0  0  0  0  0  0  0  0  0  0  0
   64.4630   33.0950   48.9300 C   0  0  0  0  0  0  0  0  0  0  0  0
   64.6117   33.0427   50.0186 H   0  0  0  0  0  0  0  0  0  0  0  0
   64.5997   32.0949   48.4928 H   0  0  0  0  0  0  0  0  0  0  0  0
   65.1954   33.7895   48.4928 H   0  0  0  0  0  0  0  0  0  0  0  0
   62.5590   33.7870   47.4340 C   0  0  0  0  0  0  0  0  0  0  0  0
   63.1600   33.6190   46.3380 O   0  0  0  0  0  0  0  0  0  0  0  0
   61.2540   34.2110   47.5870 C   0  0  0  0  0  0  0  0  0  0  0  0
   60.3930   34.4910   46.5940 C   0  0  0  0  0  0  0  0  0  0  0  0
   60.4390   35.4917   46.1395 H   0  0  0  0  0  0  0  0  0  0  0  0
   59.3890   33.5410   46.0740 C   0  0  0  0  0  0  0  0  0  0  0  0
   59.4510   32.1710   46.3780 C   0  0  0  0  0  0  0  0  0  0  0  0
   60.2788   31.7831   46.9898 H   0  0  0  0  0  0  0  0  0  0  0  0
   58.4660   31.2980   45.9070 C   0  0  0  0  0  0  0  0  0  0  0  0
   58.5332   30.2245   46.1374 H   0  0  0  0  0  0  0  0  0  0  0  0
   57.3940   31.7790   45.1440 C   0  0  0  0  0  0  0  0  0  0  0  0
   56.4330   30.8620   44.6930 O   0  0  0  0  0  0  0  0  0  0  0  0
   56.5600   30.0830   43.5090 C   0  0  0  0  0  0  0  0  0  0  0  0
   56.7316   29.0306   43.7792 H   0  0  0  0  0  0  0  0  0  0  0  0
   55.6369   30.1636   42.9163 H   0  0  0  0  0  0  0  0  0  0  0  0
   57.4097   30.4526   42.9163 H   0  0  0  0  0  0  0  0  0  0  0  0
   57.3170   33.1560   44.8640 C   0  0  0  0  0  0  0  0  0  0  0  0
   56.4771   33.5475   44.2713 H   0  0  0  0  0  0  0  0  0  0  0  0
   58.3020   34.0290   45.3350 C   0  0  0  0  0  0  0  0  0  0  0  0
   58.2238   35.1058   45.1245 H   0  0  0  0  0  0  0  0  0  0  0  0
   60.9770   34.2440   48.9110 N   0  0  0  0  0  0  0  0  0  0  0  0
   60.0700   34.4690   49.3750 H   0  0  0  0  0  0  0  0  0  0  0  0
  1  2  1  0
  2  3  1  0
  2  4  2  0
  4  5  1  0
  5  6  1  0
  6  7  1  0
  6  8  1  0
  6  9  1  0
  5 10  1  0
 10 11  2  0
 10 12  1  0
 12 13  2  0
 13 14  1  0
 13 15  1  0
 15 16  2  0
 16 17  1  0
 16 18  1  0
 18 19  1  0
 18 20  2  0
 20 21  1  0
 21 22  1  0
 22 23  1  0
 22 24  1  0
 22 25  1  0
 20 26  1  0
 26 27  1  0
 26 28  2  0
 28 29  1  0
 12 30  1  0
 30 31  1  0
 30  4  1  0
 28 15  1  0
M  END
>  <UniqueID>  (83) 
75

>  <SMILES>  (83) 
C=c1[nH]/c(=C\c2ccc(OC)cc2)c(=O)n1C

>  <Energy>  (83) 
70.36985868657085

>  <Genealogy>  (83) 
C=c1[nH]/c(=C\c2ccc(OC)cc2)c(=O)n1C (cis-trans isomerization)
C=c1[nH]/c(=C\c2ccc(OC)cc2)c(=O)n1C (3D coordinates assigned)
C=c1[nH]/c(=C\c2ccc(OC)cc2)c(=O)n1C (optimized conformer: 70.36985868657085 kcal/mol)

>  <smiles>  (83) 
C=c1[nH]c(=Cc2ccc(OC)cc2)c(=O)n1C

>  <score_type>  (83) 
oracle

>  <origin>  (83) 
adg

>  <m_score__min__energy>  (83) 
-5.8799999999999999

>  <m_primary>  (83) 
energy

$$$$
83:0
     RDKit          3D

 44 46  0  0  0  0  0  0  0  0999 V2000
   60.4910   34.5950   48.4710 C   0  0  0  0  0  0  0  0  0  0  0  0
   59.7750   34.8590   47.2700 O   0  0  0  0  0  0  0  0  0  0  0  0
   58.9680   33.9230   46.6080 C   0  0  0  0  0  0  0  0  0  0  0  0
   57.8060   34.2890   45.9030 C   0  0  0  0  0  0  0  0  0  0  0  0
   57.0360   33.3170   45.2580 C   0  0  0  0  0  0  0  0  0  0  0  0
   57.4260   31.9680   45.2900 C   0  0  0  0  0  0  0  0  0  0  0  0
   56.6390   30.9430   44.6660 N   0  0  0  0  0  0  0  0  0  0  0  0
   56.9310   29.5410   44.6780 C   0  0  0  0  0  0  0  0  0  0  0  0
   57.0020   28.9270   43.5810 O   0  0  0  0  0  0  0  0  0  0  0  0
   57.1020   28.8330   45.9180 N   0  0  0  0  0  0  0  0  0  0  0  0
   57.4800   27.4500   45.9840 C   0  0  0  0  0  0  0  0  0  0  0  0
   58.8320   27.1190   46.0840 C   0  0  0  0  0  0  0  0  0  0  0  0
   59.2190   25.7840   46.1580 C   0  0  0  0  0  0  0  0  0  0  0  0
   58.2450   24.7860   46.1510 C   0  0  0  0  0  0  0  0  0  0  0  0
   56.9160   25.1040   46.0810 N   0  0  0  0  0  0  0  0  0  0  0  0
   55.9210   24.0170   46.1250 C   0  0  0  0  0  0  0  0  0  0  0  0
   56.2190   22.9820   45.0700 C   0  0  0  0  0  0  0  0  0  0  0  0
   56.0220   23.2850   43.7110 C   0  0  0  0  0  0  0  0  0  0  0  0
   56.2680   22.3210   42.7290 C   0  0  0  0  0  0  0  0  0  0  0  0
   56.7100   21.0470   43.0920 C   0  0  0  0  0  0  0  0  0  0  0  0
   56.9070   20.7350   44.4400 C   0  0  0  0  0  0  0  0  0  0  0  0
   56.6640   21.6950   45.4280 C   0  0  0  0  0  0  0  0  0  0  0  0
   56.8700   21.3700   46.7280 F   0  0  0  0  0  0  0  0  0  0  0  0
   56.5200   26.4190   46.0130 C   0  0  0  0  0  0  0  0  0  0  0  0
   55.2930   26.7130   45.9960 O   0  0  0  0  0  0  0  0  0  0  0  0
   58.5660   31.6010   46.0140 C   0  0  0  0  0  0  0  0  0  0  0  0
   59.3370   32.5730   46.6600 C   0  0  0  0  0  0  0  0  0  0  0  0
   59.8542   34.8298   49.3367 H   0  0  0  0  0  0  0  0  0  0  0  0
   60.7754   33.5329   48.5024 H   0  0  0  0  0  0  0  0  0  0  0  0
   61.3969   35.2183   48.5024 H   0  0  0  0  0  0  0  0  0  0  0  0
   57.5023   35.3454   45.8594 H   0  0  0  0  0  0  0  0  0  0  0  0
   56.1206   33.6098   44.7230 H   0  0  0  0  0  0  0  0  0  0  0  0
   57.0630   29.3640   46.8150 H   0  0  0  0  0  0  0  0  0  0  0  0
   59.5924   27.9136   46.1044 H   0  0  0  0  0  0  0  0  0  0  0  0
   60.2846   25.5183   46.2215 H   0  0  0  0  0  0  0  0  0  0  0  0
   58.5489   23.7301   46.2024 H   0  0  0  0  0  0  0  0  0  0  0  0
   55.9490   23.5412   47.1164 H   0  0  0  0  0  0  0  0  0  0  0  0
   54.9240   24.4409   45.9344 H   0  0  0  0  0  0  0  0  0  0  0  0
   55.6723   24.2862   43.4190 H   0  0  0  0  0  0  0  0  0  0  0  0
   56.1131   22.5665   41.6680 H   0  0  0  0  0  0  0  0  0  0  0  0
   56.9029   20.2898   42.3177 H   0  0  0  0  0  0  0  0  0  0  0  0
   57.2544   19.7310   44.7251 H   0  0  0  0  0  0  0  0  0  0  0  0
   58.8574   30.5421   46.0754 H   0  0  0  0  0  0  0  0  0  0  0  0
   60.2399   32.2748   47.2130 H   0  0  0  0  0  0  0  0  0  0  0  0
  1  2  1  0
  2  3  1  0
  3  4  2  0
  4  5  1  0
  5  6  2  0
  6  7  1  0
  7  8  1  0
  8  9  2  0
  8 10  1  0
 10 11  1  0
 11 12  2  0
 12 13  1  0
 13 14  2  0
 14 15  1  0
 15 16  1  0
 16 17  1  0
 17 18  2  0
 18 19  1  0
 19 20  2  0
 20 21  1  0
 21 22  2  0
 22 23  1  0
 15 24  1  0
 24 25  2  0
  6 26  1  0
 26 27  2  0
 27  3  1  0
 24 11  1  0
 22 17  1  0
  1 28  1  0
  1 29  1  0
  1 30  1  0
  4 31  1  0
  5 32  1  0
 10 33  1  0
 12 34  1  0
 13 35  1  0
 14 36  1  0
 16 37  1  0
 16 38  1  0
 18 39  1  0
 19 40  1  0
 20 41  1  0
 21 42  1  0
 26 43  1  0
 27 44  1  0
M  CHG  1   7  -1
M  END
>  <UniqueID>  (84) 
76

>  <SMILES>  (84) 
COc1ccc([N-]C(=O)Nc2cccn(Cc3ccccc3F)c2=O)cc1

>  <Energy>  (84) 
58.25552012713025

>  <Genealogy>  (84) 
COc1ccc([N-]C(=O)Nc2cccn(Cc3ccccc3F)c2=O)cc1 (protonated)
COc1ccc([N-]C(=O)Nc2cccn(Cc3ccccc3F)c2=O)cc1 (3D coordinates assigned)
COc1ccc([N-]C(=O)Nc2cccn(Cc3ccccc3F)c2=O)cc1 (optimized conformer: 58.25552012713025 kcal/mol)

>  <smiles>  (84) 
COc1ccc(NC(=O)Nc2cccn(Cc3ccccc3F)c2=O)cc1

>  <score_type>  (84) 
oracle

>  <origin>  (84) 
adg

>  <m_score__min__energy>  (84) 
-10.19

>  <m_primary>  (84) 
energy

$$$$
84:0
     RDKit          3D

 51 54  0  0  0  0  0  0  0  0999 V2000
   55.5682   25.5931   46.6852 H   0  0  0  0  0  0  0  0  0  0  0  0
   56.2680   26.3880   46.3880 C   0  0  0  0  0  0  0  0  0  0  0  0
   55.8340   27.4200   45.6310 N   0  0  0  0  0  0  0  0  0  0  0  0
   56.6630   28.4140   45.2250 C   0  0  0  0  0  0  0  0  0  0  0  0
   56.1320   29.4370   44.4330 C   0  0  0  0  0  0  0  0  0  0  0  0
   55.0613   29.4318   44.1808 H   0  0  0  0  0  0  0  0  0  0  0  0
   56.9460   30.4600   43.9620 C   0  0  0  0  0  0  0  0  0  0  0  0
   56.5192   31.2657   43.3467 H   0  0  0  0  0  0  0  0  0  0  0  0
   58.3020   30.4620   44.2710 C   0  0  0  0  0  0  0  0  0  0  0  0
   58.9482   31.2651   43.8870 H   0  0  0  0  0  0  0  0  0  0  0  0
   58.8500   29.4510   45.0660 C   0  0  0  0  0  0  0  0  0  0  0  0
   59.9268   29.4659   45.2903 H   0  0  0  0  0  0  0  0  0  0  0  0
   58.0460   28.4070   45.5890 C   0  0  0  0  0  0  0  0  0  0  0  0
   58.5070   27.3310   46.4310 C   0  0  0  0  0  0  0  0  0  0  0  0
   59.7060   27.1850   46.9410 N   0  0  0  0  0  0  0  0  0  0  0  0
   60.2740   27.2990   48.2820 C   0  0  0  0  0  0  0  0  0  0  0  0
   61.1597   26.6497   48.3452 H   0  0  0  0  0  0  0  0  0  0  0  0
   59.4958   26.9975   48.9986 H   0  0  0  0  0  0  0  0  0  0  0  0
   60.6940   28.7410   48.6310 C   0  0  0  0  0  0  0  0  0  0  0  0
   60.3969   29.4056   47.8064 H   0  0  0  0  0  0  0  0  0  0  0  0
   61.7840   28.7480   48.7791 H   0  0  0  0  0  0  0  0  0  0  0  0
   60.0620   29.2230   49.8840 N   0  0  0  0  0  0  0  0  0  0  0  0
   58.6640   29.6890   49.6850 C   0  0  0  0  0  0  0  0  0  0  0  0
   58.0603   29.3470   50.5385 H   0  0  0  0  0  0  0  0  0  0  0  0
   58.3205   29.2680   48.7286 H   0  0  0  0  0  0  0  0  0  0  0  0
   58.5250   31.2200   49.5750 C   0  0  0  0  0  0  0  0  0  0  0  0
   58.3106   31.6371   50.5700 H   0  0  0  0  0  0  0  0  0  0  0  0
   57.7037   31.4553   48.8821 H   0  0  0  0  0  0  0  0  0  0  0  0
   59.7650   31.8090   49.0610 N   0  0  0  0  0  0  0  0  0  0  0  0
   59.7680   32.6440   47.8870 C   0  0  0  0  0  0  0  0  0  0  0  0
   60.9130   33.3770   47.5410 C   0  0  0  0  0  0  0  0  0  0  0  0
   61.8134   33.3141   48.1697 H   0  0  0  0  0  0  0  0  0  0  0  0
   60.9160   34.1860   46.4030 C   0  0  0  0  0  0  0  0  0  0  0  0
   61.8130   34.7686   46.1461 H   0  0  0  0  0  0  0  0  0  0  0  0
   59.7820   34.2570   45.5900 C   0  0  0  0  0  0  0  0  0  0  0  0
   59.7850   34.9090   44.7041 H   0  0  0  0  0  0  0  0  0  0  0  0
   58.6390   33.5020   45.8960 C   0  0  0  0  0  0  0  0  0  0  0  0
   57.4010   33.6060   45.0420 C   0  0  0  0  0  0  0  0  0  0  0  0
   56.9040   34.8990   45.0540 F   0  0  0  0  0  0  0  0  0  0  0  0
   57.6820   33.2650   43.7300 F   0  0  0  0  0  0  0  0  0  0  0  0
   56.4340   32.7480   45.5330 F   0  0  0  0  0  0  0  0  0  0  0  0
   58.6330   32.7120   47.0600 C   0  0  0  0  0  0  0  0  0  0  0  0
   57.7309   32.1415   47.3259 H   0  0  0  0  0  0  0  0  0  0  0  0
   61.0190   31.5230   49.7680 C   0  0  0  0  0  0  0  0  0  0  0  0
   61.2500   32.3571   50.4469 H   0  0  0  0  0  0  0  0  0  0  0  0
   61.8242   31.4014   49.0285 H   0  0  0  0  0  0  0  0  0  0  0  0
   60.8940   30.2250   50.5850 C   0  0  0  0  0  0  0  0  0  0  0  0
   60.4325   30.4567   51.5563 H   0  0  0  0  0  0  0  0  0  0  0  0
   61.9010   29.8039   50.7213 H   0  0  0  0  0  0  0  0  0  0  0  0
   57.5940   26.3290   46.7910 C   0  0  0  0  0  0  0  0  0  0  0  0
   57.9354   25.4816   47.4036 H   0  0  0  0  0  0  0  0  0  0  0  0
  1  2  1  0
  2  3  1  0
  3  4  1  0
  4  5  2  0
  5  6  1  0
  5  7  1  0
  7  8  1  0
  7  9  2  0
  9 10  1  0
  9 11  1  0
 11 12  1  0
 11 13  2  0
 13 14  1  0
 14 15  2  0
 15 16  1  0
 16 17  1  0
 16 18  1  0
 16 19  1  0
 19 20  1  0
 19 21  1  0
 19 22  1  0
 22 23  1  0
 23 24  1  0
 23 25  1  0
 23 26  1  0
 26 27  1  0
 26 28  1  0
 26 29  1  0
 29 30  1  0
 30 31  2  0
 31 32  1  0
 31 33  1  0
 33 34  1  0
 33 35  2  0
 35 36  1  0
 35 37  1  0
 37 38  1  0
 38 39  1  0
 38 40  1  0
 38 41  1  0
 37 42  2  0
 42 43  1  0
 29 44  1  0
 44 45  1  0
 44 46  1  0
 44 47  1  0
 47 48  1  0
 47 49  1  0
 14 50  1  0
 50 51  1  0
 50  2  2  0
 13  4  1  0
 47 22  1  0
 42 30  1  0
M  CHG  1   3  -1
M  END
>  <UniqueID>  (85) 
77

>  <SMILES>  (85) 
FC(F)(F)c1cccc(N2CCN(CC/N=c3/cc[n-]c4ccccc34)CC2)c1

>  <Energy>  (85) 
88.62197237555773

>  <Genealogy>  (85) 
FC(F)(F)c1cccc(N2CCN(CCN=c3cc[n-]c4ccccc34)CC2)c1 (protonated)
FC(F)(F)c1cccc(N2CCN(CC/N=c3/cc[n-]c4ccccc34)CC2)c1 (cis-trans isomerization)
FC(F)(F)c1cccc(N2CCN(CC/N=c3/cc[n-]c4ccccc34)CC2)c1 (3D coordinates assigned)
FC(F)(F)c1cccc(N2CCN(CC/N=c3/cc[n-]c4ccccc34)CC2)c1 (nonaromatic ring conformer: 88.62197237555773 kcal/mol)

>  <smiles>  (85) 
FC(F)(F)c1cccc(N2CCN(CCN=c3cc[nH]c4ccccc34)CC2)c1

>  <score_type>  (85) 
oracle

>  <origin>  (85) 
adg

>  <m_score__min__energy>  (85) 
-10.07

>  <m_primary>  (85) 
energy

$$$$
85:0
     RDKit          3D

 39 41  0  0  0  0  0  0  0  0999 V2000
   55.6100   26.8550   46.0190 N   0  0  0  0  0  0  0  0  0  0  0  0
   57.0320   26.6800   46.0020 C   0  0  0  0  0  0  0  0  0  0  0  0
   57.6150   25.6980   46.8180 C   0  0  0  0  0  0  0  0  0  0  0  0
   58.9990   25.5080   46.8160 C   0  0  0  0  0  0  0  0  0  0  0  0
   59.8130   26.3030   46.0090 C   0  0  0  0  0  0  0  0  0  0  0  0
   59.2460   27.2860   45.1950 C   0  0  0  0  0  0  0  0  0  0  0  0
   57.8500   27.4710   45.1680 C   0  0  0  0  0  0  0  0  0  0  0  0
   57.2550   28.4850   44.3430 N   0  0  0  0  0  0  0  0  0  0  0  0
   56.6000   29.6760   44.8050 C   0  0  0  0  0  0  0  0  0  0  0  0
   55.3440   29.6750   44.8970 O   0  0  0  0  0  0  0  0  0  0  0  0
   57.3520   30.9110   45.1260 C   0  0  0  0  0  0  0  0  0  0  0  0
   57.0550   32.1240   44.4820 C   0  0  0  0  0  0  0  0  0  0  0  0
   57.7780   33.2810   44.7800 C   0  0  0  0  0  0  0  0  0  0  0  0
   58.7980   33.2490   45.7430 C   0  0  0  0  0  0  0  0  0  0  0  0
   59.6130   34.4820   46.0260 C   0  0  0  0  0  0  0  0  0  0  0  0
   60.7800   34.1350   46.9030 C   0  0  0  0  0  0  0  0  0  0  0  0
   60.6780   34.2240   48.3000 C   0  0  0  0  0  0  0  0  0  0  0  0
   61.7940   33.9350   49.0870 C   0  0  0  0  0  0  0  0  0  0  0  0
   62.9980   33.5720   48.4810 C   0  0  0  0  0  0  0  0  0  0  0  0
   63.0660   33.5050   47.0870 C   0  0  0  0  0  0  0  0  0  0  0  0
   61.9690   33.7910   46.3360 N   0  0  0  0  0  0  0  0  0  0  0  0
   59.0910   32.0420   46.3960 C   0  0  0  0  0  0  0  0  0  0  0  0
   58.3670   30.8850   46.0970 C   0  0  0  0  0  0  0  0  0  0  0  0
   55.0030   26.3420   46.6950 H   0  0  0  0  0  0  0  0  0  0  0  0
   55.1460   27.5090   45.3490 H   0  0  0  0  0  0  0  0  0  0  0  0
   56.9784   25.0744   47.4628 H   0  0  0  0  0  0  0  0  0  0  0  0
   59.4475   24.7304   47.4517 H   0  0  0  0  0  0  0  0  0  0  0  0
   60.9030   26.1554   46.0138 H   0  0  0  0  0  0  0  0  0  0  0  0
   59.8936   27.9196   44.5712 H   0  0  0  0  0  0  0  0  0  0  0  0
   56.2465   32.1626   43.7371 H   0  0  0  0  0  0  0  0  0  0  0  0
   57.5470   34.2211   44.2577 H   0  0  0  0  0  0  0  0  0  0  0  0
   59.9815   34.9007   45.0779 H   0  0  0  0  0  0  0  0  0  0  0  0
   58.9821   35.2220   46.5402 H   0  0  0  0  0  0  0  0  0  0  0  0
   59.7281   34.5186   48.7700 H   0  0  0  0  0  0  0  0  0  0  0  0
   61.7248   33.9932   50.1833 H   0  0  0  0  0  0  0  0  0  0  0  0
   63.8823   33.3415   49.0933 H   0  0  0  0  0  0  0  0  0  0  0  0
   64.0084   33.2204   46.5963 H   0  0  0  0  0  0  0  0  0  0  0  0
   59.8943   32.0066   47.1467 H   0  0  0  0  0  0  0  0  0  0  0  0
   58.5933   29.9472   46.6256 H   0  0  0  0  0  0  0  0  0  0  0  0
  1  2  1  0
  2  3  2  0
  3  4  1  0
  4  5  2  0
  5  6  1  0
  6  7  2  0
  7  8  1  0
  8  9  1  0
  9 10  2  0
  9 11  1  0
 11 12  2  0
 12 13  1  0
 13 14  2  0
 14 15  1  0
 15 16  1  0
 16 17  2  0
 17 18  1  0
 18 19  2  0
 19 20  1  0
 20 21  2  0
 14 22  1  0
 22 23  2  0
  7  2  1  0
 23 11  1  0
 21 16  1  0
  1 24  1  0
  1 25  1  0
  3 26  1  0
  4 27  1  0
  5 28  1  0
  6 29  1  0
 12 30  1  0
 13 31  1  0
 15 32  1  0
 15 33  1  0
 17 34  1  0
 18 35  1  0
 19 36  1  0
 20 37  1  0
 22 38  1  0
 23 39  1  0
M  CHG  1   8  -1
M  END
>  <UniqueID>  (86) 
78

>  <SMILES>  (86) 
Nc1ccccc1[N-]C(=O)c1ccc(Cc2ccccn2)cc1

>  <Energy>  (86) 
47.36859384776096

>  <Genealogy>  (86) 
Nc1ccccc1[N-]C(=O)c1ccc(Cc2ccccn2)cc1 (protonated)
Nc1ccccc1[N-]C(=O)c1ccc(Cc2ccccn2)cc1 (3D coordinates assigned)
Nc1ccccc1[N-]C(=O)c1ccc(Cc2ccccn2)cc1 (optimized conformer: 47.36859384776096 kcal/mol)

>  <smiles>  (86) 
Nc1ccccc1NC(=O)c1ccc(Cc2ccccn2)cc1

>  <score_type>  (86) 
oracle

>  <origin>  (86) 
adg

>  <m_score__min__energy>  (86) 
-10.59

>  <m_primary>  (86) 
energy

$$$$
86:0
     RDKit          3D

 47 50  0  0  0  0  0  0  0  0999 V2000
   61.4240   34.2020   49.8390 Cl  0  0  0  0  0  0  0  0  0  0  0  0
   63.0720   33.7180   50.2230 C   0  0  0  0  0  0  0  0  0  0  0  0
   63.7890   34.5040   51.1340 C   0  0  0  0  0  0  0  0  0  0  0  0
   65.1260   34.2140   51.4200 C   0  0  0  0  0  0  0  0  0  0  0  0
   65.7570   33.1410   50.7890 C   0  0  0  0  0  0  0  0  0  0  0  0
   65.0530   32.3510   49.8790 C   0  0  0  0  0  0  0  0  0  0  0  0
   63.7010   32.6200   49.5940 C   0  0  0  0  0  0  0  0  0  0  0  0
   62.9840   31.7470   48.6390 C   0  0  0  0  0  0  0  0  0  0  0  0
   61.8630   30.9850   48.9160 C   0  0  0  0  0  0  0  0  0  0  0  0
   61.5370   30.4240   47.6950 C   0  0  0  0  0  0  0  0  0  0  0  0
   60.3770   29.5230   47.4090 C   0  0  0  0  0  0  0  0  0  0  0  0
   59.3280   30.2670   46.6810 N   0  0  0  0  0  0  0  0  0  0  0  0
   58.8330   31.4130   47.4860 C   0  0  0  0  0  0  0  0  0  0  0  0
   59.0030   32.6990   46.7200 C   0  0  0  0  0  0  0  0  0  0  0  0
   60.2280   33.3880   46.7370 C   0  0  0  0  0  0  0  0  0  0  0  0
   60.3660   34.5950   46.0460 C   0  0  0  0  0  0  0  0  0  0  0  0
   59.2890   35.1170   45.3250 C   0  0  0  0  0  0  0  0  0  0  0  0
   58.0730   34.4290   45.2880 C   0  0  0  0  0  0  0  0  0  0  0  0
   57.9300   33.2220   45.9800 C   0  0  0  0  0  0  0  0  0  0  0  0
   58.2290   29.3550   46.2890 C   0  0  0  0  0  0  0  0  0  0  0  0
   57.5940   29.7920   45.0040 C   0  0  0  0  0  0  0  0  0  0  0  0
   56.3390   29.4120   44.5450 C   0  0  0  0  0  0  0  0  0  0  0  0
   56.0140   29.9730   43.3050 C   0  0  0  0  0  0  0  0  0  0  0  0
   57.0040   30.8030   42.7930 C   0  0  0  0  0  0  0  0  0  0  0  0
   58.2850   30.8370   43.8820 S   0  0  0  0  0  0  0  0  0  0  0  0
   62.3920   30.8400   46.7900 O   0  0  0  0  0  0  0  0  0  0  0  0
   63.2700   31.6330   47.3270 N   0  0  0  0  0  0  0  0  0  0  0  0
   63.2967   35.3549   51.6275 H   0  0  0  0  0  0  0  0  0  0  0  0
   65.6806   34.8312   52.1421 H   0  0  0  0  0  0  0  0  0  0  0  0
   66.8113   32.9175   51.0093 H   0  0  0  0  0  0  0  0  0  0  0  0
   65.5589   31.5111   49.3803 H   0  0  0  0  0  0  0  0  0  0  0  0
   61.3512   30.8558   49.8811 H   0  0  0  0  0  0  0  0  0  0  0  0
   60.7162   28.6760   46.7945 H   0  0  0  0  0  0  0  0  0  0  0  0
   59.9643   29.1524   48.3589 H   0  0  0  0  0  0  0  0  0  0  0  0
   57.7672   31.2638   47.7135 H   0  0  0  0  0  0  0  0  0  0  0  0
   59.4116   31.4722   48.4196 H   0  0  0  0  0  0  0  0  0  0  0  0
   61.0810   32.9758   47.2961 H   0  0  0  0  0  0  0  0  0  0  0  0
   61.3241   35.1349   46.0698 H   0  0  0  0  0  0  0  0  0  0  0  0
   59.3982   36.0698   44.7863 H   0  0  0  0  0  0  0  0  0  0  0  0
   57.2279   34.8371   44.7142 H   0  0  0  0  0  0  0  0  0  0  0  0
   56.9733   32.6802   45.9445 H   0  0  0  0  0  0  0  0  0  0  0  0
   58.6332   28.3398   46.1624 H   0  0  0  0  0  0  0  0  0  0  0  0
   57.4638   29.3722   47.0790 H   0  0  0  0  0  0  0  0  0  0  0  0
   55.6691   28.7387   45.0998 H   0  0  0  0  0  0  0  0  0  0  0  0
   55.0650   29.7758   42.7849 H   0  0  0  0  0  0  0  0  0  0  0  0
   56.9576   31.3458   41.8374 H   0  0  0  0  0  0  0  0  0  0  0  0
   64.0240   32.1250   46.7990 H   0  0  0  0  0  0  0  0  0  0  0  0
  1  2  1  0
  2  3  2  0
  3  4  1  0
  4  5  2  0
  5  6  1  0
  6  7  2  0
  7  8  1  0
  8  9  1  0
  9 10  2  0
 10 11  1  0
 11 12  1  0
 12 13  1  0
 13 14  1  0
 14 15  2  0
 15 16  1  0
 16 17  2  0
 17 18  1  0
 18 19  2  0
 12 20  1  0
 20 21  1  0
 21 22  2  0
 22 23  1  0
 23 24  2  0
 24 25  1  0
 10 26  1  0
 26 27  1  0
  7  2  1  0
 27  8  2  0
 19 14  1  0
 25 21  1  0
  3 28  1  0
  4 29  1  0
  5 30  1  0
  6 31  1  0
  9 32  1  0
 11 33  1  0
 11 34  1  0
 13 35  1  0
 13 36  1  0
 15 37  1  0
 16 38  1  0
 17 39  1  0
 18 40  1  0
 19 41  1  0
 20 42  1  0
 20 43  1  0
 22 44  1  0
 23 45  1  0
 24 46  1  0
 27 47  1  0
M  CHG  1  27   1
M  END
>  <UniqueID>  (87) 
79

>  <SMILES>  (87) 
Clc1ccccc1-c1cc(CN(Cc2ccccc2)Cc2cccs2)o[nH+]1

>  <Energy>  (87) 
112.31335619310713

>  <Genealogy>  (87) 
Clc1ccccc1-c1cc(CN(Cc2ccccc2)Cc2cccs2)o[nH+]1 (protonated)
Clc1ccccc1-c1cc(CN(Cc2ccccc2)Cc2cccs2)o[nH+]1 (3D coordinates assigned)
Clc1ccccc1-c1cc(CN(Cc2ccccc2)Cc2cccs2)o[nH+]1 (optimized conformer: 112.31335619310713 kcal/mol)

>  <smiles>  (87) 
Clc1ccccc1-c1cc(CN(Cc2ccccc2)Cc2cccs2)on1

>  <score_type>  (87) 
oracle

>  <origin>  (87) 
adg

>  <m_score__min__energy>  (87) 
-7.2699999999999996

>  <m_primary>  (87) 
energy

$$$$
87:0
     RDKit          3D

 45 48  0  0  0  0  0  0  0  0999 V2000
   59.1030   30.1280   48.7670 O   0  0  0  0  0  0  0  0  0  0  0  0
   59.1390   31.3770   48.6150 C   0  0  0  0  0  0  0  0  0  0  0  0
   58.2330   31.9880   47.6870 N   0  0  0  0  0  0  0  0  0  0  0  0
   58.5490   33.0420   46.7630 C   0  0  0  0  0  0  0  0  0  0  0  0
   59.0670   34.2700   47.2170 C   0  0  0  0  0  0  0  0  0  0  0  0
   59.4080   35.2730   46.3080 C   0  0  0  0  0  0  0  0  0  0  0  0
   59.2610   35.0560   44.9390 C   0  0  0  0  0  0  0  0  0  0  0  0
   58.7730   33.8340   44.4730 C   0  0  0  0  0  0  0  0  0  0  0  0
   58.4080   32.8230   45.3770 C   0  0  0  0  0  0  0  0  0  0  0  0
   57.7670   31.2940   44.7650 S   0  0  0  0  0  0  0  0  0  0  0  0
   56.2670   31.3380   44.8260 O   0  0  0  0  0  0  0  0  0  0  0  0
   58.1930   31.0820   43.3390 O   0  0  0  0  0  0  0  0  0  0  0  0
   58.3260   29.9540   45.7200 N   0  0  0  0  0  0  0  0  0  0  0  0
   58.1180   28.5740   45.3680 C   0  0  0  0  0  0  0  0  0  0  0  0
   58.3490   28.0970   44.0640 C   0  0  0  0  0  0  0  0  0  0  0  0
   58.1410   26.7490   43.7560 C   0  0  0  0  0  0  0  0  0  0  0  0
   57.7070   25.8620   44.7450 C   0  0  0  0  0  0  0  0  0  0  0  0
   57.4480   24.1720   44.3550 Cl  0  0  0  0  0  0  0  0  0  0  0  0
   57.4830   26.3240   46.0440 C   0  0  0  0  0  0  0  0  0  0  0  0
   57.6890   27.6710   46.3550 C   0  0  0  0  0  0  0  0  0  0  0  0
   60.0910   32.1770   49.4190 C   0  0  0  0  0  0  0  0  0  0  0  0
   59.7380   32.5480   50.7270 C   0  0  0  0  0  0  0  0  0  0  0  0
   60.6280   33.2690   51.5270 C   0  0  0  0  0  0  0  0  0  0  0  0
   61.8770   33.6430   51.0300 C   0  0  0  0  0  0  0  0  0  0  0  0
   62.2380   33.3110   49.7180 C   0  0  0  0  0  0  0  0  0  0  0  0
   63.4740   33.7050   49.1880 C   0  0  0  0  0  0  0  0  0  0  0  0
   63.7940   33.3940   47.8660 C   0  0  0  0  0  0  0  0  0  0  0  0
   62.8750   32.6930   47.0840 C   0  0  0  0  0  0  0  0  0  0  0  0
   61.6850   32.3030   47.6120 N   0  0  0  0  0  0  0  0  0  0  0  0
   61.3410   32.5800   48.9020 C   0  0  0  0  0  0  0  0  0  0  0  0
   59.2039   34.4401   48.2951 H   0  0  0  0  0  0  0  0  0  0  0  0
   59.7935   36.2365   46.6728 H   0  0  0  0  0  0  0  0  0  0  0  0
   59.5298   35.8485   44.2251 H   0  0  0  0  0  0  0  0  0  0  0  0
   58.6737   33.6618   43.3911 H   0  0  0  0  0  0  0  0  0  0  0  0
   58.7780   30.1810   46.6340 H   0  0  0  0  0  0  0  0  0  0  0  0
   58.6953   28.7891   43.2823 H   0  0  0  0  0  0  0  0  0  0  0  0
   58.3193   26.3859   42.7331 H   0  0  0  0  0  0  0  0  0  0  0  0
   57.1438   25.6263   46.8238 H   0  0  0  0  0  0  0  0  0  0  0  0
   57.5138   28.0270   47.3810 H   0  0  0  0  0  0  0  0  0  0  0  0
   58.7515   32.2682   51.1252 H   0  0  0  0  0  0  0  0  0  0  0  0
   60.3428   33.5431   52.5534 H   0  0  0  0  0  0  0  0  0  0  0  0
   62.5787   34.1990   51.6691 H   0  0  0  0  0  0  0  0  0  0  0  0
   64.1904   34.2583   49.8129 H   0  0  0  0  0  0  0  0  0  0  0  0
   64.7628   33.6989   47.4436 H   0  0  0  0  0  0  0  0  0  0  0  0
   63.1145   32.4554   46.0370 H   0  0  0  0  0  0  0  0  0  0  0  0
  1  2  2  0
  2  3  1  0
  3  4  1  0
  4  5  2  0
  5  6  1  0
  6  7  2  0
  7  8  1  0
  8  9  2  0
  9 10  1  0
 10 11  2  0
 10 12  2  0
 10 13  1  0
 13 14  1  0
 14 15  2  0
 15 16  1  0
 16 17  2  0
 17 18  1  0
 17 19  1  0
 19 20  2  0
  2 21  1  0
 21 22  2  0
 22 23  1  0
 23 24  2  0
 24 25  1  0
 25 26  2  0
 26 27  1  0
 27 28  2  0
 28 29  1  0
 29 30  2  0
  9  4  1  0
 20 14  1  0
 30 21  1  0
 30 25  1  0
  5 31  1  0
  6 32  1  0
  7 33  1  0
  8 34  1  0
 13 35  1  0
 15 36  1  0
 16 37  1  0
 19 38  1  0
 20 39  1  0
 22 40  1  0
 23 41  1  0
 24 42  1  0
 26 43  1  0
 27 44  1  0
 28 45  1  0
M  CHG  1   3  -1
M  END
>  <UniqueID>  (88) 
80

>  <SMILES>  (88) 
O=C([N-]c1ccccc1S(=O)(=O)Nc1ccc(Cl)cc1)c1cccc2cccnc12

>  <Energy>  (88) 
63.74924926981147

>  <Genealogy>  (88) 
O=C([N-]c1ccccc1S(=O)(=O)Nc1ccc(Cl)cc1)c1cccc2cccnc12 (protonated)
O=C([N-]c1ccccc1S(=O)(=O)Nc1ccc(Cl)cc1)c1cccc2cccnc12 (3D coordinates assigned)
O=C([N-]c1ccccc1S(=O)(=O)Nc1ccc(Cl)cc1)c1cccc2cccnc12 (optimized conformer: 63.74924926981147 kcal/mol)

>  <smiles>  (88) 
O=C(Nc1ccccc1S(=O)(=O)Nc1ccc(Cl)cc1)c1cccc2cccnc12

>  <score_type>  (88) 
oracle

>  <origin>  (88) 
adg

>  <m_score__min__energy>  (88) 
-10.890000000000001

>  <m_primary>  (88) 
energy

$$$$
88:0
     RDKit          3D

 46 48  0  0  0  0  0  0  0  0999 V2000
   56.2850   29.6940   42.6430 C   0  0  0  0  0  0  0  0  0  0  0  0
   56.4230   29.4050   44.4330 S   0  0  0  0  0  0  0  0  0  0  0  0
   57.3700   30.9000   44.7210 C   0  0  0  0  0  0  0  0  0  0  0  0
   58.1140   31.0420   45.8990 C   0  0  0  0  0  0  0  0  0  0  0  0
   58.8490   32.2080   46.1270 C   0  0  0  0  0  0  0  0  0  0  0  0
   58.8540   33.2400   45.1750 C   0  0  0  0  0  0  0  0  0  0  0  0
   59.6030   34.5150   45.4410 C   0  0  0  0  0  0  0  0  0  0  0  0
   59.7860   34.7030   46.9160 C   0  0  0  0  0  0  0  0  0  0  0  0
   58.9130   35.3310   47.5750 O   0  0  0  0  0  0  0  0  0  0  0  0
   60.9170   34.1220   47.5810 N   0  0  0  0  0  0  0  0  0  0  0  0
   61.0950   34.2120   49.0350 C   0  0  0  0  0  0  0  0  0  0  0  0
   62.4800   33.7610   49.4540 C   0  0  0  0  0  0  0  0  0  0  0  0
   63.1020   34.2610   50.6140 C   0  0  0  0  0  0  0  0  0  0  0  0
   64.3930   33.8500   50.9580 C   0  0  0  0  0  0  0  0  0  0  0  0
   65.0800   32.9460   50.1460 C   0  0  0  0  0  0  0  0  0  0  0  0
   64.4800   32.4560   48.9850 C   0  0  0  0  0  0  0  0  0  0  0  0
   63.1890   32.8640   48.6360 C   0  0  0  0  0  0  0  0  0  0  0  0
   60.0340   33.4070   49.7580 C   0  0  0  0  0  0  0  0  0  0  0  0
   59.5590   32.2060   49.1990 C   0  0  0  0  0  0  0  0  0  0  0  0
   58.5760   31.4620   49.8570 C   0  0  0  0  0  0  0  0  0  0  0  0
   58.0580   31.9060   51.0750 C   0  0  0  0  0  0  0  0  0  0  0  0
   58.5220   33.0940   51.6390 C   0  0  0  0  0  0  0  0  0  0  0  0
   59.5050   33.8430   50.9880 C   0  0  0  0  0  0  0  0  0  0  0  0
   58.1020   33.0940   43.9990 C   0  0  0  0  0  0  0  0  0  0  0  0
   57.3700   31.9250   43.7700 C   0  0  0  0  0  0  0  0  0  0  0  0
   55.8173   30.6735   42.4647 H   0  0  0  0  0  0  0  0  0  0  0  0
   57.2876   29.6787   42.1907 H   0  0  0  0  0  0  0  0  0  0  0  0
   55.6666   28.9046   42.1907 H   0  0  0  0  0  0  0  0  0  0  0  0
   58.1197   30.2343   46.6458 H   0  0  0  0  0  0  0  0  0  0  0  0
   59.4265   32.3181   47.0567 H   0  0  0  0  0  0  0  0  0  0  0  0
   60.5885   34.4668   44.9548 H   0  0  0  0  0  0  0  0  0  0  0  0
   59.0291   35.3621   45.0373 H   0  0  0  0  0  0  0  0  0  0  0  0
   61.6300   33.6270   46.9990 H   0  0  0  0  0  0  0  0  0  0  0  0
   60.9852   35.2696   49.3168 H   0  0  0  0  0  0  0  0  0  0  0  0
   62.5686   34.9796   51.2536 H   0  0  0  0  0  0  0  0  0  0  0  0
   64.8684   34.2396   51.8702 H   0  0  0  0  0  0  0  0  0  0  0  0
   66.0939   32.6199   50.4210 H   0  0  0  0  0  0  0  0  0  0  0  0
   65.0239   31.7473   48.3432 H   0  0  0  0  0  0  0  0  0  0  0  0
   62.7250   32.4806   47.7153 H   0  0  0  0  0  0  0  0  0  0  0  0
   59.9634   31.8512   48.2395 H   0  0  0  0  0  0  0  0  0  0  0  0
   58.2095   30.5242   49.4141 H   0  0  0  0  0  0  0  0  0  0  0  0
   57.2836   31.3186   51.5900 H   0  0  0  0  0  0  0  0  0  0  0  0
   58.1129   33.4421   52.5989 H   0  0  0  0  0  0  0  0  0  0  0  0
   59.8679   34.7785   51.4386 H   0  0  0  0  0  0  0  0  0  0  0  0
   58.0885   33.9031   43.2539 H   0  0  0  0  0  0  0  0  0  0  0  0
   56.7932   31.8115   42.8403 H   0  0  0  0  0  0  0  0  0  0  0  0
  1  2  1  0
  2  3  1  0
  3  4  2  0
  4  5  1  0
  5  6  2  0
  6  7  1  0
  7  8  1  0
  8  9  2  0
  8 10  1  0
 10 11  1  0
 11 12  1  0
 12 13  2  0
 13 14  1  0
 14 15  2  0
 15 16  1  0
 16 17  2  0
 11 18  1  0
 18 19  2  0
 19 20  1  0
 20 21  2  0
 21 22  1  0
 22 23  2  0
  6 24  1  0
 24 25  2  0
 25  3  1  0
 17 12  1  0
 23 18  1  0
  1 26  1  0
  1 27  1  0
  1 28  1  0
  4 29  1  0
  5 30  1  0
  7 31  1  0
  7 32  1  0
 10 33  1  0
 11 34  1  0
 13 35  1  0
 14 36  1  0
 15 37  1  0
 16 38  1  0
 17 39  1  0
 19 40  1  0
 20 41  1  0
 21 42  1  0
 22 43  1  0
 23 44  1  0
 24 45  1  0
 25 46  1  0
M  END
>  <UniqueID>  (89) 
81

>  <SMILES>  (89) 
CSc1ccc(CC(=O)NC(c2ccccc2)c2ccccc2)cc1

>  <Energy>  (89) 
41.772348797251425

>  <Genealogy>  (89) 
CSc1ccc(CC(=O)NC(c2ccccc2)c2ccccc2)cc1 (3D coordinates assigned)
CSc1ccc(CC(=O)NC(c2ccccc2)c2ccccc2)cc1 (optimized conformer: 41.772348797251425 kcal/mol)

>  <smiles>  (89) 
CSc1ccc(CC(=O)NC(c2ccccc2)c2ccccc2)cc1

>  <score_type>  (89) 
oracle

>  <origin>  (89) 
adg

>  <m_score__min__energy>  (89) 
-8.2400000000000002

>  <m_primary>  (89) 
energy

$$$$
89:0
     RDKit          3D

 53 58  0  0  0  0  0  0  0  0999 V2000
   57.8379   24.6204   48.4280 H   0  0  0  0  0  0  0  0  0  0  0  0
   56.9300   24.3560   47.8660 C   0  0  0  0  0  0  0  0  0  0  0  0
   56.1030   23.3350   48.1750 N   0  0  0  0  0  0  0  0  0  0  0  0
   55.1460   23.4060   47.2290 C   0  0  0  0  0  0  0  0  0  0  0  0
   54.0570   22.5430   47.1290 C   0  0  0  0  0  0  0  0  0  0  0  0
   53.9142   21.7221   47.8471 H   0  0  0  0  0  0  0  0  0  0  0  0
   53.1500   22.7560   46.0830 C   0  0  0  0  0  0  0  0  0  0  0  0
   52.2819   22.0906   45.9660 H   0  0  0  0  0  0  0  0  0  0  0  0
   53.3460   23.8190   45.1810 C   0  0  0  0  0  0  0  0  0  0  0  0
   52.4630   24.0280   44.1730 F   0  0  0  0  0  0  0  0  0  0  0  0
   54.4610   24.6580   45.3280 C   0  0  0  0  0  0  0  0  0  0  0  0
   54.6289   25.4964   44.6359 H   0  0  0  0  0  0  0  0  0  0  0  0
   55.3320   24.4110   46.3480 N   0  0  0  0  0  0  0  0  0  0  0  0
   56.4720   25.0270   46.7360 C   0  0  0  0  0  0  0  0  0  0  0  0
   57.1400   26.1790   46.0700 C   0  0  0  0  0  0  0  0  0  0  0  0
   56.4360   27.3060   45.7910 N   0  0  0  0  0  0  0  0  0  0  0  0
   57.0070   28.3890   45.2000 C   0  0  0  0  0  0  0  0  0  0  0  0
   56.2800   29.4370   44.9520 N   0  0  0  0  0  0  0  0  0  0  0  0
   56.6940   30.5810   44.1860 C   0  0  0  0  0  0  0  0  0  0  0  0
   56.7830   30.5180   42.7850 C   0  0  0  0  0  0  0  0  0  0  0  0
   56.4229   29.6247   42.2536 H   0  0  0  0  0  0  0  0  0  0  0  0
   57.3260   31.5830   42.0640 C   0  0  0  0  0  0  0  0  0  0  0  0
   57.3828   31.5311   40.9667 H   0  0  0  0  0  0  0  0  0  0  0  0
   57.7980   32.7160   42.7350 C   0  0  0  0  0  0  0  0  0  0  0  0
   58.2253   33.5527   42.1629 H   0  0  0  0  0  0  0  0  0  0  0  0
   57.7290   32.7900   44.1330 C   0  0  0  0  0  0  0  0  0  0  0  0
   58.2250   33.9740   44.7790 N   0  0  0  0  0  0  0  0  0  0  0  0
   59.0600   34.0520   45.9450 C   0  0  0  0  0  0  0  0  0  0  0  0
   59.7410   35.0960   46.1240 O   0  0  0  0  0  0  0  0  0  0  0  0
   59.1840   32.9370   46.9130 C   0  0  0  0  0  0  0  0  0  0  0  0
   58.6940   33.0910   48.2220 C   0  0  0  0  0  0  0  0  0  0  0  0
   58.2497   34.0497   48.5279 H   0  0  0  0  0  0  0  0  0  0  0  0
   58.7660   32.0370   49.1390 C   0  0  0  0  0  0  0  0  0  0  0  0
   58.3739   32.1697   50.1582 H   0  0  0  0  0  0  0  0  0  0  0  0
   59.3360   30.8120   48.7640 C   0  0  0  0  0  0  0  0  0  0  0  0
   59.3930   29.7420   49.6700 C   0  0  0  0  0  0  0  0  0  0  0  0
   58.9869   29.8606   50.6854 H   0  0  0  0  0  0  0  0  0  0  0  0
   59.9650   28.5250   49.2850 C   0  0  0  0  0  0  0  0  0  0  0  0
   60.0076   27.6896   49.9994 H   0  0  0  0  0  0  0  0  0  0  0  0
   60.4820   28.3660   47.9980 C   0  0  0  0  0  0  0  0  0  0  0  0
   60.9314   27.4070   47.7010 H   0  0  0  0  0  0  0  0  0  0  0  0
   60.4290   29.4250   47.0860 C   0  0  0  0  0  0  0  0  0  0  0  0
   60.8357   29.2950   46.0722 H   0  0  0  0  0  0  0  0  0  0  0  0
   59.8590   30.6540   47.4580 C   0  0  0  0  0  0  0  0  0  0  0  0
   59.7920   31.7210   46.5460 C   0  0  0  0  0  0  0  0  0  0  0  0
   60.2175   31.6055   45.5382 H   0  0  0  0  0  0  0  0  0  0  0  0
   57.1550   31.7230   44.8540 C   0  0  0  0  0  0  0  0  0  0  0  0
   57.0685   31.7876   45.9487 H   0  0  0  0  0  0  0  0  0  0  0  0
   58.3190   28.3340   44.8310 N   0  0  0  0  0  0  0  0  0  0  0  0
   59.0660   27.2240   45.0630 C   0  0  0  0  0  0  0  0  0  0  0  0
   60.1219   27.1972   44.7557 H   0  0  0  0  0  0  0  0  0  0  0  0
   58.4940   26.1180   45.6910 C   0  0  0  0  0  0  0  0  0  0  0  0
   59.0902   25.2145   45.8865 H   0  0  0  0  0  0  0  0  0  0  0  0
  1  2  1  0
  2  3  1  0
  3  4  2  0
  4  5  1  0
  5  6  1  0
  5  7  2  0
  7  8  1  0
  7  9  1  0
  9 10  1  0
  9 11  2  0
 11 12  1  0
 11 13  1  0
 13 14  1  0
 14 15  1  0
 15 16  2  0
 16 17  1  0
 17 18  2  0
 18 19  1  0
 19 20  2  0
 20 21  1  0
 20 22  1  0
 22 23  1  0
 22 24  2  0
 24 25  1  0
 24 26  1  0
 26 27  1  0
 27 28  1  0
 28 29  2  0
 28 30  1  0
 30 31  2  0
 31 32  1  0
 31 33  1  0
 33 34  1  0
 33 35  2  0
 35 36  1  0
 36 37  1  0
 36 38  2  0
 38 39  1  0
 38 40  1  0
 40 41  1  0
 40 42  2  0
 42 43  1  0
 42 44  1  0
 44 45  2  0
 45 46  1  0
 26 47  2  0
 47 48  1  0
 17 49  1  0
 49 50  1  0
 50 51  1  0
 50 52  2  0
 52 53  1  0
 14  2  2  0
 52 15  1  0
 13  4  1  0
 47 19  1  0
 45 30  1  0
 44 35  1  0
M  CHG  2  27  -1  49  -1
M  END
>  <UniqueID>  (90) 
82

>  <SMILES>  (90) 
O=C([N-]c1cccc(/N=c2/nc(-c3cnc4ccc(F)cn34)cc[n-]2)c1)c1ccc2ccccc2c1

>  <Energy>  (90) 
118.79710769170485

>  <Genealogy>  (90) 
O=C([N-]c1cccc(N=c2nc(-c3cnc4ccc(F)cn34)cc[n-]2)c1)c1ccc2ccccc2c1 (protonated)
O=C([N-]c1cccc(/N=c2/nc(-c3cnc4ccc(F)cn34)cc[n-]2)c1)c1ccc2ccccc2c1 (cis-trans isomerization)
O=C([N-]c1cccc(/N=c2/nc(-c3cnc4ccc(F)cn34)cc[n-]2)c1)c1ccc2ccccc2c1 (3D coordinates assigned)
O=C([N-]c1cccc(/N=c2/nc(-c3cnc4ccc(F)cn34)cc[n-]2)c1)c1ccc2ccccc2c1 (optimized conformer: 118.79710769170485 kcal/mol)

>  <smiles>  (90) 
O=C(Nc1cccc(N=c2nc(-c3cnc4ccc(F)cn34)cc[nH]2)c1)c1ccc2ccccc2c1

>  <score_type>  (90) 
oracle

>  <origin>  (90) 
adg

>  <m_score__min__energy>  (90) 
-12.75

>  <m_primary>  (90) 
energy

$$$$
90:0
     RDKit          3D

 48 50  0  0  0  0  0  0  0  0999 V2000
   56.1339   23.2148   45.3893 H   0  0  0  0  0  0  0  0  0  0  0  0
   56.3200   24.2910   45.5200 C   0  0  0  0  0  0  0  0  0  0  0  0
   57.5760   24.7910   45.3750 N   0  0  0  0  0  0  0  0  0  0  0  0
   57.8290   26.1170   45.5310 C   0  0  0  0  0  0  0  0  0  0  0  0
   58.8516   26.5039   45.4098 H   0  0  0  0  0  0  0  0  0  0  0  0
   56.7790   26.9870   45.8470 C   0  0  0  0  0  0  0  0  0  0  0  0
   57.0130   28.2550   45.9980 N   0  0  0  0  0  0  0  0  0  0  0  0
   56.6580   29.4470   44.7880 S   0  0  0  0  0  0  0  0  0  0  0  0
   55.2010   29.8130   44.8450 O   0  0  0  0  0  0  0  0  0  0  0  0
   56.9790   28.9020   43.4240 O   0  0  0  0  0  0  0  0  0  0  0  0
   57.6390   30.8770   45.0940 C   0  0  0  0  0  0  0  0  0  0  0  0
   57.2780   32.1120   44.5410 C   0  0  0  0  0  0  0  0  0  0  0  0
   56.3848   32.1873   43.9035 H   0  0  0  0  0  0  0  0  0  0  0  0
   58.0500   33.2500   44.7970 C   0  0  0  0  0  0  0  0  0  0  0  0
   57.7602   34.2168   44.3595 H   0  0  0  0  0  0  0  0  0  0  0  0
   59.1940   33.1660   45.6100 C   0  0  0  0  0  0  0  0  0  0  0  0
   59.9730   34.3430   45.8990 N   0  0  0  0  0  0  0  0  0  0  0  0
   59.3610   35.1920   45.8970 H   0  0  0  0  0  0  0  0  0  0  0  0
   60.7020   34.4860   45.1610 H   0  0  0  0  0  0  0  0  0  0  0  0
   60.5960   34.2060   47.1880 C   0  0  0  0  0  0  0  0  0  0  0  0
   62.1990   33.8400   47.2770 S   0  0  0  0  0  0  0  0  0  0  0  0
   59.7860   34.2780   48.3770 N   0  0  0  0  0  0  0  0  0  0  0  0
   58.7580   34.4250   48.2680 H   0  0  0  0  0  0  0  0  0  0  0  0
   60.3140   34.1890   49.7380 C   0  0  0  0  0  0  0  0  0  0  0  0
   61.2682   33.6420   49.7209 H   0  0  0  0  0  0  0  0  0  0  0  0
   60.4666   35.2065   50.1272 H   0  0  0  0  0  0  0  0  0  0  0  0
   59.3450   33.4660   50.6340 C   0  0  0  0  0  0  0  0  0  0  0  0
   59.0680   33.9660   51.9190 C   0  0  0  0  0  0  0  0  0  0  0  0
   59.5605   34.8860   52.2669 H   0  0  0  0  0  0  0  0  0  0  0  0
   58.1690   33.2980   52.7560 C   0  0  0  0  0  0  0  0  0  0  0  0
   57.9573   33.6924   53.7608 H   0  0  0  0  0  0  0  0  0  0  0  0
   57.5390   32.1300   52.3180 C   0  0  0  0  0  0  0  0  0  0  0  0
   56.8337   31.6047   52.9788 H   0  0  0  0  0  0  0  0  0  0  0  0
   57.8050   31.6290   51.0400 C   0  0  0  0  0  0  0  0  0  0  0  0
   57.3086   30.7098   50.6957 H   0  0  0  0  0  0  0  0  0  0  0  0
   58.7020   32.2960   50.1990 C   0  0  0  0  0  0  0  0  0  0  0  0
   58.9046   31.9021   49.1921 H   0  0  0  0  0  0  0  0  0  0  0  0
   59.5410   31.9250   46.1730 C   0  0  0  0  0  0  0  0  0  0  0  0
   60.4268   31.8479   46.8206 H   0  0  0  0  0  0  0  0  0  0  0  0
   58.7690   30.7890   45.9160 C   0  0  0  0  0  0  0  0  0  0  0  0
   59.0498   29.8229   46.3607 H   0  0  0  0  0  0  0  0  0  0  0  0
   55.5240   26.4810   45.9910 N   0  0  0  0  0  0  0  0  0  0  0  0
   55.2680   25.1530   45.8360 C   0  0  0  0  0  0  0  0  0  0  0  0
   53.9740   24.6470   45.9860 O   0  0  0  0  0  0  0  0  0  0  0  0
   53.2460   24.0710   44.9080 C   0  0  0  0  0  0  0  0  0  0  0  0
   52.4421   23.4349   45.3069 H   0  0  0  0  0  0  0  0  0  0  0  0
   52.8092   24.8707   44.2918 H   0  0  0  0  0  0  0  0  0  0  0  0
   53.9238   23.4620   44.2918 H   0  0  0  0  0  0  0  0  0  0  0  0
  1  2  1  0
  2  3  1  0
  3  4  2  0
  4  5  1  0
  4  6  1  0
  6  7  2  0
  7  8  1  0
  8  9  2  0
  8 10  2  0
  8 11  1  0
 11 12  2  0
 12 13  1  0
 12 14  1  0
 14 15  1  0
 14 16  2  0
 16 17  1  0
 17 18  1  0
 17 19  1  0
 17 20  1  0
 20 21  2  0
 20 22  1  0
 22 23  1  0
 22 24  1  0
 24 25  1  0
 24 26  1  0
 24 27  1  0
 27 28  2  0
 28 29  1  0
 28 30  1  0
 30 31  1  0
 30 32  2  0
 32 33  1  0
 32 34  1  0
 34 35  1  0
 34 36  2  0
 36 37  1  0
 16 38  1  0
 38 39  1  0
 38 40  2  0
 40 41  1  0
  6 42  1  0
 42 43  1  0
 43 44  1  0
 44 45  1  0
 45 46  1  0
 45 47  1  0
 45 48  1  0
 43  2  2  0
 40 11  1  0
 36 27  1  0
M  CHG  2  17   1  42  -1
M  END
>  <UniqueID>  (91) 
83

>  <SMILES>  (91) 
COc1cnc/c(=N/S(=O)(=O)c2ccc([NH2+]C(=S)NCc3ccccc3)cc2)[n-]1

>  <Energy>  (91) 
52.867308216493846

>  <Genealogy>  (91) 
COc1cncc(=NS(=O)(=O)c2ccc([NH2+]C(=S)NCc3ccccc3)cc2)[n-]1 (protonated)
COc1cnc/c(=N/S(=O)(=O)c2ccc([NH2+]C(=S)NCc3ccccc3)cc2)[n-]1 (cis-trans isomerization)
COc1cnc/c(=N/S(=O)(=O)c2ccc([NH2+]C(=S)NCc3ccccc3)cc2)[n-]1 (3D coordinates assigned)
COc1cnc/c(=N/S(=O)(=O)c2ccc([NH2+]C(=S)NCc3ccccc3)cc2)[n-]1 (optimized conformer: 52.867308216493846 kcal/mol)

>  <smiles>  (91) 
COc1cncc(=NS(=O)(=O)c2ccc(NC(=S)NCc3ccccc3)cc2)[nH]1

>  <score_type>  (91) 
oracle

>  <origin>  (91) 
adg

>  <m_score__min__energy>  (91) 
-8.9299999999999997

>  <m_primary>  (91) 
energy

$$$$
91:0
     RDKit          3D

 60 63  0  0  0  0  0  0  0  0999 V2000
   54.4830   27.1000   46.6650 H   0  0  0  0  0  0  0  0  0  0  0  0
   55.1410   26.6150   46.0150 N   0  0  0  0  0  0  0  0  0  0  0  0
   56.2280   25.8410   46.5160 C   0  0  0  0  0  0  0  0  0  0  0  0
   55.9950   24.7520   47.1030 O   0  0  0  0  0  0  0  0  0  0  0  0
   57.6030   26.3610   46.4140 C   0  0  0  0  0  0  0  0  0  0  0  0
   57.9640   27.6580   46.7250 C   0  0  0  0  0  0  0  0  0  0  0  0
   57.2685   28.4919   46.9011 H   0  0  0  0  0  0  0  0  0  0  0  0
   59.3080   27.7330   46.7770 N   0  0  0  0  0  0  0  0  0  0  0  0
   60.0750   28.9180   47.1830 C   0  0  2  0  0  0  0  0  0  0  0  0
   61.0974   28.5743   47.3987 H   0  0  0  0  0  0  0  0  0  0  0  0
   59.5030   29.5460   48.4640 C   0  0  0  0  0  0  0  0  0  0  0  0
   59.4685   28.7800   49.2527 H   0  0  0  0  0  0  0  0  0  0  0  0
   58.4948   29.9254   48.2413 H   0  0  0  0  0  0  0  0  0  0  0  0
   60.3700   30.7310   48.9520 C   0  0  0  0  0  0  0  0  0  0  0  0
   61.0343   30.3723   49.7520 H   0  0  0  0  0  0  0  0  0  0  0  0
   59.6839   31.5147   49.3057 H   0  0  0  0  0  0  0  0  0  0  0  0
   61.2040   31.3260   47.8770 N   0  0  2  0  0  0  0  0  0  0  0  0
   62.0570   30.7310   47.7440 H   0  0  0  0  0  0  0  0  0  0  0  0
   61.6570   32.6380   48.2710 C   0  0  0  0  0  0  0  0  0  0  0  0
   62.7200   33.1210   47.7860 O   0  0  0  0  0  0  0  0  0  0  0  0
   60.8960   33.3830   49.1780 O   0  0  0  0  0  0  0  0  0  0  0  0
   59.9950   34.4070   48.7660 C   0  0  0  0  0  0  0  0  0  0  0  0
   58.9653   34.1134   49.0181 H   0  0  0  0  0  0  0  0  0  0  0  0
   60.2440   35.3458   49.2825 H   0  0  0  0  0  0  0  0  0  0  0  0
   60.1130   34.6080   47.2540 C   0  0  0  0  0  0  0  0  0  0  0  0
   60.5620   35.5933   47.0601 H   0  0  0  0  0  0  0  0  0  0  0  0
   60.7409   33.8001   46.8504 H   0  0  0  0  0  0  0  0  0  0  0  0
   58.7400   34.5400   46.5570 C   0  0  2  0  0  0  0  0  0  0  0  0
   58.2855   35.4996   46.8444 H   0  0  0  0  0  0  0  0  0  0  0  0
   57.9300   33.3240   46.9780 C   0  0  0  0  0  0  0  0  0  0  0  0
   57.3207   33.5731   47.8593 H   0  0  0  0  0  0  0  0  0  0  0  0
   58.6066   32.4946   47.2316 H   0  0  0  0  0  0  0  0  0  0  0  0
   57.0890   32.9460   45.9130 O   0  0  0  0  0  0  0  0  0  0  0  0
   57.5620   33.5820   44.7460 C   0  0  0  0  0  0  0  0  0  0  0  0
   56.7930   34.2718   44.3680 H   0  0  0  0  0  0  0  0  0  0  0  0
   57.7845   32.8229   43.9816 H   0  0  0  0  0  0  0  0  0  0  0  0
   58.8250   34.3600   45.0650 C   0  0  0  0  0  0  0  0  0  0  0  0
   58.8327   35.3313   44.5488 H   0  0  0  0  0  0  0  0  0  0  0  0
   59.7437   33.8497   44.7402 H   0  0  0  0  0  0  0  0  0  0  0  0
   60.4770   31.3920   46.5930 C   0  0  0  0  0  0  0  0  0  0  0  0
   61.0921   31.9354   45.8607 H   0  0  0  0  0  0  0  0  0  0  0  0
   59.5220   31.9113   46.7614 H   0  0  0  0  0  0  0  0  0  0  0  0
   60.1720   29.9730   46.0430 C   0  0  2  0  0  0  0  0  0  0  0  0
   61.0095   29.6474   45.4085 H   0  0  0  0  0  0  0  0  0  0  0  0
   58.9540   30.0210   45.2130 C   0  0  0  0  0  0  0  0  0  0  0  0
   57.9980   30.0580   44.5610 N   0  0  0  0  0  0  0  0  0  0  0  0
   59.8370   26.5450   46.5230 N   0  0  0  0  0  0  0  0  0  0  0  0
   58.8260   25.6950   46.2720 C   0  0  0  0  0  0  0  0  0  0  0  0
   59.0440   24.4570   45.9270 N   0  0  0  0  0  0  0  0  0  0  0  0
   58.2790   23.6500   45.0230 C   0  0  0  0  0  0  0  0  0  0  0  0
   57.3860   24.2360   44.1090 C   0  0  0  0  0  0  0  0  0  0  0  0
   57.2337   25.3254   44.1121 H   0  0  0  0  0  0  0  0  0  0  0  0
   56.6910   23.4370   43.1960 C   0  0  0  0  0  0  0  0  0  0  0  0
   55.9778   23.8959   42.4954 H   0  0  0  0  0  0  0  0  0  0  0  0
   56.9020   22.0550   43.1730 C   0  0  0  0  0  0  0  0  0  0  0  0
   56.2280   21.2810   42.2850 F   0  0  0  0  0  0  0  0  0  0  0  0
   57.8170   21.4720   44.0540 C   0  0  0  0  0  0  0  0  0  0  0  0
   57.9892   20.3859   44.0289 H   0  0  0  0  0  0  0  0  0  0  0  0
   58.5140   22.2700   44.9680 C   0  0  0  0  0  0  0  0  0  0  0  0
   59.2493   21.8120   45.6459 H   0  0  0  0  0  0  0  0  0  0  0  0
  1  2  1  0
  2  3  1  0
  3  4  2  0
  3  5  1  0
  5  6  2  0
  6  7  1  0
  6  8  1  0
  8  9  1  0
  9 10  1  1
  9 11  1  0
 11 12  1  0
 11 13  1  0
 11 14  1  0
 14 15  1  0
 14 16  1  0
 14 17  1  0
 17 18  1  6
 17 19  1  0
 19 20  2  0
 19 21  1  0
 21 22  1  0
 22 23  1  0
 22 24  1  0
 22 25  1  0
 25 26  1  0
 25 27  1  0
 25 28  1  0
 28 29  1  6
 28 30  1  0
 30 31  1  0
 30 32  1  0
 30 33  1  0
 33 34  1  0
 34 35  1  0
 34 36  1  0
 34 37  1  0
 37 38  1  0
 37 39  1  0
 17 40  1  0
 40 41  1  0
 40 42  1  0
 40 43  1  0
 43 44  1  6
 43 45  1  0
 45 46  3  0
  8 47  1  0
 47 48  1  0
 48 49  2  0
 49 50  1  0
 50 51  2  0
 51 52  1  0
 51 53  1  0
 53 54  1  0
 53 55  2  0
 55 56  1  0
 55 57  1  0
 57 58  1  0
 57 59  2  0
 59 60  1  0
 48  5  1  0
 59 50  1  0
 43  9  1  0
 37 28  1  0
M  CHG  3   2  -1  17   1  47  -1
M  END
>  <UniqueID>  (92) 
84

>  <SMILES>  (92) 
N#C[C@H]1C[N@@H+](C(=O)OCCC2CCOC2)CCC1n1cc(C([NH-])=O)/c(=N\c2ccc(F)cc2)[n-]1

>  <Energy>  (92) 
109.97234199557141

>  <Genealogy>  (92) 
N#CC1C[NH+](C(=O)OCCC2CCOC2)CCC1n1cc(C([NH-])=O)c(=Nc2ccc(F)cc2)[n-]1 (protonated)
N#C[C@H]1C[N@@H+](C(=O)OCCC2CCOC2)CCC1n1cc(C([NH-])=O)c(=Nc2ccc(F)cc2)[n-]1 (chirality)
N#C[C@H]1C[N@@H+](C(=O)OCCC2CCOC2)CCC1n1cc(C([NH-])=O)/c(=N\c2ccc(F)cc2)[n-]1 (cis-trans isomerization)
N#C[C@H]1C[N@@H+](C(=O)OCCC2CCOC2)CCC1n1cc(C([NH-])=O)/c(=N\c2ccc(F)cc2)[n-]1 (3D coordinates assigned)
N#C[C@H]1C[N@@H+](C(=O)OCCC2CCOC2)CCC1n1cc(C([NH-])=O)/c(=N\c2ccc(F)cc2)[n-]1 (nonaromatic ring conformer: 109.97234199557141 kcal/mol)

>  <smiles>  (92) 
N#CC1CN(C(=O)OCCC2CCOC2)CCC1n1cc(C(N)=O)c(=Nc2ccc(F)cc2)[nH]1

>  <score_type>  (92) 
oracle

>  <origin>  (92) 
adg

>  <m_score__min__energy>  (92) 
-12.52

>  <m_primary>  (92) 
energy

$$$$
92:0
     RDKit          3D

 31 32  0  0  0  0  0  0  0  0999 V2000
   56.8400   24.9600   44.9670 C   0  0  0  0  0  0  0  0  0  0  0  0
   56.4920   26.3660   46.0670 S   0  0  0  0  0  0  0  0  0  0  0  0
   58.1200   27.1000   45.8430 C   0  0  0  0  0  0  0  0  0  0  0  0
   59.1240   26.7820   46.7670 C   0  0  0  0  0  0  0  0  0  0  0  0
   60.3970   27.3400   46.6480 C   0  0  0  0  0  0  0  0  0  0  0  0
   60.6780   28.2160   45.6010 C   0  0  0  0  0  0  0  0  0  0  0  0
   59.6880   28.5360   44.6700 C   0  0  0  0  0  0  0  0  0  0  0  0
   58.3950   27.9900   44.7800 C   0  0  0  0  0  0  0  0  0  0  0  0
   57.3770   28.3160   43.8150 N   0  0  0  0  0  0  0  0  0  0  0  0
   56.4340   29.7710   43.8880 S   0  0  0  0  0  0  0  0  0  0  0  0
   55.8950   30.0880   42.5210 O   0  0  0  0  0  0  0  0  0  0  0  0
   55.2780   29.5670   44.8260 O   0  0  0  0  0  0  0  0  0  0  0  0
   57.4250   31.0930   44.4970 C   0  0  0  0  0  0  0  0  0  0  0  0
   57.7480   32.1620   43.6510 C   0  0  0  0  0  0  0  0  0  0  0  0
   58.5130   33.2310   44.1280 C   0  0  0  0  0  0  0  0  0  0  0  0
   58.9590   33.2350   45.4530 C   0  0  0  0  0  0  0  0  0  0  0  0
   58.6410   32.1710   46.3010 C   0  0  0  0  0  0  0  0  0  0  0  0
   57.8770   31.1010   45.8260 C   0  0  0  0  0  0  0  0  0  0  0  0
   57.0609   24.0677   45.5712 H   0  0  0  0  0  0  0  0  0  0  0  0
   55.9630   24.7652   44.3323 H   0  0  0  0  0  0  0  0  0  0  0  0
   57.7066   25.1968   44.3323 H   0  0  0  0  0  0  0  0  0  0  0  0
   58.9070   26.0875   47.5920 H   0  0  0  0  0  0  0  0  0  0  0  0
   61.1786   27.0888   47.3801 H   0  0  0  0  0  0  0  0  0  0  0  0
   61.6818   28.6561   45.5080 H   0  0  0  0  0  0  0  0  0  0  0  0
   59.9207   29.2218   43.8420 H   0  0  0  0  0  0  0  0  0  0  0  0
   57.0990   27.6190   43.0910 H   0  0  0  0  0  0  0  0  0  0  0  0
   57.3986   32.1604   42.6080 H   0  0  0  0  0  0  0  0  0  0  0  0
   58.7638   34.0687   43.4607 H   0  0  0  0  0  0  0  0  0  0  0  0
   59.5605   34.0761   45.8281 H   0  0  0  0  0  0  0  0  0  0  0  0
   58.9922   32.1753   47.3434 H   0  0  0  0  0  0  0  0  0  0  0  0
   57.6295   30.2636   46.4950 H   0  0  0  0  0  0  0  0  0  0  0  0
  1  2  1  0
  2  3  1  0
  3  4  2  0
  4  5  1  0
  5  6  2  0
  6  7  1  0
  7  8  2  0
  8  9  1  0
  9 10  1  0
 10 11  2  0
 10 12  2  0
 10 13  1  0
 13 14  2  0
 14 15  1  0
 15 16  2  0
 16 17  1  0
 17 18  2  0
  8  3  1  0
 18 13  1  0
  1 19  1  0
  1 20  1  0
  1 21  1  0
  4 22  1  0
  5 23  1  0
  6 24  1  0
  7 25  1  0
  9 26  1  0
 14 27  1  0
 15 28  1  0
 16 29  1  0
 17 30  1  0
 18 31  1  0
M  END
>  <UniqueID>  (93) 
85

>  <SMILES>  (93) 
CSc1ccccc1NS(=O)(=O)c1ccccc1

>  <Energy>  (93) 
31.06370654653255

>  <Genealogy>  (93) 
CSc1ccccc1NS(=O)(=O)c1ccccc1 (3D coordinates assigned)
CSc1ccccc1NS(=O)(=O)c1ccccc1 (optimized conformer: 31.06370654653255 kcal/mol)

>  <smiles>  (93) 
CSc1ccccc1NS(=O)(=O)c1ccccc1

>  <score_type>  (93) 
oracle

>  <origin>  (93) 
adg

>  <m_score__min__energy>  (93) 
-7.3799999999999999

>  <m_primary>  (93) 
energy

$$$$
93:0
     RDKit          3D

 28 30  0  0  0  0  0  0  0  0999 V2000
   57.0200   34.2650   44.8760 C   0  0  0  0  0  0  0  0  0  0  0  0
   58.1990   33.7280   45.6320 C   0  0  0  0  0  0  0  0  0  0  0  0
   59.0130   34.5920   46.3900 C   0  0  0  0  0  0  0  0  0  0  0  0
   60.1210   34.0890   47.1010 C   0  0  0  0  0  0  0  0  0  0  0  0
   60.4330   32.7530   47.0720 N   0  0  0  0  0  0  0  0  0  0  0  0
   61.5880   32.2420   47.8150 C   0  0  0  0  0  0  0  0  0  0  0  0
   59.6440   31.9150   46.3370 C   0  0  0  0  0  0  0  0  0  0  0  0
   59.8130   30.5790   46.2040 N   0  0  0  0  0  0  0  0  0  0  0  0
   58.8080   30.1840   45.3970 C   0  0  0  0  0  0  0  0  0  0  0  0
   58.5540   28.8830   44.9620 C   0  0  0  0  0  0  0  0  0  0  0  0
   57.4510   28.6710   44.1190 C   0  0  0  0  0  0  0  0  0  0  0  0
   56.6310   29.7520   43.7280 C   0  0  0  0  0  0  0  0  0  0  0  0
   56.9050   31.0560   44.1780 C   0  0  0  0  0  0  0  0  0  0  0  0
   58.0070   31.2450   45.0170 C   0  0  0  0  0  0  0  0  0  0  0  0
   58.5470   32.3690   45.6250 C   0  0  0  0  0  0  0  0  0  0  0  0
   56.2561   34.6129   45.5869 H   0  0  0  0  0  0  0  0  0  0  0  0
   57.3419   35.1053   44.2433 H   0  0  0  0  0  0  0  0  0  0  0  0
   56.5974   33.4706   44.2433 H   0  0  0  0  0  0  0  0  0  0  0  0
   58.7823   35.6669   46.4273 H   0  0  0  0  0  0  0  0  0  0  0  0
   60.7455   34.7782   47.6884 H   0  0  0  0  0  0  0  0  0  0  0  0
   61.3961   32.3269   48.8948 H   0  0  0  0  0  0  0  0  0  0  0  0
   61.7541   31.1864   47.5540 H   0  0  0  0  0  0  0  0  0  0  0  0
   62.4808   32.8291   47.5540 H   0  0  0  0  0  0  0  0  0  0  0  0
   60.5530   29.9770   46.6270 H   0  0  0  0  0  0  0  0  0  0  0  0
   59.1992   28.0472   45.2705 H   0  0  0  0  0  0  0  0  0  0  0  0
   57.2243   27.6559   43.7609 H   0  0  0  0  0  0  0  0  0  0  0  0
   55.7709   29.5728   43.0661 H   0  0  0  0  0  0  0  0  0  0  0  0
   56.2703   31.9029   43.8783 H   0  0  0  0  0  0  0  0  0  0  0  0
  1  2  1  0
  2  3  2  0
  3  4  1  0
  4  5  2  0
  5  6  1  0
  5  7  1  0
  7  8  1  0
  8  9  1  0
  9 10  2  0
 10 11  1  0
 11 12  2  0
 12 13  1  0
 13 14  2  0
 14 15  1  0
 15  2  1  0
 15  7  2  0
 14  9  1  0
  1 16  1  0
  1 17  1  0
  1 18  1  0
  3 19  1  0
  4 20  1  0
  6 21  1  0
  6 22  1  0
  6 23  1  0
  8 24  1  0
 10 25  1  0
 11 26  1  0
 12 27  1  0
 13 28  1  0
M  CHG  1   5   1
M  END
>  <UniqueID>  (94) 
86

>  <SMILES>  (94) 
Cc1cc[n+](C)c2[nH]c3ccccc3c12

>  <Energy>  (94) 
73.12867414006196

>  <Genealogy>  (94) 
Cc1cc[n+](C)c2[nH]c3ccccc3c12 (3D coordinates assigned)
Cc1cc[n+](C)c2[nH]c3ccccc3c12 (optimized conformer: 73.12867414006196 kcal/mol)

>  <smiles>  (94) 
Cc1cc[n+](C)c2[nH]c3ccccc3c12

>  <score_type>  (94) 
oracle

>  <origin>  (94) 
adg

>  <m_score__min__energy>  (94) 
-4.5899999999999999

>  <m_primary>  (94) 
energy

$$$$
94:0
     RDKit          3D

 32 34  0  0  0  0  0  0  0  0999 V2000
   59.3100   33.8490   49.6700 O   0  0  0  0  0  0  0  0  0  0  0  0
   59.6560   33.8560   48.4560 C   0  0  0  0  0  0  0  0  0  0  0  0
   58.6650   33.9060   47.4770 C   0  0  0  0  0  0  0  0  0  0  0  0
   59.0380   33.9210   46.1330 C   0  0  0  0  0  0  0  0  0  0  0  0
   57.9950   34.0260   45.0560 C   0  0  0  0  0  0  0  0  0  0  0  0
   58.4970   33.0900   43.5690 S   0  0  0  0  0  0  0  0  0  0  0  0
   57.7240   31.5520   44.0790 C   0  0  0  0  0  0  0  0  0  0  0  0
   56.7570   30.9490   43.2620 C   0  0  0  0  0  0  0  0  0  0  0  0
   56.1440   29.7580   43.6650 C   0  0  0  0  0  0  0  0  0  0  0  0
   56.5020   29.1630   44.8790 C   0  0  0  0  0  0  0  0  0  0  0  0
   55.9060   28.0090   45.2680 F   0  0  0  0  0  0  0  0  0  0  0  0
   57.4750   29.7570   45.6890 C   0  0  0  0  0  0  0  0  0  0  0  0
   58.0870   30.9490   45.2890 C   0  0  0  0  0  0  0  0  0  0  0  0
   60.3570   33.8860   45.8020 N   0  0  0  0  0  0  0  0  0  0  0  0
   61.3260   33.8340   46.7620 C   0  0  0  0  0  0  0  0  0  0  0  0
   62.6760   33.8020   46.3810 C   0  0  0  0  0  0  0  0  0  0  0  0
   63.6670   33.7520   47.3570 C   0  0  0  0  0  0  0  0  0  0  0  0
   63.3110   33.7360   48.7020 C   0  0  0  0  0  0  0  0  0  0  0  0
   61.9620   33.7710   49.0580 C   0  0  0  0  0  0  0  0  0  0  0  0
   60.9810   33.8190   48.0980 N   0  0  0  0  0  0  0  0  0  0  0  0
   57.6025   33.9333   47.7606 H   0  0  0  0  0  0  0  0  0  0  0  0
   57.0451   33.6197   45.4337 H   0  0  0  0  0  0  0  0  0  0  0  0
   57.8780   35.0849   44.7820 H   0  0  0  0  0  0  0  0  0  0  0  0
   56.4803   31.4128   42.3037 H   0  0  0  0  0  0  0  0  0  0  0  0
   55.3803   29.2893   43.0270 H   0  0  0  0  0  0  0  0  0  0  0  0
   57.7592   29.2861   46.6416 H   0  0  0  0  0  0  0  0  0  0  0  0
   58.8544   31.4133   45.9258 H   0  0  0  0  0  0  0  0  0  0  0  0
   60.6260   33.9050   44.7920 H   0  0  0  0  0  0  0  0  0  0  0  0
   62.9499   33.8164   45.3157 H   0  0  0  0  0  0  0  0  0  0  0  0
   64.7275   33.7252   47.0662 H   0  0  0  0  0  0  0  0  0  0  0  0
   64.0879   33.6960   49.4798 H   0  0  0  0  0  0  0  0  0  0  0  0
   61.6808   33.7600   50.1214 H   0  0  0  0  0  0  0  0  0  0  0  0
  1  2  2  0
  2  3  1  0
  3  4  2  0
  4  5  1  0
  5  6  1  0
  6  7  1  0
  7  8  2  0
  8  9  1  0
  9 10  2  0
 10 11  1  0
 10 12  1  0
 12 13  2  0
  4 14  1  0
 14 15  2  0
 15 16  1  0
 16 17  2  0
 17 18  1  0
 18 19  2  0
 19 20  1  0
 20  2  1  0
 13  7  1  0
 20 15  1  0
  3 21  1  0
  5 22  1  0
  5 23  1  0
  8 24  1  0
  9 25  1  0
 12 26  1  0
 13 27  1  0
 14 28  1  0
 16 29  1  0
 17 30  1  0
 18 31  1  0
 19 32  1  0
M  CHG  1  14   1
M  END
>  <UniqueID>  (95) 
87

>  <SMILES>  (95) 
O=c1cc(CSc2ccc(F)cc2)[nH+]c2ccccn12

>  <Energy>  (95) 
34.84601903028878

>  <Genealogy>  (95) 
O=c1cc(CSc2ccc(F)cc2)[nH+]c2ccccn12 (protonated)
O=c1cc(CSc2ccc(F)cc2)[nH+]c2ccccn12 (3D coordinates assigned)
O=c1cc(CSc2ccc(F)cc2)[nH+]c2ccccn12 (optimized conformer: 34.84601903028878 kcal/mol)

>  <smiles>  (95) 
O=c1cc(CSc2ccc(F)cc2)nc2ccccn12

>  <score_type>  (95) 
oracle

>  <origin>  (95) 
adg

>  <m_score__min__energy>  (95) 
-5.8200000000000003

>  <m_primary>  (95) 
energy

$$$$
95:0
     RDKit          3D

 33 35  0  0  0  0  0  0  0  0999 V2000
   58.8320   34.4810   45.1630 C   0  0  0  0  0  0  0  0  0  0  0  0
   58.9960   33.9870   46.5750 C   0  0  0  0  0  0  0  0  0  0  0  0
   59.5110   34.8650   47.5460 C   0  0  0  0  0  0  0  0  0  0  0  0
   59.6480   34.4580   48.8740 C   0  0  0  0  0  0  0  0  0  0  0  0
   59.2760   33.1690   49.2500 C   0  0  0  0  0  0  0  0  0  0  0  0
   58.7750   32.2780   48.2980 C   0  0  0  0  0  0  0  0  0  0  0  0
   58.6410   32.6660   46.9520 C   0  0  0  0  0  0  0  0  0  0  0  0
   58.1510   31.7110   45.9910 N   0  0  0  0  0  0  0  0  0  0  0  0
   58.6950   30.5160   45.6940 C   0  0  0  0  0  0  0  0  0  0  0  0
   57.9140   29.9790   44.6940 C   0  0  0  0  0  0  0  0  0  0  0  0
   58.0550   28.6220   44.0810 C   0  0  0  0  0  0  0  0  0  0  0  0
   57.5680   27.5940   45.0130 N   0  0  0  0  0  0  0  0  0  0  0  0
   58.3820   26.5400   45.3260 C   0  0  0  0  0  0  0  0  0  0  0  0
   57.9410   25.5350   46.1850 C   0  0  0  0  0  0  0  0  0  0  0  0
   56.6530   25.6230   46.7040 C   0  0  0  0  0  0  0  0  0  0  0  0
   56.2210   24.7330   47.4830 O   0  0  0  0  0  0  0  0  0  0  0  0
   55.8610   26.6700   46.3670 N   0  0  0  0  0  0  0  0  0  0  0  0
   56.2980   27.6470   45.5300 C   0  0  0  0  0  0  0  0  0  0  0  0
   55.5210   28.5960   45.2370 O   0  0  0  0  0  0  0  0  0  0  0  0
   56.9200   30.8430   44.4180 N   0  0  0  0  0  0  0  0  0  0  0  0
   57.0950   31.8900   45.2110 N   0  0  0  0  0  0  0  0  0  0  0  0
   58.4855   35.5249   45.1777 H   0  0  0  0  0  0  0  0  0  0  0  0
   59.7977   34.4226   44.6396 H   0  0  0  0  0  0  0  0  0  0  0  0
   58.0929   33.8566   44.6396 H   0  0  0  0  0  0  0  0  0  0  0  0
   59.8089   35.8833   47.2555 H   0  0  0  0  0  0  0  0  0  0  0  0
   60.0498   35.1551   49.6240 H   0  0  0  0  0  0  0  0  0  0  0  0
   59.3770   32.8524   50.2986 H   0  0  0  0  0  0  0  0  0  0  0  0
   58.4822   31.2627   48.6036 H   0  0  0  0  0  0  0  0  0  0  0  0
   59.5832   30.0605   46.1561 H   0  0  0  0  0  0  0  0  0  0  0  0
   57.4669   28.5793   43.1524 H   0  0  0  0  0  0  0  0  0  0  0  0
   59.1163   28.4348   43.8606 H   0  0  0  0  0  0  0  0  0  0  0  0
   59.3930   26.4853   44.8961 H   0  0  0  0  0  0  0  0  0  0  0  0
   58.5964   24.6912   46.4468 H   0  0  0  0  0  0  0  0  0  0  0  0
  1  2  1  0
  2  3  2  0
  3  4  1  0
  4  5  2  0
  5  6  1  0
  6  7  2  0
  7  8  1  0
  8  9  1  0
  9 10  2  0
 10 11  1  0
 11 12  1  0
 12 13  1  0
 13 14  2  0
 14 15  1  0
 15 16  2  0
 15 17  1  0
 17 18  1  0
 18 19  2  0
 10 20  1  0
 20 21  2  0
  7  2  1  0
 21  8  1  0
 18 12  1  0
  1 22  1  0
  1 23  1  0
  1 24  1  0
  3 25  1  0
  4 26  1  0
  5 27  1  0
  6 28  1  0
  9 29  1  0
 11 30  1  0
 11 31  1  0
 13 32  1  0
 14 33  1  0
M  CHG  1  17  -1
M  END
>  <UniqueID>  (96) 
88

>  <SMILES>  (96) 
Cc1ccccc1-n1cc(Cn2ccc(=O)[n-]c2=O)nn1

>  <Energy>  (96) 
76.873538922555

>  <Genealogy>  (96) 
Cc1ccccc1-n1cc(Cn2ccc(=O)[n-]c2=O)nn1 (protonated)
Cc1ccccc1-n1cc(Cn2ccc(=O)[n-]c2=O)nn1 (3D coordinates assigned)
Cc1ccccc1-n1cc(Cn2ccc(=O)[n-]c2=O)nn1 (optimized conformer: 76.873538922555 kcal/mol)

>  <smiles>  (96) 
Cc1ccccc1-n1cc(Cn2ccc(=O)[nH]c2=O)nn1

>  <score_type>  (96) 
oracle

>  <origin>  (96) 
adg

>  <m_score__min__energy>  (96) 
-9.7699999999999996

>  <m_primary>  (96) 
energy

$$$$
