0:0
     RDKit          3D

 56 60  0  0  0  0  0  0  0  0999 V2000
   58.8886   33.7562   42.8957 H   0  0  0  0  0  0  0  0  0  0  0  0
   58.3180   32.8930   43.2690 C   0  0  0  0  0  0  0  0  0  0  0  0
   57.4140   31.8350   42.3270 S   0  0  0  0  0  0  0  0  0  0  0  0
   56.9080   30.8490   43.5860 C   0  0  0  0  0  0  0  0  0  0  0  0
   55.9520   29.7020   43.4480 C   0  0  0  0  0  0  0  0  0  0  0  0
   56.4125   28.9250   42.8201 H   0  0  0  0  0  0  0  0  0  0  0  0
   55.0254   30.0753   42.9875 H   0  0  0  0  0  0  0  0  0  0  0  0
   59.5130   28.0020   46.9530 N   0  0  0  0  0  0  0  0  0  0  0  0
   58.3350   27.6650   46.5160 C   0  0  0  0  0  0  0  0  0  0  0  0
   55.8500   27.0180   45.6190 N   0  0  0  0  0  0  0  0  0  0  0  0
   56.5830   26.1040   46.3030 C   0  0  0  0  0  0  0  0  0  0  0  0
   55.9320   24.5080   46.6100 Cl  0  0  0  0  0  0  0  0  0  0  0  0
   57.8200   26.4290   46.7540 N   0  0  0  0  0  0  0  0  0  0  0  0
   56.3480   28.2570   45.3890 C   0  0  0  0  0  0  0  0  0  0  0  0
   55.6210   29.1270   44.7520 N   0  0  0  0  0  0  0  0  0  0  0  0
   59.8300   29.1080   47.8150 C   0  0  0  0  0  0  0  0  0  0  0  0
   59.4290   30.3950   47.4350 C   0  0  0  0  0  0  0  0  0  0  0  0
   58.8735   30.5385   46.4964 H   0  0  0  0  0  0  0  0  0  0  0  0
   59.7290   31.4990   48.2390 C   0  0  0  0  0  0  0  0  0  0  0  0
   59.4004   32.5037   47.9348 H   0  0  0  0  0  0  0  0  0  0  0  0
   60.4480   31.3300   49.4330 C   0  0  0  0  0  0  0  0  0  0  0  0
   60.7280   32.5040   50.3350 C   0  0  0  0  0  0  0  0  0  0  0  0
   61.6825   32.3375   50.8558 H   0  0  0  0  0  0  0  0  0  0  0  0
   59.9040   32.5938   51.0582 H   0  0  0  0  0  0  0  0  0  0  0  0
   60.8150   33.7910   49.5420 C   0  0  0  0  0  0  0  0  0  0  0  0
   59.8490   34.5440   49.5380 O   0  0  0  0  0  0  0  0  0  0  0  0
   62.0210   34.1790   48.8300 N   0  0  0  0  0  0  0  0  0  0  0  0
   62.1310   35.2200   48.9060 H   0  0  0  0  0  0  0  0  0  0  0  0
   61.9660   33.8290   47.3980 C   0  0  0  0  0  0  0  0  0  0  0  0
   60.9743   33.4231   47.1495 H   0  0  0  0  0  0  0  0  0  0  0  0
   62.1407   34.7199   46.7769 H   0  0  0  0  0  0  0  0  0  0  0  0
   63.0330   32.7820   47.1370 C   0  0  0  0  0  0  0  0  0  0  0  0
   62.6033   31.7703   47.1788 H   0  0  0  0  0  0  0  0  0  0  0  0
   63.4851   32.8854   46.1395 H   0  0  0  0  0  0  0  0  0  0  0  0
   64.0370   32.9810   48.2450 C   0  0  0  0  0  0  0  0  0  0  0  0
   64.4981   32.0232   48.5279 H   0  0  0  0  0  0  0  0  0  0  0  0
   64.8607   33.6463   47.9470 H   0  0  0  0  0  0  0  0  0  0  0  0
   63.2270   33.5480   49.3990 C   0  0  0  0  0  0  0  0  0  0  0  0
   62.9383   32.7400   50.0873 H   0  0  0  0  0  0  0  0  0  0  0  0
   63.8194   34.2845   49.9616 H   0  0  0  0  0  0  0  0  0  0  0  0
   60.8840   30.0450   49.7950 C   0  0  0  0  0  0  0  0  0  0  0  0
   61.4596   29.9045   50.7218 H   0  0  0  0  0  0  0  0  0  0  0  0
   60.5920   28.9450   48.9870 C   0  0  0  0  0  0  0  0  0  0  0  0
   60.9589   27.9466   49.2674 H   0  0  0  0  0  0  0  0  0  0  0  0
   57.5900   28.5790   45.8420 N   0  0  0  0  0  0  0  0  0  0  0  0
   57.4200   31.3540   44.7770 C   0  0  0  0  0  0  0  0  0  0  0  0
   57.2161   30.9053   45.7604 H   0  0  0  0  0  0  0  0  0  0  0  0
   58.2250   32.4960   44.6000 C   0  0  0  0  0  0  0  0  0  0  0  0
   58.9470   33.2540   45.6920 C   0  0  0  0  0  0  0  0  0  0  0  0
   59.6432   32.4315   45.9128 H   0  0  0  0  0  0  0  0  0  0  0  0
   59.1040   34.7590   45.5230 C   0  0  0  0  0  0  0  0  0  0  0  0
   60.0081   35.2629   45.8954 H   0  0  0  0  0  0  0  0  0  0  0  0
   59.0675   35.4539   44.6711 H   0  0  0  0  0  0  0  0  0  0  0  0
   58.0820   34.2070   46.5050 C   0  0  0  0  0  0  0  0  0  0  0  0
   58.2471   34.3118   47.5875 H   0  0  0  0  0  0  0  0  0  0  0  0
   57.0004   34.3376   46.6572 H   0  0  0  0  0  0  0  0  0  0  0  0
  1  2  1  0
  2  3  1  0
  3  4  1  0
  4  5  1  0
  5  6  1  0
  5  7  1  0
  5  8  1  0
  8  9  2  0
  9 10  1  0
 10 11  2  0
 11 12  1  0
 11 13  1  0
 13 14  1  0
 14 15  2  0
 15 16  1  0
 16 17  2  0
 17 18  1  0
 17 19  1  0
 19 20  1  0
 19 21  2  0
 21 22  1  0
 22 23  1  0
 22 24  1  0
 22 25  1  0
 25 26  2  0
 25 27  1  0
 27 28  1  0
 27 29  1  0
 29 30  1  0
 29 31  1  0
 29 32  1  0
 32 33  1  0
 32 34  1  0
 32 35  1  0
 35 36  1  0
 35 37  1  0
 35 38  1  0
 38 39  1  0
 38 40  1  0
 21 41  1  0
 41 42  1  0
 41 43  2  0
 43 44  1  0
 14 45  1  0
  4 46  2  0
 46 47  1  0
 46 48  1  0
 48 49  1  0
 49 50  1  0
 49 51  1  0
 51 52  1  0
 51 53  1  0
 51 54  1  0
 54 55  1  0
 54 56  1  0
 48  2  2  0
 54 49  1  0
 45  9  1  0
 43 16  1  0
 38 27  1  0
M  CHG  3  13  -1  27   1  45  -1
M  END
>  <UniqueID>  (1) 
1

>  <SMILES>  (1) 
O=C(Cc1ccc(/N=c2\[n-]c(Cl)n/c(=N/Cc3cc(C4CC4)cs3)[n-]2)cc1)[NH+]1CCCC1

>  <Energy>  (1) 
360.51016488717516

>  <Genealogy>  (1) 
O=C(Cc1ccc(N=c2[n-]c(Cl)nc(=NCc3cc(C4CC4)cs3)[n-]2)cc1)[NH+]1CCCC1 (protonated)
O=C(Cc1ccc(/N=c2\[n-]c(Cl)n/c(=N/Cc3cc(C4CC4)cs3)[n-]2)cc1)[NH+]1CCCC1 (cis-trans isomerization)
O=C(Cc1ccc(/N=c2\[n-]c(Cl)n/c(=N/Cc3cc(C4CC4)cs3)[n-]2)cc1)[NH+]1CCCC1 (3D coordinates assigned)
O=C(Cc1ccc(/N=c2\[n-]c(Cl)n/c(=N/Cc3cc(C4CC4)cs3)[n-]2)cc1)[NH+]1CCCC1 (nonaromatic ring conformer: 360.51016488717516 kcal/mol)

>  <smiles>  (1) 
O=C(Cc1ccc(N=c2[nH]c(Cl)nc(=NCc3cc(C4CC4)cs3)[nH]2)cc1)N1CCCC1

>  <score_type>  (1) 
oracle

>  <origin>  (1) 
adg

>  <m_score__min__energy>  (1) 
-11.09

>  <m_primary>  (1) 
energy

$$$$
1:0
     RDKit          3D

 65 69  0  0  0  0  0  0  0  0999 V2000
   56.4070   31.0939   42.1284 H   0  0  0  0  0  0  0  0  0  0  0  0
   57.0160   31.1610   43.0420 C   0  0  0  0  0  0  0  0  0  0  0  0
   56.8670   30.1210   44.0780 C   0  0  0  0  0  0  0  0  0  0  0  0
   55.7710   30.0470   44.6970 O   0  0  0  0  0  0  0  0  0  0  0  0
   57.9390   29.2230   44.4220 N   0  0  0  0  0  0  0  0  0  0  0  0
   57.6330   27.8620   44.8770 C   0  0  0  0  0  0  0  0  0  0  0  0
   58.2403   27.1446   44.3055 H   0  0  0  0  0  0  0  0  0  0  0  0
   56.5624   27.6667   44.7167 H   0  0  0  0  0  0  0  0  0  0  0  0
   57.9460   27.7090   46.3740 C   0  0  0  0  0  0  0  0  0  0  0  0
   58.1733   26.6524   46.5788 H   0  0  0  0  0  0  0  0  0  0  0  0
   57.0633   28.0538   46.9325 H   0  0  0  0  0  0  0  0  0  0  0  0
   59.1530   28.5730   46.8310 C   0  0  0  0  0  0  0  0  0  0  0  0
   58.7375   29.5128   47.2235 H   0  0  0  0  0  0  0  0  0  0  0  0
   59.9230   27.9090   47.9440 C   0  0  0  0  0  0  0  0  0  0  0  0
   60.6020   26.8770   47.6890 O   0  0  0  0  0  0  0  0  0  0  0  0
   59.8440   28.4060   49.2910 N   0  0  0  0  0  0  0  0  0  0  0  0
   59.0350   29.0150   49.5490 H   0  0  0  0  0  0  0  0  0  0  0  0
   60.8010   28.0880   50.3150 C   0  0  0  0  0  0  0  0  0  0  0  0
   61.0650   26.7450   50.6190 C   0  0  0  0  0  0  0  0  0  0  0  0
   60.5551   25.9472   50.0591 H   0  0  0  0  0  0  0  0  0  0  0  0
   61.9720   26.4140   51.6290 C   0  0  0  0  0  0  0  0  0  0  0  0
   62.1792   25.3578   51.8559 H   0  0  0  0  0  0  0  0  0  0  0  0
   62.6160   27.4210   52.3510 C   0  0  0  0  0  0  0  0  0  0  0  0
   63.3335   27.1534   53.1407 H   0  0  0  0  0  0  0  0  0  0  0  0
   62.3550   28.7680   52.0770 C   0  0  0  0  0  0  0  0  0  0  0  0
   63.0240   29.7440   52.8300 O   0  0  0  0  0  0  0  0  0  0  0  0
   63.9620   30.6730   52.2910 C   0  0  0  0  0  0  0  0  0  0  0  0
   64.3392   31.3210   53.0959 H   0  0  0  0  0  0  0  0  0  0  0  0
   64.8000   30.1239   51.8369 H   0  0  0  0  0  0  0  0  0  0  0  0
   63.2950   31.5120   51.2480 C   0  0  0  0  0  0  0  0  0  0  0  0
   63.7910   31.5430   49.9850 N   0  0  0  0  0  0  0  0  0  0  0  0
   63.2170   32.3030   49.0160 C   0  0  0  0  0  0  0  0  0  0  0  0
   63.7710   32.3010   47.7310 C   0  0  0  0  0  0  0  0  0  0  0  0
   64.6591   31.6900   47.5120 H   0  0  0  0  0  0  0  0  0  0  0  0
   63.1910   33.0770   46.7320 C   0  0  0  0  0  0  0  0  0  0  0  0
   63.6192   33.0821   45.7188 H   0  0  0  0  0  0  0  0  0  0  0  0
   62.0670   33.8470   47.0190 C   0  0  0  0  0  0  0  0  0  0  0  0
   61.6037   34.4643   46.2353 H   0  0  0  0  0  0  0  0  0  0  0  0
   61.5320   33.8300   48.3090 C   0  0  0  0  0  0  0  0  0  0  0  0
   60.6421   34.4355   48.5361 H   0  0  0  0  0  0  0  0  0  0  0  0
   62.1030   33.0670   49.2970 N   0  0  0  0  0  0  0  0  0  0  0  0
   61.5790   33.0530   50.5660 C   0  0  0  0  0  0  0  0  0  0  0  0
   60.5600   33.7380   50.8570 O   0  0  0  0  0  0  0  0  0  0  0  0
   62.1710   32.2750   51.5630 C   0  0  0  0  0  0  0  0  0  0  0  0
   61.7568   32.2641   52.5820 H   0  0  0  0  0  0  0  0  0  0  0  0
   61.4350   29.0980   51.0620 C   0  0  0  0  0  0  0  0  0  0  0  0
   61.2105   30.1541   50.8518 H   0  0  0  0  0  0  0  0  0  0  0  0
   60.0820   28.9350   45.6570 C   0  0  0  0  0  0  0  0  0  0  0  0
   60.4651   28.0119   45.1976 H   0  0  0  0  0  0  0  0  0  0  0  0
   60.9200   29.5402   46.0331 H   0  0  0  0  0  0  0  0  0  0  0  0
   59.3070   29.7450   44.6030 C   0  0  0  0  0  0  0  0  0  0  0  0
   59.8417   29.6879   43.6434 H   0  0  0  0  0  0  0  0  0  0  0  0
   59.2371   30.7867   44.9495 H   0  0  0  0  0  0  0  0  0  0  0  0
   57.8700   32.1850   43.1790 C   0  0  0  0  0  0  0  0  0  0  0  0
   58.4565   32.4817   42.2970 H   0  0  0  0  0  0  0  0  0  0  0  0
   58.0820   32.9490   44.4370 C   0  0  0  0  0  0  0  0  0  0  0  0
   59.0550   33.9630   44.4480 C   0  0  0  0  0  0  0  0  0  0  0  0
   59.6304   34.1769   43.5352 H   0  0  0  0  0  0  0  0  0  0  0  0
   59.2910   34.6820   45.5780 N   0  0  0  0  0  0  0  0  0  0  0  0
   58.6050   34.4550   46.7270 C   0  0  0  0  0  0  0  0  0  0  0  0
   58.8229   35.0519   47.6249 H   0  0  0  0  0  0  0  0  0  0  0  0
   57.6240   33.4650   46.7690 C   0  0  0  0  0  0  0  0  0  0  0  0
   57.0632   33.2794   47.6969 H   0  0  0  0  0  0  0  0  0  0  0  0
   57.3590   32.7110   45.6240 C   0  0  0  0  0  0  0  0  0  0  0  0
   56.5848   31.9299   45.6480 H   0  0  0  0  0  0  0  0  0  0  0  0
  1  2  1  0
  2  3  1  0
  3  4  2  0
  3  5  1  0
  5  6  1  0
  6  7  1  0
  6  8  1  0
  6  9  1  0
  9 10  1  0
  9 11  1  0
  9 12  1  0
 12 13  1  0
 12 14  1  0
 14 15  2  0
 14 16  1  0
 16 17  1  0
 16 18  1  0
 18 19  2  0
 19 20  1  0
 19 21  1  0
 21 22  1  0
 21 23  2  0
 23 24  1  0
 23 25  1  0
 25 26  1  0
 26 27  1  0
 27 28  1  0
 27 29  1  0
 27 30  1  0
 30 31  1  0
 31 32  2  0
 32 33  1  0
 33 34  1  0
 33 35  2  0
 35 36  1  0
 35 37  1  0
 37 38  1  0
 37 39  2  0
 39 40  1  0
 39 41  1  0
 41 42  1  0
 42 43  2  0
 42 44  1  0
 44 45  1  0
 25 46  2  0
 46 47  1  0
 12 48  1  0
 48 49  1  0
 48 50  1  0
 48 51  1  0
 51 52  1  0
 51 53  1  0
  2 54  2  0
 54 55  1  0
 54 56  1  0
 56 57  2  0
 57 58  1  0
 57 59  1  0
 59 60  2  0
 60 61  1  0
 60 62  1  0
 62 63  1  0
 62 64  2  0
 64 65  1  0
 51  5  1  0
 64 56  1  0
 46 18  1  0
 44 30  2  0
 41 32  1  0
M  END
>  <UniqueID>  (2) 
2

>  <SMILES>  (2) 
O=C(Nc1cccc(OCc2cc(=O)n3ccccc3n2)c1)C1CCN(C(=O)/C=C/c2cccnc2)CC1

>  <Energy>  (2) 
87.57437842549254

>  <Genealogy>  (2) 
O=C(Nc1cccc(OCc2cc(=O)n3ccccc3n2)c1)C1CCN(C(=O)/C=C/c2cccnc2)CC1 (cis-trans isomerization)
O=C(Nc1cccc(OCc2cc(=O)n3ccccc3n2)c1)C1CCN(C(=O)/C=C/c2cccnc2)CC1 (3D coordinates assigned)
O=C(Nc1cccc(OCc2cc(=O)n3ccccc3n2)c1)C1CCN(C(=O)/C=C/c2cccnc2)CC1 (nonaromatic ring conformer: 87.57437842549254 kcal/mol)

>  <smiles>  (2) 
O=C(Nc1cccc(OCc2cc(=O)n3ccccc3n2)c1)C1CCN(C(=O)C=Cc2cccnc2)CC1

>  <score_type>  (2) 
oracle

>  <origin>  (2) 
adg

>  <m_score__min__energy>  (2) 
-10.220000000000001

>  <m_primary>  (2) 
energy

$$$$
2:0
     RDKit          3D

 40 42  0  0  0  0  0  0  0  0999 V2000
   59.8168   28.5922   46.1232 H   0  0  0  0  0  0  0  0  0  0  0  0
   58.7740   28.6180   45.7740 C   0  0  0  0  0  0  0  0  0  0  0  0
   58.3410   29.7190   45.1490 C   0  0  0  0  0  0  0  0  0  0  0  0
   57.9740   30.9800   45.7850 C   0  0  0  0  0  0  0  0  0  0  0  0
   58.0720   31.2450   47.0130 O   0  0  0  0  0  0  0  0  0  0  0  0
   57.5060   31.8940   44.8000 N   0  0  0  0  0  0  0  0  0  0  0  0
   57.1650   33.3030   45.0040 C   0  0  0  0  0  0  0  0  0  0  0  0
   56.1456   33.3706   45.4118 H   0  0  0  0  0  0  0  0  0  0  0  0
   57.2291   33.8219   44.0362 H   0  0  0  0  0  0  0  0  0  0  0  0
   58.1410   33.9710   45.9810 C   0  0  0  0  0  0  0  0  0  0  0  0
   58.2686   33.3146   46.8544 H   0  0  0  0  0  0  0  0  0  0  0  0
   57.7142   34.9451   46.2621 H   0  0  0  0  0  0  0  0  0  0  0  0
   59.4970   34.2280   45.3680 C   0  0  0  0  0  0  0  0  0  0  0  0
   59.6070   34.2970   44.1150 O   0  0  0  0  0  0  0  0  0  0  0  0
   60.6770   34.4010   46.1690 N   0  0  0  0  0  0  0  0  0  0  0  0
   61.3120   33.4820   46.8420 C   0  0  0  0  0  0  0  0  0  0  0  0
   60.6430   32.4500   47.4330 N   0  0  0  0  0  0  0  0  0  0  0  0
   61.2900   31.4670   48.1140 C   0  0  0  0  0  0  0  0  0  0  0  0
   60.7161   30.6544   48.5834 H   0  0  0  0  0  0  0  0  0  0  0  0
   62.6820   31.4880   48.2180 C   0  0  0  0  0  0  0  0  0  0  0  0
   63.2106   30.6950   48.7672 H   0  0  0  0  0  0  0  0  0  0  0  0
   63.3960   32.5270   47.6170 C   0  0  0  0  0  0  0  0  0  0  0  0
   64.4931   32.5568   47.6909 H   0  0  0  0  0  0  0  0  0  0  0  0
   62.7140   33.5280   46.9220 C   0  0  0  0  0  0  0  0  0  0  0  0
   63.4270   34.5600   46.3180 O   0  0  0  0  0  0  0  0  0  0  0  0
   57.6040   31.1700   43.5690 C   0  0  0  0  0  0  0  0  0  0  0  0
   57.1710   31.7660   42.1060 S   0  0  0  0  0  0  0  0  0  0  0  0
   58.0980   29.8420   43.7470 N   0  0  0  0  0  0  0  0  0  0  0  0
   58.1600   29.0990   43.0160 H   0  0  0  0  0  0  0  0  0  0  0  0
   57.9240   27.4360   46.0190 C   0  0  0  0  0  0  0  0  0  0  0  0
   58.5300   26.2370   46.4260 C   0  0  0  0  0  0  0  0  0  0  0  0
   59.6197   26.1970   46.5705 H   0  0  0  0  0  0  0  0  0  0  0  0
   57.7570   25.0930   46.6490 C   0  0  0  0  0  0  0  0  0  0  0  0
   58.2384   24.1610   46.9801 H   0  0  0  0  0  0  0  0  0  0  0  0
   56.3750   25.1320   46.4520 C   0  0  0  0  0  0  0  0  0  0  0  0
   55.7674   24.2345   46.6397 H   0  0  0  0  0  0  0  0  0  0  0  0
   55.7630   26.3120   46.0160 C   0  0  0  0  0  0  0  0  0  0  0  0
   54.3890   26.3370   45.8040 O   0  0  0  0  0  0  0  0  0  0  0  0
   56.5320   27.4610   45.7860 C   0  0  0  0  0  0  0  0  0  0  0  0
   55.9150   28.6130   45.3050 O   0  0  0  0  0  0  0  0  0  0  0  0
  1  2  1  0
  2  3  2  3
  3  4  1  0
  4  5  2  0
  4  6  1  0
  6  7  1  0
  7  8  1  0
  7  9  1  0
  7 10  1  0
 10 11  1  0
 10 12  1  0
 10 13  1  0
 13 14  2  0
 13 15  1  0
 15 16  2  0
 16 17  1  0
 17 18  1  0
 18 19  1  0
 18 20  2  0
 20 21  1  0
 20 22  1  0
 22 23  1  0
 22 24  2  0
 24 25  1  0
  6 26  1  0
 26 27  2  0
 26 28  1  0
 28 29  1  0
  2 30  1  0
 30 31  2  0
 31 32  1  0
 31 33  1  0
 33 34  1  0
 33 35  2  0
 35 36  1  0
 35 37  1  0
 37 38  1  0
 37 39  2  0
 39 40  1  0
 28  3  1  0
 39 30  1  0
 24 16  1  0
M  CHG  4  17  -1  25  -1  38  -1  40  -1
M  END
>  <UniqueID>  (3) 
3

>  <SMILES>  (3) 
O=C(CCN1C(=O)C(=Cc2cccc([O-])c2[O-])NC1=S)/N=c1\[n-]cccc1[O-]

>  <Energy>  (3) 
81.37786276721286

>  <Genealogy>  (3) 
O=C(CCN1C(=O)C(=Cc2cccc([O-])c2[O-])NC1=S)N=c1[n-]cccc1[O-] (protonated)
O=C(CCN1C(=O)C(=Cc2cccc([O-])c2[O-])NC1=S)/N=c1\[n-]cccc1[O-] (cis-trans isomerization)
O=C(CCN1C(=O)C(=Cc2cccc([O-])c2[O-])NC1=S)/N=c1\[n-]cccc1[O-] (3D coordinates assigned)
O=C(CCN1C(=O)C(=Cc2cccc([O-])c2[O-])NC1=S)/N=c1\[n-]cccc1[O-] (nonaromatic ring conformer: 81.37786276721286 kcal/mol)

>  <smiles>  (3) 
O=C(CCN1C(=O)C(=Cc2cccc(O)c2O)NC1=S)N=c1[nH]cccc1O

>  <score_type>  (3) 
oracle

>  <origin>  (3) 
adg

>  <m_score__min__energy>  (3) 
-17.34

>  <m_primary>  (3) 
energy

$$$$
3:0
     RDKit          3D

 41 44  0  0  0  0  0  0  0  0999 V2000
   58.8280   30.6220   47.1300 H   0  0  0  0  0  0  0  0  0  0  0  0
   58.3130   31.4270   46.7930 O   0  0  0  0  0  0  0  0  0  0  0  0
   58.0990   31.6360   45.4310 C   0  0  0  0  0  0  0  0  0  0  0  0
   58.3390   32.8970   44.8640 C   0  0  0  0  0  0  0  0  0  0  0  0
   58.6885   33.7259   45.4971 H   0  0  0  0  0  0  0  0  0  0  0  0
   58.1350   33.1020   43.4970 C   0  0  0  0  0  0  0  0  0  0  0  0
   58.3226   34.0922   43.0562 H   0  0  0  0  0  0  0  0  0  0  0  0
   57.6930   32.0510   42.6890 C   0  0  0  0  0  0  0  0  0  0  0  0
   57.5356   32.2140   41.6126 H   0  0  0  0  0  0  0  0  0  0  0  0
   57.4510   30.7940   43.2470 C   0  0  0  0  0  0  0  0  0  0  0  0
   57.1035   29.9691   42.6077 H   0  0  0  0  0  0  0  0  0  0  0  0
   57.6490   30.5780   44.6200 C   0  0  0  0  0  0  0  0  0  0  0  0
   57.3920   29.2780   45.1880 N   0  0  0  0  0  0  0  0  0  0  0  0
   56.1390   28.7340   45.1020 C   0  0  0  0  0  0  0  0  0  0  0  0
   55.2060   29.3520   44.5230 O   0  0  0  0  0  0  0  0  0  0  0  0
   55.8890   27.5120   45.6330 N   0  0  0  0  0  0  0  0  0  0  0  0
   56.8530   26.7960   46.2590 C   0  0  0  0  0  0  0  0  0  0  0  0
   56.5300   25.5390   46.7590 O   0  0  0  0  0  0  0  0  0  0  0  0
   58.1530   27.3180   46.3780 C   0  0  0  0  0  0  0  0  0  0  0  0
   59.2300   26.5540   47.0660 C   0  0  0  0  0  0  0  0  0  0  0  0
   59.8750   25.6720   46.4340 O   0  0  0  0  0  0  0  0  0  0  0  0
   59.5400   26.8280   48.4430 N   0  0  0  0  0  0  0  0  0  0  0  0
   60.0670   27.9200   48.9110 C   0  0  0  0  0  0  0  0  0  0  0  0
   59.8850   29.1460   48.3730 N   0  0  0  0  0  0  0  0  0  0  0  0
   60.5530   30.1110   49.0680 C   0  0  0  0  0  0  0  0  0  0  0  0
   60.5020   31.5370   48.6500 C   0  0  0  0  0  0  0  0  0  0  0  0
   61.2980   31.9800   47.5740 C   0  0  0  0  0  0  0  0  0  0  0  0
   61.9513   31.2673   47.0493 H   0  0  0  0  0  0  0  0  0  0  0  0
   61.2640   33.3180   47.1680 C   0  0  0  0  0  0  0  0  0  0  0  0
   61.8919   33.6528   46.3291 H   0  0  0  0  0  0  0  0  0  0  0  0
   60.4360   34.2290   47.8240 C   0  0  0  0  0  0  0  0  0  0  0  0
   60.4135   35.2814   47.5047 H   0  0  0  0  0  0  0  0  0  0  0  0
   59.6360   33.8040   48.8860 C   0  0  0  0  0  0  0  0  0  0  0  0
   58.9811   34.5226   49.4005 H   0  0  0  0  0  0  0  0  0  0  0  0
   59.6640   32.4690   49.2980 C   0  0  0  0  0  0  0  0  0  0  0  0
   59.0279   32.1423   50.1338 H   0  0  0  0  0  0  0  0  0  0  0  0
   61.2750   29.6320   50.1670 C   0  0  0  0  0  0  0  0  0  0  0  0
   61.8808   30.2412   50.8539 H   0  0  0  0  0  0  0  0  0  0  0  0
   61.0590   27.9660   50.2590 S   0  0  0  0  0  0  0  0  0  0  0  0
   58.3960   28.5930   45.8210 C   0  0  0  0  0  0  0  0  0  0  0  0
   59.5410   29.1170   45.9270 O   0  0  0  0  0  0  0  0  0  0  0  0
  1  2  1  0
  2  3  1  0
  3  4  2  0
  4  5  1  0
  4  6  1  0
  6  7  1  0
  6  8  2  0
  8  9  1  0
  8 10  1  0
 10 11  1  0
 10 12  2  0
 12 13  1  0
 13 14  1  0
 14 15  2  0
 14 16  1  0
 16 17  1  0
 17 18  1  0
 17 19  2  0
 19 20  1  0
 20 21  2  0
 20 22  1  0
 22 23  2  0
 23 24  1  0
 24 25  1  0
 25 26  1  0
 26 27  2  0
 27 28  1  0
 27 29  1  0
 29 30  1  0
 29 31  2  0
 31 32  1  0
 31 33  1  0
 33 34  1  0
 33 35  2  0
 35 36  1  0
 25 37  2  0
 37 38  1  0
 37 39  1  0
 19 40  1  0
 40 41  2  0
 12  3  1  0
 40 13  1  0
 39 23  1  0
 35 26  1  0
M  CHG  3  16  -1  18  -1  24  -1
M  END
>  <UniqueID>  (4) 
4

>  <SMILES>  (4) 
O=C(/N=c1\[n-]c(-c2ccccc2)cs1)c1c([O-])[n-]c(=O)n(-c2ccccc2O)c1=O

>  <Energy>  (4) 
96.24996926686188

>  <Genealogy>  (4) 
O=C(N=c1[n-]c(-c2ccccc2)cs1)c1c([O-])[n-]c(=O)n(-c2ccccc2O)c1=O (protonated)
O=C(/N=c1\[n-]c(-c2ccccc2)cs1)c1c([O-])[n-]c(=O)n(-c2ccccc2O)c1=O (cis-trans isomerization)
O=C(/N=c1\[n-]c(-c2ccccc2)cs1)c1c([O-])[n-]c(=O)n(-c2ccccc2O)c1=O (3D coordinates assigned)
O=C(/N=c1\[n-]c(-c2ccccc2)cs1)c1c([O-])[n-]c(=O)n(-c2ccccc2O)c1=O (optimized conformer: 96.24996926686188 kcal/mol)

>  <smiles>  (4) 
O=C(N=c1[nH]c(-c2ccccc2)cs1)c1c(O)[nH]c(=O)n(-c2ccccc2O)c1=O

>  <score_type>  (4) 
oracle

>  <origin>  (4) 
adg

>  <m_score__min__energy>  (4) 
-14.32

>  <m_primary>  (4) 
energy

$$$$
4:0
     RDKit          3D

 71 75  0  0  0  0  0  0  0  0999 V2000
   59.8850   27.3100   46.3570 C   0  0  0  0  0  0  0  0  0  0  0  0
   59.0390   27.9640   45.5480 C   0  0  0  0  0  0  0  0  0  0  0  0
   58.1220   27.4010   44.6430 C   0  0  0  0  0  0  0  0  0  0  0  0
   57.6800   26.1370   44.4990 C   0  0  0  0  0  0  0  0  0  0  0  0
   57.1280   25.2820   45.5630 C   0  0  0  0  0  0  0  0  0  0  0  0
   57.7390   24.1660   45.9940 N   0  0  0  0  0  0  0  0  0  0  0  0
   56.8610   23.6440   46.8750 C   0  0  0  0  0  0  0  0  0  0  0  0
   57.0940   22.5830   47.5130 O   0  0  0  0  0  0  0  0  0  0  0  0
   55.7140   24.3400   47.0120 N   0  0  0  0  0  0  0  0  0  0  0  0
   55.8830   25.3640   46.1610 C   0  0  0  0  0  0  0  0  0  0  0  0
   54.9050   26.3250   45.9270 O   0  0  0  0  0  0  0  0  0  0  0  0
   57.6720   28.4450   43.8480 C   0  0  0  0  0  0  0  0  0  0  0  0
   58.2510   29.5980   44.3380 C   0  0  0  0  0  0  0  0  0  0  0  0
   58.0100   30.9710   43.7880 C   0  0  0  0  0  0  0  0  0  0  0  0
   59.0760   29.3100   45.3690 N   0  0  0  0  0  0  0  0  0  0  0  0
   59.8060   30.2650   46.1600 C   0  0  0  0  0  0  0  0  0  0  0  0
   61.1820   30.0860   46.3730 C   0  0  0  0  0  0  0  0  0  0  0  0
   61.9070   31.0220   47.1170 C   0  0  0  0  0  0  0  0  0  0  0  0
   61.2650   32.1500   47.6540 C   0  0  0  0  0  0  0  0  0  0  0  0
   62.0540   33.1880   48.3510 C   0  0  0  0  0  0  0  0  0  0  0  0
   62.1080   34.3430   47.8430 O   0  0  0  0  0  0  0  0  0  0  0  0
   62.6670   32.9280   49.6340 N   0  0  0  0  0  0  0  0  0  0  0  0
   63.7080   33.8200   50.1700 C   0  0  0  0  0  0  0  0  0  0  0  0
   63.2870   34.3490   51.5480 C   0  0  0  0  0  0  0  0  0  0  0  0
   62.7260   33.2740   52.3870 N   0  0  0  0  0  0  0  0  0  0  0  0
   62.2380   33.5860   53.7070 C   0  0  0  0  0  0  0  0  0  0  0  0
   62.7620   34.5240   54.3660 O   0  0  0  0  0  0  0  0  0  0  0  0
   61.0850   32.9170   54.2400 N   0  0  0  0  0  0  0  0  0  0  0  0
   59.7810   33.5830   54.1360 C   0  0  0  0  0  0  0  0  0  0  0  0
   58.6820   32.7380   54.7840 C   0  0  0  0  0  0  0  0  0  0  0  0
   58.8410   31.3340   54.3710 N   0  0  0  0  0  0  0  0  0  0  0  0
   57.8080   30.6130   53.6590 C   0  0  0  0  0  0  0  0  0  0  0  0
   56.6600   31.3120   52.9940 C   0  0  0  0  0  0  0  0  0  0  0  0
   57.8670   29.3530   53.5790 O   0  0  0  0  0  0  0  0  0  0  0  0
   60.1350   30.6690   54.6120 C   0  0  0  0  0  0  0  0  0  0  0  0
   61.2280   31.6770   55.0220 C   0  0  0  0  0  0  0  0  0  0  0  0
   62.7350   31.8920   51.8920 C   0  0  0  0  0  0  0  0  0  0  0  0
   62.1560   31.8350   50.4790 C   0  0  0  0  0  0  0  0  0  0  0  0
   59.8780   32.3040   47.4750 C   0  0  0  0  0  0  0  0  0  0  0  0
   59.1550   31.3690   46.7280 C   0  0  0  0  0  0  0  0  0  0  0  0
   60.5558   27.8732   47.0224 H   0  0  0  0  0  0  0  0  0  0  0  0
   59.9082   26.2102   46.3553 H   0  0  0  0  0  0  0  0  0  0  0  0
   57.7368   25.7019   43.4903 H   0  0  0  0  0  0  0  0  0  0  0  0
   54.0020   26.2910   46.3820 H   0  0  0  0  0  0  0  0  0  0  0  0
   56.9857   28.3686   42.9918 H   0  0  0  0  0  0  0  0  0  0  0  0
   57.8852   31.6818   44.6181 H   0  0  0  0  0  0  0  0  0  0  0  0
   58.8686   31.2748   43.1711 H   0  0  0  0  0  0  0  0  0  0  0  0
   57.0993   30.9642   43.1711 H   0  0  0  0  0  0  0  0  0  0  0  0
   61.6917   29.2063   45.9531 H   0  0  0  0  0  0  0  0  0  0  0  0
   62.9844   30.8743   47.2824 H   0  0  0  0  0  0  0  0  0  0  0  0
   64.6513   33.2624   50.2664 H   0  0  0  0  0  0  0  0  0  0  0  0
   63.8449   34.6687   49.4837 H   0  0  0  0  0  0  0  0  0  0  0  0
   64.1670   34.7747   52.0524 H   0  0  0  0  0  0  0  0  0  0  0  0
   62.5120   35.1160   51.4031 H   0  0  0  0  0  0  0  0  0  0  0  0
   59.8328   34.5572   54.6442 H   0  0  0  0  0  0  0  0  0  0  0  0
   59.5391   33.7169   53.0713 H   0  0  0  0  0  0  0  0  0  0  0  0
   58.7603   32.8101   55.8788 H   0  0  0  0  0  0  0  0  0  0  0  0
   57.6964   33.1070   54.4641 H   0  0  0  0  0  0  0  0  0  0  0  0
   55.9865   31.7221   53.7609 H   0  0  0  0  0  0  0  0  0  0  0  0
   57.0428   32.1305   52.3666 H   0  0  0  0  0  0  0  0  0  0  0  0
   56.1086   30.5962   52.3666 H   0  0  0  0  0  0  0  0  0  0  0  0
   60.0114   29.9303   55.4176 H   0  0  0  0  0  0  0  0  0  0  0  0
   60.4502   30.1838   53.6764 H   0  0  0  0  0  0  0  0  0  0  0  0
   61.1283   31.9076   56.0929 H   0  0  0  0  0  0  0  0  0  0  0  0
   62.2174   31.2378   54.8268 H   0  0  0  0  0  0  0  0  0  0  0  0
   63.7694   31.5181   51.8764 H   0  0  0  0  0  0  0  0  0  0  0  0
   62.1207   31.2678   52.5576 H   0  0  0  0  0  0  0  0  0  0  0  0
   62.4293   30.8731   50.0207 H   0  0  0  0  0  0  0  0  0  0  0  0
   61.0637   31.9417   50.5525 H   0  0  0  0  0  0  0  0  0  0  0  0
   59.3600   33.1639   47.9248 H   0  0  0  0  0  0  0  0  0  0  0  0
   58.0722   31.5001   46.5856 H   0  0  0  0  0  0  0  0  0  0  0  0
  1  2  2  0
  2  3  1  0
  3  4  2  3
  4  5  1  0
  5  6  1  0
  6  7  1  0
  7  8  2  0
  7  9  1  0
  9 10  1  0
 10 11  1  0
  3 12  1  0
 12 13  2  0
 13 14  1  0
 13 15  1  0
 15 16  1  0
 16 17  2  0
 17 18  1  0
 18 19  2  0
 19 20  1  0
 20 21  2  0
 20 22  1  0
 22 23  1  0
 23 24  1  0
 24 25  1  0
 25 26  1  0
 26 27  2  0
 26 28  1  0
 28 29  1  0
 29 30  1  0
 30 31  1  0
 31 32  1  0
 32 33  1  0
 32 34  2  0
 31 35  1  0
 35 36  1  0
 25 37  1  0
 37 38  1  0
 19 39  1  0
 39 40  2  0
 15  2  1  0
 40 16  1  0
 10  5  2  0
 38 22  1  0
 36 28  1  0
  1 41  1  0
  1 42  1  0
  4 43  1  0
 11 44  1  0
 12 45  1  0
 14 46  1  0
 14 47  1  0
 14 48  1  0
 17 49  1  0
 18 50  1  0
 23 51  1  0
 23 52  1  0
 24 53  1  0
 24 54  1  0
 29 55  1  0
 29 56  1  0
 30 57  1  0
 30 58  1  0
 33 59  1  0
 33 60  1  0
 33 61  1  0
 35 62  1  0
 35 63  1  0
 36 64  1  0
 36 65  1  0
 37 66  1  0
 37 67  1  0
 38 68  1  0
 38 69  1  0
 39 70  1  0
 40 71  1  0
M  CHG  2   6  -1   9  -1
M  END
>  <UniqueID>  (5) 
5

>  <SMILES>  (5) 
C=c1c(=Cc2[n-]c(=O)[n-]c2O)cc(C)n1-c1ccc(C(=O)N2CCN(C(=O)N3CCN(C(C)=O)CC3)CC2)cc1

>  <Energy>  (5) 
165.2205209568213

>  <Genealogy>  (5) 
C=c1c(=Cc2[n-]c(=O)[n-]c2O)cc(C)n1-c1ccc(C(=O)N2CCN(C(=O)N3CCN(C(C)=O)CC3)CC2)cc1 (protonated)
C=c1c(=Cc2[n-]c(=O)[n-]c2O)cc(C)n1-c1ccc(C(=O)N2CCN(C(=O)N3CCN(C(C)=O)CC3)CC2)cc1 (3D coordinates assigned)
C=c1c(=Cc2[n-]c(=O)[n-]c2O)cc(C)n1-c1ccc(C(=O)N2CCN(C(=O)N3CCN(C(C)=O)CC3)CC2)cc1 (nonaromatic ring conformer: 165.2205209568213 kcal/mol)

>  <smiles>  (5) 
C=c1c(=Cc2[nH]c(=O)[nH]c2O)cc(C)n1-c1ccc(C(=O)N2CCN(C(=O)N3CCN(C(C)=O)CC3)CC2)cc1

>  <score_type>  (5) 
oracle

>  <origin>  (5) 
adg

>  <m_score__min__energy>  (5) 
-13.43

>  <m_primary>  (5) 
energy

$$$$
5:0
     RDKit          3D

 62 66  0  0  0  0  0  0  0  0999 V2000
   57.4910   31.8540   52.0460 C   0  0  0  0  0  0  0  0  0  0  0  0
   57.0380   30.0980   52.2340 S   0  0  0  0  0  0  0  0  0  0  0  0
   58.6280   29.5720   52.9590 C   0  0  0  0  0  0  0  0  0  0  0  0
   59.7320   29.7220   51.9640 C   0  0  0  0  0  0  0  0  0  0  0  0
   61.0370   29.7080   52.2910 N   0  0  0  0  0  0  0  0  0  0  0  0
   61.7070   29.9090   51.1700 N   0  0  0  0  0  0  0  0  0  0  0  0
   60.7930   30.0340   50.1880 C   0  0  0  0  0  0  0  0  0  0  0  0
   61.1540   30.3490   48.7600 C   0  0  2  0  0  0  0  0  0  0  0  0
   61.8510   31.7180   48.6330 C   0  0  0  0  0  0  0  0  0  0  0  0
   60.9420   32.7350   47.9890 C   0  0  0  0  0  0  0  0  0  0  0  0
   59.7400   33.1080   48.6120 C   0  0  0  0  0  0  0  0  0  0  0  0
   58.8780   34.0180   47.9900 C   0  0  0  0  0  0  0  0  0  0  0  0
   59.2100   34.5580   46.7450 C   0  0  0  0  0  0  0  0  0  0  0  0
   60.4030   34.1870   46.1170 C   0  0  0  0  0  0  0  0  0  0  0  0
   61.2640   33.2750   46.7330 C   0  0  0  0  0  0  0  0  0  0  0  0
   59.9410   30.3280   47.9360 N   0  0  0  0  0  0  0  0  0  0  0  0
   59.9730   30.2340   46.5040 C   0  0  0  0  0  0  0  0  0  0  0  0
   61.0700   30.0610   45.9080 O   0  0  0  0  0  0  0  0  0  0  0  0
   58.7210   30.3580   45.7210 C   0  0  0  0  0  0  0  0  0  0  0  0
   58.5610   31.4660   44.8710 C   0  0  0  0  0  0  0  0  0  0  0  0
   57.4200   31.5960   44.0790 C   0  0  0  0  0  0  0  0  0  0  0  0
   56.4190   30.6260   44.1270 C   0  0  0  0  0  0  0  0  0  0  0  0
   56.5510   29.5220   44.9720 C   0  0  0  0  0  0  0  0  0  0  0  0
   55.5180   28.5890   45.0320 O   0  0  0  0  0  0  0  0  0  0  0  0
   57.7030   29.3700   45.7690 C   0  0  0  0  0  0  0  0  0  0  0  0
   57.7890   28.2220   46.6940 C   0  0  0  0  0  0  0  0  0  0  0  0
   58.0440   28.4300   47.9110 O   0  0  0  0  0  0  0  0  0  0  0  0
   57.5840   26.8810   46.2260 N   0  0  0  0  0  0  0  0  0  0  0  0
   56.3540   26.1060   46.3710 C   0  0  0  0  0  0  0  0  0  0  0  0
   56.6510   24.8850   45.4830 C   0  0  2  0  0  0  0  0  0  0  0  0
   57.7500   24.0490   46.1690 C   0  0  0  0  0  0  0  0  0  0  0  0
   59.0010   24.9410   46.0230 C   0  0  0  0  0  0  0  0  0  0  0  0
   58.4440   26.1660   45.2850 C   0  0  1  0  0  0  0  0  0  0  0  0
   57.4360   25.5290   44.3560 C   0  0  0  0  0  0  0  0  0  0  0  0
   59.5290   29.9400   50.6500 N   0  0  0  0  0  0  0  0  0  0  0  0
   57.6088   32.3107   53.0398 H   0  0  0  0  0  0  0  0  0  0  0  0
   58.4384   31.9310   51.4924 H   0  0  0  0  0  0  0  0  0  0  0  0
   56.6991   32.3797   51.4924 H   0  0  0  0  0  0  0  0  0  0  0  0
   58.8475   30.1935   53.8396 H   0  0  0  0  0  0  0  0  0  0  0  0
   58.5533   28.5140   53.2505 H   0  0  0  0  0  0  0  0  0  0  0  0
   61.8620   29.5833   48.4100 H   0  0  0  0  0  0  0  0  0  0  0  0
   62.1320   32.0720   49.6358 H   0  0  0  0  0  0  0  0  0  0  0  0
   62.7427   31.5976   48.0003 H   0  0  0  0  0  0  0  0  0  0  0  0
   59.4753   32.6836   49.5917 H   0  0  0  0  0  0  0  0  0  0  0  0
   57.9379   34.3085   48.4818 H   0  0  0  0  0  0  0  0  0  0  0  0
   58.5326   35.2753   46.2586 H   0  0  0  0  0  0  0  0  0  0  0  0
   60.6639   34.6135   45.1372 H   0  0  0  0  0  0  0  0  0  0  0  0
   62.1976   32.9788   46.2323 H   0  0  0  0  0  0  0  0  0  0  0  0
   59.0170   30.2630   48.4210 H   0  0  0  0  0  0  0  0  0  0  0  0
   59.3433   32.2383   44.8299 H   0  0  0  0  0  0  0  0  0  0  0  0
   57.3095   32.4659   43.4148 H   0  0  0  0  0  0  0  0  0  0  0  0
   55.5230   30.7308   43.4975 H   0  0  0  0  0  0  0  0  0  0  0  0
   56.1869   25.8103   47.4172 H   0  0  0  0  0  0  0  0  0  0  0  0
   55.4435   26.6545   46.0877 H   0  0  0  0  0  0  0  0  0  0  0  0
   55.7519   24.2992   45.2411 H   0  0  0  0  0  0  0  0  0  0  0  0
   57.5106   23.8729   47.2281 H   0  0  0  0  0  0  0  0  0  0  0  0
   57.8749   23.0490   45.7281 H   0  0  0  0  0  0  0  0  0  0  0  0
   59.4088   25.2194   47.0059 H   0  0  0  0  0  0  0  0  0  0  0  0
   59.8332   24.4503   45.4970 H   0  0  0  0  0  0  0  0  0  0  0  0
   59.2225   26.8032   44.8400 H   0  0  0  0  0  0  0  0  0  0  0  0
   56.8498   26.2627   43.7833 H   0  0  0  0  0  0  0  0  0  0  0  0
   57.8077   24.8856   43.5449 H   0  0  0  0  0  0  0  0  0  0  0  0
  1  2  1  0
  2  3  1  0
  3  4  1  0
  4  5  2  0
  5  6  1  0
  6  7  2  0
  7  8  1  0
  8  9  1  0
  9 10  1  0
 10 11  2  0
 11 12  1  0
 12 13  2  0
 13 14  1  0
 14 15  2  0
  8 16  1  0
 16 17  1  0
 17 18  2  0
 17 19  1  0
 19 20  2  0
 20 21  1  0
 21 22  2  0
 22 23  1  0
 23 24  1  0
 23 25  2  0
 25 26  1  0
 26 27  2  0
 26 28  1  0
 28 29  1  0
 29 30  1  0
 30 31  1  0
 31 32  1  0
 32 33  1  0
 33 34  1  0
  7 35  1  0
 35  4  1  0
 15 10  1  0
 25 19  1  0
 33 28  1  0
 34 30  1  0
  1 36  1  0
  1 37  1  0
  1 38  1  0
  3 39  1  0
  3 40  1  0
  8 41  1  6
  9 42  1  0
  9 43  1  0
 11 44  1  0
 12 45  1  0
 13 46  1  0
 14 47  1  0
 15 48  1  0
 16 49  1  0
 20 50  1  0
 21 51  1  0
 22 52  1  0
 29 53  1  0
 29 54  1  0
 30 55  1  6
 31 56  1  0
 31 57  1  0
 32 58  1  0
 32 59  1  0
 33 60  1  6
 34 61  1  0
 34 62  1  0
M  CHG  2  24  -1  35  -1
M  END
>  <UniqueID>  (6) 
6

>  <SMILES>  (6) 
CSCc1nnc([C@H](Cc2ccccc2)NC(=O)c2cccc([O-])c2C(=O)N2C[C@@H]3CCC2C3)[n-]1

>  <Energy>  (6) 
129.97725323064046

>  <Genealogy>  (6) 
CSCc1nnc(C(Cc2ccccc2)NC(=O)c2cccc([O-])c2C(=O)N2CC3CCC2C3)[n-]1 (protonated)
CSCc1nnc([C@H](Cc2ccccc2)NC(=O)c2cccc([O-])c2C(=O)N2C[C@@H]3CCC2C3)[n-]1 (chirality)
CSCc1nnc([C@H](Cc2ccccc2)NC(=O)c2cccc([O-])c2C(=O)N2C[C@@H]3CCC2C3)[n-]1 (3D coordinates assigned)
CSCc1nnc([C@H](Cc2ccccc2)NC(=O)c2cccc([O-])c2C(=O)N2C[C@@H]3CCC2C3)[n-]1 (nonaromatic ring conformer: 129.97725323064046 kcal/mol)

>  <smiles>  (6) 
CSCc1nnc(C(Cc2ccccc2)NC(=O)c2cccc(O)c2C(=O)N2CC3CCC2C3)[nH]1

>  <score_type>  (6) 
oracle

>  <origin>  (6) 
adg

>  <m_score__min__energy>  (6) 
-12.17

>  <m_primary>  (6) 
energy

$$$$
6:0
     RDKit          3D

 32 33  0  0  0  0  0  0  0  0999 V2000
   57.4330   32.2040   41.5510 C   0  0  0  0  0  0  0  0  0  0  0  0
   57.9020   31.9230   42.7710 C   0  0  0  0  0  0  0  0  0  0  0  0
   57.0090   31.3920   43.8570 C   0  0  0  0  0  0  0  0  0  0  0  0
   57.5850   30.1320   44.4550 C   0  0  0  0  0  0  0  0  0  0  0  0
   58.9770   29.9620   44.5180 C   0  0  0  0  0  0  0  0  0  0  0  0
   59.5250   28.7890   45.0420 C   0  0  0  0  0  0  0  0  0  0  0  0
   58.6920   27.7550   45.5010 C   0  0  0  0  0  0  0  0  0  0  0  0
   59.2820   26.5100   46.0510 C   0  0  0  0  0  0  0  0  0  0  0  0
   60.2840   26.5790   46.8110 O   0  0  0  0  0  0  0  0  0  0  0  0
   58.6970   25.2210   45.8030 N   0  0  0  0  0  0  0  0  0  0  0  0
   57.4770   24.8460   46.0750 C   0  0  0  0  0  0  0  0  0  0  0  0
   56.4460   24.8460   45.1110 C   0  0  0  0  0  0  0  0  0  0  0  0
   55.1640   24.4270   45.4750 C   0  0  0  0  0  0  0  0  0  0  0  0
   54.9160   24.0110   46.7440 N   0  0  0  0  0  0  0  0  0  0  0  0
   55.8920   23.9850   47.6890 C   0  0  0  0  0  0  0  0  0  0  0  0
   57.1880   24.3960   47.3700 C   0  0  0  0  0  0  0  0  0  0  0  0
   57.2980   27.9270   45.4410 C   0  0  0  0  0  0  0  0  0  0  0  0
   56.7430   29.1020   44.9150 C   0  0  0  0  0  0  0  0  0  0  0  0
   55.3570   29.2480   44.8460 O   0  0  0  0  0  0  0  0  0  0  0  0
   58.1115   32.5915   40.7767 H   0  0  0  0  0  0  0  0  0  0  0  0
   56.3686   32.0477   41.3215 H   0  0  0  0  0  0  0  0  0  0  0  0
   58.9687   32.0846   42.9854 H   0  0  0  0  0  0  0  0  0  0  0  0
   56.9086   32.1524   44.6455 H   0  0  0  0  0  0  0  0  0  0  0  0
   56.0255   31.1590   43.4228 H   0  0  0  0  0  0  0  0  0  0  0  0
   59.6413   30.7587   44.1519 H   0  0  0  0  0  0  0  0  0  0  0  0
   60.6176   28.6739   45.0957 H   0  0  0  0  0  0  0  0  0  0  0  0
   56.6504   25.1734   44.0810 H   0  0  0  0  0  0  0  0  0  0  0  0
   54.3531   24.4340   44.7318 H   0  0  0  0  0  0  0  0  0  0  0  0
   55.6608   23.6395   48.7074 H   0  0  0  0  0  0  0  0  0  0  0  0
   57.9796   24.3665   48.1332 H   0  0  0  0  0  0  0  0  0  0  0  0
   56.6354   27.1307   45.8109 H   0  0  0  0  0  0  0  0  0  0  0  0
   54.7540   28.9510   45.6030 H   0  0  0  0  0  0  0  0  0  0  0  0
  1  2  2  0
  2  3  1  0
  3  4  1  0
  4  5  2  0
  5  6  1  0
  6  7  2  0
  7  8  1  0
  8  9  2  0
  8 10  1  0
 10 11  2  3
 11 12  1  0
 12 13  2  0
 13 14  1  0
 14 15  1  0
 15 16  2  0
  7 17  1  0
 17 18  2  0
 18 19  1  0
 18  4  1  0
 16 11  1  0
  1 20  1  0
  1 21  1  0
  2 22  1  0
  3 23  1  0
  3 24  1  0
  5 25  1  0
  6 26  1  0
 12 27  1  0
 13 28  1  0
 15 29  1  0
 16 30  1  0
 17 31  1  0
 19 32  1  0
M  CHG  1  14  -1
M  END
>  <UniqueID>  (7) 
7

>  <SMILES>  (7) 
C=CCc1ccc(C(=O)N=c2cc[n-]cc2)cc1O

>  <Energy>  (7) 
40.71185626896475

>  <Genealogy>  (7) 
C=CCc1ccc(C(=O)N=c2cc[n-]cc2)cc1O (protonated)
C=CCc1ccc(C(=O)N=c2cc[n-]cc2)cc1O (3D coordinates assigned)
C=CCc1ccc(C(=O)N=c2cc[n-]cc2)cc1O (optimized conformer: 40.71185626896475 kcal/mol)

>  <smiles>  (7) 
C=CCc1ccc(C(=O)N=c2cc[nH]cc2)cc1O

>  <score_type>  (7) 
oracle

>  <origin>  (7) 
adg

>  <m_score__min__energy>  (7) 
-8.6500000000000004

>  <m_primary>  (7) 
energy

$$$$
7:0
     RDKit          3D

 48 50  0  0  0  0  0  0  0  0999 V2000
   57.5240   23.2710   44.1730 C   0  0  0  0  0  0  0  0  0  0  0  0
   58.4000   23.2590   45.7200 S   0  0  0  0  0  0  0  0  0  0  0  0
   59.7890   22.7360   45.4870 O   0  0  0  0  0  0  0  0  0  0  0  0
   57.6680   22.3740   46.6880 O   0  0  0  0  0  0  0  0  0  0  0  0
   58.4690   24.8810   46.3300 N   0  0  0  0  0  0  0  0  0  0  0  0
   57.6340   25.9950   45.9680 C   0  0  0  0  0  0  0  0  0  0  0  0
   58.2660   27.1790   45.5730 C   0  0  0  0  0  0  0  0  0  0  0  0
   57.5230   28.3150   45.2210 C   0  0  0  0  0  0  0  0  0  0  0  0
   58.2420   29.5520   44.8280 C   0  0  0  0  0  0  0  0  0  0  0  0
   59.4260   29.4350   44.4070 O   0  0  0  0  0  0  0  0  0  0  0  0
   57.6010   30.9340   44.9080 C   0  0  2  0  0  0  0  0  0  0  0  0
   58.0970   31.8780   43.7780 C   0  0  0  0  0  0  0  0  0  0  0  0
   58.0280   33.3410   44.2060 C   0  0  0  0  0  0  0  0  0  0  0  0
   58.9330   33.5890   45.4290 C   0  0  0  0  0  0  0  0  0  0  0  0
   58.9540   32.4660   46.4040 N   0  0  0  0  0  0  0  0  0  0  0  0
   60.2210   31.7050   46.3960 C   0  0  0  0  0  0  0  0  0  0  0  0
   61.2750   32.4450   47.1760 C   0  0  0  0  0  0  0  0  0  0  0  0
   60.9350   33.5520   47.9720 C   0  0  0  0  0  0  0  0  0  0  0  0
   61.9210   34.2240   48.7010 C   0  0  0  0  0  0  0  0  0  0  0  0
   63.2510   33.7970   48.6410 C   0  0  0  0  0  0  0  0  0  0  0  0
   63.5960   32.6960   47.8530 C   0  0  0  0  0  0  0  0  0  0  0  0
   62.6120   32.0200   47.1230 C   0  0  0  0  0  0  0  0  0  0  0  0
   57.7700   31.5880   46.3120 C   0  0  0  0  0  0  0  0  0  0  0  0
   56.1200   28.2270   45.2440 C   0  0  0  0  0  0  0  0  0  0  0  0
   55.3240   29.2980   44.8600 O   0  0  0  0  0  0  0  0  0  0  0  0
   55.5190   27.0700   45.6280 N   0  0  0  0  0  0  0  0  0  0  0  0
   56.2230   25.9670   45.9910 C   0  0  0  0  0  0  0  0  0  0  0  0
   55.5920   24.9360   46.3380 O   0  0  0  0  0  0  0  0  0  0  0  0
   56.4410   23.2858   44.3650 H   0  0  0  0  0  0  0  0  0  0  0  0
   57.8068   24.1654   43.5984 H   0  0  0  0  0  0  0  0  0  0  0  0
   57.7822   22.3692   43.5984 H   0  0  0  0  0  0  0  0  0  0  0  0
   59.3647   27.2195   45.5379 H   0  0  0  0  0  0  0  0  0  0  0  0
   56.5229   30.7796   44.7536 H   0  0  0  0  0  0  0  0  0  0  0  0
   59.1390   31.6256   43.5321 H   0  0  0  0  0  0  0  0  0  0  0  0
   57.4459   31.7420   42.9019 H   0  0  0  0  0  0  0  0  0  0  0  0
   58.3619   33.9778   43.3735 H   0  0  0  0  0  0  0  0  0  0  0  0
   56.9898   33.5839   44.4766 H   0  0  0  0  0  0  0  0  0  0  0  0
   59.9598   33.7557   45.0713 H   0  0  0  0  0  0  0  0  0  0  0  0
   58.5215   34.4615   45.9575 H   0  0  0  0  0  0  0  0  0  0  0  0
   60.0556   30.7185   46.8536 H   0  0  0  0  0  0  0  0  0  0  0  0
   60.5612   31.5839   45.3570 H   0  0  0  0  0  0  0  0  0  0  0  0
   59.8897   33.8910   48.0218 H   0  0  0  0  0  0  0  0  0  0  0  0
   61.6498   35.0900   49.3227 H   0  0  0  0  0  0  0  0  0  0  0  0
   64.0256   34.3277   49.2140 H   0  0  0  0  0  0  0  0  0  0  0  0
   64.6424   32.3602   47.8064 H   0  0  0  0  0  0  0  0  0  0  0  0
   62.8871   31.1524   46.5053 H   0  0  0  0  0  0  0  0  0  0  0  0
   57.8682   30.7884   47.0610 H   0  0  0  0  0  0  0  0  0  0  0  0
   56.8832   32.2138   46.4910 H   0  0  0  0  0  0  0  0  0  0  0  0
  1  2  1  0
  2  3  2  0
  2  4  2  0
  2  5  1  0
  5  6  1  0
  6  7  2  0
  7  8  1  0
  8  9  1  0
  9 10  2  0
  9 11  1  0
 11 12  1  0
 12 13  1  0
 13 14  1  0
 14 15  1  0
 15 16  1  0
 16 17  1  0
 17 18  2  0
 18 19  1  0
 19 20  2  0
 20 21  1  0
 21 22  2  0
 15 23  1  0
  8 24  2  0
 24 25  1  0
 24 26  1  0
 26 27  1  0
 27 28  2  0
 27  6  1  0
 23 11  1  0
 22 17  1  0
  1 29  1  0
  1 30  1  0
  1 31  1  0
  7 32  1  0
 11 33  1  6
 12 34  1  0
 12 35  1  0
 13 36  1  0
 13 37  1  0
 14 38  1  0
 14 39  1  0
 16 40  1  0
 16 41  1  0
 18 42  1  0
 19 43  1  0
 20 44  1  0
 21 45  1  0
 22 46  1  0
 23 47  1  0
 23 48  1  0
M  CHG  3   5  -1  25  -1  26  -1
M  END
>  <UniqueID>  (8) 
8

>  <SMILES>  (8) 
CS(=O)(=O)[N-]c1cc(C(=O)[C@@H]2CCCN(Cc3ccccc3)C2)c([O-])[n-]c1=O

>  <Energy>  (8) 
68.7687754429941

>  <Genealogy>  (8) 
CS(=O)(=O)[N-]c1cc(C(=O)C2CCCN(Cc3ccccc3)C2)c([O-])[n-]c1=O (protonated)
CS(=O)(=O)[N-]c1cc(C(=O)[C@@H]2CCCN(Cc3ccccc3)C2)c([O-])[n-]c1=O (chirality)
CS(=O)(=O)[N-]c1cc(C(=O)[C@@H]2CCCN(Cc3ccccc3)C2)c([O-])[n-]c1=O (3D coordinates assigned)
CS(=O)(=O)[N-]c1cc(C(=O)[C@@H]2CCCN(Cc3ccccc3)C2)c([O-])[n-]c1=O (nonaromatic ring conformer: 68.7687754429941 kcal/mol)

>  <smiles>  (8) 
CS(=O)(=O)Nc1cc(C(=O)C2CCCN(Cc3ccccc3)C2)c(O)[nH]c1=O

>  <score_type>  (8) 
oracle

>  <origin>  (8) 
adg

>  <m_score__min__energy>  (8) 
-16.039999999999999

>  <m_primary>  (8) 
energy

$$$$
8:0
     RDKit          3D

 60 63  0  0  0  0  0  0  0  0999 V2000
   62.5550   33.7680   51.6300 C   0  0  0  0  0  0  0  0  0  0  0  0
   62.0330   33.9380   50.4150 C   0  0  0  0  0  0  0  0  0  0  0  0
   62.4660   33.1570   49.2290 C   0  0  0  0  0  0  0  0  0  0  0  0
   63.6340   33.4990   48.5250 C   0  0  0  0  0  0  0  0  0  0  0  0
   64.0610   32.7360   47.4870 N   0  0  0  0  0  0  0  0  0  0  0  0
   63.3760   31.6250   47.1130 C   0  0  0  0  0  0  0  0  0  0  0  0
   62.2460   31.2680   47.7710 N   0  0  0  0  0  0  0  0  0  0  0  0
   61.7690   31.9960   48.8160 C   0  0  0  0  0  0  0  0  0  0  0  0
   60.5100   31.5560   49.4680 C   0  0  0  0  0  0  0  0  0  0  0  0
   60.5350   30.4200   50.2980 C   0  0  0  0  0  0  0  0  0  0  0  0
   59.3780   29.9880   50.9460 C   0  0  0  0  0  0  0  0  0  0  0  0
   58.1830   30.6860   50.7830 C   0  0  0  0  0  0  0  0  0  0  0  0
   58.1430   31.8260   49.9780 C   0  0  0  0  0  0  0  0  0  0  0  0
   59.3020   32.2850   49.3280 C   0  0  0  0  0  0  0  0  0  0  0  0
   59.2160   33.5080   48.4930 C   0  0  0  0  0  0  0  0  0  0  0  0
   59.3910   34.6310   49.0410 O   0  0  0  0  0  0  0  0  0  0  0  0
   58.9500   33.4410   47.0750 N   0  0  0  0  0  0  0  0  0  0  0  0
   57.8370   34.2230   46.5150 C   0  0  0  0  0  0  0  0  0  0  0  0
   57.8770   34.2440   44.9820 C   0  0  0  0  0  0  0  0  0  0  0  0
   57.9600   32.8300   44.3710 C   0  0  0  0  0  0  0  0  0  0  0  0
   58.7640   31.8140   45.2290 C   0  0  2  0  0  0  0  0  0  0  0  0
   57.8570   30.9360   45.9860 N   0  0  0  0  0  0  0  0  0  0  0  0
   58.0510   29.5200   46.1820 C   0  0  0  0  0  0  0  0  0  0  0  0
   57.2470   28.6210   45.4700 C   0  0  0  0  0  0  0  0  0  0  0  0
   57.3720   27.2450   45.6600 C   0  0  0  0  0  0  0  0  0  0  0  0
   58.3110   26.7310   46.5660 C   0  0  0  0  0  0  0  0  0  0  0  0
   58.4090   25.2400   46.7620 C   0  0  0  0  0  0  0  0  0  0  0  0
   59.1460   27.6230   47.2780 C   0  0  0  0  0  0  0  0  0  0  0  0
   60.1720   27.1150   48.2590 C   0  0  0  0  0  0  0  0  0  0  0  0
   59.0200   29.0080   47.0670 C   0  0  0  0  0  0  0  0  0  0  0  0
   59.7160   32.5420   46.1940 C   0  0  0  0  0  0  0  0  0  0  0  0
   62.1950   34.3757   52.4732 H   0  0  0  0  0  0  0  0  0  0  0  0
   63.3457   33.0200   51.7892 H   0  0  0  0  0  0  0  0  0  0  0  0
   61.2437   34.6931   50.2851 H   0  0  0  0  0  0  0  0  0  0  0  0
   64.2061   34.3918   48.8177 H   0  0  0  0  0  0  0  0  0  0  0  0
   64.9340   32.9990   46.9770 H   0  0  0  0  0  0  0  0  0  0  0  0
   63.7389   31.0131   46.2740 H   0  0  0  0  0  0  0  0  0  0  0  0
   61.4759   29.8675   50.4371 H   0  0  0  0  0  0  0  0  0  0  0  0
   59.4088   29.0946   51.5870 H   0  0  0  0  0  0  0  0  0  0  0  0
   57.2703   30.3385   51.2891 H   0  0  0  0  0  0  0  0  0  0  0  0
   57.1955   32.3703   49.8511 H   0  0  0  0  0  0  0  0  0  0  0  0
   56.8866   33.7754   46.8412 H   0  0  0  0  0  0  0  0  0  0  0  0
   57.9280   35.2582   46.8758 H   0  0  0  0  0  0  0  0  0  0  0  0
   56.9643   34.7344   44.6125 H   0  0  0  0  0  0  0  0  0  0  0  0
   58.7823   34.7910   44.6799 H   0  0  0  0  0  0  0  0  0  0  0  0
   56.9365   32.4457   44.2494 H   0  0  0  0  0  0  0  0  0  0  0  0
   58.4933   32.9289   43.4140 H   0  0  0  0  0  0  0  0  0  0  0  0
   59.3631   31.1968   44.5433 H   0  0  0  0  0  0  0  0  0  0  0  0
   57.0260   31.3700   46.4510 H   0  0  0  0  0  0  0  0  0  0  0  0
   56.5076   29.0051   44.7518 H   0  0  0  0  0  0  0  0  0  0  0  0
   56.7278   26.5562   45.0937 H   0  0  0  0  0  0  0  0  0  0  0  0
   58.4240   25.0118   47.8380 H   0  0  0  0  0  0  0  0  0  0  0  0
   57.5411   24.7510   46.2955 H   0  0  0  0  0  0  0  0  0  0  0  0
   59.3335   24.8688   46.2955 H   0  0  0  0  0  0  0  0  0  0  0  0
   59.8168   27.2909   49.2851 H   0  0  0  0  0  0  0  0  0  0  0  0
   60.3254   26.0369   48.1038 H   0  0  0  0  0  0  0  0  0  0  0  0
   61.1224   27.6466   48.1038 H   0  0  0  0  0  0  0  0  0  0  0  0
   59.6874   29.7008   47.6005 H   0  0  0  0  0  0  0  0  0  0  0  0
   60.2510   31.8010   46.8061 H   0  0  0  0  0  0  0  0  0  0  0  0
   60.4366   33.1349   45.6116 H   0  0  0  0  0  0  0  0  0  0  0  0
  1  2  2  0
  2  3  1  0
  3  4  2  0
  4  5  1  0
  5  6  2  0
  6  7  1  0
  7  8  2  0
  8  9  1  0
  9 10  2  0
 10 11  1  0
 11 12  2  0
 12 13  1  0
 13 14  2  0
 14 15  1  0
 15 16  2  0
 15 17  1  0
 17 18  1  0
 18 19  1  0
 19 20  1  0
 20 21  1  0
 21 22  1  0
 22 23  1  0
 23 24  2  0
 24 25  1  0
 25 26  2  0
 26 27  1  0
 26 28  1  0
 28 29  1  0
 28 30  2  0
 21 31  1  0
  8  3  1  0
 14  9  1  0
 31 17  1  0
 30 23  1  0
  1 32  1  0
  1 33  1  0
  2 34  1  0
  4 35  1  0
  5 36  1  0
  6 37  1  0
 10 38  1  0
 11 39  1  0
 12 40  1  0
 13 41  1  0
 18 42  1  0
 18 43  1  0
 19 44  1  0
 19 45  1  0
 20 46  1  0
 20 47  1  0
 21 48  1  6
 22 49  1  0
 24 50  1  0
 25 51  1  0
 27 52  1  0
 27 53  1  0
 27 54  1  0
 29 55  1  0
 29 56  1  0
 29 57  1  0
 30 58  1  0
 31 59  1  0
 31 60  1  0
M  CHG  1   5   1
M  END
>  <UniqueID>  (9) 
9

>  <SMILES>  (9) 
C=Cc1c[nH+]cnc1-c1ccccc1C(=O)N1CCC[C@H](Nc2ccc(C)c(C)c2)C1

>  <Energy>  (9) 
79.12728724253725

>  <Genealogy>  (9) 
C=Cc1c[nH+]cnc1-c1ccccc1C(=O)N1CCCC(Nc2ccc(C)c(C)c2)C1 (protonated)
C=Cc1c[nH+]cnc1-c1ccccc1C(=O)N1CCC[C@H](Nc2ccc(C)c(C)c2)C1 (chirality)
C=Cc1c[nH+]cnc1-c1ccccc1C(=O)N1CCC[C@H](Nc2ccc(C)c(C)c2)C1 (3D coordinates assigned)
C=Cc1c[nH+]cnc1-c1ccccc1C(=O)N1CCC[C@H](Nc2ccc(C)c(C)c2)C1 (nonaromatic ring conformer: 79.12728724253725 kcal/mol)

>  <smiles>  (9) 
C=Cc1cncnc1-c1ccccc1C(=O)N1CCCC(Nc2ccc(C)c(C)c2)C1

>  <score_type>  (9) 
oracle

>  <origin>  (9) 
adg

>  <m_score__min__energy>  (9) 
-8.0899999999999999

>  <m_primary>  (9) 
energy

$$$$
9:0
     RDKit          3D

 61 65  0  0  0  0  0  0  0  0999 V2000
   63.1037   34.1267   51.0281 H   0  0  0  0  0  0  0  0  0  0  0  0
   62.1790   33.7940   50.5340 C   0  0  0  0  0  0  0  0  0  0  0  0
   61.9520   34.1110   49.1920 C   0  0  0  0  0  0  0  0  0  0  0  0
   62.7097   34.6729   48.6262 H   0  0  0  0  0  0  0  0  0  0  0  0
   60.7630   33.7160   48.5640 C   0  0  0  0  0  0  0  0  0  0  0  0
   60.5790   34.0000   47.1690 N   0  0  0  0  0  0  0  0  0  0  0  0
   59.5550   33.6840   46.4260 C   0  0  0  0  0  0  0  0  0  0  0  0
   59.4400   32.4020   45.9940 N   0  0  0  0  0  0  0  0  0  0  0  0
   58.4050   31.9860   45.2130 C   0  0  0  0  0  0  0  0  0  0  0  0
   58.3170   30.5560   44.8220 C   0  0  0  0  0  0  0  0  0  0  0  0
   57.0990   29.9770   44.4160 C   0  0  0  0  0  0  0  0  0  0  0  0
   56.1945   30.5995   44.3494 H   0  0  0  0  0  0  0  0  0  0  0  0
   57.0300   28.6180   44.0970 C   0  0  0  0  0  0  0  0  0  0  0  0
   56.0691   28.1757   43.7953 H   0  0  0  0  0  0  0  0  0  0  0  0
   58.1770   27.8150   44.1590 C   0  0  0  0  0  0  0  0  0  0  0  0
   58.0660   26.3250   43.9740 C   0  0  0  0  0  0  0  0  0  0  0  0
   58.9516   25.9535   43.4377 H   0  0  0  0  0  0  0  0  0  0  0  0
   57.1639   26.0904   43.3899 H   0  0  0  0  0  0  0  0  0  0  0  0
   57.9840   25.6870   45.2810 N   0  0  0  0  0  0  0  0  0  0  0  0
   57.4630   26.3840   46.4150 C   0  0  0  0  0  0  0  0  0  0  0  0
   56.2260   26.2990   46.6830 O   0  0  0  0  0  0  0  0  0  0  0  0
   58.3780   27.1530   47.2960 C   0  0  0  0  0  0  0  0  0  0  0  0
   59.5220   26.5450   47.8500 C   0  0  0  0  0  0  0  0  0  0  0  0
   59.7165   25.4781   47.6660 H   0  0  0  0  0  0  0  0  0  0  0  0
   60.4130   27.2890   48.6330 C   0  0  0  0  0  0  0  0  0  0  0  0
   61.3029   26.8046   49.0612 H   0  0  0  0  0  0  0  0  0  0  0  0
   60.1750   28.6450   48.8720 C   0  0  0  0  0  0  0  0  0  0  0  0
   61.0430   29.3670   49.6290 F   0  0  0  0  0  0  0  0  0  0  0  0
   59.0430   29.2580   48.3300 C   0  0  0  0  0  0  0  0  0  0  0  0
   58.8542   30.3250   48.5193 H   0  0  0  0  0  0  0  0  0  0  0  0
   58.1480   28.5200   47.5470 C   0  0  0  0  0  0  0  0  0  0  0  0
   57.2588   29.0108   47.1246 H   0  0  0  0  0  0  0  0  0  0  0  0
   59.3960   28.3890   44.5420 C   0  0  0  0  0  0  0  0  0  0  0  0
   60.3017   27.7668   44.5920 H   0  0  0  0  0  0  0  0  0  0  0  0
   59.4680   29.7480   44.8610 C   0  0  0  0  0  0  0  0  0  0  0  0
   60.4343   30.1901   45.1454 H   0  0  0  0  0  0  0  0  0  0  0  0
   57.4270   32.9220   44.8410 C   0  0  0  0  0  0  0  0  0  0  0  0
   56.5728   32.6128   44.2207 H   0  0  0  0  0  0  0  0  0  0  0  0
   57.5420   34.2130   45.2520 N   0  0  0  0  0  0  0  0  0  0  0  0
   56.8180   34.9080   44.9650 H   0  0  0  0  0  0  0  0  0  0  0  0
   58.5810   34.6180   46.0290 C   0  0  0  0  0  0  0  0  0  0  0  0
   58.6597   35.6687   46.3451 H   0  0  0  0  0  0  0  0  0  0  0  0
   59.8250   32.9480   49.2760 C   0  0  0  0  0  0  0  0  0  0  0  0
   58.9061   32.6075   48.7763 H   0  0  0  0  0  0  0  0  0  0  0  0
   60.0530   32.6120   50.6220 C   0  0  0  0  0  0  0  0  0  0  0  0
   59.0820   31.8360   51.3510 N   0  0  0  0  0  0  0  0  0  0  0  0
   57.7450   32.3910   51.5930 C   0  0  0  0  0  0  0  0  0  0  0  0
   57.8168   33.1944   52.3409 H   0  0  0  0  0  0  0  0  0  0  0  0
   57.3485   32.7872   50.6465 H   0  0  0  0  0  0  0  0  0  0  0  0
   56.7970   31.3050   52.1100 C   0  0  0  0  0  0  0  0  0  0  0  0
   56.9286   31.1898   53.1960 H   0  0  0  0  0  0  0  0  0  0  0  0
   55.7572   31.5930   51.8956 H   0  0  0  0  0  0  0  0  0  0  0  0
   57.0890   30.0820   51.4680 O   0  0  0  0  0  0  0  0  0  0  0  0
   58.2950   29.5510   51.9870 C   0  0  0  0  0  0  0  0  0  0  0  0
   58.1185   29.2362   53.0261 H   0  0  0  0  0  0  0  0  0  0  0  0
   58.5836   28.7092   51.3404 H   0  0  0  0  0  0  0  0  0  0  0  0
   59.4690   30.5610   51.9730 C   0  0  0  0  0  0  0  0  0  0  0  0
   59.7876   30.7517   53.0084 H   0  0  0  0  0  0  0  0  0  0  0  0
   60.2886   30.1260   51.3822 H   0  0  0  0  0  0  0  0  0  0  0  0
   61.2330   33.0550   51.2490 C   0  0  0  0  0  0  0  0  0  0  0  0
   61.4114   32.8179   52.3082 H   0  0  0  0  0  0  0  0  0  0  0  0
  1  2  1  0
  2  3  2  0
  3  4  1  0
  3  5  1  0
  5  6  1  0
  6  7  2  0
  7  8  1  0
  8  9  1  0
  9 10  1  0
 10 11  2  0
 11 12  1  0
 11 13  1  0
 13 14  1  0
 13 15  2  0
 15 16  1  0
 16 17  1  0
 16 18  1  0
 16 19  1  0
 19 20  1  0
 20 21  2  0
 20 22  1  0
 22 23  2  0
 23 24  1  0
 23 25  1  0
 25 26  1  0
 25 27  2  0
 27 28  1  0
 27 29  1  0
 29 30  1  0
 29 31  2  0
 31 32  1  0
 15 33  1  0
 33 34  1  0
 33 35  2  0
 35 36  1  0
  9 37  2  0
 37 38  1  0
 37 39  1  0
 39 40  1  0
 39 41  2  0
 41 42  1  0
  5 43  2  0
 43 44  1  0
 43 45  1  0
 45 46  1  0
 46 47  1  0
 47 48  1  0
 47 49  1  0
 47 50  1  0
 50 51  1  0
 50 52  1  0
 50 53  1  0
 53 54  1  0
 54 55  1  0
 54 56  1  0
 54 57  1  0
 57 58  1  0
 57 59  1  0
 45 60  2  0
 60 61  1  0
 60  2  1  0
 41  7  1  0
 57 46  1  0
 35 10  1  0
 31 22  1  0
M  CHG  3   8  -1  19  -1  39   1
M  END
>  <UniqueID>  (10) 
10

>  <SMILES>  (10) 
O=C([N-]Cc1ccc(-c2c[nH+]c/c(=N\c3cccc(N4CCOCC4)c3)[n-]2)cc1)c1ccc(F)cc1

>  <Energy>  (10) 
96.00885944375871

>  <Genealogy>  (10) 
O=C([N-]Cc1ccc(-c2c[nH+]cc(=Nc3cccc(N4CCOCC4)c3)[n-]2)cc1)c1ccc(F)cc1 (protonated)
O=C([N-]Cc1ccc(-c2c[nH+]c/c(=N\c3cccc(N4CCOCC4)c3)[n-]2)cc1)c1ccc(F)cc1 (cis-trans isomerization)
O=C([N-]Cc1ccc(-c2c[nH+]c/c(=N\c3cccc(N4CCOCC4)c3)[n-]2)cc1)c1ccc(F)cc1 (3D coordinates assigned)
O=C([N-]Cc1ccc(-c2c[nH+]c/c(=N\c3cccc(N4CCOCC4)c3)[n-]2)cc1)c1ccc(F)cc1 (nonaromatic ring conformer: 96.00885944375871 kcal/mol)

>  <smiles>  (10) 
O=C(NCc1ccc(-c2cncc(=Nc3cccc(N4CCOCC4)c3)[nH]2)cc1)c1ccc(F)cc1

>  <score_type>  (10) 
oracle

>  <origin>  (10) 
adg

>  <m_score__min__energy>  (10) 
-11.039999999999999

>  <m_primary>  (10) 
energy

$$$$
10:0
     RDKit          3D

 44 46  0  0  0  0  0  0  0  0999 V2000
   53.1843   24.6160   45.5386 H   0  0  0  0  0  0  0  0  0  0  0  0
   54.2630   24.8140   45.6240 C   0  0  0  0  0  0  0  0  0  0  0  0
   54.7570   26.0450   45.9290 N   0  0  0  0  0  0  0  0  0  0  0  0
   56.1060   26.0450   45.9670 C   0  0  0  0  0  0  0  0  0  0  0  0
   56.7880   27.1110   46.2720 N   0  0  0  0  0  0  0  0  0  0  0  0
   57.7600   27.7510   45.4320 C   0  0  0  0  0  0  0  0  0  0  0  0
   58.5180   27.0300   44.7300 O   0  0  0  0  0  0  0  0  0  0  0  0
   57.9370   29.2230   45.4190 C   0  0  0  0  0  0  0  0  0  0  0  0
   57.0790   30.0320   44.6550 C   0  0  0  0  0  0  0  0  0  0  0  0
   56.2791   29.5696   44.0581 H   0  0  0  0  0  0  0  0  0  0  0  0
   57.2360   31.4210   44.6490 C   0  0  0  0  0  0  0  0  0  0  0  0
   56.5510   32.0471   44.0584 H   0  0  0  0  0  0  0  0  0  0  0  0
   58.2620   32.0190   45.3920 C   0  0  0  0  0  0  0  0  0  0  0  0
   58.4190   33.7730   45.4140 S   0  0  0  0  0  0  0  0  0  0  0  0
   58.9920   34.2520   44.1080 O   0  0  0  0  0  0  0  0  0  0  0  0
   57.0560   34.3800   45.5900 O   0  0  0  0  0  0  0  0  0  0  0  0
   59.4550   34.2520   46.7360 N   0  0  2  0  0  0  0  0  0  0  0  0
   59.3930   35.2950   46.8230 H   0  0  0  0  0  0  0  0  0  0  0  0
   60.8510   33.8700   46.4560 C   0  0  0  0  0  0  0  0  0  0  0  0
   60.8583   32.8670   46.0044 H   0  0  0  0  0  0  0  0  0  0  0  0
   61.2732   34.6238   45.7751 H   0  0  0  0  0  0  0  0  0  0  0  0
   61.7310   33.8460   47.7370 C   0  0  2  0  0  0  0  0  0  0  0  0
   62.6418   34.3959   47.4576 H   0  0  0  0  0  0  0  0  0  0  0  0
   62.1620   32.4280   48.1370 C   0  0  0  0  0  0  0  0  0  0  0  0
   62.1864   32.3479   49.2338 H   0  0  0  0  0  0  0  0  0  0  0  0
   61.4449   31.6988   47.7319 H   0  0  0  0  0  0  0  0  0  0  0  0
   63.1636   32.2212   47.7319 H   0  0  0  0  0  0  0  0  0  0  0  0
   61.1690   34.5540   48.8360 O   0  0  0  0  0  0  0  0  0  0  0  0
   59.8270   34.2000   49.1610 C   0  0  2  0  0  0  0  0  0  0  0  0
   59.3245   35.1468   49.4080 H   0  0  0  0  0  0  0  0  0  0  0  0
   59.7840   33.2890   50.3910 C   0  0  0  0  0  0  0  0  0  0  0  0
   59.8130   33.9030   51.3032 H   0  0  0  0  0  0  0  0  0  0  0  0
   58.8569   32.6971   50.3767 H   0  0  0  0  0  0  0  0  0  0  0  0
   60.6512   32.6124   50.3767 H   0  0  0  0  0  0  0  0  0  0  0  0
   59.0020   33.6350   47.9870 C   0  0  0  0  0  0  0  0  0  0  0  0
   59.1411   32.5453   47.9308 H   0  0  0  0  0  0  0  0  0  0  0  0
   57.9364   33.8586   48.1438 H   0  0  0  0  0  0  0  0  0  0  0  0
   59.1290   31.2150   46.1440 C   0  0  0  0  0  0  0  0  0  0  0  0
   59.9361   31.6791   46.7299 H   0  0  0  0  0  0  0  0  0  0  0  0
   58.9730   29.8270   46.1530 C   0  0  0  0  0  0  0  0  0  0  0  0
   59.6647   29.2028   46.7377 H   0  0  0  0  0  0  0  0  0  0  0  0
   56.7390   24.5140   45.6470 S   0  0  0  0  0  0  0  0  0  0  0  0
   55.2210   23.8240   45.4280 C   0  0  0  0  0  0  0  0  0  0  0  0
   55.0203   22.7727   45.1740 H   0  0  0  0  0  0  0  0  0  0  0  0
  1  2  1  0
  2  3  1  0
  3  4  1  0
  4  5  2  0
  5  6  1  0
  6  7  2  0
  6  8  1  0
  8  9  2  0
  9 10  1  0
  9 11  1  0
 11 12  1  0
 11 13  2  0
 13 14  1  0
 14 15  2  0
 14 16  2  0
 14 17  1  0
 17 18  1  1
 17 19  1  0
 19 20  1  0
 19 21  1  0
 19 22  1  0
 22 23  1  6
 22 24  1  0
 24 25  1  0
 24 26  1  0
 24 27  1  0
 22 28  1  0
 28 29  1  0
 29 30  1  1
 29 31  1  0
 31 32  1  0
 31 33  1  0
 31 34  1  0
 29 35  1  0
 35 36  1  0
 35 37  1  0
 13 38  1  0
 38 39  1  0
 38 40  2  0
 40 41  1  0
  4 42  1  0
 42 43  1  0
 43 44  1  0
 43  2  2  0
 40  8  1  0
 35 17  1  0
M  CHG  2   3  -1  17   1
M  END
>  <UniqueID>  (11) 
11

>  <SMILES>  (11) 
C[C@@H]1C[NH+](S(=O)(=O)c2ccc(C(=O)/N=c3/[n-]ccs3)cc2)C[C@H](C)O1

>  <Energy>  (11) 
93.12180052030743

>  <Genealogy>  (11) 
CC1C[NH+](S(=O)(=O)c2ccc(C(=O)N=c3[n-]ccs3)cc2)CC(C)O1 (protonated)
C[C@@H]1C[NH+](S(=O)(=O)c2ccc(C(=O)N=c3[n-]ccs3)cc2)C[C@H](C)O1 (chirality)
C[C@@H]1C[NH+](S(=O)(=O)c2ccc(C(=O)/N=c3/[n-]ccs3)cc2)C[C@H](C)O1 (cis-trans isomerization)
C[C@@H]1C[NH+](S(=O)(=O)c2ccc(C(=O)/N=c3/[n-]ccs3)cc2)C[C@H](C)O1 (3D coordinates assigned)
C[C@@H]1C[NH+](S(=O)(=O)c2ccc(C(=O)/N=c3/[n-]ccs3)cc2)C[C@H](C)O1 (nonaromatic ring conformer: 93.12180052030743 kcal/mol)

>  <smiles>  (11) 
CC1CN(S(=O)(=O)c2ccc(C(=O)N=c3[nH]ccs3)cc2)CC(C)O1

>  <score_type>  (11) 
oracle

>  <origin>  (11) 
adg

>  <m_score__min__energy>  (11) 
-8.9600000000000009

>  <m_primary>  (11) 
energy

$$$$
11:0
     RDKit          3D

 47 50  0  0  0  0  0  0  0  0999 V2000
   57.4820   32.0880   42.9730 O   0  0  0  0  0  0  0  0  0  0  0  0
   57.1740   32.0510   44.1940 C   0  0  0  0  0  0  0  0  0  0  0  0
   56.6680   30.8300   44.7420 N   0  0  0  0  0  0  0  0  0  0  0  0
   57.4480   29.7880   45.3460 C   0  0  0  0  0  0  0  0  0  0  0  0
   58.7240   30.0320   45.8830 C   0  0  0  0  0  0  0  0  0  0  0  0
   59.4590   28.9880   46.4510 C   0  0  0  0  0  0  0  0  0  0  0  0
   58.9380   27.6920   46.4710 C   0  0  0  0  0  0  0  0  0  0  0  0
   57.6810   27.4270   45.9050 C   0  0  0  0  0  0  0  0  0  0  0  0
   57.1450   26.0940   45.9270 N   0  0  0  0  0  0  0  0  0  0  0  0
   55.8360   25.7580   45.9650 C   0  0  0  0  0  0  0  0  0  0  0  0
   54.7910   26.6740   45.9990 O   0  0  0  0  0  0  0  0  0  0  0  0
   55.6900   24.3850   45.9450 C   0  0  0  0  0  0  0  0  0  0  0  0
   56.9550   23.8580   45.8930 C   0  0  0  0  0  0  0  0  0  0  0  0
   57.8310   24.9250   45.8910 C   0  0  0  0  0  0  0  0  0  0  0  0
   59.2200   24.8090   45.8950 O   0  0  0  0  0  0  0  0  0  0  0  0
   57.2530   22.3940   45.8860 C   0  0  0  0  0  0  0  0  0  0  0  0
   55.9850   21.5630   45.8710 C   0  0  0  0  0  0  0  0  0  0  0  0
   54.7380   22.0830   45.9140 C   0  0  0  0  0  0  0  0  0  0  0  0
   54.4390   23.5680   45.9780 C   0  0  0  0  0  0  0  0  0  0  0  0
   56.9420   28.4820   45.3440 C   0  0  0  0  0  0  0  0  0  0  0  0
   57.2240   33.2400   44.9920 N   0  0  0  0  0  0  0  0  0  0  0  0
   58.1750   33.5360   46.0250 C   0  0  0  0  0  0  0  0  0  0  0  0
   59.1650   34.4910   45.7700 C   0  0  0  0  0  0  0  0  0  0  0  0
   60.0910   34.8310   46.7580 C   0  0  0  0  0  0  0  0  0  0  0  0
   60.0310   34.2290   48.0180 C   0  0  0  0  0  0  0  0  0  0  0  0
   60.9570   34.5930   48.9900 O   0  0  0  0  0  0  0  0  0  0  0  0
   59.0370   33.2720   48.2950 C   0  0  0  0  0  0  0  0  0  0  0  0
   58.9210   32.6510   49.6620 C   0  0  0  0  0  0  0  0  0  0  0  0
   59.2840   33.5810   50.6450 O   0  0  0  0  0  0  0  0  0  0  0  0
   58.0980   32.9470   47.3000 C   0  0  0  0  0  0  0  0  0  0  0  0
   59.1452   31.0478   45.8560 H   0  0  0  0  0  0  0  0  0  0  0  0
   60.4506   29.1873   46.8836 H   0  0  0  0  0  0  0  0  0  0  0  0
   59.5146   26.8764   46.9318 H   0  0  0  0  0  0  0  0  0  0  0  0
   59.8070   25.3810   45.3010 H   0  0  0  0  0  0  0  0  0  0  0  0
   57.8461   22.1553   44.9908 H   0  0  0  0  0  0  0  0  0  0  0  0
   57.8095   22.1533   46.8038 H   0  0  0  0  0  0  0  0  0  0  0  0
   56.0861   20.4687   45.8221 H   0  0  0  0  0  0  0  0  0  0  0  0
   53.8875   21.3855   45.9018 H   0  0  0  0  0  0  0  0  0  0  0  0
   53.8109   23.8427   45.1178 H   0  0  0  0  0  0  0  0  0  0  0  0
   53.9201   23.7731   46.9260 H   0  0  0  0  0  0  0  0  0  0  0  0
   55.9565   28.2804   44.8989 H   0  0  0  0  0  0  0  0  0  0  0  0
   59.2142   34.9772   44.7845 H   0  0  0  0  0  0  0  0  0  0  0  0
   60.8714   35.5761   46.5438 H   0  0  0  0  0  0  0  0  0  0  0  0
   57.8819   32.3313   49.8295 H   0  0  0  0  0  0  0  0  0  0  0  0
   59.5937   31.7827   49.7215 H   0  0  0  0  0  0  0  0  0  0  0  0
   60.0220   34.1250   50.2620 H   0  0  0  0  0  0  0  0  0  0  0  0
   57.2968   32.2263   47.5205 H   0  0  0  0  0  0  0  0  0  0  0  0
  1  2  2  0
  2  3  1  0
  3  4  1  0
  4  5  2  0
  5  6  1  0
  6  7  2  0
  7  8  1  0
  8  9  1  0
  9 10  1  0
 10 11  1  0
 10 12  2  0
 12 13  1  0
 13 14  2  0
 14 15  1  0
 13 16  1  0
 16 17  1  0
 17 18  2  0
 18 19  1  0
  8 20  2  0
  2 21  1  0
 21 22  1  0
 22 23  2  0
 23 24  1  0
 24 25  2  0
 25 26  1  0
 25 27  1  0
 27 28  1  0
 28 29  1  0
 27 30  2  0
 20  4  1  0
 30 22  1  0
 14  9  1  0
 19 12  1  0
  5 31  1  0
  6 32  1  0
  7 33  1  0
 15 34  1  0
 16 35  1  0
 16 36  1  0
 17 37  1  0
 18 38  1  0
 19 39  1  0
 19 40  1  0
 20 41  1  0
 23 42  1  0
 24 43  1  0
 28 44  1  0
 28 45  1  0
 29 46  1  0
 30 47  1  0
M  CHG  4   3  -1  11  -1  21  -1  26  -1
M  END
>  <UniqueID>  (12) 
12

>  <SMILES>  (12) 
O=C([N-]c1cccc(-n2c([O-])c3c(c2O)CC=CC3)c1)[N-]c1ccc([O-])c(CO)c1

>  <Energy>  (12) 
95.90584246392648

>  <Genealogy>  (12) 
O=C([N-]c1cccc(-n2c([O-])c3c(c2O)CC=CC3)c1)[N-]c1ccc([O-])c(CO)c1 (protonated)
O=C([N-]c1cccc(-n2c([O-])c3c(c2O)CC=CC3)c1)[N-]c1ccc([O-])c(CO)c1 (3D coordinates assigned)
O=C([N-]c1cccc(-n2c([O-])c3c(c2O)CC=CC3)c1)[N-]c1ccc([O-])c(CO)c1 (nonaromatic ring conformer: 95.90584246392648 kcal/mol)

>  <smiles>  (12) 
O=C(Nc1cccc(-n2c(O)c3c(c2O)CC=CC3)c1)Nc1ccc(O)c(CO)c1

>  <score_type>  (12) 
oracle

>  <origin>  (12) 
adg

>  <m_score__min__energy>  (12) 
-14.77

>  <m_primary>  (12) 
energy

$$$$
12:0
     RDKit          3D

 56 60  0  0  0  0  0  0  0  0999 V2000
   57.0500   32.4240   51.1840 O   0  0  0  0  0  0  0  0  0  0  0  0
   56.9540   31.1730   51.3200 C   0  0  0  0  0  0  0  0  0  0  0  0
   57.7550   30.3050   50.5010 N   0  0  0  0  0  0  0  0  0  0  0  0
   58.9750   30.7120   49.8570 C   0  0  0  0  0  0  0  0  0  0  0  0
   60.1920   30.7590   50.5610 C   0  0  0  0  0  0  0  0  0  0  0  0
   61.3700   31.1290   49.9070 C   0  0  0  0  0  0  0  0  0  0  0  0
   61.3480   31.4510   48.5490 C   0  0  0  0  0  0  0  0  0  0  0  0
   60.1430   31.4060   47.8280 C   0  0  0  0  0  0  0  0  0  0  0  0
   60.1240   31.7370   46.3560 C   0  0  0  0  0  0  0  0  0  0  0  0
   58.9290   31.1220   45.6720 C   0  0  0  0  0  0  0  0  0  0  0  0
   57.7920   31.8650   45.5850 N   0  0  0  0  0  0  0  0  0  0  0  0
   56.6820   31.4000   45.0120 N   0  0  0  0  0  0  0  0  0  0  0  0
   56.6230   30.1510   44.4870 C   0  0  0  0  0  0  0  0  0  0  0  0
   55.5580   29.7580   43.9410 O   0  0  0  0  0  0  0  0  0  0  0  0
   57.7490   29.3180   44.5590 C   0  0  0  0  0  0  0  0  0  0  0  0
   58.9220   29.8060   45.1560 C   0  0  0  0  0  0  0  0  0  0  0  0
   60.1270   28.8930   45.1680 C   0  0  0  0  0  0  0  0  0  0  0  0
   59.7160   27.4800   45.6070 C   0  0  0  0  0  0  0  0  0  0  0  0
   58.4810   26.9220   44.8570 C   0  0  0  0  0  0  0  0  0  0  0  0
   57.7680   27.9380   43.9450 C   0  0  0  0  0  0  0  0  0  0  0  0
   58.9650   31.0130   48.4870 C   0  0  0  0  0  0  0  0  0  0  0  0
   55.9770   30.6180   52.2870 C   0  0  0  0  0  0  0  0  0  0  0  0
   56.3830   29.6570   53.2300 C   0  0  0  0  0  0  0  0  0  0  0  0
   55.4690   29.1360   54.1490 C   0  0  0  0  0  0  0  0  0  0  0  0
   54.1390   29.5580   54.1330 C   0  0  0  0  0  0  0  0  0  0  0  0
   53.7070   30.4960   53.1840 C   0  0  0  0  0  0  0  0  0  0  0  0
   52.2810   30.9730   53.1840 C   0  0  0  0  0  0  0  0  0  0  0  0
   51.8080   31.1660   51.7790 C   0  0  0  0  0  0  0  0  0  0  0  0
   51.9910   30.3150   50.8020 O   0  0  0  0  0  0  0  0  0  0  0  0
   51.4030   30.8320   49.7450 C   0  0  0  0  0  0  0  0  0  0  0  0
   51.3900   30.2680   48.6200 O   0  0  0  0  0  0  0  0  0  0  0  0
   50.8100   32.0230   49.9760 N   0  0  0  0  0  0  0  0  0  0  0  0
   51.0760   32.2200   51.2800 C   0  0  0  0  0  0  0  0  0  0  0  0
   50.6570   33.3330   51.9960 O   0  0  0  0  0  0  0  0  0  0  0  0
   54.6310   31.0280   52.2680 C   0  0  0  0  0  0  0  0  0  0  0  0
   57.3700   29.3620   50.2650 H   0  0  0  0  0  0  0  0  0  0  0  0
   60.2163   30.5034   51.6306 H   0  0  0  0  0  0  0  0  0  0  0  0
   62.3177   31.1666   50.4641 H   0  0  0  0  0  0  0  0  0  0  0  0
   62.2792   31.7416   48.0406 H   0  0  0  0  0  0  0  0  0  0  0  0
   60.0834   32.8295   46.2348 H   0  0  0  0  0  0  0  0  0  0  0  0
   61.0359   31.3283   45.8962 H   0  0  0  0  0  0  0  0  0  0  0  0
   60.5594   28.8484   44.1575 H   0  0  0  0  0  0  0  0  0  0  0  0
   60.8699   29.2877   45.8767 H   0  0  0  0  0  0  0  0  0  0  0  0
   60.5640   26.8022   45.4295 H   0  0  0  0  0  0  0  0  0  0  0  0
   59.4407   27.5443   46.6701 H   0  0  0  0  0  0  0  0  0  0  0  0
   58.8108   26.0764   44.2356 H   0  0  0  0  0  0  0  0  0  0  0  0
   57.7528   26.6337   45.6294 H   0  0  0  0  0  0  0  0  0  0  0  0
   58.2951   27.9835   42.9806 H   0  0  0  0  0  0  0  0  0  0  0  0
   56.7277   27.6075   43.8086 H   0  0  0  0  0  0  0  0  0  0  0  0
   58.0242   30.9407   47.9215 H   0  0  0  0  0  0  0  0  0  0  0  0
   57.4278   29.3131   53.2441 H   0  0  0  0  0  0  0  0  0  0  0  0
   55.7988   28.3906   54.8877 H   0  0  0  0  0  0  0  0  0  0  0  0
   53.4268   29.1535   54.8673 H   0  0  0  0  0  0  0  0  0  0  0  0
   51.6466   30.2255   53.6828 H   0  0  0  0  0  0  0  0  0  0  0  0
   52.2200   31.9311   53.7210 H   0  0  0  0  0  0  0  0  0  0  0  0
   54.2987   31.7721   51.5291 H   0  0  0  0  0  0  0  0  0  0  0  0
  1  2  2  0
  2  3  1  0
  3  4  1  0
  4  5  2  0
  5  6  1  0
  6  7  2  0
  7  8  1  0
  8  9  1  0
  9 10  1  0
 10 11  2  0
 11 12  1  0
 12 13  1  0
 13 14  2  0
 13 15  1  0
 15 16  2  0
 16 17  1  0
 17 18  1  0
 18 19  1  0
 19 20  1  0
  8 21  2  0
  2 22  1  0
 22 23  2  0
 23 24  1  0
 24 25  2  0
 25 26  1  0
 26 27  1  0
 27 28  1  0
 28 29  1  0
 29 30  1  0
 30 31  2  0
 30 32  1  0
 32 33  1  0
 33 34  1  0
 26 35  2  0
 21  4  1  0
 35 22  1  0
 16 10  1  0
 33 28  2  0
 20 15  1  0
  3 36  1  0
  5 37  1  0
  6 38  1  0
  7 39  1  0
  9 40  1  0
  9 41  1  0
 17 42  1  0
 17 43  1  0
 18 44  1  0
 18 45  1  0
 19 46  1  0
 19 47  1  0
 20 48  1  0
 20 49  1  0
 21 50  1  0
 23 51  1  0
 24 52  1  0
 25 53  1  0
 27 54  1  0
 27 55  1  0
 35 56  1  0
M  CHG  3  12  -1  32  -1  34  -1
M  END
>  <UniqueID>  (13) 
13

>  <SMILES>  (13) 
O=C(Nc1cccc(Cc2n[n-]c(=O)c3c2CCCC3)c1)c1cccc(Cc2oc(=O)[n-]c2[O-])c1

>  <Energy>  (13) 
104.38065324611122

>  <Genealogy>  (13) 
O=C(Nc1cccc(Cc2n[n-]c(=O)c3c2CCCC3)c1)c1cccc(Cc2oc(=O)[n-]c2[O-])c1 (protonated)
O=C(Nc1cccc(Cc2n[n-]c(=O)c3c2CCCC3)c1)c1cccc(Cc2oc(=O)[n-]c2[O-])c1 (3D coordinates assigned)
O=C(Nc1cccc(Cc2n[n-]c(=O)c3c2CCCC3)c1)c1cccc(Cc2oc(=O)[n-]c2[O-])c1 (nonaromatic ring conformer: 104.38065324611122 kcal/mol)

>  <smiles>  (13) 
O=C(Nc1cccc(Cc2n[nH]c(=O)c3c2CCCC3)c1)c1cccc(Cc2oc(=O)[nH]c2O)c1

>  <score_type>  (13) 
oracle

>  <origin>  (13) 
adg

>  <m_score__min__energy>  (13) 
-20.969999999999999

>  <m_primary>  (13) 
energy

$$$$
13:0
     RDKit          3D

 45 47  0  0  0  0  0  0  0  0999 V2000
   62.0510   30.6430   51.8650 C   0  0  0  0  0  0  0  0  0  0  0  0
   62.2990   30.5570   50.4650 O   0  0  0  0  0  0  0  0  0  0  0  0
   62.9090   31.5650   49.7000 C   0  0  0  0  0  0  0  0  0  0  0  0
   64.2520   31.9370   49.9060 C   0  0  0  0  0  0  0  0  0  0  0  0
   64.8440   32.9190   49.1110 C   0  0  0  0  0  0  0  0  0  0  0  0
   64.1100   33.5420   48.1030 C   0  0  0  0  0  0  0  0  0  0  0  0
   62.7660   33.2040   47.8920 C   0  0  0  0  0  0  0  0  0  0  0  0
   62.1580   32.2150   48.6970 C   0  0  0  0  0  0  0  0  0  0  0  0
   60.7280   31.8110   48.4190 C   0  0  0  0  0  0  0  0  0  0  0  0
   59.9330   32.9510   47.9400 N   0  0  0  0  0  0  0  0  0  0  0  0
   58.4800   32.9570   48.1480 C   0  0  0  0  0  0  0  0  0  0  0  0
   57.7790   32.8010   46.8340 C   0  0  0  0  0  0  0  0  0  0  0  0
   56.9910   33.7020   46.4370 O   0  0  0  0  0  0  0  0  0  0  0  0
   58.0260   31.6430   46.0260 N   0  0  0  0  0  0  0  0  0  0  0  0
   57.6990   31.5760   44.6290 C   0  0  0  0  0  0  0  0  0  0  0  0
   58.1870   32.5710   43.7700 C   0  0  0  0  0  0  0  0  0  0  0  0
   57.8790   32.5420   42.4080 C   0  0  0  0  0  0  0  0  0  0  0  0
   57.0680   31.5300   41.8960 C   0  0  0  0  0  0  0  0  0  0  0  0
   56.5500   30.5500   42.7460 C   0  0  0  0  0  0  0  0  0  0  0  0
   56.8460   30.5700   44.1240 C   0  0  0  0  0  0  0  0  0  0  0  0
   56.2970   29.6320   45.0150 O   0  0  0  0  0  0  0  0  0  0  0  0
   56.9170   28.4070   45.3950 C   0  0  0  0  0  0  0  0  0  0  0  0
   57.6830   28.6200   46.5260 F   0  0  0  0  0  0  0  0  0  0  0  0
   55.9520   27.4580   45.6780 F   0  0  0  0  0  0  0  0  0  0  0  0
   60.5440   33.9230   47.0700 C   0  0  0  0  0  0  0  0  0  0  0  0
   59.8490   34.8290   46.5330 O   0  0  0  0  0  0  0  0  0  0  0  0
   62.0080   33.8430   46.7590 C   0  0  0  0  0  0  0  0  0  0  0  0
   62.9502   30.3312   52.4165 H   0  0  0  0  0  0  0  0  0  0  0  0
   61.7999   31.6807   52.1298 H   0  0  0  0  0  0  0  0  0  0  0  0
   61.2114   29.9835   52.1298 H   0  0  0  0  0  0  0  0  0  0  0  0
   64.8381   31.4499   50.6992 H   0  0  0  0  0  0  0  0  0  0  0  0
   65.8933   33.2024   49.2803 H   0  0  0  0  0  0  0  0  0  0  0  0
   64.5882   34.3034   47.4693 H   0  0  0  0  0  0  0  0  0  0  0  0
   60.7213   31.0224   47.6521 H   0  0  0  0  0  0  0  0  0  0  0  0
   60.2822   31.4470   49.3564 H   0  0  0  0  0  0  0  0  0  0  0  0
   58.2025   32.1243   48.8111 H   0  0  0  0  0  0  0  0  0  0  0  0
   58.1827   33.9113   48.6073 H   0  0  0  0  0  0  0  0  0  0  0  0
   58.3750   30.7760   46.4950 H   0  0  0  0  0  0  0  0  0  0  0  0
   58.8162   33.3792   44.1712 H   0  0  0  0  0  0  0  0  0  0  0  0
   58.2768   33.3187   41.7383 H   0  0  0  0  0  0  0  0  0  0  0  0
   56.8357   31.5033   40.8211 H   0  0  0  0  0  0  0  0  0  0  0  0
   55.9065   29.7571   42.3371 H   0  0  0  0  0  0  0  0  0  0  0  0
   57.5495   28.0491   44.5692 H   0  0  0  0  0  0  0  0  0  0  0  0
   62.1500   33.2433   45.8478 H   0  0  0  0  0  0  0  0  0  0  0  0
   62.3914   34.8635   46.6123 H   0  0  0  0  0  0  0  0  0  0  0  0
  1  2  1  0
  2  3  1  0
  3  4  2  0
  4  5  1  0
  5  6  2  0
  6  7  1  0
  7  8  2  0
  8  9  1  0
  9 10  1  0
 10 11  1  0
 11 12  1  0
 12 13  2  0
 12 14  1  0
 14 15  1  0
 15 16  2  0
 16 17  1  0
 17 18  2  0
 18 19  1  0
 19 20  2  0
 20 21  1  0
 21 22  1  0
 22 23  1  0
 22 24  1  0
 10 25  1  0
 25 26  2  0
 25 27  1  0
  8  3  1  0
 20 15  1  0
 27  7  1  0
  1 28  1  0
  1 29  1  0
  1 30  1  0
  4 31  1  0
  5 32  1  0
  6 33  1  0
  9 34  1  0
  9 35  1  0
 11 36  1  0
 11 37  1  0
 14 38  1  0
 16 39  1  0
 17 40  1  0
 18 41  1  0
 19 42  1  0
 22 43  1  0
 27 44  1  0
 27 45  1  0
M  END
>  <UniqueID>  (14) 
14

>  <SMILES>  (14) 
COc1cccc2c1CN(CC(=O)Nc1ccccc1OC(F)F)C(=O)C2

>  <Energy>  (14) 
50.14926788323626

>  <Genealogy>  (14) 
COc1cccc2c1CN(CC(=O)Nc1ccccc1OC(F)F)C(=O)C2 (3D coordinates assigned)
COc1cccc2c1CN(CC(=O)Nc1ccccc1OC(F)F)C(=O)C2 (nonaromatic ring conformer: 50.14926788323626 kcal/mol)

>  <smiles>  (14) 
COc1cccc2c1CN(CC(=O)Nc1ccccc1OC(F)F)C(=O)C2

>  <score_type>  (14) 
oracle

>  <origin>  (14) 
adg

>  <m_score__min__energy>  (14) 
-7.5700000000000003

>  <m_primary>  (14) 
energy

$$$$
14:0
     RDKit          3D

 47 49  0  0  1  0  0  0  0  0999 V2000
   60.3950   28.2430   48.1390 C   0  0  0  0  0  0  0  0  0  0  0  0
   59.3290   27.9620   47.1300 C   0  0  0  0  0  0  0  0  0  0  0  0
   58.4890   26.8930   47.3050 C   0  0  0  0  0  0  0  0  0  0  0  0
   57.5230   26.6790   46.3360 C   0  0  0  0  0  0  0  0  0  0  0  0
   56.6260   25.4990   46.5600 C   0  0  0  0  0  0  0  0  0  0  0  0
   57.3970   27.5040   45.2360 C   0  0  0  0  0  0  0  0  0  0  0  0
   58.2380   28.5860   45.0500 C   0  0  0  0  0  0  0  0  0  0  0  0
   58.1160   29.4350   43.9160 N   0  0  0  0  0  0  0  0  0  0  0  0
   56.9720   30.7430   43.9280 S   0  0  0  0  0  0  0  0  0  0  0  0
   56.6890   31.2080   42.5270 O   0  0  0  0  0  0  0  0  0  0  0  0
   55.7550   30.3180   44.6510 O   0  0  0  0  0  0  0  0  0  0  0  0
   57.7320   32.0800   44.7730 C   0  0  0  0  0  0  0  0  0  0  0  0
   57.4320   33.4040   44.4870 C   0  0  0  0  0  0  0  0  0  0  0  0
   58.0290   34.4640   45.1430 C   0  0  0  0  0  0  0  0  0  0  0  0
   58.9750   34.2150   46.1360 C   0  0  0  0  0  0  0  0  0  0  0  0
   59.2950   32.9060   46.4400 C   0  0  0  0  0  0  0  0  0  0  0  0
   60.2840   32.5550   47.4620 C   0  0  0  0  0  0  0  0  0  0  0  0
   59.9940   31.9310   48.5150 O   0  0  0  0  0  0  0  0  0  0  0  0
   61.6320   32.9830   47.1720 N   0  0  0  0  0  0  0  0  0  0  0  0
   62.5960   32.7040   47.9800 C   0  0  0  0  0  0  0  0  0  0  0  0
   63.7650   33.3910   48.2180 C   0  0  0  0  0  0  0  0  0  0  0  0
   64.4320   32.6450   49.1770 C   0  0  0  0  0  0  0  0  0  0  0  0
   65.7490   32.9730   49.7720 C   0  0  0  0  0  0  0  0  0  0  0  0
   63.6990   31.5730   49.4930 N   0  0  0  0  0  0  0  0  0  0  0  0
   62.5840   31.6110   48.7650 N   0  0  0  0  0  0  0  0  0  0  0  0
   58.6770   31.8720   45.7640 C   0  0  0  0  0  0  0  0  0  0  0  0
   59.2020   28.7900   46.0230 C   0  0  0  0  0  0  0  0  0  0  0  0
   59.9795   28.1335   49.1516 H   0  0  0  0  0  0  0  0  0  0  0  0
   61.2240   27.5327   48.0040 H   0  0  0  0  0  0  0  0  0  0  0  0
   60.7662   29.2697   48.0040 H   0  0  0  0  0  0  0  0  0  0  0  0
   58.5786   26.2319   48.1796 H   0  0  0  0  0  0  0  0  0  0  0  0
   56.5004   25.3338   47.6402 H   0  0  0  0  0  0  0  0  0  0  0  0
   55.6447   25.6922   46.1021 H   0  0  0  0  0  0  0  0  0  0  0  0
   57.0747   24.6052   46.1021 H   0  0  0  0  0  0  0  0  0  0  0  0
   56.6126   27.2966   44.4933 H   0  0  0  0  0  0  0  0  0  0  0  0
   58.7340   29.2450   43.0810 H   0  0  0  0  0  0  0  0  0  0  0  0
   56.6881   33.6191   43.7057 H   0  0  0  0  0  0  0  0  0  0  0  0
   57.7591   35.4982   44.8829 H   0  0  0  0  0  0  0  0  0  0  0  0
   59.4587   35.0470   46.6687 H   0  0  0  0  0  0  0  0  0  0  0  0
   64.0976   34.3287   47.7488 H   0  0  0  0  0  0  0  0  0  0  0  0
   65.6708   32.9535   50.8690 H   0  0  0  0  0  0  0  0  0  0  0  0
   66.4939   32.2329   49.4443 H   0  0  0  0  0  0  0  0  0  0  0  0
   66.0598   33.9760   49.4443 H   0  0  0  0  0  0  0  0  0  0  0  0
   63.9740   30.8360   50.2010 H   0  0  0  0  0  0  0  0  0  0  0  0
   61.8460   30.8630   48.8440 H   0  0  0  0  0  0  0  0  0  0  0  0
   58.9473   30.8379   46.0242 H   0  0  0  0  0  0  0  0  0  0  0  0
   59.8925   29.6394   45.9147 H   0  0  0  0  0  0  0  0  0  0  0  0
  1  2  1  0
  2  3  2  0
  3  4  1  0
  4  5  1  0
  4  6  2  0
  6  7  1  0
  7  8  1  0
  8  9  1  0
  9 10  2  0
  9 11  2  0
  9 12  1  0
 12 13  2  0
 13 14  1  0
 14 15  2  0
 15 16  1  0
 16 17  1  0
 17 18  2  0
 17 19  1  0
 19 20  2  0
 20 21  1  0
 21 22  2  0
 22 23  1  0
 22 24  1  0
 24 25  1  0
 16 26  2  0
  7 27  2  0
 27  2  1  0
 26 12  1  0
 25 20  1  0
  1 28  1  0
  1 29  1  0
  1 30  1  0
  3 31  1  0
  5 32  1  0
  5 33  1  0
  5 34  1  0
  6 35  1  0
  8 36  1  0
 13 37  1  0
 14 38  1  0
 15 39  1  0
 21 40  1  0
 23 41  1  0
 23 42  1  0
 23 43  1  0
 24 44  1  0
 25 45  1  0
 26 46  1  0
 27 47  1  0
M  END
>  <smiles>  (15) 
Cc1cc(C)cc(NS(=O)(=O)c2cccc(C(=O)N=c3cc(C)[nH][nH]3)c2)c1

>  <score_type>  (15) 
oracle

>  <origin>  (15) 
adg

>  <m_score__min__energy>  (15) 
-9.5999999999999996

>  <m_primary>  (15) 
energy

$$$$
15:0
     RDKit          3D

 49 51  0  0  0  0  0  0  0  0999 V2000
   64.4890   32.8350   49.3200 C   0  0  0  0  0  0  0  0  0  0  0  0
   64.1590   33.1000   47.8510 C   0  0  0  0  0  0  0  0  0  0  0  0
   62.8820   33.8340   47.7060 N   0  0  0  0  0  0  0  0  0  0  0  0
   61.9240   33.0890   46.8470 C   0  0  0  0  0  0  0  0  0  0  0  0
   60.9120   32.2770   47.6720 C   0  0  0  0  0  0  0  0  0  0  0  0
   60.1290   33.1360   48.5910 N   0  0  0  0  0  0  0  0  0  0  0  0
   58.7040   33.3000   48.2210 C   0  0  0  0  0  0  0  0  0  0  0  0
   58.4460   33.2370   46.7290 C   0  0  0  0  0  0  0  0  0  0  0  0
   58.9930   34.2100   45.8750 C   0  0  0  0  0  0  0  0  0  0  0  0
   58.7540   34.1590   44.5010 C   0  0  0  0  0  0  0  0  0  0  0  0
   57.9700   33.1360   43.9630 C   0  0  0  0  0  0  0  0  0  0  0  0
   57.4210   32.1550   44.7950 C   0  0  0  0  0  0  0  0  0  0  0  0
   56.6070   31.1290   44.2070 N   0  0  0  0  0  0  0  0  0  0  0  0
   56.3710   29.8220   44.7480 C   0  0  0  0  0  0  0  0  0  0  0  0
   55.1900   29.4030   44.8950 O   0  0  0  0  0  0  0  0  0  0  0  0
   57.5110   28.9810   45.1830 C   0  0  0  0  0  0  0  0  0  0  0  0
   57.9720   27.9280   44.3730 C   0  0  0  0  0  0  0  0  0  0  0  0
   59.0470   27.1350   44.7830 C   0  0  0  0  0  0  0  0  0  0  0  0
   59.6800   27.3800   46.0050 C   0  0  0  0  0  0  0  0  0  0  0  0
   61.0560   26.3370   46.4960 S   0  0  0  0  0  0  0  0  0  0  0  0
   59.2290   28.4290   46.8250 C   0  0  0  0  0  0  0  0  0  0  0  0
   59.9960   28.7780   48.3700 Cl  0  0  0  0  0  0  0  0  0  0  0  0
   58.1510   29.2220   46.4120 C   0  0  0  0  0  0  0  0  0  0  0  0
   57.6330   32.2290   46.1840 C   0  0  0  0  0  0  0  0  0  0  0  0
   60.7960   34.4030   48.9610 C   0  0  0  0  0  0  0  0  0  0  0  0
   62.3160   34.2130   49.0280 C   0  0  0  0  0  0  0  0  0  0  0  0
   63.7911   33.3954   49.9594 H   0  0  0  0  0  0  0  0  0  0  0  0
   64.3943   31.7592   49.5288 H   0  0  0  0  0  0  0  0  0  0  0  0
   65.5190   33.1598   49.5288 H   0  0  0  0  0  0  0  0  0  0  0  0
   64.9676   33.6979   47.4052 H   0  0  0  0  0  0  0  0  0  0  0  0
   64.0604   32.1313   47.3391 H   0  0  0  0  0  0  0  0  0  0  0  0
   61.3749   33.8089   46.2223 H   0  0  0  0  0  0  0  0  0  0  0  0
   62.5013   32.3829   46.2321 H   0  0  0  0  0  0  0  0  0  0  0  0
   60.2198   31.7688   46.9846 H   0  0  0  0  0  0  0  0  0  0  0  0
   61.4730   31.5518   48.2798 H   0  0  0  0  0  0  0  0  0  0  0  0
   58.1258   32.5001   48.7066 H   0  0  0  0  0  0  0  0  0  0  0  0
   58.4006   34.3030   48.5555 H   0  0  0  0  0  0  0  0  0  0  0  0
   59.6134   35.0168   46.2922 H   0  0  0  0  0  0  0  0  0  0  0  0
   59.1840   34.9262   43.8403 H   0  0  0  0  0  0  0  0  0  0  0  0
   57.7834   33.1017   42.8795 H   0  0  0  0  0  0  0  0  0  0  0  0
   57.4824   27.7269   43.4087 H   0  0  0  0  0  0  0  0  0  0  0  0
   59.3970   26.3135   44.1407 H   0  0  0  0  0  0  0  0  0  0  0  0
   61.8910   26.8770   45.4990 H   0  0  0  0  0  0  0  0  0  0  0  0
   57.8010   30.0423   47.0559 H   0  0  0  0  0  0  0  0  0  0  0  0
   57.1585   31.4919   46.8484 H   0  0  0  0  0  0  0  0  0  0  0  0
   60.5603   35.1691   48.2076 H   0  0  0  0  0  0  0  0  0  0  0  0
   60.4340   34.7185   49.9507 H   0  0  0  0  0  0  0  0  0  0  0  0
   62.7788   35.1551   49.3570 H   0  0  0  0  0  0  0  0  0  0  0  0
   62.5289   33.4001   49.7378 H   0  0  0  0  0  0  0  0  0  0  0  0
  1  2  1  0
  2  3  1  0
  3  4  1  0
  4  5  1  0
  5  6  1  0
  6  7  1  0
  7  8  1  0
  8  9  2  0
  9 10  1  0
 10 11  2  0
 11 12  1  0
 12 13  1  0
 13 14  1  0
 14 15  2  0
 14 16  1  0
 16 17  2  0
 17 18  1  0
 18 19  2  0
 19 20  1  0
 19 21  1  0
 21 22  1  0
 21 23  2  0
 12 24  2  0
  6 25  1  0
 25 26  1  0
 26  3  1  0
 24  8  1  0
 23 16  1  0
  1 27  1  0
  1 28  1  0
  1 29  1  0
  2 30  1  0
  2 31  1  0
  4 32  1  0
  4 33  1  0
  5 34  1  0
  5 35  1  0
  7 36  1  0
  7 37  1  0
  9 38  1  0
 10 39  1  0
 11 40  1  0
 17 41  1  0
 18 42  1  0
 20 43  1  0
 23 44  1  0
 24 45  1  0
 25 46  1  0
 25 47  1  0
 26 48  1  0
 26 49  1  0
M  CHG  1  13  -1
M  END
>  <UniqueID>  (16) 
15

>  <SMILES>  (16) 
CCN1CCN(Cc2cccc([N-]C(=O)c3ccc(S)c(Cl)c3)c2)CC1

>  <Energy>  (16) 
67.79362146154907

>  <Genealogy>  (16) 
CCN1CCN(Cc2cccc([N-]C(=O)c3ccc(S)c(Cl)c3)c2)CC1 (protonated)
CCN1CCN(Cc2cccc([N-]C(=O)c3ccc(S)c(Cl)c3)c2)CC1 (3D coordinates assigned)
CCN1CCN(Cc2cccc([N-]C(=O)c3ccc(S)c(Cl)c3)c2)CC1 (nonaromatic ring conformer: 67.79362146154907 kcal/mol)

>  <smiles>  (16) 
CCN1CCN(Cc2cccc(NC(=O)c3ccc(S)c(Cl)c3)c2)CC1

>  <score_type>  (16) 
oracle

>  <origin>  (16) 
adg

>  <m_score__min__energy>  (16) 
-10.779999999999999

>  <m_primary>  (16) 
energy

$$$$
16:0
     RDKit          3D

 65 68  0  0  0  0  0  0  0  0999 V2000
   56.6640   29.3544   42.4090 H   0  0  0  0  0  0  0  0  0  0  0  0
   56.9370   30.2760   42.9440 C   0  0  0  0  0  0  0  0  0  0  0  0
   56.8110   30.3400   44.3350 C   0  0  0  0  0  0  0  0  0  0  0  0
   56.4430   29.4669   44.8938 H   0  0  0  0  0  0  0  0  0  0  0  0
   57.1520   31.5120   45.0170 C   0  0  0  0  0  0  0  0  0  0  0  0
   57.0543   31.5558   46.1118 H   0  0  0  0  0  0  0  0  0  0  0  0
   57.6200   32.6370   44.3100 C   0  0  0  0  0  0  0  0  0  0  0  0
   58.0170   33.8760   45.0190 C   0  0  0  0  0  0  0  0  0  0  0  0
   57.4120   34.9530   44.7600 O   0  0  0  0  0  0  0  0  0  0  0  0
   59.0960   33.8950   46.0300 C   0  0  0  0  0  0  0  0  0  0  0  0
   60.1170   32.9290   46.0140 C   0  0  0  0  0  0  0  0  0  0  0  0
   60.1391   32.1709   45.2173 H   0  0  0  0  0  0  0  0  0  0  0  0
   61.1040   32.9250   47.0030 C   0  0  0  0  0  0  0  0  0  0  0  0
   61.9046   32.1713   46.9718 H   0  0  0  0  0  0  0  0  0  0  0  0
   61.0820   33.8770   48.0380 C   0  0  0  0  0  0  0  0  0  0  0  0
   62.1300   33.8530   49.0960 C   0  0  0  0  0  0  0  0  0  0  0  0
   62.6250   34.9480   49.4810 O   0  0  0  0  0  0  0  0  0  0  0  0
   62.6100   32.6010   49.7460 C   0  0  0  0  0  0  0  0  0  0  0  0
   61.8220   31.8380   50.4470 N   0  0  0  0  0  0  0  0  0  0  0  0
   61.3300   32.2240   51.6740 O   0  0  0  0  0  0  0  0  0  0  0  0
   60.2500   33.1320   51.7860 C   0  0  0  0  0  0  0  0  0  0  0  0
   60.4685   33.8747   52.5674 H   0  0  0  0  0  0  0  0  0  0  0  0
   60.0970   33.6572   50.8317 H   0  0  0  0  0  0  0  0  0  0  0  0
   59.0120   32.3550   52.1540 C   0  0  0  0  0  0  0  0  0  0  0  0
   58.6580   32.2870   53.5130 C   0  0  0  0  0  0  0  0  0  0  0  0
   59.2744   32.8054   54.2622 H   0  0  0  0  0  0  0  0  0  0  0  0
   57.5330   31.5690   53.9220 C   0  0  0  0  0  0  0  0  0  0  0  0
   57.2691   31.5218   54.9888 H   0  0  0  0  0  0  0  0  0  0  0  0
   56.7440   30.9120   52.9800 C   0  0  0  0  0  0  0  0  0  0  0  0
   55.8506   30.3572   53.3026 H   0  0  0  0  0  0  0  0  0  0  0  0
   57.0860   30.9570   51.6270 C   0  0  0  0  0  0  0  0  0  0  0  0
   56.4555   30.4394   50.8891 H   0  0  0  0  0  0  0  0  0  0  0  0
   58.2280   31.6570   51.1970 C   0  0  0  0  0  0  0  0  0  0  0  0
   58.5460   31.6430   49.7550 C   0  0  0  0  0  0  0  0  0  0  0  0
   58.3980   32.6980   49.0780 O   0  0  0  0  0  0  0  0  0  0  0  0
   58.9550   30.4310   49.1110 N   0  0  0  0  0  0  0  0  0  0  0  0
   58.9890   30.2920   47.6590 C   0  0  0  0  0  0  0  0  0  0  0  0
   57.9596   30.1983   47.2828 H   0  0  0  0  0  0  0  0  0  0  0  0
   59.4763   31.1819   47.2341 H   0  0  0  0  0  0  0  0  0  0  0  0
   59.7910   29.0500   47.2410 C   0  0  0  0  0  0  0  0  0  0  0  0
   60.7692   29.3807   46.8619 H   0  0  0  0  0  0  0  0  0  0  0  0
   59.8779   28.4109   48.1320 H   0  0  0  0  0  0  0  0  0  0  0  0
   59.1190   28.2190   46.1670 C   0  0  0  0  0  0  0  0  0  0  0  0
   58.0710   27.3250   46.4700 C   0  0  0  0  0  0  0  0  0  0  0  0
   57.7173   27.2281   47.5071 H   0  0  0  0  0  0  0  0  0  0  0  0
   57.4790   26.5610   45.4590 C   0  0  0  0  0  0  0  0  0  0  0  0
   56.6820   25.8450   45.7084 H   0  0  0  0  0  0  0  0  0  0  0  0
   57.8960   26.7040   44.1350 C   0  0  0  0  0  0  0  0  0  0  0  0
   57.4340   26.0954   43.3437 H   0  0  0  0  0  0  0  0  0  0  0  0
   58.9010   27.6210   43.8150 C   0  0  0  0  0  0  0  0  0  0  0  0
   59.2212   27.7429   42.7697 H   0  0  0  0  0  0  0  0  0  0  0  0
   59.5000   28.3840   44.8230 C   0  0  0  0  0  0  0  0  0  0  0  0
   60.2756   29.1193   44.5624 H   0  0  0  0  0  0  0  0  0  0  0  0
   64.0040   32.1280   49.4790 C   0  0  0  0  0  0  0  0  0  0  0  0
   64.5209   31.9526   50.4340 H   0  0  0  0  0  0  0  0  0  0  0  0
   63.9694   31.1913   48.9033 H   0  0  0  0  0  0  0  0  0  0  0  0
   64.5466   32.8923   48.9033 H   0  0  0  0  0  0  0  0  0  0  0  0
   60.0730   34.8550   48.0320 C   0  0  0  0  0  0  0  0  0  0  0  0
   60.0668   35.6328   48.8098 H   0  0  0  0  0  0  0  0  0  0  0  0
   59.0790   34.8530   47.0530 C   0  0  0  0  0  0  0  0  0  0  0  0
   58.2783   35.6066   47.0841 H   0  0  0  0  0  0  0  0  0  0  0  0
   57.7530   32.5540   42.9110 C   0  0  0  0  0  0  0  0  0  0  0  0
   58.1306   33.4192   42.3464 H   0  0  0  0  0  0  0  0  0  0  0  0
   57.4090   31.3810   42.2340 C   0  0  0  0  0  0  0  0  0  0  0  0
   57.5104   31.3284   41.1399 H   0  0  0  0  0  0  0  0  0  0  0  0
  1  2  1  0
  2  3  2  0
  3  4  1  0
  3  5  1  0
  5  6  1  0
  5  7  2  0
  7  8  1  0
  8  9  2  0
  8 10  1  0
 10 11  2  0
 11 12  1  0
 11 13  1  0
 13 14  1  0
 13 15  2  0
 15 16  1  0
 16 17  2  0
 16 18  1  0
 18 19  2  0
 19 20  1  0
 20 21  1  0
 21 22  1  0
 21 23  1  0
 21 24  1  0
 24 25  2  0
 25 26  1  0
 25 27  1  0
 27 28  1  0
 27 29  2  0
 29 30  1  0
 29 31  1  0
 31 32  1  0
 31 33  2  0
 33 34  1  0
 34 35  2  0
 34 36  1  0
 36 37  1  0
 37 38  1  0
 37 39  1  0
 37 40  1  0
 40 41  1  0
 40 42  1  0
 40 43  1  0
 43 44  2  0
 44 45  1  0
 44 46  1  0
 46 47  1  0
 46 48  2  0
 48 49  1  0
 48 50  1  0
 50 51  1  0
 50 52  2  0
 52 53  1  0
 18 54  1  0
 54 55  1  0
 54 56  1  0
 54 57  1  0
 15 58  1  0
 58 59  1  0
 58 60  2  0
 60 61  1  0
  7 62  1  0
 62 63  1  0
 62 64  2  0
 64 65  1  0
 64  2  1  0
 60 10  1  0
 33 24  1  0
 52 43  1  0
M  CHG  1  36  -1
M  END
>  <UniqueID>  (17) 
16

>  <SMILES>  (17) 
C/C(=N/OCc1ccccc1C(=O)[N-]CCc1ccccc1)C(=O)c1ccc(C(=O)c2ccccc2)cc1

>  <Energy>  (17) 
72.87581080623677

>  <Genealogy>  (17) 
CC(=NOCc1ccccc1C(=O)[N-]CCc1ccccc1)C(=O)c1ccc(C(=O)c2ccccc2)cc1 (protonated)
C/C(=N/OCc1ccccc1C(=O)[N-]CCc1ccccc1)C(=O)c1ccc(C(=O)c2ccccc2)cc1 (cis-trans isomerization)
C/C(=N/OCc1ccccc1C(=O)[N-]CCc1ccccc1)C(=O)c1ccc(C(=O)c2ccccc2)cc1 (3D coordinates assigned)
C/C(=N/OCc1ccccc1C(=O)[N-]CCc1ccccc1)C(=O)c1ccc(C(=O)c2ccccc2)cc1 (optimized conformer: 72.87581080623677 kcal/mol)

>  <smiles>  (17) 
CC(=NOCc1ccccc1C(=O)NCCc1ccccc1)C(=O)c1ccc(C(=O)c2ccccc2)cc1

>  <score_type>  (17) 
oracle

>  <origin>  (17) 
adg

>  <m_score__min__energy>  (17) 
-13.359999999999999

>  <m_primary>  (17) 
energy

$$$$
17:0
     RDKit          3D

 50 52  0  0  0  0  0  0  0  0999 V2000
   57.9990   22.5450   44.2150 C   0  0  0  0  0  0  0  0  0  0  0  0
   58.9400   23.0180   45.2810 C   0  0  0  0  0  0  0  0  0  0  0  0
   60.1190   22.5780   45.2920 O   0  0  0  0  0  0  0  0  0  0  0  0
   58.5510   23.9860   46.2660 N   0  0  0  0  0  0  0  0  0  0  0  0
   57.9320   25.2560   46.0210 C   0  0  0  0  0  0  0  0  0  0  0  0
   58.6400   26.3220   45.4430 C   0  0  0  0  0  0  0  0  0  0  0  0
   58.0000   27.5400   45.1920 C   0  0  0  0  0  0  0  0  0  0  0  0
   56.6430   27.7070   45.5150 C   0  0  0  0  0  0  0  0  0  0  0  0
   55.9480   28.9320   45.2450 N   0  0  0  0  0  0  0  0  0  0  0  0
   56.0690   29.7320   44.0610 C   0  0  0  0  0  0  0  0  0  0  0  0
   55.2480   29.5530   43.1240 O   0  0  0  0  0  0  0  0  0  0  0  0
   57.0650   30.8180   43.9570 C   0  0  0  0  0  0  0  0  0  0  0  0
   57.3430   31.2940   42.8230 O   0  0  0  0  0  0  0  0  0  0  0  0
   57.8130   31.3050   45.1340 C   0  0  0  0  0  0  0  0  0  0  0  0
   58.3750   30.4890   46.0950 C   0  0  0  0  0  0  0  0  0  0  0  0
   58.9490   31.3250   47.0320 C   0  0  0  0  0  0  0  0  0  0  0  0
   59.6010   30.8560   48.2960 C   0  0  0  0  0  0  0  0  0  0  0  0
   58.7620   32.6220   46.6850 N   0  0  0  0  0  0  0  0  0  0  0  0
   59.1640   33.7950   47.4750 C   0  0  0  0  0  0  0  0  0  0  0  0
   60.6560   33.8060   47.6850 C   0  0  0  0  0  0  0  0  0  0  0  0
   61.1960   34.0000   48.9680 C   0  0  0  0  0  0  0  0  0  0  0  0
   62.5810   34.0150   49.1540 C   0  0  0  0  0  0  0  0  0  0  0  0
   63.4370   33.8340   48.0640 C   0  0  0  0  0  0  0  0  0  0  0  0
   62.9090   33.6360   46.7860 C   0  0  0  0  0  0  0  0  0  0  0  0
   61.5230   33.6190   46.5950 C   0  0  0  0  0  0  0  0  0  0  0  0
   58.0900   32.6180   45.5080 C   0  0  0  0  0  0  0  0  0  0  0  0
   57.7580   33.8540   44.7160 C   0  0  0  0  0  0  0  0  0  0  0  0
   55.9260   26.6240   46.0400 C   0  0  0  0  0  0  0  0  0  0  0  0
   56.5670   25.4070   46.2900 C   0  0  0  0  0  0  0  0  0  0  0  0
   57.1096   22.0979   44.6831 H   0  0  0  0  0  0  0  0  0  0  0  0
   57.6950   23.3974   43.5897 H   0  0  0  0  0  0  0  0  0  0  0  0
   58.5017   21.7925   43.5897 H   0  0  0  0  0  0  0  0  0  0  0  0
   59.7025   26.1986   45.1865 H   0  0  0  0  0  0  0  0  0  0  0  0
   58.5616   28.3707   44.7398 H   0  0  0  0  0  0  0  0  0  0  0  0
   58.3671   29.3891   46.1112 H   0  0  0  0  0  0  0  0  0  0  0  0
   59.0500   31.2523   49.1617 H   0  0  0  0  0  0  0  0  0  0  0  0
   59.5915   29.7565   48.3274 H   0  0  0  0  0  0  0  0  0  0  0  0
   60.6404   31.2147   48.3274 H   0  0  0  0  0  0  0  0  0  0  0  0
   58.8672   34.7097   46.9409 H   0  0  0  0  0  0  0  0  0  0  0  0
   58.6678   33.7495   48.4557 H   0  0  0  0  0  0  0  0  0  0  0  0
   60.5260   34.1406   49.8290 H   0  0  0  0  0  0  0  0  0  0  0  0
   62.9982   34.1695   50.1600 H   0  0  0  0  0  0  0  0  0  0  0  0
   64.5268   33.8475   48.2126 H   0  0  0  0  0  0  0  0  0  0  0  0
   63.5835   33.4933   45.9289 H   0  0  0  0  0  0  0  0  0  0  0  0
   61.1105   33.4587   45.5879 H   0  0  0  0  0  0  0  0  0  0  0  0
   57.5355   34.6822   45.4049 H   0  0  0  0  0  0  0  0  0  0  0  0
   58.6153   34.1246   44.0821 H   0  0  0  0  0  0  0  0  0  0  0  0
   56.8805   33.6586   44.0821 H   0  0  0  0  0  0  0  0  0  0  0  0
   54.8529   26.7318   46.2567 H   0  0  0  0  0  0  0  0  0  0  0  0
   55.9945   24.5624   46.7009 H   0  0  0  0  0  0  0  0  0  0  0  0
  1  2  1  0
  2  3  2  0
  2  4  1  0
  4  5  1  0
  5  6  2  0
  6  7  1  0
  7  8  2  0
  8  9  1  0
  9 10  1  0
 10 11  2  0
 10 12  1  0
 12 13  2  0
 12 14  1  0
 14 15  1  0
 15 16  2  0
 16 17  1  0
 16 18  1  0
 18 19  1  0
 19 20  1  0
 20 21  2  0
 21 22  1  0
 22 23  2  0
 23 24  1  0
 24 25  2  0
 18 26  1  0
 26 27  1  0
  8 28  1  0
 28 29  2  0
 29  5  1  0
 26 14  2  0
 25 20  1  0
  1 30  1  0
  1 31  1  0
  1 32  1  0
  6 33  1  0
  7 34  1  0
 15 35  1  0
 17 36  1  0
 17 37  1  0
 17 38  1  0
 19 39  1  0
 19 40  1  0
 21 41  1  0
 22 42  1  0
 23 43  1  0
 24 44  1  0
 25 45  1  0
 27 46  1  0
 27 47  1  0
 27 48  1  0
 28 49  1  0
 29 50  1  0
M  CHG  2   4  -1   9  -1
M  END
>  <UniqueID>  (18) 
17

>  <SMILES>  (18) 
CC(=O)[N-]c1ccc([N-]C(=O)C(=O)c2cc(C)n(Cc3ccccc3)c2C)cc1

>  <Energy>  (18) 
88.31194297642318

>  <Genealogy>  (18) 
CC(=O)[N-]c1ccc([N-]C(=O)C(=O)c2cc(C)n(Cc3ccccc3)c2C)cc1 (protonated)
CC(=O)[N-]c1ccc([N-]C(=O)C(=O)c2cc(C)n(Cc3ccccc3)c2C)cc1 (3D coordinates assigned)
CC(=O)[N-]c1ccc([N-]C(=O)C(=O)c2cc(C)n(Cc3ccccc3)c2C)cc1 (optimized conformer: 88.31194297642318 kcal/mol)

>  <smiles>  (18) 
CC(=O)Nc1ccc(NC(=O)C(=O)c2cc(C)n(Cc3ccccc3)c2C)cc1

>  <score_type>  (18) 
oracle

>  <origin>  (18) 
adg

>  <m_score__min__energy>  (18) 
-12.09

>  <m_primary>  (18) 
energy

$$$$
18:0
     RDKit          3D

 44 46  0  0  0  0  0  0  0  0999 V2000
   54.9170   23.7050   46.5810 C   0  0  0  0  0  0  0  0  0  0  0  0
   55.8990   24.5760   46.2660 C   0  0  0  0  0  0  0  0  0  0  0  0
   55.5260   25.9200   45.9850 C   0  0  0  0  0  0  0  0  0  0  0  0
   54.1940   26.3320   45.9890 O   0  0  0  0  0  0  0  0  0  0  0  0
   56.5190   26.8450   45.7080 C   0  0  0  0  0  0  0  0  0  0  0  0
   56.3590   28.1510   45.4420 N   0  0  0  0  0  0  0  0  0  0  0  0
   57.6380   28.5800   45.2960 C   0  0  0  0  0  0  0  0  0  0  0  0
   57.9780   29.9760   44.9820 C   0  0  0  0  0  0  0  0  0  0  0  0
   58.4580   30.2520   43.8500 O   0  0  0  0  0  0  0  0  0  0  0  0
   57.7290   31.0170   45.9410 N   0  0  0  0  0  0  0  0  0  0  0  0
   58.2470   32.3540   45.8310 C   0  0  0  0  0  0  0  0  0  0  0  0
   57.5330   33.3650   45.1630 C   0  0  0  0  0  0  0  0  0  0  0  0
   58.0650   34.6520   45.0560 C   0  0  0  0  0  0  0  0  0  0  0  0
   59.3210   34.9390   45.5960 C   0  0  0  0  0  0  0  0  0  0  0  0
   60.0640   33.9320   46.2300 C   0  0  0  0  0  0  0  0  0  0  0  0
   61.4000   34.2460   46.8340 C   0  0  0  0  0  0  0  0  0  0  0  0
   59.5180   32.6440   46.3500 C   0  0  0  0  0  0  0  0  0  0  0  0
   58.5720   27.6130   45.4650 N   0  0  0  0  0  0  0  0  0  0  0  0
   57.8330   26.5210   45.7200 C   0  0  0  0  0  0  0  0  0  0  0  0
   58.2880   25.2290   45.9940 C   0  0  0  0  0  0  0  0  0  0  0  0
   59.7530   25.0050   46.0640 C   0  0  0  0  0  0  0  0  0  0  0  0
   60.2530   23.9310   45.6290 O   0  0  0  0  0  0  0  0  0  0  0  0
   60.5670   25.9620   46.6790 O   0  0  0  0  0  0  0  0  0  0  0  0
   60.2070   26.6150   47.8920 C   0  0  0  0  0  0  0  0  0  0  0  0
   60.4040   28.1140   47.7380 C   0  0  0  0  0  0  0  0  0  0  0  0
   57.3030   24.2050   46.2180 C   0  0  0  0  0  0  0  0  0  0  0  0
   57.7000   22.9150   46.3060 C   0  0  0  0  0  0  0  0  0  0  0  0
   55.1628   22.6565   46.8051 H   0  0  0  0  0  0  0  0  0  0  0  0
   53.8710   24.0437   46.6136 H   0  0  0  0  0  0  0  0  0  0  0  0
   57.0640   30.8160   46.7220 H   0  0  0  0  0  0  0  0  0  0  0  0
   56.5503   33.1409   44.7224 H   0  0  0  0  0  0  0  0  0  0  0  0
   57.4937   35.4413   44.5454 H   0  0  0  0  0  0  0  0  0  0  0  0
   59.7288   35.9581   45.5238 H   0  0  0  0  0  0  0  0  0  0  0  0
   61.3200   34.2272   47.9309 H   0  0  0  0  0  0  0  0  0  0  0  0
   62.1355   33.4963   46.5071 H   0  0  0  0  0  0  0  0  0  0  0  0
   61.7246   35.2449   46.5071 H   0  0  0  0  0  0  0  0  0  0  0  0
   60.0925   31.8542   46.8561 H   0  0  0  0  0  0  0  0  0  0  0  0
   59.1519   26.4055   48.1221 H   0  0  0  0  0  0  0  0  0  0  0  0
   60.8414   26.2439   48.7105 H   0  0  0  0  0  0  0  0  0  0  0  0
   60.4652   28.5799   48.7326 H   0  0  0  0  0  0  0  0  0  0  0  0
   61.3352   28.3065   47.1850 H   0  0  0  0  0  0  0  0  0  0  0  0
   59.5542   28.5406   47.1850 H   0  0  0  0  0  0  0  0  0  0  0  0
   56.9576   22.1215   46.4771 H   0  0  0  0  0  0  0  0  0  0  0  0
   58.7652   22.6594   46.2065 H   0  0  0  0  0  0  0  0  0  0  0  0
  1  2  2  0
  2  3  1  0
  3  4  1  0
  3  5  2  0
  5  6  1  0
  6  7  2  0
  7  8  1  0
  8  9  2  0
  8 10  1  0
 10 11  1  0
 11 12  2  0
 12 13  1  0
 13 14  2  0
 14 15  1  0
 15 16  1  0
 15 17  2  0
  7 18  1  0
 18 19  1  0
 19 20  2  0
 20 21  1  0
 21 22  2  0
 21 23  1  0
 23 24  1  0
 24 25  1  0
 20 26  1  0
 26 27  2  0
 26  2  1  0
 19  5  1  0
 17 11  1  0
  1 28  1  0
  1 29  1  0
 10 30  1  0
 12 31  1  0
 13 32  1  0
 14 33  1  0
 16 34  1  0
 16 35  1  0
 16 36  1  0
 17 37  1  0
 24 38  1  0
 24 39  1  0
 25 40  1  0
 25 41  1  0
 25 42  1  0
 27 43  1  0
 27 44  1  0
M  CHG  2   4  -1  18  -1
M  END
>  <UniqueID>  (19) 
18

>  <SMILES>  (19) 
C=c1c([O-])c2nc(C(=O)Nc3cccc(C)c3)[n-]c2c(C(=O)OCC)c1=C

>  <Energy>  (19) 
94.58620679959557

>  <Genealogy>  (19) 
C=c1c([O-])c2nc(C(=O)Nc3cccc(C)c3)[n-]c2c(C(=O)OCC)c1=C (protonated)
C=c1c([O-])c2nc(C(=O)Nc3cccc(C)c3)[n-]c2c(C(=O)OCC)c1=C (3D coordinates assigned)
C=c1c([O-])c2nc(C(=O)Nc3cccc(C)c3)[n-]c2c(C(=O)OCC)c1=C (optimized conformer: 94.58620679959557 kcal/mol)

>  <smiles>  (19) 
C=c1c(O)c2nc(C(=O)Nc3cccc(C)c3)[nH]c2c(C(=O)OCC)c1=C

>  <score_type>  (19) 
oracle

>  <origin>  (19) 
adg

>  <m_score__min__energy>  (19) 
-12.85

>  <m_primary>  (19) 
energy

$$$$
19:0
     RDKit          3D

 24 25  0  0  0  0  0  0  0  0999 V2000
   57.5906   34.8914   44.3444 H   0  0  0  0  0  0  0  0  0  0  0  0
   57.9140   33.9780   44.8650 C   0  0  0  0  0  0  0  0  0  0  0  0
   58.1420   34.0770   46.3210 C   0  0  0  0  0  0  0  0  0  0  0  0
   57.3650   33.4610   47.0980 O   0  0  0  0  0  0  0  0  0  0  0  0
   59.3090   34.8140   46.9080 C   0  0  0  0  0  0  0  0  0  0  0  0
   59.2511   34.7774   48.0059 H   0  0  0  0  0  0  0  0  0  0  0  0
   60.2455   34.3431   46.5743 H   0  0  0  0  0  0  0  0  0  0  0  0
   59.2863   35.8619   46.5743 H   0  0  0  0  0  0  0  0  0  0  0  0
   58.0670   32.8700   44.1210 C   0  0  0  0  0  0  0  0  0  0  0  0
   58.3790   33.0025   43.0745 H   0  0  0  0  0  0  0  0  0  0  0  0
   57.8500   31.4890   44.5950 C   0  0  0  0  0  0  0  0  0  0  0  0
   56.5840   30.8700   44.4950 C   0  0  0  0  0  0  0  0  0  0  0  0
   55.7458   31.4097   44.0301 H   0  0  0  0  0  0  0  0  0  0  0  0
   56.3910   29.5700   44.9860 C   0  0  0  0  0  0  0  0  0  0  0  0
   55.1490   28.9550   44.8750 O   0  0  0  0  0  0  0  0  0  0  0  0
   57.4620   28.9090   45.5910 C   0  0  0  0  0  0  0  0  0  0  0  0
   58.6840   29.5180   45.7190 C   0  0  0  0  0  0  0  0  0  0  0  0
   58.9020   30.8100   45.2390 C   0  0  0  0  0  0  0  0  0  0  0  0
   59.8832   31.2918   45.3622 H   0  0  0  0  0  0  0  0  0  0  0  0
   59.6390   28.7500   46.3520 O   0  0  0  0  0  0  0  0  0  0  0  0
   59.1910   27.4620   46.7630 C   0  0  0  0  0  0  0  0  0  0  0  0
   59.7962   26.6858   46.2718 H   0  0  0  0  0  0  0  0  0  0  0  0
   59.2944   27.3604   47.8534 H   0  0  0  0  0  0  0  0  0  0  0  0
   57.4220   27.2670   46.2800 S   0  0  0  0  0  0  0  0  0  0  0  0
  1  2  1  0
  2  3  1  0
  3  4  2  0
  3  5  1  0
  5  6  1  0
  5  7  1  0
  5  8  1  0
  2  9  2  0
  9 10  1  0
  9 11  1  0
 11 12  2  0
 12 13  1  0
 12 14  1  0
 14 15  1  0
 14 16  2  0
 16 17  1  0
 17 18  2  0
 18 19  1  0
 17 20  1  0
 20 21  1  0
 21 22  1  0
 21 23  1  0
 21 24  1  0
 18 11  1  0
 24 16  1  0
M  CHG  1  15  -1
M  END
>  <UniqueID>  (20) 
19

>  <SMILES>  (20) 
CC(=O)/C=C\c1cc([O-])c2c(c1)OCS2

>  <Energy>  (20) 
43.99347849959932

>  <Genealogy>  (20) 
CC(=O)C=Cc1cc([O-])c2c(c1)OCS2 (protonated)
CC(=O)/C=C\c1cc([O-])c2c(c1)OCS2 (cis-trans isomerization)
CC(=O)/C=C\c1cc([O-])c2c(c1)OCS2 (3D coordinates assigned)
CC(=O)/C=C\c1cc([O-])c2c(c1)OCS2 (nonaromatic ring conformer: 43.99347849959932 kcal/mol)

>  <smiles>  (20) 
CC(=O)C=Cc1cc(O)c2c(c1)OCS2

>  <score_type>  (20) 
oracle

>  <origin>  (20) 
adg

>  <m_score__min__energy>  (20) 
-10.02

>  <m_primary>  (20) 
energy

$$$$
20:0
     RDKit          3D

 58 62  0  0  0  0  0  0  0  0999 V2000
   57.2430   28.4220   44.3760 C   0  0  0  0  0  0  0  0  0  0  0  0
   57.8390   27.6520   45.3000 C   0  0  0  0  0  0  0  0  0  0  0  0
   57.8570   26.2550   45.3300 C   0  0  0  0  0  0  0  0  0  0  0  0
   57.2840   25.4080   44.4540 C   0  0  0  0  0  0  0  0  0  0  0  0
   56.0970   24.5880   44.7840 C   0  0  0  0  0  0  0  0  0  0  0  0
   55.0560   25.0680   45.6060 C   0  0  0  0  0  0  0  0  0  0  0  0
   55.0640   26.3620   46.1300 O   0  0  0  0  0  0  0  0  0  0  0  0
   53.9980   24.2630   45.8870 N   0  0  0  0  0  0  0  0  0  0  0  0
   53.9090   23.0100   45.3730 C   0  0  0  0  0  0  0  0  0  0  0  0
   52.9180   22.2870   45.6520 O   0  0  0  0  0  0  0  0  0  0  0  0
   54.8830   22.5390   44.5560 N   0  0  0  0  0  0  0  0  0  0  0  0
   55.9660   23.2970   44.2460 C   0  0  0  0  0  0  0  0  0  0  0  0
   56.8530   22.8250   43.4840 O   0  0  0  0  0  0  0  0  0  0  0  0
   58.6170   25.8960   46.4350 C   0  0  0  0  0  0  0  0  0  0  0  0
   59.0160   27.0720   47.0390 C   0  0  0  0  0  0  0  0  0  0  0  0
   59.8720   27.1500   48.2660 C   0  0  0  0  0  0  0  0  0  0  0  0
   58.5510   28.1380   46.3490 N   0  0  0  0  0  0  0  0  0  0  0  0
   58.7680   29.5180   46.6900 C   0  0  0  0  0  0  0  0  0  0  0  0
   58.7230   29.9300   48.0290 C   0  0  0  0  0  0  0  0  0  0  0  0
   58.9280   31.2720   48.3610 C   0  0  0  0  0  0  0  0  0  0  0  0
   59.1730   32.2200   47.3560 C   0  0  0  0  0  0  0  0  0  0  0  0
   59.4270   33.6580   47.7230 C   0  0  0  0  0  0  0  0  0  0  0  0
   60.8630   33.8810   47.9860 N   0  0  0  0  0  0  0  0  0  0  0  0
   61.3420   33.0920   49.1530 C   0  0  0  0  0  0  0  0  0  0  0  0
   62.8960   33.0800   49.2720 C   0  0  1  0  0  0  0  0  0  0  0  0
   63.4840   31.8160   48.6250 C   0  0  0  0  0  0  0  0  0  0  0  0
   63.6860   32.1800   47.1520 C   0  0  0  0  0  0  0  0  0  0  0  0
   63.1970   33.6310   47.0300 C   0  0  2  0  0  0  0  0  0  0  0  0
   63.4750   34.1960   48.4150 C   0  0  0  0  0  0  0  0  0  0  0  0
   61.6640   33.6770   46.7510 C   0  0  0  0  0  0  0  0  0  0  0  0
   59.2210   31.8060   46.0140 C   0  0  0  0  0  0  0  0  0  0  0  0
   59.0160   30.4640   45.6850 C   0  0  0  0  0  0  0  0  0  0  0  0
   57.2958   29.5178   44.4561 H   0  0  0  0  0  0  0  0  0  0  0  0
   56.7018   27.9572   43.5387 H   0  0  0  0  0  0  0  0  0  0  0  0
   57.7180   25.3216   43.4470 H   0  0  0  0  0  0  0  0  0  0  0  0
   54.3530   26.7040   46.7630 H   0  0  0  0  0  0  0  0  0  0  0  0
   58.8549   24.8740   46.7650 H   0  0  0  0  0  0  0  0  0  0  0  0
   59.2356   27.0920   49.1613 H   0  0  0  0  0  0  0  0  0  0  0  0
   60.5860   26.3132   48.2688 H   0  0  0  0  0  0  0  0  0  0  0  0
   60.4230   28.1021   48.2688 H   0  0  0  0  0  0  0  0  0  0  0  0
   58.5254   29.1938   48.8221 H   0  0  0  0  0  0  0  0  0  0  0  0
   58.8972   31.5864   49.4147 H   0  0  0  0  0  0  0  0  0  0  0  0
   59.1066   34.3050   46.8931 H   0  0  0  0  0  0  0  0  0  0  0  0
   58.8581   33.8976   48.6335 H   0  0  0  0  0  0  0  0  0  0  0  0
   60.9889   32.0557   49.0463 H   0  0  0  0  0  0  0  0  0  0  0  0
   60.9422   33.5656   50.0618 H   0  0  0  0  0  0  0  0  0  0  0  0
   63.1323   33.1621   50.3432 H   0  0  0  0  0  0  0  0  0  0  0  0
   62.7856   30.9717   48.7220 H   0  0  0  0  0  0  0  0  0  0  0  0
   64.4234   31.5055   49.1057 H   0  0  0  0  0  0  0  0  0  0  0  0
   63.0932   31.5166   46.5051 H   0  0  0  0  0  0  0  0  0  0  0  0
   64.7349   32.0700   46.8394 H   0  0  0  0  0  0  0  0  0  0  0  0
   63.6843   34.1803   46.2110 H   0  0  0  0  0  0  0  0  0  0  0  0
   62.9535   35.1504   48.5795 H   0  0  0  0  0  0  0  0  0  0  0  0
   64.5293   34.4370   48.6158 H   0  0  0  0  0  0  0  0  0  0  0  0
   61.3617   32.7259   46.2884 H   0  0  0  0  0  0  0  0  0  0  0  0
   61.4726   34.5316   46.0854 H   0  0  0  0  0  0  0  0  0  0  0  0
   59.4206   32.5409   45.2202 H   0  0  0  0  0  0  0  0  0  0  0  0
   59.0493   30.1476   44.6320 H   0  0  0  0  0  0  0  0  0  0  0  0
  1  2  2  0
  2  3  1  0
  3  4  2  3
  4  5  1  0
  5  6  2  0
  6  7  1  0
  6  8  1  0
  8  9  1  0
  9 10  2  0
  9 11  1  0
 11 12  1  0
 12 13  2  0
  3 14  1  0
 14 15  2  0
 15 16  1  0
 15 17  1  0
 17 18  1  0
 18 19  2  0
 19 20  1  0
 20 21  2  0
 21 22  1  0
 22 23  1  0
 23 24  1  0
 24 25  1  0
 25 26  1  0
 26 27  1  0
 27 28  1  0
 28 29  1  0
 28 30  1  0
 21 31  1  0
 31 32  2  0
 17  2  1  0
 32 18  1  0
 12  5  1  0
 30 23  1  0
 29 25  1  0
  1 33  1  0
  1 34  1  0
  4 35  1  0
  7 36  1  0
 14 37  1  0
 16 38  1  0
 16 39  1  0
 16 40  1  0
 19 41  1  0
 20 42  1  0
 22 43  1  0
 22 44  1  0
 24 45  1  0
 24 46  1  0
 25 47  1  1
 26 48  1  0
 26 49  1  0
 27 50  1  0
 27 51  1  0
 28 52  1  6
 29 53  1  0
 29 54  1  0
 30 55  1  0
 30 56  1  0
 31 57  1  0
 32 58  1  0
M  CHG  2   8  -1  11  -1
M  END
>  <UniqueID>  (21) 
20

>  <SMILES>  (21) 
C=c1c(=Cc2c(O)[n-]c(=O)[n-]c2=O)cc(C)n1-c1ccc(CN2C[C@@H]3CC[C@@H](C3)C2)cc1

>  <Energy>  (21) 
126.84421487205117

>  <Genealogy>  (21) 
C=c1c(=Cc2c(O)[n-]c(=O)[n-]c2=O)cc(C)n1-c1ccc(CN2CC3CCC(C3)C2)cc1 (protonated)
C=c1c(=Cc2c(O)[n-]c(=O)[n-]c2=O)cc(C)n1-c1ccc(CN2C[C@@H]3CC[C@@H](C3)C2)cc1 (chirality)
C=c1c(=Cc2c(O)[n-]c(=O)[n-]c2=O)cc(C)n1-c1ccc(CN2C[C@@H]3CC[C@@H](C3)C2)cc1 (3D coordinates assigned)
C=c1c(=Cc2c(O)[n-]c(=O)[n-]c2=O)cc(C)n1-c1ccc(CN2C[C@@H]3CC[C@@H](C3)C2)cc1 (nonaromatic ring conformer: 126.84421487205117 kcal/mol)

>  <smiles>  (21) 
C=c1c(=Cc2c(O)[nH]c(=O)[nH]c2=O)cc(C)n1-c1ccc(CN2CC3CCC(C3)C2)cc1

>  <score_type>  (21) 
oracle

>  <origin>  (21) 
adg

>  <m_score__min__energy>  (21) 
-14.73

>  <m_primary>  (21) 
energy

$$$$
21:0
     RDKit          3D

 38 40  0  0  0  0  0  0  0  0999 V2000
   54.7920   26.3340   45.9970 N   0  0  0  0  0  0  0  0  0  0  0  0
   56.3510   25.6380   46.2680 S   0  0  0  0  0  0  0  0  0  0  0  0
   56.3040   24.7570   47.4850 O   0  0  0  0  0  0  0  0  0  0  0  0
   56.7370   24.8010   45.0810 O   0  0  0  0  0  0  0  0  0  0  0  0
   57.5340   26.9200   46.5050 C   0  0  0  0  0  0  0  0  0  0  0  0
   58.4990   26.8090   47.5130 C   0  0  0  0  0  0  0  0  0  0  0  0
   59.4320   27.8310   47.7120 C   0  0  0  0  0  0  0  0  0  0  0  0
   59.4140   28.9810   46.9020 C   0  0  0  0  0  0  0  0  0  0  0  0
   60.3880   30.0850   47.1030 C   0  0  0  0  0  0  0  0  0  0  0  0
   61.3940   30.1400   46.3430 O   0  0  0  0  0  0  0  0  0  0  0  0
   60.1830   31.1060   48.1180 N   0  0  1  0  0  0  0  0  0  0  0  0
   61.2390   32.1430   48.1210 C   0  0  0  0  0  0  0  0  0  0  0  0
   61.2090   33.0670   46.8890 C   0  0  0  0  0  0  0  0  0  0  0  0
   59.8160   33.3930   46.4210 C   0  0  0  0  0  0  0  0  0  0  0  0
   59.6450   34.3600   45.4170 C   0  0  0  0  0  0  0  0  0  0  0  0
   58.3700   34.6500   44.9230 C   0  0  0  0  0  0  0  0  0  0  0  0
   57.2570   33.9740   45.4240 C   0  0  0  0  0  0  0  0  0  0  0  0
   57.4150   33.0030   46.4160 C   0  0  0  0  0  0  0  0  0  0  0  0
   58.6940   32.6930   46.9090 C   0  0  0  0  0  0  0  0  0  0  0  0
   58.8310   31.6950   48.0310 C   0  0  0  0  0  0  0  0  0  0  0  0
   58.4280   29.0940   45.9060 C   0  0  0  0  0  0  0  0  0  0  0  0
   57.4960   28.0710   45.7090 C   0  0  0  0  0  0  0  0  0  0  0  0
   54.6690   27.0890   46.7080 H   0  0  0  0  0  0  0  0  0  0  0  0
   58.5233   25.9136   48.1514 H   0  0  0  0  0  0  0  0  0  0  0  0
   60.1855   27.7352   48.5076 H   0  0  0  0  0  0  0  0  0  0  0  0
   60.2540   30.6500   49.0570 H   0  0  0  0  0  0  0  0  0  0  0  0
   61.1140   32.7622   49.0216 H   0  0  0  0  0  0  0  0  0  0  0  0
   62.2044   31.6161   48.1018 H   0  0  0  0  0  0  0  0  0  0  0  0
   61.7198   34.0069   47.1454 H   0  0  0  0  0  0  0  0  0  0  0  0
   61.7105   32.5320   46.0691 H   0  0  0  0  0  0  0  0  0  0  0  0
   60.5202   34.8927   45.0167 H   0  0  0  0  0  0  0  0  0  0  0  0
   58.2441   35.4113   44.1391 H   0  0  0  0  0  0  0  0  0  0  0  0
   56.2536   34.2059   45.0374 H   0  0  0  0  0  0  0  0  0  0  0  0
   56.5336   32.4783   46.8133 H   0  0  0  0  0  0  0  0  0  0  0  0
   58.6081   32.2028   48.9810 H   0  0  0  0  0  0  0  0  0  0  0  0
   58.1270   30.8743   47.8290 H   0  0  0  0  0  0  0  0  0  0  0  0
   58.3897   29.9952   45.2764 H   0  0  0  0  0  0  0  0  0  0  0  0
   56.7301   28.1707   44.9258 H   0  0  0  0  0  0  0  0  0  0  0  0
  1  2  1  0
  2  3  2  0
  2  4  2  0
  2  5  1  0
  5  6  2  0
  6  7  1  0
  7  8  2  0
  8  9  1  0
  9 10  2  0
  9 11  1  0
 11 12  1  0
 12 13  1  0
 13 14  1  0
 14 15  2  0
 15 16  1  0
 16 17  2  0
 17 18  1  0
 18 19  2  0
 19 20  1  0
  8 21  1  0
 21 22  2  0
 22  5  1  0
 20 11  1  0
 19 14  1  0
  1 23  1  0
  6 24  1  0
  7 25  1  0
 11 26  1  1
 12 27  1  0
 12 28  1  0
 13 29  1  0
 13 30  1  0
 15 31  1  0
 16 32  1  0
 17 33  1  0
 18 34  1  0
 20 35  1  0
 20 36  1  0
 21 37  1  0
 22 38  1  0
M  CHG  2   1  -1  11   1
M  END
>  <UniqueID>  (22) 
21

>  <SMILES>  (22) 
[NH-]S(=O)(=O)c1ccc(C(=O)[N@H+]2CCc3ccccc3C2)cc1

>  <Energy>  (22) 
51.563227554400136

>  <Genealogy>  (22) 
[NH-]S(=O)(=O)c1ccc(C(=O)[NH+]2CCc3ccccc3C2)cc1 (protonated)
[NH-]S(=O)(=O)c1ccc(C(=O)[N@H+]2CCc3ccccc3C2)cc1 (chirality)
[NH-]S(=O)(=O)c1ccc(C(=O)[N@H+]2CCc3ccccc3C2)cc1 (3D coordinates assigned)
[NH-]S(=O)(=O)c1ccc(C(=O)[N@H+]2CCc3ccccc3C2)cc1 (nonaromatic ring conformer: 51.563227554400136 kcal/mol)

>  <smiles>  (22) 
NS(=O)(=O)c1ccc(C(=O)N2CCc3ccccc3C2)cc1

>  <score_type>  (22) 
oracle

>  <origin>  (22) 
adg

>  <m_score__min__energy>  (22) 
-9.7899999999999991

>  <m_primary>  (22) 
energy

$$$$
22:0
     RDKit          3D

 48 50  0  0  0  0  0  0  0  0999 V2000
   55.1440   28.0540   45.6700 H   0  0  0  0  0  0  0  0  0  0  0  0
   55.5250   28.5770   44.8920 O   0  0  0  0  0  0  0  0  0  0  0  0
   56.3610   29.6720   45.0880 C   0  0  0  0  0  0  0  0  0  0  0  0
   56.0240   30.9240   44.6970 N   0  0  0  0  0  0  0  0  0  0  0  0
   57.1010   31.6690   45.0130 C   0  0  0  0  0  0  0  0  0  0  0  0
   57.2540   33.0360   44.8020 C   0  0  0  0  0  0  0  0  0  0  0  0
   56.4490   33.6313   44.3464 H   0  0  0  0  0  0  0  0  0  0  0  0
   58.4680   33.6360   45.1880 C   0  0  0  0  0  0  0  0  0  0  0  0
   58.6111   34.7173   45.0455 H   0  0  0  0  0  0  0  0  0  0  0  0
   59.5100   32.8570   45.7600 C   0  0  0  0  0  0  0  0  0  0  0  0
   60.7490   33.4430   46.1830 N   0  0  0  0  0  0  0  0  0  0  0  0
   61.2090   33.5910   47.5340 C   0  0  0  0  0  0  0  0  0  0  0  0
   60.4090   33.8980   48.4560 O   0  0  0  0  0  0  0  0  0  0  0  0
   62.5960   33.4430   47.8390 N   0  0  0  0  0  0  0  0  0  0  0  0
   63.3000   32.1750   47.7090 C   0  0  0  0  0  0  0  0  0  0  0  0
   63.5222   31.7748   48.7092 H   0  0  0  0  0  0  0  0  0  0  0  0
   62.6696   31.4602   47.1598 H   0  0  0  0  0  0  0  0  0  0  0  0
   64.2400   32.3321   47.1598 H   0  0  0  0  0  0  0  0  0  0  0  0
   59.3100   31.4800   45.9770 C   0  0  0  0  0  0  0  0  0  0  0  0
   60.0921   30.8627   46.4431 H   0  0  0  0  0  0  0  0  0  0  0  0
   58.0960   30.9200   45.5860 C   0  0  0  0  0  0  0  0  0  0  0  0
   57.6270   29.6300   45.6710 C   0  0  0  0  0  0  0  0  0  0  0  0
   58.3820   28.4480   46.1150 C   0  0  0  0  0  0  0  0  0  0  0  0
   59.4019   28.6168   46.4909 H   0  0  0  0  0  0  0  0  0  0  0  0
   57.9350   27.1770   46.1020 C   0  0  0  0  0  0  0  0  0  0  0  0
   58.1400   26.1420   47.0300 C   0  0  0  0  0  0  0  0  0  0  0  0
   58.9520   26.1120   48.0960 C   0  0  0  0  0  0  0  0  0  0  0  0
   59.5114   27.0134   48.3868 H   0  0  0  0  0  0  0  0  0  0  0  0
   59.0590   25.1860   48.6800 H   0  0  0  0  0  0  0  0  0  0  0  0
   57.3890   25.0620   46.5770 C   0  0  0  0  0  0  0  0  0  0  0  0
   57.3040   23.7230   47.1900 C   0  0  0  0  0  0  0  0  0  0  0  0
   57.7530   22.7290   46.5610 O   0  0  0  0  0  0  0  0  0  0  0  0
   56.7400   23.5290   48.4900 N   0  0  0  0  0  0  0  0  0  0  0  0
   55.6030   22.6550   48.7590 C   0  0  0  0  0  0  0  0  0  0  0  0
   55.1717   22.9091   49.7385 H   0  0  0  0  0  0  0  0  0  0  0  0
   54.8470   22.7927   47.9720 H   0  0  0  0  0  0  0  0  0  0  0  0
   56.0560   21.2010   48.7690 C   0  0  0  0  0  0  0  0  0  0  0  0
   55.7222   20.7212   49.7009 H   0  0  0  0  0  0  0  0  0  0  0  0
   55.6186   20.6791   47.9051 H   0  0  0  0  0  0  0  0  0  0  0  0
   57.4530   21.1370   48.6880 O   0  0  0  0  0  0  0  0  0  0  0  0
   57.7680   22.0750   48.6260 H   0  0  0  0  0  0  0  0  0  0  0  0
   56.8130   25.4540   45.3810 C   0  0  0  0  0  0  0  0  0  0  0  0
   55.9650   24.6150   44.4750 C   0  0  0  0  0  0  0  0  0  0  0  0
   55.3115   23.9685   45.0791 H   0  0  0  0  0  0  0  0  0  0  0  0
   55.3487   25.2687   43.8403 H   0  0  0  0  0  0  0  0  0  0  0  0
   56.6121   23.9918   43.8403 H   0  0  0  0  0  0  0  0  0  0  0  0
   57.1510   26.7250   45.0990 N   0  0  0  0  0  0  0  0  0  0  0  0
   56.8410   27.2650   44.2600 H   0  0  0  0  0  0  0  0  0  0  0  0
  1  2  1  0
  2  3  1  0
  3  4  1  0
  4  5  1  0
  5  6  2  0
  6  7  1  0
  6  8  1  0
  8  9  1  0
  8 10  2  0
 10 11  1  0
 11 12  1  0
 12 13  2  0
 12 14  1  0
 14 15  1  0
 15 16  1  0
 15 17  1  0
 15 18  1  0
 10 19  1  0
 19 20  1  0
 19 21  2  0
 21 22  1  0
 22 23  1  0
 23 24  1  0
 23 25  2  0
 25 26  1  0
 26 27  2  0
 27 28  1  0
 27 29  1  0
 26 30  1  0
 30 31  1  0
 31 32  2  0
 31 33  1  0
 33 34  1  0
 34 35  1  0
 34 36  1  0
 34 37  1  0
 37 38  1  0
 37 39  1  0
 37 40  1  0
 40 41  1  0
 30 42  2  0
 42 43  1  0
 43 44  1  0
 43 45  1  0
 43 46  1  0
 42 47  1  0
 47 48  1  0
 22  3  2  0
 47 25  1  0
 21  5  1  0
M  CHG  4   4  -1  11  -1  14  -1  33  -1
M  END
>  <UniqueID>  (23) 
22

>  <SMILES>  (23) 
C=c1c(C(=O)[N-]CCO)c(C)[nH]/c1=C/c1c(O)[n-]c2ccc([N-]C(=O)[N-]C)cc12

>  <Energy>  (23) 
122.59496715350149

>  <Genealogy>  (23) 
C=c1c(C(=O)[N-]CCO)c(C)[nH]c1=Cc1c(O)[n-]c2ccc([N-]C(=O)[N-]C)cc12 (protonated)
C=c1c(C(=O)[N-]CCO)c(C)[nH]/c1=C/c1c(O)[n-]c2ccc([N-]C(=O)[N-]C)cc12 (cis-trans isomerization)
C=c1c(C(=O)[N-]CCO)c(C)[nH]/c1=C/c1c(O)[n-]c2ccc([N-]C(=O)[N-]C)cc12 (3D coordinates assigned)
C=c1c(C(=O)[N-]CCO)c(C)[nH]/c1=C/c1c(O)[n-]c2ccc([N-]C(=O)[N-]C)cc12 (optimized conformer: 122.59496715350149 kcal/mol)

>  <smiles>  (23) 
C=c1c(C(=O)NCCO)c(C)[nH]c1=Cc1c(O)[nH]c2ccc(NC(=O)NC)cc12

>  <score_type>  (23) 
oracle

>  <origin>  (23) 
adg

>  <m_score__min__energy>  (23) 
-12.619999999999999

>  <m_primary>  (23) 
energy

$$$$
23:0
     RDKit          3D

 50 53  0  0  0  0  0  0  0  0999 V2000
   56.7510   34.2550   44.6220 O   0  0  0  0  0  0  0  0  0  0  0  0
   57.1870   33.2550   45.2510 C   0  0  0  0  0  0  0  0  0  0  0  0
   56.6360   31.9640   44.9470 N   0  0  0  0  0  0  0  0  0  0  0  0
   57.4020   30.8060   44.4970 C   0  0  0  0  0  0  0  0  0  0  0  0
   56.5780   29.5570   44.5580 C   0  0  0  0  0  0  0  0  0  0  0  0
   55.3260   29.6050   44.4250 O   0  0  0  0  0  0  0  0  0  0  0  0
   57.2210   28.2960   44.7860 N   0  0  0  0  0  0  0  0  0  0  0  0
   58.3400   27.8870   43.9280 C   0  0  0  0  0  0  0  0  0  0  0  0
   59.6710   28.2040   44.6280 C   0  0  0  0  0  0  0  0  0  0  0  0
   59.5230   28.1250   46.0910 N   0  0  0  0  0  0  0  0  0  0  0  0
   60.2360   29.0560   46.9320 C   0  0  0  0  0  0  0  0  0  0  0  0
   60.8230   30.2080   46.3780 C   0  0  0  0  0  0  0  0  0  0  0  0
   61.5360   31.0980   47.1860 C   0  0  0  0  0  0  0  0  0  0  0  0
   61.6710   30.8470   48.5530 C   0  0  0  0  0  0  0  0  0  0  0  0
   61.1050   29.6990   49.1120 C   0  0  0  0  0  0  0  0  0  0  0  0
   60.3910   28.8040   48.3080 C   0  0  0  0  0  0  0  0  0  0  0  0
   59.8320   27.7070   48.8780 F   0  0  0  0  0  0  0  0  0  0  0  0
   58.4780   27.2500   46.6450 C   0  0  0  0  0  0  0  0  0  0  0  0
   57.0990   27.6800   46.1150 C   0  0  0  0  0  0  0  0  0  0  0  0
   58.1880   33.4640   46.3220 C   0  0  0  0  0  0  0  0  0  0  0  0
   59.2700   34.3300   46.0950 C   0  0  0  0  0  0  0  0  0  0  0  0
   60.2150   34.5650   47.0970 C   0  0  0  0  0  0  0  0  0  0  0  0
   60.0910   33.9410   48.3460 C   0  0  0  0  0  0  0  0  0  0  0  0
   61.0190   34.1920   49.3680 C   0  0  0  0  0  0  0  0  0  0  0  0
   60.8730   33.5770   50.6140 C   0  0  0  0  0  0  0  0  0  0  0  0
   59.8060   32.7050   50.8460 C   0  0  0  0  0  0  0  0  0  0  0  0
   58.8800   32.4390   49.8340 C   0  0  0  0  0  0  0  0  0  0  0  0
   59.0130   33.0550   48.5790 C   0  0  0  0  0  0  0  0  0  0  0  0
   58.0850   32.8030   47.5580 C   0  0  0  0  0  0  0  0  0  0  0  0
   57.7270   30.9716   43.4592 H   0  0  0  0  0  0  0  0  0  0  0  0
   58.2713   30.6835   45.1598 H   0  0  0  0  0  0  0  0  0  0  0  0
   58.2767   26.8060   43.7348 H   0  0  0  0  0  0  0  0  0  0  0  0
   58.2890   28.4356   42.9759 H   0  0  0  0  0  0  0  0  0  0  0  0
   60.4315   27.4789   44.3026 H   0  0  0  0  0  0  0  0  0  0  0  0
   59.9769   29.2257   44.3588 H   0  0  0  0  0  0  0  0  0  0  0  0
   60.7202   30.4098   45.3016 H   0  0  0  0  0  0  0  0  0  0  0  0
   61.9912   31.9969   46.7447 H   0  0  0  0  0  0  0  0  0  0  0  0
   62.2233   31.5537   49.1898 H   0  0  0  0  0  0  0  0  0  0  0  0
   61.2209   29.4980   50.1873 H   0  0  0  0  0  0  0  0  0  0  0  0
   58.6760   26.2104   46.3449 H   0  0  0  0  0  0  0  0  0  0  0  0
   58.4846   27.3283   47.7422 H   0  0  0  0  0  0  0  0  0  0  0  0
   56.4478   26.7963   46.0448 H   0  0  0  0  0  0  0  0  0  0  0  0
   56.6686   28.4178   46.8081 H   0  0  0  0  0  0  0  0  0  0  0  0
   59.3745   34.8278   45.1196 H   0  0  0  0  0  0  0  0  0  0  0  0
   61.0599   35.2426   46.9048 H   0  0  0  0  0  0  0  0  0  0  0  0
   61.8629   34.8742   49.1879 H   0  0  0  0  0  0  0  0  0  0  0  0
   61.5998   33.7797   51.4144 H   0  0  0  0  0  0  0  0  0  0  0  0
   59.6946   32.2258   51.8298 H   0  0  0  0  0  0  0  0  0  0  0  0
   58.0460   31.7464   50.0205 H   0  0  0  0  0  0  0  0  0  0  0  0
   57.2707   32.0828   47.7258 H   0  0  0  0  0  0  0  0  0  0  0  0
  1  2  2  0
  2  3  1  0
  3  4  1  0
  4  5  1  0
  5  6  2  0
  5  7  1  0
  7  8  1  0
  8  9  1  0
  9 10  1  0
 10 11  1  0
 11 12  2  0
 12 13  1  0
 13 14  2  0
 14 15  1  0
 15 16  2  0
 16 17  1  0
 10 18  1  0
 18 19  1  0
  2 20  1  0
 20 21  2  0
 21 22  1  0
 22 23  2  0
 23 24  1  0
 24 25  2  0
 25 26  1  0
 26 27  2  0
 27 28  1  0
 28 29  2  0
 19  7  1  0
 29 20  1  0
 16 11  1  0
 28 23  1  0
  4 30  1  0
  4 31  1  0
  8 32  1  0
  8 33  1  0
  9 34  1  0
  9 35  1  0
 12 36  1  0
 13 37  1  0
 14 38  1  0
 15 39  1  0
 18 40  1  0
 18 41  1  0
 19 42  1  0
 19 43  1  0
 21 44  1  0
 22 45  1  0
 24 46  1  0
 25 47  1  0
 26 48  1  0
 27 49  1  0
 29 50  1  0
M  CHG  1   3  -1
M  END
>  <UniqueID>  (24) 
23

>  <SMILES>  (24) 
O=C([N-]CC(=O)N1CCN(c2ccccc2F)CC1)c1ccc2ccccc2c1

>  <Energy>  (24) 
67.76267876823238

>  <Genealogy>  (24) 
O=C([N-]CC(=O)N1CCN(c2ccccc2F)CC1)c1ccc2ccccc2c1 (protonated)
O=C([N-]CC(=O)N1CCN(c2ccccc2F)CC1)c1ccc2ccccc2c1 (3D coordinates assigned)
O=C([N-]CC(=O)N1CCN(c2ccccc2F)CC1)c1ccc2ccccc2c1 (nonaromatic ring conformer: 67.76267876823238 kcal/mol)

>  <smiles>  (24) 
O=C(NCC(=O)N1CCN(c2ccccc2F)CC1)c1ccc2ccccc2c1

>  <score_type>  (24) 
oracle

>  <origin>  (24) 
adg

>  <m_score__min__energy>  (24) 
-10.359999999999999

>  <m_primary>  (24) 
energy

$$$$
24:0
     RDKit          3D

 48 51  0  0  0  0  0  0  0  0999 V2000
   54.7720   27.1730   45.9660 H   0  0  0  0  0  0  0  0  0  0  0  0
   54.8250   26.2080   45.6660 O   0  0  0  0  0  0  0  0  0  0  0  0
   55.8130   25.3450   46.1340 C   0  0  0  0  0  0  0  0  0  0  0  0
   55.5800   24.3980   47.0580 N   0  0  0  0  0  0  0  0  0  0  0  0
   56.7890   23.8190   47.2030 C   0  0  0  0  0  0  0  0  0  0  0  0
   56.9950   22.8660   48.0000 O   0  0  0  0  0  0  0  0  0  0  0  0
   57.7650   24.3440   46.4330 N   0  0  0  0  0  0  0  0  0  0  0  0
   57.1360   25.3130   45.7410 C   0  0  0  0  0  0  0  0  0  0  0  0
   57.7900   26.2460   44.7990 C   0  0  0  0  0  0  0  0  0  0  0  0
   58.1803   25.8296   43.8587 H   0  0  0  0  0  0  0  0  0  0  0  0
   57.9440   27.5720   45.0070 C   0  0  0  0  0  0  0  0  0  0  0  0
   57.5300   28.5980   44.1680 C   0  0  0  0  0  0  0  0  0  0  0  0
   57.0240   28.4878   43.1975 H   0  0  0  0  0  0  0  0  0  0  0  0
   57.8750   29.7810   44.7850 C   0  0  0  0  0  0  0  0  0  0  0  0
   57.5560   31.1410   44.2380 C   0  0  0  0  0  0  0  0  0  0  0  0
   57.3917   31.8416   45.0700 H   0  0  0  0  0  0  0  0  0  0  0  0
   58.3956   31.4944   43.6215 H   0  0  0  0  0  0  0  0  0  0  0  0
   56.6468   31.0842   43.6215 H   0  0  0  0  0  0  0  0  0  0  0  0
   58.4740   29.5430   45.9760 N   0  0  0  0  0  0  0  0  0  0  0  0
   59.0200   30.5760   46.8750 C   0  0  0  0  0  0  0  0  0  0  0  0
   58.3581   31.4543   46.8543 H   0  0  0  0  0  0  0  0  0  0  0  0
   59.0793   30.1550   47.8895 H   0  0  0  0  0  0  0  0  0  0  0  0
   60.4310   31.0040   46.4470 C   0  0  0  0  0  0  0  0  0  0  0  0
   61.0906   30.1240   46.4727 H   0  0  0  0  0  0  0  0  0  0  0  0
   60.3618   31.4249   45.4331 H   0  0  0  0  0  0  0  0  0  0  0  0
   61.0070   32.0700   47.3520 C   0  0  0  0  0  0  0  0  0  0  0  0
   62.1130   31.7400   48.1580 C   0  0  0  0  0  0  0  0  0  0  0  0
   62.5827   30.7503   48.0585 H   0  0  0  0  0  0  0  0  0  0  0  0
   62.6200   32.6550   49.0820 C   0  0  0  0  0  0  0  0  0  0  0  0
   63.4905   32.3874   49.6990 H   0  0  0  0  0  0  0  0  0  0  0  0
   62.0250   33.9070   49.2240 C   0  0  0  0  0  0  0  0  0  0  0  0
   62.4224   34.6238   49.9577 H   0  0  0  0  0  0  0  0  0  0  0  0
   60.9260   34.2530   48.4370 C   0  0  0  0  0  0  0  0  0  0  0  0
   60.4578   35.2410   48.5582 H   0  0  0  0  0  0  0  0  0  0  0  0
   60.4130   33.3510   47.4920 C   0  0  0  0  0  0  0  0  0  0  0  0
   59.2390   33.7620   46.7050 C   0  0  0  0  0  0  0  0  0  0  0  0
   58.0560   33.3520   47.0080 N   0  0  0  0  0  0  0  0  0  0  0  0
   57.0050   33.8310   46.1300 C   0  0  0  0  0  0  0  0  0  0  0  0
   56.3008   33.0166   45.9045 H   0  0  0  0  0  0  0  0  0  0  0  0
   56.4382   34.6457   46.6043 H   0  0  0  0  0  0  0  0  0  0  0  0
   57.6790   34.3110   44.8480 C   0  0  0  0  0  0  0  0  0  0  0  0
   57.7319   33.4892   44.1187 H   0  0  0  0  0  0  0  0  0  0  0  0
   57.1099   35.1333   44.3898 H   0  0  0  0  0  0  0  0  0  0  0  0
   59.3560   34.8550   45.2990 S   0  0  0  0  0  0  0  0  0  0  0  0
   58.5190   28.1920   46.1250 C   0  0  0  0  0  0  0  0  0  0  0  0
   59.0430   27.5620   47.1900 C   0  0  0  0  0  0  0  0  0  0  0  0
   59.4714   28.1454   48.0183 H   0  0  0  0  0  0  0  0  0  0  0  0
   59.0435   26.4629   47.2335 H   0  0  0  0  0  0  0  0  0  0  0  0
  1  2  1  0
  2  3  1  0
  3  4  1  0
  4  5  1  0
  5  6  2  0
  5  7  1  0
  7  8  1  0
  8  9  1  0
  9 10  1  0
  9 11  2  0
 11 12  1  0
 12 13  1  0
 12 14  2  0
 14 15  1  0
 15 16  1  0
 15 17  1  0
 15 18  1  0
 14 19  1  0
 19 20  1  0
 20 21  1  0
 20 22  1  0
 20 23  1  0
 23 24  1  0
 23 25  1  0
 23 26  1  0
 26 27  2  0
 27 28  1  0
 27 29  1  0
 29 30  1  0
 29 31  2  0
 31 32  1  0
 31 33  1  0
 33 34  1  0
 33 35  2  0
 35 36  1  0
 36 37  2  0
 37 38  1  0
 38 39  1  0
 38 40  1  0
 38 41  1  0
 41 42  1  0
 41 43  1  0
 41 44  1  0
 19 45  1  0
 45 46  2  0
 46 47  1  0
 46 48  1  0
  8  3  2  0
 45 11  1  0
 35 26  1  0
 44 36  1  0
M  CHG  2   4  -1   7  -1
M  END
>  <UniqueID>  (25) 
24

>  <SMILES>  (25) 
C=c1/c(=C/c2[n-]c(=O)[n-]c2O)cc(C)n1CCc1ccccc1C1=NCCS1

>  <Energy>  (25) 
122.32044763205371

>  <Genealogy>  (25) 
C=c1c(=Cc2[n-]c(=O)[n-]c2O)cc(C)n1CCc1ccccc1C1=NCCS1 (protonated)
C=c1/c(=C/c2[n-]c(=O)[n-]c2O)cc(C)n1CCc1ccccc1C1=NCCS1 (cis-trans isomerization)
C=c1/c(=C/c2[n-]c(=O)[n-]c2O)cc(C)n1CCc1ccccc1C1=NCCS1 (3D coordinates assigned)
C=c1/c(=C/c2[n-]c(=O)[n-]c2O)cc(C)n1CCc1ccccc1C1=NCCS1 (nonaromatic ring conformer: 122.32044763205371 kcal/mol)

>  <smiles>  (25) 
C=c1c(=Cc2[nH]c(=O)[nH]c2O)cc(C)n1CCc1ccccc1C1=NCCS1

>  <score_type>  (25) 
oracle

>  <origin>  (25) 
adg

>  <m_score__min__energy>  (25) 
-14.380000000000001

>  <m_primary>  (25) 
energy

$$$$
25:0
     RDKit          3D

 29 30  0  0  0  0  0  0  0  0999 V2000
   53.3320   23.7940   44.5350 C   0  0  0  0  0  0  0  0  0  0  0  0
   54.1870   23.2540   45.6760 C   0  0  0  0  0  0  0  0  0  0  0  0
   55.4210   24.0850   45.8500 C   0  0  0  0  0  0  0  0  0  0  0  0
   56.6690   23.5760   45.9390 N   0  0  0  0  0  0  0  0  0  0  0  0
   57.4430   24.6660   46.1370 C   0  0  0  0  0  0  0  0  0  0  0  0
   58.6960   24.6020   46.2510 O   0  0  0  0  0  0  0  0  0  0  0  0
   56.7480   25.8210   46.2000 N   0  0  0  0  0  0  0  0  0  0  0  0
   57.2720   27.1800   46.3390 C   0  0  0  0  0  0  0  0  0  0  0  0
   57.7430   27.7030   44.9800 C   0  0  0  0  0  0  0  0  0  0  0  0
   57.5660   29.2020   44.8970 C   0  0  0  0  0  0  0  0  0  0  0  0
   56.2850   29.7770   44.8580 C   0  0  0  0  0  0  0  0  0  0  0  0
   55.1470   28.9800   44.8700 O   0  0  0  0  0  0  0  0  0  0  0  0
   56.1480   31.1280   44.8130 N   0  0  0  0  0  0  0  0  0  0  0  0
   57.2330   31.9440   44.8130 C   0  0  0  0  0  0  0  0  0  0  0  0
   57.0800   33.1910   44.7670 O   0  0  0  0  0  0  0  0  0  0  0  0
   58.4810   31.4140   44.8660 N   0  0  0  0  0  0  0  0  0  0  0  0
   58.6730   30.0710   44.9140 C   0  0  0  0  0  0  0  0  0  0  0  0
   59.8480   29.6180   44.9750 O   0  0  0  0  0  0  0  0  0  0  0  0
   55.4710   25.4520   46.0120 C   0  0  0  0  0  0  0  0  0  0  0  0
   54.3910   26.3260   45.9840 O   0  0  0  0  0  0  0  0  0  0  0  0
   52.4702   24.3383   44.9485 H   0  0  0  0  0  0  0  0  0  0  0  0
   53.9341   24.4760   43.9167 H   0  0  0  0  0  0  0  0  0  0  0  0
   52.9749   22.9573   43.9167 H   0  0  0  0  0  0  0  0  0  0  0  0
   53.6022   23.2759   46.6074 H   0  0  0  0  0  0  0  0  0  0  0  0
   54.4852   22.2224   45.4377 H   0  0  0  0  0  0  0  0  0  0  0  0
   56.4802   27.8374   46.7274 H   0  0  0  0  0  0  0  0  0  0  0  0
   58.1235   27.1684   47.0353 H   0  0  0  0  0  0  0  0  0  0  0  0
   58.8067   27.4565   44.8466 H   0  0  0  0  0  0  0  0  0  0  0  0
   57.1411   27.2303   44.1899 H   0  0  0  0  0  0  0  0  0  0  0  0
  1  2  1  0
  2  3  1  0
  3  4  1  0
  4  5  1  0
  5  6  2  0
  5  7  1  0
  7  8  1  0
  8  9  1  0
  9 10  1  0
 10 11  2  0
 11 12  1  0
 11 13  1  0
 13 14  1  0
 14 15  2  0
 14 16  1  0
 16 17  1  0
 17 18  2  0
  7 19  1  0
 19 20  1  0
 19  3  2  0
 17 10  1  0
  1 21  1  0
  1 22  1  0
  1 23  1  0
  2 24  1  0
  2 25  1  0
  8 26  1  0
  8 27  1  0
  9 28  1  0
  9 29  1  0
M  CHG  5   4  -1  12  -1  13  -1  16  -1  20  -1
M  END
>  <UniqueID>  (26) 
25

>  <SMILES>  (26) 
CCc1[n-]c(=O)n(CCc2c([O-])[n-]c(=O)[n-]c2=O)c1[O-]

>  <Energy>  (26) 
57.20319401572974

>  <Genealogy>  (26) 
CCc1[n-]c(=O)n(CCc2c([O-])[n-]c(=O)[n-]c2=O)c1[O-] (protonated)
CCc1[n-]c(=O)n(CCc2c([O-])[n-]c(=O)[n-]c2=O)c1[O-] (3D coordinates assigned)
CCc1[n-]c(=O)n(CCc2c([O-])[n-]c(=O)[n-]c2=O)c1[O-] (optimized conformer: 57.20319401572974 kcal/mol)

>  <smiles>  (26) 
CCc1[nH]c(=O)n(CCc2c(O)[nH]c(=O)[nH]c2=O)c1O

>  <score_type>  (26) 
oracle

>  <origin>  (26) 
adg

>  <m_score__min__energy>  (26) 
-17.949999999999999

>  <m_primary>  (26) 
energy

$$$$
26:0
     RDKit          3D

 43 45  0  0  0  0  0  0  0  0999 V2000
   61.8870   29.2890   52.9840 C   0  0  0  0  0  0  0  0  0  0  0  0
   60.4040   29.5200   52.9320 C   0  0  0  0  0  0  0  0  0  0  0  0
   59.5270   28.5700   53.4520 C   0  0  0  0  0  0  0  0  0  0  0  0
   58.1540   28.7960   53.4260 C   0  0  0  0  0  0  0  0  0  0  0  0
   57.6050   29.9800   52.8850 C   0  0  0  0  0  0  0  0  0  0  0  0
   56.0770   30.0910   52.9370 C   0  0  0  0  0  0  0  0  0  0  0  0
   55.4930   30.8500   51.7260 C   0  0  0  0  0  0  0  0  0  0  0  0
   54.0250   30.4750   51.4690 C   0  0  0  0  0  0  0  0  0  0  0  0
   53.3280   30.2630   52.7540 N   0  0  0  0  0  0  0  0  0  0  0  0
   51.8660   30.2130   52.5490 C   0  0  0  0  0  0  0  0  0  0  0  0
   51.2510   31.5590   52.7940 C   0  0  0  0  0  0  0  0  0  0  0  0
   50.9310   32.0300   54.0120 N   0  0  0  0  0  0  0  0  0  0  0  0
   50.3730   33.2310   53.7430 C   0  0  0  0  0  0  0  0  0  0  0  0
   49.9400   33.9940   54.6450 O   0  0  0  0  0  0  0  0  0  0  0  0
   50.3110   33.5470   52.4320 N   0  0  0  0  0  0  0  0  0  0  0  0
   50.8690   32.4760   51.8450 C   0  0  0  0  0  0  0  0  0  0  0  0
   51.0170   32.3380   50.4700 O   0  0  0  0  0  0  0  0  0  0  0  0
   53.8190   29.0410   53.4490 C   0  0  0  0  0  0  0  0  0  0  0  0
   55.3280   28.7800   53.2360 C   0  0  0  0  0  0  0  0  0  0  0  0
   58.5110   30.9820   52.4000 C   0  0  0  0  0  0  0  0  0  0  0  0
   58.0440   32.5500   51.6990 S   0  0  0  0  0  0  0  0  0  0  0  0
   57.6810   32.3410   50.0220 N   0  0  0  0  0  0  0  0  0  0  0  0
   59.1920   33.5140   51.8180 O   0  0  0  0  0  0  0  0  0  0  0  0
   56.8700   33.1650   52.4030 O   0  0  0  0  0  0  0  0  0  0  0  0
   59.8950   30.7180   52.4240 C   0  0  0  0  0  0  0  0  0  0  0  0
   62.2136   29.2381   54.0332 H   0  0  0  0  0  0  0  0  0  0  0  0
   62.1286   28.3424   52.4785 H   0  0  0  0  0  0  0  0  0  0  0  0
   62.4051   30.1173   52.4785 H   0  0  0  0  0  0  0  0  0  0  0  0
   59.9212   27.6385   53.8844 H   0  0  0  0  0  0  0  0  0  0  0  0
   57.4780   28.0321   53.8378 H   0  0  0  0  0  0  0  0  0  0  0  0
   55.8887   30.7084   53.8277 H   0  0  0  0  0  0  0  0  0  0  0  0
   55.5553   31.9310   51.9200 H   0  0  0  0  0  0  0  0  0  0  0  0
   56.0768   30.5728   50.8358 H   0  0  0  0  0  0  0  0  0  0  0  0
   53.5321   31.2885   50.9165 H   0  0  0  0  0  0  0  0  0  0  0  0
   53.9861   29.5477   50.8785 H   0  0  0  0  0  0  0  0  0  0  0  0
   51.6566   29.9030   51.5146 H   0  0  0  0  0  0  0  0  0  0  0  0
   51.4335   29.4917   53.2580 H   0  0  0  0  0  0  0  0  0  0  0  0
   53.6332   29.1543   54.5273 H   0  0  0  0  0  0  0  0  0  0  0  0
   53.2771   28.1840   53.0224 H   0  0  0  0  0  0  0  0  0  0  0  0
   55.7467   28.3259   54.1462 H   0  0  0  0  0  0  0  0  0  0  0  0
   55.4491   28.1032   52.3774 H   0  0  0  0  0  0  0  0  0  0  0  0
   56.6430   32.3810   49.9260 H   0  0  0  0  0  0  0  0  0  0  0  0
   60.5920   31.4739   52.0331 H   0  0  0  0  0  0  0  0  0  0  0  0
  1  2  1  0
  2  3  2  0
  3  4  1  0
  4  5  2  0
  5  6  1  0
  6  7  1  0
  7  8  1  0
  8  9  1  0
  9 10  1  0
 10 11  1  0
 11 12  1  0
 12 13  1  0
 13 14  2  0
 13 15  1  0
 15 16  1  0
 16 17  1  0
  9 18  1  0
 18 19  1  0
  5 20  1  0
 20 21  1  0
 21 22  1  0
 21 23  2  0
 21 24  2  0
 20 25  2  0
 25  2  1  0
 19  6  1  0
 16 11  2  0
  1 26  1  0
  1 27  1  0
  1 28  1  0
  3 29  1  0
  4 30  1  0
  6 31  1  0
  7 32  1  0
  7 33  1  0
  8 34  1  0
  8 35  1  0
 10 36  1  0
 10 37  1  0
 18 38  1  0
 18 39  1  0
 19 40  1  0
 19 41  1  0
 22 42  1  0
 25 43  1  0
M  CHG  4  12  -1  15  -1  17  -1  22  -1
M  END
>  <UniqueID>  (27) 
26

>  <SMILES>  (27) 
Cc1ccc(C2CCN(Cc3[n-]c(=O)[n-]c3[O-])CC2)c(S([NH-])(=O)=O)c1

>  <Energy>  (27) 
90.26068703874019

>  <Genealogy>  (27) 
Cc1ccc(C2CCN(Cc3[n-]c(=O)[n-]c3[O-])CC2)c(S([NH-])(=O)=O)c1 (protonated)
Cc1ccc(C2CCN(Cc3[n-]c(=O)[n-]c3[O-])CC2)c(S([NH-])(=O)=O)c1 (3D coordinates assigned)
Cc1ccc(C2CCN(Cc3[n-]c(=O)[n-]c3[O-])CC2)c(S([NH-])(=O)=O)c1 (nonaromatic ring conformer: 90.26068703874019 kcal/mol)

>  <smiles>  (27) 
Cc1ccc(C2CCN(Cc3[nH]c(=O)[nH]c3O)CC2)c(S(N)(=O)=O)c1

>  <score_type>  (27) 
oracle

>  <origin>  (27) 
adg

>  <m_score__min__energy>  (27) 
-17.93

>  <m_primary>  (27) 
energy

$$$$
27:0
     RDKit          3D

 50 53  0  0  0  0  0  0  0  0999 V2000
   54.8310   26.3430   46.0020 O   0  0  0  0  0  0  0  0  0  0  0  0
   56.0200   26.0920   46.3410 C   0  0  0  0  0  0  0  0  0  0  0  0
   56.2940   24.9710   47.1860 N   0  0  0  0  0  0  0  0  0  0  0  0
   56.4180   23.6150   46.6700 C   0  0  0  0  0  0  0  0  0  0  0  0
   57.5610   23.4390   45.6880 C   0  0  0  0  0  0  0  0  0  0  0  0
   56.1260   23.5220   45.1840 C   0  0  0  0  0  0  0  0  0  0  0  0
   57.1260   26.9550   45.8620 C   0  0  0  0  0  0  0  0  0  0  0  0
   58.4630   26.6310   46.1570 C   0  0  0  0  0  0  0  0  0  0  0  0
   59.5050   27.4470   45.7070 C   0  0  0  0  0  0  0  0  0  0  0  0
   59.2290   28.5900   44.9560 C   0  0  0  0  0  0  0  0  0  0  0  0
   57.9010   28.9290   44.6420 C   0  0  0  0  0  0  0  0  0  0  0  0
   57.6150   30.1280   43.8980 N   0  0  0  0  0  0  0  0  0  0  0  0
   57.9670   31.2780   44.6880 C   0  0  0  0  0  0  0  0  0  0  0  0
   58.4580   32.4380   44.0860 C   0  0  0  0  0  0  0  0  0  0  0  0
   58.7510   33.5420   44.8880 C   0  0  0  0  0  0  0  0  0  0  0  0
   59.2130   34.5830   44.3450 O   0  0  0  0  0  0  0  0  0  0  0  0
   58.5370   33.4910   46.2430 N   0  0  0  0  0  0  0  0  0  0  0  0
   58.8620   34.6540   47.0930 C   0  0  0  0  0  0  0  0  0  0  0  0
   59.6340   34.2040   48.3380 C   0  0  0  0  0  0  0  0  0  0  0  0
   61.0600   33.8740   47.9870 C   0  0  0  0  0  0  0  0  0  0  0  0
   61.9550   33.4510   48.9840 C   0  0  0  0  0  0  0  0  0  0  0  0
   63.2890   33.1810   48.6650 C   0  0  0  0  0  0  0  0  0  0  0  0
   63.7400   33.3380   47.3520 C   0  0  0  0  0  0  0  0  0  0  0  0
   62.8580   33.7710   46.3560 C   0  0  0  0  0  0  0  0  0  0  0  0
   61.5240   34.0450   46.6720 C   0  0  0  0  0  0  0  0  0  0  0  0
   58.0610   32.3330   46.8090 C   0  0  0  0  0  0  0  0  0  0  0  0
   57.8830   32.2490   48.0540 O   0  0  0  0  0  0  0  0  0  0  0  0
   57.7780   31.2570   46.0320 N   0  0  0  0  0  0  0  0  0  0  0  0
   56.8550   28.1110   45.1070 C   0  0  0  0  0  0  0  0  0  0  0  0
   56.0811   23.0812   47.5709 H   0  0  0  0  0  0  0  0  0  0  0  0
   58.2588   24.2686   45.5012 H   0  0  0  0  0  0  0  0  0  0  0  0
   58.3859   22.7202   45.5741 H   0  0  0  0  0  0  0  0  0  0  0  0
   55.7868   24.4116   44.6330 H   0  0  0  0  0  0  0  0  0  0  0  0
   55.4838   22.8881   44.5549 H   0  0  0  0  0  0  0  0  0  0  0  0
   58.6898   25.7298   46.7455 H   0  0  0  0  0  0  0  0  0  0  0  0
   60.5468   27.1869   45.9460 H   0  0  0  0  0  0  0  0  0  0  0  0
   60.0541   29.2289   44.6080 H   0  0  0  0  0  0  0  0  0  0  0  0
   58.1650   30.1350   43.0070 H   0  0  0  0  0  0  0  0  0  0  0  0
   56.6020   30.1670   43.6350 H   0  0  0  0  0  0  0  0  0  0  0  0
   58.6114   32.4811   42.9976 H   0  0  0  0  0  0  0  0  0  0  0  0
   59.4790   35.3614   46.5195 H   0  0  0  0  0  0  0  0  0  0  0  0
   57.9265   35.1393   47.4082 H   0  0  0  0  0  0  0  0  0  0  0  0
   59.6231   35.0138   49.0824 H   0  0  0  0  0  0  0  0  0  0  0  0
   59.1524   33.3039   48.7476 H   0  0  0  0  0  0  0  0  0  0  0  0
   61.6046   33.3318   50.0199 H   0  0  0  0  0  0  0  0  0  0  0  0
   63.9842   32.8447   49.4484 H   0  0  0  0  0  0  0  0  0  0  0  0
   64.7889   33.1211   47.1013 H   0  0  0  0  0  0  0  0  0  0  0  0
   63.2146   33.8960   45.3229 H   0  0  0  0  0  0  0  0  0  0  0  0
   60.8357   34.3955   45.8888 H   0  0  0  0  0  0  0  0  0  0  0  0
   55.8129   28.3784   44.8776 H   0  0  0  0  0  0  0  0  0  0  0  0
  1  2  2  0
  2  3  1  0
  3  4  1  0
  4  5  1  0
  5  6  1  0
  2  7  1  0
  7  8  2  0
  8  9  1  0
  9 10  2  0
 10 11  1  0
 11 12  1  0
 12 13  1  0
 13 14  2  0
 14 15  1  0
 15 16  2  0
 15 17  1  0
 17 18  1  0
 18 19  1  0
 19 20  1  0
 20 21  2  0
 21 22  1  0
 22 23  2  0
 23 24  1  0
 24 25  2  0
 17 26  1  0
 26 27  2  0
 26 28  1  0
 11 29  2  0
  6  4  1  0
 29  7  1  0
 28 13  1  0
 25 20  1  0
  4 30  1  0
  5 31  1  0
  5 32  1  0
  6 33  1  0
  6 34  1  0
  8 35  1  0
  9 36  1  0
 10 37  1  0
 12 38  1  0
 12 39  1  0
 14 40  1  0
 18 41  1  0
 18 42  1  0
 19 43  1  0
 19 44  1  0
 21 45  1  0
 22 46  1  0
 23 47  1  0
 24 48  1  0
 25 49  1  0
 29 50  1  0
M  CHG  3   3  -1  12   1  28  -1
M  END
>  <UniqueID>  (28) 
27

>  <SMILES>  (28) 
O=C([N-]C1CC1)c1cccc([NH2+]c2cc(=O)n(CCc3ccccc3)c(=O)[n-]2)c1

>  <Energy>  (28) 
319.7810915741321

>  <Genealogy>  (28) 
O=C([N-]C1CC1)c1cccc([NH2+]c2cc(=O)n(CCc3ccccc3)c(=O)[n-]2)c1 (protonated)
O=C([N-]C1CC1)c1cccc([NH2+]c2cc(=O)n(CCc3ccccc3)c(=O)[n-]2)c1 (3D coordinates assigned)
O=C([N-]C1CC1)c1cccc([NH2+]c2cc(=O)n(CCc3ccccc3)c(=O)[n-]2)c1 (nonaromatic ring conformer: 319.7810915741321 kcal/mol)

>  <smiles>  (28) 
O=C(NC1CC1)c1cccc(Nc2cc(=O)n(CCc3ccccc3)c(=O)[nH]2)c1

>  <score_type>  (28) 
oracle

>  <origin>  (28) 
adg

>  <m_score__min__energy>  (28) 
-11.039999999999999

>  <m_primary>  (28) 
energy

$$$$
28:0
     RDKit          3D

 64 68  0  0  0  0  0  0  0  0999 V2000
   59.9200   29.0640   46.1130 C   0  0  0  0  0  0  0  0  0  0  0  0
   58.7390   29.1080   45.4740 C   0  0  0  0  0  0  0  0  0  0  0  0
   57.8920   28.0310   45.1700 C   0  0  0  0  0  0  0  0  0  0  0  0
   58.0990   26.7000   45.2370 C   0  0  0  0  0  0  0  0  0  0  0  0
   57.4020   25.7790   46.1500 C   0  0  0  0  0  0  0  0  0  0  0  0
   57.9600   24.6780   46.6930 N   0  0  0  0  0  0  0  0  0  0  0  0
   56.9160   24.0640   47.2890 C   0  0  0  0  0  0  0  0  0  0  0  0
   57.0390   22.9840   47.9220 O   0  0  0  0  0  0  0  0  0  0  0  0
   55.7260   24.6900   47.1380 N   0  0  0  0  0  0  0  0  0  0  0  0
   56.0530   25.7620   46.3970 C   0  0  0  0  0  0  0  0  0  0  0  0
   55.1330   26.7140   45.9640 O   0  0  0  0  0  0  0  0  0  0  0  0
   56.7100   28.5890   44.7030 C   0  0  0  0  0  0  0  0  0  0  0  0
   56.8980   29.9570   44.6670 C   0  0  0  0  0  0  0  0  0  0  0  0
   55.8820   30.9520   44.1940 C   0  0  0  0  0  0  0  0  0  0  0  0
   58.1230   30.2700   45.1370 N   0  0  0  0  0  0  0  0  0  0  0  0
   58.6550   31.5980   45.2690 C   0  0  0  0  0  0  0  0  0  0  0  0
   58.3690   32.5670   44.3070 C   0  0  0  0  0  0  0  0  0  0  0  0
   58.7980   33.8850   44.4970 C   0  0  0  0  0  0  0  0  0  0  0  0
   59.5070   34.2340   45.6520 C   0  0  0  0  0  0  0  0  0  0  0  0
   59.8190   33.2590   46.6120 C   0  0  0  0  0  0  0  0  0  0  0  0
   60.5280   33.6300   47.8550 C   0  0  0  0  0  0  0  0  0  0  0  0
   60.3530   34.7710   48.3520 O   0  0  0  0  0  0  0  0  0  0  0  0
   61.4120   32.6980   48.5040 N   0  0  0  0  0  0  0  0  0  0  0  0
   61.4730   32.6340   49.9650 C   0  0  0  0  0  0  0  0  0  0  0  0
   62.8680   33.0570   50.4680 C   0  0  0  0  0  0  0  0  0  0  0  0
   63.8340   33.2240   49.3570 N   0  0  0  0  0  0  0  0  0  0  0  0
   65.1970   33.4410   49.8860 C   0  0  0  0  0  0  0  0  0  0  0  0
   65.3590   32.8200   51.2510 C   0  0  0  0  0  0  0  0  0  0  0  0
   65.2120   33.5410   52.2770 O   0  0  0  0  0  0  0  0  0  0  0  0
   65.6570   31.3700   51.4110 C   0  0  0  0  0  0  0  0  0  0  0  0
   64.6260   30.4680   51.7460 C   0  0  0  0  0  0  0  0  0  0  0  0
   64.8800   29.0970   51.8330 C   0  0  0  0  0  0  0  0  0  0  0  0
   66.1620   28.6060   51.5990 C   0  0  0  0  0  0  0  0  0  0  0  0
   67.2050   29.4890   51.3060 C   0  0  0  0  0  0  0  0  0  0  0  0
   66.9550   30.8600   51.2060 C   0  0  0  0  0  0  0  0  0  0  0  0
   63.7900   32.0380   48.4710 C   0  0  0  0  0  0  0  0  0  0  0  0
   62.4380   31.9840   47.7360 C   0  0  0  0  0  0  0  0  0  0  0  0
   59.3870   31.9400   46.4120 C   0  0  0  0  0  0  0  0  0  0  0  0
   60.4859   29.9910   46.2873 H   0  0  0  0  0  0  0  0  0  0  0  0
   60.3210   28.1010   46.4619 H   0  0  0  0  0  0  0  0  0  0  0  0
   58.8474   26.2686   44.5560 H   0  0  0  0  0  0  0  0  0  0  0  0
   55.7976   28.0455   44.4163 H   0  0  0  0  0  0  0  0  0  0  0  0
   55.3996   31.4245   45.0624 H   0  0  0  0  0  0  0  0  0  0  0  0
   56.3788   31.7226   43.5862 H   0  0  0  0  0  0  0  0  0  0  0  0
   55.1219   30.4392   43.5862 H   0  0  0  0  0  0  0  0  0  0  0  0
   57.8074   32.2953   43.4010 H   0  0  0  0  0  0  0  0  0  0  0  0
   58.5775   34.6488   43.7367 H   0  0  0  0  0  0  0  0  0  0  0  0
   59.8210   35.2766   45.8080 H   0  0  0  0  0  0  0  0  0  0  0  0
   60.7155   33.3098   50.3886 H   0  0  0  0  0  0  0  0  0  0  0  0
   61.2795   31.5990   50.2835 H   0  0  0  0  0  0  0  0  0  0  0  0
   62.7766   34.0125   51.0052 H   0  0  0  0  0  0  0  0  0  0  0  0
   63.2453   32.2623   51.1284 H   0  0  0  0  0  0  0  0  0  0  0  0
   65.9253   32.9880   49.1972 H   0  0  0  0  0  0  0  0  0  0  0  0
   65.3674   34.5241   49.9743 H   0  0  0  0  0  0  0  0  0  0  0  0
   63.6121   30.8476   51.9407 H   0  0  0  0  0  0  0  0  0  0  0  0
   64.0650   28.4033   52.0871 H   0  0  0  0  0  0  0  0  0  0  0  0
   66.3536   27.5238   51.6447 H   0  0  0  0  0  0  0  0  0  0  0  0
   68.2242   29.1040   51.1539 H   0  0  0  0  0  0  0  0  0  0  0  0
   67.7789   31.5479   50.9650 H   0  0  0  0  0  0  0  0  0  0  0  0
   64.6038   32.1029   47.7338 H   0  0  0  0  0  0  0  0  0  0  0  0
   63.9097   31.1279   49.0772 H   0  0  0  0  0  0  0  0  0  0  0  0
   62.5436   32.4539   46.7470 H   0  0  0  0  0  0  0  0  0  0  0  0
   62.1338   30.9329   47.6233 H   0  0  0  0  0  0  0  0  0  0  0  0
   59.6251   31.1684   47.1589 H   0  0  0  0  0  0  0  0  0  0  0  0
  1  2  2  0
  2  3  1  0
  3  4  2  3
  4  5  1  0
  5  6  1  0
  6  7  1  0
  7  8  2  0
  7  9  1  0
  9 10  1  0
 10 11  1  0
  3 12  1  0
 12 13  2  0
 13 14  1  0
 13 15  1  0
 15 16  1  0
 16 17  2  0
 17 18  1  0
 18 19  2  0
 19 20  1  0
 20 21  1  0
 21 22  2  0
 21 23  1  0
 23 24  1  0
 24 25  1  0
 25 26  1  0
 26 27  1  0
 27 28  1  0
 28 29  2  0
 28 30  1  0
 30 31  2  0
 31 32  1  0
 32 33  2  0
 33 34  1  0
 34 35  2  0
 26 36  1  0
 36 37  1  0
 20 38  2  0
 15  2  1  0
 38 16  1  0
 10  5  2  0
 37 23  1  0
 35 30  1  0
  1 39  1  0
  1 40  1  0
  4 41  1  0
 12 42  1  0
 14 43  1  0
 14 44  1  0
 14 45  1  0
 17 46  1  0
 18 47  1  0
 19 48  1  0
 24 49  1  0
 24 50  1  0
 25 51  1  0
 25 52  1  0
 27 53  1  0
 27 54  1  0
 31 55  1  0
 32 56  1  0
 33 57  1  0
 34 58  1  0
 35 59  1  0
 36 60  1  0
 36 61  1  0
 37 62  1  0
 37 63  1  0
 38 64  1  0
M  CHG  3   6  -1   9  -1  11  -1
M  END
>  <UniqueID>  (29) 
28

>  <SMILES>  (29) 
C=c1c(=Cc2[n-]c(=O)[n-]c2[O-])cc(C)n1-c1cccc(C(=O)N2CCN(CC(=O)c3ccccc3)CC2)c1

>  <Energy>  (29) 
160.0426972646848

>  <Genealogy>  (29) 
C=c1c(=Cc2[n-]c(=O)[n-]c2[O-])cc(C)n1-c1cccc(C(=O)N2CCN(CC(=O)c3ccccc3)CC2)c1 (protonated)
C=c1c(=Cc2[n-]c(=O)[n-]c2[O-])cc(C)n1-c1cccc(C(=O)N2CCN(CC(=O)c3ccccc3)CC2)c1 (3D coordinates assigned)
C=c1c(=Cc2[n-]c(=O)[n-]c2[O-])cc(C)n1-c1cccc(C(=O)N2CCN(CC(=O)c3ccccc3)CC2)c1 (nonaromatic ring conformer: 160.0426972646848 kcal/mol)

>  <smiles>  (29) 
C=c1c(=Cc2[nH]c(=O)[nH]c2O)cc(C)n1-c1cccc(C(=O)N2CCN(CC(=O)c3ccccc3)CC2)c1

>  <score_type>  (29) 
oracle

>  <origin>  (29) 
adg

>  <m_score__min__energy>  (29) 
-19.190000000000001

>  <m_primary>  (29) 
energy

$$$$
29:0
     RDKit          3D

 50 52  0  0  0  0  0  0  0  0999 V2000
   60.1640   32.9360   49.3730 C   0  0  0  0  0  0  0  0  0  0  0  0
   59.5780   34.0970   48.7930 O   0  0  0  0  0  0  0  0  0  0  0  0
   59.2700   34.2350   47.4300 C   0  0  0  0  0  0  0  0  0  0  0  0
   59.8570   35.2300   46.6260 C   0  0  0  0  0  0  0  0  0  0  0  0
   59.5120   35.3400   45.2770 C   0  0  0  0  0  0  0  0  0  0  0  0
   58.5900   34.4550   44.7140 C   0  0  0  0  0  0  0  0  0  0  0  0
   58.0190   33.4400   45.4920 C   0  0  0  0  0  0  0  0  0  0  0  0
   57.0270   32.5370   44.8730 C   0  0  0  0  0  0  0  0  0  0  0  0
   57.3250   31.4530   44.1390 C   0  0  0  0  0  0  0  0  0  0  0  0
   57.1840   30.0480   44.5820 C   0  0  0  0  0  0  0  0  0  0  0  0
   56.2120   29.6950   45.3040 O   0  0  0  0  0  0  0  0  0  0  0  0
   58.1750   29.0880   44.1840 N   0  0  0  0  0  0  0  0  0  0  0  0
   58.2620   27.7540   44.7140 C   0  0  0  0  0  0  0  0  0  0  0  0
   58.8880   27.4930   45.9450 C   0  0  0  0  0  0  0  0  0  0  0  0
   58.9690   26.1860   46.4300 C   0  0  0  0  0  0  0  0  0  0  0  0
   58.4490   25.1260   45.6850 C   0  0  0  0  0  0  0  0  0  0  0  0
   57.8660   25.3650   44.4290 C   0  0  0  0  0  0  0  0  0  0  0  0
   57.3310   24.3010   43.6290 N   0  0  0  0  0  0  0  0  0  0  0  0
   56.3910   23.3050   44.0520 C   0  0  0  0  0  0  0  0  0  0  0  0
   55.7890   22.6290   43.1760 O   0  0  0  0  0  0  0  0  0  0  0  0
   56.1170   23.0340   45.4840 C   0  0  0  0  0  0  0  0  0  0  0  0
   56.9180   22.0820   46.1380 C   0  0  0  0  0  0  0  0  0  0  0  0
   56.6460   21.7040   47.4530 C   0  0  0  0  0  0  0  0  0  0  0  0
   55.5730   22.2720   48.1350 C   0  0  0  0  0  0  0  0  0  0  0  0
   54.7790   23.2370   47.5130 C   0  0  0  0  0  0  0  0  0  0  0  0
   55.0490   23.6500   46.1940 C   0  0  0  0  0  0  0  0  0  0  0  0
   54.2360   24.7520   45.6240 C   0  0  0  0  0  0  0  0  0  0  0  0
   54.5220   26.1110   45.9430 N   0  0  0  0  0  0  0  0  0  0  0  0
   53.2540   24.4880   44.8790 O   0  0  0  0  0  0  0  0  0  0  0  0
   57.7640   26.6810   43.9590 C   0  0  0  0  0  0  0  0  0  0  0  0
   58.3430   33.3500   46.8610 C   0  0  0  0  0  0  0  0  0  0  0  0
   57.7350   32.3900   47.6650 O   0  0  0  0  0  0  0  0  0  0  0  0
   60.1246   33.0142   50.4695 H   0  0  0  0  0  0  0  0  0  0  0  0
   59.6083   32.0438   49.0488 H   0  0  0  0  0  0  0  0  0  0  0  0
   61.2119   32.8532   49.0488 H   0  0  0  0  0  0  0  0  0  0  0  0
   60.5907   35.9240   47.0619 H   0  0  0  0  0  0  0  0  0  0  0  0
   59.9677   36.1257   44.6565 H   0  0  0  0  0  0  0  0  0  0  0  0
   58.3110   34.5556   43.6547 H   0  0  0  0  0  0  0  0  0  0  0  0
   55.9629   32.7706   45.0251 H   0  0  0  0  0  0  0  0  0  0  0  0
   57.7065   31.6238   43.1215 H   0  0  0  0  0  0  0  0  0  0  0  0
   58.8050   29.3400   43.3900 H   0  0  0  0  0  0  0  0  0  0  0  0
   59.3158   28.3215   46.5286 H   0  0  0  0  0  0  0  0  0  0  0  0
   59.4443   25.9909   47.4027 H   0  0  0  0  0  0  0  0  0  0  0  0
   58.4958   24.1013   46.0822 H   0  0  0  0  0  0  0  0  0  0  0  0
   57.7688   21.6300   45.6070 H   0  0  0  0  0  0  0  0  0  0  0  0
   57.2800   20.9562   47.9518 H   0  0  0  0  0  0  0  0  0  0  0  0
   55.3506   21.9596   49.1660 H   0  0  0  0  0  0  0  0  0  0  0  0
   53.9330   23.6798   48.0592 H   0  0  0  0  0  0  0  0  0  0  0  0
   53.8110   26.7140   46.4140 H   0  0  0  0  0  0  0  0  0  0  0  0
   57.2879   26.8754   42.9866 H   0  0  0  0  0  0  0  0  0  0  0  0
  1  2  1  0
  2  3  1  0
  3  4  2  0
  4  5  1  0
  5  6  2  0
  6  7  1  0
  7  8  1  0
  8  9  2  3
  9 10  1  0
 10 11  2  0
 10 12  1  0
 12 13  1  0
 13 14  2  0
 14 15  1  0
 15 16  2  0
 16 17  1  0
 17 18  1  0
 18 19  1  0
 19 20  2  0
 19 21  1  0
 21 22  2  0
 22 23  1  0
 23 24  2  0
 24 25  1  0
 25 26  2  0
 26 27  1  0
 27 28  1  0
 27 29  2  0
 17 30  2  0
  7 31  2  0
 31 32  1  0
 31  3  1  0
 30 13  1  0
 26 21  1  0
  1 33  1  0
  1 34  1  0
  1 35  1  0
  4 36  1  0
  5 37  1  0
  6 38  1  0
  8 39  1  0
  9 40  1  0
 12 41  1  0
 14 42  1  0
 15 43  1  0
 16 44  1  0
 22 45  1  0
 23 46  1  0
 24 47  1  0
 25 48  1  0
 28 49  1  0
 30 50  1  0
M  CHG  3  18  -1  28  -1  32  -1
M  END
>  <UniqueID>  (30) 
29

>  <SMILES>  (30) 
COc1cccc(C=CC(=O)Nc2cccc([N-]C(=O)c3ccccc3C([NH-])=O)c2)c1[O-]

>  <Energy>  (30) 
76.80608042703714

>  <Genealogy>  (30) 
COc1cccc(C=CC(=O)Nc2cccc([N-]C(=O)c3ccccc3C([NH-])=O)c2)c1[O-] (protonated)
COc1cccc(C=CC(=O)Nc2cccc([N-]C(=O)c3ccccc3C([NH-])=O)c2)c1[O-] (3D coordinates assigned)
COc1cccc(C=CC(=O)Nc2cccc([N-]C(=O)c3ccccc3C([NH-])=O)c2)c1[O-] (optimized conformer: 76.80608042703714 kcal/mol)

>  <smiles>  (30) 
COc1cccc(C=CC(=O)Nc2cccc(NC(=O)c3ccccc3C(N)=O)c2)c1O

>  <score_type>  (30) 
oracle

>  <origin>  (30) 
adg

>  <m_score__min__energy>  (30) 
-14.449999999999999

>  <m_primary>  (30) 
energy

$$$$
30:0
     RDKit          3D

 47 50  0  0  0  0  0  0  0  0999 V2000
   61.9500   30.4110   46.7200 O   0  0  0  0  0  0  0  0  0  0  0  0
   60.7950   30.9090   46.7980 C   0  0  0  0  0  0  0  0  0  0  0  0
   59.6210   30.0520   46.5380 C   0  0  0  0  0  0  0  0  0  0  0  0
   59.4370   28.8360   47.0970 N   0  0  0  0  0  0  0  0  0  0  0  0
   58.2400   28.3650   46.6820 C   0  0  0  0  0  0  0  0  0  0  0  0
   57.6580   27.0720   47.1770 C   0  0  0  0  0  0  0  0  0  0  0  0
   57.4270   26.1310   46.0250 C   0  0  0  0  0  0  0  0  0  0  0  0
   57.9620   26.4090   44.7560 C   0  0  0  0  0  0  0  0  0  0  0  0
   57.7170   25.5480   43.6820 C   0  0  0  0  0  0  0  0  0  0  0  0
   56.9300   24.4040   43.8630 C   0  0  0  0  0  0  0  0  0  0  0  0
   56.6790   23.5380   42.8010 O   0  0  0  0  0  0  0  0  0  0  0  0
   56.3890   24.1260   45.1220 C   0  0  0  0  0  0  0  0  0  0  0  0
   56.6320   24.9850   46.1970 C   0  0  0  0  0  0  0  0  0  0  0  0
   57.6420   29.3060   45.8510 C   0  0  0  0  0  0  0  0  0  0  0  0
   56.4170   29.3210   45.1700 C   0  0  0  0  0  0  0  0  0  0  0  0
   55.5280   28.2570   45.2330 O   0  0  0  0  0  0  0  0  0  0  0  0
   56.1020   30.4530   44.3970 C   0  0  0  0  0  0  0  0  0  0  0  0
   57.0040   31.5330   44.3100 C   0  0  0  0  0  0  0  0  0  0  0  0
   58.2280   31.4980   44.9970 C   0  0  0  0  0  0  0  0  0  0  0  0
   58.5160   30.3670   45.7670 C   0  0  0  0  0  0  0  0  0  0  0  0
   60.6410   32.3010   47.1330 N   0  0  0  0  0  0  0  0  0  0  0  0
   61.6680   33.2740   46.7430 C   0  0  0  0  0  0  0  0  0  0  0  0
   62.3050   33.9150   47.9860 C   0  0  0  0  0  0  0  0  0  0  0  0
   61.2970   34.1720   49.1290 C   0  0  0  0  0  0  0  0  0  0  0  0
   59.8380   34.0930   48.6620 C   0  0  0  0  0  0  0  0  0  0  0  0
   59.5520   32.7220   48.0330 C   0  0  0  0  0  0  0  0  0  0  0  0
   60.0750   28.3660   47.7780 H   0  0  0  0  0  0  0  0  0  0  0  0
   58.3558   26.6089   47.8901 H   0  0  0  0  0  0  0  0  0  0  0  0
   56.6969   27.2770   47.6712 H   0  0  0  0  0  0  0  0  0  0  0  0
   58.5769   27.3088   44.6066 H   0  0  0  0  0  0  0  0  0  0  0  0
   58.1434   25.7698   42.6926 H   0  0  0  0  0  0  0  0  0  0  0  0
   56.8320   23.8220   41.8390 H   0  0  0  0  0  0  0  0  0  0  0  0
   55.7701   23.2282   45.2667 H   0  0  0  0  0  0  0  0  0  0  0  0
   56.1986   24.7630   47.1833 H   0  0  0  0  0  0  0  0  0  0  0  0
   55.1450   30.4960   43.8564 H   0  0  0  0  0  0  0  0  0  0  0  0
   56.7467   32.4105   43.6987 H   0  0  0  0  0  0  0  0  0  0  0  0
   58.9388   32.3349   44.9314 H   0  0  0  0  0  0  0  0  0  0  0  0
   62.4480   32.7624   46.1601 H   0  0  0  0  0  0  0  0  0  0  0  0
   61.1975   34.0634   46.1384 H   0  0  0  0  0  0  0  0  0  0  0  0
   63.0923   33.2438   48.3598 H   0  0  0  0  0  0  0  0  0  0  0  0
   62.7037   34.8930   47.6787 H   0  0  0  0  0  0  0  0  0  0  0  0
   61.4562   33.4185   49.9144 H   0  0  0  0  0  0  0  0  0  0  0  0
   61.4712   35.1921   49.5019 H   0  0  0  0  0  0  0  0  0  0  0  0
   59.1724   34.2420   49.5250 H   0  0  0  0  0  0  0  0  0  0  0  0
   59.6610   34.8753   47.9093 H   0  0  0  0  0  0  0  0  0  0  0  0
   59.4432   31.9769   48.8349 H   0  0  0  0  0  0  0  0  0  0  0  0
   58.6276   32.8003   47.4420 H   0  0  0  0  0  0  0  0  0  0  0  0
  1  2  2  0
  2  3  1  0
  3  4  1  0
  4  5  1  0
  5  6  1  0
  6  7  1  0
  7  8  2  0
  8  9  1  0
  9 10  2  0
 10 11  1  0
 10 12  1  0
 12 13  2  0
  5 14  2  0
 14 15  1  0
 15 16  1  0
 15 17  2  0
 17 18  1  0
 18 19  2  0
 19 20  1  0
  2 21  1  0
 21 22  1  0
 22 23  1  0
 23 24  1  0
 24 25  1  0
 25 26  1  0
 20  3  2  0
 26 21  1  0
 13  7  1  0
 20 14  1  0
  4 27  1  0
  6 28  1  0
  6 29  1  0
  8 30  1  0
  9 31  1  0
 11 32  1  0
 12 33  1  0
 13 34  1  0
 17 35  1  0
 18 36  1  0
 19 37  1  0
 22 38  1  0
 22 39  1  0
 23 40  1  0
 23 41  1  0
 24 42  1  0
 24 43  1  0
 25 44  1  0
 25 45  1  0
 26 46  1  0
 26 47  1  0
M  CHG  1  16  -1
M  END
>  <UniqueID>  (31) 
30

>  <SMILES>  (31) 
O=C(c1[nH]c(Cc2ccc(O)cc2)c2c([O-])cccc12)N1CCCCC1

>  <Energy>  (31) 
88.47709351400334

>  <Genealogy>  (31) 
O=C(c1[nH]c(Cc2ccc(O)cc2)c2c([O-])cccc12)N1CCCCC1 (protonated)
O=C(c1[nH]c(Cc2ccc(O)cc2)c2c([O-])cccc12)N1CCCCC1 (3D coordinates assigned)
O=C(c1[nH]c(Cc2ccc(O)cc2)c2c([O-])cccc12)N1CCCCC1 (nonaromatic ring conformer: 88.47709351400334 kcal/mol)

>  <smiles>  (31) 
O=C(c1[nH]c(Cc2ccc(O)cc2)c2c(O)cccc12)N1CCCCC1

>  <score_type>  (31) 
oracle

>  <origin>  (31) 
adg

>  <m_score__min__energy>  (31) 
-11.15

>  <m_primary>  (31) 
energy

$$$$
31:0
     RDKit          3D

 32 33  0  0  0  0  0  0  0  0999 V2000
   55.1820   29.4540   45.0080 O   0  0  0  0  0  0  0  0  0  0  0  0
   55.3470   29.7620   43.6590 C   0  0  0  0  0  0  0  0  0  0  0  0
   56.8560   29.7970   43.3840 C   0  0  0  0  0  0  0  0  0  0  0  0
   57.2480   31.2340   43.2270 C   0  0  0  0  0  0  0  0  0  0  0  0
   57.6820   31.8320   44.5160 C   0  0  0  0  0  0  0  0  0  0  0  0
   58.4090   32.9790   44.7570 C   0  0  0  0  0  0  0  0  0  0  0  0
   58.5670   33.1330   46.1350 C   0  0  0  0  0  0  0  0  0  0  0  0
   59.2940   34.2700   46.7250 C   0  0  0  0  0  0  0  0  0  0  0  0
   60.6220   33.9550   47.2510 C   0  0  0  0  0  0  0  0  0  0  0  0
   61.6800   33.8530   46.3570 C   0  0  0  0  0  0  0  0  0  0  0  0
   62.9640   33.5580   46.7390 C   0  0  0  0  0  0  0  0  0  0  0  0
   63.2590   33.3460   48.0730 C   0  0  0  0  0  0  0  0  0  0  0  0
   62.2120   33.4470   48.9640 C   0  0  0  0  0  0  0  0  0  0  0  0
   60.9230   33.7430   48.5780 C   0  0  0  0  0  0  0  0  0  0  0  0
   59.6550   33.8590   49.7760 Cl  0  0  0  0  0  0  0  0  0  0  0  0
   57.9390   32.0910   46.6750 N   0  0  0  0  0  0  0  0  0  0  0  0
   57.4150   31.3180   45.7410 N   0  0  0  0  0  0  0  0  0  0  0  0
   55.6480   30.0780   45.6210 H   0  0  0  0  0  0  0  0  0  0  0  0
   54.8678   28.9930   43.0353 H   0  0  0  0  0  0  0  0  0  0  0  0
   54.8835   30.7304   43.4196 H   0  0  0  0  0  0  0  0  0  0  0  0
   57.4025   29.3478   44.2264 H   0  0  0  0  0  0  0  0  0  0  0  0
   57.0992   29.2260   42.4758 H   0  0  0  0  0  0  0  0  0  0  0  0
   58.0769   31.3002   42.5069 H   0  0  0  0  0  0  0  0  0  0  0  0
   56.3689   31.7910   42.8707 H   0  0  0  0  0  0  0  0  0  0  0  0
   58.8006   33.6614   43.9882 H   0  0  0  0  0  0  0  0  0  0  0  0
   59.4096   35.0400   45.9480 H   0  0  0  0  0  0  0  0  0  0  0  0
   58.6953   34.6011   47.5863 H   0  0  0  0  0  0  0  0  0  0  0  0
   61.4780   34.0171   45.2882 H   0  0  0  0  0  0  0  0  0  0  0  0
   63.7601   33.4900   45.9829 H   0  0  0  0  0  0  0  0  0  0  0  0
   64.2797   33.1083   48.4072 H   0  0  0  0  0  0  0  0  0  0  0  0
   62.4151   33.2837   50.0327 H   0  0  0  0  0  0  0  0  0  0  0  0
   57.8580   31.8930   47.6910 H   0  0  0  0  0  0  0  0  0  0  0  0
  1  2  1  0
  2  3  1  0
  3  4  1  0
  4  5  1  0
  5  6  1  0
  6  7  2  0
  7  8  1  0
  8  9  1  0
  9 10  2  0
 10 11  1  0
 11 12  2  0
 12 13  1  0
 13 14  2  0
 14 15  1  0
  7 16  1  0
 16 17  1  0
 17  5  2  0
 14  9  1  0
  1 18  1  0
  2 19  1  0
  2 20  1  0
  3 21  1  0
  3 22  1  0
  4 23  1  0
  4 24  1  0
  6 25  1  0
  8 26  1  0
  8 27  1  0
 10 28  1  0
 11 29  1  0
 12 30  1  0
 13 31  1  0
 16 32  1  0
M  END
>  <smiles>  (32) 
OCCCc1cc(Cc2ccccc2Cl)[nH]n1

>  <score_type>  (32) 
oracle

>  <origin>  (32) 
adg

>  <m_score__min__energy>  (32) 
-8.0299999999999994

>  <m_primary>  (32) 
energy

$$$$
32:0
     RDKit          3D

 59 63  0  0  0  0  0  0  0  0999 V2000
   50.0100   32.3350   49.6910 H   0  0  0  0  0  0  0  0  0  0  0  0
   51.0250   32.3300   49.9500 N   0  0  0  0  0  0  0  0  0  0  0  0
   51.4330   32.3040   51.3240 C   0  0  0  0  0  0  0  0  0  0  0  0
   51.0740   33.2330   52.1040 O   0  0  0  0  0  0  0  0  0  0  0  0
   52.2760   31.1980   51.8140 C   0  0  0  0  0  0  0  0  0  0  0  0
   53.5970   31.1760   51.4910 N   0  0  0  0  0  0  0  0  0  0  0  0
   54.4260   30.1880   51.9280 C   0  0  0  0  0  0  0  0  0  0  0  0
   55.6920   30.1710   51.6040 N   0  0  0  0  0  0  0  0  0  0  0  0
   56.7100   31.0900   52.0520 C   0  0  0  0  0  0  0  0  0  0  0  0
   56.9920   31.1850   53.4220 C   0  0  0  0  0  0  0  0  0  0  0  0
   56.4475   30.5569   54.1424 H   0  0  0  0  0  0  0  0  0  0  0  0
   57.9690   32.0820   53.8700 C   0  0  0  0  0  0  0  0  0  0  0  0
   58.1983   32.1527   54.9435 H   0  0  0  0  0  0  0  0  0  0  0  0
   58.6350   32.8660   52.9810 N   0  0  0  0  0  0  0  0  0  0  0  0
   58.3680   32.8150   51.6430 C   0  0  0  0  0  0  0  0  0  0  0  0
   59.0340   33.5440   50.7990 N   0  0  0  0  0  0  0  0  0  0  0  0
   60.4030   33.2890   50.3560 C   0  0  0  0  0  0  0  0  0  0  0  0
   61.1020   33.9160   50.9290 H   0  0  0  0  0  0  0  0  0  0  0  0
   60.6625   32.2323   50.5176 H   0  0  0  0  0  0  0  0  0  0  0  0
   60.4980   33.6270   48.8960 C   0  0  0  0  0  0  0  0  0  0  0  0
   61.7290   33.5320   48.2250 C   0  0  0  0  0  0  0  0  0  0  0  0
   62.6495   33.3365   48.7946 H   0  0  0  0  0  0  0  0  0  0  0  0
   61.7890   33.6850   46.8360 C   0  0  0  0  0  0  0  0  0  0  0  0
   62.7595   33.6377   46.3203 H   0  0  0  0  0  0  0  0  0  0  0  0
   60.6180   33.8980   46.1010 C   0  0  0  0  0  0  0  0  0  0  0  0
   60.6677   33.9929   45.0062 H   0  0  0  0  0  0  0  0  0  0  0  0
   59.3810   33.9910   46.7550 C   0  0  0  0  0  0  0  0  0  0  0  0
   58.1130   34.0770   45.9460 C   0  0  0  0  0  0  0  0  0  0  0  0
   57.2462   33.9333   46.6078 H   0  0  0  0  0  0  0  0  0  0  0  0
   58.0516   35.0656   45.4676 H   0  0  0  0  0  0  0  0  0  0  0  0
   58.1160   33.0400   44.9170 N   0  0  0  0  0  0  0  0  0  0  0  0
   57.5410   31.7370   45.0960 C   0  0  0  0  0  0  0  0  0  0  0  0
   56.3830   31.4940   44.6490 O   0  0  0  0  0  0  0  0  0  0  0  0
   58.2770   30.6860   45.8410 C   0  0  0  0  0  0  0  0  0  0  0  0
   58.7420   29.5310   45.1740 C   0  0  0  0  0  0  0  0  0  0  0  0
   58.5400   29.4006   44.1006 H   0  0  0  0  0  0  0  0  0  0  0  0
   59.4580   28.5520   45.8710 C   0  0  0  0  0  0  0  0  0  0  0  0
   59.8169   27.6558   45.3437 H   0  0  0  0  0  0  0  0  0  0  0  0
   59.7210   28.7100   47.2460 C   0  0  0  0  0  0  0  0  0  0  0  0
   60.4350   27.7300   47.9570 C   0  0  0  0  0  0  0  0  0  0  0  0
   60.8047   26.8339   47.4370 H   0  0  0  0  0  0  0  0  0  0  0  0
   60.6770   27.8940   49.3320 C   0  0  0  0  0  0  0  0  0  0  0  0
   61.2300   27.1202   49.8846 H   0  0  0  0  0  0  0  0  0  0  0  0
   60.2200   29.0340   50.0040 C   0  0  0  0  0  0  0  0  0  0  0  0
   60.4109   29.1499   51.0811 H   0  0  0  0  0  0  0  0  0  0  0  0
   59.5210   30.0260   49.3080 C   0  0  0  0  0  0  0  0  0  0  0  0
   59.1726   30.9266   49.8349 H   0  0  0  0  0  0  0  0  0  0  0  0
   59.2630   29.8700   47.9280 C   0  0  0  0  0  0  0  0  0  0  0  0
   58.5440   30.8470   47.2220 C   0  0  0  0  0  0  0  0  0  0  0  0
   58.1850   31.7451   47.7459 H   0  0  0  0  0  0  0  0  0  0  0  0
   59.3300   33.8760   48.1570 C   0  0  0  0  0  0  0  0  0  0  0  0
   58.3671   33.9821   48.6782 H   0  0  0  0  0  0  0  0  0  0  0  0
   57.3820   31.9460   51.1620 C   0  0  0  0  0  0  0  0  0  0  0  0
   57.1335   31.9328   50.0905 H   0  0  0  0  0  0  0  0  0  0  0  0
   53.9190   29.1780   52.6900 N   0  0  0  0  0  0  0  0  0  0  0  0
   52.6040   29.1510   53.0360 C   0  0  0  0  0  0  0  0  0  0  0  0
   52.1610   28.2050   53.7420 O   0  0  0  0  0  0  0  0  0  0  0  0
   51.7470   30.1660   52.6050 C   0  0  0  0  0  0  0  0  0  0  0  0
   50.6817   30.1570   52.8791 H   0  0  0  0  0  0  0  0  0  0  0  0
  1  2  1  0
  2  3  1  0
  3  4  2  0
  3  5  1  0
  5  6  1  0
  6  7  1  0
  7  8  2  0
  8  9  1  0
  9 10  1  0
 10 11  1  0
 10 12  2  0
 12 13  1  0
 12 14  1  0
 14 15  1  0
 15 16  2  3
 16 17  1  0
 17 18  1  0
 17 19  1  0
 17 20  1  0
 20 21  2  0
 21 22  1  0
 21 23  1  0
 23 24  1  0
 23 25  2  0
 25 26  1  0
 25 27  1  0
 27 28  1  0
 28 29  1  0
 28 30  1  0
 28 31  1  0
 31 32  1  0
 32 33  2  0
 32 34  1  0
 34 35  2  0
 35 36  1  0
 35 37  1  0
 37 38  1  0
 37 39  2  0
 39 40  1  0
 40 41  1  0
 40 42  2  0
 42 43  1  0
 42 44  1  0
 44 45  1  0
 44 46  2  0
 46 47  1  0
 46 48  1  0
 48 49  2  0
 49 50  1  0
 27 51  2  0
 51 52  1  0
 15 53  1  0
 53 54  1  0
  7 55  1  0
 55 56  1  0
 56 57  2  0
 56 58  1  0
 58 59  1  0
 58  5  2  0
 53  9  2  0
 51 20  1  0
 49 34  1  0
 48 39  1  0
M  CHG  5   2  -1   6  -1  14  -1  31  -1  55  -1
M  END
>  <UniqueID>  (33) 
31

>  <SMILES>  (33) 
[NH-]C(=O)c1cc(=O)[n-]/c(=N/c2cc[n-]c(=NCc3cccc(C[N-]C(=O)c4ccc5ccccc5c4)c3)c2)[n-]1

>  <Energy>  (33) 
71.6618847523163

>  <Genealogy>  (33) 
[NH-]C(=O)c1cc(=O)[n-]c(=Nc2cc[n-]c(=NCc3cccc(C[N-]C(=O)c4ccc5ccccc5c4)c3)c2)[n-]1 (protonated)
[NH-]C(=O)c1cc(=O)[n-]/c(=N/c2cc[n-]c(=NCc3cccc(C[N-]C(=O)c4ccc5ccccc5c4)c3)c2)[n-]1 (cis-trans isomerization)
[NH-]C(=O)c1cc(=O)[n-]/c(=N/c2cc[n-]c(=NCc3cccc(C[N-]C(=O)c4ccc5ccccc5c4)c3)c2)[n-]1 (3D coordinates assigned)
[NH-]C(=O)c1cc(=O)[n-]/c(=N/c2cc[n-]c(=NCc3cccc(C[N-]C(=O)c4ccc5ccccc5c4)c3)c2)[n-]1 (optimized conformer: 71.6618847523163 kcal/mol)

>  <smiles>  (33) 
NC(=O)c1cc(=O)[nH]c(=Nc2cc[nH]c(=NCc3cccc(CNC(=O)c4ccc5ccccc5c4)c3)c2)[nH]1

>  <score_type>  (33) 
oracle

>  <origin>  (33) 
adg

>  <m_score__min__energy>  (33) 
-18.66

>  <m_primary>  (33) 
energy

$$$$
33:0
     RDKit          3D

 60 62  0  0  1  0  0  0  0  0999 V2000
   57.4210   32.0920   41.7880 C   0  0  0  0  0  0  0  0  0  0  0  0
   57.5840   31.1740   42.9860 C   0  0  0  0  0  0  0  0  0  0  0  0
   56.3140   31.1860   43.8550 C   0  0  1  0  0  0  0  0  0  0  0  0
   55.8450   29.7210   43.7960 C   0  0  0  0  0  0  0  0  0  0  0  0
   55.2300   29.3570   44.9670 O   0  0  0  0  0  0  0  0  0  0  0  0
   56.6900   31.4290   45.1740 N   0  0  0  0  0  0  0  0  0  0  0  0
   57.7580   31.0450   45.7740 C   0  0  0  0  0  0  0  0  0  0  0  0
   58.0120   29.7140   45.7970 N   0  0  0  0  0  0  0  0  0  0  0  0
   59.1120   29.2700   46.4090 C   0  0  0  0  0  0  0  0  0  0  0  0
   59.4470   27.8790   46.5220 N   0  0  0  0  0  0  0  0  0  0  0  0
   59.5350   27.0630   47.7050 C   0  0  0  0  0  0  0  0  0  0  0  0
   59.7710   25.8130   46.8470 C   0  0  0  0  0  0  0  0  0  0  0  0
   58.6890   24.9170   46.9480 O   0  0  0  0  0  0  0  0  0  0  0  0
   58.1850   24.2800   45.8490 C   0  0  0  0  0  0  0  0  0  0  0  0
   58.5780   23.0700   45.3500 C   0  0  0  0  0  0  0  0  0  0  0  0
   57.9960   22.4930   44.2120 C   0  0  0  0  0  0  0  0  0  0  0  0
   56.9870   23.1650   43.5600 C   0  0  0  0  0  0  0  0  0  0  0  0
   56.5690   24.3920   44.0420 C   0  0  0  0  0  0  0  0  0  0  0  0
   57.1530   24.9470   45.1670 C   0  0  0  0  0  0  0  0  0  0  0  0
   59.7970   26.7590   45.7030 C   0  0  0  0  0  0  0  0  0  0  0  0
   59.9860   30.1650   47.0160 C   0  0  0  0  0  0  0  0  0  0  0  0
   61.0710   29.6760   47.5960 F   0  0  0  0  0  0  0  0  0  0  0  0
   59.7370   31.5040   46.9990 C   0  0  0  0  0  0  0  0  0  0  0  0
   60.5120   32.3460   47.5870 N   0  0  0  0  0  0  0  0  0  0  0  0
   60.0000   33.5690   48.2140 C   0  0  1  0  0  0  0  0  0  0  0  0
   60.8870   34.1280   49.2670 C   0  0  0  0  0  0  0  0  0  0  0  0
   60.0460   34.5680   47.0640 C   0  0  0  0  0  0  0  0  0  0  0  0
   58.8740   34.7130   46.3650 O   0  0  0  0  0  0  0  0  0  0  0  0
   59.1220   34.7510   45.0080 C   0  0  0  0  0  0  0  0  0  0  0  0
   58.6030   31.9240   46.3630 N   0  0  0  0  0  0  0  0  0  0  0  0
   57.2385   33.1196   42.1356 H   0  0  0  0  0  0  0  0  0  0  0  0
   58.3375   32.0678   41.1802 H   0  0  0  0  0  0  0  0  0  0  0  0
   56.5689   31.7538   41.1802 H   0  0  0  0  0  0  0  0  0  0  0  0
   57.7708   30.1490   42.6331 H   0  0  0  0  0  0  0  0  0  0  0  0
   58.4311   31.5286   43.5915 H   0  0  0  0  0  0  0  0  0  0  0  0
   55.5682   31.9266   43.5305 H   0  0  0  0  0  0  0  0  0  0  0  0
   55.1347   29.6033   42.9643 H   0  0  0  0  0  0  0  0  0  0  0  0
   56.7234   29.0763   43.6448 H   0  0  0  0  0  0  0  0  0  0  0  0
   55.4280   30.0930   45.6150 H   0  0  0  0  0  0  0  0  0  0  0  0
   57.3550   29.0550   45.3410 H   0  0  0  0  0  0  0  0  0  0  0  0
   60.3790   27.3192   48.3623 H   0  0  0  0  0  0  0  0  0  0  0  0
   58.7218   27.0772   48.4457 H   0  0  0  0  0  0  0  0  0  0  0  0
   60.5826   25.0811   46.9723 H   0  0  0  0  0  0  0  0  0  0  0  0
   59.3848   22.5257   45.8626 H   0  0  0  0  0  0  0  0  0  0  0  0
   58.3416   21.5153   43.8449 H   0  0  0  0  0  0  0  0  0  0  0  0
   56.5180   22.7306   42.6648 H   0  0  0  0  0  0  0  0  0  0  0  0
   55.7628   24.9331   43.5250 H   0  0  0  0  0  0  0  0  0  0  0  0
   56.8045   25.9242   45.5327 H   0  0  0  0  0  0  0  0  0  0  0  0
   60.7884   26.8523   45.2357 H   0  0  0  0  0  0  0  0  0  0  0  0
   59.1814   26.5371   44.8188 H   0  0  0  0  0  0  0  0  0  0  0  0
   59.0263   33.3717   48.6862 H   0  0  0  0  0  0  0  0  0  0  0  0
   60.4841   33.8741   50.2586 H   0  0  0  0  0  0  0  0  0  0  0  0
   61.8956   33.7020   49.1610 H   0  0  0  0  0  0  0  0  0  0  0  0
   60.9379   35.2217   49.1610 H   0  0  0  0  0  0  0  0  0  0  0  0
   60.3184   35.5501   47.4779 H   0  0  0  0  0  0  0  0  0  0  0  0
   60.7804   34.1723   46.3470 H   0  0  0  0  0  0  0  0  0  0  0  0
   60.1959   34.9155   44.8360 H   0  0  0  0  0  0  0  0  0  0  0  0
   58.8199   33.7961   44.5532 H   0  0  0  0  0  0  0  0  0  0  0  0
   58.5478   35.5717   44.5532 H   0  0  0  0  0  0  0  0  0  0  0  0
   58.3820   32.9180   46.3300 H   0  0  0  0  0  0  0  0  0  0  0  0
  1  2  1  0
  2  3  1  0
  3  4  1  0
  4  5  1  0
  3  6  1  0
  6  7  2  0
  7  8  1  0
  8  9  1  0
  9 10  1  0
 10 11  1  0
 11 12  1  0
 12 13  1  0
 13 14  1  0
 14 15  2  0
 15 16  1  0
 16 17  2  0
 17 18  1  0
 18 19  2  0
 12 20  1  0
  9 21  2  0
 21 22  1  0
 21 23  1  0
 23 24  2  0
 24 25  1  0
 25 26  1  0
 25 27  1  0
 27 28  1  0
 28 29  1  0
 23 30  1  0
 30  7  1  0
 20 10  1  0
 19 14  1  0
  1 31  1  0
  1 32  1  0
  1 33  1  0
  2 34  1  0
  2 35  1  0
  3 36  1  6
  4 37  1  0
  4 38  1  0
  5 39  1  0
  8 40  1  0
 11 41  1  0
 11 42  1  0
 12 43  1  0
 15 44  1  0
 16 45  1  0
 17 46  1  0
 18 47  1  0
 19 48  1  0
 20 49  1  0
 20 50  1  0
 25 51  1  1
 26 52  1  0
 26 53  1  0
 26 54  1  0
 27 55  1  0
 27 56  1  0
 29 57  1  0
 29 58  1  0
 29 59  1  0
 30 60  1  0
M  END
>  <smiles>  (34) 
CCC(CO)N=c1[nH]c(N2CC(Oc3ccccc3)C2)c(F)c(=NC(C)COC)[nH]1

>  <score_type>  (34) 
oracle

>  <origin>  (34) 
adg

>  <m_score__min__energy>  (34) 
-8.2699999999999996

>  <m_primary>  (34) 
energy

$$$$
34:0
     RDKit          3D

 57 60  0  0  0  0  0  0  0  0999 V2000
   52.3505   24.9746   43.7502 H   0  0  0  0  0  0  0  0  0  0  0  0
   52.4120   24.0870   44.3970 C   0  0  0  0  0  0  0  0  0  0  0  0
   53.6200   23.6530   44.8430 N   0  0  0  0  0  0  0  0  0  0  0  0
   53.7210   22.5610   45.6440 C   0  0  0  0  0  0  0  0  0  0  0  0
   54.8910   22.1780   46.0550 N   0  0  0  0  0  0  0  0  0  0  0  0
   56.3600   22.4650   45.1780 S   0  0  0  0  0  0  0  0  0  0  0  0
   56.2070   21.9800   43.7630 O   0  0  0  0  0  0  0  0  0  0  0  0
   57.5000   21.7350   45.8300 O   0  0  0  0  0  0  0  0  0  0  0  0
   56.7010   24.1920   45.1850 C   0  0  0  0  0  0  0  0  0  0  0  0
   57.4020   24.7670   44.1180 C   0  0  0  0  0  0  0  0  0  0  0  0
   57.7342   24.1387   43.2784 H   0  0  0  0  0  0  0  0  0  0  0  0
   57.6810   26.1360   44.1160 C   0  0  0  0  0  0  0  0  0  0  0  0
   58.2408   26.5781   43.2786 H   0  0  0  0  0  0  0  0  0  0  0  0
   57.2520   26.9510   45.1750 C   0  0  0  0  0  0  0  0  0  0  0  0
   57.5670   28.3530   45.1550 N   0  0  0  0  0  0  0  0  0  0  0  0
   58.5720   28.6190   45.2550 H   0  0  0  0  0  0  0  0  0  0  0  0
   56.6040   29.3910   44.8970 C   0  0  0  0  0  0  0  0  0  0  0  0
   55.3840   29.1120   44.7590 O   0  0  0  0  0  0  0  0  0  0  0  0
   57.0070   30.7640   44.8210 N   0  0  0  0  0  0  0  0  0  0  0  0
   57.8270   31.4510   45.7760 C   0  0  0  0  0  0  0  0  0  0  0  0
   58.4600   30.7120   46.7820 C   0  0  0  0  0  0  0  0  0  0  0  0
   58.3368   29.6195   46.8176 H   0  0  0  0  0  0  0  0  0  0  0  0
   59.2480   31.3540   47.7420 C   0  0  0  0  0  0  0  0  0  0  0  0
   59.7487   30.7642   48.5240 H   0  0  0  0  0  0  0  0  0  0  0  0
   59.4020   32.7470   47.7110 C   0  0  0  0  0  0  0  0  0  0  0  0
   60.4290   33.5550   48.8970 S   0  0  0  0  0  0  0  0  0  0  0  0
   60.7080   34.9580   48.4360 O   0  0  0  0  0  0  0  0  0  0  0  0
   59.6970   33.6370   50.2090 O   0  0  0  0  0  0  0  0  0  0  0  0
   61.9460   32.7110   49.1330 N   0  0  0  0  0  0  0  0  0  0  0  0
   63.0500   33.6540   49.3370 C   0  0  0  0  0  0  0  0  0  0  0  0
   62.6533   34.6221   49.6769 H   0  0  0  0  0  0  0  0  0  0  0  0
   63.7412   33.2665   50.1000 H   0  0  0  0  0  0  0  0  0  0  0  0
   63.7800   33.8340   48.0150 C   0  0  0  0  0  0  0  0  0  0  0  0
   63.5338   34.8099   47.5710 H   0  0  0  0  0  0  0  0  0  0  0  0
   64.8716   33.8050   48.1475 H   0  0  0  0  0  0  0  0  0  0  0  0
   63.2960   32.7100   47.1210 C   0  0  0  0  0  0  0  0  0  0  0  0
   62.8073   33.1180   46.2240 H   0  0  0  0  0  0  0  0  0  0  0  0
   64.1294   32.0790   46.7786 H   0  0  0  0  0  0  0  0  0  0  0  0
   62.2990   31.9160   47.9520 C   0  0  0  0  0  0  0  0  0  0  0  0
   61.3964   31.7138   47.3566 H   0  0  0  0  0  0  0  0  0  0  0  0
   62.7414   30.9570   48.2596 H   0  0  0  0  0  0  0  0  0  0  0  0
   58.7370   33.4930   46.7280 C   0  0  0  0  0  0  0  0  0  0  0  0
   58.8373   34.5883   46.7104 H   0  0  0  0  0  0  0  0  0  0  0  0
   57.9470   32.8510   45.7700 C   0  0  0  0  0  0  0  0  0  0  0  0
   57.4177   33.4435   45.0092 H   0  0  0  0  0  0  0  0  0  0  0  0
   56.5790   26.3640   46.2610 C   0  0  0  0  0  0  0  0  0  0  0  0
   56.2689   26.9862   47.1135 H   0  0  0  0  0  0  0  0  0  0  0  0
   56.3020   24.9940   46.2630 C   0  0  0  0  0  0  0  0  0  0  0  0
   55.7691   24.5437   47.1134 H   0  0  0  0  0  0  0  0  0  0  0  0
   52.5950   21.8840   46.0060 N   0  0  0  0  0  0  0  0  0  0  0  0
   51.3670   22.2790   45.5770 C   0  0  0  0  0  0  0  0  0  0  0  0
   50.1490   21.5250   46.0080 C   0  0  0  0  0  0  0  0  0  0  0  0
   50.1045   21.4975   47.1068 H   0  0  0  0  0  0  0  0  0  0  0  0
   49.2507   22.0252   45.6171 H   0  0  0  0  0  0  0  0  0  0  0  0
   50.1962   20.4979   45.6171 H   0  0  0  0  0  0  0  0  0  0  0  0
   51.2500   23.4060   44.7600 C   0  0  0  0  0  0  0  0  0  0  0  0
   50.2646   23.7484   44.4111 H   0  0  0  0  0  0  0  0  0  0  0  0
  1  2  1  0
  2  3  1  0
  3  4  1  0
  4  5  2  0
  5  6  1  0
  6  7  2  0
  6  8  2  0
  6  9  1  0
  9 10  2  0
 10 11  1  0
 10 12  1  0
 12 13  1  0
 12 14  2  0
 14 15  1  0
 15 16  1  0
 15 17  1  0
 17 18  2  0
 17 19  1  0
 19 20  1  0
 20 21  2  0
 21 22  1  0
 21 23  1  0
 23 24  1  0
 23 25  2  0
 25 26  1  0
 26 27  2  0
 26 28  2  0
 26 29  1  0
 29 30  1  0
 30 31  1  0
 30 32  1  0
 30 33  1  0
 33 34  1  0
 33 35  1  0
 33 36  1  0
 36 37  1  0
 36 38  1  0
 36 39  1  0
 39 40  1  0
 39 41  1  0
 25 42  1  0
 42 43  1  0
 42 44  2  0
 44 45  1  0
 14 46  1  0
 46 47  1  0
 46 48  2  0
 48 49  1  0
  4 50  1  0
 50 51  2  0
 51 52  1  0
 52 53  1  0
 52 54  1  0
 52 55  1  0
 51 56  1  0
 56 57  1  0
 56  2  2  0
 48  9  1  0
 44 20  1  0
 39 29  1  0
M  CHG  2   3  -1  19  -1
M  END
>  <UniqueID>  (35) 
32

>  <SMILES>  (35) 
Cc1cc[n-]/c(=N/S(=O)(=O)c2ccc(NC(=O)[N-]c3ccc(S(=O)(=O)N4CCCC4)cc3)cc2)n1

>  <Energy>  (35) 
71.7830743089596

>  <Genealogy>  (35) 
Cc1cc[n-]c(=NS(=O)(=O)c2ccc(NC(=O)[N-]c3ccc(S(=O)(=O)N4CCCC4)cc3)cc2)n1 (protonated)
Cc1cc[n-]/c(=N/S(=O)(=O)c2ccc(NC(=O)[N-]c3ccc(S(=O)(=O)N4CCCC4)cc3)cc2)n1 (cis-trans isomerization)
Cc1cc[n-]/c(=N/S(=O)(=O)c2ccc(NC(=O)[N-]c3ccc(S(=O)(=O)N4CCCC4)cc3)cc2)n1 (3D coordinates assigned)
Cc1cc[n-]/c(=N/S(=O)(=O)c2ccc(NC(=O)[N-]c3ccc(S(=O)(=O)N4CCCC4)cc3)cc2)n1 (nonaromatic ring conformer: 71.7830743089596 kcal/mol)

>  <smiles>  (35) 
Cc1cc[nH]c(=NS(=O)(=O)c2ccc(NC(=O)Nc3ccc(S(=O)(=O)N4CCCC4)cc3)cc2)n1

>  <score_type>  (35) 
oracle

>  <origin>  (35) 
adg

>  <m_score__min__energy>  (35) 
-12.93

>  <m_primary>  (35) 
energy

$$$$
35:0
     RDKit          3D

 45 46  0  0  0  0  0  0  0  0999 V2000
   54.2990   28.9590   44.5210 H   0  0  0  0  0  0  0  0  0  0  0  0
   55.1170   29.5270   44.3320 O   0  0  0  0  0  0  0  0  0  0  0  0
   56.3320   29.2880   44.9710 C   0  0  0  0  0  0  0  0  0  0  0  0
   57.3520   30.2490   44.9420 C   0  0  0  0  0  0  0  0  0  0  0  0
   57.1945   31.1998   44.4117 H   0  0  0  0  0  0  0  0  0  0  0  0
   58.5690   30.0030   45.5850 C   0  0  0  0  0  0  0  0  0  0  0  0
   59.3622   30.7650   45.5673 H   0  0  0  0  0  0  0  0  0  0  0  0
   58.7820   28.7870   46.2530 C   0  0  0  0  0  0  0  0  0  0  0  0
   60.0770   28.5350   46.9750 C   0  0  0  0  0  0  0  0  0  0  0  0
   60.9118   28.6127   46.2629 H   0  0  0  0  0  0  0  0  0  0  0  0
   60.0539   27.5273   47.4154 H   0  0  0  0  0  0  0  0  0  0  0  0
   60.2610   29.5420   48.0650 C   0  0  0  0  0  0  0  0  0  0  0  0
   60.0490   30.7640   47.8350 O   0  0  0  0  0  0  0  0  0  0  0  0
   60.7210   29.1160   49.3490 N   0  0  0  0  0  0  0  0  0  0  0  0
   59.8810   29.1480   50.5400 C   0  0  0  0  0  0  0  0  0  0  0  0
   60.4305   29.6363   51.3583 H   0  0  0  0  0  0  0  0  0  0  0  0
   59.6216   28.1169   50.8221 H   0  0  0  0  0  0  0  0  0  0  0  0
   58.5920   29.9270   50.2620 C   0  0  0  0  0  0  0  0  0  0  0  0
   57.8993   29.2739   49.7109 H   0  0  0  0  0  0  0  0  0  0  0  0
   58.8651   30.8192   49.6795 H   0  0  0  0  0  0  0  0  0  0  0  0
   57.8960   30.4090   51.5430 C   0  0  0  0  0  0  0  0  0  0  0  0
   57.7758   31.5013   51.4947 H   0  0  0  0  0  0  0  0  0  0  0  0
   58.5186   30.1202   52.4026 H   0  0  0  0  0  0  0  0  0  0  0  0
   56.5790   29.7930   51.7040 N   0  0  0  0  0  0  0  0  0  0  0  0
   55.4100   30.4300   52.2400 C   0  0  0  0  0  0  0  0  0  0  0  0
   55.2590   30.4630   53.4900 O   0  0  0  0  0  0  0  0  0  0  0  0
   54.3600   31.0110   51.3890 C   0  0  0  0  0  0  0  0  0  0  0  0
   54.6378   31.7646   50.6374 H   0  0  0  0  0  0  0  0  0  0  0  0
   53.0760   30.6490   51.5030 C   0  0  0  0  0  0  0  0  0  0  0  0
   52.6858   29.8755   50.8251 H   0  0  0  0  0  0  0  0  0  0  0  0
   52.1590   31.2430   52.5000 C   0  0  0  0  0  0  0  0  0  0  0  0
   52.2280   30.7800   53.8250 C   0  0  0  0  0  0  0  0  0  0  0  0
   52.9504   29.9945   54.0915 H   0  0  0  0  0  0  0  0  0  0  0  0
   51.3870   31.3090   54.8060 C   0  0  0  0  0  0  0  0  0  0  0  0
   51.4573   30.9474   55.8425 H   0  0  0  0  0  0  0  0  0  0  0  0
   50.4570   32.2960   54.4740 C   0  0  0  0  0  0  0  0  0  0  0  0
   49.8024   32.7185   55.2505 H   0  0  0  0  0  0  0  0  0  0  0  0
   50.3580   32.7470   53.1550 C   0  0  0  0  0  0  0  0  0  0  0  0
   49.6209   33.5208   52.8945 H   0  0  0  0  0  0  0  0  0  0  0  0
   51.1930   32.2180   52.1640 C   0  0  0  0  0  0  0  0  0  0  0  0
   51.0280   32.6460   50.8510 O   0  0  0  0  0  0  0  0  0  0  0  0
   57.7540   27.8310   46.2900 C   0  0  0  0  0  0  0  0  0  0  0  0
   57.9072   26.8828   46.8262 H   0  0  0  0  0  0  0  0  0  0  0  0
   56.5360   28.0790   45.6480 C   0  0  0  0  0  0  0  0  0  0  0  0
   55.5290   27.1220   45.6870 O   0  0  0  0  0  0  0  0  0  0  0  0
  1  2  1  0
  2  3  1  0
  3  4  2  0
  4  5  1  0
  4  6  1  0
  6  7  1  0
  6  8  2  0
  8  9  1  0
  9 10  1  0
  9 11  1  0
  9 12  1  0
 12 13  2  0
 12 14  1  0
 14 15  1  0
 15 16  1  0
 15 17  1  0
 15 18  1  0
 18 19  1  0
 18 20  1  0
 18 21  1  0
 21 22  1  0
 21 23  1  0
 21 24  1  0
 24 25  1  0
 25 26  2  0
 25 27  1  0
 27 28  1  0
 27 29  2  0
 29 30  1  0
 29 31  1  0
 31 32  2  0
 32 33  1  0
 32 34  1  0
 34 35  1  0
 34 36  2  0
 36 37  1  0
 36 38  1  0
 38 39  1  0
 38 40  2  0
 40 41  1  0
  8 42  1  0
 42 43  1  0
 42 44  2  0
 44 45  1  0
 44  3  1  0
 40 31  1  0
M  CHG  4  14  -1  24  -1  41  -1  45  -1
M  END
>  <UniqueID>  (36) 
33

>  <SMILES>  (36) 
O=C(/C=C/c1ccccc1[O-])[N-]CCC[N-]C(=O)Cc1ccc(O)c([O-])c1

>  <Energy>  (36) 
45.221057567117555

>  <Genealogy>  (36) 
O=C(C=Cc1ccccc1[O-])[N-]CCC[N-]C(=O)Cc1ccc(O)c([O-])c1 (protonated)
O=C(/C=C/c1ccccc1[O-])[N-]CCC[N-]C(=O)Cc1ccc(O)c([O-])c1 (cis-trans isomerization)
O=C(/C=C/c1ccccc1[O-])[N-]CCC[N-]C(=O)Cc1ccc(O)c([O-])c1 (3D coordinates assigned)
O=C(/C=C/c1ccccc1[O-])[N-]CCC[N-]C(=O)Cc1ccc(O)c([O-])c1 (optimized conformer: 45.221057567117555 kcal/mol)

>  <smiles>  (36) 
O=C(C=Cc1ccccc1O)NCCCNC(=O)Cc1ccc(O)c(O)c1

>  <score_type>  (36) 
oracle

>  <origin>  (36) 
adg

>  <m_score__min__energy>  (36) 
-17.25

>  <m_primary>  (36) 
energy

$$$$
36:0
     RDKit          3D

 40 42  0  0  0  0  0  0  0  0999 V2000
   59.7370   29.5120   47.6020 C   0  0  0  0  0  0  0  0  0  0  0  0
   58.9130   30.1690   46.7710 C   0  0  0  0  0  0  0  0  0  0  0  0
   58.2880   29.6590   45.6310 C   0  0  0  0  0  0  0  0  0  0  0  0
   58.3800   28.4010   45.1520 C   0  0  0  0  0  0  0  0  0  0  0  0
   57.5190   27.2860   45.5850 C   0  0  0  0  0  0  0  0  0  0  0  0
   56.1250   27.4300   45.6270 C   0  0  0  0  0  0  0  0  0  0  0  0
   55.5240   28.6170   45.2250 O   0  0  0  0  0  0  0  0  0  0  0  0
   55.3520   26.4020   46.0620 N   0  0  0  0  0  0  0  0  0  0  0  0
   55.9070   25.2330   46.4720 C   0  0  0  0  0  0  0  0  0  0  0  0
   55.1710   24.2930   46.8680 O   0  0  0  0  0  0  0  0  0  0  0  0
   57.2560   25.0780   46.4580 N   0  0  0  0  0  0  0  0  0  0  0  0
   58.0730   26.0770   46.0330 C   0  0  0  0  0  0  0  0  0  0  0  0
   59.3200   25.9030   46.0380 O   0  0  0  0  0  0  0  0  0  0  0  0
   57.5780   30.7520   45.1200 C   0  0  0  0  0  0  0  0  0  0  0  0
   56.7290   30.8180   43.8880 C   0  0  0  0  0  0  0  0  0  0  0  0
   57.7710   31.8230   45.9110 N   0  0  0  0  0  0  0  0  0  0  0  0
   58.5620   31.4700   46.9130 N   0  0  0  0  0  0  0  0  0  0  0  0
   59.0170   32.3980   47.9570 C   0  0  0  0  0  0  0  0  0  0  0  0
   60.4760   32.7600   47.7820 C   0  0  0  0  0  0  0  0  0  0  0  0
   61.4230   32.2060   48.6610 C   0  0  0  0  0  0  0  0  0  0  0  0
   62.7810   32.4960   48.5180 C   0  0  0  0  0  0  0  0  0  0  0  0
   63.2120   33.3360   47.4920 C   0  0  0  0  0  0  0  0  0  0  0  0
   62.2890   33.8830   46.6000 C   0  0  0  0  0  0  0  0  0  0  0  0
   60.9180   33.5950   46.7230 C   0  0  0  0  0  0  0  0  0  0  0  0
   59.9490   34.2020   45.7430 C   0  0  0  0  0  0  0  0  0  0  0  0
   60.1680   30.0293   48.4719 H   0  0  0  0  0  0  0  0  0  0  0  0
   59.9814   28.4562   47.4133 H   0  0  0  0  0  0  0  0  0  0  0  0
   59.1461   28.1945   44.3901 H   0  0  0  0  0  0  0  0  0  0  0  0
   55.6706   30.9003   44.1761 H   0  0  0  0  0  0  0  0  0  0  0  0
   57.0160   31.6965   43.2915 H   0  0  0  0  0  0  0  0  0  0  0  0
   56.8768   29.9057   43.2915 H   0  0  0  0  0  0  0  0  0  0  0  0
   58.4128   33.3159   47.9070 H   0  0  0  0  0  0  0  0  0  0  0  0
   58.8994   31.9035   48.9325 H   0  0  0  0  0  0  0  0  0  0  0  0
   61.0908   31.5377   49.4691 H   0  0  0  0  0  0  0  0  0  0  0  0
   63.5120   32.0613   49.2156 H   0  0  0  0  0  0  0  0  0  0  0  0
   64.2820   33.5680   47.3856 H   0  0  0  0  0  0  0  0  0  0  0  0
   62.6368   34.5453   45.7935 H   0  0  0  0  0  0  0  0  0  0  0  0
   59.1411   34.7081   46.2918 H   0  0  0  0  0  0  0  0  0  0  0  0
   60.4758   34.9318   45.1107 H   0  0  0  0  0  0  0  0  0  0  0  0
   59.5222   33.4095   45.1107 H   0  0  0  0  0  0  0  0  0  0  0  0
  1  2  2  0
  2  3  1  0
  3  4  2  3
  4  5  1  0
  5  6  2  0
  6  7  1  0
  6  8  1  0
  8  9  1  0
  9 10  2  0
  9 11  1  0
 11 12  1  0
 12 13  2  0
  3 14  1  0
 14 15  1  0
 14 16  2  0
 16 17  1  0
 17 18  1  0
 18 19  1  0
 19 20  2  0
 20 21  1  0
 21 22  2  0
 22 23  1  0
 23 24  2  0
 24 25  1  0
 17  2  1  0
 24 19  1  0
 12  5  1  0
  1 26  1  0
  1 27  1  0
  4 28  1  0
 15 29  1  0
 15 30  1  0
 15 31  1  0
 18 32  1  0
 18 33  1  0
 20 34  1  0
 21 35  1  0
 22 36  1  0
 23 37  1  0
 25 38  1  0
 25 39  1  0
 25 40  1  0
M  CHG  3   7  -1   8  -1  11  -1
M  END
>  <UniqueID>  (37) 
34

>  <SMILES>  (37) 
C=c1c(=Cc2c([O-])[n-]c(=O)[n-]c2=O)c(C)nn1Cc1ccccc1C

>  <Energy>  (37) 
88.50517965704006

>  <Genealogy>  (37) 
C=c1c(=Cc2c([O-])[n-]c(=O)[n-]c2=O)c(C)nn1Cc1ccccc1C (protonated)
C=c1c(=Cc2c([O-])[n-]c(=O)[n-]c2=O)c(C)nn1Cc1ccccc1C (3D coordinates assigned)
C=c1c(=Cc2c([O-])[n-]c(=O)[n-]c2=O)c(C)nn1Cc1ccccc1C (optimized conformer: 88.50517965704006 kcal/mol)

>  <smiles>  (37) 
C=c1c(=Cc2c(O)[nH]c(=O)[nH]c2=O)c(C)nn1Cc1ccccc1C

>  <score_type>  (37) 
oracle

>  <origin>  (37) 
adg

>  <m_score__min__energy>  (37) 
-16.25

>  <m_primary>  (37) 
energy

$$$$
37:0
     RDKit          3D

 23 23  0  0  0  0  0  0  0  0999 V2000
   55.2300   23.1060   47.3000 H   0  0  0  0  0  0  0  0  0  0  0  0
   55.1240   24.0530   46.9590 O   0  0  0  0  0  0  0  0  0  0  0  0
   56.2220   24.8650   46.6760 C   0  0  0  0  0  0  0  0  0  0  0  0
   56.0500   26.1750   46.1980 C   0  0  0  0  0  0  0  0  0  0  0  0
   54.7750   26.6880   45.9880 O   0  0  0  0  0  0  0  0  0  0  0  0
   57.1670   26.9730   45.9250 C   0  0  0  0  0  0  0  0  0  0  0  0
   57.0283   27.9927   45.5365 H   0  0  0  0  0  0  0  0  0  0  0  0
   58.4640   26.4800   46.1440 C   0  0  0  0  0  0  0  0  0  0  0  0
   59.6600   27.2880   45.8200 C   0  0  0  0  0  0  0  0  0  0  0  0
   60.6254   26.9507   46.2252 H   0  0  0  0  0  0  0  0  0  0  0  0
   59.6580   28.3990   45.0710 C   0  0  0  0  0  0  0  0  0  0  0  0
   60.4223   28.4911   44.2853 H   0  0  0  0  0  0  0  0  0  0  0  0
   58.6960   29.5080   45.2320 C   0  0  0  0  0  0  0  0  0  0  0  0
   58.5496   29.9620   46.2232 H   0  0  0  0  0  0  0  0  0  0  0  0
   58.0010   29.9660   44.1850 C   0  0  0  0  0  0  0  0  0  0  0  0
   58.5060   30.6212   43.4599 H   0  0  0  0  0  0  0  0  0  0  0  0
   56.5860   29.6260   43.9670 C   0  0  0  0  0  0  0  0  0  0  0  0
   56.2776   29.2002   43.0008 H   0  0  0  0  0  0  0  0  0  0  0  0
   55.7200   29.8120   44.8630 O   0  0  0  0  0  0  0  0  0  0  0  0
   58.6300   25.1610   46.5900 C   0  0  0  0  0  0  0  0  0  0  0  0
   59.6426   24.7528   46.7245 H   0  0  0  0  0  0  0  0  0  0  0  0
   57.5160   24.3610   46.8650 C   0  0  0  0  0  0  0  0  0  0  0  0
   57.6980   23.0620   47.3260 O   0  0  0  0  0  0  0  0  0  0  0  0
  1  2  1  0
  2  3  1  0
  3  4  2  0
  4  5  1  0
  4  6  1  0
  6  7  1  0
  6  8  2  0
  8  9  1  0
  9 10  1  0
  9 11  2  0
 11 12  1  0
 11 13  1  0
 13 14  1  0
 13 15  2  0
 15 16  1  0
 15 17  1  0
 17 18  1  0
 17 19  2  0
  8 20  1  0
 20 21  1  0
 20 22  2  0
 22 23  1  0
 22  3  1  0
M  CHG  2   5  -1  23  -1
M  END
>  <UniqueID>  (38) 
35

>  <SMILES>  (38) 
O=C/C=C/C=Cc1cc([O-])c(O)c([O-])c1

>  <Energy>  (38) 
25.58177389124083

>  <Genealogy>  (38) 
O=CC=CC=Cc1cc([O-])c(O)c([O-])c1 (protonated)
O=C/C=C/C=Cc1cc([O-])c(O)c([O-])c1 (cis-trans isomerization)
O=C/C=C/C=Cc1cc([O-])c(O)c([O-])c1 (3D coordinates assigned)
O=C/C=C/C=Cc1cc([O-])c(O)c([O-])c1 (optimized conformer: 25.58177389124083 kcal/mol)

>  <smiles>  (38) 
O=CC=CC=Cc1cc(O)c(O)c(O)c1

>  <score_type>  (38) 
oracle

>  <origin>  (38) 
adg

>  <m_score__min__energy>  (38) 
-11.789999999999999

>  <m_primary>  (38) 
energy

$$$$
38:0
     RDKit          3D

 50 52  0  0  0  0  0  0  0  0999 V2000
   60.1050   34.5990   49.6280 O   0  0  0  0  0  0  0  0  0  0  0  0
   60.4520   34.1140   48.5170 C   0  0  0  0  0  0  0  0  0  0  0  0
   59.4510   34.0490   47.4390 C   0  0  0  0  0  0  0  0  0  0  0  0
   59.6960   34.7520   46.2500 C   0  0  0  0  0  0  0  0  0  0  0  0
   58.7760   34.7070   45.2020 C   0  0  0  0  0  0  0  0  0  0  0  0
   57.6010   33.9660   45.3330 C   0  0  0  0  0  0  0  0  0  0  0  0
   57.3410   33.2690   46.5150 C   0  0  0  0  0  0  0  0  0  0  0  0
   58.2590   33.2970   47.5830 C   0  0  0  0  0  0  0  0  0  0  0  0
   57.9460   32.6060   48.8150 N   0  0  0  0  0  0  0  0  0  0  0  0
   58.5260   31.2860   48.8210 C   0  0  0  0  0  0  0  0  0  0  0  0
   58.6970   30.4800   50.2490 S   0  0  0  0  0  0  0  0  0  0  0  0
   58.7950   30.6200   47.5720 N   0  0  0  0  0  0  0  0  0  0  0  0
   59.4680   29.3200   47.5000 C   0  0  0  0  0  0  0  0  0  0  0  0
   59.3210   28.6730   46.1160 C   0  0  0  0  0  0  0  0  0  0  0  0
   58.2410   29.3170   45.2810 C   0  0  0  0  0  0  0  0  0  0  0  0
   56.9280   28.8180   45.3090 C   0  0  0  0  0  0  0  0  0  0  0  0
   55.9410   29.3820   44.4940 C   0  0  0  0  0  0  0  0  0  0  0  0
   56.2550   30.4520   43.6520 C   0  0  0  0  0  0  0  0  0  0  0  0
   57.5560   30.9590   43.6220 C   0  0  0  0  0  0  0  0  0  0  0  0
   58.5480   30.3920   44.4280 C   0  0  0  0  0  0  0  0  0  0  0  0
   61.8040   33.6460   48.3190 N   0  0  0  0  0  0  0  0  0  0  0  0
   62.2460   33.1590   47.0050 C   0  0  0  0  0  0  0  0  0  0  0  0
   63.7650   33.2970   46.8680 C   0  0  0  0  0  0  0  0  0  0  0  0
   64.4240   32.7160   47.9750 O   0  0  0  0  0  0  0  0  0  0  0  0
   64.1170   33.4470   49.1450 C   0  0  0  0  0  0  0  0  0  0  0  0
   62.6300   33.3240   49.4880 C   0  0  0  0  0  0  0  0  0  0  0  0
   60.6183   35.3419   46.1433 H   0  0  0  0  0  0  0  0  0  0  0  0
   58.9774   35.2567   44.2707 H   0  0  0  0  0  0  0  0  0  0  0  0
   56.8785   33.9307   44.5043 H   0  0  0  0  0  0  0  0  0  0  0  0
   56.4096   32.6921   46.6130 H   0  0  0  0  0  0  0  0  0  0  0  0
   56.9090   32.5500   48.9270 H   0  0  0  0  0  0  0  0  0  0  0  0
   58.3110   33.1330   49.6420 H   0  0  0  0  0  0  0  0  0  0  0  0
   58.5030   31.0930   46.6860 H   0  0  0  0  0  0  0  0  0  0  0  0
   60.5376   29.4614   47.7143 H   0  0  0  0  0  0  0  0  0  0  0  0
   58.9993   28.6531   48.2386 H   0  0  0  0  0  0  0  0  0  0  0  0
   60.2786   28.7633   45.5823 H   0  0  0  0  0  0  0  0  0  0  0  0
   59.0374   27.6215   46.2704 H   0  0  0  0  0  0  0  0  0  0  0  0
   56.6750   27.9799   45.9750 H   0  0  0  0  0  0  0  0  0  0  0  0
   54.9163   28.9827   44.5159 H   0  0  0  0  0  0  0  0  0  0  0  0
   55.4773   30.8951   43.0126 H   0  0  0  0  0  0  0  0  0  0  0  0
   57.8006   31.8055   42.9635 H   0  0  0  0  0  0  0  0  0  0  0  0
   59.5734   30.7887   44.3947 H   0  0  0  0  0  0  0  0  0  0  0  0
   61.9671   32.1003   46.8982 H   0  0  0  0  0  0  0  0  0  0  0  0
   61.7610   33.7585   46.2206 H   0  0  0  0  0  0  0  0  0  0  0  0
   64.0915   32.7907   45.9476 H   0  0  0  0  0  0  0  0  0  0  0  0
   64.0195   34.3664   46.8279 H   0  0  0  0  0  0  0  0  0  0  0  0
   64.7138   33.0554   49.9820 H   0  0  0  0  0  0  0  0  0  0  0  0
   64.3522   34.5073   48.9703 H   0  0  0  0  0  0  0  0  0  0  0  0
   62.4167   32.2938   49.8091 H   0  0  0  0  0  0  0  0  0  0  0  0
   62.3921   34.0306   50.2968 H   0  0  0  0  0  0  0  0  0  0  0  0
  1  2  2  0
  2  3  1  0
  3  4  2  0
  4  5  1  0
  5  6  2  0
  6  7  1  0
  7  8  2  0
  8  9  1  0
  9 10  1  0
 10 11  2  0
 10 12  1  0
 12 13  1  0
 13 14  1  0
 14 15  1  0
 15 16  2  0
 16 17  1  0
 17 18  2  0
 18 19  1  0
 19 20  2  0
  2 21  1  0
 21 22  1  0
 22 23  1  0
 23 24  1  0
 24 25  1  0
 25 26  1  0
  8  3  1  0
 20 15  1  0
 26 21  1  0
  4 27  1  0
  5 28  1  0
  6 29  1  0
  7 30  1  0
  9 31  1  0
  9 32  1  0
 12 33  1  0
 13 34  1  0
 13 35  1  0
 14 36  1  0
 14 37  1  0
 16 38  1  0
 17 39  1  0
 18 40  1  0
 19 41  1  0
 20 42  1  0
 22 43  1  0
 22 44  1  0
 23 45  1  0
 23 46  1  0
 25 47  1  0
 25 48  1  0
 26 49  1  0
 26 50  1  0
M  CHG  1   9   1
M  END
>  <UniqueID>  (39) 
36

>  <SMILES>  (39) 
O=C(c1ccccc1[NH2+]C(=S)NCCc1ccccc1)N1CCOCC1

>  <Energy>  (39) 
55.94923222131961

>  <Genealogy>  (39) 
O=C(c1ccccc1[NH2+]C(=S)NCCc1ccccc1)N1CCOCC1 (protonated)
O=C(c1ccccc1[NH2+]C(=S)NCCc1ccccc1)N1CCOCC1 (3D coordinates assigned)
O=C(c1ccccc1[NH2+]C(=S)NCCc1ccccc1)N1CCOCC1 (nonaromatic ring conformer: 55.94923222131961 kcal/mol)

>  <smiles>  (39) 
O=C(c1ccccc1NC(=S)NCCc1ccccc1)N1CCOCC1

>  <score_type>  (39) 
oracle

>  <origin>  (39) 
adg

>  <m_score__min__energy>  (39) 
-7.3899999999999997

>  <m_primary>  (39) 
energy

$$$$
39:0
     RDKit          3D

 64 67  0  0  0  0  0  0  0  0999 V2000
   52.8170   24.1950   45.2230 C   0  0  0  0  0  0  0  0  0  0  0  0
   54.2920   23.9060   44.9600 C   0  0  0  0  0  0  0  0  0  0  0  0
   55.1240   25.0460   45.3470 N   0  0  0  0  0  0  0  0  0  0  0  0
   55.9790   25.0190   46.4990 C   0  0  0  0  0  0  0  0  0  0  0  0
   55.8730   24.0820   47.3390 O   0  0  0  0  0  0  0  0  0  0  0  0
   56.9230   26.0710   46.7560 N   0  0  0  0  0  0  0  0  0  0  0  0
   57.0090   27.2130   46.1340 C   0  0  0  0  0  0  0  0  0  0  0  0
   58.2630   27.8180   45.9870 C   0  0  0  0  0  0  0  0  0  0  0  0
   58.3710   29.0110   45.2720 C   0  0  0  0  0  0  0  0  0  0  0  0
   57.2320   29.6000   44.7160 C   0  0  0  0  0  0  0  0  0  0  0  0
   57.3630   31.0860   43.7810 S   0  0  0  0  0  0  0  0  0  0  0  0
   56.3970   31.0230   42.6320 O   0  0  0  0  0  0  0  0  0  0  0  0
   58.7510   31.2180   43.2220 O   0  0  0  0  0  0  0  0  0  0  0  0
   57.0000   32.4820   44.7420 N   0  0  0  0  0  0  0  0  0  0  0  0
   57.8020   32.8900   45.8530 C   0  0  0  0  0  0  0  0  0  0  0  0
   58.2770   34.2090   45.9560 C   0  0  0  0  0  0  0  0  0  0  0  0
   59.0490   34.5930   47.0580 C   0  0  0  0  0  0  0  0  0  0  0  0
   59.3750   33.6560   48.0480 C   0  0  0  0  0  0  0  0  0  0  0  0
   60.1490   34.0660   49.2300 C   0  0  0  0  0  0  0  0  0  0  0  0
   59.5230   34.5710   50.2020 O   0  0  0  0  0  0  0  0  0  0  0  0
   61.5760   33.8550   49.3240 N   0  0  0  0  0  0  0  0  0  0  0  0
   62.2370   34.0250   50.6290 C   0  0  0  0  0  0  0  0  0  0  0  0
   63.7730   33.9560   50.5220 C   0  0  0  0  0  0  0  0  0  0  0  0
   64.3080   32.7360   49.6960 C   0  0  0  0  0  0  0  0  0  0  0  0
   65.5450   33.1210   49.1310 O   0  0  0  0  0  0  0  0  0  0  0  0
   64.5850   31.4840   50.5450 C   0  0  0  0  0  0  0  0  0  0  0  0
   65.9250   31.1800   50.8810 C   0  0  0  0  0  0  0  0  0  0  0  0
   66.2430   30.0310   51.6080 C   0  0  0  0  0  0  0  0  0  0  0  0
   65.2340   29.1550   52.0100 C   0  0  0  0  0  0  0  0  0  0  0  0
   63.9060   29.4270   51.6810 C   0  0  0  0  0  0  0  0  0  0  0  0
   63.5790   30.5750   50.9500 C   0  0  0  0  0  0  0  0  0  0  0  0
   63.3240   32.3320   48.5510 C   0  0  0  0  0  0  0  0  0  0  0  0
   62.3820   33.4700   48.1550 C   0  0  0  0  0  0  0  0  0  0  0  0
   58.9350   32.3280   47.9240 C   0  0  0  0  0  0  0  0  0  0  0  0
   58.1610   31.9480   46.8240 C   0  0  0  0  0  0  0  0  0  0  0  0
   55.9950   28.9660   44.8820 C   0  0  0  0  0  0  0  0  0  0  0  0
   55.9130   27.7980   45.5710 N   0  0  0  0  0  0  0  0  0  0  0  0
   52.6380   24.2301   46.3078 H   0  0  0  0  0  0  0  0  0  0  0  0
   52.5475   25.1630   44.7754 H   0  0  0  0  0  0  0  0  0  0  0  0
   52.2022   23.4002   44.7754 H   0  0  0  0  0  0  0  0  0  0  0  0
   54.5958   23.0240   45.5429 H   0  0  0  0  0  0  0  0  0  0  0  0
   54.4277   23.7207   43.8843 H   0  0  0  0  0  0  0  0  0  0  0  0
   55.0110   25.9350   44.8130 H   0  0  0  0  0  0  0  0  0  0  0  0
   59.1566   27.3560   46.4320 H   0  0  0  0  0  0  0  0  0  0  0  0
   59.3538   29.4887   45.1457 H   0  0  0  0  0  0  0  0  0  0  0  0
   58.0414   34.9405   45.1690 H   0  0  0  0  0  0  0  0  0  0  0  0
   59.4005   35.6315   47.1474 H   0  0  0  0  0  0  0  0  0  0  0  0
   61.9552   35.0044   51.0430 H   0  0  0  0  0  0  0  0  0  0  0  0
   61.9086   33.2025   51.2814 H   0  0  0  0  0  0  0  0  0  0  0  0
   64.1266   34.8796   50.0405 H   0  0  0  0  0  0  0  0  0  0  0  0
   64.1549   33.8346   51.5464 H   0  0  0  0  0  0  0  0  0  0  0  0
   65.4810   33.0460   48.1410 H   0  0  0  0  0  0  0  0  0  0  0  0
   66.7297   31.8599   50.5644 H   0  0  0  0  0  0  0  0  0  0  0  0
   67.2909   29.8160   51.8643 H   0  0  0  0  0  0  0  0  0  0  0  0
   65.4853   28.2517   52.5852 H   0  0  0  0  0  0  0  0  0  0  0  0
   63.1114   28.7355   51.9978 H   0  0  0  0  0  0  0  0  0  0  0  0
   62.5292   30.7726   50.6877 H   0  0  0  0  0  0  0  0  0  0  0  0
   63.9118   32.0383   47.6688 H   0  0  0  0  0  0  0  0  0  0  0  0
   62.7052   31.5015   48.9216 H   0  0  0  0  0  0  0  0  0  0  0  0
   62.9709   34.3337   47.8127 H   0  0  0  0  0  0  0  0  0  0  0  0
   61.7205   33.1380   47.3412 H   0  0  0  0  0  0  0  0  0  0  0  0
   59.1996   31.5869   48.6926 H   0  0  0  0  0  0  0  0  0  0  0  0
   57.8323   30.9033   46.7209 H   0  0  0  0  0  0  0  0  0  0  0  0
   55.0868   29.4148   44.4533 H   0  0  0  0  0  0  0  0  0  0  0  0
  1  2  1  0
  2  3  1  0
  3  4  1  0
  4  5  2  0
  4  6  1  0
  6  7  2  3
  7  8  1  0
  8  9  2  0
  9 10  1  0
 10 11  1  0
 11 12  2  0
 11 13  2  0
 11 14  1  0
 14 15  1  0
 15 16  2  0
 16 17  1  0
 17 18  2  0
 18 19  1  0
 19 20  2  0
 19 21  1  0
 21 22  1  0
 22 23  1  0
 23 24  1  0
 24 25  1  0
 24 26  1  0
 26 27  2  0
 27 28  1  0
 28 29  2  0
 29 30  1  0
 30 31  2  0
 24 32  1  0
 32 33  1  0
 18 34  1  0
 34 35  2  0
 10 36  2  0
 36 37  1  0
 37  7  1  0
 35 15  1  0
 33 21  1  0
 31 26  1  0
  1 38  1  0
  1 39  1  0
  1 40  1  0
  2 41  1  0
  2 42  1  0
  3 43  1  0
  8 44  1  0
  9 45  1  0
 16 46  1  0
 17 47  1  0
 22 48  1  0
 22 49  1  0
 23 50  1  0
 23 51  1  0
 25 52  1  0
 27 53  1  0
 28 54  1  0
 29 55  1  0
 30 56  1  0
 31 57  1  0
 32 58  1  0
 32 59  1  0
 33 60  1  0
 33 61  1  0
 34 62  1  0
 35 63  1  0
 36 64  1  0
M  CHG  2  14  -1  37  -1
M  END
>  <UniqueID>  (40) 
37

>  <SMILES>  (40) 
CCNC(=O)N=c1ccc(S(=O)(=O)[N-]c2ccc(C(=O)N3CCC(O)(c4ccccc4)CC3)cc2)c[n-]1

>  <Energy>  (40) 
95.04221596563565

>  <Genealogy>  (40) 
CCNC(=O)N=c1ccc(S(=O)(=O)[N-]c2ccc(C(=O)N3CCC(O)(c4ccccc4)CC3)cc2)c[n-]1 (protonated)
CCNC(=O)N=c1ccc(S(=O)(=O)[N-]c2ccc(C(=O)N3CCC(O)(c4ccccc4)CC3)cc2)c[n-]1 (3D coordinates assigned)
CCNC(=O)N=c1ccc(S(=O)(=O)[N-]c2ccc(C(=O)N3CCC(O)(c4ccccc4)CC3)cc2)c[n-]1 (nonaromatic ring conformer: 95.04221596563565 kcal/mol)

>  <smiles>  (40) 
CCNC(=O)N=c1ccc(S(=O)(=O)Nc2ccc(C(=O)N3CCC(O)(c4ccccc4)CC3)cc2)c[nH]1

>  <score_type>  (40) 
oracle

>  <origin>  (40) 
adg

>  <m_score__min__energy>  (40) 
-12

>  <m_primary>  (40) 
energy

$$$$
40:0
     RDKit          3D

 23 24  0  0  1  0  0  0  0  0999 V2000
   58.8940   26.9340   44.3100 O   0  0  0  0  0  0  0  0  0  0  0  0
   58.3950   28.0810   44.4850 C   0  0  0  0  0  0  0  0  0  0  0  0
   59.1970   29.1590   44.5790 N   0  0  0  0  0  0  0  0  0  0  0  0
   58.7540   30.3880   44.7610 N   0  0  0  0  0  0  0  0  0  0  0  0
   57.4280   30.5540   44.8560 C   0  0  0  0  0  0  0  0  0  0  0  0
   56.8720   31.7010   45.0340 N   0  0  0  0  0  0  0  0  0  0  0  0
   57.4100   32.9020   44.4820 C   0  0  0  0  0  0  0  0  0  0  0  0
   58.4720   33.4640   45.3800 C   0  0  0  0  0  0  0  0  0  0  0  0
   58.9110   34.7710   45.4140 C   0  0  0  0  0  0  0  0  0  0  0  0
   59.9090   34.8810   46.3890 C   0  0  0  0  0  0  0  0  0  0  0  0
   60.0190   33.6040   46.9020 C   0  0  0  0  0  0  0  0  0  0  0  0
   59.1720   32.8150   46.2920 O   0  0  0  0  0  0  0  0  0  0  0  0
   56.5870   29.4620   44.7620 C   0  0  0  0  0  0  0  0  0  0  0  0
   55.3360   29.5910   44.8490 O   0  0  0  0  0  0  0  0  0  0  0  0
   57.0650   28.2200   44.5770 N   0  0  0  0  0  0  0  0  0  0  0  0
   60.2290   28.9950   44.5000 H   0  0  0  0  0  0  0  0  0  0  0  0
   59.3540   31.2310   44.8350 H   0  0  0  0  0  0  0  0  0  0  0  0
   57.8477   32.6831   43.4969 H   0  0  0  0  0  0  0  0  0  0  0  0
   56.6012   33.6409   44.3823 H   0  0  0  0  0  0  0  0  0  0  0  0
   58.5390   35.5899   44.7808 H   0  0  0  0  0  0  0  0  0  0  0  0
   60.4753   35.7782   46.6796 H   0  0  0  0  0  0  0  0  0  0  0  0
   60.7114   33.2974   47.6999 H   0  0  0  0  0  0  0  0  0  0  0  0
   56.4260   27.3990   44.5070 H   0  0  0  0  0  0  0  0  0  0  0  0
  1  2  2  0
  2  3  1  0
  3  4  1  0
  4  5  1  0
  5  6  2  0
  6  7  1  0
  7  8  1  0
  8  9  2  0
  9 10  1  0
 10 11  2  0
 11 12  1  0
  5 13  1  0
 13 14  2  0
 13 15  1  0
 15  2  1  0
 12  8  1  0
  3 16  1  0
  4 17  1  0
  7 18  1  0
  7 19  1  0
  9 20  1  0
 10 21  1  0
 11 22  1  0
 15 23  1  0
M  END
>  <smiles>  (41) 
O=c1[nH][nH]c(=NCc2ccco2)c(=O)[nH]1

>  <score_type>  (41) 
oracle

>  <origin>  (41) 
adg

>  <m_score__min__energy>  (41) 
-5.5700000000000003

>  <m_primary>  (41) 
energy

$$$$
41:0
     RDKit          3D

 25 26  0  0  1  0  0  0  0  0999 V2000
   57.2080   23.6910   44.7860 C   0  0  0  0  0  0  0  0  0  0  0  0
   56.8600   24.8810   45.2080 C   0  0  0  0  0  0  0  0  0  0  0  0
   55.6230   25.3450   45.3710 N   0  0  0  0  0  0  0  0  0  0  0  0
   55.6390   26.6010   45.8180 N   0  0  0  0  0  0  0  0  0  0  0  0
   56.9330   26.9620   45.9460 C   0  0  0  0  0  0  0  0  0  0  0  0
   57.3640   28.1600   46.3720 C   0  0  0  0  0  0  0  0  0  0  0  0
   57.5430   29.1690   45.3210 C   0  0  0  0  0  0  0  0  0  0  0  0
   58.7760   29.7130   45.0230 C   0  0  0  0  0  0  0  0  0  0  0  0
   58.8540   30.6510   44.0260 C   0  0  0  0  0  0  0  0  0  0  0  0
   57.7190   31.0240   43.3560 C   0  0  0  0  0  0  0  0  0  0  0  0
   57.8050   32.3290   41.9620 Br  0  0  0  0  0  0  0  0  0  0  0  0
   56.4740   30.4850   43.6450 C   0  0  0  0  0  0  0  0  0  0  0  0
   56.4010   29.5510   44.6400 C   0  0  0  0  0  0  0  0  0  0  0  0
   55.1650   29.0060   44.9400 O   0  0  0  0  0  0  0  0  0  0  0  0
   57.7240   25.9030   45.5710 C   0  0  0  0  0  0  0  0  0  0  0  0
   58.9720   25.9260   45.5800 O   0  0  0  0  0  0  0  0  0  0  0  0
   58.2725   23.4294   44.6946 H   0  0  0  0  0  0  0  0  0  0  0  0
   56.4358   22.9531   44.5229 H   0  0  0  0  0  0  0  0  0  0  0  0
   54.7500   24.8050   45.1790 H   0  0  0  0  0  0  0  0  0  0  0  0
   54.7710   27.1530   46.0120 H   0  0  0  0  0  0  0  0  0  0  0  0
   57.5683   28.3703   47.4322 H   0  0  0  0  0  0  0  0  0  0  0  0
   59.6760   29.4010   45.5731 H   0  0  0  0  0  0  0  0  0  0  0  0
   59.8230   31.1017   43.7655 H   0  0  0  0  0  0  0  0  0  0  0  0
   55.5762   30.7986   43.0922 H   0  0  0  0  0  0  0  0  0  0  0  0
   54.7790   28.1870   44.4970 H   0  0  0  0  0  0  0  0  0  0  0  0
  1  2  2  0
  2  3  1  0
  3  4  1  0
  4  5  1  0
  5  6  2  0
  6  7  1  0
  7  8  2  0
  8  9  1  0
  9 10  2  0
 10 11  1  0
 10 12  1  0
 12 13  2  0
 13 14  1  0
  5 15  1  0
 15 16  2  0
 15  2  1  0
 13  7  1  0
  1 17  1  0
  1 18  1  0
  3 19  1  0
  4 20  1  0
  6 21  1  0
  8 22  1  0
  9 23  1  0
 12 24  1  0
 14 25  1  0
M  END
>  <smiles>  (42) 
C=c1[nH][nH]c(=Cc2ccc(Br)cc2O)c1=O

>  <score_type>  (42) 
oracle

>  <origin>  (42) 
adg

>  <m_score__min__energy>  (42) 
-8.0800000000000001

>  <m_primary>  (42) 
energy

$$$$
42:0
     RDKit          3D

 32 34  0  0  0  0  0  0  0  0999 V2000
   58.0810   26.5530   42.3710 C   0  0  0  0  0  0  0  0  0  0  0  0
   57.7680   26.8610   43.6270 C   0  0  0  0  0  0  0  0  0  0  0  0
   57.7800   28.2450   44.1310 C   0  0  0  0  0  0  0  0  0  0  0  0
   57.6590   29.3180   43.3110 N   0  0  0  0  0  0  0  0  0  0  0  0
   57.6990   30.3830   44.1330 C   0  0  0  0  0  0  0  0  0  0  0  0
   57.5930   31.7220   43.7770 C   0  0  0  0  0  0  0  0  0  0  0  0
   57.6240   32.6660   44.8160 C   0  0  0  0  0  0  0  0  0  0  0  0
   57.7530   32.2320   46.1510 C   0  0  0  0  0  0  0  0  0  0  0  0
   57.7810   33.3940   47.4620 Cl  0  0  0  0  0  0  0  0  0  0  0  0
   57.8490   30.9010   46.4240 N   0  0  0  0  0  0  0  0  0  0  0  0
   57.8270   30.0300   45.4170 N   0  0  0  0  0  0  0  0  0  0  0  0
   57.8750   28.6860   45.4580 C   0  0  0  0  0  0  0  0  0  0  0  0
   57.8190   27.8770   46.7280 C   0  0  0  0  0  0  0  0  0  0  0  0
   57.4720   26.4420   46.4220 C   0  0  0  0  0  0  0  0  0  0  0  0
   58.4600   25.4450   46.5070 C   0  0  0  0  0  0  0  0  0  0  0  0
   58.1400   24.1080   46.2560 C   0  0  0  0  0  0  0  0  0  0  0  0
   56.8330   23.7520   45.9180 C   0  0  0  0  0  0  0  0  0  0  0  0
   55.8420   24.7340   45.8320 C   0  0  0  0  0  0  0  0  0  0  0  0
   56.1530   26.0740   46.0830 C   0  0  0  0  0  0  0  0  0  0  0  0
   55.1500   27.0330   45.9950 O   0  0  0  0  0  0  0  0  0  0  0  0
   58.0579   25.5043   42.0398 H   0  0  0  0  0  0  0  0  0  0  0  0
   58.3628   27.3471   41.6639 H   0  0  0  0  0  0  0  0  0  0  0  0
   57.4893   26.0502   44.3161 H   0  0  0  0  0  0  0  0  0  0  0  0
   57.5560   29.3200   42.2720 H   0  0  0  0  0  0  0  0  0  0  0  0
   57.4892   32.0294   42.7259 H   0  0  0  0  0  0  0  0  0  0  0  0
   57.5479   33.7397   44.5892 H   0  0  0  0  0  0  0  0  0  0  0  0
   58.7994   27.9147   47.2253 H   0  0  0  0  0  0  0  0  0  0  0  0
   57.0450   28.2988   47.3860 H   0  0  0  0  0  0  0  0  0  0  0  0
   59.4916   25.7193   46.7728 H   0  0  0  0  0  0  0  0  0  0  0  0
   58.9193   23.3347   46.3249 H   0  0  0  0  0  0  0  0  0  0  0  0
   56.5832   22.6993   45.7195 H   0  0  0  0  0  0  0  0  0  0  0  0
   54.8128   24.4514   45.5657 H   0  0  0  0  0  0  0  0  0  0  0  0
  1  2  2  0
  2  3  1  0
  3  4  1  0
  4  5  2  0
  5  6  1  0
  6  7  2  0
  7  8  1  0
  8  9  1  0
  8 10  2  0
 10 11  1  0
 11 12  1  0
 12 13  1  0
 13 14  1  0
 14 15  2  0
 15 16  1  0
 16 17  2  0
 17 18  1  0
 18 19  2  0
 19 20  1  0
 12  3  2  0
 19 14  1  0
 11  5  1  0
  1 21  1  0
  1 22  1  0
  2 23  1  0
  4 24  1  0
  6 25  1  0
  7 26  1  0
 13 27  1  0
 13 28  1  0
 15 29  1  0
 16 30  1  0
 17 31  1  0
 18 32  1  0
M  CHG  2   4   1  20  -1
M  END
>  <UniqueID>  (43) 
38

>  <SMILES>  (43) 
C=Cc1[nH+]c2ccc(Cl)nn2c1Cc1ccccc1[O-]

>  <Energy>  (43) 
74.72196326664432

>  <Genealogy>  (43) 
C=Cc1[nH+]c2ccc(Cl)nn2c1Cc1ccccc1[O-] (protonated)
C=Cc1[nH+]c2ccc(Cl)nn2c1Cc1ccccc1[O-] (3D coordinates assigned)
C=Cc1[nH+]c2ccc(Cl)nn2c1Cc1ccccc1[O-] (optimized conformer: 74.72196326664432 kcal/mol)

>  <smiles>  (43) 
C=Cc1nc2ccc(Cl)nn2c1Cc1ccccc1O

>  <score_type>  (43) 
oracle

>  <origin>  (43) 
adg

>  <m_score__min__energy>  (43) 
-9.5299999999999994

>  <m_primary>  (43) 
energy

$$$$
43:0
     RDKit          3D

 63 67  0  0  0  0  0  0  0  0999 V2000
   56.2080   29.4240   43.5680 C   0  0  0  0  0  0  0  0  0  0  0  0
   57.5640   29.4050   44.1130 N   0  0  0  0  0  0  0  0  0  0  0  0
   58.4620   28.3820   44.0780 C   0  0  0  0  0  0  0  0  0  0  0  0
   58.2140   27.0490   43.4940 C   0  0  0  0  0  0  0  0  0  0  0  0
   58.0160   26.9100   42.2590 O   0  0  0  0  0  0  0  0  0  0  0  0
   58.1270   25.9080   44.3520 N   0  0  0  0  0  0  0  0  0  0  0  0
   57.3500   25.9500   45.5870 C   0  0  0  0  0  0  0  0  0  0  0  0
   58.1740   26.5640   46.6880 C   0  0  0  0  0  0  0  0  0  0  0  0
   57.7610   27.7600   47.2940 C   0  0  0  0  0  0  0  0  0  0  0  0
   58.6160   28.4410   48.1660 C   0  0  0  0  0  0  0  0  0  0  0  0
   59.9060   27.9510   48.4200 C   0  0  0  0  0  0  0  0  0  0  0  0
   60.8370   28.7270   49.2630 C   0  0  0  0  0  0  0  0  0  0  0  0
   61.4750   28.1460   50.1830 O   0  0  0  0  0  0  0  0  0  0  0  0
   60.9840   30.1440   49.0750 N   0  0  0  0  0  0  0  0  0  0  0  0
   61.9100   30.9300   49.8920 C   0  0  0  0  0  0  0  0  0  0  0  0
   61.1350   31.8080   50.8870 C   0  0  0  0  0  0  0  0  0  0  0  0
   59.8920   32.3890   50.3360 N   0  0  0  0  0  0  0  0  0  0  0  0
   59.6180   33.7820   50.7490 C   0  0  0  0  0  0  0  0  0  0  0  0
   58.7210   33.8740   52.0080 C   0  0  0  0  0  0  0  0  0  0  0  0
   58.1890   32.6260   52.4120 O   0  0  0  0  0  0  0  0  0  0  0  0
   57.6160   31.9750   51.3010 C   0  0  0  0  0  0  0  0  0  0  0  0
   58.7180   31.4890   50.3490 C   0  0  0  0  0  0  0  0  0  0  0  0
   60.3060   26.7370   47.8370 C   0  0  0  0  0  0  0  0  0  0  0  0
   59.4430   26.0460   46.9820 C   0  0  0  0  0  0  0  0  0  0  0  0
   59.6140   28.7180   44.7910 C   0  0  0  0  0  0  0  0  0  0  0  0
   59.3850   29.9890   45.2690 C   0  0  0  0  0  0  0  0  0  0  0  0
   60.1450   30.8350   46.0650 C   0  0  0  0  0  0  0  0  0  0  0  0
   61.2890   30.4720   46.4590 O   0  0  0  0  0  0  0  0  0  0  0  0
   59.6190   32.0640   46.4060 N   0  0  0  0  0  0  0  0  0  0  0  0
   60.3450   32.9460   47.1670 C   0  0  0  0  0  0  0  0  0  0  0  0
   59.8150   34.1880   47.5230 C   0  0  0  0  0  0  0  0  0  0  0  0
   58.5330   34.5360   47.1050 C   0  0  0  0  0  0  0  0  0  0  0  0
   57.7940   33.6480   46.3280 C   0  0  0  0  0  0  0  0  0  0  0  0
   58.3440   32.4120   45.9740 C   0  0  0  0  0  0  0  0  0  0  0  0
   57.6130   31.5590   45.1970 N   0  0  0  0  0  0  0  0  0  0  0  0
   58.1500   30.3670   44.8490 C   0  0  0  0  0  0  0  0  0  0  0  0
   55.4811   29.4342   44.3936 H   0  0  0  0  0  0  0  0  0  0  0  0
   56.0737   30.3241   42.9501 H   0  0  0  0  0  0  0  0  0  0  0  0
   56.0486   28.5280   42.9501 H   0  0  0  0  0  0  0  0  0  0  0  0
   56.4445   26.5541   45.4283 H   0  0  0  0  0  0  0  0  0  0  0  0
   57.0673   24.9262   45.8730 H   0  0  0  0  0  0  0  0  0  0  0  0
   56.7600   28.1639   47.0822 H   0  0  0  0  0  0  0  0  0  0  0  0
   58.2756   29.3655   48.6553 H   0  0  0  0  0  0  0  0  0  0  0  0
   60.3670   30.6300   48.3860 H   0  0  0  0  0  0  0  0  0  0  0  0
   62.5704   30.2485   50.4482 H   0  0  0  0  0  0  0  0  0  0  0  0
   62.5049   31.5788   49.2323 H   0  0  0  0  0  0  0  0  0  0  0  0
   60.8716   31.1920   51.7594 H   0  0  0  0  0  0  0  0  0  0  0  0
   61.7924   32.6510   51.1462 H   0  0  0  0  0  0  0  0  0  0  0  0
   60.5756   34.2789   50.9637 H   0  0  0  0  0  0  0  0  0  0  0  0
   59.0784   34.2700   49.9239 H   0  0  0  0  0  0  0  0  0  0  0  0
   59.3215   34.2811   52.8349 H   0  0  0  0  0  0  0  0  0  0  0  0
   57.8698   34.5226   51.7534 H   0  0  0  0  0  0  0  0  0  0  0  0
   57.0282   31.1123   51.6479 H   0  0  0  0  0  0  0  0  0  0  0  0
   56.9637   32.6813   50.7665 H   0  0  0  0  0  0  0  0  0  0  0  0
   59.0441   30.4882   50.6684 H   0  0  0  0  0  0  0  0  0  0  0  0
   58.2983   31.4720   49.3324 H   0  0  0  0  0  0  0  0  0  0  0  0
   61.3037   26.3281   48.0546 H   0  0  0  0  0  0  0  0  0  0  0  0
   59.7610   25.0913   46.5377 H   0  0  0  0  0  0  0  0  0  0  0  0
   60.5120   28.1002   44.9392 H   0  0  0  0  0  0  0  0  0  0  0  0
   61.3566   32.6712   47.5005 H   0  0  0  0  0  0  0  0  0  0  0  0
   60.4073   34.8880   48.1306 H   0  0  0  0  0  0  0  0  0  0  0  0
   58.1056   35.5093   47.3878 H   0  0  0  0  0  0  0  0  0  0  0  0
   56.7813   33.9177   45.9938 H   0  0  0  0  0  0  0  0  0  0  0  0
  1  2  1  0
  2  3  1  0
  3  4  1  0
  4  5  2  0
  4  6  1  0
  6  7  1  0
  7  8  1  0
  8  9  2  0
  9 10  1  0
 10 11  2  0
 11 12  1  0
 12 13  2  0
 12 14  1  0
 14 15  1  0
 15 16  1  0
 16 17  1  0
 17 18  1  0
 18 19  1  0
 19 20  1  0
 20 21  1  0
 21 22  1  0
 11 23  1  0
 23 24  2  0
  3 25  2  0
 25 26  1  0
 26 27  1  0
 27 28  2  0
 27 29  1  0
 29 30  1  0
 30 31  2  0
 31 32  1  0
 32 33  2  0
 33 34  1  0
 34 35  2  0
 35 36  1  0
 36  2  1  0
 24  8  1  0
 36 26  2  0
 22 17  1  0
 34 29  1  0
  1 37  1  0
  1 38  1  0
  1 39  1  0
  7 40  1  0
  7 41  1  0
  9 42  1  0
 10 43  1  0
 14 44  1  0
 15 45  1  0
 15 46  1  0
 16 47  1  0
 16 48  1  0
 18 49  1  0
 18 50  1  0
 19 51  1  0
 19 52  1  0
 21 53  1  0
 21 54  1  0
 22 55  1  0
 22 56  1  0
 23 57  1  0
 24 58  1  0
 25 59  1  0
 30 60  1  0
 31 61  1  0
 32 62  1  0
 33 63  1  0
M  CHG  1   6  -1
M  END
>  <UniqueID>  (44) 
39

>  <SMILES>  (44) 
Cn1c(C(=O)[N-]Cc2ccc(C(=O)NCCN3CCOCC3)cc2)cc2c(=O)n3ccccc3nc21

>  <Energy>  (44) 
124.46070703458297

>  <Genealogy>  (44) 
Cn1c(C(=O)[N-]Cc2ccc(C(=O)NCCN3CCOCC3)cc2)cc2c(=O)n3ccccc3nc21 (protonated)
Cn1c(C(=O)[N-]Cc2ccc(C(=O)NCCN3CCOCC3)cc2)cc2c(=O)n3ccccc3nc21 (3D coordinates assigned)
Cn1c(C(=O)[N-]Cc2ccc(C(=O)NCCN3CCOCC3)cc2)cc2c(=O)n3ccccc3nc21 (nonaromatic ring conformer: 124.46070703458297 kcal/mol)

>  <smiles>  (44) 
Cn1c(C(=O)NCc2ccc(C(=O)NCCN3CCOCC3)cc2)cc2c(=O)n3ccccc3nc21

>  <score_type>  (44) 
oracle

>  <origin>  (44) 
adg

>  <m_score__min__energy>  (44) 
-10.619999999999999

>  <m_primary>  (44) 
energy

$$$$
44:0
     RDKit          3D

 58 61  0  0  0  0  0  0  0  0999 V2000
   60.4960   27.7330   48.5860 H   0  0  0  0  0  0  0  0  0  0  0  0
   60.4570   28.0380   49.5850 N   0  0  0  0  0  0  0  0  0  0  0  0
   60.9520   29.1680   49.9910 C   0  0  0  0  0  0  0  0  0  0  0  0
   60.4940   30.4400   49.3590 C   0  0  0  0  0  0  0  0  0  0  0  0
   59.2180   30.9660   49.6270 C   0  0  0  0  0  0  0  0  0  0  0  0
   58.5508   30.4455   50.3298 H   0  0  0  0  0  0  0  0  0  0  0  0
   58.7900   32.1420   49.0100 C   0  0  0  0  0  0  0  0  0  0  0  0
   57.7925   32.5447   49.2396 H   0  0  0  0  0  0  0  0  0  0  0  0
   59.6160   32.8150   48.1020 C   0  0  0  0  0  0  0  0  0  0  0  0
   58.9380   34.2250   47.2040 S   0  0  0  0  0  0  0  0  0  0  0  0
   58.5390   33.2290   45.7640 C   0  0  0  0  0  0  0  0  0  0  0  0
   58.4170   33.8430   44.5120 C   0  0  0  0  0  0  0  0  0  0  0  0
   58.6128   34.9204   44.4075 H   0  0  0  0  0  0  0  0  0  0  0  0
   58.0470   33.0900   43.3950 C   0  0  0  0  0  0  0  0  0  0  0  0
   57.9806   33.5704   42.4077 H   0  0  0  0  0  0  0  0  0  0  0  0
   57.7600   31.7240   43.5280 C   0  0  0  0  0  0  0  0  0  0  0  0
   57.3930   30.9770   42.4080 O   0  0  0  0  0  0  0  0  0  0  0  0
   57.3890   29.9640   42.4230 H   0  0  0  0  0  0  0  0  0  0  0  0
   57.8460   31.1120   44.7930 C   0  0  0  0  0  0  0  0  0  0  0  0
   57.4330   29.7080   44.9860 C   0  0  0  0  0  0  0  0  0  0  0  0
   56.4370   29.2760   44.3460 O   0  0  0  0  0  0  0  0  0  0  0  0
   58.1660   28.8190   45.8590 N   0  0  0  0  0  0  0  0  0  0  0  0
   57.5160   27.5930   46.3400 C   0  0  0  0  0  0  0  0  0  0  0  0
   56.5666   27.8576   46.8285 H   0  0  0  0  0  0  0  0  0  0  0  0
   57.3368   26.9318   45.4793 H   0  0  0  0  0  0  0  0  0  0  0  0
   58.4090   26.8520   47.3470 C   0  0  0  0  0  0  0  0  0  0  0  0
   58.4557   27.4400   48.2755 H   0  0  0  0  0  0  0  0  0  0  0  0
   57.9664   25.8593   47.5166 H   0  0  0  0  0  0  0  0  0  0  0  0
   59.7880   26.6480   46.8450 N   0  0  0  0  0  0  0  0  0  0  0  0
   59.8840   25.4360   46.0140 C   0  0  0  0  0  0  0  0  0  0  0  0
   59.9541   24.5508   46.6633 H   0  0  0  0  0  0  0  0  0  0  0  0
   58.9895   25.3550   45.3790 H   0  0  0  0  0  0  0  0  0  0  0  0
   60.7801   25.4968   45.3790 H   0  0  0  0  0  0  0  0  0  0  0  0
   60.3950   27.8230   46.1670 C   0  0  0  0  0  0  0  0  0  0  0  0
   61.3753   28.0199   46.6255 H   0  0  0  0  0  0  0  0  0  0  0  0
   60.4729   27.5720   45.0989 H   0  0  0  0  0  0  0  0  0  0  0  0
   59.5490   29.1000   46.2660 C   0  0  0  0  0  0  0  0  0  0  0  0
   59.5566   29.4624   47.3045 H   0  0  0  0  0  0  0  0  0  0  0  0
   59.9727   29.8664   45.6003 H   0  0  0  0  0  0  0  0  0  0  0  0
   58.2790   31.8590   45.8980 C   0  0  0  0  0  0  0  0  0  0  0  0
   58.4149   31.3678   46.8728 H   0  0  0  0  0  0  0  0  0  0  0  0
   60.9230   32.3340   47.8550 C   0  0  0  0  0  0  0  0  0  0  0  0
   61.9020   33.1030   47.0410 C   0  0  0  0  0  0  0  0  0  0  0  0
   61.5080   33.6990   46.0040 O   0  0  0  0  0  0  0  0  0  0  0  0
   63.2580   33.3030   47.4640 N   0  0  0  0  0  0  0  0  0  0  0  0
   63.6670   33.3480   48.6960 C   0  0  0  0  0  0  0  0  0  0  0  0
   64.7960   32.7610   49.1460 N   0  0  0  0  0  0  0  0  0  0  0  0
   65.0000   33.0280   50.4640 C   0  0  0  0  0  0  0  0  0  0  0  0
   65.8684   32.6394   51.0161 H   0  0  0  0  0  0  0  0  0  0  0  0
   64.0330   33.8270   51.0640 C   0  0  0  0  0  0  0  0  0  0  0  0
   64.0207   34.1467   52.1164 H   0  0  0  0  0  0  0  0  0  0  0  0
   62.8850   34.2190   49.8980 S   0  0  0  0  0  0  0  0  0  0  0  0
   61.3430   31.1470   48.4850 C   0  0  0  0  0  0  0  0  0  0  0  0
   62.3555   30.7635   48.2906 H   0  0  0  0  0  0  0  0  0  0  0  0
   61.9620   29.1740   51.1080 C   0  0  0  0  0  0  0  0  0  0  0  0
   61.4387   29.1709   52.0755 H   0  0  0  0  0  0  0  0  0  0  0  0
   62.5979   28.2796   51.0322 H   0  0  0  0  0  0  0  0  0  0  0  0
   62.5872   30.0759   51.0322 H   0  0  0  0  0  0  0  0  0  0  0  0
  1  2  1  0
  2  3  2  0
  3  4  1  0
  4  5  2  0
  5  6  1  0
  5  7  1  0
  7  8  1  0
  7  9  2  0
  9 10  1  0
 10 11  1  0
 11 12  2  0
 12 13  1  0
 12 14  1  0
 14 15  1  0
 14 16  2  0
 16 17  1  0
 17 18  1  0
 16 19  1  0
 19 20  1  0
 20 21  2  0
 20 22  1  0
 22 23  1  0
 23 24  1  0
 23 25  1  0
 23 26  1  0
 26 27  1  0
 26 28  1  0
 26 29  1  0
 29 30  1  0
 30 31  1  0
 30 32  1  0
 30 33  1  0
 29 34  1  0
 34 35  1  0
 34 36  1  0
 34 37  1  0
 37 38  1  0
 37 39  1  0
 19 40  2  0
 40 41  1  0
  9 42  1  0
 42 43  1  0
 43 44  2  0
 43 45  1  0
 45 46  2  3
 46 47  1  0
 47 48  1  0
 48 49  1  0
 48 50  2  0
 50 51  1  0
 50 52  1  0
 42 53  2  0
 53 54  1  0
  3 55  1  0
 55 56  1  0
 55 57  1  0
 55 58  1  0
 53  4  1  0
 40 11  1  0
 52 46  1  0
 37 22  1  0
M  CHG  1  47  -1
M  END
>  <UniqueID>  (45) 
40

>  <SMILES>  (45) 
[H]/N=C(\C)c1ccc(Sc2ccc(O)c(C(=O)N3CCN(C)CC3)c2)c(C(=O)N=c2[n-]ccs2)c1

>  <Energy>  (45) 
108.10369846396542

>  <Genealogy>  (45) 
CC(=N)c1ccc(Sc2ccc(O)c(C(=O)N3CCN(C)CC3)c2)c(C(=O)N=c2[n-]ccs2)c1 (protonated)
[H]/N=C(\C)c1ccc(Sc2ccc(O)c(C(=O)N3CCN(C)CC3)c2)c(C(=O)N=c2[n-]ccs2)c1 (cis-trans isomerization)
[H]/N=C(\C)c1ccc(Sc2ccc(O)c(C(=O)N3CCN(C)CC3)c2)c(C(=O)N=c2[n-]ccs2)c1 (3D coordinates assigned)
[H]/N=C(\C)c1ccc(Sc2ccc(O)c(C(=O)N3CCN(C)CC3)c2)c(C(=O)N=c2[n-]ccs2)c1 (nonaromatic ring conformer: 108.10369846396542 kcal/mol)

>  <smiles>  (45) 
CC(=N)c1ccc(Sc2ccc(O)c(C(=O)N3CCN(C)CC3)c2)c(C(=O)N=c2[nH]ccs2)c1

>  <score_type>  (45) 
oracle

>  <origin>  (45) 
adg

>  <m_score__min__energy>  (45) 
-10.81

>  <m_primary>  (45) 
energy

$$$$
45:0
     RDKit          3D

 75 80  0  0  0  0  0  0  0  0999 V2000
   55.1777   28.6911   51.8127 H   0  0  0  0  0  0  0  0  0  0  0  0
   55.7270   29.4620   52.3730 C   0  0  0  0  0  0  0  0  0  0  0  0
   56.3740   30.4560   51.7060 N   0  0  0  0  0  0  0  0  0  0  0  0
   57.0740   31.4280   52.3610 C   0  0  0  0  0  0  0  0  0  0  0  0
   57.6860   32.3750   51.7080 N   0  0  0  0  0  0  0  0  0  0  0  0
   58.4020   33.4760   52.2920 C   0  0  0  0  0  0  0  0  0  0  0  0
   57.8300   34.5930   52.3840 O   0  0  0  0  0  0  0  0  0  0  0  0
   59.7410   33.3370   52.7900 N   0  0  0  0  0  0  0  0  0  0  0  0
   60.9260   33.2150   51.9890 C   0  0  0  0  0  0  0  0  0  0  0  0
   60.9840   33.7360   50.6860 C   0  0  0  0  0  0  0  0  0  0  0  0
   60.1074   34.2492   50.2637 H   0  0  0  0  0  0  0  0  0  0  0  0
   62.1500   33.6070   49.9200 C   0  0  0  0  0  0  0  0  0  0  0  0
   63.2840   32.9820   50.4750 C   0  0  0  0  0  0  0  0  0  0  0  0
   63.2250   32.4560   51.7750 C   0  0  0  0  0  0  0  0  0  0  0  0
   64.1128   31.9776   52.2144 H   0  0  0  0  0  0  0  0  0  0  0  0
   62.0380   32.5390   52.5140 C   0  0  0  0  0  0  0  0  0  0  0  0
   61.9470   31.9350   53.7690 O   0  0  0  0  0  0  0  0  0  0  0  0
   61.1540   30.8000   53.9600 C   0  0  0  0  0  0  0  0  0  0  0  0
   60.4620   30.6410   55.1660 C   0  0  0  0  0  0  0  0  0  0  0  0
   60.6198   31.3546   55.9881 H   0  0  0  0  0  0  0  0  0  0  0  0
   59.5710   29.5770   55.3270 C   0  0  0  0  0  0  0  0  0  0  0  0
   59.0158   29.4634   56.2698 H   0  0  0  0  0  0  0  0  0  0  0  0
   59.3840   28.6560   54.2910 C   0  0  0  0  0  0  0  0  0  0  0  0
   58.6593   27.8369   54.4087 H   0  0  0  0  0  0  0  0  0  0  0  0
   60.1180   28.7750   53.1040 C   0  0  0  0  0  0  0  0  0  0  0  0
   59.9520   27.8190   52.0530 N   0  0  0  0  0  0  0  0  0  0  0  0
   60.5650   27.9790   50.7680 C   0  0  0  0  0  0  0  0  0  0  0  0
   61.5060   27.2090   50.4410 O   0  0  0  0  0  0  0  0  0  0  0  0
   60.1190   29.0330   49.8310 C   0  0  0  0  0  0  0  0  0  0  0  0
   60.4260   28.9460   48.4690 C   0  0  0  0  0  0  0  0  0  0  0  0
   60.9797   28.0751   48.0883 H   0  0  0  0  0  0  0  0  0  0  0  0
   60.0340   29.9580   47.5890 C   0  0  0  0  0  0  0  0  0  0  0  0
   60.2769   29.8674   46.5200 H   0  0  0  0  0  0  0  0  0  0  0  0
   59.3300   31.0980   48.0470 C   0  0  0  0  0  0  0  0  0  0  0  0
   58.9460   32.1720   47.1340 N   0  0  0  0  0  0  0  0  0  0  0  0
   58.2020   31.8440   45.8960 C   0  0  0  0  0  0  0  0  0  0  0  0
   58.8003   31.1307   45.3101 H   0  0  0  0  0  0  0  0  0  0  0  0
   57.2330   31.4251   46.2051 H   0  0  0  0  0  0  0  0  0  0  0  0
   57.9020   33.0640   45.0140 C   0  0  0  0  0  0  0  0  0  0  0  0
   58.7756   33.2678   44.3773 H   0  0  0  0  0  0  0  0  0  0  0  0
   57.0154   32.8377   44.4035 H   0  0  0  0  0  0  0  0  0  0  0  0
   57.6240   34.2070   45.7880 O   0  0  0  0  0  0  0  0  0  0  0  0
   58.8000   34.5840   46.4640 C   0  0  0  0  0  0  0  0  0  0  0  0
   59.6334   34.6242   45.7472 H   0  0  0  0  0  0  0  0  0  0  0  0
   58.6479   35.5727   46.9216 H   0  0  0  0  0  0  0  0  0  0  0  0
   59.1280   33.5750   47.5610 C   0  0  0  0  0  0  0  0  0  0  0  0
   60.1763   33.7154   47.8632 H   0  0  0  0  0  0  0  0  0  0  0  0
   58.4308   33.7571   48.3921 H   0  0  0  0  0  0  0  0  0  0  0  0
   59.0350   31.1710   49.4260 C   0  0  0  0  0  0  0  0  0  0  0  0
   58.4872   32.0413   49.8166 H   0  0  0  0  0  0  0  0  0  0  0  0
   59.4270   30.1570   50.3020 C   0  0  0  0  0  0  0  0  0  0  0  0
   59.1903   30.2412   51.3729 H   0  0  0  0  0  0  0  0  0  0  0  0
   61.0150   29.8360   52.9480 C   0  0  0  0  0  0  0  0  0  0  0  0
   61.6143   29.9161   52.0291 H   0  0  0  0  0  0  0  0  0  0  0  0
   64.4960   32.8480   49.6420 C   0  0  0  0  0  0  0  0  0  0  0  0
   65.5910   32.4820   50.1430 O   0  0  0  0  0  0  0  0  0  0  0  0
   64.4200   33.1540   48.2470 N   0  0  0  0  0  0  0  0  0  0  0  0
   63.1340   33.3930   47.5900 C   0  0  0  0  0  0  0  0  0  0  0  0
   62.4840   32.0390   47.2410 C   0  0  0  0  0  0  0  0  0  0  0  0
   62.2279   31.5054   48.1682 H   0  0  0  0  0  0  0  0  0  0  0  0
   61.5705   32.2115   46.6529 H   0  0  0  0  0  0  0  0  0  0  0  0
   63.1899   31.4341   46.6529 H   0  0  0  0  0  0  0  0  0  0  0  0
   63.3850   34.1820   46.2960 C   0  0  0  0  0  0  0  0  0  0  0  0
   63.7097   35.2028   46.5461 H   0  0  0  0  0  0  0  0  0  0  0  0
   64.1684   33.6818   45.7077 H   0  0  0  0  0  0  0  0  0  0  0  0
   62.4566   34.2264   45.7077 H   0  0  0  0  0  0  0  0  0  0  0  0
   62.2130   34.2090   48.5330 C   0  0  0  0  0  0  0  0  0  0  0  0
   62.6009   35.2356   48.6082 H   0  0  0  0  0  0  0  0  0  0  0  0
   61.1974   34.1988   48.1105 H   0  0  0  0  0  0  0  0  0  0  0  0
   57.1140   31.4250   53.7630 C   0  0  0  0  0  0  0  0  0  0  0  0
   57.6579   32.2130   54.3045 H   0  0  0  0  0  0  0  0  0  0  0  0
   56.4560   30.4110   54.4660 C   0  0  0  0  0  0  0  0  0  0  0  0
   56.4865   30.3938   55.5654 H   0  0  0  0  0  0  0  0  0  0  0  0
   55.7600   29.4200   53.7700 C   0  0  0  0  0  0  0  0  0  0  0  0
   55.2438   28.6158   54.3148 H   0  0  0  0  0  0  0  0  0  0  0  0
  1  2  1  0
  2  3  1  0
  3  4  1  0
  4  5  2  0
  5  6  1  0
  6  7  2  0
  6  8  1  0
  8  9  1  0
  9 10  2  0
 10 11  1  0
 10 12  1  0
 12 13  2  0
 13 14  1  0
 14 15  1  0
 14 16  2  0
 16 17  1  0
 17 18  1  0
 18 19  2  0
 19 20  1  0
 19 21  1  0
 21 22  1  0
 21 23  2  0
 23 24  1  0
 23 25  1  0
 25 26  1  0
 26 27  1  0
 27 28  2  0
 27 29  1  0
 29 30  2  0
 30 31  1  0
 30 32  1  0
 32 33  1  0
 32 34  2  0
 34 35  1  0
 35 36  1  0
 36 37  1  0
 36 38  1  0
 36 39  1  0
 39 40  1  0
 39 41  1  0
 39 42  1  0
 42 43  1  0
 43 44  1  0
 43 45  1  0
 43 46  1  0
 46 47  1  0
 46 48  1  0
 34 49  1  0
 49 50  1  0
 49 51  2  0
 51 52  1  0
 25 53  2  0
 53 54  1  0
 13 55  1  0
 55 56  2  0
 55 57  1  0
 57 58  1  0
 58 59  1  0
 59 60  1  0
 59 61  1  0
 59 62  1  0
 58 63  1  0
 63 64  1  0
 63 65  1  0
 63 66  1  0
 58 67  1  0
 67 68  1  0
 67 69  1  0
  4 70  1  0
 70 71  1  0
 70 72  2  0
 72 73  1  0
 72 74  1  0
 74 75  1  0
 74  2  2  0
 16  9  1  0
 53 18  1  0
 67 12  1  0
 51 29  1  0
 46 35  1  0
M  CHG  4   3  -1   8  -1  26  -1  57  -1
M  END
>  <UniqueID>  (46) 
41

>  <SMILES>  (46) 
CC1(C)Cc2cc([N-]C(=O)/N=c3/cccc[n-]3)c(Oc3cccc([N-]C(=O)c4ccc(N5CCOCC5)cc4)c3)cc2C(=O)[N-]1

>  <Energy>  (46) 
119.11918431373664

>  <Genealogy>  (46) 
CC1(C)Cc2cc([N-]C(=O)N=c3cccc[n-]3)c(Oc3cccc([N-]C(=O)c4ccc(N5CCOCC5)cc4)c3)cc2C(=O)[N-]1 (protonated)
CC1(C)Cc2cc([N-]C(=O)/N=c3/cccc[n-]3)c(Oc3cccc([N-]C(=O)c4ccc(N5CCOCC5)cc4)c3)cc2C(=O)[N-]1 (cis-trans isomerization)
CC1(C)Cc2cc([N-]C(=O)/N=c3/cccc[n-]3)c(Oc3cccc([N-]C(=O)c4ccc(N5CCOCC5)cc4)c3)cc2C(=O)[N-]1 (3D coordinates assigned)
CC1(C)Cc2cc([N-]C(=O)/N=c3/cccc[n-]3)c(Oc3cccc([N-]C(=O)c4ccc(N5CCOCC5)cc4)c3)cc2C(=O)[N-]1 (nonaromatic ring conformer: 119.11918431373664 kcal/mol)

>  <smiles>  (46) 
CC1(C)Cc2cc(NC(=O)N=c3cccc[nH]3)c(Oc3cccc(NC(=O)c4ccc(N5CCOCC5)cc4)c3)cc2C(=O)N1

>  <score_type>  (46) 
oracle

>  <origin>  (46) 
adg

>  <m_score__min__energy>  (46) 
-14.74

>  <m_primary>  (46) 
energy

$$$$
46:0
     RDKit          3D

 57 61  0  0  0  0  0  0  0  0999 V2000
   56.0040   30.5140   43.2480 O   0  0  0  0  0  0  0  0  0  0  0  0
   56.5750   30.4630   44.3690 C   0  0  0  0  0  0  0  0  0  0  0  0
   56.6650   31.6630   45.1500 N   0  0  0  0  0  0  0  0  0  0  0  0
   57.8530   32.1890   45.7590 C   0  0  0  0  0  0  0  0  0  0  0  0
   58.0590   33.5720   45.7590 C   0  0  0  0  0  0  0  0  0  0  0  0
   59.2090   34.1170   46.3360 C   0  0  0  0  0  0  0  0  0  0  0  0
   60.1840   33.2810   46.9070 C   0  0  0  0  0  0  0  0  0  0  0  0
   61.3620   33.8410   47.5180 N   0  0  0  0  0  0  0  0  0  0  0  0
   61.3150   34.3150   48.9090 C   0  0  0  0  0  0  0  0  0  0  0  0
   62.7280   34.4330   49.4930 C   0  0  0  0  0  0  0  0  0  0  0  0
   63.5530   33.3320   48.9680 N   0  0  0  0  0  0  0  0  0  0  0  0
   64.7750   33.0730   49.7630 C   0  0  0  0  0  0  0  0  0  0  0  0
   64.7480   31.7620   50.5240 C   0  0  0  0  0  0  0  0  0  0  0  0
   65.9410   31.1910   51.0050 C   0  0  0  0  0  0  0  0  0  0  0  0
   65.9110   29.9830   51.7090 C   0  0  0  0  0  0  0  0  0  0  0  0
   64.6940   29.3430   51.9500 C   0  0  0  0  0  0  0  0  0  0  0  0
   63.5020   29.9100   51.4920 C   0  0  0  0  0  0  0  0  0  0  0  0
   63.5270   31.1170   50.7870 C   0  0  0  0  0  0  0  0  0  0  0  0
   63.8140   33.4630   47.5170 C   0  0  0  0  0  0  0  0  0  0  0  0
   62.6000   34.0210   46.7470 C   0  0  0  0  0  0  0  0  0  0  0  0
   59.9830   31.8920   46.8920 C   0  0  0  0  0  0  0  0  0  0  0  0
   58.8330   31.3480   46.3140 C   0  0  0  0  0  0  0  0  0  0  0  0
   57.0930   29.1660   44.8520 C   0  0  0  0  0  0  0  0  0  0  0  0
   58.4710   28.9170   44.9510 C   0  0  0  0  0  0  0  0  0  0  0  0
   58.9230   27.6790   45.4140 C   0  0  0  0  0  0  0  0  0  0  0  0
   60.1630   27.4620   45.4910 O   0  0  0  0  0  0  0  0  0  0  0  0
   57.9930   26.6930   45.7930 C   0  0  0  0  0  0  0  0  0  0  0  0
   58.3950   25.4300   46.2660 C   0  0  0  0  0  0  0  0  0  0  0  0
   57.4390   24.4820   46.6380 C   0  0  0  0  0  0  0  0  0  0  0  0
   56.0770   24.7810   46.5440 C   0  0  0  0  0  0  0  0  0  0  0  0
   55.6610   26.0310   46.0760 C   0  0  0  0  0  0  0  0  0  0  0  0
   54.3030   26.3150   45.9870 O   0  0  0  0  0  0  0  0  0  0  0  0
   56.6130   26.9890   45.6980 C   0  0  0  0  0  0  0  0  0  0  0  0
   56.2100   28.2050   45.2390 N   0  0  0  0  0  0  0  0  0  0  0  0
   57.3105   34.2356   45.3015 H   0  0  0  0  0  0  0  0  0  0  0  0
   59.3522   35.2076   46.3434 H   0  0  0  0  0  0  0  0  0  0  0  0
   60.8296   35.3017   48.9374 H   0  0  0  0  0  0  0  0  0  0  0  0
   60.7453   33.5902   49.5090 H   0  0  0  0  0  0  0  0  0  0  0  0
   63.1693   35.3973   49.2007 H   0  0  0  0  0  0  0  0  0  0  0  0
   62.6842   34.3761   50.5907 H   0  0  0  0  0  0  0  0  0  0  0  0
   65.6363   33.0584   49.0789 H   0  0  0  0  0  0  0  0  0  0  0  0
   64.8436   33.8752   50.5125 H   0  0  0  0  0  0  0  0  0  0  0  0
   66.9012   31.6971   50.8264 H   0  0  0  0  0  0  0  0  0  0  0  0
   66.8479   29.5364   52.0734 H   0  0  0  0  0  0  0  0  0  0  0  0
   64.6735   28.3912   52.5011 H   0  0  0  0  0  0  0  0  0  0  0  0
   62.5435   29.4065   51.6862 H   0  0  0  0  0  0  0  0  0  0  0  0
   62.5855   31.5647   50.4360 H   0  0  0  0  0  0  0  0  0  0  0  0
   64.6666   34.1426   47.3718 H   0  0  0  0  0  0  0  0  0  0  0  0
   64.0265   32.4581   47.1234 H   0  0  0  0  0  0  0  0  0  0  0  0
   62.7546   35.0938   46.5594 H   0  0  0  0  0  0  0  0  0  0  0  0
   62.5050   33.4746   45.7971 H   0  0  0  0  0  0  0  0  0  0  0  0
   60.7365   31.2266   47.3386 H   0  0  0  0  0  0  0  0  0  0  0  0
   58.6940   30.2570   46.2932 H   0  0  0  0  0  0  0  0  0  0  0  0
   59.1935   29.6954   44.6645 H   0  0  0  0  0  0  0  0  0  0  0  0
   59.4654   25.1886   46.3430 H   0  0  0  0  0  0  0  0  0  0  0  0
   57.7594   23.4963   47.0064 H   0  0  0  0  0  0  0  0  0  0  0  0
   55.3295   24.0300   46.8394 H   0  0  0  0  0  0  0  0  0  0  0  0
  1  2  2  0
  2  3  1  0
  3  4  1  0
  4  5  2  0
  5  6  1  0
  6  7  2  0
  7  8  1  0
  8  9  1  0
  9 10  1  0
 10 11  1  0
 11 12  1  0
 12 13  1  0
 13 14  2  0
 14 15  1  0
 15 16  2  0
 16 17  1  0
 17 18  2  0
 11 19  1  0
 19 20  1  0
  7 21  1  0
 21 22  2  0
  2 23  1  0
 23 24  2  0
 24 25  1  0
 25 26  2  0
 25 27  1  0
 27 28  2  0
 28 29  1  0
 29 30  2  0
 30 31  1  0
 31 32  1  0
 31 33  2  0
 33 34  1  0
 22  4  1  0
 34 23  1  0
 20  8  1  0
 33 27  1  0
 18 13  1  0
  5 35  1  0
  6 36  1  0
  9 37  1  0
  9 38  1  0
 10 39  1  0
 10 40  1  0
 12 41  1  0
 12 42  1  0
 14 43  1  0
 15 44  1  0
 16 45  1  0
 17 46  1  0
 18 47  1  0
 19 48  1  0
 19 49  1  0
 20 50  1  0
 20 51  1  0
 21 52  1  0
 22 53  1  0
 24 54  1  0
 28 55  1  0
 29 56  1  0
 30 57  1  0
M  CHG  3   3  -1  32  -1  34  -1
M  END
>  <UniqueID>  (47) 
42

>  <SMILES>  (47) 
O=C([N-]c1ccc(N2CCN(Cc3ccccc3)CC2)cc1)c1cc(=O)c2cccc([O-])c2[n-]1

>  <Energy>  (47) 
86.45104459265464

>  <Genealogy>  (47) 
O=C([N-]c1ccc(N2CCN(Cc3ccccc3)CC2)cc1)c1cc(=O)c2cccc([O-])c2[n-]1 (protonated)
O=C([N-]c1ccc(N2CCN(Cc3ccccc3)CC2)cc1)c1cc(=O)c2cccc([O-])c2[n-]1 (3D coordinates assigned)
O=C([N-]c1ccc(N2CCN(Cc3ccccc3)CC2)cc1)c1cc(=O)c2cccc([O-])c2[n-]1 (nonaromatic ring conformer: 86.45104459265464 kcal/mol)

>  <smiles>  (47) 
O=C(Nc1ccc(N2CCN(Cc3ccccc3)CC2)cc1)c1cc(=O)c2cccc(O)c2[nH]1

>  <score_type>  (47) 
oracle

>  <origin>  (47) 
adg

>  <m_score__min__energy>  (47) 
-17.280000000000001

>  <m_primary>  (47) 
energy

$$$$
47:0
     RDKit          3D

 45 48  0  0  0  0  0  0  0  0999 V2000
   58.2740   34.6370   44.8820 C   0  0  0  0  0  0  0  0  0  0  0  0
   58.4420   33.4270   45.7540 C   0  0  0  0  0  0  0  0  0  0  0  0
   58.3810   32.1400   45.1990 C   0  0  0  0  0  0  0  0  0  0  0  0
   58.5700   31.0140   46.0050 C   0  0  0  0  0  0  0  0  0  0  0  0
   58.8360   31.1610   47.3700 C   0  0  0  0  0  0  0  0  0  0  0  0
   59.0080   30.0810   48.1260 O   0  0  0  0  0  0  0  0  0  0  0  0
   59.2750   30.1510   49.4250 C   0  0  0  0  0  0  0  0  0  0  0  0
   59.4020   31.3910   50.0650 C   0  0  0  0  0  0  0  0  0  0  0  0
   59.6740   31.4300   51.5140 C   0  0  0  0  0  0  0  0  0  0  0  0
   58.7860   31.0580   52.4450 C   0  0  0  0  0  0  0  0  0  0  0  0
   58.6530   31.6320   53.7690 C   0  0  0  0  0  0  0  0  0  0  0  0
   57.6310   31.0430   54.3850 C   0  0  0  0  0  0  0  0  0  0  0  0
   56.9600   30.0390   53.5980 N   0  0  1  0  0  0  0  0  0  0  0  0
   55.5690   30.3850   53.3890 C   0  0  0  0  0  0  0  0  0  0  0  0
   55.1250   30.9640   52.1790 C   0  0  0  0  0  0  0  0  0  0  0  0
   53.7780   31.2880   51.9970 C   0  0  0  0  0  0  0  0  0  0  0  0
   52.8490   31.0370   53.0150 C   0  0  0  0  0  0  0  0  0  0  0  0
   51.1560   31.4600   52.7890 S   0  0  0  0  0  0  0  0  0  0  0  0
   51.0220   32.6680   51.5610 N   0  0  0  0  0  0  0  0  0  0  0  0
   50.3750   30.2420   52.3820 O   0  0  0  0  0  0  0  0  0  0  0  0
   50.5860   31.9900   54.0750 O   0  0  0  0  0  0  0  0  0  0  0  0
   53.2810   30.4710   54.2210 C   0  0  0  0  0  0  0  0  0  0  0  0
   54.6270   30.1470   54.4060 C   0  0  0  0  0  0  0  0  0  0  0  0
   57.7070   30.0820   52.3750 C   0  0  0  0  0  0  0  0  0  0  0  0
   57.4310   29.3680   51.3740 O   0  0  0  0  0  0  0  0  0  0  0  0
   59.1940   32.5600   49.3120 C   0  0  0  0  0  0  0  0  0  0  0  0
   59.2410   33.6910   49.8700 O   0  0  0  0  0  0  0  0  0  0  0  0
   58.9190   32.4520   47.9380 C   0  0  0  0  0  0  0  0  0  0  0  0
   58.7230   33.5810   47.1210 C   0  0  0  0  0  0  0  0  0  0  0  0
   58.1501   35.5294   45.5131 H   0  0  0  0  0  0  0  0  0  0  0  0
   59.1640   34.7577   44.2469 H   0  0  0  0  0  0  0  0  0  0  0  0
   57.3848   34.5107   44.2469 H   0  0  0  0  0  0  0  0  0  0  0  0
   58.1834   32.0165   44.1240 H   0  0  0  0  0  0  0  0  0  0  0  0
   58.5093   30.0081   45.5639 H   0  0  0  0  0  0  0  0  0  0  0  0
   59.3979   29.2247   50.0053 H   0  0  0  0  0  0  0  0  0  0  0  0
   60.6603   31.7840   51.8484 H   0  0  0  0  0  0  0  0  0  0  0  0
   59.2899   32.4220   54.1935 H   0  0  0  0  0  0  0  0  0  0  0  0
   57.3239   31.3008   55.4093 H   0  0  0  0  0  0  0  0  0  0  0  0
   57.0810   29.1020   54.0510 H   0  0  0  0  0  0  0  0  0  0  0  0
   55.8466   31.1616   51.3726 H   0  0  0  0  0  0  0  0  0  0  0  0
   53.4461   31.7416   51.0514 H   0  0  0  0  0  0  0  0  0  0  0  0
   50.2920   32.3390   50.8910 H   0  0  0  0  0  0  0  0  0  0  0  0
   52.5566   30.2806   55.0266 H   0  0  0  0  0  0  0  0  0  0  0  0
   54.9537   29.7010   55.3570 H   0  0  0  0  0  0  0  0  0  0  0  0
   58.7903   34.5893   47.5556 H   0  0  0  0  0  0  0  0  0  0  0  0
  1  2  1  0
  2  3  2  0
  3  4  1  0
  4  5  2  0
  5  6  1  0
  6  7  1  0
  7  8  2  0
  8  9  1  0
  9 10  2  3
 10 11  1  0
 11 12  2  0
 12 13  1  0
 13 14  1  0
 14 15  2  0
 15 16  1  0
 16 17  2  0
 17 18  1  0
 18 19  1  0
 18 20  2  0
 18 21  2  0
 17 22  1  0
 22 23  2  0
 13 24  1  0
 24 25  2  0
  8 26  1  0
 26 27  2  0
 26 28  1  0
 28 29  2  0
 29  2  1  0
 28  5  1  0
 24 10  1  0
 23 14  1  0
  1 30  1  0
  1 31  1  0
  1 32  1  0
  3 33  1  0
  4 34  1  0
  7 35  1  0
  9 36  1  0
 11 37  1  0
 12 38  1  0
 13 39  1  1
 15 40  1  0
 16 41  1  0
 19 42  1  0
 22 43  1  0
 23 44  1  0
 29 45  1  0
M  CHG  2  13   1  19  -1
M  END
>  <UniqueID>  (48) 
43

>  <SMILES>  (48) 
Cc1ccc2occ(C=C3C=C[N@@H+](c4ccc(S([NH-])(=O)=O)cc4)C3=O)c(=O)c2c1

>  <Energy>  (48) 
83.08366192659784

>  <Genealogy>  (48) 
Cc1ccc2occ(C=C3C=C[NH+](c4ccc(S([NH-])(=O)=O)cc4)C3=O)c(=O)c2c1 (protonated)
Cc1ccc2occ(C=C3C=C[N@@H+](c4ccc(S([NH-])(=O)=O)cc4)C3=O)c(=O)c2c1 (chirality)
Cc1ccc2occ(C=C3C=C[N@@H+](c4ccc(S([NH-])(=O)=O)cc4)C3=O)c(=O)c2c1 (3D coordinates assigned)
Cc1ccc2occ(C=C3C=C[N@@H+](c4ccc(S([NH-])(=O)=O)cc4)C3=O)c(=O)c2c1 (nonaromatic ring conformer: 83.08366192659784 kcal/mol)

>  <smiles>  (48) 
Cc1ccc2occ(C=C3C=CN(c4ccc(S(N)(=O)=O)cc4)C3=O)c(=O)c2c1

>  <score_type>  (48) 
oracle

>  <origin>  (48) 
adg

>  <m_score__min__energy>  (48) 
-11.029999999999999

>  <m_primary>  (48) 
energy

$$$$
48:0
     RDKit          3D

 53 56  0  0  0  0  0  0  0  0999 V2000
   56.1420   28.9900   45.0210 C   0  0  0  0  0  0  0  0  0  0  0  0
   57.4220   28.6780   45.2890 C   0  0  0  0  0  0  0  0  0  0  0  0
   57.8480   27.6020   46.0780 C   0  0  0  0  0  0  0  0  0  0  0  0
   57.0830   26.7170   46.7450 C   0  0  0  0  0  0  0  0  0  0  0  0
   56.6240   25.4350   46.1660 C   0  0  0  0  0  0  0  0  0  0  0  0
   55.2970   25.2920   45.7370 C   0  0  0  0  0  0  0  0  0  0  0  0
   54.3910   26.3360   45.8800 O   0  0  0  0  0  0  0  0  0  0  0  0
   54.8830   24.1220   45.1840 N   0  0  0  0  0  0  0  0  0  0  0  0
   55.7400   23.0810   45.0230 C   0  0  0  0  0  0  0  0  0  0  0  0
   55.3330   22.0050   44.5130 O   0  0  0  0  0  0  0  0  0  0  0  0
   57.0380   23.2020   45.4060 N   0  0  0  0  0  0  0  0  0  0  0  0
   57.5010   24.3510   45.9630 C   0  0  0  0  0  0  0  0  0  0  0  0
   58.7190   24.4400   46.2730 O   0  0  0  0  0  0  0  0  0  0  0  0
   59.2330   27.6460   46.0850 C   0  0  0  0  0  0  0  0  0  0  0  0
   59.6000   28.7190   45.3000 C   0  0  0  0  0  0  0  0  0  0  0  0
   61.0190   29.1530   45.0860 C   0  0  0  0  0  0  0  0  0  0  0  0
   58.5050   29.3590   44.8210 N   0  0  0  0  0  0  0  0  0  0  0  0
   58.5330   30.5680   43.9770 C   0  0  0  0  0  0  0  0  0  0  0  0
   58.4350   31.8180   44.8180 C   0  0  0  0  0  0  0  0  0  0  0  0
   58.8360   31.7920   46.1650 C   0  0  0  0  0  0  0  0  0  0  0  0
   58.7690   32.9510   46.9500 C   0  0  0  0  0  0  0  0  0  0  0  0
   59.1580   32.9260   48.3270 N   0  0  0  0  0  0  0  0  0  0  0  0
   60.2870   33.6130   48.8910 C   0  0  0  0  0  0  0  0  0  0  0  0
   60.1790   34.0970   50.0480 O   0  0  0  0  0  0  0  0  0  0  0  0
   61.5620   33.8650   48.1170 C   0  0  2  0  0  0  0  0  0  0  0  0
   61.9390   32.7010   47.2110 C   0  0  0  0  0  0  0  0  0  0  0  0
   63.4440   32.7680   47.1530 C   0  0  0  0  0  0  0  0  0  0  0  0
   63.8470   33.3970   48.4760 C   0  0  0  0  0  0  0  0  0  0  0  0
   62.6910   34.1180   49.0150 N   0  0  0  0  0  0  0  0  0  0  0  0
   58.2420   34.1260   46.4060 C   0  0  0  0  0  0  0  0  0  0  0  0
   57.8460   34.1640   45.0680 C   0  0  0  0  0  0  0  0  0  0  0  0
   57.9490   33.0200   44.2710 C   0  0  0  0  0  0  0  0  0  0  0  0
   57.5710   33.0900   42.9700 F   0  0  0  0  0  0  0  0  0  0  0  0
   55.9086   29.8587   44.3878 H   0  0  0  0  0  0  0  0  0  0  0  0
   55.3281   28.3766   45.4349 H   0  0  0  0  0  0  0  0  0  0  0  0
   56.7834   26.9601   47.7751 H   0  0  0  0  0  0  0  0  0  0  0  0
   59.9089   26.9582   46.6142 H   0  0  0  0  0  0  0  0  0  0  0  0
   61.5076   29.3024   46.0601 H   0  0  0  0  0  0  0  0  0  0  0  0
   61.5580   28.3786   44.5204 H   0  0  0  0  0  0  0  0  0  0  0  0
   61.0326   30.0964   44.5204 H   0  0  0  0  0  0  0  0  0  0  0  0
   59.4754   30.5890   43.4100 H   0  0  0  0  0  0  0  0  0  0  0  0
   57.6720   30.5377   43.2931 H   0  0  0  0  0  0  0  0  0  0  0  0
   59.2053   30.8546   46.6064 H   0  0  0  0  0  0  0  0  0  0  0  0
   61.3568   34.7510   47.4982 H   0  0  0  0  0  0  0  0  0  0  0  0
   61.6049   31.7451   47.6406 H   0  0  0  0  0  0  0  0  0  0  0  0
   61.4703   32.7640   46.2178 H   0  0  0  0  0  0  0  0  0  0  0  0
   63.8747   31.7607   47.0540 H   0  0  0  0  0  0  0  0  0  0  0  0
   63.8044   33.3445   46.2883 H   0  0  0  0  0  0  0  0  0  0  0  0
   64.1576   32.6122   49.1814 H   0  0  0  0  0  0  0  0  0  0  0  0
   64.6883   34.0895   48.3252 H   0  0  0  0  0  0  0  0  0  0  0  0
   62.8990   35.1450   49.0210 H   0  0  0  0  0  0  0  0  0  0  0  0
   58.1391   35.0232   47.0341 H   0  0  0  0  0  0  0  0  0  0  0  0
   57.4516   35.0971   44.6393 H   0  0  0  0  0  0  0  0  0  0  0  0
  1  2  2  0
  2  3  1  0
  3  4  2  3
  4  5  1  0
  5  6  2  0
  6  7  1  0
  6  8  1  0
  8  9  1  0
  9 10  2  0
  9 11  1  0
 11 12  1  0
 12 13  2  0
  3 14  1  0
 14 15  2  0
 15 16  1  0
 15 17  1  0
 17 18  1  0
 18 19  1  0
 19 20  2  0
 20 21  1  0
 21 22  1  0
 22 23  1  0
 23 24  2  0
 23 25  1  0
 25 26  1  0
 26 27  1  0
 27 28  1  0
 28 29  1  0
 21 30  2  0
 30 31  1  0
 31 32  2  0
 32 33  1  0
 17  2  1  0
 32 19  1  0
 12  5  1  0
 29 25  1  0
  1 34  1  0
  1 35  1  0
  4 36  1  0
 14 37  1  0
 16 38  1  0
 16 39  1  0
 16 40  1  0
 18 41  1  0
 18 42  1  0
 20 43  1  0
 25 44  1  6
 26 45  1  0
 26 46  1  0
 27 47  1  0
 27 48  1  0
 28 49  1  0
 28 50  1  0
 29 51  1  0
 30 52  1  0
 31 53  1  0
M  CHG  4   7  -1   8  -1  11  -1  22  -1
M  END
>  <UniqueID>  (49) 
44

>  <SMILES>  (49) 
C=c1c(=Cc2c([O-])[n-]c(=O)[n-]c2=O)cc(C)n1Cc1cc([N-]C(=O)[C@@H]2CCCN2)ccc1F

>  <Energy>  (49) 
101.98802297382797

>  <Genealogy>  (49) 
C=c1c(=Cc2c([O-])[n-]c(=O)[n-]c2=O)cc(C)n1Cc1cc([N-]C(=O)C2CCCN2)ccc1F (protonated)
C=c1c(=Cc2c([O-])[n-]c(=O)[n-]c2=O)cc(C)n1Cc1cc([N-]C(=O)[C@@H]2CCCN2)ccc1F (chirality)
C=c1c(=Cc2c([O-])[n-]c(=O)[n-]c2=O)cc(C)n1Cc1cc([N-]C(=O)[C@@H]2CCCN2)ccc1F (3D coordinates assigned)
C=c1c(=Cc2c([O-])[n-]c(=O)[n-]c2=O)cc(C)n1Cc1cc([N-]C(=O)[C@@H]2CCCN2)ccc1F (nonaromatic ring conformer: 101.98802297382797 kcal/mol)

>  <smiles>  (49) 
C=c1c(=Cc2c(O)[nH]c(=O)[nH]c2=O)cc(C)n1Cc1cc(NC(=O)C2CCCN2)ccc1F

>  <score_type>  (49) 
oracle

>  <origin>  (49) 
adg

>  <m_score__min__energy>  (49) 
-17.41

>  <m_primary>  (49) 
energy

$$$$
49:0
     RDKit          3D

 41 43  0  0  0  0  0  0  0  0999 V2000
   59.7750   26.3520   47.0290 C   0  0  0  0  0  0  0  0  0  0  0  0
   58.5840   26.9960   46.3820 C   0  0  0  0  0  0  0  0  0  0  0  0
   57.3720   26.3970   46.5300 N   0  0  0  0  0  0  0  0  0  0  0  0
   56.2520   26.9180   45.9730 C   0  0  0  0  0  0  0  0  0  0  0  0
   55.1470   26.3350   46.1210 O   0  0  0  0  0  0  0  0  0  0  0  0
   56.3200   28.0700   45.2650 N   0  0  0  0  0  0  0  0  0  0  0  0
   57.4970   28.7270   45.0820 C   0  0  0  0  0  0  0  0  0  0  0  0
   57.4700   29.9930   44.3210 C   0  0  0  0  0  0  0  0  0  0  0  0
   57.0290   30.0200   42.9880 C   0  0  0  0  0  0  0  0  0  0  0  0
   57.0190   31.2230   42.2770 C   0  0  0  0  0  0  0  0  0  0  0  0
   57.4480   32.4030   42.8880 C   0  0  0  0  0  0  0  0  0  0  0  0
   57.8980   32.3920   44.2150 C   0  0  0  0  0  0  0  0  0  0  0  0
   58.3060   33.6290   44.8130 N   0  0  0  0  0  0  0  0  0  0  0  0
   58.6380   33.8530   46.5010 S   0  0  0  0  0  0  0  0  0  0  0  0
   58.9040   35.3100   46.7610 O   0  0  0  0  0  0  0  0  0  0  0  0
   57.4440   33.4210   47.3020 O   0  0  0  0  0  0  0  0  0  0  0  0
   60.0230   32.8700   46.9680 C   0  0  0  0  0  0  0  0  0  0  0  0
   61.3220   33.3440   46.7350 C   0  0  0  0  0  0  0  0  0  0  0  0
   62.4280   32.5920   47.1400 C   0  0  0  0  0  0  0  0  0  0  0  0
   62.2440   31.3640   47.7810 C   0  0  0  0  0  0  0  0  0  0  0  0
   60.9500   30.8840   48.0170 C   0  0  0  0  0  0  0  0  0  0  0  0
   60.7610   29.6260   48.6910 C   0  0  0  0  0  0  0  0  0  0  0  0
   60.6070   28.6150   49.2340 N   0  0  0  0  0  0  0  0  0  0  0  0
   59.8400   31.6350   47.6080 C   0  0  0  0  0  0  0  0  0  0  0  0
   57.9280   31.1750   44.9200 C   0  0  0  0  0  0  0  0  0  0  0  0
   58.6920   28.1750   45.6080 C   0  0  0  0  0  0  0  0  0  0  0  0
   60.0370   28.8230   45.3650 C   0  0  0  0  0  0  0  0  0  0  0  0
   59.6727   26.4073   48.1228 H   0  0  0  0  0  0  0  0  0  0  0  0
   59.8355   25.2983   46.7192 H   0  0  0  0  0  0  0  0  0  0  0  0
   60.6899   26.8783   46.7192 H   0  0  0  0  0  0  0  0  0  0  0  0
   56.6908   29.0926   42.5027 H   0  0  0  0  0  0  0  0  0  0  0  0
   56.6723   31.2404   41.2332 H   0  0  0  0  0  0  0  0  0  0  0  0
   57.4326   33.3473   42.3240 H   0  0  0  0  0  0  0  0  0  0  0  0
   61.4708   34.3108   46.2319 H   0  0  0  0  0  0  0  0  0  0  0  0
   63.4451   32.9673   46.9539 H   0  0  0  0  0  0  0  0  0  0  0  0
   63.1160   30.7743   48.1003 H   0  0  0  0  0  0  0  0  0  0  0  0
   58.8235   31.2556   47.7890 H   0  0  0  0  0  0  0  0  0  0  0  0
   58.3140   31.1506   45.9498 H   0  0  0  0  0  0  0  0  0  0  0  0
   60.5131   29.0524   46.3297 H   0  0  0  0  0  0  0  0  0  0  0  0
   60.6778   28.1348   44.7943 H   0  0  0  0  0  0  0  0  0  0  0  0
   59.8982   29.7531   44.7943 H   0  0  0  0  0  0  0  0  0  0  0  0
  1  2  1  0
  2  3  1  0
  3  4  1  0
  4  5  2  0
  4  6  1  0
  6  7  2  0
  7  8  1  0
  8  9  2  0
  9 10  1  0
 10 11  2  0
 11 12  1  0
 12 13  1  0
 13 14  1  0
 14 15  2  0
 14 16  2  0
 14 17  1  0
 17 18  2  0
 18 19  1  0
 19 20  2  0
 20 21  1  0
 21 22  1  0
 22 23  3  0
 21 24  2  0
 12 25  2  0
  7 26  1  0
 26 27  1  0
 26  2  2  0
 25  8  1  0
 24 17  1  0
  1 28  1  0
  1 29  1  0
  1 30  1  0
  9 31  1  0
 10 32  1  0
 11 33  1  0
 18 34  1  0
 19 35  1  0
 20 36  1  0
 24 37  1  0
 25 38  1  0
 27 39  1  0
 27 40  1  0
 27 41  1  0
M  CHG  2   3  -1  13  -1
M  END
>  <UniqueID>  (50) 
45

>  <SMILES>  (50) 
Cc1[n-]c(=O)nc(-c2cccc([N-]S(=O)(=O)c3cccc(C#N)c3)c2)c1C

>  <Energy>  (50) 
53.59417214704861

>  <Genealogy>  (50) 
Cc1[n-]c(=O)nc(-c2cccc([N-]S(=O)(=O)c3cccc(C#N)c3)c2)c1C (protonated)
Cc1[n-]c(=O)nc(-c2cccc([N-]S(=O)(=O)c3cccc(C#N)c3)c2)c1C (3D coordinates assigned)
Cc1[n-]c(=O)nc(-c2cccc([N-]S(=O)(=O)c3cccc(C#N)c3)c2)c1C (optimized conformer: 53.59417214704861 kcal/mol)

>  <smiles>  (50) 
Cc1[nH]c(=O)nc(-c2cccc(NS(=O)(=O)c3cccc(C#N)c3)c2)c1C

>  <score_type>  (50) 
oracle

>  <origin>  (50) 
adg

>  <m_score__min__energy>  (50) 
-11.67

>  <m_primary>  (50) 
energy

$$$$
50:0
     RDKit          3D

 33 35  0  0  0  0  0  0  0  0999 V2000
   64.7830   31.5770   49.2710 H   0  0  0  0  0  0  0  0  0  0  0  0
   63.7700   31.5940   49.2460 O   0  0  0  0  0  0  0  0  0  0  0  0
   63.0790   32.3390   48.2920 C   0  0  0  0  0  0  0  0  0  0  0  0
   63.7940   33.0670   47.3360 C   0  0  0  0  0  0  0  0  0  0  0  0
   64.8936   33.0379   47.3328 H   0  0  0  0  0  0  0  0  0  0  0  0
   63.1130   33.8320   46.3840 C   0  0  0  0  0  0  0  0  0  0  0  0
   63.6778   34.4125   45.6397 H   0  0  0  0  0  0  0  0  0  0  0  0
   61.7160   33.8600   46.3770 C   0  0  0  0  0  0  0  0  0  0  0  0
   61.1850   34.4707   45.6320 H   0  0  0  0  0  0  0  0  0  0  0  0
   60.9880   33.1150   47.3130 C   0  0  0  0  0  0  0  0  0  0  0  0
   59.5890   33.1800   47.2800 O   0  0  0  0  0  0  0  0  0  0  0  0
   58.7820   32.6200   46.2810 C   0  0  0  0  0  0  0  0  0  0  0  0
   58.0620   31.0940   46.3020 S   0  0  0  0  0  0  0  0  0  0  0  0
   57.3760   31.2200   44.7690 C   0  0  0  0  0  0  0  0  0  0  0  0
   56.5550   30.1880   44.1220 C   0  0  0  0  0  0  0  0  0  0  0  0
   56.1690   30.3520   42.9340 O   0  0  0  0  0  0  0  0  0  0  0  0
   56.1030   29.0580   44.8820 N   0  0  0  0  0  0  0  0  0  0  0  0
   56.7840   28.0420   45.3360 C   0  0  0  0  0  0  0  0  0  0  0  0
   58.1390   28.0820   45.2040 N   0  0  0  0  0  0  0  0  0  0  0  0
   58.9510   27.0880   45.6490 C   0  0  0  0  0  0  0  0  0  0  0  0
   60.0405   27.1683   45.5206 H   0  0  0  0  0  0  0  0  0  0  0  0
   58.4030   25.9670   46.2680 C   0  0  0  0  0  0  0  0  0  0  0  0
   59.0554   25.1672   46.6484 H   0  0  0  0  0  0  0  0  0  0  0  0
   57.0200   25.8700   46.4000 C   0  0  0  0  0  0  0  0  0  0  0  0
   56.5764   24.9868   46.8829 H   0  0  0  0  0  0  0  0  0  0  0  0
   56.1930   26.8910   45.9210 C   0  0  0  0  0  0  0  0  0  0  0  0
   54.8160   26.7100   45.9900 O   0  0  0  0  0  0  0  0  0  0  0  0
   57.7120   32.4560   44.2240 C   0  0  0  0  0  0  0  0  0  0  0  0
   57.3858   32.7859   43.2266 H   0  0  0  0  0  0  0  0  0  0  0  0
   58.5060   33.2370   45.0710 C   0  0  0  0  0  0  0  0  0  0  0  0
   58.8737   34.2387   44.8038 H   0  0  0  0  0  0  0  0  0  0  0  0
   61.6770   32.3660   48.2840 C   0  0  0  0  0  0  0  0  0  0  0  0
   61.1138   31.7992   49.0400 H   0  0  0  0  0  0  0  0  0  0  0  0
  1  2  1  0
  2  3  1  0
  3  4  2  0
  4  5  1  0
  4  6  1  0
  6  7  1  0
  6  8  2  0
  8  9  1  0
  8 10  1  0
 10 11  1  0
 11 12  1  0
 12 13  1  0
 13 14  1  0
 14 15  1  0
 15 16  2  0
 15 17  1  0
 17 18  2  0
 18 19  1  0
 19 20  1  0
 20 21  1  0
 20 22  2  0
 22 23  1  0
 22 24  1  0
 24 25  1  0
 24 26  2  0
 26 27  1  0
 14 28  2  0
 28 29  1  0
 28 30  1  0
 30 31  1  0
 10 32  2  0
 32 33  1  0
 32  3  1  0
 30 12  2  0
 26 18  1  0
M  CHG  2  19  -1  27  -1
M  END
>  <UniqueID>  (51) 
46

>  <SMILES>  (51) 
O=C(/N=c1/[n-]cccc1[O-])c1ccc(Oc2cccc(O)c2)s1

>  <Energy>  (51) 
79.50978825640262

>  <Genealogy>  (51) 
O=C(N=c1[n-]cccc1[O-])c1ccc(Oc2cccc(O)c2)s1 (protonated)
O=C(/N=c1/[n-]cccc1[O-])c1ccc(Oc2cccc(O)c2)s1 (cis-trans isomerization)
O=C(/N=c1/[n-]cccc1[O-])c1ccc(Oc2cccc(O)c2)s1 (3D coordinates assigned)
O=C(/N=c1/[n-]cccc1[O-])c1ccc(Oc2cccc(O)c2)s1 (optimized conformer: 79.50978825640262 kcal/mol)

>  <smiles>  (51) 
O=C(N=c1[nH]cccc1O)c1ccc(Oc2cccc(O)c2)s1

>  <score_type>  (51) 
oracle

>  <origin>  (51) 
adg

>  <m_score__min__energy>  (51) 
-13.25

>  <m_primary>  (51) 
energy

$$$$
51:0
     RDKit          3D

 55 58  0  0  0  0  0  0  0  0999 V2000
   57.5718   28.7845   44.5314 H   0  0  0  0  0  0  0  0  0  0  0  0
   57.3770   27.7020   44.5180 C   0  0  0  0  0  0  0  0  0  0  0  0
   56.7616   27.2638   43.7184 H   0  0  0  0  0  0  0  0  0  0  0  0
   57.8900   26.9160   45.4770 C   0  0  0  0  0  0  0  0  0  0  0  0
   57.7280   25.5310   45.5890 C   0  0  0  0  0  0  0  0  0  0  0  0
   57.0300   24.7180   44.7710 C   0  0  0  0  0  0  0  0  0  0  0  0
   57.5159   24.3636   43.8499 H   0  0  0  0  0  0  0  0  0  0  0  0
   55.6440   24.2770   45.0470 C   0  0  0  0  0  0  0  0  0  0  0  0
   54.7250   25.1680   45.6200 C   0  0  0  0  0  0  0  0  0  0  0  0
   55.1110   26.4580   45.9680 O   0  0  0  0  0  0  0  0  0  0  0  0
   53.4470   24.7710   45.8510 N   0  0  0  0  0  0  0  0  0  0  0  0
   53.0310   23.5220   45.5220 C   0  0  0  0  0  0  0  0  0  0  0  0
   51.8430   23.1740   45.7500 O   0  0  0  0  0  0  0  0  0  0  0  0
   53.8930   22.6490   44.9410 N   0  0  0  0  0  0  0  0  0  0  0  0
   55.1810   22.9970   44.6880 C   0  0  0  0  0  0  0  0  0  0  0  0
   55.9420   22.1730   44.1150 O   0  0  0  0  0  0  0  0  0  0  0  0
   58.3930   25.1520   46.7480 C   0  0  0  0  0  0  0  0  0  0  0  0
   58.4675   24.1348   47.1600 H   0  0  0  0  0  0  0  0  0  0  0  0
   58.9420   26.3000   47.2820 C   0  0  0  0  0  0  0  0  0  0  0  0
   59.7330   26.3510   48.5540 C   0  0  0  0  0  0  0  0  0  0  0  0
   59.0482   26.3068   49.4137 H   0  0  0  0  0  0  0  0  0  0  0  0
   60.4235   25.4955   48.5910 H   0  0  0  0  0  0  0  0  0  0  0  0
   60.3079   27.2881   48.5910 H   0  0  0  0  0  0  0  0  0  0  0  0
   58.6330   27.3710   46.5170 N   0  0  0  0  0  0  0  0  0  0  0  0
   59.0430   28.7280   46.7680 C   0  0  0  0  0  0  0  0  0  0  0  0
   59.9620   29.3560   45.9180 C   0  0  0  0  0  0  0  0  0  0  0  0
   60.3866   28.8038   45.0667 H   0  0  0  0  0  0  0  0  0  0  0  0
   60.3420   30.6820   46.1470 C   0  0  0  0  0  0  0  0  0  0  0  0
   61.0736   31.1644   45.4821 H   0  0  0  0  0  0  0  0  0  0  0  0
   59.7940   31.4010   47.2220 C   0  0  0  0  0  0  0  0  0  0  0  0
   60.1790   32.8080   47.4520 C   0  0  0  0  0  0  0  0  0  0  0  0
   61.0850   33.0770   48.2880 O   0  0  0  0  0  0  0  0  0  0  0  0
   59.5460   33.8740   46.7290 N   0  0  0  0  0  0  0  0  0  0  0  0
   60.0630   35.2330   46.7660 C   0  0  0  0  0  0  0  0  0  0  0  0
   59.6306   35.7830   47.6148 H   0  0  0  0  0  0  0  0  0  0  0  0
   61.1558   35.2441   46.8915 H   0  0  0  0  0  0  0  0  0  0  0  0
   59.6470   35.8790   45.4500 C   0  0  0  0  0  0  0  0  0  0  0  0
   59.2674   36.8962   45.6265 H   0  0  0  0  0  0  0  0  0  0  0  0
   60.4964   35.9642   44.7563 H   0  0  0  0  0  0  0  0  0  0  0  0
   58.5440   34.9930   44.8780 C   0  0  0  0  0  0  0  0  0  0  0  0
   57.5538   35.4054   45.1219 H   0  0  0  0  0  0  0  0  0  0  0  0
   58.6007   34.9257   43.7815 H   0  0  0  0  0  0  0  0  0  0  0  0
   58.7340   33.6270   45.5430 C   0  0  2  0  0  0  0  0  0  0  0  0
   59.2233   32.9262   44.8506 H   0  0  0  0  0  0  0  0  0  0  0  0
   57.4300   32.9650   45.8970 C   0  0  0  0  0  0  0  0  0  0  0  0
   56.7040   33.4360   46.8150 O   0  0  0  0  0  0  0  0  0  0  0  0
   57.0650   31.7870   45.2390 O   0  0  0  0  0  0  0  0  0  0  0  0
   57.6390   31.3930   43.9980 C   0  0  0  0  0  0  0  0  0  0  0  0
   58.5326   30.7796   44.1856 H   0  0  0  0  0  0  0  0  0  0  0  0
   56.9058   30.8069   43.4245 H   0  0  0  0  0  0  0  0  0  0  0  0
   57.9223   32.2879   43.4245 H   0  0  0  0  0  0  0  0  0  0  0  0
   58.8870   30.7630   48.0830 C   0  0  0  0  0  0  0  0  0  0  0  0
   58.4718   31.3092   48.9428 H   0  0  0  0  0  0  0  0  0  0  0  0
   58.5090   29.4370   47.8530 C   0  0  0  0  0  0  0  0  0  0  0  0
   57.7896   28.9479   48.5262 H   0  0  0  0  0  0  0  0  0  0  0  0
  1  2  1  0
  2  3  1  0
  2  4  2  0
  4  5  1  0
  5  6  2  0
  6  7  1  0
  6  8  1  0
  8  9  2  0
  9 10  1  0
  9 11  1  0
 11 12  1  0
 12 13  2  0
 12 14  1  0
 14 15  1  0
 15 16  2  0
  5 17  1  0
 17 18  1  0
 17 19  2  0
 19 20  1  0
 20 21  1  0
 20 22  1  0
 20 23  1  0
 19 24  1  0
 24 25  1  0
 25 26  2  0
 26 27  1  0
 26 28  1  0
 28 29  1  0
 28 30  2  0
 30 31  1  0
 31 32  2  0
 31 33  1  0
 33 34  1  0
 34 35  1  0
 34 36  1  0
 34 37  1  0
 37 38  1  0
 37 39  1  0
 37 40  1  0
 40 41  1  0
 40 42  1  0
 40 43  1  0
 43 44  1  6
 43 45  1  0
 45 46  2  0
 45 47  1  0
 47 48  1  0
 48 49  1  0
 48 50  1  0
 48 51  1  0
 30 52  1  0
 52 53  1  0
 52 54  2  0
 54 55  1  0
 24  4  1  0
 54 25  1  0
 15  8  1  0
 43 33  1  0
M  CHG  3  10  -1  11  -1  14  -1
M  END
>  <UniqueID>  (52) 
47

>  <SMILES>  (52) 
C=c1/c(=C/c2c([O-])[n-]c(=O)[n-]c2=O)cc(C)n1-c1ccc(C(=O)N2CCC[C@@H]2C(=O)OC)cc1

>  <Energy>  (52) 
107.36809180069008

>  <Genealogy>  (52) 
C=c1c(=Cc2c([O-])[n-]c(=O)[n-]c2=O)cc(C)n1-c1ccc(C(=O)N2CCCC2C(=O)OC)cc1 (protonated)
C=c1c(=Cc2c([O-])[n-]c(=O)[n-]c2=O)cc(C)n1-c1ccc(C(=O)N2CCC[C@@H]2C(=O)OC)cc1 (chirality)
C=c1/c(=C/c2c([O-])[n-]c(=O)[n-]c2=O)cc(C)n1-c1ccc(C(=O)N2CCC[C@@H]2C(=O)OC)cc1 (cis-trans isomerization)
C=c1/c(=C/c2c([O-])[n-]c(=O)[n-]c2=O)cc(C)n1-c1ccc(C(=O)N2CCC[C@@H]2C(=O)OC)cc1 (3D coordinates assigned)
C=c1/c(=C/c2c([O-])[n-]c(=O)[n-]c2=O)cc(C)n1-c1ccc(C(=O)N2CCC[C@@H]2C(=O)OC)cc1 (nonaromatic ring conformer: 107.36809180069008 kcal/mol)

>  <smiles>  (52) 
C=c1c(=Cc2c(O)[nH]c(=O)[nH]c2=O)cc(C)n1-c1ccc(C(=O)N2CCCC2C(=O)OC)cc1

>  <score_type>  (52) 
oracle

>  <origin>  (52) 
adg

>  <m_score__min__energy>  (52) 
-15.94

>  <m_primary>  (52) 
energy

$$$$
52:0
     RDKit          3D

 57 60  0  0  0  0  0  0  0  0999 V2000
   60.0200   35.9370   45.9930 C   0  0  0  0  0  0  0  0  0  0  0  0
   60.2110   34.5700   45.6420 O   0  0  0  0  0  0  0  0  0  0  0  0
   59.1770   33.6670   45.3410 C   0  0  0  0  0  0  0  0  0  0  0  0
   58.6790   33.5290   44.0310 C   0  0  0  0  0  0  0  0  0  0  0  0
   57.6200   32.6600   43.7600 C   0  0  0  0  0  0  0  0  0  0  0  0
   57.0450   31.9030   44.7910 C   0  0  0  0  0  0  0  0  0  0  0  0
   55.9440   31.0130   44.5560 N   0  0  0  0  0  0  0  0  0  0  0  0
   56.0400   29.6210   44.2380 C   0  0  0  0  0  0  0  0  0  0  0  0
   56.3280   29.2790   43.0600 O   0  0  0  0  0  0  0  0  0  0  0  0
   55.7540   28.6260   45.2250 N   0  0  0  0  0  0  0  0  0  0  0  0
   56.7090   27.5980   45.6180 C   0  0  0  0  0  0  0  0  0  0  0  0
   58.0650   28.2180   45.7710 C   0  0  0  0  0  0  0  0  0  0  0  0
   58.9340   28.3400   44.6740 C   0  0  0  0  0  0  0  0  0  0  0  0
   60.1830   28.9380   44.8540 C   0  0  0  0  0  0  0  0  0  0  0  0
   60.5510   29.4120   46.1160 C   0  0  0  0  0  0  0  0  0  0  0  0
   59.6610   29.2760   47.1860 C   0  0  0  0  0  0  0  0  0  0  0  0
   58.4500   28.6870   46.9930 N   0  0  0  0  0  0  0  0  0  0  0  0
   57.5210   32.0510   46.0970 C   0  0  0  0  0  0  0  0  0  0  0  0
   58.6020   32.9040   46.3810 C   0  0  0  0  0  0  0  0  0  0  0  0
   59.0900   32.9970   47.7780 C   0  0  0  0  0  0  0  0  0  0  0  0
   58.9310   31.9350   48.6800 C   0  0  0  0  0  0  0  0  0  0  0  0
   59.3800   32.0750   49.9950 C   0  0  0  0  0  0  0  0  0  0  0  0
   59.9790   33.2740   50.4150 C   0  0  0  0  0  0  0  0  0  0  0  0
   60.4570   33.4370   51.8070 C   0  0  0  0  0  0  0  0  0  0  0  0
   59.6260   33.5680   52.7490 O   0  0  0  0  0  0  0  0  0  0  0  0
   61.8610   33.4470   52.0890 N   0  0  0  0  0  0  0  0  0  0  0  0
   62.7960   32.4450   51.5860 C   0  0  0  0  0  0  0  0  0  0  0  0
   62.9340   32.5620   50.0910 C   0  0  0  0  0  0  0  0  0  0  0  0
   63.3620   33.7660   49.5040 C   0  0  0  0  0  0  0  0  0  0  0  0
   63.4740   33.8700   48.1140 C   0  0  0  0  0  0  0  0  0  0  0  0
   63.1590   32.7760   47.3010 C   0  0  0  0  0  0  0  0  0  0  0  0
   62.7270   31.5780   47.8760 C   0  0  0  0  0  0  0  0  0  0  0  0
   62.6140   31.4690   49.2670 C   0  0  0  0  0  0  0  0  0  0  0  0
   60.1040   34.3170   49.4830 C   0  0  0  0  0  0  0  0  0  0  0  0
   59.6570   34.1570   48.2090 N   0  0  0  0  0  0  0  0  0  0  0  0
   60.0062   36.0358   47.0885 H   0  0  0  0  0  0  0  0  0  0  0  0
   60.8426   36.5398   45.5808 H   0  0  0  0  0  0  0  0  0  0  0  0
   59.0636   36.2912   45.5808 H   0  0  0  0  0  0  0  0  0  0  0  0
   59.1286   34.1114   43.2132 H   0  0  0  0  0  0  0  0  0  0  0  0
   57.2352   32.5689   42.7335 H   0  0  0  0  0  0  0  0  0  0  0  0
   56.3978   27.1530   46.5746 H   0  0  0  0  0  0  0  0  0  0  0  0
   56.7459   26.8137   44.8476 H   0  0  0  0  0  0  0  0  0  0  0  0
   58.6336   27.9682   43.6833 H   0  0  0  0  0  0  0  0  0  0  0  0
   60.8753   29.0357   44.0047 H   0  0  0  0  0  0  0  0  0  0  0  0
   61.5314   29.8876   46.2663 H   0  0  0  0  0  0  0  0  0  0  0  0
   59.9401   29.6453   48.1838 H   0  0  0  0  0  0  0  0  0  0  0  0
   57.0427   31.4918   46.9146 H   0  0  0  0  0  0  0  0  0  0  0  0
   58.4558   30.9980   48.3539 H   0  0  0  0  0  0  0  0  0  0  0  0
   59.2640   31.2427   50.7048 H   0  0  0  0  0  0  0  0  0  0  0  0
   63.7794   32.5990   52.0542 H   0  0  0  0  0  0  0  0  0  0  0  0
   62.4136   31.4435   51.8325 H   0  0  0  0  0  0  0  0  0  0  0  0
   63.6094   34.6286   50.1401 H   0  0  0  0  0  0  0  0  0  0  0  0
   63.8103   34.8134   47.6592 H   0  0  0  0  0  0  0  0  0  0  0  0
   63.2515   32.8590   46.2080 H   0  0  0  0  0  0  0  0  0  0  0  0
   62.4756   30.7200   47.2352 H   0  0  0  0  0  0  0  0  0  0  0  0
   62.2736   30.5247   49.7169 H   0  0  0  0  0  0  0  0  0  0  0  0
   60.5660   35.2684   49.7853 H   0  0  0  0  0  0  0  0  0  0  0  0
  1  2  1  0
  2  3  1  0
  3  4  2  0
  4  5  1  0
  5  6  2  0
  6  7  1  0
  7  8  1  0
  8  9  2  0
  8 10  1  0
 10 11  1  0
 11 12  1  0
 12 13  2  0
 13 14  1  0
 14 15  2  0
 15 16  1  0
 16 17  2  0
  6 18  1  0
 18 19  2  0
 19 20  1  0
 20 21  2  0
 21 22  1  0
 22 23  2  0
 23 24  1  0
 24 25  2  0
 24 26  1  0
 26 27  1  0
 27 28  1  0
 28 29  2  0
 29 30  1  0
 30 31  2  0
 31 32  1  0
 32 33  2  0
 23 34  1  0
 34 35  2  0
 19  3  1  0
 35 20  1  0
 17 12  1  0
 33 28  1  0
  1 36  1  0
  1 37  1  0
  1 38  1  0
  4 39  1  0
  5 40  1  0
 11 41  1  0
 11 42  1  0
 13 43  1  0
 14 44  1  0
 15 45  1  0
 16 46  1  0
 18 47  1  0
 21 48  1  0
 22 49  1  0
 27 50  1  0
 27 51  1  0
 29 52  1  0
 30 53  1  0
 31 54  1  0
 32 55  1  0
 33 56  1  0
 34 57  1  0
M  CHG  3   7  -1  10  -1  26  -1
M  END
>  <UniqueID>  (53) 
48

>  <SMILES>  (53) 
COc1ccc([N-]C(=O)[N-]Cc2ccccn2)cc1-c1ccc(C(=O)[N-]Cc2ccccc2)cn1

>  <Energy>  (53) 
67.20055044150155

>  <Genealogy>  (53) 
COc1ccc([N-]C(=O)[N-]Cc2ccccn2)cc1-c1ccc(C(=O)[N-]Cc2ccccc2)cn1 (protonated)
COc1ccc([N-]C(=O)[N-]Cc2ccccn2)cc1-c1ccc(C(=O)[N-]Cc2ccccc2)cn1 (3D coordinates assigned)
COc1ccc([N-]C(=O)[N-]Cc2ccccn2)cc1-c1ccc(C(=O)[N-]Cc2ccccc2)cn1 (optimized conformer: 67.20055044150155 kcal/mol)

>  <smiles>  (53) 
COc1ccc(NC(=O)NCc2ccccn2)cc1-c1ccc(C(=O)NCc2ccccc2)cn1

>  <score_type>  (53) 
oracle

>  <origin>  (53) 
adg

>  <m_score__min__energy>  (53) 
-13.75

>  <m_primary>  (53) 
energy

$$$$
53:0
     RDKit          3D

 48 51  0  0  0  0  0  0  0  0999 V2000
   59.9700   32.2090   53.7750 C   0  0  0  0  0  0  0  0  0  0  0  0
   59.9140   32.1970   52.4420 C   0  0  0  0  0  0  0  0  0  0  0  0
   60.8590   32.8010   51.6900 N   0  0  0  0  0  0  0  0  0  0  0  0
   60.6760   32.4320   50.4330 N   0  0  0  0  0  0  0  0  0  0  0  0
   61.4450   32.9710   49.3120 C   0  0  0  0  0  0  0  0  0  0  0  0
   60.8650   34.3130   48.8480 C   0  0  0  0  0  0  0  0  0  0  0  0
   59.9520   34.1390   47.6610 C   0  0  0  0  0  0  0  0  0  0  0  0
   60.3390   34.6020   46.3920 C   0  0  0  0  0  0  0  0  0  0  0  0
   59.4660   34.4950   45.3060 C   0  0  0  0  0  0  0  0  0  0  0  0
   58.2000   33.9290   45.4790 C   0  0  0  0  0  0  0  0  0  0  0  0
   57.8050   33.4720   46.7380 C   0  0  0  0  0  0  0  0  0  0  0  0
   58.6740   33.5790   47.8280 C   0  0  0  0  0  0  0  0  0  0  0  0
   59.6180   31.6020   50.3620 C   0  0  0  0  0  0  0  0  0  0  0  0
   59.1610   31.1460   49.2800 O   0  0  0  0  0  0  0  0  0  0  0  0
   59.0640   31.4360   51.6240 C   0  0  0  0  0  0  0  0  0  0  0  0
   57.9530   30.7220   51.9430 C   0  0  0  0  0  0  0  0  0  0  0  0
   57.8280   29.3850   52.3480 C   0  0  0  0  0  0  0  0  0  0  0  0
   58.7980   28.5510   52.7260 C   0  0  0  0  0  0  0  0  0  0  0  0
   56.5260   29.0810   52.5340 N   0  0  0  0  0  0  0  0  0  0  0  0
   55.8070   30.1650   52.2850 N   0  0  0  0  0  0  0  0  0  0  0  0
   54.3720   30.2020   52.4030 C   0  0  0  0  0  0  0  0  0  0  0  0
   53.7050   29.1880   53.1080 C   0  0  0  0  0  0  0  0  0  0  0  0
   52.3150   29.2050   53.2240 C   0  0  0  0  0  0  0  0  0  0  0  0
   51.5720   30.2270   52.6310 C   0  0  0  0  0  0  0  0  0  0  0  0
   52.2150   31.2430   51.9040 C   0  0  0  0  0  0  0  0  0  0  0  0
   51.4300   32.3190   51.2600 C   0  0  0  0  0  0  0  0  0  0  0  0
   51.1500   32.2620   50.0330 O   0  0  0  0  0  0  0  0  0  0  0  0
   50.9890   33.4100   52.0020 O   0  0  0  0  0  0  0  0  0  0  0  0
   53.6180   31.2210   51.7910 C   0  0  0  0  0  0  0  0  0  0  0  0
   56.6400   31.1760   51.9590 C   0  0  0  0  0  0  0  0  0  0  0  0
   56.2550   32.3420   51.6760 O   0  0  0  0  0  0  0  0  0  0  0  0
   59.1864   31.7088   54.3629 H   0  0  0  0  0  0  0  0  0  0  0  0
   60.7998   32.7191   54.2861 H   0  0  0  0  0  0  0  0  0  0  0  0
   62.4880   33.1192   49.6285 H   0  0  0  0  0  0  0  0  0  0  0  0
   61.3958   32.2580   48.4758 H   0  0  0  0  0  0  0  0  0  0  0  0
   60.2947   34.7611   49.6750 H   0  0  0  0  0  0  0  0  0  0  0  0
   61.6992   34.9649   48.5494 H   0  0  0  0  0  0  0  0  0  0  0  0
   61.3336   35.0507   46.2528 H   0  0  0  0  0  0  0  0  0  0  0  0
   59.7755   34.8565   44.3143 H   0  0  0  0  0  0  0  0  0  0  0  0
   57.5144   33.8435   44.6231 H   0  0  0  0  0  0  0  0  0  0  0  0
   56.8081   33.0269   46.8724 H   0  0  0  0  0  0  0  0  0  0  0  0
   58.3563   33.2237   48.8194 H   0  0  0  0  0  0  0  0  0  0  0  0
   58.5530   27.5199   53.0206 H   0  0  0  0  0  0  0  0  0  0  0  0
   59.8429   28.8944   52.7431 H   0  0  0  0  0  0  0  0  0  0  0  0
   54.2821   28.3746   53.5721 H   0  0  0  0  0  0  0  0  0  0  0  0
   51.8024   28.4098   53.7851 H   0  0  0  0  0  0  0  0  0  0  0  0
   50.4768   30.2371   52.7334 H   0  0  0  0  0  0  0  0  0  0  0  0
   54.1304   32.0082   51.2185 H   0  0  0  0  0  0  0  0  0  0  0  0
  1  2  2  0
  2  3  1  0
  3  4  1  0
  4  5  1  0
  5  6  1  0
  6  7  1  0
  7  8  2  0
  8  9  1  0
  9 10  2  0
 10 11  1  0
 11 12  2  0
  4 13  1  0
 13 14  2  0
 13 15  1  0
 15 16  2  3
 16 17  1  0
 17 18  2  0
 17 19  1  0
 19 20  1  0
 20 21  1  0
 21 22  2  0
 22 23  1  0
 23 24  2  0
 24 25  1  0
 25 26  1  0
 26 27  2  0
 26 28  1  0
 25 29  2  0
 20 30  1  0
 30 31  2  0
 15  2  1  0
 30 16  1  0
 12  7  1  0
 29 21  1  0
  1 32  1  0
  1 33  1  0
  5 34  1  0
  5 35  1  0
  6 36  1  0
  6 37  1  0
  8 38  1  0
  9 39  1  0
 10 40  1  0
 11 41  1  0
 12 42  1  0
 18 43  1  0
 18 44  1  0
 22 45  1  0
 23 46  1  0
 24 47  1  0
 29 48  1  0
M  CHG  3   3  -1  19  -1  28  -1
M  END
>  <UniqueID>  (54) 
49

>  <SMILES>  (54) 
C=c1[n-]n(CCc2ccccc2)c(=O)c1=c1c(=C)[n-]n(-c2cccc(C(=O)[O-])c2)c1=O

>  <Energy>  (54) 
140.20282574522528

>  <Genealogy>  (54) 
C=c1[n-]n(CCc2ccccc2)c(=O)c1=c1c(=C)[n-]n(-c2cccc(C(=O)[O-])c2)c1=O (protonated)
C=c1[n-]n(CCc2ccccc2)c(=O)c1=c1c(=C)[n-]n(-c2cccc(C(=O)[O-])c2)c1=O (3D coordinates assigned)
C=c1[n-]n(CCc2ccccc2)c(=O)c1=c1c(=C)[n-]n(-c2cccc(C(=O)[O-])c2)c1=O (optimized conformer: 140.20282574522528 kcal/mol)

>  <smiles>  (54) 
C=c1[nH]n(CCc2ccccc2)c(=O)c1=c1c(=C)[nH]n(-c2cccc(C(=O)O)c2)c1=O

>  <score_type>  (54) 
oracle

>  <origin>  (54) 
adg

>  <m_score__min__energy>  (54) 
-14.109999999999999

>  <m_primary>  (54) 
energy

$$$$
54:0
     RDKit          3D

 56 59  0  0  0  0  0  0  0  0999 V2000
   62.3190   33.6450   46.9210 C   0  0  0  0  0  0  0  0  0  0  0  0
   62.9990   32.6920   47.9250 C   0  0  0  0  0  0  0  0  0  0  0  0
   63.7340   31.5880   47.1360 C   0  0  0  0  0  0  0  0  0  0  0  0
   64.0240   33.4970   48.7490 C   0  0  0  0  0  0  0  0  0  0  0  0
   61.9000   32.0850   48.8480 C   0  0  0  0  0  0  0  0  0  0  0  0
   61.1170   30.9510   48.2260 C   0  0  0  0  0  0  0  0  0  0  0  0
   60.9200   30.9040   46.8360 C   0  0  0  0  0  0  0  0  0  0  0  0
   60.2020   29.8530   46.2590 C   0  0  0  0  0  0  0  0  0  0  0  0
   59.6770   28.8280   47.0600 C   0  0  0  0  0  0  0  0  0  0  0  0
   58.9280   27.7240   46.4280 C   0  0  0  0  0  0  0  0  0  0  0  0
   59.3820   26.5530   46.5200 O   0  0  0  0  0  0  0  0  0  0  0  0
   57.6790   27.9250   45.7510 N   0  0  0  0  0  0  0  0  0  0  0  0
   57.4710   28.6400   44.4930 C   0  0  0  0  0  0  0  0  0  0  0  0
   56.5730   29.8650   44.6950 C   0  0  0  0  0  0  0  0  0  0  0  0
   57.2530   31.1150   44.2190 C   0  0  0  0  0  0  0  0  0  0  0  0
   57.3980   31.5290   42.8980 C   0  0  0  0  0  0  0  0  0  0  0  0
   58.0600   32.7070   42.8440 N   0  0  0  0  0  0  0  0  0  0  0  0
   58.3380   33.0370   44.1180 C   0  0  0  0  0  0  0  0  0  0  0  0
   59.0120   34.1680   44.5690 C   0  0  0  0  0  0  0  0  0  0  0  0
   59.2050   34.3120   45.9550 C   0  0  0  0  0  0  0  0  0  0  0  0
   58.7310   33.3280   46.8630 C   0  0  0  0  0  0  0  0  0  0  0  0
   58.9620   33.4680   48.2770 N   0  0  0  0  0  0  0  0  0  0  0  0
   58.5370   32.6660   49.2710 C   0  0  0  0  0  0  0  0  0  0  0  0
   58.9530   33.1180   50.4680 N   0  0  0  0  0  0  0  0  0  0  0  0
   59.6520   34.2220   50.2470 N   0  0  0  0  0  0  0  0  0  0  0  0
   59.6560   34.4280   48.9170 C   0  0  0  0  0  0  0  0  0  0  0  0
   58.0410   32.1990   46.3630 C   0  0  0  0  0  0  0  0  0  0  0  0
   57.8650   32.0890   44.9850 C   0  0  0  0  0  0  0  0  0  0  0  0
   59.8440   28.8900   48.4510 C   0  0  0  0  0  0  0  0  0  0  0  0
   60.5620   29.9420   49.0300 C   0  0  0  0  0  0  0  0  0  0  0  0
   61.7652   34.4211   47.4696 H   0  0  0  0  0  0  0  0  0  0  0  0
   63.0845   34.1185   46.2887 H   0  0  0  0  0  0  0  0  0  0  0  0
   61.6223   33.0751   46.2887 H   0  0  0  0  0  0  0  0  0  0  0  0
   64.2025   30.8843   47.8398 H   0  0  0  0  0  0  0  0  0  0  0  0
   63.0141   31.0486   46.5029 H   0  0  0  0  0  0  0  0  0  0  0  0
   64.5093   32.0441   46.5029 H   0  0  0  0  0  0  0  0  0  0  0  0
   63.8319   33.3461   49.8215 H   0  0  0  0  0  0  0  0  0  0  0  0
   65.0404   33.1532   48.5066 H   0  0  0  0  0  0  0  0  0  0  0  0
   63.9309   34.5659   48.5066 H   0  0  0  0  0  0  0  0  0  0  0  0
   62.3865   31.7076   49.7595 H   0  0  0  0  0  0  0  0  0  0  0  0
   61.1788   32.8910   49.0485 H   0  0  0  0  0  0  0  0  0  0  0  0
   61.3333   31.6991   46.1980 H   0  0  0  0  0  0  0  0  0  0  0  0
   60.0476   29.8294   45.1701 H   0  0  0  0  0  0  0  0  0  0  0  0
   58.4450   28.9694   44.1020 H   0  0  0  0  0  0  0  0  0  0  0  0
   56.9784   27.9598   43.7826 H   0  0  0  0  0  0  0  0  0  0  0  0
   55.6406   29.7248   44.1285 H   0  0  0  0  0  0  0  0  0  0  0  0
   56.3596   29.9696   45.7690 H   0  0  0  0  0  0  0  0  0  0  0  0
   57.0268   30.9764   42.0223 H   0  0  0  0  0  0  0  0  0  0  0  0
   58.3050   33.2480   41.9850 H   0  0  0  0  0  0  0  0  0  0  0  0
   59.3825   34.9261   43.8633 H   0  0  0  0  0  0  0  0  0  0  0  0
   59.7300   35.1984   46.3407 H   0  0  0  0  0  0  0  0  0  0  0  0
   57.9298   31.7606   49.1241 H   0  0  0  0  0  0  0  0  0  0  0  0
   60.1597   35.2694   48.4187 H   0  0  0  0  0  0  0  0  0  0  0  0
   57.6532   31.4275   47.0445 H   0  0  0  0  0  0  0  0  0  0  0  0
   59.4084   28.1077   49.0900 H   0  0  0  0  0  0  0  0  0  0  0  0
   60.6926   29.9791   50.1216 H   0  0  0  0  0  0  0  0  0  0  0  0
  1  2  1  0
  2  3  1  0
  2  4  1  0
  2  5  1  0
  5  6  1  0
  6  7  2  0
  7  8  1  0
  8  9  2  0
  9 10  1  0
 10 11  2  0
 10 12  1  0
 12 13  1  0
 13 14  1  0
 14 15  1  0
 15 16  2  0
 16 17  1  0
 17 18  1  0
 18 19  2  0
 19 20  1  0
 20 21  2  0
 21 22  1  0
 22 23  1  0
 23 24  2  0
 24 25  1  0
 25 26  2  0
 21 27  1  0
 27 28  2  0
  9 29  1  0
 29 30  2  0
 30  6  1  0
 28 15  1  0
 28 18  1  0
 26 22  1  0
  1 31  1  0
  1 32  1  0
  1 33  1  0
  3 34  1  0
  3 35  1  0
  3 36  1  0
  4 37  1  0
  4 38  1  0
  4 39  1  0
  5 40  1  0
  5 41  1  0
  7 42  1  0
  8 43  1  0
 13 44  1  0
 13 45  1  0
 14 46  1  0
 14 47  1  0
 16 48  1  0
 17 49  1  0
 19 50  1  0
 20 51  1  0
 23 52  1  0
 26 53  1  0
 27 54  1  0
 29 55  1  0
 30 56  1  0
M  CHG  1  12  -1
M  END
>  <UniqueID>  (55) 
50

>  <SMILES>  (55) 
CC(C)(C)Cc1ccc(C(=O)[N-]CCc2c[nH]c3ccc(-n4cnnc4)cc23)cc1

>  <Energy>  (55) 
120.982139016439

>  <Genealogy>  (55) 
CC(C)(C)Cc1ccc(C(=O)[N-]CCc2c[nH]c3ccc(-n4cnnc4)cc23)cc1 (protonated)
CC(C)(C)Cc1ccc(C(=O)[N-]CCc2c[nH]c3ccc(-n4cnnc4)cc23)cc1 (3D coordinates assigned)
CC(C)(C)Cc1ccc(C(=O)[N-]CCc2c[nH]c3ccc(-n4cnnc4)cc23)cc1 (optimized conformer: 120.982139016439 kcal/mol)

>  <smiles>  (55) 
CC(C)(C)Cc1ccc(C(=O)NCCc2c[nH]c3ccc(-n4cnnc4)cc23)cc1

>  <score_type>  (55) 
oracle

>  <origin>  (55) 
adg

>  <m_score__min__energy>  (55) 
-11.289999999999999

>  <m_primary>  (55) 
energy

$$$$
55:0
     RDKit          3D

 40 43  0  0  0  0  0  0  0  0999 V2000
   54.4070   27.0580   46.4330 H   0  0  0  0  0  0  0  0  0  0  0  0
   55.3040   26.5290   46.3440 N   0  0  0  0  0  0  0  0  0  0  0  0
   56.3620   27.0130   45.7730 C   0  0  0  0  0  0  0  0  0  0  0  0
   57.5260   26.3140   45.8400 N   0  0  0  0  0  0  0  0  0  0  0  0
   58.6720   26.7640   45.2680 C   0  0  0  0  0  0  0  0  0  0  0  0
   59.5948   26.1705   45.3464 H   0  0  0  0  0  0  0  0  0  0  0  0
   58.6810   27.9780   44.5810 C   0  0  0  0  0  0  0  0  0  0  0  0
   59.6105   28.3458   44.1218 H   0  0  0  0  0  0  0  0  0  0  0  0
   57.5000   28.7280   44.4780 C   0  0  0  0  0  0  0  0  0  0  0  0
   57.5210   30.0580   43.7680 C   0  0  0  0  0  0  0  0  0  0  0  0
   58.3379   30.0624   43.0314 H   0  0  0  0  0  0  0  0  0  0  0  0
   56.5550   30.2075   43.2635 H   0  0  0  0  0  0  0  0  0  0  0  0
   57.7350   31.1770   44.7520 C   0  0  0  0  0  0  0  0  0  0  0  0
   57.5570   32.5120   44.3530 C   0  0  0  0  0  0  0  0  0  0  0  0
   57.2346   32.7385   43.3260 H   0  0  0  0  0  0  0  0  0  0  0  0
   57.7880   33.5540   45.2560 C   0  0  0  0  0  0  0  0  0  0  0  0
   57.6623   34.5976   44.9317 H   0  0  0  0  0  0  0  0  0  0  0  0
   58.1800   33.2740   46.5760 C   0  0  0  0  0  0  0  0  0  0  0  0
   58.4750   34.3290   47.5030 N   0  0  0  0  0  0  0  0  0  0  0  0
   59.6350   34.8780   47.7270 C   0  0  0  0  0  0  0  0  0  0  0  0
   59.6502   35.8986   48.1371 H   0  0  0  0  0  0  0  0  0  0  0  0
   60.9320   34.2190   47.4660 C   0  0  0  0  0  0  0  0  0  0  0  0
   61.4110   33.8850   46.2420 N   0  0  0  0  0  0  0  0  0  0  0  0
   62.6340   33.3800   46.3730 N   0  0  0  0  0  0  0  0  0  0  0  0
   62.9360   33.4050   47.6830 C   0  0  0  0  0  0  0  0  0  0  0  0
   64.1160   32.9860   48.2950 C   0  0  0  0  0  0  0  0  0  0  0  0
   64.9437   32.5633   47.7066 H   0  0  0  0  0  0  0  0  0  0  0  0
   64.2110   33.1230   49.6930 C   0  0  0  0  0  0  0  0  0  0  0  0
   65.1264   32.8030   50.2122 H   0  0  0  0  0  0  0  0  0  0  0  0
   63.1380   33.6690   50.4340 C   0  0  0  0  0  0  0  0  0  0  0  0
   63.2244   33.7703   51.5259 H   0  0  0  0  0  0  0  0  0  0  0  0
   61.9600   34.0840   49.7850 C   0  0  0  0  0  0  0  0  0  0  0  0
   61.1180   34.5119   50.3488 H   0  0  0  0  0  0  0  0  0  0  0  0
   61.9010   33.9320   48.4000 C   0  0  0  0  0  0  0  0  0  0  0  0
   58.4000   31.9460   46.9600 C   0  0  0  0  0  0  0  0  0  0  0  0
   58.7552   31.7226   47.9768 H   0  0  0  0  0  0  0  0  0  0  0  0
   58.1710   30.9020   46.0590 C   0  0  0  0  0  0  0  0  0  0  0  0
   58.3329   29.8608   46.3746 H   0  0  0  0  0  0  0  0  0  0  0  0
   56.3270   28.2440   45.0880 C   0  0  0  0  0  0  0  0  0  0  0  0
   55.1450   28.9760   45.0140 O   0  0  0  0  0  0  0  0  0  0  0  0
  1  2  1  0
  2  3  2  0
  3  4  1  0
  4  5  1  0
  5  6  1  0
  5  7  2  0
  7  8  1  0
  7  9  1  0
  9 10  1  0
 10 11  1  0
 10 12  1  0
 10 13  1  0
 13 14  2  0
 14 15  1  0
 14 16  1  0
 16 17  1  0
 16 18  2  0
 18 19  1  0
 19 20  2  0
 20 21  1  0
 20 22  1  0
 22 23  1  0
 23 24  1  0
 24 25  2  0
 25 26  1  0
 26 27  1  0
 26 28  2  0
 28 29  1  0
 28 30  1  0
 30 31  1  0
 30 32  2  0
 32 33  1  0
 32 34  1  0
 18 35  1  0
 35 36  1  0
 35 37  2  0
 37 38  1  0
  9 39  2  0
 39 40  1  0
 39  3  1  0
 37 13  1  0
 34 22  2  0
 34 25  1  0
M  CHG  3   4  -1  23  -1  40  -1
M  END
>  <UniqueID>  (56) 
51

>  <SMILES>  (56) 
[H]/N=c1/[n-]ccc(Cc2ccc(/N=C\c3[n-]nc4ccccc34)cc2)c1[O-]

>  <Energy>  (56) 
93.49752445620479

>  <Genealogy>  (56) 
N=c1[n-]ccc(Cc2ccc(N=Cc3[n-]nc4ccccc34)cc2)c1[O-] (protonated)
[H]/N=c1/[n-]ccc(Cc2ccc(/N=C\c3[n-]nc4ccccc34)cc2)c1[O-] (cis-trans isomerization)
[H]/N=c1/[n-]ccc(Cc2ccc(/N=C\c3[n-]nc4ccccc34)cc2)c1[O-] (3D coordinates assigned)
[H]/N=c1/[n-]ccc(Cc2ccc(/N=C\c3[n-]nc4ccccc34)cc2)c1[O-] (optimized conformer: 93.49752445620479 kcal/mol)

>  <smiles>  (56) 
N=c1[nH]ccc(Cc2ccc(N=Cc3[nH]nc4ccccc34)cc2)c1O

>  <score_type>  (56) 
oracle

>  <origin>  (56) 
adg

>  <m_score__min__energy>  (56) 
-16

>  <m_primary>  (56) 
energy

$$$$
56:0
     RDKit          3D

 57 60  0  0  0  0  0  0  0  0999 V2000
   58.2460   29.9050   51.3270 C   0  0  0  0  0  0  0  0  0  0  0  0
   57.7540   30.9510   50.4930 O   0  0  0  0  0  0  0  0  0  0  0  0
   58.5090   32.0580   50.0740 C   0  0  0  0  0  0  0  0  0  0  0  0
   59.2840   32.7350   51.0250 C   0  0  0  0  0  0  0  0  0  0  0  0
   60.0490   33.8440   50.6550 C   0  0  0  0  0  0  0  0  0  0  0  0
   60.0680   34.2720   49.3250 C   0  0  0  0  0  0  0  0  0  0  0  0
   59.3400   33.5790   48.3500 C   0  0  0  0  0  0  0  0  0  0  0  0
   59.4130   34.0080   46.9820 N   0  0  0  0  0  0  0  0  0  0  0  0
   58.3350   34.0220   46.0330 C   0  0  0  0  0  0  0  0  0  0  0  0
   58.3180   34.9190   45.1490 O   0  0  0  0  0  0  0  0  0  0  0  0
   57.2850   32.9400   45.9890 C   0  0  0  0  0  0  0  0  0  0  0  0
   57.7080   31.5870   44.8320 S   0  0  0  0  0  0  0  0  0  0  0  0
   58.8610   30.7390   45.9390 C   0  0  0  0  0  0  0  0  0  0  0  0
   59.9090   31.4740   46.4070 N   0  0  0  0  0  0  0  0  0  0  0  0
   60.8240   30.9500   47.2680 C   0  0  0  0  0  0  0  0  0  0  0  0
   62.0020   31.7330   47.7160 C   0  0  0  0  0  0  0  0  0  0  0  0
   62.5860   32.6420   46.8160 C   0  0  0  0  0  0  0  0  0  0  0  0
   63.6830   33.4140   47.2000 C   0  0  0  0  0  0  0  0  0  0  0  0
   64.1990   33.2700   48.4870 C   0  0  0  0  0  0  0  0  0  0  0  0
   63.6510   32.3710   49.3440 N   0  0  0  0  0  0  0  0  0  0  0  0
   62.5820   31.5990   49.0020 C   0  0  0  0  0  0  0  0  0  0  0  0
   62.0140   30.3860   50.2030 S   0  0  0  0  0  0  0  0  0  0  0  0
   62.9640   31.1330   51.5660 C   0  0  0  0  0  0  0  0  0  0  0  0
   60.7090   29.6540   47.6510 N   0  0  0  0  0  0  0  0  0  0  0  0
   59.6980   28.8540   47.2180 C   0  0  0  0  0  0  0  0  0  0  0  0
   58.7370   29.3710   46.3240 C   0  0  0  0  0  0  0  0  0  0  0  0
   57.7180   28.4960   45.8810 C   0  0  0  0  0  0  0  0  0  0  0  0
   56.8670   28.8850   45.0360 O   0  0  0  0  0  0  0  0  0  0  0  0
   57.6530   27.2120   46.3570 N   0  0  0  0  0  0  0  0  0  0  0  0
   56.5310   26.3400   45.9560 C   0  0  0  0  0  0  0  0  0  0  0  0
   58.5720   26.7620   47.2690 C   0  0  0  0  0  0  0  0  0  0  0  0
   58.4590   25.5960   47.7480 O   0  0  0  0  0  0  0  0  0  0  0  0
   59.6150   27.5610   47.6640 N   0  0  0  0  0  0  0  0  0  0  0  0
   60.6180   27.0660   48.6260 C   0  0  0  0  0  0  0  0  0  0  0  0
   58.5200   32.5050   48.7370 C   0  0  0  0  0  0  0  0  0  0  0  0
   58.1143   30.1850   52.3826 H   0  0  0  0  0  0  0  0  0  0  0  0
   57.6890   28.9791   51.1210 H   0  0  0  0  0  0  0  0  0  0  0  0
   59.3144   29.7437   51.1210 H   0  0  0  0  0  0  0  0  0  0  0  0
   59.2901   32.3911   52.0698 H   0  0  0  0  0  0  0  0  0  0  0  0
   60.6379   34.3816   51.4127 H   0  0  0  0  0  0  0  0  0  0  0  0
   60.6572   35.1569   49.0427 H   0  0  0  0  0  0  0  0  0  0  0  0
   57.1737   32.5172   46.9984 H   0  0  0  0  0  0  0  0  0  0  0  0
   56.3510   33.3996   45.6334 H   0  0  0  0  0  0  0  0  0  0  0  0
   60.0230   32.4540   46.0600 H   0  0  0  0  0  0  0  0  0  0  0  0
   62.1747   32.7453   45.8010 H   0  0  0  0  0  0  0  0  0  0  0  0
   64.1352   34.1277   46.4956 H   0  0  0  0  0  0  0  0  0  0  0  0
   65.0517   33.8859   48.8087 H   0  0  0  0  0  0  0  0  0  0  0  0
   62.5452   30.8037   52.5284 H   0  0  0  0  0  0  0  0  0  0  0  0
   64.0154   30.8172   51.4963 H   0  0  0  0  0  0  0  0  0  0  0  0
   62.9051   32.2292   51.4963 H   0  0  0  0  0  0  0  0  0  0  0  0
   56.0300   25.9506   46.8545 H   0  0  0  0  0  0  0  0  0  0  0  0
   55.8124   26.9190   45.3574 H   0  0  0  0  0  0  0  0  0  0  0  0
   56.9147   25.5007   45.3574 H   0  0  0  0  0  0  0  0  0  0  0  0
   60.2609   27.2423   49.6514 H   0  0  0  0  0  0  0  0  0  0  0  0
   60.7730   25.9879   48.4720 H   0  0  0  0  0  0  0  0  0  0  0  0
   61.5680   27.5987   48.4720 H   0  0  0  0  0  0  0  0  0  0  0  0
   57.8818   32.0093   47.9907 H   0  0  0  0  0  0  0  0  0  0  0  0
  1  2  1  0
  2  3  1  0
  3  4  2  0
  4  5  1  0
  5  6  2  0
  6  7  1  0
  7  8  1  0
  8  9  1  0
  9 10  2  0
  9 11  1  0
 11 12  1  0
 12 13  1  0
 13 14  2  0
 14 15  1  0
 15 16  1  0
 16 17  2  0
 17 18  1  0
 18 19  2  0
 19 20  1  0
 20 21  2  0
 21 22  1  0
 22 23  1  0
 15 24  2  0
 24 25  1  0
 25 26  2  0
 26 27  1  0
 27 28  2  0
 27 29  1  0
 29 30  1  0
 29 31  1  0
 31 32  2  0
 31 33  1  0
 33 34  1  0
  7 35  2  0
 35  3  1  0
 26 13  1  0
 21 16  1  0
 33 25  1  0
  1 36  1  0
  1 37  1  0
  1 38  1  0
  4 39  1  0
  5 40  1  0
  6 41  1  0
 11 42  1  0
 11 43  1  0
 14 44  1  0
 17 45  1  0
 18 46  1  0
 19 47  1  0
 23 48  1  0
 23 49  1  0
 23 50  1  0
 30 51  1  0
 30 52  1  0
 30 53  1  0
 34 54  1  0
 34 55  1  0
 34 56  1  0
 35 57  1  0
M  CHG  2   8  -1  14   1
M  END
>  <UniqueID>  (57) 
52

>  <SMILES>  (57) 
COc1cccc([N-]C(=O)CSc2[nH+]c(-c3cccnc3SC)nc3c2c(=O)n(C)c(=O)n3C)c1

>  <Energy>  (57) 
74.0638102313172

>  <Genealogy>  (57) 
COc1cccc([N-]C(=O)CSc2[nH+]c(-c3cccnc3SC)nc3c2c(=O)n(C)c(=O)n3C)c1 (protonated)
COc1cccc([N-]C(=O)CSc2[nH+]c(-c3cccnc3SC)nc3c2c(=O)n(C)c(=O)n3C)c1 (3D coordinates assigned)
COc1cccc([N-]C(=O)CSc2[nH+]c(-c3cccnc3SC)nc3c2c(=O)n(C)c(=O)n3C)c1 (optimized conformer: 74.0638102313172 kcal/mol)

>  <smiles>  (57) 
COc1cccc(NC(=O)CSc2nc(-c3cccnc3SC)nc3c2c(=O)n(C)c(=O)n3C)c1

>  <score_type>  (57) 
oracle

>  <origin>  (57) 
adg

>  <m_score__min__energy>  (57) 
-9.7799999999999994

>  <m_primary>  (57) 
energy

$$$$
57:0
     RDKit          3D

 48 50  0  0  0  0  0  0  0  0999 V2000
   51.3470   31.8110   50.1570 C   0  0  0  0  0  0  0  0  0  0  0  0
   51.3770   32.7230   51.2950 N   0  0  0  0  0  0  0  0  0  0  0  0
   51.2780   31.8180   52.7750 S   0  0  0  0  0  0  0  0  0  0  0  0
   51.3050   32.7570   53.9490 O   0  0  0  0  0  0  0  0  0  0  0  0
   49.9810   31.0600   52.8040 O   0  0  0  0  0  0  0  0  0  0  0  0
   52.6150   30.6740   52.8830 C   0  0  0  0  0  0  0  0  0  0  0  0
   52.3510   29.3080   53.0430 C   0  0  0  0  0  0  0  0  0  0  0  0
   53.4050   28.3930   53.1080 C   0  0  0  0  0  0  0  0  0  0  0  0
   54.7260   28.8350   53.0120 C   0  0  0  0  0  0  0  0  0  0  0  0
   55.0050   30.2030   52.8570 C   0  0  0  0  0  0  0  0  0  0  0  0
   56.4260   30.6860   52.7320 C   0  0  0  0  0  0  0  0  0  0  0  0
   57.2170   29.7650   51.9210 N   0  0  0  0  0  0  0  0  0  0  0  0
   58.1320   30.1470   50.8860 C   0  0  0  0  0  0  0  0  0  0  0  0
   57.8950   31.1940   50.2260 O   0  0  0  0  0  0  0  0  0  0  0  0
   59.2970   29.3600   50.5890 N   0  0  0  0  0  0  0  0  0  0  0  0
   60.2460   29.7320   49.5430 C   0  0  0  0  0  0  0  0  0  0  0  0
   59.5130   30.0560   48.2640 C   0  0  0  0  0  0  0  0  0  0  0  0
   58.6890   29.0840   47.6860 C   0  0  0  0  0  0  0  0  0  0  0  0
   58.0040   29.3520   46.5450 N   0  0  0  0  0  0  0  0  0  0  0  0
   58.0740   30.5540   45.9120 C   0  0  0  0  0  0  0  0  0  0  0  0
   57.3410   30.7890   44.7200 C   0  0  0  0  0  0  0  0  0  0  0  0
   56.4560   29.7600   44.1000 C   0  0  0  0  0  0  0  0  0  0  0  0
   55.4550   29.0840   44.8600 N   0  0  0  0  0  0  0  0  0  0  0  0
   56.5770   29.4780   42.8770 O   0  0  0  0  0  0  0  0  0  0  0  0
   57.4560   32.0460   44.0950 C   0  0  0  0  0  0  0  0  0  0  0  0
   58.2650   33.0440   44.6350 C   0  0  0  0  0  0  0  0  0  0  0  0
   58.9810   32.8140   45.8060 C   0  0  0  0  0  0  0  0  0  0  0  0
   58.8970   31.5720   46.4560 C   0  0  0  0  0  0  0  0  0  0  0  0
   59.6170   31.3140   47.6410 C   0  0  0  0  0  0  0  0  0  0  0  0
   60.3540   32.2080   48.1430 O   0  0  0  0  0  0  0  0  0  0  0  0
   53.9410   31.1180   52.7800 C   0  0  0  0  0  0  0  0  0  0  0  0
   51.3129   30.7731   50.5197 H   0  0  0  0  0  0  0  0  0  0  0  0
   50.4551   32.0156   49.5466 H   0  0  0  0  0  0  0  0  0  0  0  0
   52.2504   31.9566   49.5466 H   0  0  0  0  0  0  0  0  0  0  0  0
   51.3119   28.9547   53.1176 H   0  0  0  0  0  0  0  0  0  0  0  0
   53.1934   27.3211   53.2352 H   0  0  0  0  0  0  0  0  0  0  0  0
   55.5513   28.1092   53.0579 H   0  0  0  0  0  0  0  0  0  0  0  0
   56.4292   31.6784   52.2574 H   0  0  0  0  0  0  0  0  0  0  0  0
   56.8695   30.7409   53.7371 H   0  0  0  0  0  0  0  0  0  0  0  0
   59.4820   28.4800   51.1180 H   0  0  0  0  0  0  0  0  0  0  0  0
   60.8171   30.6143   49.8678 H   0  0  0  0  0  0  0  0  0  0  0  0
   60.9282   28.8884   49.3614 H   0  0  0  0  0  0  0  0  0  0  0  0
   58.5956   28.0956   48.1596 H   0  0  0  0  0  0  0  0  0  0  0  0
   54.4490   29.3480   44.7800 H   0  0  0  0  0  0  0  0  0  0  0  0
   56.8991   32.2428   43.1670 H   0  0  0  0  0  0  0  0  0  0  0  0
   58.3381   34.0198   44.1325 H   0  0  0  0  0  0  0  0  0  0  0  0
   59.6158   33.6089   46.2245 H   0  0  0  0  0  0  0  0  0  0  0  0
   54.1497   32.1887   52.6381 H   0  0  0  0  0  0  0  0  0  0  0  0
  1  2  1  0
  2  3  1  0
  3  4  2  0
  3  5  2  0
  3  6  1  0
  6  7  2  0
  7  8  1  0
  8  9  2  0
  9 10  1  0
 10 11  1  0
 11 12  1  0
 12 13  1  0
 13 14  2  0
 13 15  1  0
 15 16  1  0
 16 17  1  0
 17 18  2  0
 18 19  1  0
 19 20  1  0
 20 21  2  0
 21 22  1  0
 22 23  1  0
 22 24  2  0
 21 25  1  0
 25 26  2  0
 26 27  1  0
 27 28  2  0
 28 29  1  0
 29 30  2  0
 10 31  2  0
 31  6  1  0
 29 17  1  0
 28 20  1  0
  1 32  1  0
  1 33  1  0
  1 34  1  0
  7 35  1  0
  8 36  1  0
  9 37  1  0
 11 38  1  0
 11 39  1  0
 15 40  1  0
 16 41  1  0
 16 42  1  0
 18 43  1  0
 23 44  1  0
 25 45  1  0
 26 46  1  0
 27 47  1  0
 31 48  1  0
M  CHG  4   2  -1  12  -1  19  -1  23  -1
M  END
>  <UniqueID>  (58) 
53

>  <SMILES>  (58) 
C[N-]S(=O)(=O)c1cccc(C[N-]C(=O)NCc2c[n-]c3c(C([NH-])=O)cccc3c2=O)c1

>  <Energy>  (58) 
52.88621945012869

>  <Genealogy>  (58) 
C[N-]S(=O)(=O)c1cccc(C[N-]C(=O)NCc2c[n-]c3c(C([NH-])=O)cccc3c2=O)c1 (protonated)
C[N-]S(=O)(=O)c1cccc(C[N-]C(=O)NCc2c[n-]c3c(C([NH-])=O)cccc3c2=O)c1 (3D coordinates assigned)
C[N-]S(=O)(=O)c1cccc(C[N-]C(=O)NCc2c[n-]c3c(C([NH-])=O)cccc3c2=O)c1 (optimized conformer: 52.88621945012869 kcal/mol)

>  <smiles>  (58) 
CNS(=O)(=O)c1cccc(CNC(=O)NCc2c[nH]c3c(C(N)=O)cccc3c2=O)c1

>  <score_type>  (58) 
oracle

>  <origin>  (58) 
adg

>  <m_score__min__energy>  (58) 
-16.219999999999999

>  <m_primary>  (58) 
energy

$$$$
58:0
     RDKit          3D

 69 71  0  0  1  0  0  0  0  0999 V2000
   56.6640   21.5570   43.0490 C   0  0  0  0  0  0  0  0  0  0  0  0
   55.6770   22.3910   43.6090 O   0  0  0  0  0  0  0  0  0  0  0  0
   56.0820   23.4220   44.4450 C   0  0  0  0  0  0  0  0  0  0  0  0
   57.4060   23.4080   44.8440 C   0  0  0  0  0  0  0  0  0  0  0  0
   57.8260   24.4210   45.6730 C   0  0  0  0  0  0  0  0  0  0  0  0
   56.9860   25.4280   46.1080 C   0  0  0  0  0  0  0  0  0  0  0  0
   57.5150   26.4720   46.9910 C   0  0  0  0  0  0  0  0  0  0  0  0
   56.9950   27.7560   46.5610 N   0  0  0  0  0  0  0  0  0  0  0  0
   57.8410   28.7140   46.3340 C   0  0  0  0  0  0  0  0  0  0  0  0
   58.8000   28.9510   47.2380 N   0  0  0  0  0  0  0  0  0  0  0  0
   59.7150   29.9130   47.0960 C   0  0  0  0  0  0  0  0  0  0  0  0
   60.9510   30.1490   48.3570 S   0  0  0  0  0  0  0  0  0  0  0  0
   61.1560   31.9490   48.7240 C   0  0  2  0  0  0  0  0  0  0  0  0
   62.5950   32.2530   48.6400 C   0  0  0  0  0  0  0  0  0  0  0  0
   62.9830   33.2850   47.6630 C   0  0  0  0  0  0  0  0  0  0  0  0
   61.9870   33.7370   46.6780 C   0  0  0  0  0  0  0  0  0  0  0  0
   60.8530   34.5760   47.2280 C   0  0  0  0  0  0  0  0  0  0  0  0
   59.5370   34.1940   46.6570 C   0  0  0  0  0  0  0  0  0  0  0  0
   59.2870   34.4870   45.3140 C   0  0  0  0  0  0  0  0  0  0  0  0
   58.0780   34.1430   44.7470 C   0  0  0  0  0  0  0  0  0  0  0  0
   57.0700   33.5110   45.4430 C   0  0  0  0  0  0  0  0  0  0  0  0
   57.3150   33.2200   46.7730 C   0  0  0  0  0  0  0  0  0  0  0  0
   58.5350   33.5680   47.3410 C   0  0  0  0  0  0  0  0  0  0  0  0
   60.3800   32.3080   49.8920 C   0  0  0  0  0  0  0  0  0  0  0  0
   60.8160   33.1750   50.7360 O   0  0  0  0  0  0  0  0  0  0  0  0
   59.0940   31.7690   50.2290 N   0  0  0  0  0  0  0  0  0  0  0  0
   58.3980   32.1810   51.4170 C   0  0  0  0  0  0  0  0  0  0  0  0
   57.0600   31.6130   51.7570 C   0  0  0  0  0  0  0  0  0  0  0  0
   58.9330   33.0460   52.1910 O   0  0  0  0  0  0  0  0  0  0  0  0
   59.6990   30.6960   46.0020 N   0  0  0  0  0  0  0  0  0  0  0  0
   58.7500   30.4940   45.0630 C   0  0  0  0  0  0  0  0  0  0  0  0
   57.8060   29.5020   45.2100 C   0  0  0  0  0  0  0  0  0  0  0  0
   56.7900   29.2850   44.2050 C   0  0  0  0  0  0  0  0  0  0  0  0
   55.4310   29.1110   44.6050 N   0  0  0  0  0  0  0  0  0  0  0  0
   57.1340   29.2560   42.9990 O   0  0  0  0  0  0  0  0  0  0  0  0
   55.6660   25.4260   45.6980 C   0  0  0  0  0  0  0  0  0  0  0  0
   54.8340   26.4360   46.1380 O   0  0  0  0  0  0  0  0  0  0  0  0
   55.2110   24.4190   44.8640 C   0  0  0  0  0  0  0  0  0  0  0  0
   57.2360   21.0737   43.8548 H   0  0  0  0  0  0  0  0  0  0  0  0
   56.1838   20.7869   42.4274 H   0  0  0  0  0  0  0  0  0  0  0  0
   57.3432   22.1590   42.4274 H   0  0  0  0  0  0  0  0  0  0  0  0
   58.0954   22.6180   44.5114 H   0  0  0  0  0  0  0  0  0  0  0  0
   58.8750   24.4302   46.0039 H   0  0  0  0  0  0  0  0  0  0  0  0
   57.2013   26.2742   48.0266 H   0  0  0  0  0  0  0  0  0  0  0  0
   58.6140   26.4794   46.9443 H   0  0  0  0  0  0  0  0  0  0  0  0
   60.7169   32.6406   47.9899 H   0  0  0  0  0  0  0  0  0  0  0  0
   62.9261   32.5893   49.6336 H   0  0  0  0  0  0  0  0  0  0  0  0
   63.0737   31.3246   48.2952 H   0  0  0  0  0  0  0  0  0  0  0  0
   63.2973   34.1704   48.2351 H   0  0  0  0  0  0  0  0  0  0  0  0
   63.7584   32.7975   47.0538 H   0  0  0  0  0  0  0  0  0  0  0  0
   62.5110   34.3342   45.9173 H   0  0  0  0  0  0  0  0  0  0  0  0
   61.5194   32.8228   46.2835 H   0  0  0  0  0  0  0  0  0  0  0  0
   60.8152   34.4466   48.3197 H   0  0  0  0  0  0  0  0  0  0  0  0
   61.0467   35.6232   46.9524 H   0  0  0  0  0  0  0  0  0  0  0  0
   60.0545   34.9920   44.7090 H   0  0  0  0  0  0  0  0  0  0  0  0
   57.9097   34.3848   43.6872 H   0  0  0  0  0  0  0  0  0  0  0  0
   56.1152   33.2502   44.9632 H   0  0  0  0  0  0  0  0  0  0  0  0
   56.5477   32.7154   47.3785 H   0  0  0  0  0  0  0  0  0  0  0  0
   58.7024   33.3255   48.4008 H   0  0  0  0  0  0  0  0  0  0  0  0
   58.6690   31.0770   49.6080 H   0  0  0  0  0  0  0  0  0  0  0  0
   56.9488   31.5658   52.8503 H   0  0  0  0  0  0  0  0  0  0  0  0
   56.2717   32.2541   51.3356 H   0  0  0  0  0  0  0  0  0  0  0  0
   56.9736   30.6006   51.3356 H   0  0  0  0  0  0  0  0  0  0  0  0
   60.4060   31.4640   45.8580 H   0  0  0  0  0  0  0  0  0  0  0  0
   58.7305   31.1316   44.1668 H   0  0  0  0  0  0  0  0  0  0  0  0
   55.1110   28.1690   44.9040 H   0  0  0  0  0  0  0  0  0  0  0  0
   54.7330   29.8820   44.6150 H   0  0  0  0  0  0  0  0  0  0  0  0
   54.7900   26.6970   47.1190 H   0  0  0  0  0  0  0  0  0  0  0  0
   54.1617   24.4087   44.5340 H   0  0  0  0  0  0  0  0  0  0  0  0
  1  2  1  0
  2  3  1  0
  3  4  2  0
  4  5  1  0
  5  6  2  0
  6  7  1  0
  7  8  1  0
  8  9  2  0
  9 10  1  0
 10 11  2  0
 11 12  1  0
 12 13  1  0
 13 14  1  0
 14 15  1  0
 15 16  1  0
 16 17  1  0
 17 18  1  0
 18 19  2  0
 19 20  1  0
 20 21  2  0
 21 22  1  0
 22 23  2  0
 13 24  1  0
 24 25  2  0
 24 26  1  0
 26 27  1  0
 27 28  1  0
 27 29  2  0
 11 30  1  0
 30 31  1  0
 31 32  2  0
 32 33  1  0
 33 34  1  0
 33 35  2  0
  6 36  1  0
 36 37  1  0
 36 38  2  0
 38  3  1  0
 32  9  1  0
 23 18  1  0
  1 39  1  0
  1 40  1  0
  1 41  1  0
  4 42  1  0
  5 43  1  0
  7 44  1  0
  7 45  1  0
 13 46  1  6
 14 47  1  0
 14 48  1  0
 15 49  1  0
 15 50  1  0
 16 51  1  0
 16 52  1  0
 17 53  1  0
 17 54  1  0
 19 55  1  0
 20 56  1  0
 21 57  1  0
 22 58  1  0
 23 59  1  0
 26 60  1  0
 28 61  1  0
 28 62  1  0
 28 63  1  0
 30 64  1  0
 31 65  1  0
 34 66  1  0
 34 67  1  0
 37 68  1  0
 38 69  1  0
M  END
>  <smiles>  (59) 
COc1ccc(CN=c2nc(SC(CCCCc3ccccc3)C(=O)NC(C)=O)[nH]cc2C(N)=O)c(O)c1

>  <score_type>  (59) 
oracle

>  <origin>  (59) 
adg

>  <m_score__min__energy>  (59) 
-11.640000000000001

>  <m_primary>  (59) 
energy

$$$$
59:0
     RDKit          3D

 56 59  0  0  0  0  0  0  0  0999 V2000
   58.7970   24.2900   46.3480 O   0  0  0  0  0  0  0  0  0  0  0  0
   57.8380   24.9810   45.9050 C   0  0  0  0  0  0  0  0  0  0  0  0
   58.0110   26.3250   45.4860 N   0  0  0  0  0  0  0  0  0  0  0  0
   59.4030   26.8400   45.6500 C   0  0  0  0  0  0  0  0  0  0  0  0
   59.4370   27.7230   46.8580 C   0  0  0  0  0  0  0  0  0  0  0  0
   60.3120   27.2680   47.8590 C   0  0  0  0  0  0  0  0  0  0  0  0
   60.4390   27.9950   49.0140 C   0  0  0  0  0  0  0  0  0  0  0  0
   59.7360   29.1680   49.2380 C   0  0  0  0  0  0  0  0  0  0  0  0
   59.9200   29.8310   50.3890 O   0  0  0  0  0  0  0  0  0  0  0  0
   59.3980   30.9430   50.9290 C   0  0  0  0  0  0  0  0  0  0  0  0
   58.0400   30.9250   51.2740 C   0  0  0  0  0  0  0  0  0  0  0  0
   57.4050   32.0010   51.8290 C   0  0  0  0  0  0  0  0  0  0  0  0
   58.1230   33.1380   52.0550 C   0  0  0  0  0  0  0  0  0  0  0  0
   59.4760   33.1930   51.7270 C   0  0  0  0  0  0  0  0  0  0  0  0
   60.1160   32.0980   51.1640 C   0  0  0  0  0  0  0  0  0  0  0  0
   58.8890   29.5680   48.2200 C   0  0  0  0  0  0  0  0  0  0  0  0
   58.7360   28.8510   47.0300 C   0  0  0  0  0  0  0  0  0  0  0  0
   57.8500   29.4780   46.0440 C   0  0  0  0  0  0  0  0  0  0  0  0
   56.7890   28.9260   45.6370 O   0  0  0  0  0  0  0  0  0  0  0  0
   58.1980   30.7510   45.5460 N   0  0  0  0  0  0  0  0  0  0  0  0
   57.3190   31.7040   44.4600 S   0  0  0  0  0  0  0  0  0  0  0  0
   57.9090   31.5050   43.0940 O   0  0  0  0  0  0  0  0  0  0  0  0
   55.8740   31.1920   44.4730 O   0  0  0  0  0  0  0  0  0  0  0  0
   57.2600   33.4310   44.8310 C   0  0  0  0  0  0  0  0  0  0  0  0
   58.2050   33.6480   45.9860 C   0  0  0  0  0  0  0  0  0  0  0  0
   59.3730   34.3490   45.7300 C   0  0  0  0  0  0  0  0  0  0  0  0
   60.3180   34.6130   46.6960 C   0  0  0  0  0  0  0  0  0  0  0  0
   60.0550   34.1410   47.9680 C   0  0  0  0  0  0  0  0  0  0  0  0
   60.9930   34.3990   48.9140 F   0  0  0  0  0  0  0  0  0  0  0  0
   58.8870   33.4310   48.2620 C   0  0  0  0  0  0  0  0  0  0  0  0
   57.9560   33.1850   47.2550 C   0  0  0  0  0  0  0  0  0  0  0  0
   56.4970   24.3310   45.8530 C   0  0  0  0  0  0  0  0  0  0  0  0
   55.4210   25.0490   45.7600 N   0  0  0  0  0  0  0  0  0  0  0  0
   54.2210   24.4040   45.7040 C   0  0  0  0  0  0  0  0  0  0  0  0
   53.0330   24.8480   45.6060 O   0  0  0  0  0  0  0  0  0  0  0  0
   54.6460   22.6080   45.7980 S   0  0  0  0  0  0  0  0  0  0  0  0
   56.4030   22.9840   45.8970 N   0  0  0  0  0  0  0  0  0  0  0  0
   57.2560   26.8850   45.1040 H   0  0  0  0  0  0  0  0  0  0  0  0
   60.0978   25.9980   45.7849 H   0  0  0  0  0  0  0  0  0  0  0  0
   59.7055   27.4067   44.7571 H   0  0  0  0  0  0  0  0  0  0  0  0
   60.8872   26.3411   47.7176 H   0  0  0  0  0  0  0  0  0  0  0  0
   61.1257   27.6332   49.7935 H   0  0  0  0  0  0  0  0  0  0  0  0
   57.4613   30.0077   51.0908 H   0  0  0  0  0  0  0  0  0  0  0  0
   56.3371   31.9506   52.0879 H   0  0  0  0  0  0  0  0  0  0  0  0
   57.6314   34.0164   52.4986 H   0  0  0  0  0  0  0  0  0  0  0  0
   60.0439   34.1158   51.9167 H   0  0  0  0  0  0  0  0  0  0  0  0
   61.1845   32.1500   50.9077 H   0  0  0  0  0  0  0  0  0  0  0  0
   58.3091   30.4932   48.3532 H   0  0  0  0  0  0  0  0  0  0  0  0
   59.1350   31.1550   45.8850 H   0  0  0  0  0  0  0  0  0  0  0  0
   57.5826   34.0191   43.9592 H   0  0  0  0  0  0  0  0  0  0  0  0
   56.2385   33.7509   45.0845 H   0  0  0  0  0  0  0  0  0  0  0  0
   59.5534   34.7114   44.7072 H   0  0  0  0  0  0  0  0  0  0  0  0
   61.2371   35.1721   46.4666 H   0  0  0  0  0  0  0  0  0  0  0  0
   58.7038   33.0681   49.2841 H   0  0  0  0  0  0  0  0  0  0  0  0
   57.0334   32.6272   47.4734 H   0  0  0  0  0  0  0  0  0  0  0  0
   57.1320   22.2570   45.9740 H   0  0  0  0  0  0  0  0  0  0  0  0
  1  2  2  0
  2  3  1  0
  3  4  1  0
  4  5  1  0
  5  6  2  0
  6  7  1  0
  7  8  2  0
  8  9  1  0
  9 10  1  0
 10 11  2  0
 11 12  1  0
 12 13  2  0
 13 14  1  0
 14 15  2  0
  8 16  1  0
 16 17  2  0
 17 18  1  0
 18 19  2  0
 18 20  1  0
 20 21  1  0
 21 22  2  0
 21 23  2  0
 21 24  1  0
 24 25  1  0
 25 26  2  0
 26 27  1  0
 27 28  2  0
 28 29  1  0
 28 30  1  0
 30 31  2  0
  2 32  1  0
 32 33  2  0
 33 34  1  0
 34 35  2  0
 34 36  1  0
 36 37  1  0
 17  5  1  0
 31 25  1  0
 37 32  1  0
 15 10  1  0
  3 38  1  0
  4 39  1  0
  4 40  1  0
  6 41  1  0
  7 42  1  0
 11 43  1  0
 12 44  1  0
 13 45  1  0
 14 46  1  0
 15 47  1  0
 16 48  1  0
 20 49  1  0
 24 50  1  0
 24 51  1  0
 26 52  1  0
 27 53  1  0
 30 54  1  0
 31 55  1  0
 37 56  1  0
M  END
>  <smiles>  (60) 
O=C(NCc1ccc(Oc2ccccc2)cc1C(=O)NS(=O)(=O)Cc1ccc(F)cc1)c1nc(=O)s[nH]1

>  <score_type>  (60) 
oracle

>  <origin>  (60) 
adg

>  <m_score__min__energy>  (60) 
-10.800000000000001

>  <m_primary>  (60) 
energy

$$$$
60:0
     RDKit          3D

 51 54  0  0  0  0  0  0  0  0999 V2000
   62.9440   33.7770   46.3310 C   0  0  0  0  0  0  0  0  0  0  0  0
   62.7030   33.2980   47.7040 N   0  0  0  0  0  0  0  0  0  0  0  0
   61.7320   34.1620   48.4290 C   0  0  0  0  0  0  0  0  0  0  0  0
   60.3360   33.5320   48.5890 C   0  0  0  0  0  0  0  0  0  0  0  0
   60.0270   32.6840   47.4350 N   0  0  0  0  0  0  0  0  0  0  0  0
   58.9360   33.0080   46.5470 C   0  0  0  0  0  0  0  0  0  0  0  0
   58.4710   34.1790   46.5210 O   0  0  0  0  0  0  0  0  0  0  0  0
   58.3880   32.0060   45.6150 C   0  0  0  0  0  0  0  0  0  0  0  0
   58.1970   32.3160   44.2610 C   0  0  0  0  0  0  0  0  0  0  0  0
   57.6570   31.3640   43.3920 C   0  0  0  0  0  0  0  0  0  0  0  0
   57.2780   30.1070   43.8750 C   0  0  0  0  0  0  0  0  0  0  0  0
   57.4360   29.7970   45.2330 C   0  0  0  0  0  0  0  0  0  0  0  0
   56.9640   28.5000   45.7570 C   0  0  0  0  0  0  0  0  0  0  0  0
   55.9070   27.8400   45.2490 N   0  0  0  0  0  0  0  0  0  0  0  0
   55.8860   26.6920   45.9540 C   0  0  0  0  0  0  0  0  0  0  0  0
   55.0260   25.7930   45.7610 O   0  0  0  0  0  0  0  0  0  0  0  0
   56.8590   26.5810   46.8810 N   0  0  0  0  0  0  0  0  0  0  0  0
   57.5390   27.7360   46.7630 C   0  0  0  0  0  0  0  0  0  0  0  0
   58.6640   28.1040   47.6480 C   0  0  0  0  0  0  0  0  0  0  0  0
   59.8970   27.4340   47.5620 C   0  0  0  0  0  0  0  0  0  0  0  0
   60.9450   27.7720   48.4200 C   0  0  0  0  0  0  0  0  0  0  0  0
   60.7800   28.7900   49.3620 C   0  0  0  0  0  0  0  0  0  0  0  0
   59.5670   29.4890   49.4370 C   0  0  0  0  0  0  0  0  0  0  0  0
   59.3530   30.7620   50.6320 S   0  0  0  0  0  0  0  0  0  0  0  0
   58.7700   30.0770   52.1070 N   0  0  0  0  0  0  0  0  0  0  0  0
   60.6650   31.4500   50.8850 O   0  0  0  0  0  0  0  0  0  0  0  0
   58.3670   31.7780   50.1250 O   0  0  0  0  0  0  0  0  0  0  0  0
   58.5130   29.1450   48.5770 C   0  0  0  0  0  0  0  0  0  0  0  0
   58.0310   30.7370   46.0900 C   0  0  0  0  0  0  0  0  0  0  0  0
   60.9680   31.6080   47.0940 C   0  0  0  0  0  0  0  0  0  0  0  0
   62.3450   31.8640   47.7310 C   0  0  0  0  0  0  0  0  0  0  0  0
   63.4381   34.7591   46.3667 H   0  0  0  0  0  0  0  0  0  0  0  0
   63.5892   33.0610   45.8008 H   0  0  0  0  0  0  0  0  0  0  0  0
   61.9845   33.8683   45.8008 H   0  0  0  0  0  0  0  0  0  0  0  0
   62.1349   34.3708   49.4311 H   0  0  0  0  0  0  0  0  0  0  0  0
   61.6042   35.0739   47.8273 H   0  0  0  0  0  0  0  0  0  0  0  0
   60.3157   32.9217   49.5039 H   0  0  0  0  0  0  0  0  0  0  0  0
   59.5862   34.3342   48.6553 H   0  0  0  0  0  0  0  0  0  0  0  0
   58.4729   33.3110   43.8818 H   0  0  0  0  0  0  0  0  0  0  0  0
   57.5297   31.6036   42.3260 H   0  0  0  0  0  0  0  0  0  0  0  0
   56.8549   29.3599   43.1874 H   0  0  0  0  0  0  0  0  0  0  0  0
   60.0367   26.6391   46.8146 H   0  0  0  0  0  0  0  0  0  0  0  0
   61.9030   27.2354   48.3541 H   0  0  0  0  0  0  0  0  0  0  0  0
   61.6031   29.0437   50.0462 H   0  0  0  0  0  0  0  0  0  0  0  0
   59.5350   30.1790   52.8120 H   0  0  0  0  0  0  0  0  0  0  0  0
   57.5619   29.6950   48.6313 H   0  0  0  0  0  0  0  0  0  0  0  0
   58.2182   30.4752   47.1419 H   0  0  0  0  0  0  0  0  0  0  0  0
   60.5715   30.6512   47.4647 H   0  0  0  0  0  0  0  0  0  0  0  0
   61.0858   31.5760   46.0008 H   0  0  0  0  0  0  0  0  0  0  0  0
   62.3232   31.5218   48.7762 H   0  0  0  0  0  0  0  0  0  0  0  0
   63.0988   31.3119   47.1505 H   0  0  0  0  0  0  0  0  0  0  0  0
  1  2  1  0
  2  3  1  0
  3  4  1  0
  4  5  1  0
  5  6  1  0
  6  7  2  0
  6  8  1  0
  8  9  2  0
  9 10  1  0
 10 11  2  0
 11 12  1  0
 12 13  1  0
 13 14  1  0
 14 15  1  0
 15 16  2  0
 15 17  1  0
 17 18  1  0
 18 19  1  0
 19 20  2  0
 20 21  1  0
 21 22  2  0
 22 23  1  0
 23 24  1  0
 24 25  1  0
 24 26  2  0
 24 27  2  0
 23 28  2  0
 12 29  2  0
  5 30  1  0
 30 31  1  0
 31  2  1  0
 29  8  1  0
 18 13  2  0
 28 19  1  0
  1 32  1  0
  1 33  1  0
  1 34  1  0
  3 35  1  0
  3 36  1  0
  4 37  1  0
  4 38  1  0
  9 39  1  0
 10 40  1  0
 11 41  1  0
 20 42  1  0
 21 43  1  0
 22 44  1  0
 25 45  1  0
 28 46  1  0
 29 47  1  0
 30 48  1  0
 30 49  1  0
 31 50  1  0
 31 51  1  0
M  CHG  3  14  -1  17  -1  25  -1
M  END
>  <UniqueID>  (61) 
54

>  <SMILES>  (61) 
CN1CCN(C(=O)c2cccc(-c3[n-]c(=O)[n-]c3-c3cccc(S([NH-])(=O)=O)c3)c2)CC1

>  <Energy>  (61) 
101.28646397858216

>  <Genealogy>  (61) 
CN1CCN(C(=O)c2cccc(-c3[n-]c(=O)[n-]c3-c3cccc(S([NH-])(=O)=O)c3)c2)CC1 (protonated)
CN1CCN(C(=O)c2cccc(-c3[n-]c(=O)[n-]c3-c3cccc(S([NH-])(=O)=O)c3)c2)CC1 (3D coordinates assigned)
CN1CCN(C(=O)c2cccc(-c3[n-]c(=O)[n-]c3-c3cccc(S([NH-])(=O)=O)c3)c2)CC1 (nonaromatic ring conformer: 101.28646397858216 kcal/mol)

>  <smiles>  (61) 
CN1CCN(C(=O)c2cccc(-c3[nH]c(=O)[nH]c3-c3cccc(S(N)(=O)=O)c3)c2)CC1

>  <score_type>  (61) 
oracle

>  <origin>  (61) 
adg

>  <m_score__min__energy>  (61) 
-14.029999999999999

>  <m_primary>  (61) 
energy

$$$$
61:0
     RDKit          3D

 58 61  0  0  0  0  0  0  0  0999 V2000
   59.9140   32.5900   49.3300 O   0  0  0  0  0  0  0  0  0  0  0  0
   60.5690   32.5880   47.9750 S   0  0  0  0  0  0  0  0  0  0  0  0
   61.2830   31.2810   47.7740 O   0  0  0  0  0  0  0  0  0  0  0  0
   59.3440   32.7520   46.7180 C   0  0  0  0  0  0  0  0  0  0  0  0
   58.8000   34.0050   46.4190 C   0  0  0  0  0  0  0  0  0  0  0  0
   57.8290   34.1250   45.4250 C   0  0  0  0  0  0  0  0  0  0  0  0
   57.3940   32.9970   44.7250 C   0  0  0  0  0  0  0  0  0  0  0  0
   57.9240   31.7260   45.0150 C   0  0  0  0  0  0  0  0  0  0  0  0
   57.4590   30.5190   44.2710 C   0  0  0  0  0  0  0  0  0  0  0  0
   55.8490   30.1600   44.2360 S   0  0  0  0  0  0  0  0  0  0  0  0
   58.4040   29.5570   43.7500 N   0  0  0  0  0  0  0  0  0  0  0  0
   58.5310   28.4280   44.6420 C   0  0  0  0  0  0  0  0  0  0  0  0
   59.7680   28.1180   45.2330 C   0  0  0  0  0  0  0  0  0  0  0  0
   59.8920   27.0100   46.0740 C   0  0  0  0  0  0  0  0  0  0  0  0
   58.7870   26.1980   46.3340 C   0  0  0  0  0  0  0  0  0  0  0  0
   57.5460   26.4910   45.7540 C   0  0  0  0  0  0  0  0  0  0  0  0
   56.1490   25.4630   46.0800 S   0  0  0  0  0  0  0  0  0  0  0  0
   56.2210   24.9650   47.4970 O   0  0  0  0  0  0  0  0  0  0  0  0
   54.8940   26.2780   45.9380 O   0  0  0  0  0  0  0  0  0  0  0  0
   56.0750   24.0990   44.9920 N   0  0  0  0  0  0  0  0  0  0  0  0
   56.7180   24.4240   43.7120 C   0  0  0  0  0  0  0  0  0  0  0  0
   56.6190   23.2180   42.7540 C   0  0  0  0  0  0  0  0  0  0  0  0
   56.1140   22.0600   43.3960 O   0  0  0  0  0  0  0  0  0  0  0  0
   56.8700   21.7880   44.5600 C   0  0  0  0  0  0  0  0  0  0  0  0
   56.7170   22.9200   45.5980 C   0  0  0  0  0  0  0  0  0  0  0  0
   57.4220   27.6040   44.9100 C   0  0  0  0  0  0  0  0  0  0  0  0
   58.9040   31.6180   46.0230 C   0  0  0  0  0  0  0  0  0  0  0  0
   61.7120   33.9110   47.8660 N   0  0  0  0  0  0  0  0  0  0  0  0
   62.7150   33.8150   48.9340 C   0  0  0  0  0  0  0  0  0  0  0  0
   63.9300   33.0820   48.3800 C   0  0  0  0  0  0  0  0  0  0  0  0
   63.7500   33.0670   46.8750 C   0  0  0  0  0  0  0  0  0  0  0  0
   62.4650   33.8380   46.6110 C   0  0  0  0  0  0  0  0  0  0  0  0
   59.1380   34.8963   46.9679 H   0  0  0  0  0  0  0  0  0  0  0  0
   57.4038   35.1122   45.1912 H   0  0  0  0  0  0  0  0  0  0  0  0
   56.6305   33.1032   43.9403 H   0  0  0  0  0  0  0  0  0  0  0  0
   59.3300   30.0320   43.6340 H   0  0  0  0  0  0  0  0  0  0  0  0
   58.1260   29.2210   42.8000 H   0  0  0  0  0  0  0  0  0  0  0  0
   60.6440   28.7522   45.0318 H   0  0  0  0  0  0  0  0  0  0  0  0
   60.8639   26.7764   46.5331 H   0  0  0  0  0  0  0  0  0  0  0  0
   58.8909   25.3257   46.9961 H   0  0  0  0  0  0  0  0  0  0  0  0
   56.2139   25.2911   43.2603 H   0  0  0  0  0  0  0  0  0  0  0  0
   57.7777   24.6606   43.8885 H   0  0  0  0  0  0  0  0  0  0  0  0
   55.9494   23.4814   41.9220 H   0  0  0  0  0  0  0  0  0  0  0  0
   57.6337   22.9886   42.3965 H   0  0  0  0  0  0  0  0  0  0  0  0
   56.5201   20.8441   45.0034 H   0  0  0  0  0  0  0  0  0  0  0  0
   57.9307   21.7126   44.2785 H   0  0  0  0  0  0  0  0  0  0  0  0
   56.0985   22.5619   46.4342 H   0  0  0  0  0  0  0  0  0  0  0  0
   57.7160   23.2072   45.9578 H   0  0  0  0  0  0  0  0  0  0  0  0
   56.4485   27.8353   44.4530 H   0  0  0  0  0  0  0  0  0  0  0  0
   59.3277   30.6325   46.2663 H   0  0  0  0  0  0  0  0  0  0  0  0
   63.0063   34.8233   49.2632 H   0  0  0  0  0  0  0  0  0  0  0  0
   62.3022   33.2699   49.7957 H   0  0  0  0  0  0  0  0  0  0  0  0
   64.8545   33.6133   48.6503 H   0  0  0  0  0  0  0  0  0  0  0  0
   64.0110   32.0641   48.7890 H   0  0  0  0  0  0  0  0  0  0  0  0
   64.6013   33.5583   46.3812 H   0  0  0  0  0  0  0  0  0  0  0  0
   63.6987   32.0414   46.4806 H   0  0  0  0  0  0  0  0  0  0  0  0
   62.7044   34.8527   46.2602 H   0  0  0  0  0  0  0  0  0  0  0  0
   61.8687   33.3316   45.8377 H   0  0  0  0  0  0  0  0  0  0  0  0
  1  2  2  0
  2  3  2  0
  2  4  1  0
  4  5  2  0
  5  6  1  0
  6  7  2  0
  7  8  1  0
  8  9  1  0
  9 10  2  0
  9 11  1  0
 11 12  1  0
 12 13  2  0
 13 14  1  0
 14 15  2  0
 15 16  1  0
 16 17  1  0
 17 18  2  0
 17 19  2  0
 17 20  1  0
 20 21  1  0
 21 22  1  0
 22 23  1  0
 23 24  1  0
 24 25  1  0
 16 26  2  0
  8 27  2  0
  2 28  1  0
 28 29  1  0
 29 30  1  0
 30 31  1  0
 31 32  1  0
 27  4  1  0
 32 28  1  0
 26 12  1  0
 25 20  1  0
  5 33  1  0
  6 34  1  0
  7 35  1  0
 11 36  1  0
 11 37  1  0
 13 38  1  0
 14 39  1  0
 15 40  1  0
 21 41  1  0
 21 42  1  0
 22 43  1  0
 22 44  1  0
 24 45  1  0
 24 46  1  0
 25 47  1  0
 25 48  1  0
 26 49  1  0
 27 50  1  0
 29 51  1  0
 29 52  1  0
 30 53  1  0
 30 54  1  0
 31 55  1  0
 31 56  1  0
 32 57  1  0
 32 58  1  0
M  CHG  1  11   1
M  END
>  <UniqueID>  (62) 
55

>  <SMILES>  (62) 
O=S(=O)(c1cccc(C(=S)[NH2+]c2cccc(S(=O)(=O)N3CCOCC3)c2)c1)N1CCCC1

>  <Energy>  (62) 
75.07735613890227

>  <Genealogy>  (62) 
O=S(=O)(c1cccc(C(=S)[NH2+]c2cccc(S(=O)(=O)N3CCOCC3)c2)c1)N1CCCC1 (protonated)
O=S(=O)(c1cccc(C(=S)[NH2+]c2cccc(S(=O)(=O)N3CCOCC3)c2)c1)N1CCCC1 (3D coordinates assigned)
O=S(=O)(c1cccc(C(=S)[NH2+]c2cccc(S(=O)(=O)N3CCOCC3)c2)c1)N1CCCC1 (nonaromatic ring conformer: 75.07735613890227 kcal/mol)

>  <smiles>  (62) 
O=S(=O)(c1cccc(C(=S)Nc2cccc(S(=O)(=O)N3CCOCC3)c2)c1)N1CCCC1

>  <score_type>  (62) 
oracle

>  <origin>  (62) 
adg

>  <m_score__min__energy>  (62) 
-10.93

>  <m_primary>  (62) 
energy

$$$$
62:0
     RDKit          3D

 49 52  0  0  0  0  0  0  0  0999 V2000
   64.8880   33.1130   47.0350 H   0  0  0  0  0  0  0  0  0  0  0  0
   64.1720   33.7370   47.3250 O   0  0  0  0  0  0  0  0  0  0  0  0
   63.7490   33.2990   48.5900 C   0  0  1  0  0  0  0  0  0  0  0  0
   64.5954   33.4347   49.2794 H   0  0  0  0  0  0  0  0  0  0  0  0
   62.5230   34.0820   49.0500 C   0  0  0  0  0  0  0  0  0  0  0  0
   62.2449   34.8343   48.2972 H   0  0  0  0  0  0  0  0  0  0  0  0
   62.7164   34.6190   49.9903 H   0  0  0  0  0  0  0  0  0  0  0  0
   61.4080   33.0560   49.2110 C   0  0  0  0  0  0  0  0  0  0  0  0
   60.4801   33.4387   48.7609 H   0  0  0  0  0  0  0  0  0  0  0  0
   61.2215   32.8569   50.2766 H   0  0  0  0  0  0  0  0  0  0  0  0
   61.8250   31.8240   48.5250 N   0  0  1  0  0  0  0  0  0  0  0  0
   61.5080   30.9920   49.0740 H   0  0  0  0  0  0  0  0  0  0  0  0
   61.2940   31.7560   47.1770 C   0  0  0  0  0  0  0  0  0  0  0  0
   61.7140   30.8770   46.3730 O   0  0  0  0  0  0  0  0  0  0  0  0
   60.1860   32.6380   46.7500 C   0  0  0  0  0  0  0  0  0  0  0  0
   60.4000   34.0270   46.7280 C   0  0  0  0  0  0  0  0  0  0  0  0
   61.3655   34.4359   47.0606 H   0  0  0  0  0  0  0  0  0  0  0  0
   59.3960   34.8920   46.2870 C   0  0  0  0  0  0  0  0  0  0  0  0
   59.5762   35.9769   46.2653 H   0  0  0  0  0  0  0  0  0  0  0  0
   58.1650   34.3820   45.8740 C   0  0  0  0  0  0  0  0  0  0  0  0
   57.3789   35.0649   45.5193 H   0  0  0  0  0  0  0  0  0  0  0  0
   57.9290   33.0070   45.9100 C   0  0  0  0  0  0  0  0  0  0  0  0
   56.9542   32.6111   45.5889 H   0  0  0  0  0  0  0  0  0  0  0  0
   58.9270   32.1270   46.3530 C   0  0  0  0  0  0  0  0  0  0  0  0
   58.6180   30.7270   46.4740 N   0  0  0  0  0  0  0  0  0  0  0  0
   58.5940   30.0240   47.6280 C   0  0  0  0  0  0  0  0  0  0  0  0
   58.9530   30.5730   48.9750 C   0  0  0  0  0  0  0  0  0  0  0  0
   58.5306   29.9270   49.7587 H   0  0  0  0  0  0  0  0  0  0  0  0
   60.0477   30.6060   49.0776 H   0  0  0  0  0  0  0  0  0  0  0  0
   58.5443   31.5891   49.0776 H   0  0  0  0  0  0  0  0  0  0  0  0
   58.2400   28.7120   47.3830 C   0  0  0  0  0  0  0  0  0  0  0  0
   58.1630   27.9031   48.1244 H   0  0  0  0  0  0  0  0  0  0  0  0
   58.0000   28.6120   46.0180 C   0  0  0  0  0  0  0  0  0  0  0  0
   57.6670   27.4940   45.3450 C   0  0  0  0  0  0  0  0  0  0  0  0
   57.7508   27.5044   44.2482 H   0  0  0  0  0  0  0  0  0  0  0  0
   57.1970   26.2580   45.9940 C   0  0  0  0  0  0  0  0  0  0  0  0
   58.1930   24.9570   46.3830 S   0  0  0  0  0  0  0  0  0  0  0  0
   56.9060   24.0280   46.9330 C   0  0  0  0  0  0  0  0  0  0  0  0
   57.0200   22.8660   47.4030 O   0  0  0  0  0  0  0  0  0  0  0  0
   55.7190   24.6580   46.8100 N   0  0  0  0  0  0  0  0  0  0  0  0
   55.8780   25.8960   46.2740 C   0  0  0  0  0  0  0  0  0  0  0  0
   54.7870   26.7100   45.9940 O   0  0  0  0  0  0  0  0  0  0  0  0
   58.2380   29.8830   45.4830 C   0  0  0  0  0  0  0  0  0  0  0  0
   58.1250   30.2430   44.1960 C   0  0  0  0  0  0  0  0  0  0  0  0
   58.3401   31.2785   43.8936 H   0  0  0  0  0  0  0  0  0  0  0  0
   57.8172   29.5027   43.4428 H   0  0  0  0  0  0  0  0  0  0  0  0
   63.2950   31.8430   48.5110 C   0  0  0  0  0  0  0  0  0  0  0  0
   63.6654   31.3864   47.5813 H   0  0  0  0  0  0  0  0  0  0  0  0
   63.6926   31.2720   49.3630 H   0  0  0  0  0  0  0  0  0  0  0  0
  1  2  1  0
  2  3  1  0
  3  4  1  1
  3  5  1  0
  5  6  1  0
  5  7  1  0
  5  8  1  0
  8  9  1  0
  8 10  1  0
  8 11  1  0
 11 12  1  1
 11 13  1  0
 13 14  2  0
 13 15  1  0
 15 16  2  0
 16 17  1  0
 16 18  1  0
 18 19  1  0
 18 20  2  0
 20 21  1  0
 20 22  1  0
 22 23  1  0
 22 24  2  0
 24 25  1  0
 25 26  1  0
 26 27  1  0
 27 28  1  0
 27 29  1  0
 27 30  1  0
 26 31  2  0
 31 32  1  0
 31 33  1  0
 33 34  2  0
 34 35  1  0
 34 36  1  0
 36 37  1  0
 37 38  1  0
 38 39  2  0
 38 40  1  0
 40 41  1  0
 41 42  1  0
 33 43  1  0
 43 44  2  0
 44 45  1  0
 44 46  1  0
 11 47  1  0
 47 48  1  0
 47 49  1  0
 47  3  1  0
 24 15  1  0
 43 25  1  0
 41 36  2  0
M  CHG  3  11   1  40  -1  42  -1
M  END
>  <UniqueID>  (63) 
56

>  <SMILES>  (63) 
C=c1/c(=C/c2sc(=O)[n-]c2[O-])cc(C)n1-c1ccccc1C(=O)[N@@H+]1CC[C@H](O)C1

>  <Energy>  (63) 
133.58875828226215

>  <Genealogy>  (63) 
C=c1c(=Cc2sc(=O)[n-]c2[O-])cc(C)n1-c1ccccc1C(=O)[NH+]1CCC(O)C1 (protonated)
C=c1c(=Cc2sc(=O)[n-]c2[O-])cc(C)n1-c1ccccc1C(=O)[N@@H+]1CC[C@H](O)C1 (chirality)
C=c1/c(=C/c2sc(=O)[n-]c2[O-])cc(C)n1-c1ccccc1C(=O)[N@@H+]1CC[C@H](O)C1 (cis-trans isomerization)
C=c1/c(=C/c2sc(=O)[n-]c2[O-])cc(C)n1-c1ccccc1C(=O)[N@@H+]1CC[C@H](O)C1 (3D coordinates assigned)
C=c1/c(=C/c2sc(=O)[n-]c2[O-])cc(C)n1-c1ccccc1C(=O)[N@@H+]1CC[C@H](O)C1 (nonaromatic ring conformer: 133.58875828226215 kcal/mol)

>  <smiles>  (63) 
C=c1c(=Cc2sc(=O)[nH]c2O)cc(C)n1-c1ccccc1C(=O)N1CCC(O)C1

>  <score_type>  (63) 
oracle

>  <origin>  (63) 
adg

>  <m_score__min__energy>  (63) 
-13.949999999999999

>  <m_primary>  (63) 
energy

$$$$
63:0
     RDKit          3D

 43 47  0  0  0  0  0  0  0  0999 V2000
   53.3946   32.3155   52.8350 H   0  0  0  0  0  0  0  0  0  0  0  0
   53.4820   31.5100   52.0910 C   0  0  0  0  0  0  0  0  0  0  0  0
   52.4890   31.4610   51.0030 C   0  0  0  0  0  0  0  0  0  0  0  0
   52.4590   30.4860   50.0780 N   0  0  0  0  0  0  0  0  0  0  0  0
   51.3660   30.7850   49.3420 C   0  0  0  0  0  0  0  0  0  0  0  0
   51.0060   30.0960   48.3530 O   0  0  0  0  0  0  0  0  0  0  0  0
   50.6850   31.8740   49.7560 N   0  0  0  0  0  0  0  0  0  0  0  0
   51.4000   32.2850   50.8160 C   0  0  0  0  0  0  0  0  0  0  0  0
   51.0320   33.3550   51.6210 O   0  0  0  0  0  0  0  0  0  0  0  0
   54.4850   30.6320   52.2280 C   0  0  0  0  0  0  0  0  0  0  0  0
   54.4480   29.3060   52.6610 C   0  0  0  0  0  0  0  0  0  0  0  0
   53.5362   28.7552   52.9351 H   0  0  0  0  0  0  0  0  0  0  0  0
   55.7040   28.7990   52.6930 N   0  0  0  0  0  0  0  0  0  0  0  0
   56.5240   29.7610   52.2990 N   0  0  0  0  0  0  0  0  0  0  0  0
   57.8820   29.7340   52.1680 C   0  0  0  0  0  0  0  0  0  0  0  0
   58.6040   28.6790   52.4200 N   0  0  0  0  0  0  0  0  0  0  0  0
   60.0600   28.6220   52.4950 C   0  0  0  0  0  0  0  0  0  0  0  0
   60.1734   29.0173   53.5152 H   0  0  0  0  0  0  0  0  0  0  0  0
   60.6720   27.4650   51.7270 C   0  0  0  0  0  0  0  0  0  0  0  0
   61.5940   26.9888   52.0919 H   0  0  0  0  0  0  0  0  0  0  0  0
   60.3098   26.4896   51.3702 H   0  0  0  0  0  0  0  0  0  0  0  0
   60.7190   28.8710   51.1510 C   0  0  0  0  0  0  0  0  0  0  0  0
   61.6751   29.4125   51.0990 H   0  0  0  0  0  0  0  0  0  0  0  0
   60.4049   29.3350   50.2044 H   0  0  0  0  0  0  0  0  0  0  0  0
   58.5010   30.8710   51.7450 N   0  0  0  0  0  0  0  0  0  0  0  0
   57.7840   32.0060   51.4710 C   0  0  0  0  0  0  0  0  0  0  0  0
   58.3790   33.0860   51.0610 N   0  0  0  0  0  0  0  0  0  0  0  0
   59.6910   33.1250   50.4800 C   0  0  0  0  0  0  0  0  0  0  0  0
   60.7980   33.2220   51.3290 C   0  0  0  0  0  0  0  0  0  0  0  0
   60.6496   33.2694   52.4179 H   0  0  0  0  0  0  0  0  0  0  0  0
   62.0890   33.2590   50.8030 C   0  0  0  0  0  0  0  0  0  0  0  0
   62.9534   33.3461   51.4777 H   0  0  0  0  0  0  0  0  0  0  0  0
   62.2880   33.1860   49.4250 C   0  0  0  0  0  0  0  0  0  0  0  0
   63.3090   33.2242   49.0174 H   0  0  0  0  0  0  0  0  0  0  0  0
   61.1930   33.0640   48.5540 C   0  0  0  0  0  0  0  0  0  0  0  0
   61.4310   32.9550   47.0720 C   0  0  0  0  0  0  0  0  0  0  0  0
   62.4175   32.5032   46.8913 H   0  0  0  0  0  0  0  0  0  0  0  0
   60.6507   32.3245   46.6207 H   0  0  0  0  0  0  0  0  0  0  0  0
   61.3987   33.9577   46.6207 H   0  0  0  0  0  0  0  0  0  0  0  0
   59.8850   33.0170   49.0840 C   0  0  0  0  0  0  0  0  0  0  0  0
   58.5030   32.7580   48.0140 Cl  0  0  0  0  0  0  0  0  0  0  0  0
   56.4290   32.0050   51.6050 N   0  0  0  0  0  0  0  0  0  0  0  0
   55.8260   30.8670   52.0230 C   0  0  0  0  0  0  0  0  0  0  0  0
  1  2  1  0
  2  3  1  0
  3  4  1  0
  4  5  1  0
  5  6  2  0
  5  7  1  0
  7  8  1  0
  8  9  1  0
  2 10  2  3
 10 11  1  0
 11 12  1  0
 11 13  2  0
 13 14  1  0
 14 15  1  0
 15 16  2  0
 16 17  1  0
 17 18  1  0
 17 19  1  0
 19 20  1  0
 19 21  1  0
 19 22  1  0
 22 23  1  0
 22 24  1  0
 15 25  1  0
 25 26  1  0
 26 27  2  0
 27 28  1  0
 28 29  2  0
 29 30  1  0
 29 31  1  0
 31 32  1  0
 31 33  2  0
 33 34  1  0
 33 35  1  0
 35 36  1  0
 36 37  1  0
 36 38  1  0
 36 39  1  0
 35 40  2  0
 40 41  1  0
 26 42  1  0
 42 43  2  0
  8  3  2  0
 43 10  1  0
 43 14  1  0
 22 17  1  0
 40 28  1  0
M  CHG  4   4  -1   7  -1   9  -1  25  -1
M  END
>  <UniqueID>  (64) 
57

>  <SMILES>  (64) 
Cc1cccc(/N=c2/nc3c(=Cc4[n-]c(=O)[n-]c4[O-])cnn3/c(=N\C3CC3)[n-]2)c1Cl

>  <Energy>  (64) 
398.7383625622773

>  <Genealogy>  (64) 
Cc1cccc(N=c2nc3c(=Cc4[n-]c(=O)[n-]c4[O-])cnn3c(=NC3CC3)[n-]2)c1Cl (protonated)
Cc1cccc(/N=c2/nc3c(=Cc4[n-]c(=O)[n-]c4[O-])cnn3/c(=N\C3CC3)[n-]2)c1Cl (cis-trans isomerization)
Cc1cccc(/N=c2/nc3c(=Cc4[n-]c(=O)[n-]c4[O-])cnn3/c(=N\C3CC3)[n-]2)c1Cl (3D coordinates assigned)
Cc1cccc(/N=c2/nc3c(=Cc4[n-]c(=O)[n-]c4[O-])cnn3/c(=N\C3CC3)[n-]2)c1Cl (nonaromatic ring conformer: 398.7383625622773 kcal/mol)

>  <smiles>  (64) 
Cc1cccc(N=c2nc3c(=Cc4[nH]c(=O)[nH]c4O)cnn3c(=NC3CC3)[nH]2)c1Cl

>  <score_type>  (64) 
oracle

>  <origin>  (64) 
adg

>  <m_score__min__energy>  (64) 
-17.850000000000001

>  <m_primary>  (64) 
energy

$$$$
64:0
     RDKit          3D

 59 61  0  0  0  0  0  0  0  0999 V2000
   57.7920   28.3830   43.8320 C   0  0  0  0  0  0  0  0  0  0  0  0
   58.1080   29.4410   44.8030 N   0  0  0  0  0  0  0  0  0  0  0  0
   59.5610   29.6350   44.8800 C   0  0  0  0  0  0  0  0  0  0  0  0
   57.3490   30.9330   44.3060 S   0  0  0  0  0  0  0  0  0  0  0  0
   55.8600   30.8370   44.4980 O   0  0  0  0  0  0  0  0  0  0  0  0
   57.6390   31.1940   42.8540 O   0  0  0  0  0  0  0  0  0  0  0  0
   57.9930   32.2740   45.2510 C   0  0  0  0  0  0  0  0  0  0  0  0
   58.3530   33.4780   44.6320 C   0  0  0  0  0  0  0  0  0  0  0  0
   58.8560   34.5330   45.3950 C   0  0  0  0  0  0  0  0  0  0  0  0
   59.0180   34.3880   46.7740 C   0  0  0  0  0  0  0  0  0  0  0  0
   58.6780   33.1830   47.4070 C   0  0  0  0  0  0  0  0  0  0  0  0
   58.8810   33.0550   48.8270 N   0  0  0  0  0  0  0  0  0  0  0  0
   60.1920   32.9380   49.4690 C   0  0  0  0  0  0  0  0  0  0  0  0
   60.0730   32.9880   50.9690 C   0  0  0  0  0  0  0  0  0  0  0  0
   60.7490   33.8430   51.6030 O   0  0  0  0  0  0  0  0  0  0  0  0
   59.1910   32.1020   51.6830 N   0  0  0  0  0  0  0  0  0  0  0  0
   58.9700   30.7280   51.2190 C   0  0  0  0  0  0  0  0  0  0  0  0
   58.1280   29.9370   52.2300 C   0  0  0  0  0  0  0  0  0  0  0  0
   56.8960   30.6630   52.6170 N   0  0  0  0  0  0  0  0  0  0  0  0
   55.8200   30.4770   51.6200 C   0  0  0  0  0  0  0  0  0  0  0  0
   54.4660   30.6240   52.2630 C   0  0  0  0  0  0  0  0  0  0  0  0
   54.1820   29.9910   53.4820 C   0  0  0  0  0  0  0  0  0  0  0  0
   52.9230   30.1210   54.0660 C   0  0  0  0  0  0  0  0  0  0  0  0
   51.9320   30.8820   53.4400 C   0  0  0  0  0  0  0  0  0  0  0  0
   52.1940   31.5220   52.2150 C   0  0  0  0  0  0  0  0  0  0  0  0
   51.1720   32.3060   51.5730 N   0  0  0  0  0  0  0  0  0  0  0  0
   51.0320   32.2770   50.3320 O   0  0  0  0  0  0  0  0  0  0  0  0
   50.3290   33.1000   52.3140 O   0  0  0  0  0  0  0  0  0  0  0  0
   53.4670   31.3850   51.6340 C   0  0  0  0  0  0  0  0  0  0  0  0
   57.1040   32.1020   52.9550 C   0  0  0  0  0  0  0  0  0  0  0  0
   58.5740   32.5370   52.9390 C   0  0  0  0  0  0  0  0  0  0  0  0
   58.1530   32.1300   46.6360 C   0  0  0  0  0  0  0  0  0  0  0  0
   57.5172   27.4630   44.3687 H   0  0  0  0  0  0  0  0  0  0  0  0
   56.9506   28.7043   43.2005 H   0  0  0  0  0  0  0  0  0  0  0  0
   58.6718   28.1902   43.2005 H   0  0  0  0  0  0  0  0  0  0  0  0
   59.8700   29.6763   45.9349 H   0  0  0  0  0  0  0  0  0  0  0  0
   60.0698   28.7968   44.3814 H   0  0  0  0  0  0  0  0  0  0  0  0
   59.8320   30.5773   44.3814 H   0  0  0  0  0  0  0  0  0  0  0  0
   58.2392   33.5921   43.5439 H   0  0  0  0  0  0  0  0  0  0  0  0
   59.1256   35.4818   44.9081 H   0  0  0  0  0  0  0  0  0  0  0  0
   59.4149   35.2242   47.3683 H   0  0  0  0  0  0  0  0  0  0  0  0
   58.0480   33.1250   49.4550 H   0  0  0  0  0  0  0  0  0  0  0  0
   60.6496   31.9811   49.1776 H   0  0  0  0  0  0  0  0  0  0  0  0
   60.8155   33.7831   49.1418 H   0  0  0  0  0  0  0  0  0  0  0  0
   58.4430   30.7542   50.2538 H   0  0  0  0  0  0  0  0  0  0  0  0
   59.9461   30.2324   51.1106 H   0  0  0  0  0  0  0  0  0  0  0  0
   57.8457   28.9737   51.7801 H   0  0  0  0  0  0  0  0  0  0  0  0
   58.7345   29.7914   53.1361 H   0  0  0  0  0  0  0  0  0  0  0  0
   55.9273   31.2327   50.8279 H   0  0  0  0  0  0  0  0  0  0  0  0
   55.9019   29.4651   51.1964 H   0  0  0  0  0  0  0  0  0  0  0  0
   54.9566   29.3890   53.9796 H   0  0  0  0  0  0  0  0  0  0  0  0
   52.7087   29.6228   55.0230 H   0  0  0  0  0  0  0  0  0  0  0  0
   50.9414   30.9811   53.9079 H   0  0  0  0  0  0  0  0  0  0  0  0
   53.6831   31.8796   50.6755 H   0  0  0  0  0  0  0  0  0  0  0  0
   56.5540   32.7126   52.2238 H   0  0  0  0  0  0  0  0  0  0  0  0
   56.7397   32.2447   53.9831 H   0  0  0  0  0  0  0  0  0  0  0  0
   58.6345   33.6324   53.0187 H   0  0  0  0  0  0  0  0  0  0  0  0
   59.1038   32.0813   53.7885 H   0  0  0  0  0  0  0  0  0  0  0  0
   57.8659   31.1867   47.1236 H   0  0  0  0  0  0  0  0  0  0  0  0
  1  2  1  0
  2  3  1  0
  2  4  1  0
  4  5  2  0
  4  6  2  0
  4  7  1  0
  7  8  2  0
  8  9  1  0
  9 10  2  0
 10 11  1  0
 11 12  1  0
 12 13  1  0
 13 14  1  0
 14 15  2  0
 14 16  1  0
 16 17  1  0
 17 18  1  0
 18 19  1  0
 19 20  1  0
 20 21  1  0
 21 22  2  0
 22 23  1  0
 23 24  2  0
 24 25  1  0
 25 26  1  0
 26 27  2  0
 26 28  1  0
 25 29  2  0
 19 30  1  0
 30 31  1  0
 11 32  2  0
 32  7  1  0
 31 16  1  0
 29 21  1  0
  1 33  1  0
  1 34  1  0
  1 35  1  0
  3 36  1  0
  3 37  1  0
  3 38  1  0
  8 39  1  0
  9 40  1  0
 10 41  1  0
 12 42  1  0
 13 43  1  0
 13 44  1  0
 17 45  1  0
 17 46  1  0
 18 47  1  0
 18 48  1  0
 20 49  1  0
 20 50  1  0
 22 51  1  0
 23 52  1  0
 24 53  1  0
 29 54  1  0
 30 55  1  0
 30 56  1  0
 31 57  1  0
 31 58  1  0
 32 59  1  0
M  CHG  2  26   1  28  -1
M  END
>  <UniqueID>  (65) 
58

>  <SMILES>  (65) 
CN(C)S(=O)(=O)c1cccc(NCC(=O)N2CCN(Cc3cccc([N+](=O)[O-])c3)CC2)c1

>  <Energy>  (65) 
63.43186488399918

>  <Genealogy>  (65) 
CN(C)S(=O)(=O)c1cccc(NCC(=O)N2CCN(Cc3cccc([N+](=O)[O-])c3)CC2)c1 (3D coordinates assigned)
CN(C)S(=O)(=O)c1cccc(NCC(=O)N2CCN(Cc3cccc([N+](=O)[O-])c3)CC2)c1 (nonaromatic ring conformer: 63.43186488399918 kcal/mol)

>  <smiles>  (65) 
CN(C)S(=O)(=O)c1cccc(NCC(=O)N2CCN(Cc3cccc([N+](=O)[O-])c3)CC2)c1

>  <score_type>  (65) 
oracle

>  <origin>  (65) 
adg

>  <m_score__min__energy>  (65) 
-9.9199999999999999

>  <m_primary>  (65) 
energy

$$$$
65:0
     RDKit          3D

 67 72  0  0  0  0  0  0  0  0999 V2000
   59.3230   24.3420   45.6470 O   0  0  0  0  0  0  0  0  0  0  0  0
   58.2960   24.9350   45.2400 C   0  0  0  0  0  0  0  0  0  0  0  0
   57.0620   24.3010   44.9560 N   0  0  0  0  0  0  0  0  0  0  0  0
   56.9870   23.1840   44.3310 C   0  0  0  0  0  0  0  0  0  0  0  0
   56.0260   22.6710   43.5480 N   0  0  0  0  0  0  0  0  0  0  0  0
   56.3880   21.4730   43.1180 N   0  0  0  0  0  0  0  0  0  0  0  0
   57.5930   21.2260   43.6360 N   0  0  0  0  0  0  0  0  0  0  0  0
   57.9840   22.2510   44.3810 N   0  0  0  0  0  0  0  0  0  0  0  0
   58.3650   26.3860   45.0410 C   0  0  0  0  0  0  0  0  0  0  0  0
   57.7790   26.8810   43.8820 C   0  0  0  0  0  0  0  0  0  0  0  0
   57.8160   28.2550   43.6780 C   0  0  0  0  0  0  0  0  0  0  0  0
   58.4180   29.0890   44.6000 C   0  0  0  0  0  0  0  0  0  0  0  0
   58.3670   30.4070   44.3210 N   0  0  0  0  0  0  0  0  0  0  0  0
   58.9120   31.2800   45.2030 C   0  0  0  0  0  0  0  0  0  0  0  0
   58.8760   32.5320   44.9590 O   0  0  0  0  0  0  0  0  0  0  0  0
   59.5120   30.8140   46.3690 C   0  0  0  0  0  0  0  0  0  0  0  0
   59.9300   31.8390   47.3190 C   0  0  0  0  0  0  0  0  0  0  0  0
   59.1280   32.6810   48.0160 C   0  0  0  0  0  0  0  0  0  0  0  0
   59.6960   33.6180   48.8910 C   0  0  0  0  0  0  0  0  0  0  0  0
   61.0810   33.6980   49.0570 C   0  0  0  0  0  0  0  0  0  0  0  0
   61.6640   34.5920   49.8890 F   0  0  0  0  0  0  0  0  0  0  0  0
   61.8890   32.8520   48.3570 C   0  0  0  0  0  0  0  0  0  0  0  0
   63.3470   32.8020   48.4580 C   0  0  0  0  0  0  0  0  0  0  0  0
   63.9760   32.9010   47.3590 O   0  0  0  0  0  0  0  0  0  0  0  0
   64.0460   32.6600   49.6700 N   0  0  0  0  0  0  0  0  0  0  0  0
   63.4160   32.4880   50.9730 C   0  0  0  0  0  0  0  0  0  0  0  0
   63.9810   31.2890   51.7020 C   0  0  0  0  0  0  0  0  0  0  0  0
   65.2090   30.8410   51.1010 N   0  0  0  0  0  0  0  0  0  0  0  0
   66.0630   31.9820   50.8770 C   0  0  0  0  0  0  0  0  0  0  0  0
   65.5120   32.7160   49.6890 C   0  0  0  0  0  0  0  0  0  0  0  0
   61.3300   31.9200   47.4860 C   0  0  0  0  0  0  0  0  0  0  0  0
   59.5840   29.4750   46.6830 C   0  0  0  0  0  0  0  0  0  0  0  0
   60.1820   28.9620   47.8140 O   0  0  0  0  0  0  0  0  0  0  0  0
   59.3910   28.7420   48.9650 C   0  0  0  0  0  0  0  0  0  0  0  0
   59.4470   29.7830   50.0030 C   0  0  0  0  0  0  0  0  0  0  0  0
   58.2180   30.3590   50.3630 C   0  0  0  0  0  0  0  0  0  0  0  0
   58.1210   31.3630   51.2900 C   0  0  0  0  0  0  0  0  0  0  0  0
   59.2890   31.8080   51.8780 C   0  0  0  0  0  0  0  0  0  0  0  0
   60.5010   31.2550   51.5360 C   0  0  0  0  0  0  0  0  0  0  0  0
   60.5990   30.2410   50.6010 C   0  0  0  0  0  0  0  0  0  0  0  0
   59.0080   28.6050   45.7550 C   0  0  0  0  0  0  0  0  0  0  0  0
   58.9630   27.2380   45.9480 C   0  0  0  0  0  0  0  0  0  0  0  0
   58.1310   20.3270   43.4510 H   0  0  0  0  0  0  0  0  0  0  0  0
   58.8830   22.2790   44.8790 H   0  0  0  0  0  0  0  0  0  0  0  0
   57.3030   26.2093   43.1525 H   0  0  0  0  0  0  0  0  0  0  0  0
   57.3610   28.6831   42.7726 H   0  0  0  0  0  0  0  0  0  0  0  0
   57.9360   30.8010   43.4640 H   0  0  0  0  0  0  0  0  0  0  0  0
   58.0358   32.6293   47.8956 H   0  0  0  0  0  0  0  0  0  0  0  0
   59.0420   34.2996   49.4546 H   0  0  0  0  0  0  0  0  0  0  0  0
   63.5908   33.3902   51.5776 H   0  0  0  0  0  0  0  0  0  0  0  0
   62.3390   32.3255   50.8195 H   0  0  0  0  0  0  0  0  0  0  0  0
   64.1747   31.5651   52.7490 H   0  0  0  0  0  0  0  0  0  0  0  0
   63.2480   30.4709   51.6437 H   0  0  0  0  0  0  0  0  0  0  0  0
   65.6750   30.1060   51.6460 H   0  0  0  0  0  0  0  0  0  0  0  0
   66.0584   32.6366   51.7610 H   0  0  0  0  0  0  0  0  0  0  0  0
   67.1011   31.6660   50.6964 H   0  0  0  0  0  0  0  0  0  0  0  0
   65.8312   33.7676   49.7361 H   0  0  0  0  0  0  0  0  0  0  0  0
   65.8929   32.2383   48.7743 H   0  0  0  0  0  0  0  0  0  0  0  0
   61.9857   31.2400   46.9224 H   0  0  0  0  0  0  0  0  0  0  0  0
   58.3443   28.6491   48.6396 H   0  0  0  0  0  0  0  0  0  0  0  0
   59.8025   27.8366   49.4351 H   0  0  0  0  0  0  0  0  0  0  0  0
   57.2994   29.9905   49.8830 H   0  0  0  0  0  0  0  0  0  0  0  0
   57.1472   31.7995   51.5567 H   0  0  0  0  0  0  0  0  0  0  0  0
   59.2494   32.6125   52.6271 H   0  0  0  0  0  0  0  0  0  0  0  0
   61.4159   31.6290   52.0187 H   0  0  0  0  0  0  0  0  0  0  0  0
   61.5768   29.8096   50.3407 H   0  0  0  0  0  0  0  0  0  0  0  0
   59.4189   26.8139   46.8548 H   0  0  0  0  0  0  0  0  0  0  0  0
  1  2  2  0
  2  3  1  0
  3  4  2  3
  4  5  1  0
  5  6  2  0
  6  7  1  0
  7  8  1  0
  2  9  1  0
  9 10  2  0
 10 11  1  0
 11 12  2  0
 12 13  1  0
 13 14  1  0
 14 15  2  0
 14 16  1  0
 16 17  1  0
 17 18  2  0
 18 19  1  0
 19 20  2  0
 20 21  1  0
 20 22  1  0
 22 23  1  0
 23 24  2  0
 23 25  1  0
 25 26  1  0
 26 27  1  0
 27 28  1  0
 28 29  1  0
 29 30  1  0
 22 31  2  0
 16 32  2  0
 32 33  1  0
 33 34  1  0
 34 35  1  0
 35 36  2  0
 36 37  1  0
 37 38  2  0
 38 39  1  0
 39 40  2  0
 32 41  1  0
 41 42  2  0
  8  4  1  0
 42  9  1  0
 41 12  1  0
 31 17  1  0
 40 35  1  0
 30 25  1  0
  7 43  1  0
  8 44  1  0
 10 45  1  0
 11 46  1  0
 13 47  1  0
 18 48  1  0
 19 49  1  0
 26 50  1  0
 26 51  1  0
 27 52  1  0
 27 53  1  0
 28 54  1  0
 29 55  1  0
 29 56  1  0
 30 57  1  0
 30 58  1  0
 31 59  1  0
 34 60  1  0
 34 61  1  0
 36 62  1  0
 37 63  1  0
 38 64  1  0
 39 65  1  0
 40 66  1  0
 42 67  1  0
M  END
>  <smiles>  (66) 
O=C(N=c1nn[nH][nH]1)c1ccc2[nH]c(=O)c(-c3ccc(F)c(C(=O)N4CCNCC4)c3)c(OCc3ccccc3)c2c1

>  <score_type>  (66) 
oracle

>  <origin>  (66) 
adg

>  <m_score__min__energy>  (66) 
-10.619999999999999

>  <m_primary>  (66) 
energy

$$$$
66:0
     RDKit          3D

 28 29  0  0  0  0  0  0  0  0999 V2000
   60.7100   25.3990   45.9940 O   0  0  0  0  0  0  0  0  0  0  0  0
   59.9960   26.1420   46.6990 N   0  0  0  0  0  0  0  0  0  0  0  0
   60.5980   26.9240   47.6570 O   0  0  0  0  0  0  0  0  0  0  0  0
   58.5710   26.1940   46.5000 C   0  0  0  0  0  0  0  0  0  0  0  0
   57.7610   25.0940   46.8320 C   0  0  0  0  0  0  0  0  0  0  0  0
   56.3800   25.1480   46.6340 C   0  0  0  0  0  0  0  0  0  0  0  0
   55.7890   26.2970   46.1050 C   0  0  0  0  0  0  0  0  0  0  0  0
   54.4110   26.3320   45.9150 O   0  0  0  0  0  0  0  0  0  0  0  0
   56.5760   27.4070   45.7700 C   0  0  0  0  0  0  0  0  0  0  0  0
   55.9330   28.5740   45.2350 N   0  0  0  0  0  0  0  0  0  0  0  0
   56.5370   29.5410   43.9290 S   0  0  0  0  0  0  0  0  0  0  0  0
   55.3790   30.0370   43.1100 O   0  0  0  0  0  0  0  0  0  0  0  0
   57.4240   28.6940   43.0610 O   0  0  0  0  0  0  0  0  0  0  0  0
   57.4220   30.9260   44.5620 C   0  0  0  0  0  0  0  0  0  0  0  0
   58.1180   30.8290   45.7770 C   0  0  0  0  0  0  0  0  0  0  0  0
   58.8070   31.9370   46.2800 C   0  0  0  0  0  0  0  0  0  0  0  0
   58.8080   33.1430   45.5710 C   0  0  0  0  0  0  0  0  0  0  0  0
   58.1190   33.2420   44.3600 C   0  0  0  0  0  0  0  0  0  0  0  0
   57.4280   32.1360   43.8550 C   0  0  0  0  0  0  0  0  0  0  0  0
   57.9690   27.3480   45.9660 C   0  0  0  0  0  0  0  0  0  0  0  0
   58.2181   24.1851   47.2504 H   0  0  0  0  0  0  0  0  0  0  0  0
   55.7549   24.2816   46.8959 H   0  0  0  0  0  0  0  0  0  0  0  0
   58.1215   29.8805   46.3341 H   0  0  0  0  0  0  0  0  0  0  0  0
   59.3488   31.8602   47.2342 H   0  0  0  0  0  0  0  0  0  0  0  0
   59.3515   34.0134   45.9673 H   0  0  0  0  0  0  0  0  0  0  0  0
   58.1199   34.1906   43.8031 H   0  0  0  0  0  0  0  0  0  0  0  0
   56.8877   32.2160   42.9002 H   0  0  0  0  0  0  0  0  0  0  0  0
   58.5933   28.2134   45.6988 H   0  0  0  0  0  0  0  0  0  0  0  0
  1  2  2  0
  2  3  1  0
  2  4  1  0
  4  5  2  0
  5  6  1  0
  6  7  2  0
  7  8  1  0
  7  9  1  0
  9 10  1  0
 10 11  1  0
 11 12  2  0
 11 13  2  0
 11 14  1  0
 14 15  2  0
 15 16  1  0
 16 17  2  0
 17 18  1  0
 18 19  2  0
  9 20  2  0
 20  4  1  0
 19 14  1  0
  5 21  1  0
  6 22  1  0
 15 23  1  0
 16 24  1  0
 17 25  1  0
 18 26  1  0
 19 27  1  0
 20 28  1  0
M  CHG  4   2   1   3  -1   8  -1  10  -1
M  END
>  <UniqueID>  (67) 
59

>  <SMILES>  (67) 
O=[N+]([O-])c1ccc([O-])c([N-]S(=O)(=O)c2ccccc2)c1

>  <Energy>  (67) 
33.350082079948415

>  <Genealogy>  (67) 
O=[N+]([O-])c1ccc([O-])c([N-]S(=O)(=O)c2ccccc2)c1 (protonated)
O=[N+]([O-])c1ccc([O-])c([N-]S(=O)(=O)c2ccccc2)c1 (3D coordinates assigned)
O=[N+]([O-])c1ccc([O-])c([N-]S(=O)(=O)c2ccccc2)c1 (optimized conformer: 33.350082079948415 kcal/mol)

>  <smiles>  (67) 
O=[N+]([O-])c1ccc(O)c(NS(=O)(=O)c2ccccc2)c1

>  <score_type>  (67) 
oracle

>  <origin>  (67) 
adg

>  <m_score__min__energy>  (67) 
-12.890000000000001

>  <m_primary>  (67) 
energy

$$$$
67:0
     RDKit          3D

 30 31  0  0  0  0  0  0  0  0999 V2000
   57.3100   23.2150   46.9420 C   0  0  0  0  0  0  0  0  0  0  0  0
   56.8670   24.5380   46.4710 N   0  0  0  0  0  0  0  0  0  0  0  0
   55.5360   24.7790   46.2430 C   0  0  0  0  0  0  0  0  0  0  0  0
   54.6750   23.8740   46.4170 O   0  0  0  0  0  0  0  0  0  0  0  0
   55.1230   26.0030   45.8270 N   0  0  0  0  0  0  0  0  0  0  0  0
   55.9940   27.0240   45.6530 C   0  0  0  0  0  0  0  0  0  0  0  0
   55.5210   28.2590   45.2220 O   0  0  0  0  0  0  0  0  0  0  0  0
   57.3510   26.8370   45.9260 C   0  0  0  0  0  0  0  0  0  0  0  0
   58.2990   27.9630   45.7530 C   0  0  0  0  0  0  0  0  0  0  0  0
   58.0530   29.1870   46.1280 N   0  0  0  0  0  0  0  0  0  0  0  0
   58.0480   30.3670   45.3040 C   0  0  0  0  0  0  0  0  0  0  0  0
   58.4500   31.6130   45.8200 C   0  0  0  0  0  0  0  0  0  0  0  0
   58.4300   32.7660   45.0150 C   0  0  0  0  0  0  0  0  0  0  0  0
   58.8680   34.0340   45.5380 N   0  0  0  0  0  0  0  0  0  0  0  0
   59.8830   34.5970   45.0770 O   0  0  0  0  0  0  0  0  0  0  0  0
   58.1670   34.6520   46.5480 O   0  0  0  0  0  0  0  0  0  0  0  0
   57.9700   32.6640   43.6930 C   0  0  0  0  0  0  0  0  0  0  0  0
   57.5310   31.4380   43.1890 C   0  0  0  0  0  0  0  0  0  0  0  0
   57.5600   30.2910   43.9860 C   0  0  0  0  0  0  0  0  0  0  0  0
   57.1110   29.0850   43.4460 O   0  0  0  0  0  0  0  0  0  0  0  0
   57.7770   25.5550   46.3220 C   0  0  0  0  0  0  0  0  0  0  0  0
   59.0060   25.3420   46.5250 O   0  0  0  0  0  0  0  0  0  0  0  0
   57.3150   23.2001   48.0419 H   0  0  0  0  0  0  0  0  0  0  0  0
   56.6213   22.4431   46.5680 H   0  0  0  0  0  0  0  0  0  0  0  0
   58.3246   23.0135   46.5680 H   0  0  0  0  0  0  0  0  0  0  0  0
   59.2693   27.7531   45.2793 H   0  0  0  0  0  0  0  0  0  0  0  0
   58.7839   31.6860   46.8656 H   0  0  0  0  0  0  0  0  0  0  0  0
   57.9552   33.5560   43.0495 H   0  0  0  0  0  0  0  0  0  0  0  0
   57.1592   31.3748   42.1557 H   0  0  0  0  0  0  0  0  0  0  0  0
   56.5360   28.4370   43.9700 H   0  0  0  0  0  0  0  0  0  0  0  0
  1  2  1  0
  2  3  1  0
  3  4  2  0
  3  5  1  0
  5  6  1  0
  6  7  1  0
  6  8  2  0
  8  9  1  0
  9 10  2  3
 10 11  1  0
 11 12  2  0
 12 13  1  0
 13 14  1  0
 14 15  2  0
 14 16  1  0
 13 17  2  0
 17 18  1  0
 18 19  2  0
 19 20  1  0
  8 21  1  0
 21 22  2  0
 21  2  1  0
 19 11  1  0
  1 23  1  0
  1 24  1  0
  1 25  1  0
  9 26  1  0
 12 27  1  0
 17 28  1  0
 18 29  1  0
 20 30  1  0
M  CHG  4   5  -1   7  -1  14   1  16  -1
M  END
>  <UniqueID>  (68) 
60

>  <SMILES>  (68) 
Cn1c(=O)[n-]c([O-])c(C=Nc2cc([N+](=O)[O-])ccc2O)c1=O

>  <Energy>  (68) 
49.61324105025885

>  <Genealogy>  (68) 
Cn1c(=O)[n-]c([O-])c(C=Nc2cc([N+](=O)[O-])ccc2O)c1=O (protonated)
Cn1c(=O)[n-]c([O-])c(C=Nc2cc([N+](=O)[O-])ccc2O)c1=O (3D coordinates assigned)
Cn1c(=O)[n-]c([O-])c(C=Nc2cc([N+](=O)[O-])ccc2O)c1=O (optimized conformer: 49.61324105025885 kcal/mol)

>  <smiles>  (68) 
Cn1c(=O)[nH]c(O)c(C=Nc2cc([N+](=O)[O-])ccc2O)c1=O

>  <score_type>  (68) 
oracle

>  <origin>  (68) 
adg

>  <m_score__min__energy>  (68) 
-12.15

>  <m_primary>  (68) 
energy

$$$$
68:0
     RDKit          3D

 46 48  0  0  0  0  0  0  0  0999 V2000
   58.0580   29.8560   44.3990 C   0  0  0  0  0  0  0  0  0  0  0  0
   58.2790   29.4040   45.6440 C   0  0  0  0  0  0  0  0  0  0  0  0
   58.0280   28.1100   46.1120 C   0  0  0  0  0  0  0  0  0  0  0  0
   57.4610   27.0900   45.4370 C   0  0  0  0  0  0  0  0  0  0  0  0
   57.0790   25.8060   46.0670 C   0  0  0  0  0  0  0  0  0  0  0  0
   55.7260   25.4610   46.1920 C   0  0  0  0  0  0  0  0  0  0  0  0
   54.7320   26.3350   45.7580 O   0  0  0  0  0  0  0  0  0  0  0  0
   55.3790   24.2710   46.7490 N   0  0  0  0  0  0  0  0  0  0  0  0
   56.3230   23.3950   47.1780 C   0  0  0  0  0  0  0  0  0  0  0  0
   55.9760   22.3010   47.6950 O   0  0  0  0  0  0  0  0  0  0  0  0
   57.6400   23.6940   47.0440 N   0  0  0  0  0  0  0  0  0  0  0  0
   58.0390   24.8700   46.4920 C   0  0  0  0  0  0  0  0  0  0  0  0
   59.2710   25.0970   46.3510 O   0  0  0  0  0  0  0  0  0  0  0  0
   58.4510   28.0830   47.4330 C   0  0  0  0  0  0  0  0  0  0  0  0
   58.9310   29.3440   47.7210 C   0  0  0  0  0  0  0  0  0  0  0  0
   59.5090   29.7500   49.0420 C   0  0  0  0  0  0  0  0  0  0  0  0
   58.8360   30.1450   46.6340 N   0  0  0  0  0  0  0  0  0  0  0  0
   59.2340   31.5260   46.5700 C   0  0  0  0  0  0  0  0  0  0  0  0
   58.3040   32.5120   46.2100 C   0  0  0  0  0  0  0  0  0  0  0  0
   58.6930   33.8520   46.1370 C   0  0  0  0  0  0  0  0  0  0  0  0
   60.0090   34.2180   46.4340 C   0  0  0  0  0  0  0  0  0  0  0  0
   60.9440   33.2460   46.8220 C   0  0  0  0  0  0  0  0  0  0  0  0
   62.3380   33.6380   47.1190 C   0  0  0  0  0  0  0  0  0  0  0  0
   63.0730   34.0220   46.1690 O   0  0  0  0  0  0  0  0  0  0  0  0
   62.8680   33.6020   48.4590 N   0  0  0  0  0  0  0  0  0  0  0  0
   64.3150   33.4770   48.6490 C   0  0  0  0  0  0  0  0  0  0  0  0
   61.9940   33.8450   49.6110 C   0  0  0  0  0  0  0  0  0  0  0  0
   60.5520   31.8970   46.8740 C   0  0  0  0  0  0  0  0  0  0  0  0
   58.2948   30.8991   44.1425 H   0  0  0  0  0  0  0  0  0  0  0  0
   57.6402   29.1831   43.6357 H   0  0  0  0  0  0  0  0  0  0  0  0
   57.2722   27.2187   44.3610 H   0  0  0  0  0  0  0  0  0  0  0  0
   54.3930   27.0760   46.3590 H   0  0  0  0  0  0  0  0  0  0  0  0
   58.4114   27.2231   48.1178 H   0  0  0  0  0  0  0  0  0  0  0  0
   58.9021   29.3237   49.8544 H   0  0  0  0  0  0  0  0  0  0  0  0
   60.5409   29.3773   49.1208 H   0  0  0  0  0  0  0  0  0  0  0  0
   59.5084   30.8472   49.1208 H   0  0  0  0  0  0  0  0  0  0  0  0
   57.2651   32.2296   45.9844 H   0  0  0  0  0  0  0  0  0  0  0  0
   57.9621   34.6206   45.8452 H   0  0  0  0  0  0  0  0  0  0  0  0
   60.3131   35.2728   46.3633 H   0  0  0  0  0  0  0  0  0  0  0  0
   64.5432   33.4573   49.7249 H   0  0  0  0  0  0  0  0  0  0  0  0
   64.6669   32.5451   48.1824 H   0  0  0  0  0  0  0  0  0  0  0  0
   64.8215   34.3347   48.1824 H   0  0  0  0  0  0  0  0  0  0  0  0
   62.5605   33.6875   50.5407 H   0  0  0  0  0  0  0  0  0  0  0  0
   61.6235   34.8802   49.5783 H   0  0  0  0  0  0  0  0  0  0  0  0
   61.1423   33.1496   49.5783 H   0  0  0  0  0  0  0  0  0  0  0  0
   61.2847   31.1263   47.1553 H   0  0  0  0  0  0  0  0  0  0  0  0
  1  2  2  0
  2  3  1  0
  3  4  2  3
  4  5  1  0
  5  6  2  0
  6  7  1  0
  6  8  1  0
  8  9  1  0
  9 10  2  0
  9 11  1  0
 11 12  1  0
 12 13  2  0
  3 14  1  0
 14 15  2  0
 15 16  1  0
 15 17  1  0
 17 18  1  0
 18 19  2  0
 19 20  1  0
 20 21  2  0
 21 22  1  0
 22 23  1  0
 23 24  2  0
 23 25  1  0
 25 26  1  0
 25 27  1  0
 22 28  2  0
 17  2  1  0
 28 18  1  0
 12  5  1  0
  1 29  1  0
  1 30  1  0
  4 31  1  0
  7 32  1  0
 14 33  1  0
 16 34  1  0
 16 35  1  0
 16 36  1  0
 19 37  1  0
 20 38  1  0
 21 39  1  0
 26 40  1  0
 26 41  1  0
 26 42  1  0
 27 43  1  0
 27 44  1  0
 27 45  1  0
 28 46  1  0
M  CHG  2   8  -1  11  -1
M  END
>  <UniqueID>  (69) 
61

>  <SMILES>  (69) 
C=c1c(=Cc2c(O)[n-]c(=O)[n-]c2=O)cc(C)n1-c1cccc(C(=O)N(C)C)c1

>  <Energy>  (69) 
94.92632949454071

>  <Genealogy>  (69) 
C=c1c(=Cc2c(O)[n-]c(=O)[n-]c2=O)cc(C)n1-c1cccc(C(=O)N(C)C)c1 (protonated)
C=c1c(=Cc2c(O)[n-]c(=O)[n-]c2=O)cc(C)n1-c1cccc(C(=O)N(C)C)c1 (3D coordinates assigned)
C=c1c(=Cc2c(O)[n-]c(=O)[n-]c2=O)cc(C)n1-c1cccc(C(=O)N(C)C)c1 (optimized conformer: 94.92632949454071 kcal/mol)

>  <smiles>  (69) 
C=c1c(=Cc2c(O)[nH]c(=O)[nH]c2=O)cc(C)n1-c1cccc(C(=O)N(C)C)c1

>  <score_type>  (69) 
oracle

>  <origin>  (69) 
adg

>  <m_score__min__energy>  (69) 
-13.5

>  <m_primary>  (69) 
energy

$$$$
69:0
     RDKit          3D

 49 52  0  0  0  0  0  0  0  0999 V2000
   56.9600   19.3380   44.8580 H   0  0  0  0  0  0  0  0  0  0  0  0
   56.7490   19.9410   45.6850 N   0  0  0  0  0  0  0  0  0  0  0  0
   56.8110   21.2360   45.6520 C   0  0  0  0  0  0  0  0  0  0  0  0
   57.3020   21.9010   46.7310 N   0  0  0  0  0  0  0  0  0  0  0  0
   57.3930   23.2570   46.7630 C   0  0  0  0  0  0  0  0  0  0  0  0
   57.8076   23.7563   47.6511 H   0  0  0  0  0  0  0  0  0  0  0  0
   56.9620   24.0220   45.6720 C   0  0  0  0  0  0  0  0  0  0  0  0
   57.0870   25.4540   45.7140 N   0  0  0  0  0  0  0  0  0  0  0  0
   58.0450   25.8650   45.7900 H   0  0  0  0  0  0  0  0  0  0  0  0
   55.9760   26.3590   45.7840 C   0  0  0  0  0  0  0  0  0  0  0  0
   54.8110   25.9260   45.9960 O   0  0  0  0  0  0  0  0  0  0  0  0
   56.2080   27.7610   45.5970 N   0  0  0  0  0  0  0  0  0  0  0  0
   57.3560   28.5020   46.0340 C   0  0  0  0  0  0  0  0  0  0  0  0
   57.6360   29.7300   45.4220 C   0  0  0  0  0  0  0  0  0  0  0  0
   56.9756   30.1063   44.6268 H   0  0  0  0  0  0  0  0  0  0  0  0
   58.7470   30.4810   45.8130 C   0  0  0  0  0  0  0  0  0  0  0  0
   58.9458   31.4517   45.3353 H   0  0  0  0  0  0  0  0  0  0  0  0
   59.6120   30.0050   46.8120 C   0  0  0  0  0  0  0  0  0  0  0  0
   60.7830   30.8020   47.2350 C   0  0  0  0  0  0  0  0  0  0  0  0
   61.8630   30.2820   47.8550 N   0  0  0  0  0  0  0  0  0  0  0  0
   62.6640   31.2880   48.0330 O   0  0  0  0  0  0  0  0  0  0  0  0
   62.1180   32.3760   47.5490 C   0  0  0  0  0  0  0  0  0  0  0  0
   62.7700   33.7250   47.5900 C   0  0  0  0  0  0  0  0  0  0  0  0
   63.8426   33.5985   47.7986 H   0  0  0  0  0  0  0  0  0  0  0  0
   62.6183   34.2141   46.6165 H   0  0  0  0  0  0  0  0  0  0  0  0
   62.1800   34.5670   48.6260 N   0  0  0  0  0  0  0  0  0  0  0  0
   60.9790   34.2310   49.3280 C   0  0  0  0  0  0  0  0  0  0  0  0
   61.0590   33.5780   50.4020 O   0  0  0  0  0  0  0  0  0  0  0  0
   59.7070   34.6630   48.8300 N   0  0  0  0  0  0  0  0  0  0  0  0
   59.2100   34.4740   47.4980 C   0  0  0  0  0  0  0  0  0  0  0  0
   58.0850   33.6610   47.3070 C   0  0  0  0  0  0  0  0  0  0  0  0
   57.6165   33.1644   48.1695 H   0  0  0  0  0  0  0  0  0  0  0  0
   57.5540   33.4770   46.0260 C   0  0  0  0  0  0  0  0  0  0  0  0
   56.6786   32.8266   45.8820 H   0  0  0  0  0  0  0  0  0  0  0  0
   58.1350   34.1190   44.9290 C   0  0  0  0  0  0  0  0  0  0  0  0
   57.7208   33.9686   43.9211 H   0  0  0  0  0  0  0  0  0  0  0  0
   59.2420   34.9520   45.1120 C   0  0  0  0  0  0  0  0  0  0  0  0
   59.6936   35.4633   44.2491 H   0  0  0  0  0  0  0  0  0  0  0  0
   59.7760   35.1360   46.3910 C   0  0  0  0  0  0  0  0  0  0  0  0
   60.6413   35.8001   46.5333 H   0  0  0  0  0  0  0  0  0  0  0  0
   60.9010   32.1300   47.0280 N   0  0  0  0  0  0  0  0  0  0  0  0
   59.3480   28.7580   47.4040 C   0  0  0  0  0  0  0  0  0  0  0  0
   60.0233   28.3677   48.1796 H   0  0  0  0  0  0  0  0  0  0  0  0
   58.2330   28.0100   47.0140 C   0  0  0  0  0  0  0  0  0  0  0  0
   58.0418   27.0309   47.4774 H   0  0  0  0  0  0  0  0  0  0  0  0
   56.4740   23.3550   44.5370 C   0  0  0  0  0  0  0  0  0  0  0  0
   56.1577   23.9320   43.6555 H   0  0  0  0  0  0  0  0  0  0  0  0
   56.3890   21.9610   44.5240 C   0  0  0  0  0  0  0  0  0  0  0  0
   55.8980   21.3140   43.3940 O   0  0  0  0  0  0  0  0  0  0  0  0
  1  2  1  0
  2  3  2  0
  3  4  1  0
  4  5  1  0
  5  6  1  0
  5  7  2  0
  7  8  1  0
  8  9  1  0
  8 10  1  0
 10 11  2  0
 10 12  1  0
 12 13  1  0
 13 14  2  0
 14 15  1  0
 14 16  1  0
 16 17  1  0
 16 18  2  0
 18 19  1  0
 19 20  2  0
 20 21  1  0
 21 22  1  0
 22 23  1  0
 23 24  1  0
 23 25  1  0
 23 26  1  0
 26 27  1  0
 27 28  2  0
 27 29  1  0
 29 30  1  0
 30 31  2  0
 31 32  1  0
 31 33  1  0
 33 34  1  0
 33 35  2  0
 35 36  1  0
 35 37  1  0
 37 38  1  0
 37 39  2  0
 39 40  1  0
 22 41  2  0
 18 42  1  0
 42 43  1  0
 42 44  2  0
 44 45  1  0
  7 46  1  0
 46 47  1  0
 46 48  2  0
 48 49  1  0
 48  3  1  0
 44 13  1  0
 41 19  1  0
 39 30  1  0
M  CHG  5   4  -1  12  -1  26  -1  29  -1  49  -1
M  END
>  <UniqueID>  (70) 
62

>  <SMILES>  (70) 
[H]/N=c1/[n-]cc(NC(=O)[N-]c2ccc(-c3noc(C[N-]C(=O)[N-]c4ccccc4)n3)cc2)cc1[O-]

>  <Energy>  (70) 
95.98989602840548

>  <Genealogy>  (70) 
N=c1[n-]cc(NC(=O)[N-]c2ccc(-c3noc(C[N-]C(=O)[N-]c4ccccc4)n3)cc2)cc1[O-] (protonated)
[H]/N=c1/[n-]cc(NC(=O)[N-]c2ccc(-c3noc(C[N-]C(=O)[N-]c4ccccc4)n3)cc2)cc1[O-] (cis-trans isomerization)
[H]/N=c1/[n-]cc(NC(=O)[N-]c2ccc(-c3noc(C[N-]C(=O)[N-]c4ccccc4)n3)cc2)cc1[O-] (3D coordinates assigned)
[H]/N=c1/[n-]cc(NC(=O)[N-]c2ccc(-c3noc(C[N-]C(=O)[N-]c4ccccc4)n3)cc2)cc1[O-] (optimized conformer: 95.98989602840548 kcal/mol)

>  <smiles>  (70) 
N=c1[nH]cc(NC(=O)Nc2ccc(-c3noc(CNC(=O)Nc4ccccc4)n3)cc2)cc1O

>  <score_type>  (70) 
oracle

>  <origin>  (70) 
adg

>  <m_score__min__energy>  (70) 
-15.300000000000001

>  <m_primary>  (70) 
energy

$$$$
70:0
     RDKit          3D

 56 58  0  0  0  0  0  0  0  0999 V2000
   58.6710   29.0740   48.5890 C   0  0  0  0  0  0  0  0  0  0  0  0
   60.1590   28.7340   48.3840 C   0  0  0  0  0  0  0  0  0  0  0  0
   60.5430   29.1040   46.9370 C   0  0  0  0  0  0  0  0  0  0  0  0
   60.3470   27.2280   48.6510 C   0  0  0  0  0  0  0  0  0  0  0  0
   60.9120   29.5340   49.3610 N   0  0  0  0  0  0  0  0  0  0  0  0
   61.4700   30.8600   49.3090 C   0  0  0  0  0  0  0  0  0  0  0  0
   62.5030   31.0850   49.9940 O   0  0  0  0  0  0  0  0  0  0  0  0
   60.8570   32.0060   48.5380 C   0  0  0  0  0  0  0  0  0  0  0  0
   60.6480   33.2380   49.4500 C   0  0  0  0  0  0  0  0  0  0  0  0
   60.8350   34.5760   48.7030 C   0  0  0  0  0  0  0  0  0  0  0  0
   60.3510   34.5220   47.3080 N   0  0  0  0  0  0  0  0  0  0  0  0
   58.8740   34.4620   47.2400 C   0  0  0  0  0  0  0  0  0  0  0  0
   58.4280   33.5740   46.1070 C   0  0  0  0  0  0  0  0  0  0  0  0
   58.5810   33.9980   44.7780 C   0  0  0  0  0  0  0  0  0  0  0  0
   58.2000   33.1610   43.7260 C   0  0  0  0  0  0  0  0  0  0  0  0
   57.6830   31.8900   43.9920 C   0  0  0  0  0  0  0  0  0  0  0  0
   57.5460   31.4430   45.3110 C   0  0  0  0  0  0  0  0  0  0  0  0
   57.0170   30.1300   45.5490 N   0  0  0  0  0  0  0  0  0  0  0  0
   57.6790   28.8860   45.2820 C   0  0  0  0  0  0  0  0  0  0  0  0
   58.7820   28.9090   44.6740 O   0  0  0  0  0  0  0  0  0  0  0  0
   57.1380   27.5850   45.7310 C   0  0  0  0  0  0  0  0  0  0  0  0
   57.9690   26.5800   46.2490 C   0  0  0  0  0  0  0  0  0  0  0  0
   57.3910   25.3730   46.6470 C   0  0  0  0  0  0  0  0  0  0  0  0
   58.1070   24.4560   47.1260 O   0  0  0  0  0  0  0  0  0  0  0  0
   56.0520   25.1860   46.5160 N   0  0  0  0  0  0  0  0  0  0  0  0
   55.2610   26.1600   45.9940 C   0  0  0  0  0  0  0  0  0  0  0  0
   54.0260   25.9650   45.8690 O   0  0  0  0  0  0  0  0  0  0  0  0
   55.8050   27.3430   45.6050 N   0  0  0  0  0  0  0  0  0  0  0  0
   57.8930   32.3020   46.3690 C   0  0  0  0  0  0  0  0  0  0  0  0
   61.0260   33.4750   46.4910 C   0  0  0  0  0  0  0  0  0  0  0  0
   61.7140   32.3700   47.3190 C   0  0  0  0  0  0  0  0  0  0  0  0
   58.4513   29.1242   49.6657 H   0  0  0  0  0  0  0  0  0  0  0  0
   58.4495   30.0459   48.1239 H   0  0  0  0  0  0  0  0  0  0  0  0
   58.0494   28.2947   48.1239 H   0  0  0  0  0  0  0  0  0  0  0  0
   61.3351   29.8672   46.9516 H   0  0  0  0  0  0  0  0  0  0  0  0
   60.9071   28.2076   46.4136 H   0  0  0  0  0  0  0  0  0  0  0  0
   59.6607   29.5011   46.4136 H   0  0  0  0  0  0  0  0  0  0  0  0
   60.3695   27.0480   49.7359 H   0  0  0  0  0  0  0  0  0  0  0  0
   59.5116   26.6692   48.2038 H   0  0  0  0  0  0  0  0  0  0  0  0
   61.2941   26.8918   48.2038 H   0  0  0  0  0  0  0  0  0  0  0  0
   59.8714   31.6788   48.1754 H   0  0  0  0  0  0  0  0  0  0  0  0
   59.6272   33.2035   49.8583 H   0  0  0  0  0  0  0  0  0  0  0  0
   61.4078   33.1939   50.2442 H   0  0  0  0  0  0  0  0  0  0  0  0
   60.2783   35.3590   49.2387 H   0  0  0  0  0  0  0  0  0  0  0  0
   61.9131   34.7921   48.6728 H   0  0  0  0  0  0  0  0  0  0  0  0
   58.4850   34.0610   48.1876 H   0  0  0  0  0  0  0  0  0  0  0  0
   58.4867   35.4769   47.0671 H   0  0  0  0  0  0  0  0  0  0  0  0
   59.0018   34.9915   44.5640 H   0  0  0  0  0  0  0  0  0  0  0  0
   58.3072   33.5032   42.6861 H   0  0  0  0  0  0  0  0  0  0  0  0
   57.3820   31.2371   43.1595 H   0  0  0  0  0  0  0  0  0  0  0  0
   59.0535   26.7398   46.3396 H   0  0  0  0  0  0  0  0  0  0  0  0
   57.7444   31.9755   47.4089 H   0  0  0  0  0  0  0  0  0  0  0  0
   60.2715   33.0023   45.8450 H   0  0  0  0  0  0  0  0  0  0  0  0
   61.8188   33.9820   45.9214 H   0  0  0  0  0  0  0  0  0  0  0  0
   61.8493   31.4771   46.6910 H   0  0  0  0  0  0  0  0  0  0  0  0
   62.6907   32.7386   47.6657 H   0  0  0  0  0  0  0  0  0  0  0  0
  1  2  1  0
  2  3  1  0
  2  4  1  0
  2  5  1  0
  5  6  1  0
  6  7  2  0
  6  8  1  0
  8  9  1  0
  9 10  1  0
 10 11  1  0
 11 12  1  0
 12 13  1  0
 13 14  2  0
 14 15  1  0
 15 16  2  0
 16 17  1  0
 17 18  1  0
 18 19  1  0
 19 20  2  0
 19 21  1  0
 21 22  2  0
 22 23  1  0
 23 24  2  0
 23 25  1  0
 25 26  1  0
 26 27  2  0
 26 28  1  0
 17 29  2  0
 11 30  1  0
 30 31  1  0
 31  8  1  0
 29 13  1  0
 28 21  1  0
  1 32  1  0
  1 33  1  0
  1 34  1  0
  3 35  1  0
  3 36  1  0
  3 37  1  0
  4 38  1  0
  4 39  1  0
  4 40  1  0
  8 41  1  0
  9 42  1  0
  9 43  1  0
 10 44  1  0
 10 45  1  0
 12 46  1  0
 12 47  1  0
 14 48  1  0
 15 49  1  0
 16 50  1  0
 22 51  1  0
 29 52  1  0
 30 53  1  0
 30 54  1  0
 31 55  1  0
 31 56  1  0
M  CHG  4   5  -1  18  -1  25  -1  28  -1
M  END
>  <UniqueID>  (71) 
63

>  <SMILES>  (71) 
CC(C)(C)[N-]C(=O)C1CCN(Cc2cccc([N-]C(=O)c3cc(=O)[n-]c(=O)[n-]3)c2)CC1

>  <Energy>  (71) 
69.00904464188551

>  <Genealogy>  (71) 
CC(C)(C)[N-]C(=O)C1CCN(Cc2cccc([N-]C(=O)c3cc(=O)[n-]c(=O)[n-]3)c2)CC1 (protonated)
CC(C)(C)[N-]C(=O)C1CCN(Cc2cccc([N-]C(=O)c3cc(=O)[n-]c(=O)[n-]3)c2)CC1 (3D coordinates assigned)
CC(C)(C)[N-]C(=O)C1CCN(Cc2cccc([N-]C(=O)c3cc(=O)[n-]c(=O)[n-]3)c2)CC1 (nonaromatic ring conformer: 69.00904464188551 kcal/mol)

>  <smiles>  (71) 
CC(C)(C)NC(=O)C1CCN(Cc2cccc(NC(=O)c3cc(=O)[nH]c(=O)[nH]3)c2)CC1

>  <score_type>  (71) 
oracle

>  <origin>  (71) 
adg

>  <m_score__min__energy>  (71) 
-16.420000000000002

>  <m_primary>  (71) 
energy

$$$$
71:0
     RDKit          3D

 39 41  0  0  0  0  0  0  0  0999 V2000
   58.5520   31.0120   48.6280 O   0  0  0  0  0  0  0  0  0  0  0  0
   59.4070   31.4930   49.4170 C   0  0  0  0  0  0  0  0  0  0  0  0
   59.9090   30.7110   50.4490 O   0  0  0  0  0  0  0  0  0  0  0  0
   59.8440   32.9160   49.2740 C   0  0  0  0  0  0  0  0  0  0  0  0
   61.2960   32.9760   48.8770 C   0  0  0  0  0  0  0  0  0  0  0  0
   62.2540   33.4070   49.8090 C   0  0  0  0  0  0  0  0  0  0  0  0
   63.6070   33.4460   49.4650 C   0  0  0  0  0  0  0  0  0  0  0  0
   64.0180   33.0520   48.1920 C   0  0  0  0  0  0  0  0  0  0  0  0
   63.0780   32.6070   47.2610 C   0  0  0  0  0  0  0  0  0  0  0  0
   61.7130   32.5450   47.6000 C   0  0  0  0  0  0  0  0  0  0  0  0
   60.7530   32.1050   46.6750 O   0  0  0  0  0  0  0  0  0  0  0  0
   59.7780   32.9110   46.0650 C   0  0  0  0  0  0  0  0  0  0  0  0
   59.9830   34.2900   45.8790 C   0  0  0  0  0  0  0  0  0  0  0  0
   59.0090   35.0710   45.2530 C   0  0  0  0  0  0  0  0  0  0  0  0
   57.8260   34.4840   44.8050 C   0  0  0  0  0  0  0  0  0  0  0  0
   57.6180   33.1130   44.9680 C   0  0  0  0  0  0  0  0  0  0  0  0
   58.6000   32.3110   45.5800 C   0  0  0  0  0  0  0  0  0  0  0  0
   58.3840   30.9010   45.7710 N   0  0  0  0  0  0  0  0  0  0  0  0
   57.6560   30.0760   44.8460 C   0  0  0  0  0  0  0  0  0  0  0  0
   57.4270   30.4880   43.6770 O   0  0  0  0  0  0  0  0  0  0  0  0
   57.2030   28.7270   45.2260 C   0  0  0  0  0  0  0  0  0  0  0  0
   58.0140   27.6720   45.6180 C   0  0  0  0  0  0  0  0  0  0  0  0
   57.1720   26.6160   45.8870 C   0  0  0  0  0  0  0  0  0  0  0  0
   55.9010   27.0850   45.6480 C   0  0  0  0  0  0  0  0  0  0  0  0
   54.7420   26.3350   45.8000 O   0  0  0  0  0  0  0  0  0  0  0  0
   55.9020   28.3700   45.2470 N   0  0  0  0  0  0  0  0  0  0  0  0
   59.2351   33.4073   48.5008 H   0  0  0  0  0  0  0  0  0  0  0  0
   59.7134   33.4305   50.2374 H   0  0  0  0  0  0  0  0  0  0  0  0
   61.9368   33.7157   50.8160 H   0  0  0  0  0  0  0  0  0  0  0  0
   64.3503   33.7884   50.2000 H   0  0  0  0  0  0  0  0  0  0  0  0
   65.0834   33.0919   47.9214 H   0  0  0  0  0  0  0  0  0  0  0  0
   63.4059   32.3028   46.2560 H   0  0  0  0  0  0  0  0  0  0  0  0
   60.9160   34.7561   46.2287 H   0  0  0  0  0  0  0  0  0  0  0  0
   59.1750   36.1494   45.1133 H   0  0  0  0  0  0  0  0  0  0  0  0
   57.0550   35.1025   44.3222 H   0  0  0  0  0  0  0  0  0  0  0  0
   56.6810   32.6567   44.6160 H   0  0  0  0  0  0  0  0  0  0  0  0
   58.8640   30.4360   46.5750 H   0  0  0  0  0  0  0  0  0  0  0  0
   59.1111   27.6778   45.6980 H   0  0  0  0  0  0  0  0  0  0  0  0
   57.4564   25.6079   46.2229 H   0  0  0  0  0  0  0  0  0  0  0  0
  1  2  2  0
  2  3  1  0
  2  4  1  0
  4  5  1  0
  5  6  2  0
  6  7  1  0
  7  8  2  0
  8  9  1  0
  9 10  2  0
 10 11  1  0
 11 12  1  0
 12 13  2  0
 13 14  1  0
 14 15  2  0
 15 16  1  0
 16 17  2  0
 17 18  1  0
 18 19  1  0
 19 20  2  0
 19 21  1  0
 21 22  2  0
 22 23  1  0
 23 24  2  0
 24 25  1  0
 24 26  1  0
 10  5  1  0
 17 12  1  0
 26 21  1  0
  4 27  1  0
  4 28  1  0
  6 29  1  0
  7 30  1  0
  8 31  1  0
  9 32  1  0
 13 33  1  0
 14 34  1  0
 15 35  1  0
 16 36  1  0
 18 37  1  0
 22 38  1  0
 23 39  1  0
M  CHG  3   3  -1  25  -1  26  -1
M  END
>  <UniqueID>  (72) 
64

>  <SMILES>  (72) 
O=C([O-])Cc1ccccc1Oc1ccccc1NC(=O)c1ccc([O-])[n-]1

>  <Energy>  (72) 
75.08729845494832

>  <Genealogy>  (72) 
O=C([O-])Cc1ccccc1Oc1ccccc1NC(=O)c1ccc([O-])[n-]1 (protonated)
O=C([O-])Cc1ccccc1Oc1ccccc1NC(=O)c1ccc([O-])[n-]1 (3D coordinates assigned)
O=C([O-])Cc1ccccc1Oc1ccccc1NC(=O)c1ccc([O-])[n-]1 (optimized conformer: 75.08729845494832 kcal/mol)

>  <smiles>  (72) 
O=C(O)Cc1ccccc1Oc1ccccc1NC(=O)c1ccc(O)[nH]1

>  <score_type>  (72) 
oracle

>  <origin>  (72) 
adg

>  <m_score__min__energy>  (72) 
-15.529999999999999

>  <m_primary>  (72) 
energy

$$$$
72:0
     RDKit          3D

 55 57  0  0  0  0  0  0  0  0999 V2000
   55.1730   26.7110   45.9980 N   0  0  0  0  0  0  0  0  0  0  0  0
   56.3510   27.4310   45.6500 C   0  0  0  0  0  0  0  0  0  0  0  0
   57.4830   26.9280   45.8820 O   0  0  0  0  0  0  0  0  0  0  0  0
   56.2330   28.6930   45.0600 O   0  0  0  0  0  0  0  0  0  0  0  0
   57.1140   29.1690   44.0440 C   0  0  0  0  0  0  0  0  0  0  0  0
   56.7010   30.5760   43.5910 C   0  0  0  0  0  0  0  0  0  0  0  0
   57.5150   31.6830   44.2930 C   0  0  0  0  0  0  0  0  0  0  0  0
   58.8310   31.1810   44.9130 C   0  0  0  0  0  0  0  0  0  0  0  0
   58.7940   31.1820   46.4180 C   0  0  0  0  0  0  0  0  0  0  0  0
   59.0040   29.9930   47.1340 C   0  0  0  0  0  0  0  0  0  0  0  0
   58.9080   29.9830   48.5280 C   0  0  0  0  0  0  0  0  0  0  0  0
   58.6080   31.1610   49.2300 C   0  0  0  0  0  0  0  0  0  0  0  0
   58.4660   31.1370   50.6640 N   0  0  0  0  0  0  0  0  0  0  0  0
   58.3590   29.8560   51.3710 C   0  0  0  0  0  0  0  0  0  0  0  0
   57.6020   30.0340   52.6990 C   0  0  0  0  0  0  0  0  0  0  0  0
   56.5080   31.0230   52.5710 N   0  0  0  0  0  0  0  0  0  0  0  0
   55.4450   30.5540   51.6540 C   0  0  0  0  0  0  0  0  0  0  0  0
   54.0880   30.8610   52.2270 C   0  0  0  0  0  0  0  0  0  0  0  0
   53.7060   30.3500   53.4800 C   0  0  0  0  0  0  0  0  0  0  0  0
   52.4380   30.6330   53.9980 C   0  0  0  0  0  0  0  0  0  0  0  0
   51.5440   31.4240   53.2710 C   0  0  0  0  0  0  0  0  0  0  0  0
   51.9160   31.9350   52.0240 C   0  0  0  0  0  0  0  0  0  0  0  0
   51.0260   32.7210   51.3020 O   0  0  0  0  0  0  0  0  0  0  0  0
   53.1830   31.6540   51.5010 C   0  0  0  0  0  0  0  0  0  0  0  0
   57.0070   32.3790   52.2170 C   0  0  0  0  0  0  0  0  0  0  0  0
   58.3390   32.3720   51.4410 C   0  0  0  0  0  0  0  0  0  0  0  0
   58.3990   32.3500   48.5120 C   0  0  0  0  0  0  0  0  0  0  0  0
   58.4950   32.3610   47.1180 C   0  0  0  0  0  0  0  0  0  0  0  0
   54.5050   27.0850   46.7090 H   0  0  0  0  0  0  0  0  0  0  0  0
   58.1394   29.2028   44.4406 H   0  0  0  0  0  0  0  0  0  0  0  0
   57.0635   28.4882   43.1815 H   0  0  0  0  0  0  0  0  0  0  0  0
   56.8571   30.6575   42.5052 H   0  0  0  0  0  0  0  0  0  0  0  0
   55.6433   30.7172   43.8581 H   0  0  0  0  0  0  0  0  0  0  0  0
   57.7538   32.4613   43.5532 H   0  0  0  0  0  0  0  0  0  0  0  0
   56.8953   32.0654   45.1174 H   0  0  0  0  0  0  0  0  0  0  0  0
   59.0162   30.1541   44.5650 H   0  0  0  0  0  0  0  0  0  0  0  0
   59.6327   31.8647   44.5970 H   0  0  0  0  0  0  0  0  0  0  0  0
   59.2453   29.0648   46.5952 H   0  0  0  0  0  0  0  0  0  0  0  0
   59.0687   29.0449   49.0795 H   0  0  0  0  0  0  0  0  0  0  0  0
   57.8164   29.1379   50.7386 H   0  0  0  0  0  0  0  0  0  0  0  0
   59.3713   29.4831   51.5861 H   0  0  0  0  0  0  0  0  0  0  0  0
   57.1753   29.0658   52.9998 H   0  0  0  0  0  0  0  0  0  0  0  0
   58.3122   30.4005   53.4549 H   0  0  0  0  0  0  0  0  0  0  0  0
   55.5526   31.0615   50.6840 H   0  0  0  0  0  0  0  0  0  0  0  0
   55.5401   29.4660   51.5227 H   0  0  0  0  0  0  0  0  0  0  0  0
   54.4064   29.7259   54.0545 H   0  0  0  0  0  0  0  0  0  0  0  0
   52.1438   30.2323   54.9793 H   0  0  0  0  0  0  0  0  0  0  0  0
   50.5471   31.6446   53.6802 H   0  0  0  0  0  0  0  0  0  0  0  0
   53.4717   32.0551   50.5183 H   0  0  0  0  0  0  0  0  0  0  0  0
   56.2472   32.8764   51.5962 H   0  0  0  0  0  0  0  0  0  0  0  0
   57.1919   32.9081   53.1635 H   0  0  0  0  0  0  0  0  0  0  0  0
   58.3666   33.2346   50.7590 H   0  0  0  0  0  0  0  0  0  0  0  0
   59.1717   32.4323   52.1573 H   0  0  0  0  0  0  0  0  0  0  0  0
   58.1582   33.2784   49.0505 H   0  0  0  0  0  0  0  0  0  0  0  0
   58.3353   33.2991   46.5662 H   0  0  0  0  0  0  0  0  0  0  0  0
  1  2  1  0
  2  3  2  0
  2  4  1  0
  4  5  1  0
  5  6  1  0
  6  7  1  0
  7  8  1  0
  8  9  1  0
  9 10  2  0
 10 11  1  0
 11 12  2  0
 12 13  1  0
 13 14  1  0
 14 15  1  0
 15 16  1  0
 16 17  1  0
 17 18  1  0
 18 19  2  0
 19 20  1  0
 20 21  2  0
 21 22  1  0
 22 23  1  0
 22 24  2  0
 16 25  1  0
 25 26  1  0
 12 27  1  0
 27 28  2  0
 28  9  1  0
 26 13  1  0
 24 18  1  0
  1 29  1  0
  5 30  1  0
  5 31  1  0
  6 32  1  0
  6 33  1  0
  7 34  1  0
  7 35  1  0
  8 36  1  0
  8 37  1  0
 10 38  1  0
 11 39  1  0
 14 40  1  0
 14 41  1  0
 15 42  1  0
 15 43  1  0
 17 44  1  0
 17 45  1  0
 19 46  1  0
 20 47  1  0
 21 48  1  0
 24 49  1  0
 25 50  1  0
 25 51  1  0
 26 52  1  0
 26 53  1  0
 27 54  1  0
 28 55  1  0
M  CHG  2   1  -1  23  -1
M  END
>  <UniqueID>  (73) 
65

>  <SMILES>  (73) 
[NH-]C(=O)OCCCCc1ccc(N2CCN(Cc3cccc([O-])c3)CC2)cc1

>  <Energy>  (73) 
59.970440727623

>  <Genealogy>  (73) 
[NH-]C(=O)OCCCCc1ccc(N2CCN(Cc3cccc([O-])c3)CC2)cc1 (protonated)
[NH-]C(=O)OCCCCc1ccc(N2CCN(Cc3cccc([O-])c3)CC2)cc1 (3D coordinates assigned)
[NH-]C(=O)OCCCCc1ccc(N2CCN(Cc3cccc([O-])c3)CC2)cc1 (nonaromatic ring conformer: 59.970440727623 kcal/mol)

>  <smiles>  (73) 
NC(=O)OCCCCc1ccc(N2CCN(Cc3cccc(O)c3)CC2)cc1

>  <score_type>  (73) 
oracle

>  <origin>  (73) 
adg

>  <m_score__min__energy>  (73) 
-15.66

>  <m_primary>  (73) 
energy

$$$$
73:0
     RDKit          3D

 45 46  0  0  0  0  0  0  0  0999 V2000
   57.0070   30.4890   43.8640 C   0  0  0  0  0  0  0  0  0  0  0  0
   57.3180   30.6270   45.2460 O   0  0  0  0  0  0  0  0  0  0  0  0
   57.7930   31.8070   45.8420 C   0  0  0  0  0  0  0  0  0  0  0  0
   57.5220   33.0760   45.2930 C   0  0  0  0  0  0  0  0  0  0  0  0
   57.9940   34.2330   45.9170 C   0  0  0  0  0  0  0  0  0  0  0  0
   58.7430   34.1410   47.0890 C   0  0  0  0  0  0  0  0  0  0  0  0
   59.0220   32.8920   47.6420 C   0  0  0  0  0  0  0  0  0  0  0  0
   58.5480   31.7180   47.0310 C   0  0  0  0  0  0  0  0  0  0  0  0
   58.8400   30.3910   47.6840 C   0  0  0  0  0  0  0  0  0  0  0  0
   60.2380   29.9740   47.4180 N   0  0  0  0  0  0  0  0  0  0  0  0
   60.9020   30.9730   46.5630 C   0  0  0  0  0  0  0  0  0  0  0  0
   60.3220   28.6270   46.8000 C   0  0  0  0  0  0  0  0  0  0  0  0
   58.9330   27.9950   46.6130 C   0  0  0  0  0  0  0  0  0  0  0  0
   58.6240   27.6360   45.1540 C   0  0  0  0  0  0  0  0  0  0  0  0
   57.3830   26.8670   45.0640 N   0  0  0  0  0  0  0  0  0  0  0  0
   57.3010   25.4640   45.3600 C   0  0  0  0  0  0  0  0  0  0  0  0
   58.3280   24.8340   45.7300 O   0  0  0  0  0  0  0  0  0  0  0  0
   56.0040   24.7520   45.2760 C   0  0  0  0  0  0  0  0  0  0  0  0
   54.7950   25.3800   45.6320 C   0  0  0  0  0  0  0  0  0  0  0  0
   54.7690   26.7160   46.0170 O   0  0  0  0  0  0  0  0  0  0  0  0
   53.6280   24.6890   45.5760 N   0  0  0  0  0  0  0  0  0  0  0  0
   53.5960   23.3950   45.1690 C   0  0  0  0  0  0  0  0  0  0  0  0
   52.5020   22.7760   45.1290 O   0  0  0  0  0  0  0  0  0  0  0  0
   54.7420   22.7700   44.8030 N   0  0  0  0  0  0  0  0  0  0  0  0
   55.9380   23.4140   44.8430 C   0  0  0  0  0  0  0  0  0  0  0  0
   56.9810   22.7920   44.5070 O   0  0  0  0  0  0  0  0  0  0  0  0
   56.0064   30.0450   43.7559 H   0  0  0  0  0  0  0  0  0  0  0  0
   57.0228   31.4786   43.3840 H   0  0  0  0  0  0  0  0  0  0  0  0
   57.7514   29.8367   43.3840 H   0  0  0  0  0  0  0  0  0  0  0  0
   56.9346   33.1561   44.3664 H   0  0  0  0  0  0  0  0  0  0  0  0
   57.7741   35.2193   45.4825 H   0  0  0  0  0  0  0  0  0  0  0  0
   59.1140   35.0540   47.5776 H   0  0  0  0  0  0  0  0  0  0  0  0
   59.6180   32.8246   48.5641 H   0  0  0  0  0  0  0  0  0  0  0  0
   58.6904   30.4820   48.7700 H   0  0  0  0  0  0  0  0  0  0  0  0
   58.1591   29.6339   47.2678 H   0  0  0  0  0  0  0  0  0  0  0  0
   61.4005   31.7230   47.1947 H   0  0  0  0  0  0  0  0  0  0  0  0
   61.6487   30.4738   45.9279 H   0  0  0  0  0  0  0  0  0  0  0  0
   60.1527   31.4682   45.9279 H   0  0  0  0  0  0  0  0  0  0  0  0
   60.8075   28.7163   45.8170 H   0  0  0  0  0  0  0  0  0  0  0  0
   60.9039   27.9791   47.4720 H   0  0  0  0  0  0  0  0  0  0  0  0
   58.8823   27.0772   47.2172 H   0  0  0  0  0  0  0  0  0  0  0  0
   58.1892   28.7405   46.9308 H   0  0  0  0  0  0  0  0  0  0  0  0
   58.5190   28.5614   44.5686 H   0  0  0  0  0  0  0  0  0  0  0  0
   59.4486   27.0257   44.7570 H   0  0  0  0  0  0  0  0  0  0  0  0
   56.5160   27.3830   44.7950 H   0  0  0  0  0  0  0  0  0  0  0  0
  1  2  1  0
  2  3  1  0
  3  4  2  0
  4  5  1  0
  5  6  2  0
  6  7  1  0
  7  8  2  0
  8  9  1  0
  9 10  1  0
 10 11  1  0
 10 12  1  0
 12 13  1  0
 13 14  1  0
 14 15  1  0
 15 16  1  0
 16 17  2  0
 16 18  1  0
 18 19  2  0
 19 20  1  0
 19 21  1  0
 21 22  1  0
 22 23  2  0
 22 24  1  0
 24 25  1  0
 25 26  2  0
  8  3  1  0
 25 18  1  0
  1 27  1  0
  1 28  1  0
  1 29  1  0
  4 30  1  0
  5 31  1  0
  6 32  1  0
  7 33  1  0
  9 34  1  0
  9 35  1  0
 11 36  1  0
 11 37  1  0
 11 38  1  0
 12 39  1  0
 12 40  1  0
 13 41  1  0
 13 42  1  0
 14 43  1  0
 14 44  1  0
 15 45  1  0
M  CHG  3  20  -1  21  -1  24  -1
M  END
>  <UniqueID>  (74) 
66

>  <SMILES>  (74) 
COc1ccccc1CN(C)CCCNC(=O)c1c([O-])[n-]c(=O)[n-]c1=O

>  <Energy>  (74) 
46.401299277258055

>  <Genealogy>  (74) 
COc1ccccc1CN(C)CCCNC(=O)c1c([O-])[n-]c(=O)[n-]c1=O (protonated)
COc1ccccc1CN(C)CCCNC(=O)c1c([O-])[n-]c(=O)[n-]c1=O (3D coordinates assigned)
COc1ccccc1CN(C)CCCNC(=O)c1c([O-])[n-]c(=O)[n-]c1=O (optimized conformer: 46.401299277258055 kcal/mol)

>  <smiles>  (74) 
COc1ccccc1CN(C)CCCNC(=O)c1c(O)[nH]c(=O)[nH]c1=O

>  <score_type>  (74) 
oracle

>  <origin>  (74) 
adg

>  <m_score__min__energy>  (74) 
-15.17

>  <m_primary>  (74) 
energy

$$$$
74:0
     RDKit          3D

 49 52  0  0  0  0  0  0  0  0999 V2000
   57.5150   25.3870   47.1740 C   0  0  0  0  0  0  0  0  0  0  0  0
   57.7290   26.6620   46.4870 N   0  0  0  0  0  0  0  0  0  0  0  0
   59.0520   27.2910   46.4430 C   0  0  0  0  0  0  0  0  0  0  0  0
   58.9540   28.7920   46.7850 C   0  0  2  0  0  0  0  0  0  0  0  0
   60.3570   29.4800   46.6370 C   0  0  0  0  0  0  0  0  0  0  0  0
   60.6150   30.0230   48.0000 C   0  0  0  0  0  0  0  0  0  0  0  0
   61.7200   30.7570   48.4320 C   0  0  0  0  0  0  0  0  0  0  0  0
   61.7820   31.1720   49.7770 C   0  0  0  0  0  0  0  0  0  0  0  0
   62.9210   31.9310   50.2230 N   0  0  0  0  0  0  0  0  0  0  0  0
   63.1990   33.3000   49.7810 C   0  0  0  0  0  0  0  0  0  0  0  0
   62.2210   33.7230   48.7180 C   0  0  0  0  0  0  0  0  0  0  0  0
   62.5470   33.5830   47.3590 C   0  0  0  0  0  0  0  0  0  0  0  0
   61.6240   33.9410   46.3730 C   0  0  0  0  0  0  0  0  0  0  0  0
   60.3640   34.4290   46.7350 C   0  0  0  0  0  0  0  0  0  0  0  0
   59.2060   34.8760   45.4960 Cl  0  0  0  0  0  0  0  0  0  0  0  0
   60.0270   34.5550   48.0870 C   0  0  0  0  0  0  0  0  0  0  0  0
   60.9490   34.1980   49.0760 C   0  0  0  0  0  0  0  0  0  0  0  0
   60.7220   30.8310   50.6560 C   0  0  0  0  0  0  0  0  0  0  0  0
   59.6210   30.0890   50.1980 C   0  0  0  0  0  0  0  0  0  0  0  0
   58.5930   29.7650   51.0820 O   0  0  0  0  0  0  0  0  0  0  0  0
   59.5990   29.6960   48.8530 C   0  0  0  0  0  0  0  0  0  0  0  0
   58.5920   28.9530   48.1950 N   0  0  0  0  0  0  0  0  0  0  0  0
   57.8920   29.4580   45.9270 C   0  0  0  0  0  0  0  0  0  0  0  0
   57.9210   30.7080   45.7570 O   0  0  0  0  0  0  0  0  0  0  0  0
   56.7910   28.6890   45.4040 N   0  0  0  0  0  0  0  0  0  0  0  0
   55.7390   29.3410   44.6190 C   0  0  0  0  0  0  0  0  0  0  0  0
   56.6410   27.3210   45.8220 C   0  0  0  0  0  0  0  0  0  0  0  0
   55.5550   26.7080   45.6250 O   0  0  0  0  0  0  0  0  0  0  0  0
   57.5420   25.5476   48.2619 H   0  0  0  0  0  0  0  0  0  0  0  0
   56.5354   24.9764   46.8882 H   0  0  0  0  0  0  0  0  0  0  0  0
   58.3069   24.6790   46.8882 H   0  0  0  0  0  0  0  0  0  0  0  0
   59.7111   26.7969   47.1720 H   0  0  0  0  0  0  0  0  0  0  0  0
   59.4599   27.1858   45.4268 H   0  0  0  0  0  0  0  0  0  0  0  0
   61.1271   28.7482   46.3516 H   0  0  0  0  0  0  0  0  0  0  0  0
   60.3785   30.2521   45.8538 H   0  0  0  0  0  0  0  0  0  0  0  0
   62.5311   31.0081   47.7327 H   0  0  0  0  0  0  0  0  0  0  0  0
   63.5800   31.4780   50.8980 H   0  0  0  0  0  0  0  0  0  0  0  0
   63.1155   33.9813   50.6406 H   0  0  0  0  0  0  0  0  0  0  0  0
   64.2156   33.3377   49.3625 H   0  0  0  0  0  0  0  0  0  0  0  0
   63.5328   33.1900   47.0698 H   0  0  0  0  0  0  0  0  0  0  0  0
   61.8886   33.8389   45.3102 H   0  0  0  0  0  0  0  0  0  0  0  0
   59.0352   34.9355   48.3725 H   0  0  0  0  0  0  0  0  0  0  0  0
   60.6769   34.2896   50.1379 H   0  0  0  0  0  0  0  0  0  0  0  0
   60.7628   31.1512   51.7076 H   0  0  0  0  0  0  0  0  0  0  0  0
   58.6900   29.8580   52.0850 H   0  0  0  0  0  0  0  0  0  0  0  0
   57.7100   28.5980   48.6280 H   0  0  0  0  0  0  0  0  0  0  0  0
   55.0037   29.7967   45.2984 H   0  0  0  0  0  0  0  0  0  0  0  0
   56.1850   30.1212   43.9847 H   0  0  0  0  0  0  0  0  0  0  0  0
   55.2387   28.5944   43.9847 H   0  0  0  0  0  0  0  0  0  0  0  0
  1  2  1  0
  2  3  1  0
  3  4  1  0
  4  5  1  0
  5  6  1  0
  6  7  2  0
  7  8  1  0
  8  9  1  0
  9 10  1  0
 10 11  1  0
 11 12  2  0
 12 13  1  0
 13 14  2  0
 14 15  1  0
 14 16  1  0
 16 17  2  0
  8 18  2  0
 18 19  1  0
 19 20  1  0
 19 21  2  0
 21 22  1  0
  4 23  1  0
 23 24  2  0
 23 25  1  0
 25 26  1  0
 25 27  1  0
 27 28  2  0
 27  2  1  0
  4 22  1  1
 21  6  1  0
 17 11  1  0
  1 29  1  0
  1 30  1  0
  1 31  1  0
  3 32  1  0
  3 33  1  0
  5 34  1  0
  5 35  1  0
  7 36  1  0
  9 37  1  0
 10 38  1  0
 10 39  1  0
 12 40  1  0
 13 41  1  0
 16 42  1  0
 17 43  1  0
 18 44  1  0
 20 45  1  0
 22 46  1  0
 26 47  1  0
 26 48  1  0
 26 49  1  0
M  END
>  <UniqueID>  (75) 
67

>  <SMILES>  (75) 
CN1C[C@@]2(Cc3cc(NCc4ccc(Cl)cc4)cc(O)c3N2)C(=O)N(C)C1=O

>  <Energy>  (75) 
65.70176698179105

>  <Genealogy>  (75) 
CN1C[C@@]2(Cc3cc(NCc4ccc(Cl)cc4)cc(O)c3N2)C(=O)N(C)C1=O (chirality)
CN1C[C@@]2(Cc3cc(NCc4ccc(Cl)cc4)cc(O)c3N2)C(=O)N(C)C1=O (3D coordinates assigned)
CN1C[C@@]2(Cc3cc(NCc4ccc(Cl)cc4)cc(O)c3N2)C(=O)N(C)C1=O (nonaromatic ring conformer: 65.70176698179105 kcal/mol)

>  <smiles>  (75) 
CN1CC2(Cc3cc(NCc4ccc(Cl)cc4)cc(O)c3N2)C(=O)N(C)C1=O

>  <score_type>  (75) 
oracle

>  <origin>  (75) 
adg

>  <m_score__min__energy>  (75) 
-8.6500000000000004

>  <m_primary>  (75) 
energy

$$$$
75:0
     RDKit          3D

 28 30  0  0  0  0  0  0  0  0999 V2000
   60.4910   34.2320   49.1260 Cl  0  0  0  0  0  0  0  0  0  0  0  0
   59.6940   33.7310   47.6450 C   0  0  0  0  0  0  0  0  0  0  0  0
   60.0360   34.3330   46.4300 C   0  0  0  0  0  0  0  0  0  0  0  0
   59.4020   33.9350   45.2480 C   0  0  0  0  0  0  0  0  0  0  0  0
   58.4200   32.9290   45.2750 C   0  0  0  0  0  0  0  0  0  0  0  0
   57.7510   32.4810   44.0040 C   0  0  0  0  0  0  0  0  0  0  0  0
   57.1810   31.1060   44.1650 C   0  0  0  0  0  0  0  0  0  0  0  0
   55.8900   30.8520   44.4860 N   0  0  0  0  0  0  0  0  0  0  0  0
   55.8020   29.5540   44.7660 N   0  0  0  0  0  0  0  0  0  0  0  0
   57.0350   29.0520   44.5660 C   0  0  0  0  0  0  0  0  0  0  0  0
   57.8970   29.9730   44.1990 N   0  0  0  0  0  0  0  0  0  0  0  0
   59.2650   29.6350   44.5120 C   0  0  0  0  0  0  0  0  0  0  0  0
   59.1640   28.1670   45.0000 C   0  0  0  0  0  0  0  0  0  0  0  0
   57.6520   27.8440   45.1440 C   0  0  0  0  0  0  0  0  0  0  0  0
   58.0840   32.3300   46.5000 C   0  0  0  0  0  0  0  0  0  0  0  0
   58.7190   32.7310   47.6800 C   0  0  0  0  0  0  0  0  0  0  0  0
   60.8040   35.1200   46.4036 H   0  0  0  0  0  0  0  0  0  0  0  0
   59.6728   34.4109   44.2940 H   0  0  0  0  0  0  0  0  0  0  0  0
   56.9402   33.1817   43.7558 H   0  0  0  0  0  0  0  0  0  0  0  0
   58.4984   32.4628   43.1971 H   0  0  0  0  0  0  0  0  0  0  0  0
   59.9042   29.7111   43.6200 H   0  0  0  0  0  0  0  0  0  0  0  0
   59.7160   30.3073   45.2567 H   0  0  0  0  0  0  0  0  0  0  0  0
   59.6271   27.4914   44.2658 H   0  0  0  0  0  0  0  0  0  0  0  0
   59.6888   28.0328   45.9574 H   0  0  0  0  0  0  0  0  0  0  0  0
   57.3782   26.9425   44.5763 H   0  0  0  0  0  0  0  0  0  0  0  0
   57.3362   27.6299   46.1757 H   0  0  0  0  0  0  0  0  0  0  0  0
   57.3176   31.5415   46.5317 H   0  0  0  0  0  0  0  0  0  0  0  0
   58.4505   32.2586   48.6364 H   0  0  0  0  0  0  0  0  0  0  0  0
  1  2  1  0
  2  3  2  0
  3  4  1  0
  4  5  2  0
  5  6  1  0
  6  7  1  0
  7  8  2  0
  8  9  1  0
  9 10  2  0
 10 11  1  0
 11 12  1  0
 12 13  1  0
 13 14  1  0
  5 15  1  0
 15 16  2  0
 16  2  1  0
 11  7  1  0
 14 10  1  0
  3 17  1  0
  4 18  1  0
  6 19  1  0
  6 20  1  0
 12 21  1  0
 12 22  1  0
 13 23  1  0
 13 24  1  0
 14 25  1  0
 14 26  1  0
 15 27  1  0
 16 28  1  0
M  END
>  <UniqueID>  (76) 
68

>  <SMILES>  (76) 
Clc1ccc(Cc2nnc3n2CCC3)cc1

>  <Energy>  (76) 
83.8286658002975

>  <Genealogy>  (76) 
Clc1ccc(Cc2nnc3n2CCC3)cc1 (3D coordinates assigned)
Clc1ccc(Cc2nnc3n2CCC3)cc1 (nonaromatic ring conformer: 83.8286658002975 kcal/mol)

>  <smiles>  (76) 
Clc1ccc(Cc2nnc3n2CCC3)cc1

>  <score_type>  (76) 
oracle

>  <origin>  (76) 
adg

>  <m_score__min__energy>  (76) 
-7.3099999999999996

>  <m_primary>  (76) 
energy

$$$$
76:0
     RDKit          3D

 54 57  0  0  0  0  0  0  0  0999 V2000
   62.7270   33.8220   46.7060 C   0  0  0  0  0  0  0  0  0  0  0  0
   61.7510   33.7500   47.8490 C   0  0  0  0  0  0  0  0  0  0  0  0
   62.2440   33.8570   49.1580 C   0  0  0  0  0  0  0  0  0  0  0  0
   61.3830   33.7540   50.2530 C   0  0  0  0  0  0  0  0  0  0  0  0
   60.0120   33.5270   50.0600 C   0  0  0  0  0  0  0  0  0  0  0  0
   59.1020   33.4180   51.2240 C   0  0  0  0  0  0  0  0  0  0  0  0
   58.9550   34.4050   51.9950 O   0  0  0  0  0  0  0  0  0  0  0  0
   58.3620   32.2110   51.4770 N   0  0  0  0  0  0  0  0  0  0  0  0
   57.0000   32.2970   52.0050 C   0  0  0  0  0  0  0  0  0  0  0  0
   56.2230   31.0320   51.6270 C   0  0  0  0  0  0  0  0  0  0  0  0
   56.9310   29.8690   52.0170 O   0  0  0  0  0  0  0  0  0  0  0  0
   58.1450   29.7800   51.2920 C   0  0  0  0  0  0  0  0  0  0  0  0
   59.0760   30.9420   51.6490 C   0  0  0  0  0  0  0  0  0  0  0  0
   59.5120   33.4480   48.7510 C   0  0  0  0  0  0  0  0  0  0  0  0
   60.3610   33.5870   47.6470 C   0  0  0  0  0  0  0  0  0  0  0  0
   59.7810   33.5300   46.3360 N   0  0  0  0  0  0  0  0  0  0  0  0
   58.4130   33.2100   46.0490 C   0  0  0  0  0  0  0  0  0  0  0  0
   57.5400   34.1010   46.2150 O   0  0  0  0  0  0  0  0  0  0  0  0
   58.0220   31.8950   45.4850 C   0  0  0  0  0  0  0  0  0  0  0  0
   57.0470   31.8590   44.4720 C   0  0  0  0  0  0  0  0  0  0  0  0
   56.6590   30.6470   43.9010 C   0  0  0  0  0  0  0  0  0  0  0  0
   57.2310   29.4540   44.3380 C   0  0  0  0  0  0  0  0  0  0  0  0
   58.1960   29.4680   45.3450 C   0  0  0  0  0  0  0  0  0  0  0  0
   58.6100   30.6810   45.9250 C   0  0  0  0  0  0  0  0  0  0  0  0
   59.6280   30.6720   46.9420 N   0  0  0  0  0  0  0  0  0  0  0  0
   59.7890   29.5880   47.8730 C   0  0  0  0  0  0  0  0  0  0  0  0
   59.1400   28.5190   47.7170 O   0  0  0  0  0  0  0  0  0  0  0  0
   60.7290   29.6840   49.0020 C   0  0  0  0  0  0  0  0  0  0  0  0
   60.9460   28.7370   49.9890 C   0  0  0  0  0  0  0  0  0  0  0  0
   61.9110   29.2730   50.8140 C   0  0  0  0  0  0  0  0  0  0  0  0
   62.2240   30.5090   50.2860 C   0  0  0  0  0  0  0  0  0  0  0  0
   61.5060   30.7230   49.2080 O   0  0  0  0  0  0  0  0  0  0  0  0
   63.7505   33.8975   47.1020 H   0  0  0  0  0  0  0  0  0  0  0  0
   62.6381   32.9149   46.0902 H   0  0  0  0  0  0  0  0  0  0  0  0
   62.5059   34.7063   46.0902 H   0  0  0  0  0  0  0  0  0  0  0  0
   63.3186   34.0236   49.3236 H   0  0  0  0  0  0  0  0  0  0  0  0
   61.7824   33.8515   51.2733 H   0  0  0  0  0  0  0  0  0  0  0  0
   57.0370   32.3906   53.1004 H   0  0  0  0  0  0  0  0  0  0  0  0
   56.4968   33.1769   51.5777 H   0  0  0  0  0  0  0  0  0  0  0  0
   55.2458   31.0451   52.1319 H   0  0  0  0  0  0  0  0  0  0  0  0
   56.0909   31.0136   50.5351 H   0  0  0  0  0  0  0  0  0  0  0  0
   58.6429   28.8302   51.5370 H   0  0  0  0  0  0  0  0  0  0  0  0
   57.9185   29.8264   50.2166 H   0  0  0  0  0  0  0  0  0  0  0  0
   59.4012   30.8432   52.6952 H   0  0  0  0  0  0  0  0  0  0  0  0
   59.9553   30.9236   50.9883 H   0  0  0  0  0  0  0  0  0  0  0  0
   58.4377   33.2744   48.5904 H   0  0  0  0  0  0  0  0  0  0  0  0
   56.5858   32.7960   44.1266 H   0  0  0  0  0  0  0  0  0  0  0  0
   55.9004   30.6330   43.1046 H   0  0  0  0  0  0  0  0  0  0  0  0
   56.9210   28.4993   43.8880 H   0  0  0  0  0  0  0  0  0  0  0  0
   58.6377   28.5212   45.6891 H   0  0  0  0  0  0  0  0  0  0  0  0
   60.3010   31.4650   46.9810 H   0  0  0  0  0  0  0  0  0  0  0  0
   60.4510   27.7602   50.0928 H   0  0  0  0  0  0  0  0  0  0  0  0
   62.3444   28.8091   51.7123 H   0  0  0  0  0  0  0  0  0  0  0  0
   62.9626   31.2084   50.7047 H   0  0  0  0  0  0  0  0  0  0  0  0
  1  2  1  0
  2  3  2  0
  3  4  1  0
  4  5  2  0
  5  6  1  0
  6  7  2  0
  6  8  1  0
  8  9  1  0
  9 10  1  0
 10 11  1  0
 11 12  1  0
 12 13  1  0
  5 14  1  0
 14 15  2  0
 15 16  1  0
 16 17  1  0
 17 18  2  0
 17 19  1  0
 19 20  2  0
 20 21  1  0
 21 22  2  0
 22 23  1  0
 23 24  2  0
 24 25  1  0
 25 26  1  0
 26 27  2  0
 26 28  1  0
 28 29  2  0
 29 30  1  0
 30 31  2  0
 31 32  1  0
 15  2  1  0
 24 19  1  0
 32 28  1  0
 13  8  1  0
  1 33  1  0
  1 34  1  0
  1 35  1  0
  3 36  1  0
  4 37  1  0
  9 38  1  0
  9 39  1  0
 10 40  1  0
 10 41  1  0
 12 42  1  0
 12 43  1  0
 13 44  1  0
 13 45  1  0
 14 46  1  0
 20 47  1  0
 21 48  1  0
 22 49  1  0
 23 50  1  0
 25 51  1  0
 29 52  1  0
 30 53  1  0
 31 54  1  0
M  CHG  1  16  -1
M  END
>  <UniqueID>  (77) 
69

>  <SMILES>  (77) 
Cc1ccc(C(=O)N2CCOCC2)cc1[N-]C(=O)c1ccccc1NC(=O)c1ccco1

>  <Energy>  (77) 
104.04449677536978

>  <Genealogy>  (77) 
Cc1ccc(C(=O)N2CCOCC2)cc1[N-]C(=O)c1ccccc1NC(=O)c1ccco1 (protonated)
Cc1ccc(C(=O)N2CCOCC2)cc1[N-]C(=O)c1ccccc1NC(=O)c1ccco1 (3D coordinates assigned)
Cc1ccc(C(=O)N2CCOCC2)cc1[N-]C(=O)c1ccccc1NC(=O)c1ccco1 (nonaromatic ring conformer: 104.04449677536978 kcal/mol)

>  <smiles>  (77) 
Cc1ccc(C(=O)N2CCOCC2)cc1NC(=O)c1ccccc1NC(=O)c1ccco1

>  <score_type>  (77) 
oracle

>  <origin>  (77) 
adg

>  <m_score__min__energy>  (77) 
-11.41

>  <m_primary>  (77) 
energy

$$$$
77:0
     RDKit          3D

 56 58  0  0  0  0  0  0  0  0999 V2000
   62.7510   31.4740   51.1840 O   0  0  0  0  0  0  0  0  0  0  0  0
   62.1620   31.0330   50.1610 C   0  0  0  0  0  0  0  0  0  0  0  0
   61.4670   29.7110   50.2230 C   0  0  0  0  0  0  0  0  0  0  0  0
   61.1080   29.2980   48.8750 N   0  0  0  0  0  0  0  0  0  0  0  0
   60.0820   29.9360   48.1070 C   0  0  0  0  0  0  0  0  0  0  0  0
   59.5970   31.0310   48.5010 O   0  0  0  0  0  0  0  0  0  0  0  0
   59.5900   29.3090   46.8580 C   0  0  0  0  0  0  0  0  0  0  0  0
   60.1630   28.1180   46.3830 C   0  0  0  0  0  0  0  0  0  0  0  0
   59.6960   27.5260   45.2080 C   0  0  0  0  0  0  0  0  0  0  0  0
   58.6460   28.1030   44.4890 C   0  0  0  0  0  0  0  0  0  0  0  0
   58.1270   27.2840   43.0200 Cl  0  0  0  0  0  0  0  0  0  0  0  0
   58.0480   29.2970   44.9570 C   0  0  0  0  0  0  0  0  0  0  0  0
   56.7070   30.0950   44.1130 S   0  0  0  0  0  0  0  0  0  0  0  0
   56.5690   29.5770   42.7070 O   0  0  0  0  0  0  0  0  0  0  0  0
   55.4300   29.7820   44.8430 O   0  0  0  0  0  0  0  0  0  0  0  0
   56.9510   31.8230   44.1170 N   0  0  0  0  0  0  0  0  0  0  0  0
   57.0610   32.3480   45.4750 C   0  0  0  0  0  0  0  0  0  0  0  0
   57.8420   33.6400   45.3580 C   0  0  0  0  0  0  0  0  0  0  0  0
   58.7510   33.4250   44.1570 C   0  0  0  0  0  0  0  0  0  0  0  0
   58.2040   32.1870   43.4490 C   0  0  0  0  0  0  0  0  0  0  0  0
   58.5370   29.8930   46.1310 C   0  0  0  0  0  0  0  0  0  0  0  0
   62.1980   31.7640   48.9270 N   0  0  0  0  0  0  0  0  0  0  0  0
   63.0500   32.9410   48.7320 C   0  0  0  0  0  0  0  0  0  0  0  0
   62.3900   34.1800   49.4050 C   0  0  0  0  0  0  0  0  0  0  0  0
   60.8480   34.2020   49.3690 C   0  0  0  0  0  0  0  0  0  0  0  0
   60.2150   34.2660   47.9530 C   0  0  0  0  0  0  0  0  0  0  0  0
   60.7700   33.2720   46.9160 C   0  0  0  0  0  0  0  0  0  0  0  0
   62.1730   33.6290   46.3900 C   0  0  0  0  0  0  0  0  0  0  0  0
   63.3470   33.0870   47.2210 C   0  0  0  0  0  0  0  0  0  0  0  0
   62.1376   28.9630   50.6711 H   0  0  0  0  0  0  0  0  0  0  0  0
   60.5591   29.7982   50.8379 H   0  0  0  0  0  0  0  0  0  0  0  0
   60.9862   27.6479   46.9411 H   0  0  0  0  0  0  0  0  0  0  0  0
   60.1590   26.5966   44.8449 H   0  0  0  0  0  0  0  0  0  0  0  0
   56.0619   32.5412   45.8927 H   0  0  0  0  0  0  0  0  0  0  0  0
   57.5607   31.6331   46.1453 H   0  0  0  0  0  0  0  0  0  0  0  0
   57.1651   34.4899   45.1866 H   0  0  0  0  0  0  0  0  0  0  0  0
   58.4050   33.8741   46.2735 H   0  0  0  0  0  0  0  0  0  0  0  0
   58.7169   34.2973   43.4878 H   0  0  0  0  0  0  0  0  0  0  0  0
   59.8009   33.2932   44.4577 H   0  0  0  0  0  0  0  0  0  0  0  0
   58.0143   32.4121   42.3891 H   0  0  0  0  0  0  0  0  0  0  0  0
   58.9265   31.3590   43.4968 H   0  0  0  0  0  0  0  0  0  0  0  0
   58.0890   30.8321   46.4879 H   0  0  0  0  0  0  0  0  0  0  0  0
   61.7550   31.3280   48.0840 H   0  0  0  0  0  0  0  0  0  0  0  0
   64.0270   32.8360   49.2265 H   0  0  0  0  0  0  0  0  0  0  0  0
   62.7064   34.2043   50.4582 H   0  0  0  0  0  0  0  0  0  0  0  0
   62.7218   35.0550   48.8268 H   0  0  0  0  0  0  0  0  0  0  0  0
   60.4841   33.2886   49.8622 H   0  0  0  0  0  0  0  0  0  0  0  0
   60.5466   35.1296   49.8775 H   0  0  0  0  0  0  0  0  0  0  0  0
   59.1369   34.0747   48.0581 H   0  0  0  0  0  0  0  0  0  0  0  0
   60.4611   35.2654   47.5648 H   0  0  0  0  0  0  0  0  0  0  0  0
   60.8190   32.2772   47.3829 H   0  0  0  0  0  0  0  0  0  0  0  0
   60.0901   33.3029   46.0518 H   0  0  0  0  0  0  0  0  0  0  0  0
   62.2653   33.2273   45.3701 H   0  0  0  0  0  0  0  0  0  0  0  0
   62.2459   34.7253   46.4420 H   0  0  0  0  0  0  0  0  0  0  0  0
   63.6184   32.0965   46.8270 H   0  0  0  0  0  0  0  0  0  0  0  0
   64.1596   33.8230   47.1316 H   0  0  0  0  0  0  0  0  0  0  0  0
  1  2  2  0
  2  3  1  0
  3  4  1  0
  4  5  1  0
  5  6  2  0
  5  7  1  0
  7  8  2  0
  8  9  1  0
  9 10  2  0
 10 11  1  0
 10 12  1  0
 12 13  1  0
 13 14  2  0
 13 15  2  0
 13 16  1  0
 16 17  1  0
 17 18  1  0
 18 19  1  0
 19 20  1  0
 12 21  2  0
  2 22  1  0
 22 23  1  0
 23 24  1  0
 24 25  1  0
 25 26  1  0
 26 27  1  0
 27 28  1  0
 28 29  1  0
 21  7  1  0
 29 23  1  0
 20 16  1  0
  3 30  1  0
  3 31  1  0
  8 32  1  0
  9 33  1  0
 17 34  1  0
 17 35  1  0
 18 36  1  0
 18 37  1  0
 19 38  1  0
 19 39  1  0
 20 40  1  0
 20 41  1  0
 21 42  1  0
 22 43  1  0
 23 44  1  0
 24 45  1  0
 24 46  1  0
 25 47  1  0
 25 48  1  0
 26 49  1  0
 26 50  1  0
 27 51  1  0
 27 52  1  0
 28 53  1  0
 28 54  1  0
 29 55  1  0
 29 56  1  0
M  CHG  1   4  -1
M  END
>  <UniqueID>  (78) 
70

>  <SMILES>  (78) 
O=C(C[N-]C(=O)c1ccc(Cl)c(S(=O)(=O)N2CCCC2)c1)NC1CCCCCC1

>  <Energy>  (78) 
62.72090703346594

>  <Genealogy>  (78) 
O=C(C[N-]C(=O)c1ccc(Cl)c(S(=O)(=O)N2CCCC2)c1)NC1CCCCCC1 (protonated)
O=C(C[N-]C(=O)c1ccc(Cl)c(S(=O)(=O)N2CCCC2)c1)NC1CCCCCC1 (3D coordinates assigned)
O=C(C[N-]C(=O)c1ccc(Cl)c(S(=O)(=O)N2CCCC2)c1)NC1CCCCCC1 (nonaromatic ring conformer: 62.72090703346594 kcal/mol)

>  <smiles>  (78) 
O=C(CNC(=O)c1ccc(Cl)c(S(=O)(=O)N2CCCC2)c1)NC1CCCCCC1

>  <score_type>  (78) 
oracle

>  <origin>  (78) 
adg

>  <m_score__min__energy>  (78) 
-8.9600000000000009

>  <m_primary>  (78) 
energy

$$$$
78:0
     RDKit          3D

 44 46  0  0  0  0  0  0  0  0999 V2000
   55.1640   26.7100   45.9990 N   0  0  0  0  0  0  0  0  0  0  0  0
   56.5110   26.2990   46.2180 C   0  0  0  0  0  0  0  0  0  0  0  0
   56.8400   25.7870   47.3220 O   0  0  0  0  0  0  0  0  0  0  0  0
   57.5420   26.5190   45.1580 C   0  0  0  0  0  0  0  0  0  0  0  0
   57.7760   27.9920   44.9620 C   0  0  0  0  0  0  0  0  0  0  0  0
   56.7830   28.7960   44.3800 C   0  0  0  0  0  0  0  0  0  0  0  0
   56.9860   30.1700   44.2290 C   0  0  0  0  0  0  0  0  0  0  0  0
   58.1820   30.7610   44.6650 C   0  0  0  0  0  0  0  0  0  0  0  0
   58.3990   32.2470   44.5280 C   0  0  0  0  0  0  0  0  0  0  0  0
   57.6240   33.0030   45.5390 N   0  0  0  0  0  0  0  0  0  0  0  0
   57.7990   32.4380   46.9050 C   0  0  0  0  0  0  0  0  0  0  0  0
   58.7350   33.2620   47.8140 C   0  0  0  0  0  0  0  0  0  0  0  0
   59.7560   33.9580   47.0210 N   0  0  0  0  0  0  0  0  0  0  0  0
   61.1590   33.8520   47.3560 C   0  0  0  0  0  0  0  0  0  0  0  0
   61.5560   33.9690   48.6540 N   0  0  0  0  0  0  0  0  0  0  0  0
   62.8620   33.8630   49.0070 C   0  0  0  0  0  0  0  0  0  0  0  0
   63.8280   33.6290   48.0330 C   0  0  0  0  0  0  0  0  0  0  0  0
   63.4160   33.5110   46.7070 C   0  0  0  0  0  0  0  0  0  0  0  0
   62.0990   33.6230   46.3890 N   0  0  0  0  0  0  0  0  0  0  0  0
   59.3100   34.8100   45.9120 C   0  0  0  0  0  0  0  0  0  0  0  0
   57.8720   34.4620   45.4950 C   0  0  0  0  0  0  0  0  0  0  0  0
   59.1700   29.9600   45.2590 C   0  0  0  0  0  0  0  0  0  0  0  0
   58.9660   28.5860   45.4100 C   0  0  0  0  0  0  0  0  0  0  0  0
   54.5870   27.0940   46.7800 H   0  0  0  0  0  0  0  0  0  0  0  0
   58.4838   26.0382   45.4612 H   0  0  0  0  0  0  0  0  0  0  0  0
   57.1859   26.0823   44.2133 H   0  0  0  0  0  0  0  0  0  0  0  0
   55.8402   28.3417   44.0411 H   0  0  0  0  0  0  0  0  0  0  0  0
   56.2050   30.7913   43.7664 H   0  0  0  0  0  0  0  0  0  0  0  0
   59.4688   32.4659   44.6603 H   0  0  0  0  0  0  0  0  0  0  0  0
   58.0575   32.5556   43.5289 H   0  0  0  0  0  0  0  0  0  0  0  0
   56.8109   32.3840   47.3854 H   0  0  0  0  0  0  0  0  0  0  0  0
   58.2667   31.4501   46.7815 H   0  0  0  0  0  0  0  0  0  0  0  0
   58.1395   34.0043   48.3657 H   0  0  0  0  0  0  0  0  0  0  0  0
   59.2386   32.5776   48.5125 H   0  0  0  0  0  0  0  0  0  0  0  0
   63.1568   33.9619   50.0621 H   0  0  0  0  0  0  0  0  0  0  0  0
   64.8905   33.5394   48.3031 H   0  0  0  0  0  0  0  0  0  0  0  0
   64.1579   33.3269   45.9160 H   0  0  0  0  0  0  0  0  0  0  0  0
   61.8300   33.5450   45.3830 H   0  0  0  0  0  0  0  0  0  0  0  0
   59.3480   35.8626   46.2291 H   0  0  0  0  0  0  0  0  0  0  0  0
   59.9749   34.6428   45.0518 H   0  0  0  0  0  0  0  0  0  0  0  0
   57.1717   34.9629   46.1797 H   0  0  0  0  0  0  0  0  0  0  0  0
   57.7246   34.8025   44.4595 H   0  0  0  0  0  0  0  0  0  0  0  0
   60.1086   30.4159   45.6070 H   0  0  0  0  0  0  0  0  0  0  0  0
   59.7424   27.9665   45.8826 H   0  0  0  0  0  0  0  0  0  0  0  0
  1  2  1  0
  2  3  2  0
  2  4  1  0
  4  5  1  0
  5  6  2  0
  6  7  1  0
  7  8  2  0
  8  9  1  0
  9 10  1  0
 10 11  1  0
 11 12  1  0
 12 13  1  0
 13 14  1  0
 14 15  2  0
 15 16  1  0
 16 17  2  0
 17 18  1  0
 18 19  2  0
 13 20  1  0
 20 21  1  0
  8 22  1  0
 22 23  2  0
 23  5  1  0
 21 10  1  0
 19 14  1  0
  1 24  1  0
  4 25  1  0
  4 26  1  0
  6 27  1  0
  7 28  1  0
  9 29  1  0
  9 30  1  0
 11 31  1  0
 11 32  1  0
 12 33  1  0
 12 34  1  0
 16 35  1  0
 17 36  1  0
 18 37  1  0
 19 38  1  0
 20 39  1  0
 20 40  1  0
 21 41  1  0
 21 42  1  0
 22 43  1  0
 23 44  1  0
M  CHG  2   1  -1  19   1
M  END
>  <UniqueID>  (79) 
71

>  <SMILES>  (79) 
[NH-]C(=O)Cc1ccc(CN2CCN(c3nccc[nH+]3)CC2)cc1

>  <Energy>  (79) 
53.75513559328864

>  <Genealogy>  (79) 
[NH-]C(=O)Cc1ccc(CN2CCN(c3nccc[nH+]3)CC2)cc1 (protonated)
[NH-]C(=O)Cc1ccc(CN2CCN(c3nccc[nH+]3)CC2)cc1 (3D coordinates assigned)
[NH-]C(=O)Cc1ccc(CN2CCN(c3nccc[nH+]3)CC2)cc1 (nonaromatic ring conformer: 53.75513559328864 kcal/mol)

>  <smiles>  (79) 
NC(=O)Cc1ccc(CN2CCN(c3ncccn3)CC2)cc1

>  <score_type>  (79) 
oracle

>  <origin>  (79) 
adg

>  <m_score__min__energy>  (79) 
-10.220000000000001

>  <m_primary>  (79) 
energy

$$$$
79:0
     RDKit          3D

 51 53  0  0  0  0  0  0  0  0999 V2000
   61.4897   30.2198   45.9711 H   0  0  0  0  0  0  0  0  0  0  0  0
   60.5080   29.7300   45.8920 C   0  0  0  0  0  0  0  0  0  0  0  0
   59.4850   30.0770   46.7730 C   0  0  0  0  0  0  0  0  0  0  0  0
   59.6601   30.8411   47.5447 H   0  0  0  0  0  0  0  0  0  0  0  0
   58.2390   29.4560   46.6770 C   0  0  0  0  0  0  0  0  0  0  0  0
   57.4340   29.7371   47.3719 H   0  0  0  0  0  0  0  0  0  0  0  0
   58.0050   28.4740   45.6990 C   0  0  0  0  0  0  0  0  0  0  0  0
   56.6410   27.8340   45.6210 C   0  0  0  0  0  0  0  0  0  0  0  0
   56.6623   27.0264   44.8744 H   0  0  0  0  0  0  0  0  0  0  0  0
   56.3809   27.4294   46.6103 H   0  0  0  0  0  0  0  0  0  0  0  0
   55.6360   28.8180   45.2350 N   0  0  0  0  0  0  0  0  0  0  0  0
   55.8840   29.8950   44.3290 C   0  0  0  0  0  0  0  0  0  0  0  0
   55.5950   29.7800   43.1060 O   0  0  0  0  0  0  0  0  0  0  0  0
   56.4490   31.0760   44.8190 O   0  0  0  0  0  0  0  0  0  0  0  0
   57.4550   31.8130   44.1250 C   0  0  0  0  0  0  0  0  0  0  0  0
   58.4461   31.4313   44.4116 H   0  0  0  0  0  0  0  0  0  0  0  0
   57.3013   31.6929   43.0424 H   0  0  0  0  0  0  0  0  0  0  0  0
   57.3670   33.3010   44.4760 C   0  0  0  0  0  0  0  0  0  0  0  0
   57.6238   33.8975   43.5882 H   0  0  0  0  0  0  0  0  0  0  0  0
   56.3417   33.5276   44.8037 H   0  0  0  0  0  0  0  0  0  0  0  0
   58.3180   33.6400   45.5910 C   0  0  0  0  0  0  0  0  0  0  0  0
   59.4410   34.4460   45.3420 C   0  0  0  0  0  0  0  0  0  0  0  0
   59.6125   34.8498   44.3333 H   0  0  0  0  0  0  0  0  0  0  0  0
   60.3410   34.7370   46.3700 C   0  0  0  0  0  0  0  0  0  0  0  0
   61.2065   35.3864   46.1722 H   0  0  0  0  0  0  0  0  0  0  0  0
   60.1460   34.2040   47.6560 C   0  0  0  0  0  0  0  0  0  0  0  0
   61.0310   34.5210   48.7400 N   0  0  0  0  0  0  0  0  0  0  0  0
   62.1760   33.9530   48.9850 C   0  0  0  0  0  0  0  0  0  0  0  0
   62.9040   34.1110   50.1900 N   0  0  0  0  0  0  0  0  0  0  0  0
   62.6710   34.7740   50.9620 H   0  0  0  0  0  0  0  0  0  0  0  0
   64.1880   33.4470   50.0730 C   0  0  0  0  0  0  0  0  0  0  0  0
   64.3366   32.7515   50.9122 H   0  0  0  0  0  0  0  0  0  0  0  0
   65.0183   34.1681   50.0964 H   0  0  0  0  0  0  0  0  0  0  0  0
   64.1470   32.6770   48.7410 C   0  0  0  0  0  0  0  0  0  0  0  0
   64.0556   31.5974   48.9312 H   0  0  0  0  0  0  0  0  0  0  0  0
   65.0690   32.8406   48.1639 H   0  0  0  0  0  0  0  0  0  0  0  0
   62.9210   33.1820   47.9700 C   0  0  0  0  0  0  0  0  0  0  0  0
   62.3191   32.3421   47.5929 H   0  0  0  0  0  0  0  0  0  0  0  0
   63.1849   33.7785   47.0842 H   0  0  0  0  0  0  0  0  0  0  0  0
   59.0140   33.4220   47.9100 C   0  0  0  0  0  0  0  0  0  0  0  0
   58.8314   33.0378   48.9244 H   0  0  0  0  0  0  0  0  0  0  0  0
   58.1140   33.1260   46.8830 C   0  0  0  0  0  0  0  0  0  0  0  0
   57.2417   32.4876   47.0867 H   0  0  0  0  0  0  0  0  0  0  0  0
   59.0370   28.1250   44.7990 C   0  0  0  0  0  0  0  0  0  0  0  0
   58.7900   27.1520   43.8170 O   0  0  0  0  0  0  0  0  0  0  0  0
   57.8800   27.3090   42.7330 C   0  0  0  0  0  0  0  0  0  0  0  0
   56.8677   27.4836   43.1264 H   0  0  0  0  0  0  0  0  0  0  0  0
   58.1874   28.1674   42.1176 H   0  0  0  0  0  0  0  0  0  0  0  0
   57.8820   26.3972   42.1176 H   0  0  0  0  0  0  0  0  0  0  0  0
   60.2900   28.7630   44.9100 C   0  0  0  0  0  0  0  0  0  0  0  0
   61.1016   28.4962   44.2171 H   0  0  0  0  0  0  0  0  0  0  0  0
  1  2  1  0
  2  3  2  0
  3  4  1  0
  3  5  1  0
  5  6  1  0
  5  7  2  0
  7  8  1  0
  8  9  1  0
  8 10  1  0
  8 11  1  0
 11 12  1  0
 12 13  2  0
 12 14  1  0
 14 15  1  0
 15 16  1  0
 15 17  1  0
 15 18  1  0
 18 19  1  0
 18 20  1  0
 18 21  1  0
 21 22  2  0
 22 23  1  0
 22 24  1  0
 24 25  1  0
 24 26  2  0
 26 27  1  0
 27 28  2  0
 28 29  1  0
 29 30  1  0
 29 31  1  0
 31 32  1  0
 31 33  1  0
 31 34  1  0
 34 35  1  0
 34 36  1  0
 34 37  1  0
 37 38  1  0
 37 39  1  0
 26 40  1  0
 40 41  1  0
 40 42  2  0
 42 43  1  0
  7 44  1  0
 44 45  1  0
 45 46  1  0
 46 47  1  0
 46 48  1  0
 46 49  1  0
 44 50  2  0
 50 51  1  0
 50  2  1  0
 42 21  1  0
 37 28  1  0
M  CHG  1  11  -1
M  END
>  <UniqueID>  (80) 
72

>  <SMILES>  (80) 
COc1ccccc1C[N-]C(=O)OCCc1ccc(/N=C2/CCCN2)cc1

>  <Energy>  (80) 
57.80309274486761

>  <Genealogy>  (80) 
COc1ccccc1C[N-]C(=O)OCCc1ccc(N=C2CCCN2)cc1 (protonated)
COc1ccccc1C[N-]C(=O)OCCc1ccc(/N=C2/CCCN2)cc1 (cis-trans isomerization)
COc1ccccc1C[N-]C(=O)OCCc1ccc(/N=C2/CCCN2)cc1 (3D coordinates assigned)
COc1ccccc1C[N-]C(=O)OCCc1ccc(/N=C2/CCCN2)cc1 (nonaromatic ring conformer: 57.80309274486761 kcal/mol)

>  <smiles>  (80) 
COc1ccccc1CNC(=O)OCCc1ccc(N=C2CCCN2)cc1

>  <score_type>  (80) 
oracle

>  <origin>  (80) 
adg

>  <m_score__min__energy>  (80) 
-9.9700000000000006

>  <m_primary>  (80) 
energy

$$$$
80:0
     RDKit          3D

 58 61  0  0  0  0  0  0  0  0999 V2000
   57.9850   29.7260   44.0970 C   0  0  0  0  0  0  0  0  0  0  0  0
   58.2210   29.2490   45.3290 C   0  0  0  0  0  0  0  0  0  0  0  0
   58.0090   27.9380   45.7900 C   0  0  0  0  0  0  0  0  0  0  0  0
   57.6990   26.8060   45.1300 C   0  0  0  0  0  0  0  0  0  0  0  0
   57.0000   25.6430   45.7020 C   0  0  0  0  0  0  0  0  0  0  0  0
   57.5960   24.4890   46.0570 N   0  0  0  0  0  0  0  0  0  0  0  0
   56.6020   23.7970   46.6530 C   0  0  0  0  0  0  0  0  0  0  0  0
   56.7660   22.6380   47.1150 O   0  0  0  0  0  0  0  0  0  0  0  0
   55.4210   24.4480   46.7250 N   0  0  0  0  0  0  0  0  0  0  0  0
   55.6960   25.6200   46.1310 C   0  0  0  0  0  0  0  0  0  0  0  0
   54.7750   26.6500   45.9890 O   0  0  0  0  0  0  0  0  0  0  0  0
   58.2090   27.9730   47.1610 C   0  0  0  0  0  0  0  0  0  0  0  0
   58.5870   29.2610   47.4790 C   0  0  0  0  0  0  0  0  0  0  0  0
   58.9270   29.7380   48.8580 C   0  0  0  0  0  0  0  0  0  0  0  0
   58.6060   30.0310   46.3710 N   0  0  0  0  0  0  0  0  0  0  0  0
   58.8780   31.4430   46.3470 C   0  0  0  0  0  0  0  0  0  0  0  0
   57.9600   32.3250   45.7680 C   0  0  0  0  0  0  0  0  0  0  0  0
   58.2260   33.6950   45.7360 C   0  0  0  0  0  0  0  0  0  0  0  0
   59.4160   34.2070   46.2800 C   0  0  0  0  0  0  0  0  0  0  0  0
   59.6720   35.6870   46.1980 C   0  0  0  0  0  0  0  0  0  0  0  0
   60.3330   33.3190   46.8980 C   0  0  0  0  0  0  0  0  0  0  0  0
   61.5850   33.7800   47.5440 C   0  0  0  0  0  0  0  0  0  0  0  0
   61.4820   34.6440   48.4600 O   0  0  0  0  0  0  0  0  0  0  0  0
   62.8890   33.2240   47.1960 N   0  0  0  0  0  0  0  0  0  0  0  0
   64.0060   33.8530   47.9370 C   0  0  0  0  0  0  0  0  0  0  0  0
   63.9760   33.5150   49.4340 C   0  0  0  0  0  0  0  0  0  0  0  0
   63.8770   32.0630   49.6400 N   0  0  0  0  0  0  0  0  0  0  0  0
   64.4320   31.4850   50.8450 C   0  0  0  0  0  0  0  0  0  0  0  0
   64.0560   30.1090   51.3090 C   0  0  0  0  0  0  0  0  0  0  0  0
   65.2680   32.1360   51.5280 O   0  0  0  0  0  0  0  0  0  0  0  0
   62.8930   31.3230   48.8360 C   0  0  0  0  0  0  0  0  0  0  0  0
   62.9530   31.7530   47.3610 C   0  0  0  0  0  0  0  0  0  0  0  0
   60.0660   31.9410   46.8940 C   0  0  0  0  0  0  0  0  0  0  0  0
   58.1965   30.7804   43.8656 H   0  0  0  0  0  0  0  0  0  0  0  0
   57.5801   29.0626   43.3186 H   0  0  0  0  0  0  0  0  0  0  0  0
   57.9934   26.7447   44.0719 H   0  0  0  0  0  0  0  0  0  0  0  0
   58.0892   27.1337   47.8619 H   0  0  0  0  0  0  0  0  0  0  0  0
   58.4562   29.0774   49.6009 H   0  0  0  0  0  0  0  0  0  0  0  0
   60.0186   29.7221   48.9928 H   0  0  0  0  0  0  0  0  0  0  0  0
   58.5559   30.7647   48.9928 H   0  0  0  0  0  0  0  0  0  0  0  0
   57.0252   31.9379   45.3364 H   0  0  0  0  0  0  0  0  0  0  0  0
   57.4965   34.3807   45.2802 H   0  0  0  0  0  0  0  0  0  0  0  0
   59.7440   36.1035   47.2136 H   0  0  0  0  0  0  0  0  0  0  0  0
   60.6146   35.8668   45.6602 H   0  0  0  0  0  0  0  0  0  0  0  0
   58.8446   36.1730   45.6602 H   0  0  0  0  0  0  0  0  0  0  0  0
   63.0420   33.4110   46.1790 H   0  0  0  0  0  0  0  0  0  0  0  0
   64.9565   33.4970   47.5130 H   0  0  0  0  0  0  0  0  0  0  0  0
   63.9044   34.9437   47.8364 H   0  0  0  0  0  0  0  0  0  0  0  0
   64.8988   33.8839   49.9054 H   0  0  0  0  0  0  0  0  0  0  0  0
   63.0960   33.9958   49.8862 H   0  0  0  0  0  0  0  0  0  0  0  0
   64.0487   30.0821   52.4086 H   0  0  0  0  0  0  0  0  0  0  0  0
   63.0554   29.8547   50.9293 H   0  0  0  0  0  0  0  0  0  0  0  0
   64.7882   29.3812   50.9293 H   0  0  0  0  0  0  0  0  0  0  0  0
   63.1076   30.2464   48.9061 H   0  0  0  0  0  0  0  0  0  0  0  0
   61.8872   31.5410   49.2244 H   0  0  0  0  0  0  0  0  0  0  0  0
   63.8957   31.3898   46.9257 H   0  0  0  0  0  0  0  0  0  0  0  0
   62.0793   31.3211   46.8510 H   0  0  0  0  0  0  0  0  0  0  0  0
   60.7993   31.2442   47.3260 H   0  0  0  0  0  0  0  0  0  0  0  0
  1  2  2  0
  2  3  1  0
  3  4  2  3
  4  5  1  0
  5  6  1  0
  6  7  1  0
  7  8  2  0
  7  9  1  0
  9 10  1  0
 10 11  1  0
  3 12  1  0
 12 13  2  0
 13 14  1  0
 13 15  1  0
 15 16  1  0
 16 17  2  0
 17 18  1  0
 18 19  2  0
 19 20  1  0
 19 21  1  0
 21 22  1  0
 22 23  2  0
 22 24  1  0
 24 25  1  0
 25 26  1  0
 26 27  1  0
 27 28  1  0
 28 29  1  0
 28 30  2  0
 27 31  1  0
 31 32  1  0
 21 33  2  0
 15  2  1  0
 33 16  1  0
 10  5  2  0
 32 24  1  0
  1 34  1  0
  1 35  1  0
  4 36  1  0
 12 37  1  0
 14 38  1  0
 14 39  1  0
 14 40  1  0
 17 41  1  0
 18 42  1  0
 20 43  1  0
 20 44  1  0
 20 45  1  0
 24 46  1  0
 25 47  1  0
 25 48  1  0
 26 49  1  0
 26 50  1  0
 29 51  1  0
 29 52  1  0
 29 53  1  0
 31 54  1  0
 31 55  1  0
 32 56  1  0
 32 57  1  0
 33 58  1  0
M  CHG  4   6  -1   9  -1  11  -1  24   1
M  END
>  <UniqueID>  (81) 
73

>  <SMILES>  (81) 
C=c1c(=Cc2[n-]c(=O)[n-]c2[O-])cc(C)n1-c1ccc(C)c(C(=O)[NH+]2CCN(C(C)=O)CC2)c1

>  <Energy>  (81) 
148.25374522282846

>  <Genealogy>  (81) 
C=c1c(=Cc2[n-]c(=O)[n-]c2[O-])cc(C)n1-c1ccc(C)c(C(=O)[NH+]2CCN(C(C)=O)CC2)c1 (protonated)
C=c1c(=Cc2[n-]c(=O)[n-]c2[O-])cc(C)n1-c1ccc(C)c(C(=O)[NH+]2CCN(C(C)=O)CC2)c1 (3D coordinates assigned)
C=c1c(=Cc2[n-]c(=O)[n-]c2[O-])cc(C)n1-c1ccc(C)c(C(=O)[NH+]2CCN(C(C)=O)CC2)c1 (nonaromatic ring conformer: 148.25374522282846 kcal/mol)

>  <smiles>  (81) 
C=c1c(=Cc2[nH]c(=O)[nH]c2O)cc(C)n1-c1ccc(C)c(C(=O)N2CCN(C(C)=O)CC2)c1

>  <score_type>  (81) 
oracle

>  <origin>  (81) 
adg

>  <m_score__min__energy>  (81) 
-15.73

>  <m_primary>  (81) 
energy

$$$$
81:0
     RDKit          3D

 60 63  0  0  0  0  0  0  0  0999 V2000
   65.9120   33.5790   51.2470 C   0  0  0  0  0  0  0  0  0  0  0  0
   65.2100   32.4690   50.5230 C   0  0  0  0  0  0  0  0  0  0  0  0
   65.6720   31.3000   50.6360 O   0  0  0  0  0  0  0  0  0  0  0  0
   64.0470   32.7090   49.6970 N   0  0  0  0  0  0  0  0  0  0  0  0
   63.1520   31.5830   49.3690 C   0  0  0  0  0  0  0  0  0  0  0  0
   62.5430   31.7590   47.9760 C   0  0  0  0  0  0  0  0  0  0  0  0
   61.9940   33.1110   47.8540 N   0  0  0  0  0  0  0  0  0  0  0  0
   60.5730   33.3350   47.9050 C   0  0  0  0  0  0  0  0  0  0  0  0
   60.1120   34.2170   48.6810 O   0  0  0  0  0  0  0  0  0  0  0  0
   59.6400   32.5560   47.0560 C   0  0  0  0  0  0  0  0  0  0  0  0
   59.2740   33.0220   45.7810 C   0  0  0  0  0  0  0  0  0  0  0  0
   58.3940   32.2840   44.9840 C   0  0  0  0  0  0  0  0  0  0  0  0
   57.8650   31.0710   45.4480 C   0  0  0  0  0  0  0  0  0  0  0  0
   56.9340   30.2600   44.5900 C   0  0  0  0  0  0  0  0  0  0  0  0
   57.6140   29.1310   44.0430 O   0  0  0  0  0  0  0  0  0  0  0  0
   58.8120   28.5820   44.5330 C   0  0  0  0  0  0  0  0  0  0  0  0
   59.9890   29.3480   44.6500 C   0  0  0  0  0  0  0  0  0  0  0  0
   61.1460   28.7880   45.1930 C   0  0  0  0  0  0  0  0  0  0  0  0
   61.1460   27.4620   45.6280 C   0  0  0  0  0  0  0  0  0  0  0  0
   59.9900   26.6890   45.5090 C   0  0  0  0  0  0  0  0  0  0  0  0
   58.8270   27.2300   44.9410 C   0  0  0  0  0  0  0  0  0  0  0  0
   57.6480   26.4140   44.8630 N   0  0  0  0  0  0  0  0  0  0  0  0
   56.9050   25.9930   46.0160 C   0  0  0  0  0  0  0  0  0  0  0  0
   57.0130   26.6340   47.0970 O   0  0  0  0  0  0  0  0  0  0  0  0
   55.9690   24.8480   45.9400 C   0  0  0  0  0  0  0  0  0  0  0  0
   56.4720   23.5370   45.8740 C   0  0  0  0  0  0  0  0  0  0  0  0
   55.6000   22.4510   45.8080 C   0  0  0  0  0  0  0  0  0  0  0  0
   54.2230   22.6780   45.7990 C   0  0  0  0  0  0  0  0  0  0  0  0
   53.4220   21.7090   45.7440 O   0  0  0  0  0  0  0  0  0  0  0  0
   53.7460   23.9490   45.8440 N   0  0  0  0  0  0  0  0  0  0  0  0
   54.5710   25.0290   45.9060 C   0  0  0  0  0  0  0  0  0  0  0  0
   54.0120   26.3020   45.9090 O   0  0  0  0  0  0  0  0  0  0  0  0
   58.2090   30.6160   46.7290 C   0  0  0  0  0  0  0  0  0  0  0  0
   59.0880   31.3540   47.5290 C   0  0  0  0  0  0  0  0  0  0  0  0
   62.9270   34.2130   48.0870 C   0  0  0  0  0  0  0  0  0  0  0  0
   63.5390   34.0780   49.4830 C   0  0  0  0  0  0  0  0  0  0  0  0
   65.8160   33.4272   52.3322 H   0  0  0  0  0  0  0  0  0  0  0  0
   66.9765   33.5819   50.9699 H   0  0  0  0  0  0  0  0  0  0  0  0
   65.4584   34.5420   50.9699 H   0  0  0  0  0  0  0  0  0  0  0  0
   63.7274   30.6459   49.3950 H   0  0  0  0  0  0  0  0  0  0  0  0
   62.3378   31.5537   50.1080 H   0  0  0  0  0  0  0  0  0  0  0  0
   63.3212   31.6084   47.2133 H   0  0  0  0  0  0  0  0  0  0  0  0
   61.7404   31.0212   47.8293 H   0  0  0  0  0  0  0  0  0  0  0  0
   59.6825   33.9729   45.4084 H   0  0  0  0  0  0  0  0  0  0  0  0
   58.1150   32.6568   43.9874 H   0  0  0  0  0  0  0  0  0  0  0  0
   56.0888   29.9119   45.2019 H   0  0  0  0  0  0  0  0  0  0  0  0
   56.5708   30.8904   43.7650 H   0  0  0  0  0  0  0  0  0  0  0  0
   59.9957   30.3944   44.3110 H   0  0  0  0  0  0  0  0  0  0  0  0
   62.0605   29.3933   45.2784 H   0  0  0  0  0  0  0  0  0  0  0  0
   62.0568   27.0262   46.0645 H   0  0  0  0  0  0  0  0  0  0  0  0
   59.9909   25.6476   45.8633 H   0  0  0  0  0  0  0  0  0  0  0  0
   57.2320   26.2370   43.9200 H   0  0  0  0  0  0  0  0  0  0  0  0
   57.5588   23.3671   45.8744 H   0  0  0  0  0  0  0  0  0  0  0  0
   55.9937   21.4249   45.7634 H   0  0  0  0  0  0  0  0  0  0  0  0
   57.7855   29.6738   47.1069 H   0  0  0  0  0  0  0  0  0  0  0  0
   59.3484   30.9909   48.5342 H   0  0  0  0  0  0  0  0  0  0  0  0
   63.7263   34.1823   47.3319 H   0  0  0  0  0  0  0  0  0  0  0  0
   62.3893   35.1698   48.0138 H   0  0  0  0  0  0  0  0  0  0  0  0
   64.3698   34.7919   49.5841 H   0  0  0  0  0  0  0  0  0  0  0  0
   62.7624   34.2894   50.2328 H   0  0  0  0  0  0  0  0  0  0  0  0
  1  2  1  0
  2  3  2  0
  2  4  1  0
  4  5  1  0
  5  6  1  0
  6  7  1  0
  7  8  1  0
  8  9  2  0
  8 10  1  0
 10 11  2  0
 11 12  1  0
 12 13  2  0
 13 14  1  0
 14 15  1  0
 15 16  1  0
 16 17  2  0
 17 18  1  0
 18 19  2  0
 19 20  1  0
 20 21  2  0
 21 22  1  0
 22 23  1  0
 23 24  2  0
 23 25  1  0
 25 26  1  0
 26 27  2  0
 27 28  1  0
 28 29  2  0
 28 30  1  0
 30 31  1  0
 31 32  1  0
 13 33  1  0
 33 34  2  0
  7 35  1  0
 35 36  1  0
 36  4  1  0
 34 10  1  0
 21 16  1  0
 31 25  2  0
  1 37  1  0
  1 38  1  0
  1 39  1  0
  5 40  1  0
  5 41  1  0
  6 42  1  0
  6 43  1  0
 11 44  1  0
 12 45  1  0
 14 46  1  0
 14 47  1  0
 17 48  1  0
 18 49  1  0
 19 50  1  0
 20 51  1  0
 22 52  1  0
 26 53  1  0
 27 54  1  0
 33 55  1  0
 34 56  1  0
 35 57  1  0
 35 58  1  0
 36 59  1  0
 36 60  1  0
M  CHG  2  30  -1  32  -1
M  END
>  <UniqueID>  (82) 
74

>  <SMILES>  (82) 
CC(=O)N1CCN(C(=O)c2ccc(COc3ccccc3NC(=O)c3ccc(=O)[n-]c3[O-])cc2)CC1

>  <Energy>  (82) 
76.86740701291717

>  <Genealogy>  (82) 
CC(=O)N1CCN(C(=O)c2ccc(COc3ccccc3NC(=O)c3ccc(=O)[n-]c3[O-])cc2)CC1 (protonated)
CC(=O)N1CCN(C(=O)c2ccc(COc3ccccc3NC(=O)c3ccc(=O)[n-]c3[O-])cc2)CC1 (3D coordinates assigned)
CC(=O)N1CCN(C(=O)c2ccc(COc3ccccc3NC(=O)c3ccc(=O)[n-]c3[O-])cc2)CC1 (nonaromatic ring conformer: 76.86740701291717 kcal/mol)

>  <smiles>  (82) 
CC(=O)N1CCN(C(=O)c2ccc(COc3ccccc3NC(=O)c3ccc(=O)[nH]c3O)cc2)CC1

>  <score_type>  (82) 
oracle

>  <origin>  (82) 
adg

>  <m_score__min__energy>  (82) 
-14.710000000000001

>  <m_primary>  (82) 
energy

$$$$
82:0
     RDKit          3D

 45 47  0  0  0  0  0  0  0  0999 V2000
   55.1540   27.8760   45.0410 H   0  0  0  0  0  0  0  0  0  0  0  0
   55.5210   27.1520   45.6470 O   0  0  0  0  0  0  0  0  0  0  0  0
   56.8870   26.8920   45.7600 C   0  0  0  0  0  0  0  0  0  0  0  0
   57.3140   25.8470   46.5830 C   0  0  0  0  0  0  0  0  0  0  0  0
   56.5761   25.2425   47.1308 H   0  0  0  0  0  0  0  0  0  0  0  0
   58.6760   25.5690   46.7110 C   0  0  0  0  0  0  0  0  0  0  0  0
   59.0164   24.7403   47.3493 H   0  0  0  0  0  0  0  0  0  0  0  0
   59.6010   26.3530   46.0210 C   0  0  0  0  0  0  0  0  0  0  0  0
   60.6776   26.1508   46.1218 H   0  0  0  0  0  0  0  0  0  0  0  0
   59.1710   27.3670   45.2240 N   0  0  0  0  0  0  0  0  0  0  0  0
   57.8470   27.6510   45.0610 C   0  0  0  0  0  0  0  0  0  0  0  0
   57.4640   28.6270   44.2870 N   0  0  0  0  0  0  0  0  0  0  0  0
   56.6640   29.7570   44.6720 C   0  0  0  0  0  0  0  0  0  0  0  0
   55.4150   29.6850   44.5210 O   0  0  0  0  0  0  0  0  0  0  0  0
   57.2620   31.0160   45.1780 C   0  0  0  0  0  0  0  0  0  0  0  0
   57.0210   32.2270   44.5140 C   0  0  0  0  0  0  0  0  0  0  0  0
   56.3849   32.2408   43.6167 H   0  0  0  0  0  0  0  0  0  0  0  0
   57.5830   33.4160   44.9840 C   0  0  0  0  0  0  0  0  0  0  0  0
   57.3811   34.3599   44.4564 H   0  0  0  0  0  0  0  0  0  0  0  0
   58.4050   33.4180   46.1260 C   0  0  0  0  0  0  0  0  0  0  0  0
   58.9780   34.6010   46.6200 O   0  0  0  0  0  0  0  0  0  0  0  0
   59.9900   35.3480   45.9580 C   0  0  0  0  0  0  0  0  0  0  0  0
   60.6397   35.8275   46.7050 H   0  0  0  0  0  0  0  0  0  0  0  0
   60.5901   34.6747   45.3284 H   0  0  0  0  0  0  0  0  0  0  0  0
   59.5234   36.1199   45.3284 H   0  0  0  0  0  0  0  0  0  0  0  0
   58.6640   32.2000   46.7870 C   0  0  0  0  0  0  0  0  0  0  0  0
   59.6930   32.1390   48.2290 S   0  0  0  0  0  0  0  0  0  0  0  0
   59.9820   30.7020   48.5650 O   0  0  0  0  0  0  0  0  0  0  0  0
   58.9650   32.7430   49.3970 O   0  0  0  0  0  0  0  0  0  0  0  0
   61.2040   32.9830   47.9890 N   0  0  0  0  0  0  0  0  0  0  0  0
   62.1920   32.1070   47.3430 C   0  0  0  0  0  0  0  0  0  0  0  0
   62.3793   31.2332   47.9845 H   0  0  0  0  0  0  0  0  0  0  0  0
   61.8011   31.7767   46.3693 H   0  0  0  0  0  0  0  0  0  0  0  0
   63.5130   32.8750   47.1260 C   0  0  0  0  0  0  0  0  0  0  0  0
   64.3373   32.2932   47.5643 H   0  0  0  0  0  0  0  0  0  0  0  0
   63.6511   33.0110   46.0432 H   0  0  0  0  0  0  0  0  0  0  0  0
   63.4900   34.1590   47.7270 O   0  0  0  0  0  0  0  0  0  0  0  0
   63.1540   34.0390   49.0960 C   0  0  0  0  0  0  0  0  0  0  0  0
   63.8699   33.3607   49.5833 H   0  0  0  0  0  0  0  0  0  0  0  0
   63.1941   35.0383   49.5539 H   0  0  0  0  0  0  0  0  0  0  0  0
   61.7280   33.4770   49.2720 C   0  0  0  0  0  0  0  0  0  0  0  0
   61.7526   32.6487   49.9954 H   0  0  0  0  0  0  0  0  0  0  0  0
   61.0723   34.2814   49.6367 H   0  0  0  0  0  0  0  0  0  0  0  0
   58.1040   31.0110   46.3010 C   0  0  0  0  0  0  0  0  0  0  0  0
   58.3275   30.0601   46.8068 H   0  0  0  0  0  0  0  0  0  0  0  0
  1  2  1  0
  2  3  1  0
  3  4  2  0
  4  5  1  0
  4  6  1  0
  6  7  1  0
  6  8  2  0
  8  9  1  0
  8 10  1  0
 10 11  1  0
 11 12  2  0
 12 13  1  0
 13 14  2  0
 13 15  1  0
 15 16  2  0
 16 17  1  0
 16 18  1  0
 18 19  1  0
 18 20  2  0
 20 21  1  0
 21 22  1  0
 22 23  1  0
 22 24  1  0
 22 25  1  0
 20 26  1  0
 26 27  1  0
 27 28  2  0
 27 29  2  0
 27 30  1  0
 30 31  1  0
 31 32  1  0
 31 33  1  0
 31 34  1  0
 34 35  1  0
 34 36  1  0
 34 37  1  0
 37 38  1  0
 38 39  1  0
 38 40  1  0
 38 41  1  0
 41 42  1  0
 41 43  1  0
 26 44  2  0
 44 45  1  0
 11  3  1  0
 44 15  1  0
 41 30  1  0
M  CHG  1  10  -1
M  END
>  <UniqueID>  (83) 
75

>  <SMILES>  (83) 
COc1ccc(C(=O)/N=c2\[n-]cccc2O)cc1S(=O)(=O)N1CCOCC1

>  <Energy>  (83) 
62.16626369305038

>  <Genealogy>  (83) 
COc1ccc(C(=O)N=c2[n-]cccc2O)cc1S(=O)(=O)N1CCOCC1 (protonated)
COc1ccc(C(=O)/N=c2\[n-]cccc2O)cc1S(=O)(=O)N1CCOCC1 (cis-trans isomerization)
COc1ccc(C(=O)/N=c2\[n-]cccc2O)cc1S(=O)(=O)N1CCOCC1 (3D coordinates assigned)
COc1ccc(C(=O)/N=c2\[n-]cccc2O)cc1S(=O)(=O)N1CCOCC1 (nonaromatic ring conformer: 62.16626369305038 kcal/mol)

>  <smiles>  (83) 
COc1ccc(C(=O)N=c2[nH]cccc2O)cc1S(=O)(=O)N1CCOCC1

>  <score_type>  (83) 
oracle

>  <origin>  (83) 
adg

>  <m_score__min__energy>  (83) 
-10.460000000000001

>  <m_primary>  (83) 
energy

$$$$
83:0
     RDKit          3D

 50 52  0  0  0  0  0  0  0  0999 V2000
   57.2016   31.9031   42.9384 H   0  0  0  0  0  0  0  0  0  0  0  0
   57.0750   31.5430   43.9700 C   0  0  0  0  0  0  0  0  0  0  0  0
   56.2870   30.4810   44.1770 C   0  0  0  0  0  0  0  0  0  0  0  0
   55.2060   30.6330   44.3123 H   0  0  0  0  0  0  0  0  0  0  0  0
   56.8430   29.0870   44.2290 C   0  0  0  0  0  0  0  0  0  0  0  0
   56.4144   28.5054   43.3995 H   0  0  0  0  0  0  0  0  0  0  0  0
   56.5756   28.6574   45.2057 H   0  0  0  0  0  0  0  0  0  0  0  0
   58.3850   29.0580   44.1100 C   0  0  0  0  0  0  0  0  0  0  0  0
   58.7928   29.7475   44.8639 H   0  0  0  0  0  0  0  0  0  0  0  0
   58.6055   29.3420   43.0704 H   0  0  0  0  0  0  0  0  0  0  0  0
   59.0360   27.7300   44.3080 N   0  0  1  0  0  0  0  0  0  0  0  0
   59.7050   27.6290   43.5070 H   0  0  0  0  0  0  0  0  0  0  0  0
   59.8350   27.6840   45.5640 C   0  0  0  0  0  0  0  0  0  0  0  0
   60.8645   27.9994   45.3391 H   0  0  0  0  0  0  0  0  0  0  0  0
   59.8024   26.6521   45.9437 H   0  0  0  0  0  0  0  0  0  0  0  0
   59.2670   28.6000   46.6540 C   0  0  0  0  0  0  0  0  0  0  0  0
   59.5198   28.1924   47.6439 H   0  0  0  0  0  0  0  0  0  0  0  0
   59.7001   29.6058   46.5501 H   0  0  0  0  0  0  0  0  0  0  0  0
   58.1735   28.6592   46.5501 H   0  0  0  0  0  0  0  0  0  0  0  0
   58.0970   26.5790   44.2360 C   0  0  0  0  0  0  0  0  0  0  0  0
   57.0905   26.9608   44.0097 H   0  0  0  0  0  0  0  0  0  0  0  0
   58.4642   25.9021   43.4505 H   0  0  0  0  0  0  0  0  0  0  0  0
   58.0340   25.7750   45.5460 C   0  0  0  0  0  0  0  0  0  0  0  0
   58.9004   25.0992   45.5985 H   0  0  0  0  0  0  0  0  0  0  0  0
   58.0481   26.4744   46.3949 H   0  0  0  0  0  0  0  0  0  0  0  0
   56.7720   24.9660   45.6030 C   0  0  0  0  0  0  0  0  0  0  0  0
   55.4860   25.4310   45.8450 C   0  0  0  0  0  0  0  0  0  0  0  0
   55.1470   26.7680   46.0100 O   0  0  0  0  0  0  0  0  0  0  0  0
   54.5800   24.4270   45.9160 N   0  0  0  0  0  0  0  0  0  0  0  0
   55.3140   23.3120   45.7290 C   0  0  0  0  0  0  0  0  0  0  0  0
   54.8450   22.0000   45.7320 C   0  0  0  0  0  0  0  0  0  0  0  0
   53.7769   21.7809   45.8778 H   0  0  0  0  0  0  0  0  0  0  0  0
   55.7780   20.9630   45.5430 C   0  0  0  0  0  0  0  0  0  0  0  0
   55.2390   19.2940   45.5410 Cl  0  0  0  0  0  0  0  0  0  0  0  0
   57.1480   21.2590   45.3620 C   0  0  0  0  0  0  0  0  0  0  0  0
   57.8695   20.4410   45.2194 H   0  0  0  0  0  0  0  0  0  0  0  0
   57.5950   22.5920   45.3630 C   0  0  0  0  0  0  0  0  0  0  0  0
   58.6590   22.8344   45.2248 H   0  0  0  0  0  0  0  0  0  0  0  0
   56.6450   23.5970   45.5450 C   0  0  0  0  0  0  0  0  0  0  0  0
   57.7860   32.2600   45.0540 C   0  0  0  0  0  0  0  0  0  0  0  0
   58.0520   33.6300   44.8970 C   0  0  0  0  0  0  0  0  0  0  0  0
   57.7431   34.1429   43.9742 H   0  0  0  0  0  0  0  0  0  0  0  0
   58.7060   34.3480   45.9030 C   0  0  0  0  0  0  0  0  0  0  0  0
   58.9169   35.4188   45.7652 H   0  0  0  0  0  0  0  0  0  0  0  0
   59.0920   33.7070   47.0830 C   0  0  0  0  0  0  0  0  0  0  0  0
   59.9090   34.6100   48.3460 Cl  0  0  0  0  0  0  0  0  0  0  0  0
   58.8180   32.3480   47.2600 C   0  0  0  0  0  0  0  0  0  0  0  0
   59.1168   31.8450   48.1915 H   0  0  0  0  0  0  0  0  0  0  0  0
   58.1650   31.6260   46.2560 C   0  0  0  0  0  0  0  0  0  0  0  0
   57.9458   30.5583   46.4042 H   0  0  0  0  0  0  0  0  0  0  0  0
  1  2  1  0
  2  3  2  0
  3  4  1  0
  3  5  1  0
  5  6  1  0
  5  7  1  0
  5  8  1  0
  8  9  1  0
  8 10  1  0
  8 11  1  0
 11 12  1  6
 11 13  1  0
 13 14  1  0
 13 15  1  0
 13 16  1  0
 16 17  1  0
 16 18  1  0
 16 19  1  0
 11 20  1  0
 20 21  1  0
 20 22  1  0
 20 23  1  0
 23 24  1  0
 23 25  1  0
 23 26  1  0
 26 27  2  0
 27 28  1  0
 27 29  1  0
 29 30  1  0
 30 31  2  0
 31 32  1  0
 31 33  1  0
 33 34  1  0
 33 35  2  0
 35 36  1  0
 35 37  1  0
 37 38  1  0
 37 39  2  0
  2 40  1  0
 40 41  2  0
 41 42  1  0
 41 43  1  0
 43 44  1  0
 43 45  2  0
 45 46  1  0
 45 47  1  0
 47 48  1  0
 47 49  2  0
 49 50  1  0
 39 26  1  0
 49 40  1  0
 39 30  1  0
M  CHG  3  11   1  28  -1  29  -1
M  END
>  <UniqueID>  (84) 
76

>  <SMILES>  (84) 
CC[N@H+](CC/C=C/c1ccc(Cl)cc1)CCc1c([O-])[n-]c2cc(Cl)ccc12

>  <Energy>  (84) 
87.59831888219752

>  <Genealogy>  (84) 
CC[NH+](CCC=Cc1ccc(Cl)cc1)CCc1c([O-])[n-]c2cc(Cl)ccc12 (protonated)
CC[N@H+](CCC=Cc1ccc(Cl)cc1)CCc1c([O-])[n-]c2cc(Cl)ccc12 (chirality)
CC[N@H+](CC/C=C/c1ccc(Cl)cc1)CCc1c([O-])[n-]c2cc(Cl)ccc12 (cis-trans isomerization)
CC[N@H+](CC/C=C/c1ccc(Cl)cc1)CCc1c([O-])[n-]c2cc(Cl)ccc12 (3D coordinates assigned)
CC[N@H+](CC/C=C/c1ccc(Cl)cc1)CCc1c([O-])[n-]c2cc(Cl)ccc12 (optimized conformer: 87.59831888219752 kcal/mol)

>  <smiles>  (84) 
CCN(CCC=Cc1ccc(Cl)cc1)CCc1c(O)[nH]c2cc(Cl)ccc12

>  <score_type>  (84) 
oracle

>  <origin>  (84) 
adg

>  <m_score__min__energy>  (84) 
-12.23

>  <m_primary>  (84) 
energy

$$$$
84:0
     RDKit          3D

 40 42  0  0  0  0  0  0  0  0999 V2000
   53.4590   30.3120   54.5710 C   0  0  0  0  0  0  0  0  0  0  0  0
   52.8710   30.9030   53.3210 C   0  0  0  0  0  0  0  0  0  0  0  0
   51.6780   31.5570   53.4080 N   0  0  0  0  0  0  0  0  0  0  0  0
   51.0800   32.1250   52.3300 C   0  0  0  0  0  0  0  0  0  0  0  0
   49.9770   32.7210   52.4670 O   0  0  0  0  0  0  0  0  0  0  0  0
   51.6900   32.0470   51.0750 C   0  0  0  0  0  0  0  0  0  0  0  0
   51.0910   32.6230   49.9600 O   0  0  0  0  0  0  0  0  0  0  0  0
   52.9120   31.3850   50.9480 C   0  0  0  0  0  0  0  0  0  0  0  0
   53.5290   30.8160   52.0720 C   0  0  0  0  0  0  0  0  0  0  0  0
   54.8420   30.0840   51.9060 C   0  0  0  0  0  0  0  0  0  0  0  0
   55.9240   31.0240   51.6210 N   0  0  0  0  0  0  0  0  0  0  0  0
   57.2910   30.5920   51.5530 C   0  0  0  0  0  0  0  0  0  0  0  0
   57.5820   29.3890   51.7910 O   0  0  0  0  0  0  0  0  0  0  0  0
   58.3550   31.5430   51.1530 C   0  0  0  0  0  0  0  0  0  0  0  0
   58.8250   32.4530   52.1150 C   0  0  0  0  0  0  0  0  0  0  0  0
   59.7810   33.4070   51.7660 C   0  0  0  0  0  0  0  0  0  0  0  0
   60.1990   34.2230   52.6270 O   0  0  0  0  0  0  0  0  0  0  0  0
   60.2600   33.4610   50.4980 N   0  0  0  0  0  0  0  0  0  0  0  0
   59.8450   32.5960   49.5350 C   0  0  0  0  0  0  0  0  0  0  0  0
   60.3820   32.6940   48.2460 C   0  0  0  0  0  0  0  0  0  0  0  0
   59.9930   31.7970   47.2520 C   0  0  0  0  0  0  0  0  0  0  0  0
   59.0780   30.7800   47.5420 C   0  0  0  0  0  0  0  0  0  0  0  0
   58.5970   29.6360   46.2920 S   0  0  0  0  0  0  0  0  0  0  0  0
   57.0710   30.1140   45.6360 N   0  0  0  0  0  0  0  0  0  0  0  0
   59.6260   29.6090   45.1970 O   0  0  0  0  0  0  0  0  0  0  0  0
   58.4840   28.2590   46.8830 O   0  0  0  0  0  0  0  0  0  0  0  0
   58.5280   30.6780   48.8290 C   0  0  0  0  0  0  0  0  0  0  0  0
   58.8860   31.5970   49.8380 C   0  0  0  0  0  0  0  0  0  0  0  0
   52.9940   30.7794   55.4515 H   0  0  0  0  0  0  0  0  0  0  0  0
   53.2701   29.2285   54.5883 H   0  0  0  0  0  0  0  0  0  0  0  0
   54.5435   30.4954   54.5883 H   0  0  0  0  0  0  0  0  0  0  0  0
   53.3936   31.3090   49.9619 H   0  0  0  0  0  0  0  0  0  0  0  0
   55.0717   29.5392   52.8336 H   0  0  0  0  0  0  0  0  0  0  0  0
   54.7520   29.3820   51.0640 H   0  0  0  0  0  0  0  0  0  0  0  0
   55.7060   32.0380   51.4760 H   0  0  0  0  0  0  0  0  0  0  0  0
   58.4387   32.4131   53.1442 H   0  0  0  0  0  0  0  0  0  0  0  0
   61.1141   33.4822   48.0163 H   0  0  0  0  0  0  0  0  0  0  0  0
   60.4069   31.8895   46.2370 H   0  0  0  0  0  0  0  0  0  0  0  0
   56.8520   29.4500   44.8600 H   0  0  0  0  0  0  0  0  0  0  0  0
   57.8113   29.8743   49.0532 H   0  0  0  0  0  0  0  0  0  0  0  0
  1  2  1  0
  2  3  1  0
  3  4  1  0
  4  5  2  0
  4  6  1  0
  6  7  1  0
  6  8  2  0
  8  9  1  0
  9 10  1  0
 10 11  1  0
 11 12  1  0
 12 13  2  0
 12 14  1  0
 14 15  2  0
 15 16  1  0
 16 17  2  0
 16 18  1  0
 18 19  1  0
 19 20  2  0
 20 21  1  0
 21 22  2  0
 22 23  1  0
 23 24  1  0
 23 25  2  0
 23 26  2  0
 22 27  1  0
 27 28  2  0
  9  2  2  0
 28 14  1  0
 28 19  1  0
  1 29  1  0
  1 30  1  0
  1 31  1  0
  8 32  1  0
 10 33  1  0
 10 34  1  0
 11 35  1  0
 15 36  1  0
 20 37  1  0
 21 38  1  0
 24 39  1  0
 27 40  1  0
M  CHG  4   3  -1   7  -1  18  -1  24  -1
M  END
>  <UniqueID>  (85) 
77

>  <SMILES>  (85) 
Cc1[n-]c(=O)c([O-])cc1CNC(=O)c1cc(=O)[n-]c2ccc(S([NH-])(=O)=O)cc12

>  <Energy>  (85) 
51.84946689992408

>  <Genealogy>  (85) 
Cc1[n-]c(=O)c([O-])cc1CNC(=O)c1cc(=O)[n-]c2ccc(S([NH-])(=O)=O)cc12 (protonated)
Cc1[n-]c(=O)c([O-])cc1CNC(=O)c1cc(=O)[n-]c2ccc(S([NH-])(=O)=O)cc12 (3D coordinates assigned)
Cc1[n-]c(=O)c([O-])cc1CNC(=O)c1cc(=O)[n-]c2ccc(S([NH-])(=O)=O)cc12 (optimized conformer: 51.84946689992408 kcal/mol)

>  <smiles>  (85) 
Cc1[nH]c(=O)c(O)cc1CNC(=O)c1cc(=O)[nH]c2ccc(S(N)(=O)=O)cc12

>  <score_type>  (85) 
oracle

>  <origin>  (85) 
adg

>  <m_score__min__energy>  (85) 
-16.600000000000001

>  <m_primary>  (85) 
energy

$$$$
85:0
     RDKit          3D

 44 46  0  0  0  0  0  0  0  0999 V2000
   57.3000   30.6130   45.6380 O   0  0  0  0  0  0  0  0  0  0  0  0
   58.2460   30.4530   46.4560 C   0  0  0  0  0  0  0  0  0  0  0  0
   58.5700   29.0800   46.9550 C   0  0  0  0  0  0  0  0  0  0  0  0
   57.8240   28.0800   46.1970 N   0  0  0  0  0  0  0  0  0  0  0  0
   58.2620   27.6190   44.9060 C   0  0  0  0  0  0  0  0  0  0  0  0
   59.2160   28.1960   44.3120 O   0  0  0  0  0  0  0  0  0  0  0  0
   57.6540   26.3910   44.3050 C   0  0  0  0  0  0  0  0  0  0  0  0
   57.1730   25.4800   45.3910 C   0  0  0  0  0  0  0  0  0  0  0  0
   57.9880   24.1110   45.9440 S   0  0  0  0  0  0  0  0  0  0  0  0
   56.8390   23.8020   47.1330 C   0  0  0  0  0  0  0  0  0  0  0  0
   56.8910   22.8260   47.9330 O   0  0  0  0  0  0  0  0  0  0  0  0
   55.8450   24.7150   47.1400 N   0  0  0  0  0  0  0  0  0  0  0  0
   56.0350   25.6550   46.1750 C   0  0  0  0  0  0  0  0  0  0  0  0
   55.1490   26.7050   45.9900 O   0  0  0  0  0  0  0  0  0  0  0  0
   58.9690   31.5760   46.9720 N   0  0  0  0  0  0  0  0  0  0  0  0
   59.0390   32.8880   46.3920 C   0  0  0  0  0  0  0  0  0  0  0  0
   58.0970   33.3110   45.4370 C   0  0  0  0  0  0  0  0  0  0  0  0
   58.2150   34.5680   44.8370 C   0  0  0  0  0  0  0  0  0  0  0  0
   59.2790   35.4060   45.1770 C   0  0  0  0  0  0  0  0  0  0  0  0
   60.2350   34.9880   46.1060 C   0  0  0  0  0  0  0  0  0  0  0  0
   60.1260   33.7300   46.7140 C   0  0  0  0  0  0  0  0  0  0  0  0
   61.1410   33.2970   47.6400 N   0  0  0  0  0  0  0  0  0  0  0  0
   61.1090   33.7640   49.0300 C   0  0  0  0  0  0  0  0  0  0  0  0
   62.4690   33.5250   49.6950 C   0  0  0  0  0  0  0  0  0  0  0  0
   63.4970   33.7780   48.7590 O   0  0  0  0  0  0  0  0  0  0  0  0
   63.5520   32.7390   47.7930 C   0  0  0  0  0  0  0  0  0  0  0  0
   62.1660   32.3240   47.2420 C   0  0  0  0  0  0  0  0  0  0  0  0
   59.6480   28.8955   46.8375 H   0  0  0  0  0  0  0  0  0  0  0  0
   58.2907   29.0083   48.0165 H   0  0  0  0  0  0  0  0  0  0  0  0
   56.9890   27.6360   46.6430 H   0  0  0  0  0  0  0  0  0  0  0  0
   56.8054   26.6785   43.6669 H   0  0  0  0  0  0  0  0  0  0  0  0
   58.4111   25.8688   43.7016 H   0  0  0  0  0  0  0  0  0  0  0  0
   57.2630   32.6491   45.1608 H   0  0  0  0  0  0  0  0  0  0  0  0
   57.4701   34.8969   44.0974 H   0  0  0  0  0  0  0  0  0  0  0  0
   59.3647   36.3990   44.7116 H   0  0  0  0  0  0  0  0  0  0  0  0
   61.0765   35.6488   46.3612 H   0  0  0  0  0  0  0  0  0  0  0  0
   60.8789   34.8395   49.0477 H   0  0  0  0  0  0  0  0  0  0  0  0
   60.3356   33.2078   49.5799 H   0  0  0  0  0  0  0  0  0  0  0  0
   62.5811   34.2008   50.5557 H   0  0  0  0  0  0  0  0  0  0  0  0
   62.5327   32.4823   50.0397 H   0  0  0  0  0  0  0  0  0  0  0  0
   64.1718   33.0808   46.9510 H   0  0  0  0  0  0  0  0  0  0  0  0
   63.9743   31.8563   48.2956 H   0  0  0  0  0  0  0  0  0  0  0  0
   62.2126   32.2763   46.1440 H   0  0  0  0  0  0  0  0  0  0  0  0
   61.9002   31.3393   47.6539 H   0  0  0  0  0  0  0  0  0  0  0  0
  1  2  2  0
  2  3  1  0
  3  4  1  0
  4  5  1  0
  5  6  2  0
  5  7  1  0
  7  8  1  0
  8  9  1  0
  9 10  1  0
 10 11  2  0
 10 12  1  0
 12 13  1  0
 13 14  1  0
  2 15  1  0
 15 16  1  0
 16 17  2  0
 17 18  1  0
 18 19  2  0
 19 20  1  0
 20 21  2  0
 21 22  1  0
 22 23  1  0
 23 24  1  0
 24 25  1  0
 25 26  1  0
 26 27  1  0
 13  8  2  0
 21 16  1  0
 27 22  1  0
  3 28  1  0
  3 29  1  0
  4 30  1  0
  7 31  1  0
  7 32  1  0
 17 33  1  0
 18 34  1  0
 19 35  1  0
 20 36  1  0
 23 37  1  0
 23 38  1  0
 24 39  1  0
 24 40  1  0
 26 41  1  0
 26 42  1  0
 27 43  1  0
 27 44  1  0
M  CHG  3  12  -1  14  -1  15  -1
M  END
>  <UniqueID>  (86) 
78

>  <SMILES>  (86) 
O=C(CNC(=O)Cc1sc(=O)[n-]c1[O-])[N-]c1ccccc1N1CCOCC1

>  <Energy>  (86) 
82.3567251644644

>  <Genealogy>  (86) 
O=C(CNC(=O)Cc1sc(=O)[n-]c1[O-])[N-]c1ccccc1N1CCOCC1 (protonated)
O=C(CNC(=O)Cc1sc(=O)[n-]c1[O-])[N-]c1ccccc1N1CCOCC1 (3D coordinates assigned)
O=C(CNC(=O)Cc1sc(=O)[n-]c1[O-])[N-]c1ccccc1N1CCOCC1 (nonaromatic ring conformer: 82.3567251644644 kcal/mol)

>  <smiles>  (86) 
O=C(Cc1sc(=O)[nH]c1O)NCC(=O)Nc1ccccc1N1CCOCC1

>  <score_type>  (86) 
oracle

>  <origin>  (86) 
adg

>  <m_score__min__energy>  (86) 
-16.370000000000001

>  <m_primary>  (86) 
energy

$$$$
86:0
     RDKit          3D

 44 47  0  0  0  0  0  0  0  0999 V2000
   57.3650   18.9500   46.0270 N   0  0  0  0  0  0  0  0  0  0  0  0
   56.0310   19.9540   45.5810 S   0  0  0  0  0  0  0  0  0  0  0  0
   54.9210   19.7850   46.5790 O   0  0  0  0  0  0  0  0  0  0  0  0
   55.5250   19.5490   44.2240 O   0  0  0  0  0  0  0  0  0  0  0  0
   56.5510   21.6360   45.5450 C   0  0  0  0  0  0  0  0  0  0  0  0
   56.2150   22.5020   46.5920 C   0  0  0  0  0  0  0  0  0  0  0  0
   56.6400   23.8330   46.5680 C   0  0  0  0  0  0  0  0  0  0  0  0
   57.4060   24.3220   45.4940 C   0  0  0  0  0  0  0  0  0  0  0  0
   57.8550   25.7380   45.4920 C   0  0  0  0  0  0  0  0  0  0  0  0
   56.9530   26.7960   45.2830 C   0  0  0  0  0  0  0  0  0  0  0  0
   57.4170   28.1210   45.2890 C   0  0  0  0  0  0  0  0  0  0  0  0
   56.5360   29.2000   45.0830 C   0  0  0  0  0  0  0  0  0  0  0  0
   55.1780   28.9830   44.8700 O   0  0  0  0  0  0  0  0  0  0  0  0
   57.0190   30.5110   45.0930 C   0  0  0  0  0  0  0  0  0  0  0  0
   58.3830   30.7750   45.2980 C   0  0  0  0  0  0  0  0  0  0  0  0
   58.8920   32.1670   45.3250 C   0  0  0  0  0  0  0  0  0  0  0  0
   58.5570   32.9560   44.3990 O   0  0  0  0  0  0  0  0  0  0  0  0
   59.7810   32.6670   46.4030 C   0  0  0  0  0  0  0  0  0  0  0  0
   59.4360   33.8270   47.1170 C   0  0  0  0  0  0  0  0  0  0  0  0
   60.2580   34.2970   48.1460 C   0  0  0  0  0  0  0  0  0  0  0  0
   61.4270   33.6070   48.4800 C   0  0  0  0  0  0  0  0  0  0  0  0
   62.4570   34.1980   49.7710 Cl  0  0  0  0  0  0  0  0  0  0  0  0
   61.7710   32.4430   47.7870 C   0  0  0  0  0  0  0  0  0  0  0  0
   60.9520   31.9700   46.7580 C   0  0  0  0  0  0  0  0  0  0  0  0
   59.2600   29.7020   45.5230 C   0  0  0  0  0  0  0  0  0  0  0  0
   58.7900   28.3760   45.5160 C   0  0  0  0  0  0  0  0  0  0  0  0
   59.6550   27.2860   45.7340 C   0  0  0  0  0  0  0  0  0  0  0  0
   60.8840   27.4670   45.9460 O   0  0  0  0  0  0  0  0  0  0  0  0
   59.1670   26.0190   45.7170 N   0  0  0  0  0  0  0  0  0  0  0  0
   57.7570   23.4390   44.4550 C   0  0  0  0  0  0  0  0  0  0  0  0
   57.3310   22.1080   44.4820 C   0  0  0  0  0  0  0  0  0  0  0  0
   58.1690   19.2210   45.4170 H   0  0  0  0  0  0  0  0  0  0  0  0
   57.6280   19.2080   47.0050 H   0  0  0  0  0  0  0  0  0  0  0  0
   55.6143   22.1336   47.4367 H   0  0  0  0  0  0  0  0  0  0  0  0
   56.3730   24.5050   47.3970 H   0  0  0  0  0  0  0  0  0  0  0  0
   55.8863   26.5861   45.1152 H   0  0  0  0  0  0  0  0  0  0  0  0
   56.3216   31.3475   44.9382 H   0  0  0  0  0  0  0  0  0  0  0  0
   58.5128   34.3692   46.8647 H   0  0  0  0  0  0  0  0  0  0  0  0
   59.9843   35.2110   48.6934 H   0  0  0  0  0  0  0  0  0  0  0  0
   62.6888   31.8977   48.0522 H   0  0  0  0  0  0  0  0  0  0  0  0
   61.2236   31.0483   46.2225 H   0  0  0  0  0  0  0  0  0  0  0  0
   60.3263   29.9003   45.7068 H   0  0  0  0  0  0  0  0  0  0  0  0
   58.3708   23.7991   43.6162 H   0  0  0  0  0  0  0  0  0  0  0  0
   57.6099   21.4276   43.6639 H   0  0  0  0  0  0  0  0  0  0  0  0
  1  2  1  0
  2  3  2  0
  2  4  2  0
  2  5  1  0
  5  6  2  0
  6  7  1  0
  7  8  2  0
  8  9  1  0
  9 10  2  0
 10 11  1  0
 11 12  2  0
 12 13  1  0
 12 14  1  0
 14 15  2  0
 15 16  1  0
 16 17  2  0
 16 18  1  0
 18 19  2  0
 19 20  1  0
 20 21  2  0
 21 22  1  0
 21 23  1  0
 23 24  2  0
 15 25  1  0
 25 26  2  0
 26 27  1  0
 27 28  2  0
 27 29  1  0
  8 30  1  0
 30 31  2  0
 31  5  1  0
 29  9  1  0
 26 11  1  0
 24 18  1  0
  1 32  1  0
  1 33  1  0
  6 34  1  0
  7 35  1  0
 10 36  1  0
 14 37  1  0
 19 38  1  0
 20 39  1  0
 23 40  1  0
 24 41  1  0
 25 42  1  0
 30 43  1  0
 31 44  1  0
M  CHG  2  13  -1  29  -1
M  END
>  <UniqueID>  (87) 
79

>  <SMILES>  (87) 
NS(=O)(=O)c1ccc(-c2cc3c([O-])cc(C(=O)c4ccc(Cl)cc4)cc3c(=O)[n-]2)cc1

>  <Energy>  (87) 
64.08611144201832

>  <Genealogy>  (87) 
NS(=O)(=O)c1ccc(-c2cc3c([O-])cc(C(=O)c4ccc(Cl)cc4)cc3c(=O)[n-]2)cc1 (protonated)
NS(=O)(=O)c1ccc(-c2cc3c([O-])cc(C(=O)c4ccc(Cl)cc4)cc3c(=O)[n-]2)cc1 (3D coordinates assigned)
NS(=O)(=O)c1ccc(-c2cc3c([O-])cc(C(=O)c4ccc(Cl)cc4)cc3c(=O)[n-]2)cc1 (optimized conformer: 64.08611144201832 kcal/mol)

>  <smiles>  (87) 
NS(=O)(=O)c1ccc(-c2cc3c(O)cc(C(=O)c4ccc(Cl)cc4)cc3c(=O)[nH]2)cc1

>  <score_type>  (87) 
oracle

>  <origin>  (87) 
adg

>  <m_score__min__energy>  (87) 
-13.1

>  <m_primary>  (87) 
energy

$$$$
87:0
     RDKit          3D

 53 57  0  0  0  0  0  0  0  0999 V2000
   54.7510   31.5290   51.9820 C   0  0  0  0  0  0  0  0  0  0  0  0
   54.4490   30.5990   52.9020 C   0  0  0  0  0  0  0  0  0  0  0  0
   53.1730   30.1170   53.2390 C   0  0  0  0  0  0  0  0  0  0  0  0
   51.9710   30.3100   52.6620 C   0  0  0  0  0  0  0  0  0  0  0  0
   51.7460   30.6870   51.2560 C   0  0  0  0  0  0  0  0  0  0  0  0
   51.7920   29.8430   50.2120 N   0  0  0  0  0  0  0  0  0  0  0  0
   51.3720   30.5770   49.1630 C   0  0  0  0  0  0  0  0  0  0  0  0
   51.2890   30.1190   47.9930 O   0  0  0  0  0  0  0  0  0  0  0  0
   51.0340   31.8460   49.4790 N   0  0  0  0  0  0  0  0  0  0  0  0
   51.2600   31.8930   50.8060 C   0  0  0  0  0  0  0  0  0  0  0  0
   51.0190   33.0130   51.5910 O   0  0  0  0  0  0  0  0  0  0  0  0
   53.3450   29.3100   54.3530 C   0  0  0  0  0  0  0  0  0  0  0  0
   54.6970   29.2810   54.6210 C   0  0  0  0  0  0  0  0  0  0  0  0
   55.3340   28.4920   55.7240 C   0  0  0  0  0  0  0  0  0  0  0  0
   55.3690   30.0520   53.7370 N   0  0  0  0  0  0  0  0  0  0  0  0
   56.7870   30.2860   53.7510 C   0  0  0  0  0  0  0  0  0  0  0  0
   57.4680   30.4310   54.9670 C   0  0  0  0  0  0  0  0  0  0  0  0
   58.8480   30.6390   54.9770 C   0  0  0  0  0  0  0  0  0  0  0  0
   59.5590   30.6920   53.7750 C   0  0  0  0  0  0  0  0  0  0  0  0
   58.8940   30.5300   52.5450 C   0  0  0  0  0  0  0  0  0  0  0  0
   59.6170   30.5880   51.3000 N   0  0  0  0  0  0  0  0  0  0  0  0
   59.2790   29.8190   50.0930 C   0  0  0  0  0  0  0  0  0  0  0  0
   60.2520   30.3270   49.0680 C   0  0  0  0  0  0  0  0  0  0  0  0
   60.3740   29.9430   47.7340 C   0  0  0  0  0  0  0  0  0  0  0  0
   61.3780   30.5380   46.9510 C   0  0  0  0  0  0  0  0  0  0  0  0
   62.2530   31.5060   47.5130 C   0  0  0  0  0  0  0  0  0  0  0  0
   63.2710   32.1200   46.7670 O   0  0  0  0  0  0  0  0  0  0  0  0
   63.7440   33.4440   46.9910 C   0  0  0  0  0  0  0  0  0  0  0  0
   62.1080   31.8710   48.8630 C   0  0  0  0  0  0  0  0  0  0  0  0
   61.0990   31.2650   49.6100 C   0  0  0  0  0  0  0  0  0  0  0  0
   60.7290   31.4320   50.9920 C   0  0  0  0  0  0  0  0  0  0  0  0
   61.3310   32.1610   51.8240 O   0  0  0  0  0  0  0  0  0  0  0  0
   57.5020   30.3360   52.5450 C   0  0  0  0  0  0  0  0  0  0  0  0
   55.7993   31.8179   51.8155 H   0  0  0  0  0  0  0  0  0  0  0  0
   53.9502   32.0021   51.3948 H   0  0  0  0  0  0  0  0  0  0  0  0
   51.0816   30.1745   53.2950 H   0  0  0  0  0  0  0  0  0  0  0  0
   52.0560   28.8320   50.2140 H   0  0  0  0  0  0  0  0  0  0  0  0
   52.5542   28.7920   54.9154 H   0  0  0  0  0  0  0  0  0  0  0  0
   55.0103   28.8930   56.6958 H   0  0  0  0  0  0  0  0  0  0  0  0
   55.0309   27.4377   55.6430 H   0  0  0  0  0  0  0  0  0  0  0  0
   56.4285   28.5661   55.6430 H   0  0  0  0  0  0  0  0  0  0  0  0
   56.9137   30.3808   55.9158 H   0  0  0  0  0  0  0  0  0  0  0  0
   59.3774   30.7615   55.9334 H   0  0  0  0  0  0  0  0  0  0  0  0
   60.6458   30.8615   53.7902 H   0  0  0  0  0  0  0  0  0  0  0  0
   59.4148   28.7408   50.2632 H   0  0  0  0  0  0  0  0  0  0  0  0
   58.2301   29.9437   49.7860 H   0  0  0  0  0  0  0  0  0  0  0  0
   59.6984   29.1897   47.3027 H   0  0  0  0  0  0  0  0  0  0  0  0
   61.4872   30.2519   45.8945 H   0  0  0  0  0  0  0  0  0  0  0  0
   63.8109   33.6313   48.0729 H   0  0  0  0  0  0  0  0  0  0  0  0
   64.7391   33.5597   46.5366 H   0  0  0  0  0  0  0  0  0  0  0  0
   63.0475   34.1640   46.5366 H   0  0  0  0  0  0  0  0  0  0  0  0
   62.7751   32.6173   49.3191 H   0  0  0  0  0  0  0  0  0  0  0  0
   56.9679   30.2223   51.5901 H   0  0  0  0  0  0  0  0  0  0  0  0
  1  2  2  0
  2  3  1  0
  3  4  2  3
  4  5  1  0
  5  6  1  0
  6  7  1  0
  7  8  2  0
  7  9  1  0
  9 10  1  0
 10 11  1  0
  3 12  1  0
 12 13  2  0
 13 14  1  0
 13 15  1  0
 15 16  1  0
 16 17  2  0
 17 18  1  0
 18 19  2  0
 19 20  1  0
 20 21  1  0
 21 22  1  0
 22 23  1  0
 23 24  2  0
 24 25  1  0
 25 26  2  0
 26 27  1  0
 27 28  1  0
 26 29  1  0
 29 30  2  0
 30 31  1  0
 31 32  2  0
 20 33  2  0
 15  2  1  0
 33 16  1  0
 10  5  2  0
 31 21  1  0
 30 23  1  0
  1 34  1  0
  1 35  1  0
  4 36  1  0
  6 37  1  0
 12 38  1  0
 14 39  1  0
 14 40  1  0
 14 41  1  0
 17 42  1  0
 18 43  1  0
 19 44  1  0
 22 45  1  0
 22 46  1  0
 24 47  1  0
 25 48  1  0
 28 49  1  0
 28 50  1  0
 28 51  1  0
 29 52  1  0
 33 53  1  0
M  CHG  2   9  -1  11  -1
M  END
>  <UniqueID>  (88) 
80

>  <SMILES>  (88) 
C=c1c(=Cc2[nH]c(=O)[n-]c2[O-])cc(C)n1-c1cccc(N2Cc3ccc(OC)cc3C2=O)c1

>  <Energy>  (88) 
160.34293107730772

>  <Genealogy>  (88) 
C=c1c(=Cc2[nH]c(=O)[n-]c2[O-])cc(C)n1-c1cccc(N2Cc3ccc(OC)cc3C2=O)c1 (protonated)
C=c1c(=Cc2[nH]c(=O)[n-]c2[O-])cc(C)n1-c1cccc(N2Cc3ccc(OC)cc3C2=O)c1 (3D coordinates assigned)
C=c1c(=Cc2[nH]c(=O)[n-]c2[O-])cc(C)n1-c1cccc(N2Cc3ccc(OC)cc3C2=O)c1 (nonaromatic ring conformer: 160.34293107730772 kcal/mol)

>  <smiles>  (88) 
C=c1c(=Cc2[nH]c(=O)[nH]c2O)cc(C)n1-c1cccc(N2Cc3ccc(OC)cc3C2=O)c1

>  <score_type>  (88) 
oracle

>  <origin>  (88) 
adg

>  <m_score__min__energy>  (88) 
-15.460000000000001

>  <m_primary>  (88) 
energy

$$$$
88:0
     RDKit          3D

 48 50  0  0  0  0  0  0  0  0999 V2000
   58.8930   32.6500   49.7320 C   0  0  0  0  0  0  0  0  0  0  0  0
   58.5540   32.2000   48.4260 O   0  0  0  0  0  0  0  0  0  0  0  0
   58.7030   32.9630   47.2560 C   0  0  0  0  0  0  0  0  0  0  0  0
   59.1640   34.2940   47.2940 C   0  0  0  0  0  0  0  0  0  0  0  0
   59.3020   35.0270   46.1150 C   0  0  0  0  0  0  0  0  0  0  0  0
   58.9770   34.4520   44.8880 C   0  0  0  0  0  0  0  0  0  0  0  0
   58.5140   33.1350   44.8350 C   0  0  0  0  0  0  0  0  0  0  0  0
   58.3790   32.3790   46.0110 C   0  0  0  0  0  0  0  0  0  0  0  0
   57.8600   30.9660   45.9380 C   0  0  0  0  0  0  0  0  0  0  0  0
   56.7710   30.8800   44.9700 N   0  0  0  0  0  0  0  0  0  0  0  0
   56.1200   29.6560   44.6120 C   0  0  0  0  0  0  0  0  0  0  0  0
   54.9710   29.6770   44.0980 O   0  0  0  0  0  0  0  0  0  0  0  0
   56.7960   28.3460   44.8700 C   0  0  0  0  0  0  0  0  0  0  0  0
   55.9030   27.4640   45.6170 N   0  0  0  0  0  0  0  0  0  0  0  0
   56.2780   26.2770   46.3300 C   0  0  0  0  0  0  0  0  0  0  0  0
   55.5520   25.2560   46.2040 O   0  0  0  0  0  0  0  0  0  0  0  0
   57.5690   26.1860   47.1170 C   0  0  0  0  0  0  0  0  0  0  0  0
   58.7800   26.7790   46.3800 C   0  0  0  0  0  0  0  0  0  0  0  0
   59.5170   27.7890   47.2080 C   0  0  0  0  0  0  0  0  0  0  0  0
   59.6230   27.6180   48.5530 N   0  0  0  0  0  0  0  0  0  0  0  0
   60.2970   28.5030   49.3310 C   0  0  0  0  0  0  0  0  0  0  0  0
   60.3750   28.3010   50.5720 O   0  0  0  0  0  0  0  0  0  0  0  0
   60.9030   29.6260   48.7430 C   0  0  0  0  0  0  0  0  0  0  0  0
   61.6210   30.5780   49.4890 C   0  0  0  0  0  0  0  0  0  0  0  0
   62.1970   31.6790   48.8500 C   0  0  0  0  0  0  0  0  0  0  0  0
   62.0640   31.8390   47.4650 C   0  0  0  0  0  0  0  0  0  0  0  0
   61.3550   30.8960   46.7150 C   0  0  0  0  0  0  0  0  0  0  0  0
   60.7740   29.7910   47.3450 C   0  0  0  0  0  0  0  0  0  0  0  0
   60.0890   28.8720   46.6170 N   0  0  0  0  0  0  0  0  0  0  0  0
   58.4074   32.0054   50.4795 H   0  0  0  0  0  0  0  0  0  0  0  0
   59.9842   32.6059   49.8633 H   0  0  0  0  0  0  0  0  0  0  0  0
   58.5495   33.6867   49.8633 H   0  0  0  0  0  0  0  0  0  0  0  0
   59.4166   34.7578   48.2589 H   0  0  0  0  0  0  0  0  0  0  0  0
   59.6689   36.0633   46.1542 H   0  0  0  0  0  0  0  0  0  0  0  0
   59.0850   35.0349   43.9614 H   0  0  0  0  0  0  0  0  0  0  0  0
   58.2532   32.6867   43.8649 H   0  0  0  0  0  0  0  0  0  0  0  0
   58.6749   30.2948   45.6291 H   0  0  0  0  0  0  0  0  0  0  0  0
   57.4849   30.6691   46.9285 H   0  0  0  0  0  0  0  0  0  0  0  0
   57.0557   27.8745   43.9107 H   0  0  0  0  0  0  0  0  0  0  0  0
   57.7090   28.5195   45.4585 H   0  0  0  0  0  0  0  0  0  0  0  0
   57.4380   26.7292   48.0645 H   0  0  0  0  0  0  0  0  0  0  0  0
   57.7774   25.1174   47.2737 H   0  0  0  0  0  0  0  0  0  0  0  0
   59.4706   25.9626   46.1220 H   0  0  0  0  0  0  0  0  0  0  0  0
   58.4066   27.2915   45.4812 H   0  0  0  0  0  0  0  0  0  0  0  0
   61.7292   30.4556   50.5768 H   0  0  0  0  0  0  0  0  0  0  0  0
   62.7567   32.4224   49.4366 H   0  0  0  0  0  0  0  0  0  0  0  0
   62.5181   32.7081   46.9665 H   0  0  0  0  0  0  0  0  0  0  0  0
   61.2540   31.0235   45.6271 H   0  0  0  0  0  0  0  0  0  0  0  0
  1  2  1  0
  2  3  1  0
  3  4  2  0
  4  5  1  0
  5  6  2  0
  6  7  1  0
  7  8  2  0
  8  9  1  0
  9 10  1  0
 10 11  1  0
 11 12  2  0
 11 13  1  0
 13 14  1  0
 14 15  1  0
 15 16  2  0
 15 17  1  0
 17 18  1  0
 18 19  1  0
 19 20  2  0
 20 21  1  0
 21 22  2  0
 21 23  1  0
 23 24  2  0
 24 25  1  0
 25 26  2  0
 26 27  1  0
 27 28  2  0
 28 29  1  0
  8  3  1  0
 29 19  1  0
 28 23  1  0
  1 30  1  0
  1 31  1  0
  1 32  1  0
  4 33  1  0
  5 34  1  0
  6 35  1  0
  7 36  1  0
  9 37  1  0
  9 38  1  0
 13 39  1  0
 13 40  1  0
 17 41  1  0
 17 42  1  0
 18 43  1  0
 18 44  1  0
 24 45  1  0
 25 46  1  0
 26 47  1  0
 27 48  1  0
M  CHG  3  10  -1  14  -1  29  -1
M  END
>  <UniqueID>  (89) 
81

>  <SMILES>  (89) 
COc1ccccc1C[N-]C(=O)C[N-]C(=O)CCc1nc(=O)c2ccccc2[n-]1

>  <Energy>  (89) 
47.47932502825753

>  <Genealogy>  (89) 
COc1ccccc1C[N-]C(=O)C[N-]C(=O)CCc1nc(=O)c2ccccc2[n-]1 (protonated)
COc1ccccc1C[N-]C(=O)C[N-]C(=O)CCc1nc(=O)c2ccccc2[n-]1 (3D coordinates assigned)
COc1ccccc1C[N-]C(=O)C[N-]C(=O)CCc1nc(=O)c2ccccc2[n-]1 (optimized conformer: 47.47932502825753 kcal/mol)

>  <smiles>  (89) 
COc1ccccc1CNC(=O)CNC(=O)CCc1nc(=O)c2ccccc2[nH]1

>  <score_type>  (89) 
oracle

>  <origin>  (89) 
adg

>  <m_score__min__energy>  (89) 
-14.199999999999999

>  <m_primary>  (89) 
energy

$$$$
89:0
     RDKit          3D

 45 47  0  0  0  0  0  0  0  0999 V2000
   59.0439   27.1935   47.3796 H   0  0  0  0  0  0  0  0  0  0  0  0
   58.1570   27.4750   46.7930 C   0  0  0  0  0  0  0  0  0  0  0  0
   57.1060   26.6200   46.7080 N   0  0  0  0  0  0  0  0  0  0  0  0
   55.9980   26.9370   45.9950 C   0  0  0  0  0  0  0  0  0  0  0  0
   55.0130   26.0900   45.9370 N   0  0  0  0  0  0  0  0  0  0  0  0
   55.1170   24.7080   45.4670 C   0  0  0  0  0  0  0  0  0  0  0  0
   54.1613   24.4128   45.0094 H   0  0  0  0  0  0  0  0  0  0  0  0
   55.3520   24.0661   46.3288 H   0  0  0  0  0  0  0  0  0  0  0  0
   56.2380   24.5520   44.4280 C   0  0  0  0  0  0  0  0  0  0  0  0
   56.4841   25.5469   44.0285 H   0  0  0  0  0  0  0  0  0  0  0  0
   55.8657   23.8714   43.6481 H   0  0  0  0  0  0  0  0  0  0  0  0
   57.5190   23.9270   45.0020 C   0  0  0  0  0  0  0  0  0  0  0  0
   57.9895   24.6462   45.6886 H   0  0  0  0  0  0  0  0  0  0  0  0
   58.1881   23.6863   44.1627 H   0  0  0  0  0  0  0  0  0  0  0  0
   57.2320   22.6550   45.7510 C   0  0  0  0  0  0  0  0  0  0  0  0
   57.4330   22.5500   47.0820 N   0  0  0  0  0  0  0  0  0  0  0  0
   57.0010   21.3100   47.3780 C   0  0  0  0  0  0  0  0  0  0  0  0
   57.0290   20.8340   48.5430 O   0  0  0  0  0  0  0  0  0  0  0  0
   56.5330   20.6290   46.3180 N   0  0  0  0  0  0  0  0  0  0  0  0
   56.1460   19.6590   46.3110 H   0  0  0  0  0  0  0  0  0  0  0  0
   56.6700   21.4700   45.2770 C   0  0  0  0  0  0  0  0  0  0  0  0
   56.2640   21.1150   43.9010 C   0  0  0  0  0  0  0  0  0  0  0  0
   56.2700   21.9990   43.0050 O   0  0  0  0  0  0  0  0  0  0  0  0
   55.8630   19.8290   43.5710 O   0  0  0  0  0  0  0  0  0  0  0  0
   55.9340   28.1310   45.3470 N   0  0  0  0  0  0  0  0  0  0  0  0
   56.9560   29.0230   45.3990 C   0  0  0  0  0  0  0  0  0  0  0  0
   56.8410   30.1170   44.7850 O   0  0  0  0  0  0  0  0  0  0  0  0
   58.1200   28.7170   46.1370 C   0  0  0  0  0  0  0  0  0  0  0  0
   59.2770   29.6460   46.2390 C   0  0  0  0  0  0  0  0  0  0  0  0
   60.1360   29.6810   45.3150 O   0  0  0  0  0  0  0  0  0  0  0  0
   59.4290   30.5060   47.3740 N   0  0  0  0  0  0  0  0  0  0  0  0
   60.0520   31.8240   47.3150 C   0  0  0  0  0  0  0  0  0  0  0  0
   60.1476   32.2264   48.3343 H   0  0  0  0  0  0  0  0  0  0  0  0
   61.0458   31.7303   46.8529 H   0  0  0  0  0  0  0  0  0  0  0  0
   59.2140   32.7590   46.4890 C   0  0  0  0  0  0  0  0  0  0  0  0
   59.8290   33.7800   45.7430 C   0  0  0  0  0  0  0  0  0  0  0  0
   60.9212   33.9050   45.7809 H   0  0  0  0  0  0  0  0  0  0  0  0
   59.0560   34.6370   44.9530 C   0  0  0  0  0  0  0  0  0  0  0  0
   59.5414   35.4356   44.3728 H   0  0  0  0  0  0  0  0  0  0  0  0
   57.6680   34.4810   44.8990 C   0  0  0  0  0  0  0  0  0  0  0  0
   57.0618   35.1574   44.2785 H   0  0  0  0  0  0  0  0  0  0  0  0
   57.0510   33.4650   45.6340 C   0  0  0  0  0  0  0  0  0  0  0  0
   55.9588   33.3416   45.5901 H   0  0  0  0  0  0  0  0  0  0  0  0
   57.8190   32.6050   46.4250 C   0  0  0  0  0  0  0  0  0  0  0  0
   57.3291   31.8049   46.9993 H   0  0  0  0  0  0  0  0  0  0  0  0
  1  2  1  0
  2  3  1  0
  3  4  1  0
  4  5  2  0
  5  6  1  0
  6  7  1  0
  6  8  1  0
  6  9  1  0
  9 10  1  0
  9 11  1  0
  9 12  1  0
 12 13  1  0
 12 14  1  0
 12 15  1  0
 15 16  1  0
 16 17  1  0
 17 18  2  0
 17 19  1  0
 19 20  1  0
 19 21  1  0
 21 22  1  0
 22 23  2  0
 22 24  1  0
  4 25  1  0
 25 26  1  0
 26 27  2  0
 26 28  1  0
 28 29  1  0
 29 30  2  0
 29 31  1  0
 31 32  1  0
 32 33  1  0
 32 34  1  0
 32 35  1  0
 35 36  2  0
 36 37  1  0
 36 38  1  0
 38 39  1  0
 38 40  2  0
 40 41  1  0
 40 42  1  0
 42 43  1  0
 42 44  2  0
 44 45  1  0
 28  2  2  0
 44 35  1  0
 21 15  2  0
M  CHG  5   3  -1  16  -1  24  -1  25  -1  31  -1
M  END
>  <UniqueID>  (90) 
82

>  <SMILES>  (90) 
O=C([O-])c1[nH]c(=O)[n-]c1CCC/N=c1/[n-]cc(C(=O)[N-]Cc2ccccc2)c(=O)[n-]1

>  <Energy>  (90) 
75.78027843888304

>  <Genealogy>  (90) 
O=C([O-])c1[nH]c(=O)[n-]c1CCCN=c1[n-]cc(C(=O)[N-]Cc2ccccc2)c(=O)[n-]1 (protonated)
O=C([O-])c1[nH]c(=O)[n-]c1CCC/N=c1/[n-]cc(C(=O)[N-]Cc2ccccc2)c(=O)[n-]1 (cis-trans isomerization)
O=C([O-])c1[nH]c(=O)[n-]c1CCC/N=c1/[n-]cc(C(=O)[N-]Cc2ccccc2)c(=O)[n-]1 (3D coordinates assigned)
O=C([O-])c1[nH]c(=O)[n-]c1CCC/N=c1/[n-]cc(C(=O)[N-]Cc2ccccc2)c(=O)[n-]1 (optimized conformer: 75.78027843888304 kcal/mol)

>  <smiles>  (90) 
O=C(O)c1[nH]c(=O)[nH]c1CCCN=c1[nH]cc(C(=O)NCc2ccccc2)c(=O)[nH]1

>  <score_type>  (90) 
oracle

>  <origin>  (90) 
adg

>  <m_score__min__energy>  (90) 
-16.27

>  <m_primary>  (90) 
energy

$$$$
90:0
     RDKit          3D

 36 38  0  0  0  0  0  0  0  0999 V2000
   60.5380   29.9890   46.4370 C   0  0  0  0  0  0  0  0  0  0  0  0
   59.5490   30.7940   46.0180 C   0  0  0  0  0  0  0  0  0  0  0  0
   58.5350   30.4650   45.1130 C   0  0  0  0  0  0  0  0  0  0  0  0
   58.3520   29.2910   44.4790 C   0  0  0  0  0  0  0  0  0  0  0  0
   57.6260   28.1500   45.0790 C   0  0  0  0  0  0  0  0  0  0  0  0
   56.2300   28.2020   45.2700 C   0  0  0  0  0  0  0  0  0  0  0  0
   55.4840   29.3380   44.9530 O   0  0  0  0  0  0  0  0  0  0  0  0
   55.5840   27.1270   45.7920 N   0  0  0  0  0  0  0  0  0  0  0  0
   56.2520   25.9940   46.1260 C   0  0  0  0  0  0  0  0  0  0  0  0
   55.6280   25.0150   46.6100 O   0  0  0  0  0  0  0  0  0  0  0  0
   57.5930   25.9140   45.9330 N   0  0  0  0  0  0  0  0  0  0  0  0
   58.2910   26.9560   45.4140 C   0  0  0  0  0  0  0  0  0  0  0  0
   59.5300   26.8330   45.2230 O   0  0  0  0  0  0  0  0  0  0  0  0
   57.7630   31.6080   44.9570 C   0  0  0  0  0  0  0  0  0  0  0  0
   58.3170   32.5740   45.7740 C   0  0  0  0  0  0  0  0  0  0  0  0
   57.8050   33.9760   45.9030 C   0  0  0  0  0  0  0  0  0  0  0  0
   59.4060   32.0850   46.4100 N   0  0  0  0  0  0  0  0  0  0  0  0
   60.2310   32.8070   47.3390 C   0  0  0  0  0  0  0  0  0  0  0  0
   61.5530   33.1300   46.9980 C   0  0  0  0  0  0  0  0  0  0  0  0
   62.3630   33.8250   47.9030 C   0  0  0  0  0  0  0  0  0  0  0  0
   61.8560   34.1990   49.1520 C   0  0  0  0  0  0  0  0  0  0  0  0
   62.6620   34.8880   50.0490 O   0  0  0  0  0  0  0  0  0  0  0  0
   60.5390   33.8810   49.4950 C   0  0  0  0  0  0  0  0  0  0  0  0
   59.7250   33.1870   48.5930 C   0  0  0  0  0  0  0  0  0  0  0  0
   58.4430   32.9010   48.9300 F   0  0  0  0  0  0  0  0  0  0  0  0
   61.2830   30.3612   47.1556 H   0  0  0  0  0  0  0  0  0  0  0  0
   60.6035   28.9571   46.0617 H   0  0  0  0  0  0  0  0  0  0  0  0
   58.7625   29.1747   43.4651 H   0  0  0  0  0  0  0  0  0  0  0  0
   55.2990   30.0770   45.6190 H   0  0  0  0  0  0  0  0  0  0  0  0
   56.8816   31.7222   44.3089 H   0  0  0  0  0  0  0  0  0  0  0  0
   57.7103   34.2353   46.9678 H   0  0  0  0  0  0  0  0  0  0  0  0
   58.5080   34.6692   45.4180 H   0  0  0  0  0  0  0  0  0  0  0  0
   56.8207   34.0530   45.4180 H   0  0  0  0  0  0  0  0  0  0  0  0
   61.9538   32.8362   46.0167 H   0  0  0  0  0  0  0  0  0  0  0  0
   63.3988   34.0774   47.6322 H   0  0  0  0  0  0  0  0  0  0  0  0
   60.1412   34.1771   50.4769 H   0  0  0  0  0  0  0  0  0  0  0  0
  1  2  2  0
  2  3  1  0
  3  4  2  3
  4  5  1  0
  5  6  2  0
  6  7  1  0
  6  8  1  0
  8  9  1  0
  9 10  2  0
  9 11  1  0
 11 12  1  0
 12 13  2  0
  3 14  1  0
 14 15  2  0
 15 16  1  0
 15 17  1  0
 17 18  1  0
 18 19  2  0
 19 20  1  0
 20 21  2  0
 21 22  1  0
 21 23  1  0
 23 24  2  0
 24 25  1  0
 17  2  1  0
 24 18  1  0
 12  5  1  0
  1 26  1  0
  1 27  1  0
  4 28  1  0
  7 29  1  0
 14 30  1  0
 16 31  1  0
 16 32  1  0
 16 33  1  0
 19 34  1  0
 20 35  1  0
 23 36  1  0
M  CHG  3   8  -1  11  -1  22  -1
M  END
>  <UniqueID>  (91) 
83

>  <SMILES>  (91) 
C=c1c(=Cc2c(O)[n-]c(=O)[n-]c2=O)cc(C)n1-c1ccc([O-])cc1F

>  <Energy>  (91) 
84.63465025944392

>  <Genealogy>  (91) 
C=c1c(=Cc2c(O)[n-]c(=O)[n-]c2=O)cc(C)n1-c1ccc([O-])cc1F (protonated)
C=c1c(=Cc2c(O)[n-]c(=O)[n-]c2=O)cc(C)n1-c1ccc([O-])cc1F (3D coordinates assigned)
C=c1c(=Cc2c(O)[n-]c(=O)[n-]c2=O)cc(C)n1-c1ccc([O-])cc1F (optimized conformer: 84.63465025944392 kcal/mol)

>  <smiles>  (91) 
C=c1c(=Cc2c(O)[nH]c(=O)[nH]c2=O)cc(C)n1-c1ccc(O)cc1F

>  <score_type>  (91) 
oracle

>  <origin>  (91) 
adg

>  <m_score__min__energy>  (91) 
-13.17

>  <m_primary>  (91) 
energy

$$$$
