0:0
     RDKit          3D

 36 37  0  0  0  0  0  0  0  0999 V2000
   55.8100   28.4380   52.7820 O   0  0  0  0  0  0  0  0  0  0  0  0
   55.0850   29.4450   52.5650 C   0  0  0  0  0  0  0  0  0  0  0  0
   53.6380   29.4030   52.9540 C   0  0  0  0  0  0  0  0  0  0  0  0
   52.8270   30.2580   52.0190 C   0  0  0  0  0  0  0  0  0  0  0  0
   52.4640   29.7720   50.7510 C   0  0  0  0  0  0  0  0  0  0  0  0
   51.7390   30.5780   49.8690 C   0  0  0  0  0  0  0  0  0  0  0  0
   51.3780   31.8770   50.2420 C   0  0  0  0  0  0  0  0  0  0  0  0
   50.6570   32.6770   49.3630 O   0  0  0  0  0  0  0  0  0  0  0  0
   51.7450   32.3710   51.4960 C   0  0  0  0  0  0  0  0  0  0  0  0
   52.4710   31.5680   52.3820 C   0  0  0  0  0  0  0  0  0  0  0  0
   55.6170   30.6090   51.9110 N   0  0  0  0  0  0  0  0  0  0  0  0
   56.9800   30.7330   51.4740 C   0  0  0  0  0  0  0  0  0  0  0  0
   57.7990   29.7930   51.6570 O   0  0  0  0  0  0  0  0  0  0  0  0
   57.4060   31.9380   50.8220 N   0  0  0  0  0  0  0  0  0  0  0  0
   58.7840   32.1510   50.3870 C   0  0  0  0  0  0  0  0  0  0  0  0
   58.8100   32.8620   49.0610 C   0  0  0  0  0  0  0  0  0  0  0  0
   59.5680   34.0320   48.8910 C   0  0  0  0  0  0  0  0  0  0  0  0
   59.5690   34.6980   47.6620 C   0  0  0  0  0  0  0  0  0  0  0  0
   58.8120   34.2040   46.5970 C   0  0  0  0  0  0  0  0  0  0  0  0
   58.0510   33.0430   46.7600 C   0  0  0  0  0  0  0  0  0  0  0  0
   58.0470   32.3740   47.9870 C   0  0  0  0  0  0  0  0  0  0  0  0
   53.2774   28.3650   52.9031 H   0  0  0  0  0  0  0  0  0  0  0  0
   53.5292   29.7869   53.9791 H   0  0  0  0  0  0  0  0  0  0  0  0
   52.7517   28.7533   50.4517 H   0  0  0  0  0  0  0  0  0  0  0  0
   51.4519   30.1905   48.8804 H   0  0  0  0  0  0  0  0  0  0  0  0
   51.4626   33.3934   51.7874 H   0  0  0  0  0  0  0  0  0  0  0  0
   52.7641   31.9632   53.3658 H   0  0  0  0  0  0  0  0  0  0  0  0
   54.9730   31.4140   51.7380 H   0  0  0  0  0  0  0  0  0  0  0  0
   56.7060   32.6920   50.6440 H   0  0  0  0  0  0  0  0  0  0  0  0
   59.3106   32.7608   51.1359 H   0  0  0  0  0  0  0  0  0  0  0  0
   59.2797   31.1750   50.2790 H   0  0  0  0  0  0  0  0  0  0  0  0
   60.1631   34.4258   49.7281 H   0  0  0  0  0  0  0  0  0  0  0  0
   60.1668   35.6124   47.5333 H   0  0  0  0  0  0  0  0  0  0  0  0
   58.8148   34.7286   45.6302 H   0  0  0  0  0  0  0  0  0  0  0  0
   57.4543   32.6553   45.9212 H   0  0  0  0  0  0  0  0  0  0  0  0
   57.4444   31.4623   48.1123 H   0  0  0  0  0  0  0  0  0  0  0  0
  1  2  2  0
  2  3  1  0
  3  4  1  0
  4  5  2  0
  5  6  1  0
  6  7  2  0
  7  8  1  0
  7  9  1  0
  9 10  2  0
  2 11  1  0
 11 12  1  0
 12 13  2  0
 12 14  1  0
 14 15  1  0
 15 16  1  0
 16 17  2  0
 17 18  1  0
 18 19  2  0
 19 20  1  0
 20 21  2  0
 10  4  1  0
 21 16  1  0
  3 22  1  0
  3 23  1  0
  5 24  1  0
  6 25  1  0
  9 26  1  0
 10 27  1  0
 11 28  1  0
 14 29  1  0
 15 30  1  0
 15 31  1  0
 17 32  1  0
 18 33  1  0
 19 34  1  0
 20 35  1  0
 21 36  1  0
M  CHG  1   8  -1
M  END
>  <UniqueID>  (1) 
1

>  <SMILES>  (1) 
O=C(Cc1ccc([O-])cc1)NC(=O)NCc1ccccc1

>  <Energy>  (1) 
31.349858142944516

>  <Genealogy>  (1) 
O=C(Cc1ccc([O-])cc1)NC(=O)NCc1ccccc1 (protonated)
O=C(Cc1ccc([O-])cc1)NC(=O)NCc1ccccc1 (3D coordinates assigned)
O=C(Cc1ccc([O-])cc1)NC(=O)NCc1ccccc1 (optimized conformer: 31.349858142944516 kcal/mol)

>  <smiles>  (1) 
O=C(Cc1ccc(O)cc1)NC(=O)NCc1ccccc1

>  <score_type>  (1) 
oracle

>  <origin>  (1) 
adg

>  <m_score__min__energy>  (1) 
-11.789999999999999

>  <m_primary>  (1) 
energy

$$$$
1:0
     RDKit          3D

 27 29  0  0  0  0  0  0  0  0999 V2000
   51.3100   32.3560   49.7640 O   0  0  0  0  0  0  0  0  0  0  0  0
   51.6300   31.8320   50.8630 C   0  0  0  0  0  0  0  0  0  0  0  0
   52.6700   30.8970   50.9130 C   0  0  0  0  0  0  0  0  0  0  0  0
   53.0170   30.3210   52.1430 C   0  0  0  0  0  0  0  0  0  0  0  0
   54.1000   29.2860   52.2250 C   0  0  0  0  0  0  0  0  0  0  0  0
   55.1960   29.6020   53.6520 S   0  0  0  0  0  0  0  0  0  0  0  0
   56.4070   30.5220   52.7060 C   0  0  0  0  0  0  0  0  0  0  0  0
   56.7790   31.7870   53.0330 N   0  0  0  0  0  0  0  0  0  0  0  0
   57.6620   32.0820   52.0680 C   0  0  0  0  0  0  0  0  0  0  0  0
   58.3670   33.2710   51.8930 C   0  0  0  0  0  0  0  0  0  0  0  0
   59.2430   33.3540   50.7950 C   0  0  0  0  0  0  0  0  0  0  0  0
   59.3870   32.2600   49.9100 C   0  0  0  0  0  0  0  0  0  0  0  0
   58.6560   31.0750   50.1190 C   0  0  0  0  0  0  0  0  0  0  0  0
   57.7990   31.0290   51.2170 C   0  0  0  0  0  0  0  0  0  0  0  0
   57.0100   30.0150   51.6000 N   0  0  0  0  0  0  0  0  0  0  0  0
   52.3360   30.6720   53.2690 N   0  0  0  0  0  0  0  0  0  0  0  0
   51.3230   31.5780   53.2430 C   0  0  0  0  0  0  0  0  0  0  0  0
   50.9490   32.1760   52.0360 C   0  0  0  0  0  0  0  0  0  0  0  0
   49.9130   33.1020   52.0090 O   0  0  0  0  0  0  0  0  0  0  0  0
   53.2097   30.6169   49.9964 H   0  0  0  0  0  0  0  0  0  0  0  0
   53.6412   28.2925   52.3362 H   0  0  0  0  0  0  0  0  0  0  0  0
   54.6999   29.3309   51.3041 H   0  0  0  0  0  0  0  0  0  0  0  0
   58.2432   34.1144   52.5882 H   0  0  0  0  0  0  0  0  0  0  0  0
   59.8193   34.2752   50.6238 H   0  0  0  0  0  0  0  0  0  0  0  0
   60.0737   32.3355   49.0540 H   0  0  0  0  0  0  0  0  0  0  0  0
   58.7577   30.2159   49.4396 H   0  0  0  0  0  0  0  0  0  0  0  0
   50.7970   31.8409   54.1726 H   0  0  0  0  0  0  0  0  0  0  0  0
  1  2  2  0
  2  3  1  0
  3  4  2  0
  4  5  1  0
  5  6  1  0
  6  7  1  0
  7  8  2  0
  8  9  1  0
  9 10  2  0
 10 11  1  0
 11 12  2  0
 12 13  1  0
 13 14  2  0
 14 15  1  0
  4 16  1  0
 16 17  1  0
 17 18  2  0
 18 19  1  0
 18  2  1  0
 15  7  1  0
 14  9  1  0
  3 20  1  0
  5 21  1  0
  5 22  1  0
 10 23  1  0
 11 24  1  0
 12 25  1  0
 13 26  1  0
 17 27  1  0
M  CHG  3  15  -1  16  -1  19  -1
M  END
>  <UniqueID>  (2) 
2

>  <SMILES>  (2) 
O=c1cc(CSc2nc3ccccc3[n-]2)[n-]cc1[O-]

>  <Energy>  (2) 
60.902101323696385

>  <Genealogy>  (2) 
O=c1cc(CSc2nc3ccccc3[n-]2)[n-]cc1[O-] (protonated)
O=c1cc(CSc2nc3ccccc3[n-]2)[n-]cc1[O-] (3D coordinates assigned)
O=c1cc(CSc2nc3ccccc3[n-]2)[n-]cc1[O-] (optimized conformer: 60.902101323696385 kcal/mol)

>  <smiles>  (2) 
O=c1cc(CSc2nc3ccccc3[nH]2)[nH]cc1O

>  <score_type>  (2) 
oracle

>  <origin>  (2) 
adg

>  <m_score__min__energy>  (2) 
-13.51

>  <m_primary>  (2) 
energy

$$$$
2:0
     RDKit          3D

 40 42  0  0  0  0  0  0  0  0999 V2000
   63.0780   33.7920   46.7430 C   0  0  0  0  0  0  0  0  0  0  0  0
   61.6440   33.7570   47.1840 C   0  0  0  0  0  0  0  0  0  0  0  0
   61.3110   33.9920   48.5260 C   0  0  0  0  0  0  0  0  0  0  0  0
   59.9720   33.9940   48.9280 C   0  0  0  0  0  0  0  0  0  0  0  0
   58.9580   33.7750   47.9920 C   0  0  0  0  0  0  0  0  0  0  0  0
   59.2790   33.5620   46.6440 C   0  0  0  0  0  0  0  0  0  0  0  0
   58.0070   33.3000   45.4540 S   0  0  0  0  0  0  0  0  0  0  0  0
   57.8740   34.5130   44.5750 O   0  0  0  0  0  0  0  0  0  0  0  0
   56.7110   33.0700   46.1800 O   0  0  0  0  0  0  0  0  0  0  0  0
   58.3970   31.8970   44.4830 N   0  0  0  0  0  0  0  0  0  0  0  0
   57.7220   31.9390   43.1650 C   0  0  0  0  0  0  0  0  0  0  0  0
   56.8080   30.7180   43.0540 C   0  0  0  0  0  0  0  0  0  0  0  0
   56.6320   30.3120   44.4930 C   0  0  1  0  0  0  0  0  0  0  0  0
   56.0740   28.9710   44.6820 N   0  0  0  0  0  0  0  0  0  0  0  0
   56.6300   27.8060   45.2920 C   0  0  0  0  0  0  0  0  0  0  0  0
   55.9050   27.1240   46.0630 O   0  0  0  0  0  0  0  0  0  0  0  0
   58.0460   27.3910   45.0810 C   0  0  0  0  0  0  0  0  0  0  0  0
   58.7760   28.3750   44.1660 C   0  0  0  0  0  0  0  0  0  0  0  0
   59.1410   29.6490   44.9070 C   0  0  0  0  0  0  0  0  0  0  0  0
   57.9830   30.6440   45.1370 C   0  0  1  0  0  0  0  0  0  0  0  0
   60.6220   33.5540   46.2440 C   0  0  0  0  0  0  0  0  0  0  0  0
   63.7330   33.8080   47.6266 H   0  0  0  0  0  0  0  0  0  0  0  0
   63.2980   32.8990   46.1396 H   0  0  0  0  0  0  0  0  0  0  0  0
   63.2541   34.6947   46.1396 H   0  0  0  0  0  0  0  0  0  0  0  0
   62.1056   34.1752   49.2643 H   0  0  0  0  0  0  0  0  0  0  0  0
   59.7162   34.1684   49.9835 H   0  0  0  0  0  0  0  0  0  0  0  0
   57.9060   33.7697   48.3133 H   0  0  0  0  0  0  0  0  0  0  0  0
   57.1250   32.8592   43.0821 H   0  0  0  0  0  0  0  0  0  0  0  0
   58.4681   31.9284   42.3568 H   0  0  0  0  0  0  0  0  0  0  0  0
   55.8442   30.9831   42.5949 H   0  0  0  0  0  0  0  0  0  0  0  0
   57.2186   29.9187   42.4195 H   0  0  0  0  0  0  0  0  0  0  0  0
   55.8377   30.8645   45.0164 H   0  0  0  0  0  0  0  0  0  0  0  0
   58.5591   27.3559   46.0534 H   0  0  0  0  0  0  0  0  0  0  0  0
   58.0529   26.3993   44.6050 H   0  0  0  0  0  0  0  0  0  0  0  0
   59.6958   27.9018   43.7918 H   0  0  0  0  0  0  0  0  0  0  0  0
   58.1071   28.6369   43.3330 H   0  0  0  0  0  0  0  0  0  0  0  0
   59.5429   29.3647   45.8907 H   0  0  0  0  0  0  0  0  0  0  0  0
   59.8640   30.1732   44.2648 H   0  0  0  0  0  0  0  0  0  0  0  0
   57.8221   30.6550   46.2251 H   0  0  0  0  0  0  0  0  0  0  0  0
   60.8766   33.3876   45.1869 H   0  0  0  0  0  0  0  0  0  0  0  0
  1  2  1  0
  2  3  2  0
  3  4  1  0
  4  5  2  0
  5  6  1  0
  6  7  1  0
  7  8  2  0
  7  9  2  0
  7 10  1  0
 10 11  1  0
 11 12  1  0
 12 13  1  0
 13 14  1  0
 14 15  1  0
 15 16  2  0
 15 17  1  0
 17 18  1  0
 18 19  1  0
 19 20  1  0
  6 21  2  0
 21  2  1  0
 20 10  1  0
 20 13  1  0
  1 22  1  0
  1 23  1  0
  1 24  1  0
  3 25  1  0
  4 26  1  0
  5 27  1  0
 11 28  1  0
 11 29  1  0
 12 30  1  0
 12 31  1  0
 13 32  1  1
 17 33  1  0
 17 34  1  0
 18 35  1  0
 18 36  1  0
 19 37  1  0
 19 38  1  0
 20 39  1  1
 21 40  1  0
M  CHG  1  14  -1
M  END
>  <UniqueID>  (3) 
3

>  <SMILES>  (3) 
Cc1cccc(S(=O)(=O)N2CC[C@H]3[N-]C(=O)CCC[C@H]32)c1

>  <Energy>  (3) 
52.141386292082906

>  <Genealogy>  (3) 
Cc1cccc(S(=O)(=O)N2CCC3[N-]C(=O)CCCC32)c1 (protonated)
Cc1cccc(S(=O)(=O)N2CC[C@H]3[N-]C(=O)CCC[C@H]32)c1 (chirality)
Cc1cccc(S(=O)(=O)N2CC[C@H]3[N-]C(=O)CCC[C@H]32)c1 (3D coordinates assigned)
Cc1cccc(S(=O)(=O)N2CC[C@H]3[N-]C(=O)CCC[C@H]32)c1 (nonaromatic ring conformer: 52.141386292082906 kcal/mol)

>  <smiles>  (3) 
Cc1cccc(S(=O)(=O)N2CCC3NC(=O)CCCC32)c1

>  <score_type>  (3) 
oracle

>  <origin>  (3) 
adg

>  <m_score__min__energy>  (3) 
-9

>  <m_primary>  (3) 
energy

$$$$
3:0
     RDKit          3D

 46 48  0  0  0  0  0  0  0  0999 V2000
   54.3920   28.9660   44.5530 H   0  0  0  0  0  0  0  0  0  0  0  0
   55.1620   29.6190   44.6320 O   0  0  0  0  0  0  0  0  0  0  0  0
   56.4240   29.2470   45.1050 C   0  0  0  0  0  0  0  0  0  0  0  0
   57.5160   30.1380   45.0700 C   0  0  0  0  0  0  0  0  0  0  0  0
   57.4100   31.4650   44.4300 C   0  0  0  0  0  0  0  0  0  0  0  0
   57.2273   31.5038   43.3460 H   0  0  0  0  0  0  0  0  0  0  0  0
   57.5240   32.6310   45.0960 C   0  0  0  0  0  0  0  0  0  0  0  0
   57.7500   33.8850   44.2960 C   0  0  0  0  0  0  0  0  0  0  0  0
   57.9029   34.7333   44.9794 H   0  0  0  0  0  0  0  0  0  0  0  0
   58.6401   33.7600   43.6619 H   0  0  0  0  0  0  0  0  0  0  0  0
   56.8723   34.0786   43.6619 H   0  0  0  0  0  0  0  0  0  0  0  0
   57.4500   32.7310   46.6100 C   0  0  0  0  0  0  0  0  0  0  0  0
   56.4128   32.9560   46.8992 H   0  0  0  0  0  0  0  0  0  0  0  0
   57.7843   31.7696   47.0271 H   0  0  0  0  0  0  0  0  0  0  0  0
   58.3030   33.7520   47.1290 O   0  0  0  0  0  0  0  0  0  0  0  0
   59.6940   33.6540   47.2840 C   0  0  0  0  0  0  0  0  0  0  0  0
   60.5880   33.7980   46.2110 C   0  0  0  0  0  0  0  0  0  0  0  0
   60.2018   33.9539   45.1929 H   0  0  0  0  0  0  0  0  0  0  0  0
   61.9660   33.7440   46.4320 C   0  0  0  0  0  0  0  0  0  0  0  0
   62.6582   33.8560   45.5844 H   0  0  0  0  0  0  0  0  0  0  0  0
   62.4770   33.5480   47.7260 C   0  0  0  0  0  0  0  0  0  0  0  0
   63.9680   33.5110   47.9340 C   0  0  0  0  0  0  0  0  0  0  0  0
   64.1878   33.5055   49.0118 H   0  0  0  0  0  0  0  0  0  0  0  0
   64.3804   32.6023   47.4711 H   0  0  0  0  0  0  0  0  0  0  0  0
   64.4249   34.3981   47.4711 H   0  0  0  0  0  0  0  0  0  0  0  0
   61.5800   33.3790   48.8070 C   0  0  0  0  0  0  0  0  0  0  0  0
   62.0780   33.1900   50.2160 C   0  0  0  0  0  0  0  0  0  0  0  0
   61.2923   33.4882   50.9257 H   0  0  0  0  0  0  0  0  0  0  0  0
   62.3340   32.1322   50.3756 H   0  0  0  0  0  0  0  0  0  0  0  0
   62.9714   33.8116   50.3756 H   0  0  0  0  0  0  0  0  0  0  0  0
   60.1970   33.4260   48.5690 C   0  0  0  0  0  0  0  0  0  0  0  0
   59.4983   33.2813   49.4062 H   0  0  0  0  0  0  0  0  0  0  0  0
   58.7500   29.7550   45.6230 C   0  0  0  0  0  0  0  0  0  0  0  0
   59.8150   30.6550   45.6190 O   0  0  0  0  0  0  0  0  0  0  0  0
   58.9200   28.4610   46.1470 C   0  0  0  0  0  0  0  0  0  0  0  0
   60.1670   28.0460   46.6530 C   0  0  0  0  0  0  0  0  0  0  0  0
   61.0161   28.7452   46.6568 H   0  0  0  0  0  0  0  0  0  0  0  0
   60.3310   26.7510   47.1500 C   0  0  0  0  0  0  0  0  0  0  0  0
   61.3089   26.4337   47.5411 H   0  0  0  0  0  0  0  0  0  0  0  0
   59.2590   25.8590   47.1520 C   0  0  0  0  0  0  0  0  0  0  0  0
   59.3939   24.8411   47.5466 H   0  0  0  0  0  0  0  0  0  0  0  0
   58.0150   26.2530   46.6550 C   0  0  0  0  0  0  0  0  0  0  0  0
   57.1732   25.5449   46.6625 H   0  0  0  0  0  0  0  0  0  0  0  0
   57.8330   27.5530   46.1440 C   0  0  0  0  0  0  0  0  0  0  0  0
   56.5870   27.9600   45.6310 C   0  0  0  0  0  0  0  0  0  0  0  0
   55.5000   27.0900   45.6410 O   0  0  0  0  0  0  0  0  0  0  0  0
  1  2  1  0
  2  3  1  0
  3  4  2  0
  4  5  1  0
  5  6  1  0
  5  7  2  0
  7  8  1  0
  8  9  1  0
  8 10  1  0
  8 11  1  0
  7 12  1  0
 12 13  1  0
 12 14  1  0
 12 15  1  0
 15 16  1  0
 16 17  2  0
 17 18  1  0
 17 19  1  0
 19 20  1  0
 19 21  2  0
 21 22  1  0
 22 23  1  0
 22 24  1  0
 22 25  1  0
 21 26  1  0
 26 27  1  0
 27 28  1  0
 27 29  1  0
 27 30  1  0
 26 31  2  0
 31 32  1  0
  4 33  1  0
 33 34  1  0
 33 35  2  0
 35 36  1  0
 36 37  1  0
 36 38  2  0
 38 39  1  0
 38 40  1  0
 40 41  1  0
 40 42  2  0
 42 43  1  0
 42 44  1  0
 44 45  2  0
 45 46  1  0
 45  3  1  0
 31 16  1  0
 44 35  1  0
M  CHG  2  34  -1  46  -1
M  END
>  <UniqueID>  (4) 
4

>  <SMILES>  (4) 
C/C(=C/c1c(O)c([O-])c2ccccc2c1[O-])COc1ccc(C)c(C)c1

>  <Energy>  (4) 
56.952933336892066

>  <Genealogy>  (4) 
CC(=Cc1c(O)c([O-])c2ccccc2c1[O-])COc1ccc(C)c(C)c1 (protonated)
C/C(=C/c1c(O)c([O-])c2ccccc2c1[O-])COc1ccc(C)c(C)c1 (cis-trans isomerization)
C/C(=C/c1c(O)c([O-])c2ccccc2c1[O-])COc1ccc(C)c(C)c1 (3D coordinates assigned)
C/C(=C/c1c(O)c([O-])c2ccccc2c1[O-])COc1ccc(C)c(C)c1 (optimized conformer: 56.952933336892066 kcal/mol)

>  <smiles>  (4) 
CC(=Cc1c(O)c(O)c2ccccc2c1O)COc1ccc(C)c(C)c1

>  <score_type>  (4) 
oracle

>  <origin>  (4) 
adg

>  <m_score__min__energy>  (4) 
-13.300000000000001

>  <m_primary>  (4) 
energy

$$$$
4:0
     RDKit          3D

 29 30  0  0  0  0  0  0  0  0999 V2000
   60.5435   29.1738   45.9266 H   0  0  0  0  0  0  0  0  0  0  0  0
   59.5540   28.7390   46.1310 C   0  0  0  0  0  0  0  0  0  0  0  0
   58.6220   29.5350   46.9520 C   0  0  0  0  0  0  0  0  0  0  0  0
   58.8410   29.7180   48.1800 O   0  0  0  0  0  0  0  0  0  0  0  0
   57.4080   30.0040   46.3560 N   0  0  0  0  0  0  0  0  0  0  0  0
   57.2240   30.3700   44.9800 C   0  0  0  0  0  0  0  0  0  0  0  0
   58.1620   31.1660   44.2930 C   0  0  0  0  0  0  0  0  0  0  0  0
   59.0540   31.5383   44.8181 H   0  0  0  0  0  0  0  0  0  0  0  0
   57.9630   31.4840   42.9470 C   0  0  0  0  0  0  0  0  0  0  0  0
   58.6931   32.1145   42.4184 H   0  0  0  0  0  0  0  0  0  0  0  0
   56.8390   31.0030   42.2710 C   0  0  0  0  0  0  0  0  0  0  0  0
   56.6815   31.2606   41.2132 H   0  0  0  0  0  0  0  0  0  0  0  0
   55.9150   30.1950   42.9380 C   0  0  0  0  0  0  0  0  0  0  0  0
   55.0335   29.8115   42.4033 H   0  0  0  0  0  0  0  0  0  0  0  0
   56.1100   29.8730   44.2860 C   0  0  0  0  0  0  0  0  0  0  0  0
   55.1860   29.0600   44.9360 O   0  0  0  0  0  0  0  0  0  0  0  0
   59.2950   27.5290   45.6130 C   0  0  0  0  0  0  0  0  0  0  0  0
   59.9190   27.1965   44.7703 H   0  0  0  0  0  0  0  0  0  0  0  0
   58.2390   26.6050   46.0820 C   0  0  0  0  0  0  0  0  0  0  0  0
   58.5600   25.3880   46.7100 C   0  0  0  0  0  0  0  0  0  0  0  0
   59.6128   25.1262   46.8918 H   0  0  0  0  0  0  0  0  0  0  0  0
   57.5460   24.5100   47.1040 C   0  0  0  0  0  0  0  0  0  0  0  0
   57.8018   23.5674   47.6100 H   0  0  0  0  0  0  0  0  0  0  0  0
   56.2070   24.8280   46.8560 C   0  0  0  0  0  0  0  0  0  0  0  0
   55.2030   23.9510   47.2520 O   0  0  0  0  0  0  0  0  0  0  0  0
   55.8820   26.0230   46.2040 C   0  0  0  0  0  0  0  0  0  0  0  0
   54.5530   26.3380   45.9450 O   0  0  0  0  0  0  0  0  0  0  0  0
   56.8950   26.9030   45.8090 C   0  0  0  0  0  0  0  0  0  0  0  0
   56.6369   27.8333   45.2817 H   0  0  0  0  0  0  0  0  0  0  0  0
  1  2  1  0
  2  3  1  0
  3  4  2  0
  3  5  1  0
  5  6  1  0
  6  7  2  0
  7  8  1  0
  7  9  1  0
  9 10  1  0
  9 11  2  0
 11 12  1  0
 11 13  1  0
 13 14  1  0
 13 15  2  0
 15 16  1  0
  2 17  2  0
 17 18  1  0
 17 19  1  0
 19 20  2  0
 20 21  1  0
 20 22  1  0
 22 23  1  0
 22 24  2  0
 24 25  1  0
 24 26  1  0
 26 27  1  0
 26 28  2  0
 28 29  1  0
 15  6  1  0
 28 19  1  0
M  CHG  4   5  -1  16  -1  25  -1  27  -1
M  END
>  <UniqueID>  (5) 
5

>  <SMILES>  (5) 
O=C(/C=C\c1ccc([O-])c([O-])c1)[N-]c1ccccc1[O-]

>  <Energy>  (5) 
41.230777335014935

>  <Genealogy>  (5) 
O=C(C=Cc1ccc([O-])c([O-])c1)[N-]c1ccccc1[O-] (protonated)
O=C(/C=C\c1ccc([O-])c([O-])c1)[N-]c1ccccc1[O-] (cis-trans isomerization)
O=C(/C=C\c1ccc([O-])c([O-])c1)[N-]c1ccccc1[O-] (3D coordinates assigned)
O=C(/C=C\c1ccc([O-])c([O-])c1)[N-]c1ccccc1[O-] (optimized conformer: 41.230777335014935 kcal/mol)

>  <smiles>  (5) 
O=C(C=Cc1ccc(O)c(O)c1)Nc1ccccc1O

>  <score_type>  (5) 
oracle

>  <origin>  (5) 
adg

>  <m_score__min__energy>  (5) 
-17.460000000000001

>  <m_primary>  (5) 
energy

$$$$
5:0
     RDKit          3D

 42 44  0  0  0  0  0  0  0  0999 V2000
   54.8990   26.3520   45.9710 N   0  0  0  0  0  0  0  0  0  0  0  0
   56.3630   25.4560   46.1780 S   0  0  0  0  0  0  0  0  0  0  0  0
   56.2680   24.6090   47.4170 O   0  0  0  0  0  0  0  0  0  0  0  0
   56.5680   24.5550   44.9900 O   0  0  0  0  0  0  0  0  0  0  0  0
   57.7150   26.5730   46.3350 C   0  0  0  0  0  0  0  0  0  0  0  0
   58.8370   26.2400   47.1050 C   0  0  0  0  0  0  0  0  0  0  0  0
   59.9050   27.1350   47.2090 C   0  0  0  0  0  0  0  0  0  0  0  0
   59.8690   28.3540   46.5270 C   0  0  0  0  0  0  0  0  0  0  0  0
   58.7690   28.6830   45.7260 C   0  0  0  0  0  0  0  0  0  0  0  0
   58.7800   29.9260   45.0100 N   0  0  0  0  0  0  0  0  0  0  0  0
   57.8840   31.0300   45.2050 C   0  0  0  0  0  0  0  0  0  0  0  0
   56.6450   30.8210   45.1300 O   0  0  0  0  0  0  0  0  0  0  0  0
   58.3650   32.3990   45.5000 C   0  0  0  0  0  0  0  0  0  0  0  0
   58.0300   33.4330   44.6080 C   0  0  0  0  0  0  0  0  0  0  0  0
   58.5140   34.7260   44.8070 C   0  0  0  0  0  0  0  0  0  0  0  0
   59.3300   35.0070   45.9030 C   0  0  0  0  0  0  0  0  0  0  0  0
   59.6470   33.9990   46.8150 C   0  0  0  0  0  0  0  0  0  0  0  0
   59.1560   32.6980   46.6360 C   0  0  0  0  0  0  0  0  0  0  0  0
   59.5180   31.4720   47.9060 S   0  0  0  0  0  0  0  0  0  0  0  0
   61.1770   32.1050   48.2030 C   0  0  0  0  0  0  0  0  0  0  0  0
   62.2090   31.6650   47.3630 C   0  0  0  0  0  0  0  0  0  0  0  0
   63.5260   32.0670   47.5870 C   0  0  0  0  0  0  0  0  0  0  0  0
   63.8240   32.9170   48.6510 C   0  0  0  0  0  0  0  0  0  0  0  0
   62.8040   33.3770   49.4880 C   0  0  0  0  0  0  0  0  0  0  0  0
   61.4690   32.9940   49.2680 C   0  0  0  0  0  0  0  0  0  0  0  0
   60.4400   33.5160   50.1280 N   0  0  0  0  0  0  0  0  0  0  0  0
   60.1620   32.9520   51.2060 O   0  0  0  0  0  0  0  0  0  0  0  0
   59.6240   34.5320   49.6860 O   0  0  0  0  0  0  0  0  0  0  0  0
   57.6770   27.7990   45.6590 C   0  0  0  0  0  0  0  0  0  0  0  0
   55.1510   27.3670   46.0210 H   0  0  0  0  0  0  0  0  0  0  0  0
   58.8772   25.2732   47.6281 H   0  0  0  0  0  0  0  0  0  0  0  0
   60.7765   26.8792   47.8295 H   0  0  0  0  0  0  0  0  0  0  0  0
   60.7088   29.0583   46.6199 H   0  0  0  0  0  0  0  0  0  0  0  0
   57.3807   33.2205   43.7459 H   0  0  0  0  0  0  0  0  0  0  0  0
   58.2518   35.5255   44.0984 H   0  0  0  0  0  0  0  0  0  0  0  0
   59.7239   36.0237   46.0486 H   0  0  0  0  0  0  0  0  0  0  0  0
   60.2866   34.2270   47.6804 H   0  0  0  0  0  0  0  0  0  0  0  0
   61.9786   30.9970   46.5199 H   0  0  0  0  0  0  0  0  0  0  0  0
   64.3293   31.7133   46.9240 H   0  0  0  0  0  0  0  0  0  0  0  0
   64.8640   33.2262   48.8320 H   0  0  0  0  0  0  0  0  0  0  0  0
   63.0477   34.0452   50.3271 H   0  0  0  0  0  0  0  0  0  0  0  0
   56.7877   28.0723   45.0721 H   0  0  0  0  0  0  0  0  0  0  0  0
  1  2  1  0
  2  3  2  0
  2  4  2  0
  2  5  1  0
  5  6  2  0
  6  7  1  0
  7  8  2  0
  8  9  1  0
  9 10  1  0
 10 11  1  0
 11 12  2  0
 11 13  1  0
 13 14  2  0
 14 15  1  0
 15 16  2  0
 16 17  1  0
 17 18  2  0
 18 19  1  0
 19 20  1  0
 20 21  2  0
 21 22  1  0
 22 23  2  0
 23 24  1  0
 24 25  2  0
 25 26  1  0
 26 27  2  0
 26 28  1  0
  9 29  2  0
 29  5  1  0
 18 13  1  0
 25 20  1  0
  1 30  1  0
  6 31  1  0
  7 32  1  0
  8 33  1  0
 14 34  1  0
 15 35  1  0
 16 36  1  0
 17 37  1  0
 21 38  1  0
 22 39  1  0
 23 40  1  0
 24 41  1  0
 29 42  1  0
M  CHG  4   1  -1  10  -1  26   1  28  -1
M  END
>  <UniqueID>  (6) 
6

>  <SMILES>  (6) 
[NH-]S(=O)(=O)c1cccc([N-]C(=O)c2ccccc2Sc2ccccc2[N+](=O)[O-])c1

>  <Energy>  (6) 
52.83274275803993

>  <Genealogy>  (6) 
[NH-]S(=O)(=O)c1cccc([N-]C(=O)c2ccccc2Sc2ccccc2[N+](=O)[O-])c1 (protonated)
[NH-]S(=O)(=O)c1cccc([N-]C(=O)c2ccccc2Sc2ccccc2[N+](=O)[O-])c1 (3D coordinates assigned)
[NH-]S(=O)(=O)c1cccc([N-]C(=O)c2ccccc2Sc2ccccc2[N+](=O)[O-])c1 (optimized conformer: 52.83274275803993 kcal/mol)

>  <smiles>  (6) 
NS(=O)(=O)c1cccc(NC(=O)c2ccccc2Sc2ccccc2[N+](=O)[O-])c1

>  <score_type>  (6) 
oracle

>  <origin>  (6) 
adg

>  <m_score__min__energy>  (6) 
-13.85

>  <m_primary>  (6) 
energy

$$$$
6:0
     RDKit          3D

 41 43  0  0  0  0  0  0  0  0999 V2000
   55.1190   29.3220   44.8560 N   0  0  0  0  0  0  0  0  0  0  0  0
   56.5240   29.5690   44.9150 C   0  0  0  0  0  0  0  0  0  0  0  0
   57.2470   28.8290   45.6340 O   0  0  0  0  0  0  0  0  0  0  0  0
   57.1400   30.6460   44.1010 C   0  0  0  0  0  0  0  0  0  0  0  0
   56.9580   30.6180   42.7060 C   0  0  0  0  0  0  0  0  0  0  0  0
   57.4490   31.6470   41.9000 C   0  0  0  0  0  0  0  0  0  0  0  0
   58.1300   32.7190   42.4720 C   0  0  0  0  0  0  0  0  0  0  0  0
   58.3400   32.7580   43.8510 C   0  0  0  0  0  0  0  0  0  0  0  0
   57.8660   31.7240   44.6780 C   0  0  0  0  0  0  0  0  0  0  0  0
   58.2050   31.7730   46.1180 C   0  0  0  0  0  0  0  0  0  0  0  0
   57.8320   32.8750   46.9010 C   0  0  0  0  0  0  0  0  0  0  0  0
   58.1610   32.9110   48.2580 C   0  0  0  0  0  0  0  0  0  0  0  0
   58.8760   31.8460   48.8220 C   0  0  0  0  0  0  0  0  0  0  0  0
   59.2170   31.8320   50.2830 C   0  0  0  0  0  0  0  0  0  0  0  0
   57.9970   31.7660   51.0840 N   0  0  0  0  0  0  0  0  0  0  0  0
   57.4280   30.5170   51.5130 C   0  0  0  0  0  0  0  0  0  0  0  0
   58.0280   29.4380   51.2530 O   0  0  0  0  0  0  0  0  0  0  0  0
   56.1570   30.4740   52.2760 C   0  0  0  0  0  0  0  0  0  0  0  0
   56.1630   30.0720   53.6250 C   0  0  0  0  0  0  0  0  0  0  0  0
   54.9710   30.0240   54.3550 C   0  0  0  0  0  0  0  0  0  0  0  0
   53.7620   30.3670   53.7470 C   0  0  0  0  0  0  0  0  0  0  0  0
   53.7420   30.7550   52.4050 C   0  0  0  0  0  0  0  0  0  0  0  0
   54.9310   30.8070   51.6710 C   0  0  0  0  0  0  0  0  0  0  0  0
   59.2400   30.7920   48.0420 N   0  0  0  0  0  0  0  0  0  0  0  0
   58.9310   30.7340   46.7190 C   0  0  0  0  0  0  0  0  0  0  0  0
   54.5240   29.3950   45.7120 H   0  0  0  0  0  0  0  0  0  0  0  0
   56.4224   29.7752   42.2448 H   0  0  0  0  0  0  0  0  0  0  0  0
   57.2977   31.6110   40.8111 H   0  0  0  0  0  0  0  0  0  0  0  0
   58.5026   33.5356   41.8361 H   0  0  0  0  0  0  0  0  0  0  0  0
   58.8817   33.6059   44.2956 H   0  0  0  0  0  0  0  0  0  0  0  0
   57.2803   33.7111   46.4465 H   0  0  0  0  0  0  0  0  0  0  0  0
   57.8613   33.7682   48.8788 H   0  0  0  0  0  0  0  0  0  0  0  0
   59.8435   30.9547   50.5017 H   0  0  0  0  0  0  0  0  0  0  0  0
   59.7622   32.7539   50.5337 H   0  0  0  0  0  0  0  0  0  0  0  0
   57.5770   32.6680   51.4010 H   0  0  0  0  0  0  0  0  0  0  0  0
   57.1113   29.7938   54.1081 H   0  0  0  0  0  0  0  0  0  0  0  0
   54.9861   29.7153   55.4107 H   0  0  0  0  0  0  0  0  0  0  0  0
   52.8261   30.3318   54.3240 H   0  0  0  0  0  0  0  0  0  0  0  0
   52.7886   31.0202   51.9247 H   0  0  0  0  0  0  0  0  0  0  0  0
   54.9078   31.1102   50.6139 H   0  0  0  0  0  0  0  0  0  0  0  0
   59.2512   29.8699   46.1184 H   0  0  0  0  0  0  0  0  0  0  0  0
  1  2  1  0
  2  3  2  0
  2  4  1  0
  4  5  2  0
  5  6  1  0
  6  7  2  0
  7  8  1  0
  8  9  2  0
  9 10  1  0
 10 11  2  0
 11 12  1  0
 12 13  2  0
 13 14  1  0
 14 15  1  0
 15 16  1  0
 16 17  2  0
 16 18  1  0
 18 19  2  0
 19 20  1  0
 20 21  2  0
 21 22  1  0
 22 23  2  0
 13 24  1  0
 24 25  2  0
  9  4  1  0
 25 10  1  0
 23 18  1  0
  1 26  1  0
  5 27  1  0
  6 28  1  0
  7 29  1  0
  8 30  1  0
 11 31  1  0
 12 32  1  0
 14 33  1  0
 14 34  1  0
 15 35  1  0
 19 36  1  0
 20 37  1  0
 21 38  1  0
 22 39  1  0
 23 40  1  0
 25 41  1  0
M  CHG  1   1  -1
M  END
>  <UniqueID>  (7) 
7

>  <SMILES>  (7) 
[NH-]C(=O)c1ccccc1-c1ccc(CNC(=O)c2ccccc2)nc1

>  <Energy>  (7) 
55.15075301573823

>  <Genealogy>  (7) 
[NH-]C(=O)c1ccccc1-c1ccc(CNC(=O)c2ccccc2)nc1 (protonated)
[NH-]C(=O)c1ccccc1-c1ccc(CNC(=O)c2ccccc2)nc1 (3D coordinates assigned)
[NH-]C(=O)c1ccccc1-c1ccc(CNC(=O)c2ccccc2)nc1 (optimized conformer: 55.15075301573823 kcal/mol)

>  <smiles>  (7) 
NC(=O)c1ccccc1-c1ccc(CNC(=O)c2ccccc2)nc1

>  <score_type>  (7) 
oracle

>  <origin>  (7) 
adg

>  <m_score__min__energy>  (7) 
-11

>  <m_primary>  (7) 
energy

$$$$
7:0
     RDKit          3D

 39 41  0  0  0  0  0  0  0  0999 V2000
   52.8570   30.2250   54.7800 O   0  0  0  0  0  0  0  0  0  0  0  0
   52.7830   30.7500   53.6370 C   0  0  0  0  0  0  0  0  0  0  0  0
   51.6290   31.4510   53.2740 C   0  0  0  0  0  0  0  0  0  0  0  0
   51.5430   32.0150   51.9990 C   0  0  0  0  0  0  0  0  0  0  0  0
   50.4030   32.7140   51.6220 O   0  0  0  0  0  0  0  0  0  0  0  0
   52.5730   31.8810   51.1240 N   0  0  0  0  0  0  0  0  0  0  0  0
   53.7070   31.2050   51.4520 C   0  0  0  0  0  0  0  0  0  0  0  0
   53.8410   30.6230   52.7200 C   0  0  0  0  0  0  0  0  0  0  0  0
   55.0430   29.9150   53.0590 N   0  0  0  0  0  0  0  0  0  0  0  0
   55.0160   28.5000   53.4240 C   0  0  0  0  0  0  0  0  0  0  0  0
   56.0050   28.1660   54.5630 C   0  0  0  0  0  0  0  0  0  0  0  0
   57.1180   29.2110   54.8280 C   0  0  0  0  0  0  0  0  0  0  0  0
   57.7750   29.7270   53.6080 N   0  0  1  0  0  0  0  0  0  0  0  0
   58.4200   28.6440   52.8250 C   0  0  0  0  0  0  0  0  0  0  0  0
   59.5840   29.1490   52.0020 C   0  0  0  0  0  0  0  0  0  0  0  0
   60.8340   29.3740   52.6070 C   0  0  0  0  0  0  0  0  0  0  0  0
   61.9160   29.8260   51.8460 C   0  0  0  0  0  0  0  0  0  0  0  0
   61.7640   30.0470   50.4750 C   0  0  0  0  0  0  0  0  0  0  0  0
   60.5320   29.8100   49.8610 C   0  0  0  0  0  0  0  0  0  0  0  0
   59.4470   29.3560   50.6180 C   0  0  0  0  0  0  0  0  0  0  0  0
   56.5840   30.6060   52.6870 S   0  0  0  0  0  0  0  0  0  0  0  0
   56.8350   30.5080   51.2090 O   0  0  0  0  0  0  0  0  0  0  0  0
   56.6110   32.0500   53.1030 O   0  0  0  0  0  0  0  0  0  0  0  0
   50.7969   31.5573   53.9856 H   0  0  0  0  0  0  0  0  0  0  0  0
   54.5222   31.1148   50.7190 H   0  0  0  0  0  0  0  0  0  0  0  0
   53.9989   28.2392   53.7517 H   0  0  0  0  0  0  0  0  0  0  0  0
   55.3159   27.9198   52.5389 H   0  0  0  0  0  0  0  0  0  0  0  0
   55.4238   28.0517   55.4899 H   0  0  0  0  0  0  0  0  0  0  0  0
   56.5276   27.2528   54.2421 H   0  0  0  0  0  0  0  0  0  0  0  0
   56.6709   30.0613   55.3637 H   0  0  0  0  0  0  0  0  0  0  0  0
   57.8973   28.6984   55.4110 H   0  0  0  0  0  0  0  0  0  0  0  0
   58.4990   30.4140   53.9220 H   0  0  0  0  0  0  0  0  0  0  0  0
   58.7855   27.8738   53.5201 H   0  0  0  0  0  0  0  0  0  0  0  0
   57.6694   28.2350   52.1327 H   0  0  0  0  0  0  0  0  0  0  0  0
   60.9606   29.1933   53.6846 H   0  0  0  0  0  0  0  0  0  0  0  0
   62.8883   30.0079   52.3273 H   0  0  0  0  0  0  0  0  0  0  0  0
   62.6150   30.4079   49.8787 H   0  0  0  0  0  0  0  0  0  0  0  0
   60.4149   29.9806   48.7806 H   0  0  0  0  0  0  0  0  0  0  0  0
   58.4818   29.1599   50.1282 H   0  0  0  0  0  0  0  0  0  0  0  0
  1  2  2  0
  2  3  1  0
  3  4  2  0
  4  5  1  0
  4  6  1  0
  6  7  1  0
  7  8  2  0
  8  9  1  0
  9 10  1  0
 10 11  1  0
 11 12  1  0
 12 13  1  0
 13 14  1  0
 14 15  1  0
 15 16  2  0
 16 17  1  0
 17 18  2  0
 18 19  1  0
 19 20  2  0
 13 21  1  0
 21 22  2  0
 21 23  2  0
  8  2  1  0
 21  9  1  0
 20 15  1  0
  3 24  1  0
  7 25  1  0
 10 26  1  0
 10 27  1  0
 11 28  1  0
 11 29  1  0
 12 30  1  0
 12 31  1  0
 13 32  1  1
 14 33  1  0
 14 34  1  0
 16 35  1  0
 17 36  1  0
 18 37  1  0
 19 38  1  0
 20 39  1  0
M  CHG  3   5  -1   6  -1  13   1
M  END
>  <UniqueID>  (8) 
8

>  <SMILES>  (8) 
O=c1cc([O-])[n-]cc1N1CCC[N@@H+](Cc2ccccc2)S1(=O)=O

>  <Energy>  (8) 
55.28294186899078

>  <Genealogy>  (8) 
O=c1cc([O-])[n-]cc1N1CCC[NH+](Cc2ccccc2)S1(=O)=O (protonated)
O=c1cc([O-])[n-]cc1N1CCC[N@@H+](Cc2ccccc2)S1(=O)=O (chirality)
O=c1cc([O-])[n-]cc1N1CCC[N@@H+](Cc2ccccc2)S1(=O)=O (3D coordinates assigned)
O=c1cc([O-])[n-]cc1N1CCC[N@@H+](Cc2ccccc2)S1(=O)=O (nonaromatic ring conformer: 55.28294186899078 kcal/mol)

>  <smiles>  (8) 
O=c1cc(O)[nH]cc1N1CCCN(Cc2ccccc2)S1(=O)=O

>  <score_type>  (8) 
oracle

>  <origin>  (8) 
adg

>  <m_score__min__energy>  (8) 
-11.06

>  <m_primary>  (8) 
energy

$$$$
8:0
     RDKit          3D

 31 32  0  0  0  0  0  0  0  0999 V2000
   54.7020   26.1700   45.9940 O   0  0  0  0  0  0  0  0  0  0  0  0
   55.3560   25.0320   45.5030 C   0  0  0  0  0  0  0  0  0  0  0  0
   56.6840   24.7970   46.2400 C   0  0  2  0  0  0  0  0  0  0  0  0
   56.4780   24.9610   47.6200 O   0  0  0  0  0  0  0  0  0  0  0  0
   57.7940   25.7460   45.7490 C   0  0  0  0  0  0  0  0  0  0  0  0
   57.2480   27.0490   45.3630 N   0  0  0  0  0  0  0  0  0  0  0  0
   57.8130   28.2940   45.8160 C   0  0  0  0  0  0  0  0  0  0  0  0
   58.4740   28.3470   47.0540 C   0  0  0  0  0  0  0  0  0  0  0  0
   58.9890   29.5470   47.5350 C   0  0  0  0  0  0  0  0  0  0  0  0
   58.8540   30.7190   46.7950 C   0  0  0  0  0  0  0  0  0  0  0  0
   58.2000   30.7070   45.5490 C   0  0  0  0  0  0  0  0  0  0  0  0
   58.0620   31.8890   44.7830 C   0  0  0  0  0  0  0  0  0  0  0  0
   58.6720   33.4500   45.3340 Cl  0  0  0  0  0  0  0  0  0  0  0  0
   57.4250   31.8450   43.5410 C   0  0  0  0  0  0  0  0  0  0  0  0
   56.9290   30.6420   43.0440 C   0  0  0  0  0  0  0  0  0  0  0  0
   57.0530   29.4680   43.7850 C   0  0  0  0  0  0  0  0  0  0  0  0
   57.6760   29.4800   45.0500 C   0  0  0  0  0  0  0  0  0  0  0  0
   55.0760   26.3470   46.8960 H   0  0  0  0  0  0  0  0  0  0  0  0
   54.7067   24.1554   45.6440 H   0  0  0  0  0  0  0  0  0  0  0  0
   55.5710   25.1855   44.4352 H   0  0  0  0  0  0  0  0  0  0  0  0
   57.0201   23.7715   46.0269 H   0  0  0  0  0  0  0  0  0  0  0  0
   55.5260   25.2160   47.7400 H   0  0  0  0  0  0  0  0  0  0  0  0
   58.5262   25.8895   46.5573 H   0  0  0  0  0  0  0  0  0  0  0  0
   58.2716   25.2946   44.8669 H   0  0  0  0  0  0  0  0  0  0  0  0
   56.3260   27.0710   44.8710 H   0  0  0  0  0  0  0  0  0  0  0  0
   58.5859   27.4294   47.6503 H   0  0  0  0  0  0  0  0  0  0  0  0
   59.5059   29.5700   48.5057 H   0  0  0  0  0  0  0  0  0  0  0  0
   59.2620   31.6620   47.1877 H   0  0  0  0  0  0  0  0  0  0  0  0
   57.3142   32.7668   42.9511 H   0  0  0  0  0  0  0  0  0  0  0  0
   56.4364   30.6184   42.0607 H   0  0  0  0  0  0  0  0  0  0  0  0
   56.6613   28.5235   43.3793 H   0  0  0  0  0  0  0  0  0  0  0  0
  1  2  1  0
  2  3  1  0
  3  4  1  0
  3  5  1  0
  5  6  1  0
  6  7  1  0
  7  8  2  0
  8  9  1  0
  9 10  2  0
 10 11  1  0
 11 12  2  0
 12 13  1  0
 12 14  1  0
 14 15  2  0
 15 16  1  0
 16 17  2  0
 17  7  1  0
 17 11  1  0
  1 18  1  0
  2 19  1  0
  2 20  1  0
  3 21  1  1
  4 22  1  0
  5 23  1  0
  5 24  1  0
  6 25  1  0
  8 26  1  0
  9 27  1  0
 10 28  1  0
 14 29  1  0
 15 30  1  0
 16 31  1  0
M  END
>  <UniqueID>  (9) 
9

>  <SMILES>  (9) 
OC[C@H](O)CNc1cccc2c(Cl)cccc12

>  <Energy>  (9) 
37.227978089092886

>  <Genealogy>  (9) 
OC[C@H](O)CNc1cccc2c(Cl)cccc12 (chirality)
OC[C@H](O)CNc1cccc2c(Cl)cccc12 (3D coordinates assigned)
OC[C@H](O)CNc1cccc2c(Cl)cccc12 (optimized conformer: 37.227978089092886 kcal/mol)

>  <smiles>  (9) 
OCC(O)CNc1cccc2c(Cl)cccc12

>  <score_type>  (9) 
oracle

>  <origin>  (9) 
adg

>  <m_score__min__energy>  (9) 
-7.1399999999999997

>  <m_primary>  (9) 
energy

$$$$
9:0
     RDKit          3D

 42 44  0  0  0  0  0  0  0  0999 V2000
   57.7860   21.5300   45.9060 C   0  0  0  0  0  0  0  0  0  0  0  0
   57.7670   22.6170   46.8250 O   0  0  0  0  0  0  0  0  0  0  0  0
   57.2890   23.9010   46.5250 C   0  0  0  0  0  0  0  0  0  0  0  0
   58.2030   24.9620   46.4970 C   0  0  0  0  0  0  0  0  0  0  0  0
   57.7770   26.2580   46.1980 C   0  0  0  0  0  0  0  0  0  0  0  0
   56.4220   26.5170   45.9330 C   0  0  0  0  0  0  0  0  0  0  0  0
   55.9400   27.8340   45.6230 N   0  0  0  0  0  0  0  0  0  0  0  0
   56.8140   29.0390   44.7350 S   0  0  0  0  0  0  0  0  0  0  0  0
   57.1800   28.4960   43.3810 O   0  0  0  0  0  0  0  0  0  0  0  0
   55.9330   30.2410   44.5420 O   0  0  0  0  0  0  0  0  0  0  0  0
   58.2500   29.5270   45.6300 C   0  0  0  0  0  0  0  0  0  0  0  0
   59.5020   29.0270   45.2530 C   0  0  0  0  0  0  0  0  0  0  0  0
   60.6520   29.4060   45.9510 C   0  0  0  0  0  0  0  0  0  0  0  0
   60.5660   30.3020   47.0340 C   0  0  0  0  0  0  0  0  0  0  0  0
   61.7270   30.7190   47.7760 N   0  0  0  0  0  0  0  0  0  0  0  0
   62.3440   32.3400   47.7920 S   0  0  0  0  0  0  0  0  0  0  0  0
   63.5190   32.4330   46.8570 O   0  0  0  0  0  0  0  0  0  0  0  0
   62.8000   32.6860   49.1810 O   0  0  0  0  0  0  0  0  0  0  0  0
   61.0900   33.4640   47.3060 C   0  0  0  0  0  0  0  0  0  0  0  0
   60.8150   33.8550   46.0040 C   0  0  0  0  0  0  0  0  0  0  0  0
   59.7720   34.7840   45.9230 C   0  0  0  0  0  0  0  0  0  0  0  0
   59.2310   35.1240   47.1590 C   0  0  0  0  0  0  0  0  0  0  0  0
   60.0500   34.2660   48.3530 S   0  0  0  0  0  0  0  0  0  0  0  0
   59.3060   30.8030   47.4020 C   0  0  0  0  0  0  0  0  0  0  0  0
   58.1560   30.4130   46.7110 C   0  0  0  0  0  0  0  0  0  0  0  0
   55.5070   25.4570   45.9600 C   0  0  0  0  0  0  0  0  0  0  0  0
   55.9340   24.1570   46.2480 C   0  0  0  0  0  0  0  0  0  0  0  0
   57.8026   20.5806   46.4613 H   0  0  0  0  0  0  0  0  0  0  0  0
   56.8870   21.5690   45.2733 H   0  0  0  0  0  0  0  0  0  0  0  0
   58.6831   21.6004   45.2733 H   0  0  0  0  0  0  0  0  0  0  0  0
   59.2650   24.7729   46.7123 H   0  0  0  0  0  0  0  0  0  0  0  0
   58.5067   27.0807   46.1699 H   0  0  0  0  0  0  0  0  0  0  0  0
   59.5811   28.3326   44.4035 H   0  0  0  0  0  0  0  0  0  0  0  0
   61.6305   29.0018   45.6525 H   0  0  0  0  0  0  0  0  0  0  0  0
   62.2670   30.0040   48.3140 H   0  0  0  0  0  0  0  0  0  0  0  0
   61.3597   33.4747   45.1273 H   0  0  0  0  0  0  0  0  0  0  0  0
   59.4136   35.2056   44.9723 H   0  0  0  0  0  0  0  0  0  0  0  0
   58.4074   35.8335   47.3273 H   0  0  0  0  0  0  0  0  0  0  0  0
   59.2242   31.5087   48.2418 H   0  0  0  0  0  0  0  0  0  0  0  0
   57.1739   30.8028   47.0167 H   0  0  0  0  0  0  0  0  0  0  0  0
   54.4438   25.6487   45.7530 H   0  0  0  0  0  0  0  0  0  0  0  0
   55.2073   23.3313   46.2580 H   0  0  0  0  0  0  0  0  0  0  0  0
  1  2  1  0
  2  3  1  0
  3  4  2  0
  4  5  1  0
  5  6  2  0
  6  7  1  0
  7  8  1  0
  8  9  2  0
  8 10  2  0
  8 11  1  0
 11 12  2  0
 12 13  1  0
 13 14  2  0
 14 15  1  0
 15 16  1  0
 16 17  2  0
 16 18  2  0
 16 19  1  0
 19 20  2  0
 20 21  1  0
 21 22  2  0
 22 23  1  0
 14 24  1  0
 24 25  2  0
  6 26  1  0
 26 27  2  0
 27  3  1  0
 25 11  1  0
 23 19  1  0
  1 28  1  0
  1 29  1  0
  1 30  1  0
  4 31  1  0
  5 32  1  0
 12 33  1  0
 13 34  1  0
 15 35  1  0
 20 36  1  0
 21 37  1  0
 22 38  1  0
 24 39  1  0
 25 40  1  0
 26 41  1  0
 27 42  1  0
M  CHG  1   7  -1
M  END
>  <UniqueID>  (10) 
10

>  <SMILES>  (10) 
COc1ccc([N-]S(=O)(=O)c2ccc(NS(=O)(=O)c3cccs3)cc2)cc1

>  <Energy>  (10) 
75.82437740004676

>  <Genealogy>  (10) 
COc1ccc([N-]S(=O)(=O)c2ccc(NS(=O)(=O)c3cccs3)cc2)cc1 (protonated)
COc1ccc([N-]S(=O)(=O)c2ccc(NS(=O)(=O)c3cccs3)cc2)cc1 (3D coordinates assigned)
COc1ccc([N-]S(=O)(=O)c2ccc(NS(=O)(=O)c3cccs3)cc2)cc1 (optimized conformer: 75.82437740004676 kcal/mol)

>  <smiles>  (10) 
COc1ccc(NS(=O)(=O)c2ccc(NS(=O)(=O)c3cccs3)cc2)cc1

>  <score_type>  (10) 
oracle

>  <origin>  (10) 
adg

>  <m_score__min__energy>  (10) 
-9.7200000000000006

>  <m_primary>  (10) 
energy

$$$$
10:0
     RDKit          3D

 14 14  0  0  0  0  0  0  0  0999 V2000
   56.4170   29.9550   42.5730 N   0  0  0  0  0  0  0  0  0  0  0  0
   56.4410   29.9000   44.3010 S   0  0  0  0  0  0  0  0  0  0  0  0
   55.1410   29.3410   44.8060 O   0  0  0  0  0  0  0  0  0  0  0  0
   56.6310   31.2920   44.8350 O   0  0  0  0  0  0  0  0  0  0  0  0
   57.7640   28.8810   44.8360 C   0  0  0  0  0  0  0  0  0  0  0  0
   59.1130   29.1570   44.6740 C   0  0  0  0  0  0  0  0  0  0  0  0
   59.9390   28.1520   45.1920 C   0  0  0  0  0  0  0  0  0  0  0  0
   59.2410   27.0920   45.7570 C   0  0  0  0  0  0  0  0  0  0  0  0
   57.5930   27.4020   45.6110 S   0  0  0  0  0  0  0  0  0  0  0  0
   55.7670   29.2030   42.2520 H   0  0  0  0  0  0  0  0  0  0  0  0
   57.3720   29.6890   42.2440 H   0  0  0  0  0  0  0  0  0  0  0  0
   59.4938   30.0685   44.1901 H   0  0  0  0  0  0  0  0  0  0  0  0
   61.0374   28.1975   45.1550 H   0  0  0  0  0  0  0  0  0  0  0  0
   59.6893   26.2011   46.2211 H   0  0  0  0  0  0  0  0  0  0  0  0
  1  2  1  0
  2  3  2  0
  2  4  2  0
  2  5  1  0
  5  6  2  0
  6  7  1  0
  7  8  2  0
  8  9  1  0
  9  5  1  0
  1 10  1  0
  1 11  1  0
  6 12  1  0
  7 13  1  0
  8 14  1  0
M  END
>  <UniqueID>  (11) 
11

>  <SMILES>  (11) 
NS(=O)(=O)c1cccs1

>  <Energy>  (11) 
36.87054214291123

>  <Genealogy>  (11) 
NS(=O)(=O)c1cccs1 (3D coordinates assigned)
NS(=O)(=O)c1cccs1 (optimized conformer: 36.87054214291123 kcal/mol)

>  <smiles>  (11) 
NS(=O)(=O)c1cccs1

>  <score_type>  (11) 
oracle

>  <origin>  (11) 
adg

>  <m_score__min__energy>  (11) 
-5.3399999999999999

>  <m_primary>  (11) 
energy

$$$$
11:0
     RDKit          3D

 42 45  0  0  1  0  0  0  0  0999 V2000
   57.7810   26.3510   43.0220 N   0  0  0  0  0  0  0  0  0  0  0  0
   57.9790   27.1480   44.0050 C   0  0  0  0  0  0  0  0  0  0  0  0
   57.3120   28.3080   44.0720 N   0  0  0  0  0  0  0  0  0  0  0  0
   57.5320   29.1210   45.1010 C   0  0  0  0  0  0  0  0  0  0  0  0
   56.9400   30.2500   45.2410 N   0  0  0  0  0  0  0  0  0  0  0  0
   57.2210   31.4000   44.4510 C   0  0  0  0  0  0  0  0  0  0  0  0
   57.8610   32.5120   45.2190 C   0  0  0  0  0  0  0  0  0  0  0  0
   58.0340   32.4880   46.5800 C   0  0  0  0  0  0  0  0  0  0  0  0
   58.6220   33.5020   47.3030 C   0  0  0  0  0  0  0  0  0  0  0  0
   58.7770   33.4430   48.6550 F   0  0  0  0  0  0  0  0  0  0  0  0
   59.0700   34.6210   46.6300 C   0  0  0  0  0  0  0  0  0  0  0  0
   58.9040   34.6640   45.2600 C   0  0  0  0  0  0  0  0  0  0  0  0
   59.3510   35.7710   44.6180 F   0  0  0  0  0  0  0  0  0  0  0  0
   58.3130   33.6380   44.5530 C   0  0  0  0  0  0  0  0  0  0  0  0
   58.4440   28.7820   46.1080 C   0  0  0  0  0  0  0  0  0  0  0  0
   58.6730   29.6340   47.1840 C   0  0  0  0  0  0  0  0  0  0  0  0
   59.5720   29.3080   48.1840 C   0  0  0  0  0  0  0  0  0  0  0  0
   59.8020   30.2090   49.3060 C   0  0  0  0  0  0  0  0  0  0  0  0
   61.0240   30.6550   49.7030 C   0  0  0  0  0  0  0  0  0  0  0  0
   61.1390   31.4980   50.7690 N   0  0  0  0  0  0  0  0  0  0  0  0
   60.0520   31.9210   51.4650 C   0  0  0  0  0  0  0  0  0  0  0  0
   58.7840   31.4880   51.0930 C   0  0  0  0  0  0  0  0  0  0  0  0
   57.3940   32.0350   51.9950 Cl  0  0  0  0  0  0  0  0  0  0  0  0
   58.6710   30.6330   50.0120 C   0  0  0  0  0  0  0  0  0  0  0  0
   60.2400   28.0990   48.0750 C   0  0  0  0  0  0  0  0  0  0  0  0
   60.0100   27.2430   46.9950 C   0  0  0  0  0  0  0  0  0  0  0  0
   59.1090   27.5730   45.9960 C   0  0  0  0  0  0  0  0  0  0  0  0
   58.8740   26.7700   44.9550 N   0  0  0  0  0  0  0  0  0  0  0  0
   56.8110   26.3100   42.6290 H   0  0  0  0  0  0  0  0  0  0  0  0
   56.6300   28.5860   43.3440 H   0  0  0  0  0  0  0  0  0  0  0  0
   57.8986   31.1051   43.6362 H   0  0  0  0  0  0  0  0  0  0  0  0
   56.2578   31.7783   44.0779 H   0  0  0  0  0  0  0  0  0  0  0  0
   57.6805   31.6025   47.1285 H   0  0  0  0  0  0  0  0  0  0  0  0
   59.5452   35.4537   47.1693 H   0  0  0  0  0  0  0  0  0  0  0  0
   58.2010   33.7144   43.4614 H   0  0  0  0  0  0  0  0  0  0  0  0
   58.1274   30.5875   47.2409 H   0  0  0  0  0  0  0  0  0  0  0  0
   61.9255   30.3337   49.1608 H   0  0  0  0  0  0  0  0  0  0  0  0
   60.1742   32.6031   52.3192 H   0  0  0  0  0  0  0  0  0  0  0  0
   57.6760   30.2807   49.7023 H   0  0  0  0  0  0  0  0  0  0  0  0
   60.9631   27.8084   48.8513 H   0  0  0  0  0  0  0  0  0  0  0  0
   60.5547   26.2891   46.9369 H   0  0  0  0  0  0  0  0  0  0  0  0
   59.3780   25.8530   44.8700 H   0  0  0  0  0  0  0  0  0  0  0  0
  1  2  2  3
  2  3  1  0
  3  4  1  0
  4  5  2  0
  5  6  1  0
  6  7  1  0
  7  8  2  0
  8  9  1  0
  9 10  1  0
  9 11  2  0
 11 12  1  0
 12 13  1  0
 12 14  2  0
  4 15  1  0
 15 16  2  0
 16 17  1  0
 17 18  1  0
 18 19  2  0
 19 20  1  0
 20 21  2  0
 21 22  1  0
 22 23  1  0
 22 24  2  0
 17 25  2  0
 25 26  1  0
 26 27  2  0
 27 28  1  0
 28  2  1  0
 14  7  1  0
 27 15  1  0
 24 18  1  0
  1 29  1  0
  3 30  1  0
  6 31  1  0
  6 32  1  0
  8 33  1  0
 11 34  1  0
 14 35  1  0
 16 36  1  0
 19 37  1  0
 21 38  1  0
 24 39  1  0
 25 40  1  0
 26 41  1  0
 28 42  1  0
M  END
>  <smiles>  (12) 
N=c1[nH]c(=NCc2cc(F)cc(F)c2)c2cc(-c3cncc(Cl)c3)ccc2[nH]1

>  <score_type>  (12) 
oracle

>  <origin>  (12) 
adg

>  <m_score__min__energy>  (12) 
-8.4399999999999995

>  <m_primary>  (12) 
energy

$$$$
12:0
     RDKit          3D

 60 64  0  0  0  0  0  0  0  0999 V2000
   57.8250   30.4340   45.7420 H   0  0  0  0  0  0  0  0  0  0  0  0
   58.3340   29.5760   45.5700 O   0  0  0  0  0  0  0  0  0  0  0  0
   57.8370   28.3380   45.9750 C   0  0  0  0  0  0  0  0  0  0  0  0
   56.5390   27.9490   45.6170 C   0  0  0  0  0  0  0  0  0  0  0  0
   55.9150   28.6198   45.0082 H   0  0  0  0  0  0  0  0  0  0  0  0
   56.0330   26.7120   46.0300 C   0  0  0  0  0  0  0  0  0  0  0  0
   54.7410   26.3430   45.6750 O   0  0  0  0  0  0  0  0  0  0  0  0
   56.8290   25.8510   46.7990 C   0  0  0  0  0  0  0  0  0  0  0  0
   56.2130   24.2900   47.3210 Cl  0  0  0  0  0  0  0  0  0  0  0  0
   58.1270   26.2330   47.1500 C   0  0  0  0  0  0  0  0  0  0  0  0
   58.7579   25.5499   47.7377 H   0  0  0  0  0  0  0  0  0  0  0  0
   58.6300   27.4830   46.7570 C   0  0  0  0  0  0  0  0  0  0  0  0
   59.9970   27.8760   47.1360 C   0  0  0  0  0  0  0  0  0  0  0  0
   60.9050   27.0020   47.0710 O   0  0  0  0  0  0  0  0  0  0  0  0
   60.3200   29.2200   47.5630 N   0  0  0  0  0  0  0  0  0  0  0  0
   59.9480   29.6410   48.8910 C   0  0  0  0  0  0  0  0  0  0  0  0
   58.7700   30.3690   49.1050 C   0  0  0  0  0  0  0  0  0  0  0  0
   58.1051   30.5935   48.2580 H   0  0  0  0  0  0  0  0  0  0  0  0
   58.4340   30.8120   50.3880 C   0  0  0  0  0  0  0  0  0  0  0  0
   57.5051   31.3804   50.5431 H   0  0  0  0  0  0  0  0  0  0  0  0
   59.2760   30.5360   51.4840 C   0  0  0  0  0  0  0  0  0  0  0  0
   58.9330   31.0040   52.8500 C   0  0  0  0  0  0  0  0  0  0  0  0
   57.4020   30.9380   53.5550 S   0  0  0  0  0  0  0  0  0  0  0  0
   57.8230   31.6290   55.0260 C   0  0  0  0  0  0  0  0  0  0  0  0
   57.1443   31.8136   55.8718 H   0  0  0  0  0  0  0  0  0  0  0  0
   59.1770   31.9260   54.9870 C   0  0  0  0  0  0  0  0  0  0  0  0
   59.7139   32.3897   55.8277 H   0  0  0  0  0  0  0  0  0  0  0  0
   59.7990   31.5820   53.7800 C   0  0  0  0  0  0  0  0  0  0  0  0
   60.8680   31.7512   53.5836 H   0  0  0  0  0  0  0  0  0  0  0  0
   60.4570   29.8090   51.2610 C   0  0  0  0  0  0  0  0  0  0  0  0
   61.1251   29.5837   52.1053 H   0  0  0  0  0  0  0  0  0  0  0  0
   60.7920   29.3690   49.9780 C   0  0  0  0  0  0  0  0  0  0  0  0
   61.7234   28.8057   49.8192 H   0  0  0  0  0  0  0  0  0  0  0  0
   61.1770   30.1080   46.7610 C   0  0  0  0  0  0  0  0  0  0  0  0
   60.9864   29.9279   45.6927 H   0  0  0  0  0  0  0  0  0  0  0  0
   62.2303   29.8969   46.9978 H   0  0  0  0  0  0  0  0  0  0  0  0
   60.8840   31.5490   47.0810 C   0  0  0  0  0  0  0  0  0  0  0  0
   61.5830   32.2120   48.0990 C   0  0  0  0  0  0  0  0  0  0  0  0
   62.3797   31.6887   48.6479 H   0  0  0  0  0  0  0  0  0  0  0  0
   61.2710   33.5340   48.4180 C   0  0  0  0  0  0  0  0  0  0  0  0
   61.8191   34.0462   49.2225 H   0  0  0  0  0  0  0  0  0  0  0  0
   60.2670   34.2110   47.7220 C   0  0  0  0  0  0  0  0  0  0  0  0
   60.0224   35.2503   47.9866 H   0  0  0  0  0  0  0  0  0  0  0  0
   59.5660   33.5680   46.6820 C   0  0  0  0  0  0  0  0  0  0  0  0
   58.4920   34.2360   45.9050 C   0  0  0  0  0  0  0  0  0  0  0  0
   57.9698   35.0858   46.3688 H   0  0  0  0  0  0  0  0  0  0  0  0
   58.1210   33.8650   44.6720 C   0  0  0  0  0  0  0  0  0  0  0  0
   58.3362   34.5408   43.8312 H   0  0  0  0  0  0  0  0  0  0  0  0
   57.4360   32.5880   44.3950 C   0  0  0  0  0  0  0  0  0  0  0  0
   56.6470   31.9930   45.2600 O   0  0  0  0  0  0  0  0  0  0  0  0
   56.1550   30.8910   44.7710 N   0  0  0  0  0  0  0  0  0  0  0  0
   56.6600   30.7590   43.5290 C   0  0  0  0  0  0  0  0  0  0  0  0
   56.2850   29.6640   42.5880 C   0  0  0  0  0  0  0  0  0  0  0  0
   55.9809   28.7759   43.1614 H   0  0  0  0  0  0  0  0  0  0  0  0
   55.4491   29.9953   41.9543 H   0  0  0  0  0  0  0  0  0  0  0  0
   57.1485   29.4133   41.9543 H   0  0  0  0  0  0  0  0  0  0  0  0
   57.4790   31.8290   43.2400 C   0  0  0  0  0  0  0  0  0  0  0  0
   58.0343   32.0310   42.3122 H   0  0  0  0  0  0  0  0  0  0  0  0
   59.8750   32.2310   46.3820 C   0  0  0  0  0  0  0  0  0  0  0  0
   59.3187   31.7109   45.5883 H   0  0  0  0  0  0  0  0  0  0  0  0
  1  2  1  0
  2  3  1  0
  3  4  2  0
  4  5  1  0
  4  6  1  0
  6  7  1  0
  6  8  2  0
  8  9  1  0
  8 10  1  0
 10 11  1  0
 10 12  2  0
 12 13  1  0
 13 14  2  0
 13 15  1  0
 15 16  1  0
 16 17  2  0
 17 18  1  0
 17 19  1  0
 19 20  1  0
 19 21  2  0
 21 22  1  0
 22 23  1  0
 23 24  1  0
 24 25  1  0
 24 26  2  0
 26 27  1  0
 26 28  1  0
 28 29  1  0
 21 30  1  0
 30 31  1  0
 30 32  2  0
 32 33  1  0
 15 34  1  0
 34 35  1  0
 34 36  1  0
 34 37  1  0
 37 38  2  0
 38 39  1  0
 38 40  1  0
 40 41  1  0
 40 42  2  0
 42 43  1  0
 42 44  1  0
 44 45  1  0
 45 46  1  0
 45 47  2  0
 47 48  1  0
 47 49  1  0
 49 50  1  0
 50 51  1  0
 51 52  2  0
 52 53  1  0
 53 54  1  0
 53 55  1  0
 53 56  1  0
 52 57  1  0
 57 58  1  0
 44 59  2  0
 59 60  1  0
 12  3  1  0
 32 16  1  0
 59 37  1  0
 28 22  2  0
 57 49  2  0
M  CHG  1   7  -1
M  END
>  <UniqueID>  (13) 
12

>  <SMILES>  (13) 
Cc1cc(/C=C/c2cccc(CN(C(=O)c3cc(Cl)c([O-])cc3O)c3ccc(-c4cccs4)cc3)c2)on1

>  <Energy>  (13) 
136.7624772013432

>  <Genealogy>  (13) 
Cc1cc(C=Cc2cccc(CN(C(=O)c3cc(Cl)c([O-])cc3O)c3ccc(-c4cccs4)cc3)c2)on1 (protonated)
Cc1cc(/C=C/c2cccc(CN(C(=O)c3cc(Cl)c([O-])cc3O)c3ccc(-c4cccs4)cc3)c2)on1 (cis-trans isomerization)
Cc1cc(/C=C/c2cccc(CN(C(=O)c3cc(Cl)c([O-])cc3O)c3ccc(-c4cccs4)cc3)c2)on1 (3D coordinates assigned)
Cc1cc(/C=C/c2cccc(CN(C(=O)c3cc(Cl)c([O-])cc3O)c3ccc(-c4cccs4)cc3)c2)on1 (optimized conformer: 136.7624772013432 kcal/mol)

>  <smiles>  (13) 
Cc1cc(C=Cc2cccc(CN(C(=O)c3cc(Cl)c(O)cc3O)c3ccc(-c4cccs4)cc3)c2)on1

>  <score_type>  (13) 
oracle

>  <origin>  (13) 
adg

>  <m_score__min__energy>  (13) 
-13.130000000000001

>  <m_primary>  (13) 
energy

$$$$
13:0
     RDKit          3D

 53 55  0  0  0  0  0  0  0  0999 V2000
   55.7540   30.0990   43.6910 C   0  0  0  0  0  0  0  0  0  0  0  0
   56.4720   30.0720   44.9190 O   0  0  0  0  0  0  0  0  0  0  0  0
   57.8090   29.6630   45.0550 C   0  0  0  0  0  0  0  0  0  0  0  0
   58.3300   28.5880   44.3060 C   0  0  0  0  0  0  0  0  0  0  0  0
   59.6520   28.1760   44.4850 C   0  0  0  0  0  0  0  0  0  0  0  0
   60.4680   28.8240   45.4100 C   0  0  0  0  0  0  0  0  0  0  0  0
   59.9680   29.8930   46.1550 C   0  0  0  0  0  0  0  0  0  0  0  0
   58.6460   30.3370   45.9720 C   0  0  0  0  0  0  0  0  0  0  0  0
   58.1380   31.5130   46.7910 C   0  0  0  0  0  0  0  0  0  0  0  0
   59.0140   32.7080   46.7500 N   0  0  0  0  0  0  0  0  0  0  0  0
   58.8930   33.4880   45.5020 C   0  0  0  0  0  0  0  0  0  0  0  0
   59.6700   34.8200   45.5830 C   0  0  0  0  0  0  0  0  0  0  0  0
   60.6890   34.8130   46.6510 N   0  0  0  0  0  0  0  0  0  0  0  0
   61.8200   33.9060   46.3480 C   0  0  0  0  0  0  0  0  0  0  0  0
   62.7540   33.7670   47.5570 C   0  0  0  0  0  0  0  0  0  0  0  0
   62.7900   32.3500   48.0460 C   0  0  0  0  0  0  0  0  0  0  0  0
   63.9000   31.8060   48.2930 O   0  0  0  0  0  0  0  0  0  0  0  0
   61.5650   31.6460   48.2920 N   0  0  0  0  0  0  0  0  0  0  0  0
   61.5070   30.4650   49.1480 C   0  0  0  0  0  0  0  0  0  0  0  0
   60.1880   30.4190   49.8490 C   0  0  0  0  0  0  0  0  0  0  0  0
   59.7840   29.4570   50.7530 C   0  0  0  0  0  0  0  0  0  0  0  0
   58.5290   29.8440   51.1680 C   0  0  0  0  0  0  0  0  0  0  0  0
   58.2470   31.0180   50.4970 C   0  0  0  0  0  0  0  0  0  0  0  0
   59.2580   31.3370   49.7210 O   0  0  0  0  0  0  0  0  0  0  0  0
   60.0830   34.5640   47.9820 C   0  0  0  0  0  0  0  0  0  0  0  0
   58.9090   33.5630   47.9410 C   0  0  0  0  0  0  0  0  0  0  0  0
   54.6745   30.1396   43.8983 H   0  0  0  0  0  0  0  0  0  0  0  0
   56.0500   30.9867   43.1127 H   0  0  0  0  0  0  0  0  0  0  0  0
   55.9825   29.1916   43.1127 H   0  0  0  0  0  0  0  0  0  0  0  0
   57.6906   28.0704   43.5757 H   0  0  0  0  0  0  0  0  0  0  0  0
   60.0503   27.3378   43.8944 H   0  0  0  0  0  0  0  0  0  0  0  0
   61.5071   28.4928   45.5532 H   0  0  0  0  0  0  0  0  0  0  0  0
   60.6137   30.3929   46.8920 H   0  0  0  0  0  0  0  0  0  0  0  0
   57.1476   31.7984   46.4066 H   0  0  0  0  0  0  0  0  0  0  0  0
   58.1097   31.1787   47.8386 H   0  0  0  0  0  0  0  0  0  0  0  0
   59.2935   32.8918   44.6688 H   0  0  0  0  0  0  0  0  0  0  0  0
   57.8294   33.7206   45.3449 H   0  0  0  0  0  0  0  0  0  0  0  0
   60.1697   34.9966   44.6191 H   0  0  0  0  0  0  0  0  0  0  0  0
   58.9473   35.6164   45.8142 H   0  0  0  0  0  0  0  0  0  0  0  0
   61.4245   32.9142   46.0833 H   0  0  0  0  0  0  0  0  0  0  0  0
   62.3931   34.3292   45.5099 H   0  0  0  0  0  0  0  0  0  0  0  0
   63.7694   34.0729   47.2646 H   0  0  0  0  0  0  0  0  0  0  0  0
   62.3775   34.4086   48.3673 H   0  0  0  0  0  0  0  0  0  0  0  0
   60.6610   32.0920   48.0150 H   0  0  0  0  0  0  0  0  0  0  0  0
   61.6266   29.5608   48.5331 H   0  0  0  0  0  0  0  0  0  0  0  0
   62.3152   30.5131   49.8926 H   0  0  0  0  0  0  0  0  0  0  0  0
   60.3464   28.5680   51.0744 H   0  0  0  0  0  0  0  0  0  0  0  0
   57.8816   29.3230   51.8887 H   0  0  0  0  0  0  0  0  0  0  0  0
   57.3175   31.5976   50.5971 H   0  0  0  0  0  0  0  0  0  0  0  0
   60.8599   34.1637   48.6499 H   0  0  0  0  0  0  0  0  0  0  0  0
   59.6810   35.5228   48.3413 H   0  0  0  0  0  0  0  0  0  0  0  0
   58.9355   32.9344   48.8433 H   0  0  0  0  0  0  0  0  0  0  0  0
   57.9620   34.1211   47.9005 H   0  0  0  0  0  0  0  0  0  0  0  0
  1  2  1  0
  2  3  1  0
  3  4  2  0
  4  5  1  0
  5  6  2  0
  6  7  1  0
  7  8  2  0
  8  9  1  0
  9 10  1  0
 10 11  1  0
 11 12  1  0
 12 13  1  0
 13 14  1  0
 14 15  1  0
 15 16  1  0
 16 17  2  0
 16 18  1  0
 18 19  1  0
 19 20  1  0
 20 21  2  0
 21 22  1  0
 22 23  2  0
 23 24  1  0
 13 25  1  0
 25 26  1  0
  8  3  1  0
 26 10  1  0
 24 20  1  0
  1 27  1  0
  1 28  1  0
  1 29  1  0
  4 30  1  0
  5 31  1  0
  6 32  1  0
  7 33  1  0
  9 34  1  0
  9 35  1  0
 11 36  1  0
 11 37  1  0
 12 38  1  0
 12 39  1  0
 14 40  1  0
 14 41  1  0
 15 42  1  0
 15 43  1  0
 18 44  1  0
 19 45  1  0
 19 46  1  0
 21 47  1  0
 22 48  1  0
 23 49  1  0
 25 50  1  0
 25 51  1  0
 26 52  1  0
 26 53  1  0
M  END
>  <UniqueID>  (14) 
13

>  <SMILES>  (14) 
COc1ccccc1CN1CCN(CCC(=O)NCc2ccco2)CC1

>  <Energy>  (14) 
85.7363451978378

>  <Genealogy>  (14) 
COc1ccccc1CN1CCN(CCC(=O)NCc2ccco2)CC1 (3D coordinates assigned)
COc1ccccc1CN1CCN(CCC(=O)NCc2ccco2)CC1 (nonaromatic ring conformer: 85.7363451978378 kcal/mol)

>  <smiles>  (14) 
COc1ccccc1CN1CCN(CCC(=O)NCc2ccco2)CC1

>  <score_type>  (14) 
oracle

>  <origin>  (14) 
adg

>  <m_score__min__energy>  (14) 
-8.0800000000000001

>  <m_primary>  (14) 
energy

$$$$
14:0
     RDKit          3D

 72 76  0  0  0  0  0  0  0  0999 V2000
   61.5520   26.1510   51.2320 C   0  0  0  0  0  0  0  0  0  0  0  0
   61.2360   27.0100   50.1410 O   0  0  0  0  0  0  0  0  0  0  0  0
   60.4330   28.1570   50.2470 C   0  0  0  0  0  0  0  0  0  0  0  0
   60.3130   28.8890   51.4460 C   0  0  0  0  0  0  0  0  0  0  0  0
   59.4920   30.0200   51.5010 C   0  0  0  0  0  0  0  0  0  0  0  0
   58.7960   30.4420   50.3640 C   0  0  0  0  0  0  0  0  0  0  0  0
   57.7550   31.9020   50.4440 S   0  0  0  0  0  0  0  0  0  0  0  0
   57.7710   32.0350   52.2740 C   0  0  0  0  0  0  0  0  0  0  0  0
   58.7720   33.0870   52.7770 C   0  0  0  0  0  0  0  0  0  0  0  0
   59.2640   34.2150   51.4240 S   0  0  0  0  0  0  0  0  0  0  0  0
   60.8380   33.4040   51.1430 C   0  0  0  0  0  0  0  0  0  0  0  0
   61.3750   32.5620   52.0490 N   0  0  0  0  0  0  0  0  0  0  0  0
   62.5480   32.1910   51.5060 C   0  0  0  0  0  0  0  0  0  0  0  0
   62.7070   32.8110   50.2850 C   0  0  0  0  0  0  0  0  0  0  0  0
   63.9590   32.7430   49.4550 C   0  0  0  0  0  0  0  0  0  0  0  0
   65.1620   33.0670   50.3000 C   0  0  0  0  0  0  0  0  0  0  0  0
   66.3690   32.3670   50.1210 C   0  0  0  0  0  0  0  0  0  0  0  0
   67.4960   32.7030   50.8760 C   0  0  0  0  0  0  0  0  0  0  0  0
   67.4340   33.7420   51.8080 C   0  0  0  0  0  0  0  0  0  0  0  0
   66.2400   34.4470   51.9870 C   0  0  0  0  0  0  0  0  0  0  0  0
   65.1090   34.1150   51.2350 C   0  0  0  0  0  0  0  0  0  0  0  0
   61.6210   33.5860   50.0530 N   0  0  0  0  0  0  0  0  0  0  0  0
   61.3080   34.3840   48.8600 C   0  0  0  0  0  0  0  0  0  0  0  0
   60.2480   33.7050   48.0310 C   0  0  0  0  0  0  0  0  0  0  0  0
   59.1390   34.4240   47.5580 C   0  0  0  0  0  0  0  0  0  0  0  0
   58.1880   33.8050   46.7420 C   0  0  0  0  0  0  0  0  0  0  0  0
   58.3460   32.4620   46.3670 C   0  0  0  0  0  0  0  0  0  0  0  0
   57.4080   31.8050   45.5010 N   0  0  0  0  0  0  0  0  0  0  0  0
   57.7260   30.8210   44.5070 C   0  0  0  0  0  0  0  0  0  0  0  0
   57.4060   31.0440   43.3070 O   0  0  0  0  0  0  0  0  0  0  0  0
   58.3870   29.5410   44.8500 C   0  0  0  0  0  0  0  0  0  0  0  0
   59.7920   29.4940   44.8070 C   0  0  0  0  0  0  0  0  0  0  0  0
   60.4780   28.3570   45.2360 C   0  0  0  0  0  0  0  0  0  0  0  0
   59.7710   27.2520   45.7080 C   0  0  0  0  0  0  0  0  0  0  0  0
   58.3760   27.2690   45.7320 C   0  0  0  0  0  0  0  0  0  0  0  0
   57.6630   28.3950   45.2850 C   0  0  0  0  0  0  0  0  0  0  0  0
   56.1810   28.3170   45.2410 C   0  0  0  0  0  0  0  0  0  0  0  0
   55.4980   29.2810   44.8060 O   0  0  0  0  0  0  0  0  0  0  0  0
   55.5310   27.1470   45.6240 O   0  0  0  0  0  0  0  0  0  0  0  0
   59.4260   31.7320   46.8720 C   0  0  0  0  0  0  0  0  0  0  0  0
   60.3760   32.3490   47.6900 C   0  0  0  0  0  0  0  0  0  0  0  0
   58.9040   29.7130   49.1730 C   0  0  0  0  0  0  0  0  0  0  0  0
   59.7230   28.5800   49.1150 C   0  0  0  0  0  0  0  0  0  0  0  0
   61.3591   26.6755   52.1795 H   0  0  0  0  0  0  0  0  0  0  0  0
   60.9276   25.2469   51.1796 H   0  0  0  0  0  0  0  0  0  0  0  0
   62.6134   25.8671   51.1796 H   0  0  0  0  0  0  0  0  0  0  0  0
   60.8669   28.5696   52.3411 H   0  0  0  0  0  0  0  0  0  0  0  0
   59.3934   30.5799   52.4427 H   0  0  0  0  0  0  0  0  0  0  0  0
   56.7636   32.3139   52.6166 H   0  0  0  0  0  0  0  0  0  0  0  0
   58.0789   31.0594   52.6781 H   0  0  0  0  0  0  0  0  0  0  0  0
   58.3053   33.6725   53.5829 H   0  0  0  0  0  0  0  0  0  0  0  0
   59.6691   32.5704   53.1490 H   0  0  0  0  0  0  0  0  0  0  0  0
   63.2695   31.4993   51.9654 H   0  0  0  0  0  0  0  0  0  0  0  0
   64.0670   31.7288   49.0430 H   0  0  0  0  0  0  0  0  0  0  0  0
   63.8874   33.4753   48.6373 H   0  0  0  0  0  0  0  0  0  0  0  0
   66.4260   31.5523   49.3841 H   0  0  0  0  0  0  0  0  0  0  0  0
   68.4351   32.1475   50.7360 H   0  0  0  0  0  0  0  0  0  0  0  0
   68.3231   34.0049   52.3999 H   0  0  0  0  0  0  0  0  0  0  0  0
   66.1903   35.2647   52.7211 H   0  0  0  0  0  0  0  0  0  0  0  0
   64.1736   34.6765   51.3758 H   0  0  0  0  0  0  0  0  0  0  0  0
   60.9437   35.3738   49.1724 H   0  0  0  0  0  0  0  0  0  0  0  0
   62.2199   34.4882   48.2537 H   0  0  0  0  0  0  0  0  0  0  0  0
   59.0175   35.4825   47.8316 H   0  0  0  0  0  0  0  0  0  0  0  0
   57.3128   34.3724   46.3926 H   0  0  0  0  0  0  0  0  0  0  0  0
   60.3552   30.3612   44.4319 H   0  0  0  0  0  0  0  0  0  0  0  0
   61.5772   28.3326   45.2017 H   0  0  0  0  0  0  0  0  0  0  0  0
   60.3147   26.3639   46.0626 H   0  0  0  0  0  0  0  0  0  0  0  0
   57.8279   26.3912   46.1050 H   0  0  0  0  0  0  0  0  0  0  0  0
   59.5285   30.6653   46.6239 H   0  0  0  0  0  0  0  0  0  0  0  0
   61.2299   31.7685   48.0694 H   0  0  0  0  0  0  0  0  0  0  0  0
   58.3439   30.0317   48.2815 H   0  0  0  0  0  0  0  0  0  0  0  0
   59.8103   28.0171   48.1740 H   0  0  0  0  0  0  0  0  0  0  0  0
  1  2  1  0
  2  3  1  0
  3  4  2  0
  4  5  1  0
  5  6  2  0
  6  7  1  0
  7  8  1  0
  8  9  1  0
  9 10  1  0
 10 11  1  0
 11 12  2  0
 12 13  1  0
 13 14  2  0
 14 15  1  0
 15 16  1  0
 16 17  2  0
 17 18  1  0
 18 19  2  0
 19 20  1  0
 20 21  2  0
 14 22  1  0
 22 23  1  0
 23 24  1  0
 24 25  2  0
 25 26  1  0
 26 27  2  0
 27 28  1  0
 28 29  1  0
 29 30  2  0
 29 31  1  0
 31 32  2  0
 32 33  1  0
 33 34  2  0
 34 35  1  0
 35 36  2  0
 36 37  1  0
 37 38  2  0
 37 39  1  0
 27 40  1  0
 40 41  2  0
  6 42  1  0
 42 43  2  0
 43  3  1  0
 22 11  1  0
 41 24  1  0
 21 16  1  0
 36 31  1  0
  1 44  1  0
  1 45  1  0
  1 46  1  0
  4 47  1  0
  5 48  1  0
  8 49  1  0
  8 50  1  0
  9 51  1  0
  9 52  1  0
 13 53  1  0
 15 54  1  0
 15 55  1  0
 17 56  1  0
 18 57  1  0
 19 58  1  0
 20 59  1  0
 21 60  1  0
 23 61  1  0
 23 62  1  0
 25 63  1  0
 26 64  1  0
 32 65  1  0
 33 66  1  0
 34 67  1  0
 35 68  1  0
 40 69  1  0
 41 70  1  0
 42 71  1  0
 43 72  1  0
M  CHG  2  28  -1  39  -1
M  END
>  <UniqueID>  (15) 
14

>  <SMILES>  (15) 
COc1ccc(SCCSc2ncc(Cc3ccccc3)n2Cc2ccc([N-]C(=O)c3ccccc3C(=O)[O-])cc2)cc1

>  <Energy>  (15) 
109.26933555083835

>  <Genealogy>  (15) 
COc1ccc(SCCSc2ncc(Cc3ccccc3)n2Cc2ccc([N-]C(=O)c3ccccc3C(=O)[O-])cc2)cc1 (protonated)
COc1ccc(SCCSc2ncc(Cc3ccccc3)n2Cc2ccc([N-]C(=O)c3ccccc3C(=O)[O-])cc2)cc1 (3D coordinates assigned)
COc1ccc(SCCSc2ncc(Cc3ccccc3)n2Cc2ccc([N-]C(=O)c3ccccc3C(=O)[O-])cc2)cc1 (optimized conformer: 109.26933555083835 kcal/mol)

>  <smiles>  (15) 
COc1ccc(SCCSc2ncc(Cc3ccccc3)n2Cc2ccc(NC(=O)c3ccccc3C(=O)O)cc2)cc1

>  <score_type>  (15) 
oracle

>  <origin>  (15) 
adg

>  <m_score__min__energy>  (15) 
-15.31

>  <m_primary>  (15) 
energy

$$$$
15:0
     RDKit          3D

 31 33  0  0  0  0  0  0  0  0999 V2000
   55.1640   26.6460   45.9930 O   0  0  0  0  0  0  0  0  0  0  0  0
   56.4220   26.6900   45.9740 C   0  0  0  0  0  0  0  0  0  0  0  0
   57.1800   25.6270   46.3460 N   0  0  0  0  0  0  0  0  0  0  0  0
   58.7670   26.0940   46.1600 S   0  0  0  0  0  0  0  0  0  0  0  0
   58.5140   27.6410   45.5890 C   0  0  0  0  0  0  0  0  0  0  0  0
   57.1430   27.8340   45.5700 C   0  0  0  0  0  0  0  0  0  0  0  0
   56.5560   29.1190   45.0630 C   0  0  0  0  0  0  0  0  0  0  0  0
   57.5540   30.2100   45.1780 N   0  0  0  0  0  0  0  0  0  0  0  0
   57.0230   31.5200   44.7400 C   0  0  0  0  0  0  0  0  0  0  0  0
   57.8070   32.7050   45.2650 C   0  0  0  0  0  0  0  0  0  0  0  0
   58.5280   33.5290   44.3840 C   0  0  0  0  0  0  0  0  0  0  0  0
   59.2490   34.6230   44.8710 C   0  0  0  0  0  0  0  0  0  0  0  0
   59.2610   34.9000   46.2410 C   0  0  0  0  0  0  0  0  0  0  0  0
   58.5570   34.0810   47.1260 C   0  0  0  0  0  0  0  0  0  0  0  0
   57.8350   32.9840   46.6430 C   0  0  0  0  0  0  0  0  0  0  0  0
   58.8390   29.8590   44.5270 C   0  0  0  0  0  0  0  0  0  0  0  0
   59.5200   28.7020   45.2810 C   0  0  0  0  0  0  0  0  0  0  0  0
   56.8350   24.7000   46.6820 H   0  0  0  0  0  0  0  0  0  0  0  0
   56.2684   28.9975   44.0082 H   0  0  0  0  0  0  0  0  0  0  0  0
   55.6700   29.3740   45.6630 H   0  0  0  0  0  0  0  0  0  0  0  0
   57.0417   31.5516   43.6406 H   0  0  0  0  0  0  0  0  0  0  0  0
   56.0045   31.6046   45.1468 H   0  0  0  0  0  0  0  0  0  0  0  0
   58.5249   33.3119   43.3056 H   0  0  0  0  0  0  0  0  0  0  0  0
   59.8075   35.2666   44.1754 H   0  0  0  0  0  0  0  0  0  0  0  0
   59.8254   35.7638   46.6222 H   0  0  0  0  0  0  0  0  0  0  0  0
   58.5700   34.2984   48.2042 H   0  0  0  0  0  0  0  0  0  0  0  0
   57.2871   32.3372   47.3441 H   0  0  0  0  0  0  0  0  0  0  0  0
   58.6479   29.5526   43.4880 H   0  0  0  0  0  0  0  0  0  0  0  0
   59.5012   30.7371   44.5445 H   0  0  0  0  0  0  0  0  0  0  0  0
   60.3190   28.2778   44.6552 H   0  0  0  0  0  0  0  0  0  0  0  0
   59.9488   29.0814   46.2203 H   0  0  0  0  0  0  0  0  0  0  0  0
  1  2  2  0
  2  3  1  0
  3  4  1  0
  4  5  1  0
  5  6  2  0
  6  7  1  0
  7  8  1  0
  8  9  1  0
  9 10  1  0
 10 11  2  0
 11 12  1  0
 12 13  2  0
 13 14  1  0
 14 15  2  0
  8 16  1  0
 16 17  1  0
  6  2  1  0
 15 10  1  0
 17  5  1  0
  3 18  1  0
  7 19  1  0
  7 20  1  0
  9 21  1  0
  9 22  1  0
 11 23  1  0
 12 24  1  0
 13 25  1  0
 14 26  1  0
 15 27  1  0
 16 28  1  0
 16 29  1  0
 17 30  1  0
 17 31  1  0
M  END
>  <UniqueID>  (16) 
15

>  <SMILES>  (16) 
O=c1[nH]sc2c1CN(Cc1ccccc1)CC2

>  <Energy>  (16) 
72.0285898363127

>  <Genealogy>  (16) 
O=c1[nH]sc2c1CN(Cc1ccccc1)CC2 (3D coordinates assigned)
O=c1[nH]sc2c1CN(Cc1ccccc1)CC2 (nonaromatic ring conformer: 72.0285898363127 kcal/mol)

>  <smiles>  (16) 
O=c1[nH]sc2c1CN(Cc1ccccc1)CC2

>  <score_type>  (16) 
oracle

>  <origin>  (16) 
adg

>  <m_score__min__energy>  (16) 
-7.29

>  <m_primary>  (16) 
energy

$$$$
16:0
     RDKit          3D

 48 51  0  0  0  0  0  0  0  0999 V2000
   60.1300   21.8300   45.5340 N   0  0  0  0  0  0  0  0  0  0  0  0
   59.2200   22.6870   44.7700 C   0  0  1  0  0  0  0  0  0  0  0  0
   57.9970   21.8650   44.2680 C   0  0  0  0  0  0  0  0  0  0  0  0
   56.6870   22.2350   44.9770 C   0  0  0  0  0  0  0  0  0  0  0  0
   56.4020   23.7360   44.8290 C   0  0  0  0  0  0  0  0  0  0  0  0
   57.6110   24.5400   45.0600 N   0  0  0  0  0  0  0  0  0  0  0  0
   57.5710   25.9540   44.7980 C   0  0  0  0  0  0  0  0  0  0  0  0
   58.1130   26.4410   43.6490 N   0  0  0  0  0  0  0  0  0  0  0  0
   58.1120   27.7690   43.3730 C   0  0  0  0  0  0  0  0  0  0  0  0
   57.5590   28.6750   44.2870 C   0  0  0  0  0  0  0  0  0  0  0  0
   57.5180   30.1300   44.0150 C   0  0  0  0  0  0  0  0  0  0  0  0
   57.1260   30.5290   42.8840 O   0  0  0  0  0  0  0  0  0  0  0  0
   57.9040   31.1330   45.0280 C   0  0  0  0  0  0  0  0  0  0  0  0
   57.6010   32.4920   44.9710 C   0  0  0  0  0  0  0  0  0  0  0  0
   58.0430   33.2090   46.0880 C   0  0  0  0  0  0  0  0  0  0  0  0
   58.6780   32.4110   47.0270 C   0  0  0  0  0  0  0  0  0  0  0  0
   59.3860   32.9770   48.5690 S   0  0  0  0  0  0  0  0  0  0  0  0
   61.0500   32.9660   47.9060 C   0  0  0  0  0  0  0  0  0  0  0  0
   62.0010   32.0700   48.4110 C   0  0  0  0  0  0  0  0  0  0  0  0
   63.2980   32.0570   47.8880 C   0  0  0  0  0  0  0  0  0  0  0  0
   63.6470   32.9390   46.8600 C   0  0  0  0  0  0  0  0  0  0  0  0
   62.7000   33.8360   46.3560 C   0  0  0  0  0  0  0  0  0  0  0  0
   61.4030   33.8510   46.8790 C   0  0  0  0  0  0  0  0  0  0  0  0
   58.6950   30.8220   46.4870 S   0  0  0  0  0  0  0  0  0  0  0  0
   57.0000   28.1560   45.4620 C   0  0  0  0  0  0  0  0  0  0  0  0
   57.0260   26.8190   45.7020 N   0  0  0  0  0  0  0  0  0  0  0  0
   58.8040   23.9000   45.6280 C   0  0  0  0  0  0  0  0  0  0  0  0
   61.0790   21.8840   45.0960 H   0  0  0  0  0  0  0  0  0  0  0  0
   59.8200   20.8370   45.4200 H   0  0  0  0  0  0  0  0  0  0  0  0
   59.7333   23.0735   43.8771 H   0  0  0  0  0  0  0  0  0  0  0  0
   57.8738   22.0449   43.1898 H   0  0  0  0  0  0  0  0  0  0  0  0
   58.2011   20.8071   44.4900 H   0  0  0  0  0  0  0  0  0  0  0  0
   55.8598   21.6636   44.5307 H   0  0  0  0  0  0  0  0  0  0  0  0
   56.7804   21.9940   46.0462 H   0  0  0  0  0  0  0  0  0  0  0  0
   56.0323   23.9309   43.8115 H   0  0  0  0  0  0  0  0  0  0  0  0
   55.6503   24.0200   45.5802 H   0  0  0  0  0  0  0  0  0  0  0  0
   58.5458   28.1348   42.4307 H   0  0  0  0  0  0  0  0  0  0  0  0
   57.0661   32.9560   44.1292 H   0  0  0  0  0  0  0  0  0  0  0  0
   57.9014   34.2932   46.2086 H   0  0  0  0  0  0  0  0  0  0  0  0
   61.7274   31.3761   49.2195 H   0  0  0  0  0  0  0  0  0  0  0  0
   64.0440   31.3529   48.2852 H   0  0  0  0  0  0  0  0  0  0  0  0
   64.6668   32.9270   46.4479 H   0  0  0  0  0  0  0  0  0  0  0  0
   62.9752   34.5299   45.5481 H   0  0  0  0  0  0  0  0  0  0  0  0
   60.6593   34.5584   46.4835 H   0  0  0  0  0  0  0  0  0  0  0  0
   56.5376   28.8344   46.1941 H   0  0  0  0  0  0  0  0  0  0  0  0
   56.6480   26.4700   46.6100 H   0  0  0  0  0  0  0  0  0  0  0  0
   59.6290   24.6271   45.6527 H   0  0  0  0  0  0  0  0  0  0  0  0
   58.5747   23.5558   46.6473 H   0  0  0  0  0  0  0  0  0  0  0  0
  1  2  1  0
  2  3  1  0
  3  4  1  0
  4  5  1  0
  5  6  1  0
  6  7  1  0
  7  8  2  0
  8  9  1  0
  9 10  2  0
 10 11  1  0
 11 12  2  0
 11 13  1  0
 13 14  2  0
 14 15  1  0
 15 16  2  0
 16 17  1  0
 17 18  1  0
 18 19  2  0
 19 20  1  0
 20 21  2  0
 21 22  1  0
 22 23  2  0
 16 24  1  0
 10 25  1  0
 25 26  2  0
  6 27  1  0
 27  2  1  0
 26  7  1  0
 24 13  1  0
 23 18  1  0
  1 28  1  0
  1 29  1  0
  2 30  1  6
  3 31  1  0
  3 32  1  0
  4 33  1  0
  4 34  1  0
  5 35  1  0
  5 36  1  0
  9 37  1  0
 14 38  1  0
 15 39  1  0
 19 40  1  0
 20 41  1  0
 21 42  1  0
 22 43  1  0
 23 44  1  0
 25 45  1  0
 26 46  1  0
 27 47  1  0
 27 48  1  0
M  CHG  1  26   1
M  END
>  <UniqueID>  (17) 
16

>  <SMILES>  (17) 
N[C@H]1CCCN(c2ncc(C(=O)c3ccc(Sc4ccccc4)s3)c[nH+]2)C1

>  <Energy>  (17) 
82.16273528549677

>  <Genealogy>  (17) 
NC1CCCN(c2ncc(C(=O)c3ccc(Sc4ccccc4)s3)c[nH+]2)C1 (protonated)
N[C@H]1CCCN(c2ncc(C(=O)c3ccc(Sc4ccccc4)s3)c[nH+]2)C1 (chirality)
N[C@H]1CCCN(c2ncc(C(=O)c3ccc(Sc4ccccc4)s3)c[nH+]2)C1 (3D coordinates assigned)
N[C@H]1CCCN(c2ncc(C(=O)c3ccc(Sc4ccccc4)s3)c[nH+]2)C1 (nonaromatic ring conformer: 82.16273528549677 kcal/mol)

>  <smiles>  (17) 
NC1CCCN(c2ncc(C(=O)c3ccc(Sc4ccccc4)s3)cn2)C1

>  <score_type>  (17) 
oracle

>  <origin>  (17) 
adg

>  <m_score__min__energy>  (17) 
-8.1199999999999992

>  <m_primary>  (17) 
energy

$$$$
17:0
     RDKit          3D

 40 42  0  0  0  0  0  0  0  0999 V2000
   54.7090   25.9060   46.4000 H   0  0  0  0  0  0  0  0  0  0  0  0
   55.1430   26.7160   45.9730 O   0  0  0  0  0  0  0  0  0  0  0  0
   56.5290   26.8380   45.9070 C   0  0  0  0  0  0  0  0  0  0  0  0
   57.4390   25.9970   46.5270 C   0  0  0  0  0  0  0  0  0  0  0  0
   57.0980   24.8670   47.3370 N   0  0  0  0  0  0  0  0  0  0  0  0
   55.8980   24.4710   47.4770 N   0  0  0  0  0  0  0  0  0  0  0  0
   55.2190   23.7610   46.4390 C   0  0  0  0  0  0  0  0  0  0  0  0
   54.1980   24.2760   45.9090 O   0  0  0  0  0  0  0  0  0  0  0  0
   55.7000   22.4230   45.9700 C   0  0  0  0  0  0  0  0  0  0  0  0
   55.9277   21.7896   46.8400 H   0  0  0  0  0  0  0  0  0  0  0  0
   54.9177   21.9443   45.3627 H   0  0  0  0  0  0  0  0  0  0  0  0
   56.6080   22.5520   45.3627 H   0  0  0  0  0  0  0  0  0  0  0  0
   58.6950   26.4910   46.2090 C   0  0  0  0  0  0  0  0  0  0  0  0
   59.9830   26.0690   46.5560 C   0  0  0  0  0  0  0  0  0  0  0  0
   60.1380   25.1848   47.1917 H   0  0  0  0  0  0  0  0  0  0  0  0
   61.0730   26.8100   46.0670 C   0  0  0  0  0  0  0  0  0  0  0  0
   62.0985   26.5037   46.3210 H   0  0  0  0  0  0  0  0  0  0  0  0
   60.8630   27.9420   45.2540 C   0  0  0  0  0  0  0  0  0  0  0  0
   61.7259   28.5116   44.8786 H   0  0  0  0  0  0  0  0  0  0  0  0
   59.5600   28.3490   44.9190 C   0  0  0  0  0  0  0  0  0  0  0  0
   59.3882   29.2317   44.2854 H   0  0  0  0  0  0  0  0  0  0  0  0
   58.4890   27.6000   45.4140 C   0  0  0  0  0  0  0  0  0  0  0  0
   57.1670   27.8160   45.2210 N   0  0  0  0  0  0  0  0  0  0  0  0
   56.5380   28.9230   44.4950 C   0  0  0  0  0  0  0  0  0  0  0  0
   56.5745   28.7166   43.4152 H   0  0  0  0  0  0  0  0  0  0  0  0
   55.4928   29.0199   44.8237 H   0  0  0  0  0  0  0  0  0  0  0  0
   57.2640   30.2110   44.7800 C   0  0  0  0  0  0  0  0  0  0  0  0
   57.4310   31.1640   43.7630 C   0  0  0  0  0  0  0  0  0  0  0  0
   57.0450   30.9598   42.7534 H   0  0  0  0  0  0  0  0  0  0  0  0
   58.0850   32.3710   44.0260 C   0  0  0  0  0  0  0  0  0  0  0  0
   58.2202   33.1076   43.2203 H   0  0  0  0  0  0  0  0  0  0  0  0
   58.5700   32.6470   45.3140 C   0  0  0  0  0  0  0  0  0  0  0  0
   59.3060   33.9250   45.5860 C   0  0  0  0  0  0  0  0  0  0  0  0
   59.3921   34.0745   46.6724 H   0  0  0  0  0  0  0  0  0  0  0  0
   60.3112   33.8707   45.1426 H   0  0  0  0  0  0  0  0  0  0  0  0
   58.7546   34.7672   45.1426 H   0  0  0  0  0  0  0  0  0  0  0  0
   58.4210   31.6880   46.3250 C   0  0  0  0  0  0  0  0  0  0  0  0
   58.8205   31.8864   47.3305 H   0  0  0  0  0  0  0  0  0  0  0  0
   57.7670   30.4800   46.0620 C   0  0  0  0  0  0  0  0  0  0  0  0
   57.6463   29.7371   46.8642 H   0  0  0  0  0  0  0  0  0  0  0  0
  1  2  1  0
  2  3  1  0
  3  4  2  0
  4  5  1  0
  5  6  2  0
  6  7  1  0
  7  8  2  0
  7  9  1  0
  9 10  1  0
  9 11  1  0
  9 12  1  0
  4 13  1  0
 13 14  2  0
 14 15  1  0
 14 16  1  0
 16 17  1  0
 16 18  2  0
 18 19  1  0
 18 20  1  0
 20 21  1  0
 20 22  2  0
 22 23  1  0
 23 24  1  0
 24 25  1  0
 24 26  1  0
 24 27  1  0
 27 28  2  0
 28 29  1  0
 28 30  1  0
 30 31  1  0
 30 32  2  0
 32 33  1  0
 33 34  1  0
 33 35  1  0
 33 36  1  0
 32 37  1  0
 37 38  1  0
 37 39  2  0
 39 40  1  0
 23  3  1  0
 39 27  1  0
 22 13  1  0
M  END
>  <UniqueID>  (18) 
17

>  <SMILES>  (18) 
CC(=O)/N=N/c1c(O)n(Cc2ccc(C)cc2)c2ccccc12

>  <Energy>  (18) 
73.65131578772966

>  <Genealogy>  (18) 
CC(=O)/N=N/c1c(O)n(Cc2ccc(C)cc2)c2ccccc12 (cis-trans isomerization)
CC(=O)/N=N/c1c(O)n(Cc2ccc(C)cc2)c2ccccc12 (3D coordinates assigned)
CC(=O)/N=N/c1c(O)n(Cc2ccc(C)cc2)c2ccccc12 (optimized conformer: 73.65131578772966 kcal/mol)

>  <smiles>  (18) 
CC(=O)N=Nc1c(O)n(Cc2ccc(C)cc2)c2ccccc12

>  <score_type>  (18) 
oracle

>  <origin>  (18) 
adg

>  <m_score__min__energy>  (18) 
-9.1099999999999994

>  <m_primary>  (18) 
energy

$$$$
18:0
     RDKit          3D

 46 49  0  0  0  0  0  0  0  0999 V2000
   63.6410   33.5010   47.0390 C   0  0  0  0  0  0  0  0  0  0  0  0
   62.5950   33.4690   48.0680 N   0  0  0  0  0  0  0  0  0  0  0  0
   62.7530   34.2070   49.2200 C   0  0  0  0  0  0  0  0  0  0  0  0
   61.8010   34.1920   50.1950 N   0  0  0  0  0  0  0  0  0  0  0  0
   60.6990   33.4320   50.0130 C   0  0  0  0  0  0  0  0  0  0  0  0
   59.6160   33.2740   50.8420 C   0  0  0  0  0  0  0  0  0  0  0  0
   59.4310   33.8520   52.1470 C   0  0  0  0  0  0  0  0  0  0  0  0
   59.2830   34.3160   53.1970 N   0  0  0  0  0  0  0  0  0  0  0  0
   58.7770   32.3920   50.1680 C   0  0  0  0  0  0  0  0  0  0  0  0
   57.5040   31.9330   50.6460 N   0  0  0  0  0  0  0  0  0  0  0  0
   57.3710   31.1370   51.8340 C   0  0  0  0  0  0  0  0  0  0  0  0
   58.3600   30.9980   52.6050 O   0  0  0  0  0  0  0  0  0  0  0  0
   56.0740   30.5150   52.1940 C   0  0  0  0  0  0  0  0  0  0  0  0
   54.8710   31.2070   51.9610 C   0  0  0  0  0  0  0  0  0  0  0  0
   53.6440   30.6280   52.2990 C   0  0  0  0  0  0  0  0  0  0  0  0
   53.6050   29.3570   52.8770 C   0  0  0  0  0  0  0  0  0  0  0  0
   54.7920   28.6650   53.1220 C   0  0  0  0  0  0  0  0  0  0  0  0
   56.0220   29.2390   52.7860 C   0  0  0  0  0  0  0  0  0  0  0  0
   59.3200   32.0090   48.9800 N   0  0  0  0  0  0  0  0  0  0  0  0
   58.6530   31.1800   47.9670 C   0  0  0  0  0  0  0  0  0  0  0  0
   58.3030   32.0160   46.7640 C   0  0  0  0  0  0  0  0  0  0  0  0
   58.0780   33.3970   46.8970 C   0  0  0  0  0  0  0  0  0  0  0  0
   57.8000   34.1770   45.7710 C   0  0  0  0  0  0  0  0  0  0  0  0
   57.7460   33.5870   44.5060 C   0  0  0  0  0  0  0  0  0  0  0  0
   57.9740   32.2150   44.3640 C   0  0  0  0  0  0  0  0  0  0  0  0
   58.2540   31.4320   45.4880 C   0  0  0  0  0  0  0  0  0  0  0  0
   60.5030   32.6740   48.8960 C   0  0  0  0  0  0  0  0  0  0  0  0
   61.4760   32.6860   47.8880 C   0  0  0  0  0  0  0  0  0  0  0  0
   61.3410   31.9980   46.8410 O   0  0  0  0  0  0  0  0  0  0  0  0
   64.6291   33.5312   47.5214 H   0  0  0  0  0  0  0  0  0  0  0  0
   63.5664   32.6002   46.4122 H   0  0  0  0  0  0  0  0  0  0  0  0
   63.5115   34.3956   46.4122 H   0  0  0  0  0  0  0  0  0  0  0  0
   63.6589   34.8162   49.3548 H   0  0  0  0  0  0  0  0  0  0  0  0
   56.6450   32.3360   50.2130 H   0  0  0  0  0  0  0  0  0  0  0  0
   54.8961   32.2100   51.5100 H   0  0  0  0  0  0  0  0  0  0  0  0
   52.7082   31.1742   52.1095 H   0  0  0  0  0  0  0  0  0  0  0  0
   52.6387   28.9014   53.1391 H   0  0  0  0  0  0  0  0  0  0  0  0
   54.7599   27.6656   53.5805 H   0  0  0  0  0  0  0  0  0  0  0  0
   56.9543   28.6903   52.9854 H   0  0  0  0  0  0  0  0  0  0  0  0
   59.3271   30.3663   47.6612 H   0  0  0  0  0  0  0  0  0  0  0  0
   57.7306   30.7604   48.3950 H   0  0  0  0  0  0  0  0  0  0  0  0
   58.1209   33.8658   47.8912 H   0  0  0  0  0  0  0  0  0  0  0  0
   57.6235   35.2571   45.8812 H   0  0  0  0  0  0  0  0  0  0  0  0
   57.5240   34.2020   43.6214 H   0  0  0  0  0  0  0  0  0  0  0  0
   57.9331   31.7512   43.3674 H   0  0  0  0  0  0  0  0  0  0  0  0
   58.4368   30.3535   45.3722 H   0  0  0  0  0  0  0  0  0  0  0  0
  1  2  1  0
  2  3  1  0
  3  4  2  0
  4  5  1  0
  5  6  1  0
  6  7  1  0
  7  8  3  0
  6  9  2  0
  9 10  1  0
 10 11  1  0
 11 12  2  0
 11 13  1  0
 13 14  2  0
 14 15  1  0
 15 16  2  0
 16 17  1  0
 17 18  2  0
  9 19  1  0
 19 20  1  0
 20 21  1  0
 21 22  2  0
 22 23  1  0
 23 24  2  0
 24 25  1  0
 25 26  2  0
 19 27  1  0
 27 28  1  0
 28 29  2  0
 28  2  1  0
 27  5  2  0
 18 13  1  0
 26 21  1  0
  1 30  1  0
  1 31  1  0
  1 32  1  0
  3 33  1  0
 10 34  1  0
 14 35  1  0
 15 36  1  0
 16 37  1  0
 17 38  1  0
 18 39  1  0
 20 40  1  0
 20 41  1  0
 22 42  1  0
 23 43  1  0
 24 44  1  0
 25 45  1  0
 26 46  1  0
M  END
>  <UniqueID>  (19) 
18

>  <SMILES>  (19) 
Cn1cnc2c(C#N)c(NC(=O)c3ccccc3)n(Cc3ccccc3)c2c1=O

>  <Energy>  (19) 
95.8446754732907

>  <Genealogy>  (19) 
Cn1cnc2c(C#N)c(NC(=O)c3ccccc3)n(Cc3ccccc3)c2c1=O (3D coordinates assigned)
Cn1cnc2c(C#N)c(NC(=O)c3ccccc3)n(Cc3ccccc3)c2c1=O (optimized conformer: 95.8446754732907 kcal/mol)

>  <smiles>  (19) 
Cn1cnc2c(C#N)c(NC(=O)c3ccccc3)n(Cc3ccccc3)c2c1=O

>  <score_type>  (19) 
oracle

>  <origin>  (19) 
adg

>  <m_score__min__energy>  (19) 
-7.5700000000000003

>  <m_primary>  (19) 
energy

$$$$
19:0
     RDKit          3D

 40 43  0  0  0  0  0  0  0  0999 V2000
   64.5820   31.6020   50.5390 C   0  0  0  0  0  0  0  0  0  0  0  0
   63.7940   32.2410   49.5400 O   0  0  0  0  0  0  0  0  0  0  0  0
   62.6950   31.6480   48.9000 C   0  0  0  0  0  0  0  0  0  0  0  0
   62.6550   31.4360   47.5090 C   0  0  0  0  0  0  0  0  0  0  0  0
   61.5350   30.8430   46.9190 C   0  0  0  0  0  0  0  0  0  0  0  0
   60.4340   30.4630   47.7020 C   0  0  0  0  0  0  0  0  0  0  0  0
   59.2420   29.8360   47.0860 C   0  0  0  0  0  0  0  0  0  0  0  0
   58.8870   28.5070   47.2410 C   0  0  0  0  0  0  0  0  0  0  0  0
   57.7140   28.3230   46.5320 C   0  0  0  0  0  0  0  0  0  0  0  0
   56.9720   27.0500   46.4440 C   0  0  0  0  0  0  0  0  0  0  0  0
   57.4350   25.8780   46.9170 N   0  0  0  0  0  0  0  0  0  0  0  0
   56.4890   24.9940   46.6330 N   0  0  0  0  0  0  0  0  0  0  0  0
   55.4860   25.5920   46.0100 N   0  0  0  0  0  0  0  0  0  0  0  0
   55.7650   26.8770   45.8790 N   0  0  0  0  0  0  0  0  0  0  0  0
   57.3910   29.5540   45.9840 C   0  0  0  0  0  0  0  0  0  0  0  0
   56.1800   29.8290   45.2680 N   0  0  0  0  0  0  0  0  0  0  0  0
   55.8200   29.1610   44.2790 O   0  0  0  0  0  0  0  0  0  0  0  0
   58.3300   30.4750   46.3110 N   0  0  0  0  0  0  0  0  0  0  0  0
   58.3000   31.8810   46.0190 C   0  0  0  0  0  0  0  0  0  0  0  0
   58.4620   32.8080   47.0600 C   0  0  0  0  0  0  0  0  0  0  0  0
   58.4560   34.1800   46.7880 C   0  0  0  0  0  0  0  0  0  0  0  0
   58.2930   34.6320   45.4770 C   0  0  0  0  0  0  0  0  0  0  0  0
   58.1410   33.7150   44.4330 C   0  0  0  0  0  0  0  0  0  0  0  0
   58.1470   32.3400   44.6970 C   0  0  0  0  0  0  0  0  0  0  0  0
   58.0020   31.2120   43.3560 Cl  0  0  0  0  0  0  0  0  0  0  0  0
   60.4840   30.6600   49.0910 C   0  0  0  0  0  0  0  0  0  0  0  0
   61.6040   31.2520   49.6820 C   0  0  0  0  0  0  0  0  0  0  0  0
   64.2197   31.8958   51.5352 H   0  0  0  0  0  0  0  0  0  0  0  0
   64.5018   30.5107   50.4268 H   0  0  0  0  0  0  0  0  0  0  0  0
   65.6332   31.9059   50.4268 H   0  0  0  0  0  0  0  0  0  0  0  0
   63.5082   31.7381   46.8839 H   0  0  0  0  0  0  0  0  0  0  0  0
   61.5165   30.6729   45.8324 H   0  0  0  0  0  0  0  0  0  0  0  0
   59.4324   27.7448   47.8167 H   0  0  0  0  0  0  0  0  0  0  0  0
   55.1480   27.5740   45.4110 H   0  0  0  0  0  0  0  0  0  0  0  0
   58.5941   32.4545   48.0932 H   0  0  0  0  0  0  0  0  0  0  0  0
   58.5798   34.9034   47.6074 H   0  0  0  0  0  0  0  0  0  0  0  0
   58.2842   35.7114   45.2654 H   0  0  0  0  0  0  0  0  0  0  0  0
   58.0163   34.0747   43.4010 H   0  0  0  0  0  0  0  0  0  0  0  0
   59.6365   30.3466   49.7183 H   0  0  0  0  0  0  0  0  0  0  0  0
   61.6280   31.4079   50.7706 H   0  0  0  0  0  0  0  0  0  0  0  0
  1  2  1  0
  2  3  1  0
  3  4  2  0
  4  5  1  0
  5  6  2  0
  6  7  1  0
  7  8  2  0
  8  9  1  0
  9 10  1  0
 10 11  2  0
 11 12  1  0
 12 13  1  0
 13 14  2  0
  9 15  2  0
 15 16  1  0
 16 17  2  0
 15 18  1  0
 18 19  1  0
 19 20  2  0
 20 21  1  0
 21 22  2  0
 22 23  1  0
 23 24  2  0
 24 25  1  0
  6 26  1  0
 26 27  2  0
 27  3  1  0
 18  7  1  0
 24 19  1  0
 14 10  1  0
  1 28  1  0
  1 29  1  0
  1 30  1  0
  4 31  1  0
  5 32  1  0
  8 33  1  0
 14 34  1  0
 20 35  1  0
 21 36  1  0
 22 37  1  0
 23 38  1  0
 26 39  1  0
 27 40  1  0
M  CHG  2  12  -1  14   1
M  END
>  <UniqueID>  (20) 
19

>  <SMILES>  (20) 
COc1ccc(-c2cc(-c3n[n-]n[nH+]3)c(N=O)n2-c2ccccc2Cl)cc1

>  <Energy>  (20) 
124.05215062558221

>  <Genealogy>  (20) 
COc1ccc(-c2cc(-c3n[n-]n[nH+]3)c(N=O)n2-c2ccccc2Cl)cc1 (protonated)
COc1ccc(-c2cc(-c3n[n-]n[nH+]3)c(N=O)n2-c2ccccc2Cl)cc1 (3D coordinates assigned)
COc1ccc(-c2cc(-c3n[n-]n[nH+]3)c(N=O)n2-c2ccccc2Cl)cc1 (optimized conformer: 124.05215062558221 kcal/mol)

>  <smiles>  (20) 
COc1ccc(-c2cc(-c3nn[nH]n3)c(N=O)n2-c2ccccc2Cl)cc1

>  <score_type>  (20) 
oracle

>  <origin>  (20) 
adg

>  <m_score__min__energy>  (20) 
-9.5399999999999991

>  <m_primary>  (20) 
energy

$$$$
20:0
     RDKit          3D

 52 54  0  0  0  0  0  0  0  0999 V2000
   57.0010   28.3640   45.4890 C   0  0  0  0  0  0  0  0  0  0  0  0
   56.5490   29.7000   45.3000 O   0  0  0  0  0  0  0  0  0  0  0  0
   57.0070   30.5600   44.2880 C   0  0  0  0  0  0  0  0  0  0  0  0
   56.5620   30.4530   42.9550 C   0  0  0  0  0  0  0  0  0  0  0  0
   57.0190   31.3460   41.9820 C   0  0  0  0  0  0  0  0  0  0  0  0
   57.9220   32.3520   42.3270 C   0  0  0  0  0  0  0  0  0  0  0  0
   58.3730   32.4660   43.6430 C   0  0  0  0  0  0  0  0  0  0  0  0
   57.9280   31.5690   44.6250 C   0  0  0  0  0  0  0  0  0  0  0  0
   58.4230   31.6820   45.9670 N   0  0  0  0  0  0  0  0  0  0  0  0
   59.2140   30.5860   46.5350 C   0  0  0  0  0  0  0  0  0  0  0  0
   60.0800   31.0970   47.6870 C   0  0  0  0  0  0  0  0  0  0  0  0
   59.2590   31.7670   48.7260 N   0  0  0  0  0  0  0  0  0  0  0  0
   60.1390   32.4480   49.6580 C   0  0  0  0  0  0  0  0  0  0  0  0
   59.7070   33.3610   50.3450 O   0  0  0  0  0  0  0  0  0  0  0  0
   61.6110   32.0880   49.7540 C   0  0  0  0  0  0  0  0  0  0  0  0
   62.5030   32.9800   48.9540 N   0  0  0  0  0  0  0  0  0  0  0  0
   63.2760   33.8860   49.8480 C   0  0  0  0  0  0  0  0  0  0  0  0
   63.4210   32.2010   48.0940 C   0  0  0  0  0  0  0  0  0  0  0  0
   63.6980   33.0470   46.8700 C   0  0  0  0  0  0  0  0  0  0  0  0
   62.4190   33.8270   46.6600 C   0  0  0  0  0  0  0  0  0  0  0  0
   61.6970   33.8000   48.0060 C   0  0  0  0  0  0  0  0  0  0  0  0
   58.2190   32.6980   48.1920 C   0  0  0  0  0  0  0  0  0  0  0  0
   58.3300   32.9560   46.6800 C   0  0  0  0  0  0  0  0  0  0  0  0
   57.0733   28.1502   46.5656 H   0  0  0  0  0  0  0  0  0  0  0  0
   56.2888   27.6667   45.0237 H   0  0  0  0  0  0  0  0  0  0  0  0
   57.9903   28.2423   45.0237 H   0  0  0  0  0  0  0  0  0  0  0  0
   55.8502   29.6612   42.6786 H   0  0  0  0  0  0  0  0  0  0  0  0
   56.6667   31.2557   40.9439 H   0  0  0  0  0  0  0  0  0  0  0  0
   58.2790   33.0562   41.5610 H   0  0  0  0  0  0  0  0  0  0  0  0
   59.0813   33.2637   43.9114 H   0  0  0  0  0  0  0  0  0  0  0  0
   58.5356   29.8054   46.9098 H   0  0  0  0  0  0  0  0  0  0  0  0
   59.8675   30.1738   45.7521 H   0  0  0  0  0  0  0  0  0  0  0  0
   60.6085   30.2463   48.1420 H   0  0  0  0  0  0  0  0  0  0  0  0
   60.7943   31.8302   47.2842 H   0  0  0  0  0  0  0  0  0  0  0  0
   58.7540   31.0100   49.2420 H   0  0  0  0  0  0  0  0  0  0  0  0
   61.9150   32.1496   50.8094 H   0  0  0  0  0  0  0  0  0  0  0  0
   61.7203   31.0735   49.3431 H   0  0  0  0  0  0  0  0  0  0  0  0
   63.0622   33.6354   50.8975 H   0  0  0  0  0  0  0  0  0  0  0  0
   64.3516   33.7629   49.6534 H   0  0  0  0  0  0  0  0  0  0  0  0
   62.9851   34.9289   49.6534 H   0  0  0  0  0  0  0  0  0  0  0  0
   64.3584   31.9938   48.6310 H   0  0  0  0  0  0  0  0  0  0  0  0
   62.9747   31.2356   47.8134 H   0  0  0  0  0  0  0  0  0  0  0  0
   64.5443   33.7265   47.0489 H   0  0  0  0  0  0  0  0  0  0  0  0
   63.9710   32.4419   45.9929 H   0  0  0  0  0  0  0  0  0  0  0  0
   62.6445   34.8626   46.3657 H   0  0  0  0  0  0  0  0  0  0  0  0
   61.8035   33.3923   45.8587 H   0  0  0  0  0  0  0  0  0  0  0  0
   61.5953   34.8243   48.3940 H   0  0  0  0  0  0  0  0  0  0  0  0
   60.6932   33.3656   47.8886 H   0  0  0  0  0  0  0  0  0  0  0  0
   57.2287   32.2655   48.3977 H   0  0  0  0  0  0  0  0  0  0  0  0
   58.3698   33.6658   48.6927 H   0  0  0  0  0  0  0  0  0  0  0  0
   57.4397   33.5030   46.3363 H   0  0  0  0  0  0  0  0  0  0  0  0
   59.2317   33.5527   46.4779 H   0  0  0  0  0  0  0  0  0  0  0  0
  1  2  1  0
  2  3  1  0
  3  4  2  0
  4  5  1  0
  5  6  2  0
  6  7  1  0
  7  8  2  0
  8  9  1  0
  9 10  1  0
 10 11  1  0
 11 12  1  0
 12 13  1  0
 13 14  2  0
 13 15  1  0
 15 16  1  0
 16 17  1  0
 16 18  1  0
 18 19  1  0
 19 20  1  0
 20 21  1  0
 12 22  1  0
 22 23  1  0
  8  3  1  0
 23  9  1  0
 21 16  1  0
  1 24  1  0
  1 25  1  0
  1 26  1  0
  4 27  1  0
  5 28  1  0
  6 29  1  0
  7 30  1  0
 10 31  1  0
 10 32  1  0
 11 33  1  0
 11 34  1  0
 12 35  1  0
 15 36  1  0
 15 37  1  0
 17 38  1  0
 17 39  1  0
 17 40  1  0
 18 41  1  0
 18 42  1  0
 19 43  1  0
 19 44  1  0
 20 45  1  0
 20 46  1  0
 21 47  1  0
 21 48  1  0
 22 49  1  0
 22 50  1  0
 23 51  1  0
 23 52  1  0
M  CHG  2  12   1  16   1
M  END
>  <UniqueID>  (21) 
20

>  <SMILES>  (21) 
COc1ccccc1N1CC[NH+](C(=O)C[N+]2(C)CCCC2)CC1

>  <Energy>  (21) 
72.60179247571216

>  <Genealogy>  (21) 
COc1ccccc1N1CC[NH+](C(=O)C[N+]2(C)CCCC2)CC1 (protonated)
COc1ccccc1N1CC[NH+](C(=O)C[N+]2(C)CCCC2)CC1 (3D coordinates assigned)
COc1ccccc1N1CC[NH+](C(=O)C[N+]2(C)CCCC2)CC1 (nonaromatic ring conformer: 72.60179247571216 kcal/mol)

>  <smiles>  (21) 
COc1ccccc1N1CCN(C(=O)C[N+]2(C)CCCC2)CC1

>  <score_type>  (21) 
oracle

>  <origin>  (21) 
adg

>  <m_score__min__energy>  (21) 
-4.2000000000000002

>  <m_primary>  (21) 
energy

$$$$
21:0
     RDKit          3D

 29 31  0  0  0  0  0  0  0  0999 V2000
   55.6780   30.2470   44.0610 S   0  0  0  0  0  0  0  0  0  0  0  0
   56.6150   29.1440   44.8310 C   0  0  0  0  0  0  0  0  0  0  0  0
   56.1250   27.9720   45.3030 N   0  0  0  0  0  0  0  0  0  0  0  0
   57.1890   27.3740   45.8630 C   0  0  0  0  0  0  0  0  0  0  0  0
   57.2380   26.1410   46.5080 C   0  0  0  0  0  0  0  0  0  0  0  0
   58.4780   25.7260   47.0290 C   0  0  0  0  0  0  0  0  0  0  0  0
   59.6220   26.5460   46.8950 C   0  0  0  0  0  0  0  0  0  0  0  0
   59.5380   27.7880   46.2370 C   0  0  0  0  0  0  0  0  0  0  0  0
   58.2930   28.1720   45.7280 C   0  0  0  0  0  0  0  0  0  0  0  0
   57.9470   29.2990   45.0710 N   0  0  0  0  0  0  0  0  0  0  0  0
   58.7930   30.4520   44.7400 C   0  0  0  0  0  0  0  0  0  0  0  0
   58.9960   31.3280   45.9560 C   0  0  0  0  0  0  0  0  0  0  0  0
   59.8110   30.8560   47.0000 C   0  0  0  0  0  0  0  0  0  0  0  0
   60.0220   31.6270   48.1460 C   0  0  0  0  0  0  0  0  0  0  0  0
   59.4260   32.8830   48.2630 C   0  0  0  0  0  0  0  0  0  0  0  0
   59.6920   33.8500   49.7030 Cl  0  0  0  0  0  0  0  0  0  0  0  0
   58.6230   33.3730   47.2310 C   0  0  0  0  0  0  0  0  0  0  0  0
   58.4040   32.6100   46.0770 C   0  0  0  0  0  0  0  0  0  0  0  0
   57.3980   33.3110   44.8120 Cl  0  0  0  0  0  0  0  0  0  0  0  0
   55.1450   27.6160   45.2500 H   0  0  0  0  0  0  0  0  0  0  0  0
   56.3398   25.5137   46.6069 H   0  0  0  0  0  0  0  0  0  0  0  0
   58.5576   24.7572   47.5439 H   0  0  0  0  0  0  0  0  0  0  0  0
   60.5850   26.2111   47.3079 H   0  0  0  0  0  0  0  0  0  0  0  0
   60.4213   28.4343   46.1270 H   0  0  0  0  0  0  0  0  0  0  0  0
   59.7705   30.0935   44.3852 H   0  0  0  0  0  0  0  0  0  0  0  0
   58.2974   31.0426   43.9554 H   0  0  0  0  0  0  0  0  0  0  0  0
   60.2879   29.8685   46.9136 H   0  0  0  0  0  0  0  0  0  0  0  0
   60.6587   31.2433   48.9568 H   0  0  0  0  0  0  0  0  0  0  0  0
   58.1589   34.3658   47.3251 H   0  0  0  0  0  0  0  0  0  0  0  0
  1  2  2  0
  2  3  1  0
  3  4  1  0
  4  5  2  0
  5  6  1  0
  6  7  2  0
  7  8  1  0
  8  9  2  0
  9 10  1  0
 10 11  1  0
 11 12  1  0
 12 13  2  0
 13 14  1  0
 14 15  2  0
 15 16  1  0
 15 17  1  0
 17 18  2  0
 18 19  1  0
 10  2  1  0
 18 12  1  0
  9  4  1  0
  3 20  1  0
  5 21  1  0
  6 22  1  0
  7 23  1  0
  8 24  1  0
 11 25  1  0
 11 26  1  0
 13 27  1  0
 14 28  1  0
 17 29  1  0
M  END
>  <UniqueID>  (22) 
21

>  <SMILES>  (22) 
S=c1[nH]c2ccccc2n1Cc1ccc(Cl)cc1Cl

>  <Energy>  (22) 
72.73396256104603

>  <Genealogy>  (22) 
S=c1[nH]c2ccccc2n1Cc1ccc(Cl)cc1Cl (3D coordinates assigned)
S=c1[nH]c2ccccc2n1Cc1ccc(Cl)cc1Cl (optimized conformer: 72.73396256104603 kcal/mol)

>  <smiles>  (22) 
S=c1[nH]c2ccccc2n1Cc1ccc(Cl)cc1Cl

>  <score_type>  (22) 
oracle

>  <origin>  (22) 
adg

>  <m_score__min__energy>  (22) 
-7.3099999999999996

>  <m_primary>  (22) 
energy

$$$$
22:0
     RDKit          3D

 55 56  0  0  0  0  0  0  0  0999 V2000
   56.5840   30.4750   42.8630 C   0  0  0  0  0  0  0  0  0  0  0  0
   57.3590   29.9500   44.0360 C   0  0  0  0  0  0  0  0  0  0  0  0
   56.8200   28.9430   44.8590 C   0  0  0  0  0  0  0  0  0  0  0  0
   57.5460   28.4660   45.9550 C   0  0  0  0  0  0  0  0  0  0  0  0
   58.8130   28.9880   46.2370 C   0  0  0  0  0  0  0  0  0  0  0  0
   59.7380   28.3920   47.6530 S   0  0  0  0  0  0  0  0  0  0  0  0
   59.2080   29.7720   48.7370 C   0  0  0  0  0  0  0  0  0  0  0  0
   60.3980   30.6330   49.2120 C   0  0  0  0  0  0  0  0  0  0  0  0
   60.2060   32.1870   49.3090 C   0  0  1  0  0  0  0  0  0  0  0  0
   58.7220   32.5290   49.5780 C   0  0  0  0  0  0  0  0  0  0  0  0
   61.0710   32.6430   50.5360 C   0  0  0  0  0  0  0  0  0  0  0  0
   62.5860   32.3800   50.4690 C   0  0  0  0  0  0  0  0  0  0  0  0
   63.2660   33.3960   49.6570 N   0  0  0  0  0  0  0  0  0  0  0  0
   64.2690   33.1640   48.8490 C   0  0  0  0  0  0  0  0  0  0  0  0
   64.0910   33.0900   47.4240 N   0  0  0  0  0  0  0  0  0  0  0  0
   65.5800   32.9540   49.3900 N   0  0  0  0  0  0  0  0  0  0  0  0
   60.7530   32.9800   47.7600 S   0  0  0  0  0  0  0  0  0  0  0  0
   61.6410   32.0450   46.9910 O   0  0  0  0  0  0  0  0  0  0  0  0
   61.5470   34.2130   48.1040 O   0  0  0  0  0  0  0  0  0  0  0  0
   59.4450   33.4230   46.6520 C   0  0  0  0  0  0  0  0  0  0  0  0
   58.2050   32.7590   46.7030 C   0  0  0  0  0  0  0  0  0  0  0  0
   57.1800   33.1180   45.8240 C   0  0  0  0  0  0  0  0  0  0  0  0
   57.3740   34.1550   44.9040 C   0  0  0  0  0  0  0  0  0  0  0  0
   58.5920   34.8430   44.8730 C   0  0  0  0  0  0  0  0  0  0  0  0
   59.6220   34.4860   45.7510 C   0  0  0  0  0  0  0  0  0  0  0  0
   59.3630   29.9760   45.4050 C   0  0  0  0  0  0  0  0  0  0  0  0
   58.6390   30.4550   44.3090 C   0  0  0  0  0  0  0  0  0  0  0  0
   55.7235   31.0579   43.2233 H   0  0  0  0  0  0  0  0  0  0  0  0
   57.2339   31.1195   42.2530 H   0  0  0  0  0  0  0  0  0  0  0  0
   56.2265   29.6324   42.2530 H   0  0  0  0  0  0  0  0  0  0  0  0
   55.8245   28.5300   44.6393 H   0  0  0  0  0  0  0  0  0  0  0  0
   57.1205   27.6797   46.5959 H   0  0  0  0  0  0  0  0  0  0  0  0
   58.5087   30.4119   48.1789 H   0  0  0  0  0  0  0  0  0  0  0  0
   58.7305   29.3368   49.6273 H   0  0  0  0  0  0  0  0  0  0  0  0
   60.6765   30.2770   50.2148 H   0  0  0  0  0  0  0  0  0  0  0  0
   61.1551   30.5039   48.4245 H   0  0  0  0  0  0  0  0  0  0  0  0
   58.5459   32.5696   50.6631 H   0  0  0  0  0  0  0  0  0  0  0  0
   58.4839   33.5055   49.1311 H   0  0  0  0  0  0  0  0  0  0  0  0
   58.0806   31.7551   49.1311 H   0  0  0  0  0  0  0  0  0  0  0  0
   60.9289   33.7272   50.6556 H   0  0  0  0  0  0  0  0  0  0  0  0
   60.7149   32.0287   51.3761 H   0  0  0  0  0  0  0  0  0  0  0  0
   62.9990   32.4000   51.4883 H   0  0  0  0  0  0  0  0  0  0  0  0
   62.7484   31.3965   50.0038 H   0  0  0  0  0  0  0  0  0  0  0  0
   62.9610   34.3890   49.7970 H   0  0  0  0  0  0  0  0  0  0  0  0
   63.1850   33.3090   46.9550 H   0  0  0  0  0  0  0  0  0  0  0  0
   64.8910   32.8150   46.8100 H   0  0  0  0  0  0  0  0  0  0  0  0
   66.3680   32.6850   48.7640 H   0  0  0  0  0  0  0  0  0  0  0  0
   65.7660   33.0370   50.4140 H   0  0  0  0  0  0  0  0  0  0  0  0
   58.0425   31.9556   47.4366 H   0  0  0  0  0  0  0  0  0  0  0  0
   56.2185   32.5846   45.8550 H   0  0  0  0  0  0  0  0  0  0  0  0
   56.5694   34.4289   44.2058 H   0  0  0  0  0  0  0  0  0  0  0  0
   58.7403   35.6655   44.1577 H   0  0  0  0  0  0  0  0  0  0  0  0
   60.5726   35.0393   45.7354 H   0  0  0  0  0  0  0  0  0  0  0  0
   60.3664   30.3744   45.6160 H   0  0  0  0  0  0  0  0  0  0  0  0
   59.0738   31.2292   43.6597 H   0  0  0  0  0  0  0  0  0  0  0  0
  1  2  1  0
  2  3  2  0
  3  4  1  0
  4  5  2  0
  5  6  1  0
  6  7  1  0
  7  8  1  0
  9  8  1  6
  9 10  1  0
  9 11  1  0
 11 12  1  0
 12 13  1  0
 13 14  2  3
 14 15  1  0
 14 16  1  0
  9 17  1  0
 17 18  2  0
 17 19  2  0
 17 20  1  0
 20 21  2  0
 21 22  1  0
 22 23  2  0
 23 24  1  0
 24 25  2  0
  5 26  1  0
 26 27  2  0
 27  2  1  0
 25 20  1  0
  1 28  1  0
  1 29  1  0
  1 30  1  0
  3 31  1  0
  4 32  1  0
  7 33  1  0
  7 34  1  0
  8 35  1  0
  8 36  1  0
 10 37  1  0
 10 38  1  0
 10 39  1  0
 11 40  1  0
 11 41  1  0
 12 42  1  0
 12 43  1  0
 13 44  1  0
 15 45  1  0
 15 46  1  0
 16 47  1  0
 16 48  1  0
 21 49  1  0
 22 50  1  0
 23 51  1  0
 24 52  1  0
 25 53  1  0
 26 54  1  0
 27 55  1  0
M  CHG  1  13   1
M  END
>  <UniqueID>  (23) 
22

>  <SMILES>  (23) 
Cc1ccc(SCC[C@@](C)(CC[NH+]=C(N)N)S(=O)(=O)c2ccccc2)cc1

>  <Energy>  (23) 
52.437799841008044

>  <Genealogy>  (23) 
Cc1ccc(SCCC(C)(CC[NH+]=C(N)N)S(=O)(=O)c2ccccc2)cc1 (protonated)
Cc1ccc(SCC[C@@](C)(CC[NH+]=C(N)N)S(=O)(=O)c2ccccc2)cc1 (chirality)
Cc1ccc(SCC[C@@](C)(CC[NH+]=C(N)N)S(=O)(=O)c2ccccc2)cc1 (3D coordinates assigned)
Cc1ccc(SCC[C@@](C)(CC[NH+]=C(N)N)S(=O)(=O)c2ccccc2)cc1 (optimized conformer: 52.437799841008044 kcal/mol)

>  <smiles>  (23) 
Cc1ccc(SCCC(C)(CCN=C(N)N)S(=O)(=O)c2ccccc2)cc1

>  <score_type>  (23) 
oracle

>  <origin>  (23) 
adg

>  <m_score__min__energy>  (23) 
-7.1200000000000001

>  <m_primary>  (23) 
energy

$$$$
23:0
     RDKit          3D

 33 35  0  0  0  0  0  0  0  0999 V2000
   60.2335   35.8065   46.0354 H   0  0  0  0  0  0  0  0  0  0  0  0
   59.6870   34.8530   45.9880 C   0  0  0  0  0  0  0  0  0  0  0  0
   58.2350   34.5890   45.1770 S   0  0  0  0  0  0  0  0  0  0  0  0
   58.1670   32.9700   45.6060 C   0  0  0  0  0  0  0  0  0  0  0  0
   57.1820   32.1850   45.2760 N   0  0  0  0  0  0  0  0  0  0  0  0
   57.2910   30.9180   44.6110 C   0  0  0  0  0  0  0  0  0  0  0  0
   56.5440   30.6320   43.4550 C   0  0  0  0  0  0  0  0  0  0  0  0
   55.8836   31.3994   43.0249 H   0  0  0  0  0  0  0  0  0  0  0  0
   56.6380   29.3760   42.8510 C   0  0  0  0  0  0  0  0  0  0  0  0
   56.0685   29.1640   41.9341 H   0  0  0  0  0  0  0  0  0  0  0  0
   57.4540   28.3880   43.4090 C   0  0  0  0  0  0  0  0  0  0  0  0
   57.5405   27.4069   42.9191 H   0  0  0  0  0  0  0  0  0  0  0  0
   58.1630   28.6440   44.5920 C   0  0  0  0  0  0  0  0  0  0  0  0
   59.0550   27.5910   45.1810 C   0  0  0  0  0  0  0  0  0  0  0  0
   59.0098   27.6443   46.2788 H   0  0  0  0  0  0  0  0  0  0  0  0
   58.7192   26.5978   44.8480 H   0  0  0  0  0  0  0  0  0  0  0  0
   60.0899   27.7589   44.8480 H   0  0  0  0  0  0  0  0  0  0  0  0
   58.0780   29.9130   45.1870 C   0  0  0  0  0  0  0  0  0  0  0  0
   58.6342   30.1194   46.1133 H   0  0  0  0  0  0  0  0  0  0  0  0
   59.2230   32.6130   46.3770 N   0  0  0  0  0  0  0  0  0  0  0  0
   59.3380   31.6770   46.8200 H   0  0  0  0  0  0  0  0  0  0  0  0
   60.0800   33.6540   46.5910 C   0  0  0  0  0  0  0  0  0  0  0  0
   61.3140   33.5150   47.4030 C   0  0  0  0  0  0  0  0  0  0  0  0
   61.2490   33.4590   48.8080 C   0  0  0  0  0  0  0  0  0  0  0  0
   60.2734   33.5195   49.3124 H   0  0  0  0  0  0  0  0  0  0  0  0
   62.4160   33.3270   49.5670 C   0  0  0  0  0  0  0  0  0  0  0  0
   62.3546   33.2821   50.6644 H   0  0  0  0  0  0  0  0  0  0  0  0
   63.6600   33.2520   48.9350 C   0  0  0  0  0  0  0  0  0  0  0  0
   65.2520   33.0740   49.9750 Br  0  0  0  0  0  0  0  0  0  0  0  0
   63.7370   33.3100   47.5410 C   0  0  0  0  0  0  0  0  0  0  0  0
   64.7162   33.2532   47.0431 H   0  0  0  0  0  0  0  0  0  0  0  0
   62.5730   33.4400   46.7770 C   0  0  0  0  0  0  0  0  0  0  0  0
   62.6414   33.4839   45.6800 H   0  0  0  0  0  0  0  0  0  0  0  0
  1  2  1  0
  2  3  1  0
  3  4  1  0
  4  5  2  0
  5  6  1  0
  6  7  2  0
  7  8  1  0
  7  9  1  0
  9 10  1  0
  9 11  2  0
 11 12  1  0
 11 13  1  0
 13 14  1  0
 14 15  1  0
 14 16  1  0
 14 17  1  0
 13 18  2  0
 18 19  1  0
  4 20  1  0
 20 21  1  0
 20 22  1  0
 22 23  1  0
 23 24  2  0
 24 25  1  0
 24 26  1  0
 26 27  1  0
 26 28  2  0
 28 29  1  0
 28 30  1  0
 30 31  1  0
 30 32  2  0
 32 33  1  0
 22  2  2  0
 32 23  1  0
 18  6  1  0
M  END
>  <UniqueID>  (24) 
23

>  <SMILES>  (24) 
Cc1cccc(/N=c2\[nH]c(-c3ccc(Br)cc3)cs2)c1

>  <Energy>  (24) 
74.99106053119411

>  <Genealogy>  (24) 
Cc1cccc(/N=c2\[nH]c(-c3ccc(Br)cc3)cs2)c1 (cis-trans isomerization)
Cc1cccc(/N=c2\[nH]c(-c3ccc(Br)cc3)cs2)c1 (3D coordinates assigned)
Cc1cccc(/N=c2\[nH]c(-c3ccc(Br)cc3)cs2)c1 (optimized conformer: 74.99106053119411 kcal/mol)

>  <smiles>  (24) 
Cc1cccc(N=c2[nH]c(-c3ccc(Br)cc3)cs2)c1

>  <score_type>  (24) 
oracle

>  <origin>  (24) 
adg

>  <m_score__min__energy>  (24) 
-7.8600000000000003

>  <m_primary>  (24) 
energy

$$$$
24:0
     RDKit          3D

 35 37  0  0  0  0  0  0  0  0999 V2000
   54.7690   28.9660   45.5830 H   0  0  0  0  0  0  0  0  0  0  0  0
   55.6530   29.1970   45.1470 O   0  0  0  0  0  0  0  0  0  0  0  0
   55.7660   30.3360   44.3860 N   0  0  0  0  0  0  0  0  0  0  0  0
   56.9270   30.8460   44.1330 C   0  0  0  0  0  0  0  0  0  0  0  0
   57.4601   30.5329   43.2232 H   0  0  0  0  0  0  0  0  0  0  0  0
   57.5610   31.8390   45.0310 C   0  0  0  0  0  0  0  0  0  0  0  0
   57.4690   33.2080   44.6970 C   0  0  0  0  0  0  0  0  0  0  0  0
   56.9321   33.5073   43.7848 H   0  0  0  0  0  0  0  0  0  0  0  0
   58.0530   34.1960   45.5120 C   0  0  0  0  0  0  0  0  0  0  0  0
   57.9665   35.2553   45.2283 H   0  0  0  0  0  0  0  0  0  0  0  0
   58.7460   33.8450   46.6850 C   0  0  0  0  0  0  0  0  0  0  0  0
   59.3350   34.8590   47.5070 N   0  0  0  0  0  0  0  0  0  0  0  0
   58.9470   35.8280   47.5090 H   0  0  0  0  0  0  0  0  0  0  0  0
   60.1560   34.6630   48.1170 H   0  0  0  0  0  0  0  0  0  0  0  0
   58.8310   32.4830   47.0080 C   0  0  0  0  0  0  0  0  0  0  0  0
   58.2600   31.5130   46.2100 C   0  0  0  0  0  0  0  0  0  0  0  0
   58.5310   30.2940   46.8140 C   0  0  0  0  0  0  0  0  0  0  0  0
   58.2317   29.2957   46.4621 H   0  0  0  0  0  0  0  0  0  0  0  0
   59.2600   30.5990   47.9570 C   0  0  0  0  0  0  0  0  0  0  0  0
   59.7750   29.6160   48.9210 C   0  0  0  0  0  0  0  0  0  0  0  0
   59.8070   29.9010   50.1490 O   0  0  0  0  0  0  0  0  0  0  0  0
   60.2850   28.3610   48.4500 N   0  0  0  0  0  0  0  0  0  0  0  0
   59.5940   27.4130   47.6240 C   0  0  0  0  0  0  0  0  0  0  0  0
   60.3490   26.5320   46.8370 C   0  0  0  0  0  0  0  0  0  0  0  0
   61.4477   26.5701   46.8756 H   0  0  0  0  0  0  0  0  0  0  0  0
   59.7160   25.6060   46.0040 C   0  0  0  0  0  0  0  0  0  0  0  0
   60.3161   24.9097   45.3998 H   0  0  0  0  0  0  0  0  0  0  0  0
   58.3190   25.5640   45.9380 C   0  0  0  0  0  0  0  0  0  0  0  0
   57.4540   24.3010   44.7960 Br  0  0  0  0  0  0  0  0  0  0  0  0
   57.5580   26.4550   46.6990 C   0  0  0  0  0  0  0  0  0  0  0  0
   56.4599   26.4279   46.6403 H   0  0  0  0  0  0  0  0  0  0  0  0
   58.1900   27.3820   47.5360 C   0  0  0  0  0  0  0  0  0  0  0  0
   57.5876   28.0880   48.1264 H   0  0  0  0  0  0  0  0  0  0  0  0
   59.4420   31.9320   48.0730 N   0  0  0  0  0  0  0  0  0  0  0  0
   59.9540   32.4230   48.8380 H   0  0  0  0  0  0  0  0  0  0  0  0
  1  2  1  0
  2  3  1  0
  3  4  2  0
  4  5  1  0
  4  6  1  0
  6  7  2  0
  7  8  1  0
  7  9  1  0
  9 10  1  0
  9 11  2  0
 11 12  1  0
 12 13  1  0
 12 14  1  0
 11 15  1  0
 15 16  2  0
 16 17  1  0
 17 18  1  0
 17 19  2  0
 19 20  1  0
 20 21  2  0
 20 22  1  0
 22 23  1  0
 23 24  2  0
 24 25  1  0
 24 26  1  0
 26 27  1  0
 26 28  2  0
 28 29  1  0
 28 30  1  0
 30 31  1  0
 30 32  2  0
 32 33  1  0
 19 34  1  0
 34 35  1  0
 16  6  1  0
 32 23  1  0
 34 15  1  0
M  CHG  1  22  -1
M  END
>  <UniqueID>  (25) 
24

>  <SMILES>  (25) 
Nc1ccc(/C=N/O)c2cc(C(=O)[N-]c3ccc(Br)cc3)[nH]c12

>  <Energy>  (25) 
72.63807336184512

>  <Genealogy>  (25) 
Nc1ccc(C=NO)c2cc(C(=O)[N-]c3ccc(Br)cc3)[nH]c12 (protonated)
Nc1ccc(/C=N/O)c2cc(C(=O)[N-]c3ccc(Br)cc3)[nH]c12 (cis-trans isomerization)
Nc1ccc(/C=N/O)c2cc(C(=O)[N-]c3ccc(Br)cc3)[nH]c12 (3D coordinates assigned)
Nc1ccc(/C=N/O)c2cc(C(=O)[N-]c3ccc(Br)cc3)[nH]c12 (optimized conformer: 72.63807336184512 kcal/mol)

>  <smiles>  (25) 
Nc1ccc(C=NO)c2cc(C(=O)Nc3ccc(Br)cc3)[nH]c12

>  <score_type>  (25) 
oracle

>  <origin>  (25) 
adg

>  <m_score__min__energy>  (25) 
-10.529999999999999

>  <m_primary>  (25) 
energy

$$$$
25:0
     RDKit          3D

 62 65  0  0  0  0  0  0  0  0999 V2000
   61.2580   26.3680   46.3630 O   0  0  0  0  0  0  0  0  0  0  0  0
   60.3620   26.8230   47.1310 C   0  0  0  0  0  0  0  0  0  0  0  0
   59.2830   25.9610   47.5060 N   0  0  0  0  0  0  0  0  0  0  0  0
   58.1480   25.5630   46.6670 C   0  0  2  0  0  0  0  0  0  0  0  0
   58.4550   24.2630   45.9520 C   0  0  0  0  0  0  0  0  0  0  0  0
   59.6340   23.8200   45.9930 O   0  0  0  0  0  0  0  0  0  0  0  0
   57.4570   23.5400   45.1970 N   0  0  0  0  0  0  0  0  0  0  0  0
   57.9130   22.6630   44.1050 C   0  0  0  0  0  0  0  0  0  0  0  0
   56.7360   22.0840   43.3060 C   0  0  0  0  0  0  0  0  0  0  0  0
   55.6740   23.1600   43.0870 C   0  0  0  0  0  0  0  0  0  0  0  0
   55.0990   23.6800   44.4190 C   0  0  0  0  0  0  0  0  0  0  0  0
   56.0500   23.4880   45.6180 C   0  0  0  0  0  0  0  0  0  0  0  0
   57.7670   26.7080   45.7390 C   0  0  0  0  0  0  0  0  0  0  0  0
   58.6320   27.0340   44.6750 C   0  0  0  0  0  0  0  0  0  0  0  0
   58.3250   28.0760   43.7960 C   0  0  0  0  0  0  0  0  0  0  0  0
   57.1610   28.8260   43.9760 C   0  0  0  0  0  0  0  0  0  0  0  0
   56.3040   28.5370   45.0410 C   0  0  0  0  0  0  0  0  0  0  0  0
   55.1510   29.2920   45.2250 O   0  0  0  0  0  0  0  0  0  0  0  0
   56.6070   27.4920   45.9240 C   0  0  0  0  0  0  0  0  0  0  0  0
   60.4600   28.2220   47.5850 C   0  0  0  0  0  0  0  0  0  0  0  0
   60.3690   28.5200   48.9550 C   0  0  0  0  0  0  0  0  0  0  0  0
   60.5210   29.8360   49.4070 C   0  0  0  0  0  0  0  0  0  0  0  0
   60.7260   30.8730   48.4850 C   0  0  0  0  0  0  0  0  0  0  0  0
   60.8880   32.2180   48.9330 N   0  0  0  0  0  0  0  0  0  0  0  0
   59.6140   33.3910   48.8740 S   0  0  0  0  0  0  0  0  0  0  0  0
   59.2710   33.7830   50.2820 O   0  0  0  0  0  0  0  0  0  0  0  0
   60.0870   34.6120   48.1360 O   0  0  0  0  0  0  0  0  0  0  0  0
   58.1240   32.7250   48.1320 C   0  0  0  0  0  0  0  0  0  0  0  0
   58.1330   32.8310   46.6300 C   0  0  0  0  0  0  0  0  0  0  0  0
   58.1940   34.0890   46.0040 C   0  0  0  0  0  0  0  0  0  0  0  0
   58.1900   34.1830   44.6090 C   0  0  0  0  0  0  0  0  0  0  0  0
   58.1370   33.0260   43.8290 C   0  0  0  0  0  0  0  0  0  0  0  0
   58.1050   31.7700   44.4410 C   0  0  0  0  0  0  0  0  0  0  0  0
   58.1130   31.6700   45.8340 C   0  0  0  0  0  0  0  0  0  0  0  0
   60.8330   30.5780   47.1210 C   0  0  0  0  0  0  0  0  0  0  0  0
   60.7260   29.2580   46.6760 C   0  0  0  0  0  0  0  0  0  0  0  0
   57.2627   25.3613   47.2879 H   0  0  0  0  0  0  0  0  0  0  0  0
   58.5524   23.2450   43.4250 H   0  0  0  0  0  0  0  0  0  0  0  0
   58.4680   21.8243   44.5505 H   0  0  0  0  0  0  0  0  0  0  0  0
   57.0985   21.7261   42.3311 H   0  0  0  0  0  0  0  0  0  0  0  0
   56.2934   21.2489   43.8688 H   0  0  0  0  0  0  0  0  0  0  0  0
   56.1274   24.0016   42.5428 H   0  0  0  0  0  0  0  0  0  0  0  0
   54.8499   22.7133   42.5114 H   0  0  0  0  0  0  0  0  0  0  0  0
   54.8878   24.7541   44.3110 H   0  0  0  0  0  0  0  0  0  0  0  0
   54.1917   23.0947   44.6295 H   0  0  0  0  0  0  0  0  0  0  0  0
   55.8660   24.2858   46.3526 H   0  0  0  0  0  0  0  0  0  0  0  0
   55.8561   22.4996   46.0602 H   0  0  0  0  0  0  0  0  0  0  0  0
   59.5604   26.4610   44.5348 H   0  0  0  0  0  0  0  0  0  0  0  0
   59.0020   28.3060   42.9601 H   0  0  0  0  0  0  0  0  0  0  0  0
   56.9191   29.6431   43.2804 H   0  0  0  0  0  0  0  0  0  0  0  0
   55.9352   27.2804   46.7690 H   0  0  0  0  0  0  0  0  0  0  0  0
   60.1769   27.7132   49.6777 H   0  0  0  0  0  0  0  0  0  0  0  0
   60.4797   30.0567   50.4838 H   0  0  0  0  0  0  0  0  0  0  0  0
   58.0343   31.6647   48.4106 H   0  0  0  0  0  0  0  0  0  0  0  0
   57.2724   33.3134   48.5043 H   0  0  0  0  0  0  0  0  0  0  0  0
   58.2451   35.0027   46.6144 H   0  0  0  0  0  0  0  0  0  0  0  0
   58.2287   35.1701   44.1251 H   0  0  0  0  0  0  0  0  0  0  0  0
   58.1204   33.1032   42.7318 H   0  0  0  0  0  0  0  0  0  0  0  0
   58.0735   30.8593   43.8249 H   0  0  0  0  0  0  0  0  0  0  0  0
   58.1036   30.6791   46.3116 H   0  0  0  0  0  0  0  0  0  0  0  0
   61.0020   31.3885   46.3967 H   0  0  0  0  0  0  0  0  0  0  0  0
   60.8509   29.0293   45.6073 H   0  0  0  0  0  0  0  0  0  0  0  0
  1  2  2  0
  2  3  1  0
  3  4  1  0
  4  5  1  0
  5  6  2  0
  5  7  1  0
  7  8  1  0
  8  9  1  0
  9 10  1  0
 10 11  1  0
 11 12  1  0
  4 13  1  0
 13 14  2  0
 14 15  1  0
 15 16  2  0
 16 17  1  0
 17 18  1  0
 17 19  2  0
  2 20  1  0
 20 21  2  0
 21 22  1  0
 22 23  2  0
 23 24  1  0
 24 25  1  0
 25 26  2  0
 25 27  2  0
 25 28  1  0
 28 29  1  0
 29 30  2  0
 30 31  1  0
 31 32  2  0
 32 33  1  0
 33 34  2  0
 23 35  1  0
 35 36  2  0
 12  7  1  0
 19 13  1  0
 36 20  1  0
 34 29  1  0
  4 37  1  1
  8 38  1  0
  8 39  1  0
  9 40  1  0
  9 41  1  0
 10 42  1  0
 10 43  1  0
 11 44  1  0
 11 45  1  0
 12 46  1  0
 12 47  1  0
 14 48  1  0
 15 49  1  0
 16 50  1  0
 19 51  1  0
 21 52  1  0
 22 53  1  0
 28 54  1  0
 28 55  1  0
 30 56  1  0
 31 57  1  0
 32 58  1  0
 33 59  1  0
 34 60  1  0
 35 61  1  0
 36 62  1  0
M  CHG  3   3  -1  18  -1  24  -1
M  END
>  <UniqueID>  (26) 
25

>  <SMILES>  (26) 
O=C([N-][C@H](C(=O)N1CCCCC1)c1cccc([O-])c1)c1ccc([N-]S(=O)(=O)Cc2ccccc2)cc1

>  <Energy>  (26) 
74.48821340220988

>  <Genealogy>  (26) 
O=C([N-]C(C(=O)N1CCCCC1)c1cccc([O-])c1)c1ccc([N-]S(=O)(=O)Cc2ccccc2)cc1 (protonated)
O=C([N-][C@H](C(=O)N1CCCCC1)c1cccc([O-])c1)c1ccc([N-]S(=O)(=O)Cc2ccccc2)cc1 (chirality)
O=C([N-][C@H](C(=O)N1CCCCC1)c1cccc([O-])c1)c1ccc([N-]S(=O)(=O)Cc2ccccc2)cc1 (3D coordinates assigned)
O=C([N-][C@H](C(=O)N1CCCCC1)c1cccc([O-])c1)c1ccc([N-]S(=O)(=O)Cc2ccccc2)cc1 (nonaromatic ring conformer: 74.48821340220988 kcal/mol)

>  <smiles>  (26) 
O=C(NC(C(=O)N1CCCCC1)c1cccc(O)c1)c1ccc(NS(=O)(=O)Cc2ccccc2)cc1

>  <score_type>  (26) 
oracle

>  <origin>  (26) 
adg

>  <m_score__min__energy>  (26) 
-15.970000000000001

>  <m_primary>  (26) 
energy

$$$$
26:0
     RDKit          3D

 59 63  0  0  0  0  0  0  0  0999 V2000
   51.5596   32.5713   49.9466 H   0  0  0  0  0  0  0  0  0  0  0  0
   51.8340   32.0690   50.8860 C   0  0  0  0  0  0  0  0  0  0  0  0
   52.9970   31.3680   50.9680 N   0  0  0  0  0  0  0  0  0  0  0  0
   53.3740   30.7320   52.1140 C   0  0  0  0  0  0  0  0  0  0  0  0
   54.4870   30.0630   52.1690 N   0  0  0  0  0  0  0  0  0  0  0  0
   54.8350   29.1390   53.2450 C   0  0  0  0  0  0  0  0  0  0  0  0
   54.5060   28.1250   52.9738 H   0  0  0  0  0  0  0  0  0  0  0  0
   54.3351   29.4611   54.1704 H   0  0  0  0  0  0  0  0  0  0  0  0
   56.3480   29.1360   53.4700 C   0  0  0  0  0  0  0  0  0  0  0  0
   56.7439   28.1398   53.2233 H   0  0  0  0  0  0  0  0  0  0  0  0
   56.5402   29.3842   54.5242 H   0  0  0  0  0  0  0  0  0  0  0  0
   57.0370   30.1630   52.6100 C   0  0  0  0  0  0  0  0  0  0  0  0
   57.9120   29.7620   51.5880 C   0  0  0  0  0  0  0  0  0  0  0  0
   58.0925   28.6915   51.4104 H   0  0  0  0  0  0  0  0  0  0  0  0
   58.5550   30.7170   50.7950 C   0  0  0  0  0  0  0  0  0  0  0  0
   59.2455   30.3933   50.0022 H   0  0  0  0  0  0  0  0  0  0  0  0
   58.3260   32.0840   51.0030 C   0  0  0  0  0  0  0  0  0  0  0  0
   59.0070   33.0350   50.1680 N   0  0  0  0  0  0  0  0  0  0  0  0
   58.8950   33.1540   48.8770 C   0  0  0  0  0  0  0  0  0  0  0  0
   58.4270   32.1170   48.1070 N   0  0  0  0  0  0  0  0  0  0  0  0
   58.3390   32.2060   46.7490 C   0  0  0  0  0  0  0  0  0  0  0  0
   57.8360   31.1260   46.0150 O   0  0  0  0  0  0  0  0  0  0  0  0
   58.4250   29.8550   45.9530 C   0  0  0  0  0  0  0  0  0  0  0  0
   59.6750   29.7250   45.3380 C   0  0  0  0  0  0  0  0  0  0  0  0
   60.1788   30.6134   44.9295 H   0  0  0  0  0  0  0  0  0  0  0  0
   60.2870   28.4720   45.2400 C   0  0  0  0  0  0  0  0  0  0  0  0
   61.2743   28.3795   44.7640 H   0  0  0  0  0  0  0  0  0  0  0  0
   59.6480   27.3370   45.7450 C   0  0  0  0  0  0  0  0  0  0  0  0
   60.1352   26.3537   45.6687 H   0  0  0  0  0  0  0  0  0  0  0  0
   58.3830   27.4480   46.3510 C   0  0  0  0  0  0  0  0  0  0  0  0
   57.6770   26.3110   46.8650 N   0  0  0  0  0  0  0  0  0  0  0  0
   56.2500   25.6060   46.1710 S   0  0  0  0  0  0  0  0  0  0  0  0
   55.1880   26.6560   45.9990 O   0  0  0  0  0  0  0  0  0  0  0  0
   55.7320   24.5490   47.1050 O   0  0  0  0  0  0  0  0  0  0  0  0
   56.6350   24.8520   44.6060 C   0  0  0  0  0  0  0  0  0  0  0  0
   57.1292   23.8842   44.7770 H   0  0  0  0  0  0  0  0  0  0  0  0
   55.7070   24.6944   44.0368 H   0  0  0  0  0  0  0  0  0  0  0  0
   57.3068   25.5113   44.0368 H   0  0  0  0  0  0  0  0  0  0  0  0
   57.7800   28.7090   46.4510 C   0  0  0  0  0  0  0  0  0  0  0  0
   56.7915   28.8034   46.9242 H   0  0  0  0  0  0  0  0  0  0  0  0
   58.7310   33.4060   46.1570 C   0  0  0  0  0  0  0  0  0  0  0  0
   58.7150   33.8630   44.8550 C   0  0  0  0  0  0  0  0  0  0  0  0
   58.3878   33.3175   43.9576 H   0  0  0  0  0  0  0  0  0  0  0  0
   59.2040   35.1670   44.9250 C   0  0  0  0  0  0  0  0  0  0  0  0
   59.3314   35.8327   44.0586 H   0  0  0  0  0  0  0  0  0  0  0  0
   59.5010   35.5040   46.2020 N   0  0  0  0  0  0  0  0  0  0  0  0
   59.8670   36.4200   46.5450 H   0  0  0  0  0  0  0  0  0  0  0  0
   59.1990   34.4220   46.9320 C   0  0  0  0  0  0  0  0  0  0  0  0
   59.2920   34.3180   48.2810 N   0  0  0  0  0  0  0  0  0  0  0  0
   57.4930   32.4860   52.0630 C   0  0  0  0  0  0  0  0  0  0  0  0
   57.3469   33.5567   52.2688 H   0  0  0  0  0  0  0  0  0  0  0  0
   56.8500   31.5310   52.8560 C   0  0  0  0  0  0  0  0  0  0  0  0
   56.1937   31.8543   53.6775 H   0  0  0  0  0  0  0  0  0  0  0  0
   52.5500   30.7970   53.2430 C   0  0  0  0  0  0  0  0  0  0  0  0
   52.8448   30.2908   54.1740 H   0  0  0  0  0  0  0  0  0  0  0  0
   51.3510   31.5090   53.1790 C   0  0  0  0  0  0  0  0  0  0  0  0
   50.6943   31.5636   54.0598 H   0  0  0  0  0  0  0  0  0  0  0  0
   50.9880   32.1510   51.9950 C   0  0  0  0  0  0  0  0  0  0  0  0
   50.0459   32.7157   51.9350 H   0  0  0  0  0  0  0  0  0  0  0  0
  1  2  1  0
  2  3  1  0
  3  4  1  0
  4  5  2  0
  5  6  1  0
  6  7  1  0
  6  8  1  0
  6  9  1  0
  9 10  1  0
  9 11  1  0
  9 12  1  0
 12 13  2  0
 13 14  1  0
 13 15  1  0
 15 16  1  0
 15 17  2  0
 17 18  1  0
 18 19  2  0
 19 20  1  0
 20 21  2  0
 21 22  1  0
 22 23  1  0
 23 24  2  0
 24 25  1  0
 24 26  1  0
 26 27  1  0
 26 28  2  0
 28 29  1  0
 28 30  1  0
 30 31  1  0
 31 32  1  0
 32 33  2  0
 32 34  2  0
 32 35  1  0
 35 36  1  0
 35 37  1  0
 35 38  1  0
 30 39  2  0
 39 40  1  0
 21 41  1  0
 41 42  1  0
 42 43  1  0
 42 44  2  0
 44 45  1  0
 44 46  1  0
 46 47  1  0
 46 48  1  0
 48 49  1  0
 17 50  1  0
 50 51  1  0
 50 52  2  0
 52 53  1  0
  4 54  1  0
 54 55  1  0
 54 56  2  0
 56 57  1  0
 56 58  1  0
 58 59  1  0
 58  2  2  0
 52 12  1  0
 49 19  1  0
 39 23  1  0
 48 41  2  0
M  CHG  3   3  -1  31  -1  49  -1
M  END
>  <UniqueID>  (27) 
26

>  <SMILES>  (27) 
CS(=O)(=O)[N-]c1cccc(Oc2n/c(=N\c3ccc(CC/N=c4/cccc[n-]4)cc3)[n-]c3[nH]ccc23)c1

>  <Energy>  (27) 
110.68591687548954

>  <Genealogy>  (27) 
CS(=O)(=O)[N-]c1cccc(Oc2nc(=Nc3ccc(CCN=c4cccc[n-]4)cc3)[n-]c3[nH]ccc23)c1 (protonated)
CS(=O)(=O)[N-]c1cccc(Oc2n/c(=N\c3ccc(CC/N=c4/cccc[n-]4)cc3)[n-]c3[nH]ccc23)c1 (cis-trans isomerization)
CS(=O)(=O)[N-]c1cccc(Oc2n/c(=N\c3ccc(CC/N=c4/cccc[n-]4)cc3)[n-]c3[nH]ccc23)c1 (3D coordinates assigned)
CS(=O)(=O)[N-]c1cccc(Oc2n/c(=N\c3ccc(CC/N=c4/cccc[n-]4)cc3)[n-]c3[nH]ccc23)c1 (optimized conformer: 110.68591687548954 kcal/mol)

>  <smiles>  (27) 
CS(=O)(=O)Nc1cccc(Oc2nc(=Nc3ccc(CCN=c4cccc[nH]4)cc3)[nH]c3[nH]ccc23)c1

>  <score_type>  (27) 
oracle

>  <origin>  (27) 
adg

>  <m_score__min__energy>  (27) 
-14.039999999999999

>  <m_primary>  (27) 
energy

$$$$
27:0
     RDKit          3D

 30 31  0  0  1  0  0  0  0  0999 V2000
   64.8570   33.0810   48.9050 N   0  0  0  0  0  0  0  0  0  0  0  0
   63.5810   33.3910   48.3770 C   0  0  0  0  0  0  0  0  0  0  0  0
   62.4640   33.5890   49.1630 C   0  0  0  0  0  0  0  0  0  0  0  0
   61.2470   33.8900   48.5870 C   0  0  0  0  0  0  0  0  0  0  0  0
   61.0830   34.0080   47.2090 C   0  0  0  0  0  0  0  0  0  0  0  0
   59.5190   34.3950   46.5230 S   0  0  0  0  0  0  0  0  0  0  0  0
   59.6300   35.1590   45.2330 O   0  0  0  0  0  0  0  0  0  0  0  0
   58.9060   35.4330   47.4740 O   0  0  0  0  0  0  0  0  0  0  0  0
   58.4260   33.1040   46.5160 N   0  0  0  0  0  0  0  0  0  0  0  0
   58.2440   32.2800   45.5560 C   0  0  0  0  0  0  0  0  0  0  0  0
   58.1680   30.9310   45.8120 C   0  0  0  0  0  0  0  0  0  0  0  0
   57.9740   29.9730   44.8430 C   0  0  0  0  0  0  0  0  0  0  0  0
   57.8910   28.5250   45.1100 C   0  0  0  0  0  0  0  0  0  0  0  0
   58.0640   27.8670   43.8910 F   0  0  0  0  0  0  0  0  0  0  0  0
   56.6170   28.1340   45.5360 F   0  0  0  0  0  0  0  0  0  0  0  0
   57.8550   30.4000   43.5750 N   0  0  0  0  0  0  0  0  0  0  0  0
   57.9250   31.7210   43.2880 C   0  0  0  0  0  0  0  0  0  0  0  0
   57.7550   32.3420   41.4770 Br  0  0  0  0  0  0  0  0  0  0  0  0
   58.1170   32.6530   44.2590 N   0  0  0  0  0  0  0  0  0  0  0  0
   62.2120   33.8070   46.4480 C   0  0  0  0  0  0  0  0  0  0  0  0
   63.4430   33.5030   47.0080 C   0  0  0  0  0  0  0  0  0  0  0  0
   64.9170   32.8590   49.9130 H   0  0  0  0  0  0  0  0  0  0  0  0
   65.7160   33.0730   48.3020 H   0  0  0  0  0  0  0  0  0  0  0  0
   62.5446   33.5062   50.2569 H   0  0  0  0  0  0  0  0  0  0  0  0
   60.3747   34.0423   49.2397 H   0  0  0  0  0  0  0  0  0  0  0  0
   58.2684   30.5971   46.8553 H   0  0  0  0  0  0  0  0  0  0  0  0
   58.6405   28.2879   45.8794 H   0  0  0  0  0  0  0  0  0  0  0  0
   57.7040   29.7410   42.7640 H   0  0  0  0  0  0  0  0  0  0  0  0
   62.1345   33.8908   45.3539 H   0  0  0  0  0  0  0  0  0  0  0  0
   64.3162   33.3499   46.3568 H   0  0  0  0  0  0  0  0  0  0  0  0
  1  2  1  0
  2  3  2  0
  3  4  1  0
  4  5  2  0
  5  6  1  0
  6  7  2  0
  6  8  2  0
  6  9  1  0
  9 10  2  0
 10 11  1  0
 11 12  2  0
 12 13  1  0
 13 14  1  0
 13 15  1  0
 12 16  1  0
 16 17  1  0
 17 18  1  0
 17 19  2  0
  5 20  1  0
 20 21  2  0
 21  2  1  0
 19 10  1  0
  1 22  1  0
  1 23  1  0
  3 24  1  0
  4 25  1  0
 11 26  1  0
 13 27  1  0
 16 28  1  0
 20 29  1  0
 21 30  1  0
M  END
>  <smiles>  (28) 
Nc1ccc(S(=O)(=O)N=c2cc(C(F)F)[nH]c(Br)n2)cc1

>  <score_type>  (28) 
oracle

>  <origin>  (28) 
adg

>  <m_score__min__energy>  (28) 
-7.0999999999999996

>  <m_primary>  (28) 
energy

$$$$
28:0
     RDKit          3D

 25 26  0  0  0  0  0  0  0  0999 V2000
   58.0820   31.1650   42.9950 N   0  0  0  0  0  0  0  0  0  0  0  0
   57.3970   30.7360   44.5230 S   0  0  0  0  0  0  0  0  0  0  0  0
   58.0010   31.5890   45.6020 O   0  0  0  0  0  0  0  0  0  0  0  0
   55.9140   30.9800   44.4910 O   0  0  0  0  0  0  0  0  0  0  0  0
   57.7180   29.0370   44.8580 C   0  0  0  0  0  0  0  0  0  0  0  0
   58.9770   28.4940   44.5960 C   0  0  0  0  0  0  0  0  0  0  0  0
   59.2360   27.1540   44.8790 C   0  0  0  0  0  0  0  0  0  0  0  0
   58.2420   26.3350   45.4320 C   0  0  0  0  0  0  0  0  0  0  0  0
   58.6940   24.6370   45.8210 S   0  0  0  0  0  0  0  0  0  0  0  0
   57.5060   23.9650   44.6640 C   0  0  0  0  0  0  0  0  0  0  0  0
   57.2280   24.5250   43.4730 N   0  0  0  0  0  0  0  0  0  0  0  0
   56.3050   23.6750   42.9810 C   0  0  0  0  0  0  0  0  0  0  0  0
   56.0410   22.6620   43.8250 N   0  0  0  0  0  0  0  0  0  0  0  0
   56.8000   22.8450   44.8920 N   0  0  0  0  0  0  0  0  0  0  0  0
   56.9530   26.8710   45.6950 C   0  0  0  0  0  0  0  0  0  0  0  0
   55.8400   26.0660   46.2630 C   0  0  0  0  0  0  0  0  0  0  0  0
   54.6410   26.3150   45.9760 O   0  0  0  0  0  0  0  0  0  0  0  0
   56.1120   25.0360   47.1560 O   0  0  0  0  0  0  0  0  0  0  0  0
   56.7160   28.2300   45.4110 C   0  0  0  0  0  0  0  0  0  0  0  0
   59.1150   31.0190   43.0720 H   0  0  0  0  0  0  0  0  0  0  0  0
   57.7320   30.4710   42.2980 H   0  0  0  0  0  0  0  0  0  0  0  0
   59.7674   29.1258   44.1647 H   0  0  0  0  0  0  0  0  0  0  0  0
   60.2306   26.7350   44.6662 H   0  0  0  0  0  0  0  0  0  0  0  0
   55.8223   23.7962   42.0000 H   0  0  0  0  0  0  0  0  0  0  0  0
   55.7286   28.6642   45.6269 H   0  0  0  0  0  0  0  0  0  0  0  0
  1  2  1  0
  2  3  2  0
  2  4  2  0
  2  5  1  0
  5  6  2  0
  6  7  1  0
  7  8  2  0
  8  9  1  0
  9 10  1  0
 10 11  1  0
 11 12  2  0
 12 13  1  0
 13 14  1  0
  8 15  1  0
 15 16  1  0
 16 17  2  0
 16 18  1  0
 15 19  2  0
 19  5  1  0
 14 10  2  0
  1 20  1  0
  1 21  1  0
  6 22  1  0
  7 23  1  0
 12 24  1  0
 19 25  1  0
M  CHG  2  13  -1  18  -1
M  END
>  <UniqueID>  (29) 
27

>  <SMILES>  (29) 
NS(=O)(=O)c1ccc(Sc2nc[n-]n2)c(C(=O)[O-])c1

>  <Energy>  (29) 
56.35662836098419

>  <Genealogy>  (29) 
NS(=O)(=O)c1ccc(Sc2nc[n-]n2)c(C(=O)[O-])c1 (protonated)
NS(=O)(=O)c1ccc(Sc2nc[n-]n2)c(C(=O)[O-])c1 (3D coordinates assigned)
NS(=O)(=O)c1ccc(Sc2nc[n-]n2)c(C(=O)[O-])c1 (optimized conformer: 56.35662836098419 kcal/mol)

>  <smiles>  (29) 
NS(=O)(=O)c1ccc(Sc2nc[nH]n2)c(C(=O)O)c1

>  <score_type>  (29) 
oracle

>  <origin>  (29) 
adg

>  <m_score__min__energy>  (29) 
-10.82

>  <m_primary>  (29) 
energy

$$$$
29:0
     RDKit          3D

 27 27  0  0  0  0  0  0  0  0999 V2000
   50.6300   32.3410   49.4090 O   0  0  0  0  0  0  0  0  0  0  0  0
   51.1430   31.9670   50.4960 C   0  0  0  0  0  0  0  0  0  0  0  0
   51.0270   32.7680   51.6240 O   0  0  0  0  0  0  0  0  0  0  0  0
   51.9060   30.6800   50.5670 C   0  0  0  0  0  0  0  0  0  0  0  0
   52.2740   30.3240   52.0100 C   0  0  0  0  0  0  0  0  0  0  0  0
   53.5230   29.5660   52.0520 N   0  0  0  0  0  0  0  0  0  0  0  0
   54.5170   29.7640   53.0690 C   0  0  0  0  0  0  0  0  0  0  0  0
   54.2630   30.4680   54.0830 O   0  0  0  0  0  0  0  0  0  0  0  0
   55.8880   29.1850   52.8980 C   0  0  0  0  0  0  0  0  0  0  0  0
   56.8250   30.2420   52.3820 C   0  0  0  0  0  0  0  0  0  0  0  0
   56.5170   31.6030   52.5500 C   0  0  0  0  0  0  0  0  0  0  0  0
   57.3610   32.5850   52.0250 C   0  0  0  0  0  0  0  0  0  0  0  0
   58.5120   32.2180   51.3200 C   0  0  0  0  0  0  0  0  0  0  0  0
   59.5660   33.4530   50.6570 Cl  0  0  0  0  0  0  0  0  0  0  0  0
   58.8190   30.8660   51.1410 C   0  0  0  0  0  0  0  0  0  0  0  0
   57.9770   29.8800   51.6650 C   0  0  0  0  0  0  0  0  0  0  0  0
   51.2867   29.8738   50.1469 H   0  0  0  0  0  0  0  0  0  0  0  0
   52.8368   30.7988   49.9930 H   0  0  0  0  0  0  0  0  0  0  0  0
   52.3939   31.2502   52.5912 H   0  0  0  0  0  0  0  0  0  0  0  0
   51.4706   29.7064   52.4381 H   0  0  0  0  0  0  0  0  0  0  0  0
   53.7610   28.9710   51.2270 H   0  0  0  0  0  0  0  0  0  0  0  0
   56.2523   28.8156   53.8680 H   0  0  0  0  0  0  0  0  0  0  0  0
   55.8449   28.3542   52.1783 H   0  0  0  0  0  0  0  0  0  0  0  0
   55.6085   31.8960   53.0966 H   0  0  0  0  0  0  0  0  0  0  0  0
   57.1198   33.6489   52.1664 H   0  0  0  0  0  0  0  0  0  0  0  0
   59.7244   30.5772   50.5870 H   0  0  0  0  0  0  0  0  0  0  0  0
   58.2179   28.8172   51.5150 H   0  0  0  0  0  0  0  0  0  0  0  0
  1  2  2  0
  2  3  1  0
  2  4  1  0
  4  5  1  0
  5  6  1  0
  6  7  1  0
  7  8  2  0
  7  9  1  0
  9 10  1  0
 10 11  2  0
 11 12  1  0
 12 13  2  0
 13 14  1  0
 13 15  1  0
 15 16  2  0
 16 10  1  0
  4 17  1  0
  4 18  1  0
  5 19  1  0
  5 20  1  0
  6 21  1  0
  9 22  1  0
  9 23  1  0
 11 24  1  0
 12 25  1  0
 15 26  1  0
 16 27  1  0
M  CHG  1   3  -1
M  END
>  <UniqueID>  (30) 
28

>  <SMILES>  (30) 
O=C([O-])CCNC(=O)Cc1ccc(Cl)cc1

>  <Energy>  (30) 
17.154677466394716

>  <Genealogy>  (30) 
O=C([O-])CCNC(=O)Cc1ccc(Cl)cc1 (protonated)
O=C([O-])CCNC(=O)Cc1ccc(Cl)cc1 (3D coordinates assigned)
O=C([O-])CCNC(=O)Cc1ccc(Cl)cc1 (optimized conformer: 17.154677466394716 kcal/mol)

>  <smiles>  (30) 
O=C(O)CCNC(=O)Cc1ccc(Cl)cc1

>  <score_type>  (30) 
oracle

>  <origin>  (30) 
adg

>  <m_score__min__energy>  (30) 
-10.02

>  <m_primary>  (30) 
energy

$$$$
30:0
     RDKit          3D

 31 32  0  0  0  0  0  0  0  0999 V2000
   54.4820   24.9910   45.6020 C   0  0  0  0  0  0  0  0  0  0  0  0
   55.1590   26.1770   46.0010 O   0  0  0  0  0  0  0  0  0  0  0  0
   56.5030   26.1860   46.3880 C   0  0  0  0  0  0  0  0  0  0  0  0
   56.9340   25.3140   47.1940 O   0  0  0  0  0  0  0  0  0  0  0  0
   57.4150   27.2190   45.8500 C   0  0  0  0  0  0  0  0  0  0  0  0
   58.8050   27.0100   45.8440 C   0  0  0  0  0  0  0  0  0  0  0  0
   59.6490   28.0010   45.3390 C   0  0  0  0  0  0  0  0  0  0  0  0
   60.8970   27.8240   45.3340 O   0  0  0  0  0  0  0  0  0  0  0  0
   59.1090   29.1860   44.8430 C   0  0  0  0  0  0  0  0  0  0  0  0
   57.7210   29.3650   44.8520 C   0  0  0  0  0  0  0  0  0  0  0  0
   57.0240   30.8660   44.2530 S   0  0  0  0  0  0  0  0  0  0  0  0
   55.5390   30.8650   44.4910 O   0  0  0  0  0  0  0  0  0  0  0  0
   57.2600   30.9910   42.7730 O   0  0  0  0  0  0  0  0  0  0  0  0
   57.7660   32.2190   45.0970 C   0  0  0  0  0  0  0  0  0  0  0  0
   57.9450   33.4460   44.4410 C   0  0  0  0  0  0  0  0  0  0  0  0
   58.5170   34.5270   45.1180 C   0  0  0  0  0  0  0  0  0  0  0  0
   58.9080   34.3890   46.4530 C   0  0  0  0  0  0  0  0  0  0  0  0
   58.7240   33.1710   47.1130 C   0  0  0  0  0  0  0  0  0  0  0  0
   58.1510   32.0880   46.4380 C   0  0  0  0  0  0  0  0  0  0  0  0
   56.9120   28.3910   45.3570 N   0  0  0  0  0  0  0  0  0  0  0  0
   54.1633   24.4327   46.4946 H   0  0  0  0  0  0  0  0  0  0  0  0
   53.5996   25.2569   45.0014 H   0  0  0  0  0  0  0  0  0  0  0  0
   55.1596   24.3664   45.0014 H   0  0  0  0  0  0  0  0  0  0  0  0
   59.2252   26.0715   46.2347 H   0  0  0  0  0  0  0  0  0  0  0  0
   59.7676   29.9735   44.4480 H   0  0  0  0  0  0  0  0  0  0  0  0
   57.6346   33.5577   43.3916 H   0  0  0  0  0  0  0  0  0  0  0  0
   58.6595   35.4868   44.5999 H   0  0  0  0  0  0  0  0  0  0  0  0
   59.3606   35.2393   46.9841 H   0  0  0  0  0  0  0  0  0  0  0  0
   59.0300   33.0638   48.1641 H   0  0  0  0  0  0  0  0  0  0  0  0
   58.0024   31.1317   46.9609 H   0  0  0  0  0  0  0  0  0  0  0  0
   55.8800   28.5550   45.3680 H   0  0  0  0  0  0  0  0  0  0  0  0
  1  2  1  0
  2  3  1  0
  3  4  2  0
  3  5  1  0
  5  6  2  0
  6  7  1  0
  7  8  2  0
  7  9  1  0
  9 10  2  0
 10 11  1  0
 11 12  2  0
 11 13  2  0
 11 14  1  0
 14 15  2  0
 15 16  1  0
 16 17  2  0
 17 18  1  0
 18 19  2  0
 10 20  1  0
 20  5  1  0
 19 14  1  0
  1 21  1  0
  1 22  1  0
  1 23  1  0
  6 24  1  0
  9 25  1  0
 15 26  1  0
 16 27  1  0
 17 28  1  0
 18 29  1  0
 19 30  1  0
 20 31  1  0
M  END
>  <UniqueID>  (31) 
29

>  <SMILES>  (31) 
COC(=O)c1cc(=O)cc(S(=O)(=O)c2ccccc2)[nH]1

>  <Energy>  (31) 
32.14326177054429

>  <Genealogy>  (31) 
COC(=O)c1cc(=O)cc(S(=O)(=O)c2ccccc2)[nH]1 (3D coordinates assigned)
COC(=O)c1cc(=O)cc(S(=O)(=O)c2ccccc2)[nH]1 (optimized conformer: 32.14326177054429 kcal/mol)

>  <smiles>  (31) 
COC(=O)c1cc(=O)cc(S(=O)(=O)c2ccccc2)[nH]1

>  <score_type>  (31) 
oracle

>  <origin>  (31) 
adg

>  <m_score__min__energy>  (31) 
-7.8700000000000001

>  <m_primary>  (31) 
energy

$$$$
31:0
     RDKit          3D

 39 41  0  0  0  0  0  0  0  0999 V2000
   55.2521   29.4039   43.4567 H   0  0  0  0  0  0  0  0  0  0  0  0
   56.1990   29.7180   43.9200 C   0  0  0  0  0  0  0  0  0  0  0  0
   56.2620   30.8880   44.6100 N   0  0  0  0  0  0  0  0  0  0  0  0
   57.4100   31.3270   45.1950 C   0  0  0  0  0  0  0  0  0  0  0  0
   57.3790   32.4550   45.8500 N   0  0  0  0  0  0  0  0  0  0  0  0
   58.4220   33.0270   46.6540 C   0  0  0  0  0  0  0  0  0  0  0  0
   59.1430   34.1520   46.2200 C   0  0  0  0  0  0  0  0  0  0  0  0
   58.9384   34.5851   45.2298 H   0  0  0  0  0  0  0  0  0  0  0  0
   60.1190   34.7230   47.0410 C   0  0  0  0  0  0  0  0  0  0  0  0
   60.6875   35.5960   46.6878 H   0  0  0  0  0  0  0  0  0  0  0  0
   60.3780   34.1920   48.3090 C   0  0  0  0  0  0  0  0  0  0  0  0
   61.3780   34.7870   49.0950 O   0  0  0  0  0  0  0  0  0  0  0  0
   62.5760   34.1600   49.4580 C   0  0  0  0  0  0  0  0  0  0  0  0
   63.2940   33.3440   48.5510 C   0  0  0  0  0  0  0  0  0  0  0  0
   62.8890   33.1920   47.1340 C   0  0  0  0  0  0  0  0  0  0  0  0
   63.3140   33.9970   46.2600 O   0  0  0  0  0  0  0  0  0  0  0  0
   62.0310   32.1140   46.7460 N   0  0  0  0  0  0  0  0  0  0  0  0
   61.8430   30.9250   47.5630 C   0  0  0  0  0  0  0  0  0  0  0  0
   61.8866   31.2006   48.6270 H   0  0  0  0  0  0  0  0  0  0  0  0
   60.8630   30.4780   47.3399 H   0  0  0  0  0  0  0  0  0  0  0  0
   62.6373   30.1974   47.3399 H   0  0  0  0  0  0  0  0  0  0  0  0
   64.4490   32.6910   49.0120 C   0  0  0  0  0  0  0  0  0  0  0  0
   65.0083   32.0265   48.3370 H   0  0  0  0  0  0  0  0  0  0  0  0
   64.8900   32.8810   50.3210 C   0  0  0  0  0  0  0  0  0  0  0  0
   66.3400   32.0760   50.8930 Cl  0  0  0  0  0  0  0  0  0  0  0  0
   64.1760   33.7280   51.1660 C   0  0  0  0  0  0  0  0  0  0  0  0
   64.5243   33.8958   52.1958 H   0  0  0  0  0  0  0  0  0  0  0  0
   63.0500   34.3480   50.7220 N   0  0  0  0  0  0  0  0  0  0  0  0
   62.5230   34.9660   51.3780 H   0  0  0  0  0  0  0  0  0  0  0  0
   59.6220   33.0950   48.7630 C   0  0  0  0  0  0  0  0  0  0  0  0
   59.8002   32.6852   49.7681 H   0  0  0  0  0  0  0  0  0  0  0  0
   58.6450   32.5240   47.9410 C   0  0  0  0  0  0  0  0  0  0  0  0
   58.0489   31.6754   48.3078 H   0  0  0  0  0  0  0  0  0  0  0  0
   58.5700   30.5280   45.1070 C   0  0  0  0  0  0  0  0  0  0  0  0
   59.5036   30.8508   45.5909 H   0  0  0  0  0  0  0  0  0  0  0  0
   58.5230   29.3250   44.4010 C   0  0  0  0  0  0  0  0  0  0  0  0
   59.4242   28.6995   44.3193 H   0  0  0  0  0  0  0  0  0  0  0  0
   57.3330   28.9160   43.7990 C   0  0  0  0  0  0  0  0  0  0  0  0
   57.2898   27.9722   43.2357 H   0  0  0  0  0  0  0  0  0  0  0  0
  1  2  1  0
  2  3  1  0
  3  4  1  0
  4  5  2  0
  5  6  1  0
  6  7  2  0
  7  8  1  0
  7  9  1  0
  9 10  1  0
  9 11  2  0
 11 12  1  0
 12 13  1  0
 13 14  2  0
 14 15  1  0
 15 16  2  0
 15 17  1  0
 17 18  1  0
 18 19  1  0
 18 20  1  0
 18 21  1  0
 14 22  1  0
 22 23  1  0
 22 24  2  0
 24 25  1  0
 24 26  1  0
 26 27  1  0
 26 28  2  0
 28 29  1  0
 11 30  1  0
 30 31  1  0
 30 32  2  0
 32 33  1  0
  4 34  1  0
 34 35  1  0
 34 36  2  0
 36 37  1  0
 36 38  1  0
 38 39  1  0
 38  2  2  0
 32  6  1  0
 28 13  1  0
M  CHG  3   3  -1  17  -1  28   1
M  END
>  <UniqueID>  (32) 
30

>  <SMILES>  (32) 
C[N-]C(=O)c1cc(Cl)c[nH+]c1Oc1ccc(/N=c2\cccc[n-]2)cc1

>  <Energy>  (32) 
60.25316291654946

>  <Genealogy>  (32) 
C[N-]C(=O)c1cc(Cl)c[nH+]c1Oc1ccc(N=c2cccc[n-]2)cc1 (protonated)
C[N-]C(=O)c1cc(Cl)c[nH+]c1Oc1ccc(/N=c2\cccc[n-]2)cc1 (cis-trans isomerization)
C[N-]C(=O)c1cc(Cl)c[nH+]c1Oc1ccc(/N=c2\cccc[n-]2)cc1 (3D coordinates assigned)
C[N-]C(=O)c1cc(Cl)c[nH+]c1Oc1ccc(/N=c2\cccc[n-]2)cc1 (optimized conformer: 60.25316291654946 kcal/mol)

>  <smiles>  (32) 
CNC(=O)c1cc(Cl)cnc1Oc1ccc(N=c2cccc[nH]2)cc1

>  <score_type>  (32) 
oracle

>  <origin>  (32) 
adg

>  <m_score__min__energy>  (32) 
-8.6099999999999994

>  <m_primary>  (32) 
energy

$$$$
32:0
     RDKit          3D

 41 43  0  0  0  0  0  0  0  0999 V2000
   56.3940   29.6600   42.7630 O   0  0  0  0  0  0  0  0  0  0  0  0
   56.4360   29.8510   44.2550 S   0  0  0  0  0  0  0  0  0  0  0  0
   55.1450   29.3390   44.8280 O   0  0  0  0  0  0  0  0  0  0  0  0
   56.5900   31.5410   44.6280 N   0  0  0  0  0  0  0  0  0  0  0  0
   57.7510   32.1010   43.9370 C   0  0  0  0  0  0  0  0  0  0  0  0
   58.5200   32.9860   44.8780 C   0  0  0  0  0  0  0  0  0  0  0  0
   58.5930   34.3690   44.6470 C   0  0  0  0  0  0  0  0  0  0  0  0
   59.2700   35.1960   45.5450 C   0  0  0  0  0  0  0  0  0  0  0  0
   59.8750   34.6530   46.6820 C   0  0  0  0  0  0  0  0  0  0  0  0
   59.8120   33.2700   46.9240 C   0  0  0  0  0  0  0  0  0  0  0  0
   60.3850   32.6900   48.0660 O   0  0  0  0  0  0  0  0  0  0  0  0
   61.7030   32.8870   48.5040 C   0  0  0  0  0  0  0  0  0  0  0  0
   61.9310   33.1280   49.8650 C   0  0  0  0  0  0  0  0  0  0  0  0
   63.2330   33.3140   50.3410 C   0  0  0  0  0  0  0  0  0  0  0  0
   64.3160   33.2460   49.4620 C   0  0  0  0  0  0  0  0  0  0  0  0
   64.1010   32.9860   48.1060 C   0  0  0  0  0  0  0  0  0  0  0  0
   62.8010   32.8000   47.6260 C   0  0  0  0  0  0  0  0  0  0  0  0
   59.1150   32.4480   46.0300 C   0  0  0  0  0  0  0  0  0  0  0  0
   57.7780   28.9390   44.9550 C   0  0  0  0  0  0  0  0  0  0  0  0
   59.0950   29.3430   44.6920 C   0  0  0  0  0  0  0  0  0  0  0  0
   60.1720   28.6260   45.2210 C   0  0  0  0  0  0  0  0  0  0  0  0
   59.9390   27.4990   46.0130 C   0  0  0  0  0  0  0  0  0  0  0  0
   58.6300   27.0840   46.2730 C   0  0  0  0  0  0  0  0  0  0  0  0
   58.4110   25.9830   47.0350 F   0  0  0  0  0  0  0  0  0  0  0  0
   57.5480   27.7980   45.7450 C   0  0  0  0  0  0  0  0  0  0  0  0
   56.2860   27.3670   45.9940 F   0  0  0  0  0  0  0  0  0  0  0  0
   56.7590   31.6070   45.6590 H   0  0  0  0  0  0  0  0  0  0  0  0
   58.4003   31.2834   43.5906 H   0  0  0  0  0  0  0  0  0  0  0  0
   57.4119   32.6929   43.0741 H   0  0  0  0  0  0  0  0  0  0  0  0
   58.1153   34.8021   43.7558 H   0  0  0  0  0  0  0  0  0  0  0  0
   59.3275   36.2783   45.3572 H   0  0  0  0  0  0  0  0  0  0  0  0
   60.4020   35.3101   47.3895 H   0  0  0  0  0  0  0  0  0  0  0  0
   61.0818   33.1712   50.5629 H   0  0  0  0  0  0  0  0  0  0  0  0
   63.4041   33.5141   51.4090 H   0  0  0  0  0  0  0  0  0  0  0  0
   65.3389   33.3972   49.8373 H   0  0  0  0  0  0  0  0  0  0  0  0
   64.9553   32.9276   47.4155 H   0  0  0  0  0  0  0  0  0  0  0  0
   62.6353   32.5852   46.5600 H   0  0  0  0  0  0  0  0  0  0  0  0
   59.0329   31.3699   46.2324 H   0  0  0  0  0  0  0  0  0  0  0  0
   59.2813   30.2284   44.0664 H   0  0  0  0  0  0  0  0  0  0  0  0
   61.2028   28.9491   45.0137 H   0  0  0  0  0  0  0  0  0  0  0  0
   60.7868   26.9376   46.4325 H   0  0  0  0  0  0  0  0  0  0  0  0
  1  2  2  0
  2  3  2  0
  2  4  1  0
  4  5  1  0
  5  6  1  0
  6  7  2  0
  7  8  1  0
  8  9  2  0
  9 10  1  0
 10 11  1  0
 11 12  1  0
 12 13  2  0
 13 14  1  0
 14 15  2  0
 15 16  1  0
 16 17  2  0
 10 18  2  0
  2 19  1  0
 19 20  2  0
 20 21  1  0
 21 22  2  0
 22 23  1  0
 23 24  1  0
 23 25  2  0
 25 26  1  0
 18  6  1  0
 25 19  1  0
 17 12  1  0
  4 27  1  0
  5 28  1  0
  5 29  1  0
  7 30  1  0
  8 31  1  0
  9 32  1  0
 13 33  1  0
 14 34  1  0
 15 35  1  0
 16 36  1  0
 17 37  1  0
 18 38  1  0
 20 39  1  0
 21 40  1  0
 22 41  1  0
M  END
>  <UniqueID>  (33) 
31

>  <SMILES>  (33) 
O=S(=O)(NCc1cccc(Oc2ccccc2)c1)c1cccc(F)c1F

>  <Energy>  (33) 
48.07027903232815

>  <Genealogy>  (33) 
O=S(=O)(NCc1cccc(Oc2ccccc2)c1)c1cccc(F)c1F (3D coordinates assigned)
O=S(=O)(NCc1cccc(Oc2ccccc2)c1)c1cccc(F)c1F (optimized conformer: 48.07027903232815 kcal/mol)

>  <smiles>  (33) 
O=S(=O)(NCc1cccc(Oc2ccccc2)c1)c1cccc(F)c1F

>  <score_type>  (33) 
oracle

>  <origin>  (33) 
adg

>  <m_score__min__energy>  (33) 
-9.1199999999999992

>  <m_primary>  (33) 
energy

$$$$
33:0
     RDKit          3D

 72 76  0  0  1  0  0  0  0  0999 V2000
   63.8790   30.3920   51.5760 C   0  0  0  0  0  0  0  0  0  0  0  0
   64.7820   29.5710   52.4900 C   0  0  0  0  0  0  0  0  0  0  0  0
   65.1120   28.2870   51.9890 N   0  0  0  0  0  0  0  0  0  0  0  0
   66.4770   28.0250   51.6950 C   0  0  0  0  0  0  0  0  0  0  0  0
   66.7640   26.9380   50.7200 C   0  0  0  0  0  0  0  0  0  0  0  0
   64.6550   27.2640   52.8960 C   0  0  0  0  0  0  0  0  0  0  0  0
   63.3300   26.6640   52.5830 C   0  0  0  0  0  0  0  0  0  0  0  0
   62.6500   27.5440   51.6140 N   0  0  0  0  0  0  0  0  0  0  0  0
   61.2590   27.4410   51.3630 C   0  0  0  0  0  0  0  0  0  0  0  0
   60.5820   26.5790   51.9790 O   0  0  0  0  0  0  0  0  0  0  0  0
   60.5610   28.2960   50.4120 C   0  0  0  0  0  0  0  0  0  0  0  0
   60.7230   28.0520   49.0620 C   0  0  0  0  0  0  0  0  0  0  0  0
   60.0720   28.8430   48.1100 C   0  0  0  0  0  0  0  0  0  0  0  0
   59.2570   29.8830   48.4940 C   0  0  0  0  0  0  0  0  0  0  0  0
   58.5720   30.7220   47.5520 N   0  0  0  0  0  0  0  0  0  0  0  0
   59.1720   31.7590   47.0680 C   0  0  0  0  0  0  0  0  0  0  0  0
   58.4310   32.5720   46.2900 N   0  0  0  0  0  0  0  0  0  0  0  0
   58.9400   33.6840   45.7330 C   0  0  0  0  0  0  0  0  0  0  0  0
   58.1070   34.5590   44.8830 C   0  0  0  0  0  0  0  0  0  0  0  0
   60.2520   34.0210   45.9480 C   0  0  0  0  0  0  0  0  0  0  0  0
   61.0090   33.1650   46.7580 C   0  0  0  0  0  0  0  0  0  0  0  0
   62.3580   33.5470   46.9660 N   0  0  0  0  0  0  0  0  0  0  0  0
   62.9440   33.5810   48.1120 C   0  0  0  0  0  0  0  0  0  0  0  0
   62.3130   34.2050   49.1670 C   0  0  0  0  0  0  0  0  0  0  0  0
   62.8750   34.2740   50.4290 C   0  0  0  0  0  0  0  0  0  0  0  0
   64.1130   33.6810   50.5840 C   0  0  0  0  0  0  0  0  0  0  0  0
   64.6790   33.7460   51.8500 C   0  0  0  0  0  0  0  0  0  0  0  0
   65.9030   33.1670   52.0430 C   0  0  0  0  0  0  0  0  0  0  0  0
   66.5750   32.5230   50.9890 C   0  0  0  0  0  0  0  0  0  0  0  0
   66.0100   32.4630   49.7400 C   0  0  0  0  0  0  0  0  0  0  0  0
   64.7590   33.0490   49.5260 C   0  0  0  0  0  0  0  0  0  0  0  0
   64.1530   33.0200   48.3240 N   0  0  0  0  0  0  0  0  0  0  0  0
   67.8000   31.9870   51.3300 O   0  0  0  0  0  0  0  0  0  0  0  0
   67.9470   31.2990   52.5390 C   0  0  0  0  0  0  0  0  0  0  0  0
   67.2800   32.0050   53.6550 C   0  0  0  0  0  0  0  0  0  0  0  0
   66.5930   33.1500   53.2470 O   0  0  0  0  0  0  0  0  0  0  0  0
   60.4510   32.0630   47.2930 N   0  0  0  0  0  0  0  0  0  0  0  0
   59.0850   30.1410   49.8500 C   0  0  0  0  0  0  0  0  0  0  0  0
   59.7450   29.3370   50.7680 C   0  0  0  0  0  0  0  0  0  0  0  0
   63.2019   31.0076   52.1863 H   0  0  0  0  0  0  0  0  0  0  0  0
   64.4960   31.0449   50.9412 H   0  0  0  0  0  0  0  0  0  0  0  0
   63.2876   29.7158   50.9412 H   0  0  0  0  0  0  0  0  0  0  0  0
   65.7164   30.1308   52.6433 H   0  0  0  0  0  0  0  0  0  0  0  0
   64.2206   29.4090   53.4220 H   0  0  0  0  0  0  0  0  0  0  0  0
   66.9138   28.9522   51.2956 H   0  0  0  0  0  0  0  0  0  0  0  0
   66.9109   27.6776   52.6442 H   0  0  0  0  0  0  0  0  0  0  0  0
   67.0082   26.0132   51.2633 H   0  0  0  0  0  0  0  0  0  0  0  0
   65.8796   26.7694   50.0880 H   0  0  0  0  0  0  0  0  0  0  0  0
   67.6164   27.2279   50.0880 H   0  0  0  0  0  0  0  0  0  0  0  0
   65.4003   26.4549   52.8949 H   0  0  0  0  0  0  0  0  0  0  0  0
   64.5345   27.7612   53.8698 H   0  0  0  0  0  0  0  0  0  0  0  0
   63.4667   25.6634   52.1470 H   0  0  0  0  0  0  0  0  0  0  0  0
   62.7284   26.5660   53.4987 H   0  0  0  0  0  0  0  0  0  0  0  0
   63.1770   28.2600   51.0920 H   0  0  0  0  0  0  0  0  0  0  0  0
   61.3711   27.2266   48.7322 H   0  0  0  0  0  0  0  0  0  0  0  0
   60.2134   28.6309   47.0399 H   0  0  0  0  0  0  0  0  0  0  0  0
   57.4888   35.2084   45.5202 H   0  0  0  0  0  0  0  0  0  0  0  0
   58.7565   35.1794   44.2479 H   0  0  0  0  0  0  0  0  0  0  0  0
   57.4555   33.9408   44.2479 H   0  0  0  0  0  0  0  0  0  0  0  0
   60.6914   34.9258   45.5029 H   0  0  0  0  0  0  0  0  0  0  0  0
   61.3277   34.6643   48.9992 H   0  0  0  0  0  0  0  0  0  0  0  0
   62.3635   34.7743   51.2645 H   0  0  0  0  0  0  0  0  0  0  0  0
   64.1566   34.2501   52.6764 H   0  0  0  0  0  0  0  0  0  0  0  0
   66.5360   31.9591   48.9157 H   0  0  0  0  0  0  0  0  0  0  0  0
   64.6350   32.5500   47.5370 H   0  0  0  0  0  0  0  0  0  0  0  0
   67.5041   30.2974   52.4353 H   0  0  0  0  0  0  0  0  0  0  0  0
   69.0209   31.2334   52.7678 H   0  0  0  0  0  0  0  0  0  0  0  0
   66.5634   31.3163   54.1263 H   0  0  0  0  0  0  0  0  0  0  0  0
   68.0650   32.3260   54.3555 H   0  0  0  0  0  0  0  0  0  0  0  0
   61.0290   31.4390   47.8920 H   0  0  0  0  0  0  0  0  0  0  0  0
   58.4393   30.9652   50.1874 H   0  0  0  0  0  0  0  0  0  0  0  0
   59.6056   29.5467   51.8388 H   0  0  0  0  0  0  0  0  0  0  0  0
  1  2  1  0
  2  3  1  0
  3  4  1  0
  4  5  1  0
  3  6  1  0
  6  7  1  0
  7  8  1  0
  8  9  1  0
  9 10  2  0
  9 11  1  0
 11 12  2  0
 12 13  1  0
 13 14  2  0
 14 15  1  0
 15 16  2  0
 16 17  1  0
 17 18  2  0
 18 19  1  0
 18 20  1  0
 20 21  2  0
 21 22  1  0
 22 23  2  0
 23 24  1  0
 24 25  2  0
 25 26  1  0
 26 27  2  0
 27 28  1  0
 28 29  2  0
 29 30  1  0
 30 31  2  0
 31 32  1  0
 29 33  1  0
 33 34  1  0
 34 35  1  0
 35 36  1  0
 21 37  1  0
 14 38  1  0
 38 39  2  0
 39 11  1  0
 37 16  1  0
 32 23  1  0
 31 26  1  0
 36 28  1  0
  1 40  1  0
  1 41  1  0
  1 42  1  0
  2 43  1  0
  2 44  1  0
  4 45  1  0
  4 46  1  0
  5 47  1  0
  5 48  1  0
  5 49  1  0
  6 50  1  0
  6 51  1  0
  7 52  1  0
  7 53  1  0
  8 54  1  0
 12 55  1  0
 13 56  1  0
 19 57  1  0
 19 58  1  0
 19 59  1  0
 20 60  1  0
 24 61  1  0
 25 62  1  0
 27 63  1  0
 30 64  1  0
 32 65  1  0
 34 66  1  0
 34 67  1  0
 35 68  1  0
 35 69  1  0
 37 70  1  0
 38 71  1  0
 39 72  1  0
M  END
>  <smiles>  (34) 
CCN(CC)CCNC(=O)c1ccc(N=c2nc(C)cc(N=c3ccc4cc5c(cc4[nH]3)OCCO5)[nH]2)cc1

>  <score_type>  (34) 
oracle

>  <origin>  (34) 
adg

>  <m_score__min__energy>  (34) 
-9.6300000000000008

>  <m_primary>  (34) 
energy

$$$$
34:0
     RDKit          3D

 48 51  0  0  0  0  0  0  0  0999 V2000
   60.2050   29.1810   51.4230 C   0  0  0  0  0  0  0  0  0  0  0  0
   60.4870   29.5940   50.0560 N   0  0  0  0  0  0  0  0  0  0  0  0
   61.3900   30.5190   49.6850 C   0  0  0  0  0  0  0  0  0  0  0  0
   61.4080   30.5750   48.3070 C   0  0  0  0  0  0  0  0  0  0  0  0
   62.2540   31.4840   47.4680 C   0  0  0  0  0  0  0  0  0  0  0  0
   62.0470   33.2280   47.9820 S   0  0  0  0  0  0  0  0  0  0  0  0
   61.4580   33.8750   46.3750 C   0  0  0  0  0  0  0  0  0  0  0  0
   59.9620   33.7700   46.2670 C   0  0  0  0  0  0  0  0  0  0  0  0
   59.2930   34.3310   45.1650 C   0  0  0  0  0  0  0  0  0  0  0  0
   57.9020   34.2370   45.0630 C   0  0  0  0  0  0  0  0  0  0  0  0
   57.1690   33.5840   46.0570 C   0  0  0  0  0  0  0  0  0  0  0  0
   57.8250   33.0220   47.1550 C   0  0  0  0  0  0  0  0  0  0  0  0
   59.2170   33.1120   47.2610 C   0  0  0  0  0  0  0  0  0  0  0  0
   60.4790   29.6220   47.8990 C   0  0  0  0  0  0  0  0  0  0  0  0
   60.1040   29.2560   46.5170 C   0  0  0  0  0  0  0  0  0  0  0  0
   60.9780   29.2340   45.6110 O   0  0  0  0  0  0  0  0  0  0  0  0
   58.7340   28.9760   46.1810 N   0  0  0  0  0  0  0  0  0  0  0  0
   57.9590   28.0700   47.0390 C   0  0  0  0  0  0  0  0  0  0  0  0
   57.0800   27.1640   46.1730 C   0  0  0  0  0  0  0  0  0  0  0  0
   56.3110   27.9400   45.2540 O   0  0  0  0  0  0  0  0  0  0  0  0
   56.8350   29.0780   44.6320 C   0  0  0  0  0  0  0  0  0  0  0  0
   56.1320   29.6890   43.5890 C   0  0  0  0  0  0  0  0  0  0  0  0
   56.6400   30.8410   42.9830 C   0  0  0  0  0  0  0  0  0  0  0  0
   57.8450   31.3920   43.4260 C   0  0  0  0  0  0  0  0  0  0  0  0
   58.5490   30.7920   44.4740 C   0  0  0  0  0  0  0  0  0  0  0  0
   58.0570   29.6170   45.0760 C   0  0  0  0  0  0  0  0  0  0  0  0
   59.9380   29.0380   48.9880 N   0  0  0  0  0  0  0  0  0  0  0  0
   60.6832   29.8813   52.1237 H   0  0  0  0  0  0  0  0  0  0  0  0
   59.1176   29.1812   51.5892 H   0  0  0  0  0  0  0  0  0  0  0  0
   60.6011   28.1683   51.5892 H   0  0  0  0  0  0  0  0  0  0  0  0
   62.0075   31.1260   50.3634 H   0  0  0  0  0  0  0  0  0  0  0  0
   63.3103   31.1984   47.5804 H   0  0  0  0  0  0  0  0  0  0  0  0
   61.9394   31.3873   46.4184 H   0  0  0  0  0  0  0  0  0  0  0  0
   61.7520   34.9310   46.2829 H   0  0  0  0  0  0  0  0  0  0  0  0
   61.9101   33.2772   45.5698 H   0  0  0  0  0  0  0  0  0  0  0  0
   59.8664   34.8459   44.3800 H   0  0  0  0  0  0  0  0  0  0  0  0
   57.3837   34.6779   44.1987 H   0  0  0  0  0  0  0  0  0  0  0  0
   56.0744   33.5123   45.9751 H   0  0  0  0  0  0  0  0  0  0  0  0
   57.2464   32.5083   47.9369 H   0  0  0  0  0  0  0  0  0  0  0  0
   59.7306   32.6661   48.1255 H   0  0  0  0  0  0  0  0  0  0  0  0
   58.6475   27.4514   47.6334 H   0  0  0  0  0  0  0  0  0  0  0  0
   57.3204   28.6624   47.7108 H   0  0  0  0  0  0  0  0  0  0  0  0
   57.7208   26.4684   45.6112 H   0  0  0  0  0  0  0  0  0  0  0  0
   56.3939   26.6055   46.8267 H   0  0  0  0  0  0  0  0  0  0  0  0
   55.1782   29.2623   43.2453 H   0  0  0  0  0  0  0  0  0  0  0  0
   56.0905   31.3146   42.1561 H   0  0  0  0  0  0  0  0  0  0  0  0
   58.2409   32.3006   42.9487 H   0  0  0  0  0  0  0  0  0  0  0  0
   59.4894   31.2383   44.8296 H   0  0  0  0  0  0  0  0  0  0  0  0
  1  2  1  0
  2  3  1  0
  3  4  2  0
  4  5  1  0
  5  6  1  0
  6  7  1  0
  7  8  1  0
  8  9  2  0
  9 10  1  0
 10 11  2  0
 11 12  1  0
 12 13  2  0
  4 14  1  0
 14 15  1  0
 15 16  2  0
 15 17  1  0
 17 18  1  0
 18 19  1  0
 19 20  1  0
 20 21  1  0
 21 22  2  0
 22 23  1  0
 23 24  2  0
 24 25  1  0
 25 26  2  0
 14 27  2  0
 27  2  1  0
 13  8  1  0
 26 17  1  0
 26 21  1  0
  1 28  1  0
  1 29  1  0
  1 30  1  0
  3 31  1  0
  5 32  1  0
  5 33  1  0
  7 34  1  0
  7 35  1  0
  9 36  1  0
 10 37  1  0
 11 38  1  0
 12 39  1  0
 13 40  1  0
 18 41  1  0
 18 42  1  0
 19 43  1  0
 19 44  1  0
 22 45  1  0
 23 46  1  0
 24 47  1  0
 25 48  1  0
M  END
>  <UniqueID>  (35) 
32

>  <SMILES>  (35) 
Cn1cc(CSCc2ccccc2)c(C(=O)N2CCOc3ccccc32)n1

>  <Energy>  (35) 
82.72540328858081

>  <Genealogy>  (35) 
Cn1cc(CSCc2ccccc2)c(C(=O)N2CCOc3ccccc32)n1 (3D coordinates assigned)
Cn1cc(CSCc2ccccc2)c(C(=O)N2CCOc3ccccc32)n1 (nonaromatic ring conformer: 82.72540328858081 kcal/mol)

>  <smiles>  (35) 
Cn1cc(CSCc2ccccc2)c(C(=O)N2CCOc3ccccc32)n1

>  <score_type>  (35) 
oracle

>  <origin>  (35) 
adg

>  <m_score__min__energy>  (35) 
-9.25

>  <m_primary>  (35) 
energy

$$$$
35:0
     RDKit          3D

 32 34  0  0  0  0  0  0  0  0999 V2000
   59.5600   22.1600   44.7890 C   0  0  0  0  0  0  0  0  0  0  0  0
   59.7860   23.2930   45.6220 O   0  0  0  0  0  0  0  0  0  0  0  0
   58.7750   24.1460   46.0950 C   0  0  0  0  0  0  0  0  0  0  0  0
   58.7980   25.5370   45.8690 C   0  0  0  0  0  0  0  0  0  0  0  0
   57.7760   26.3600   46.3690 C   0  0  0  0  0  0  0  0  0  0  0  0
   57.8130   27.8150   46.0960 C   0  0  0  0  0  0  0  0  0  0  0  0
   58.9080   28.4900   46.4250 O   0  0  0  0  0  0  0  0  0  0  0  0
   59.0590   29.7920   46.2090 C   0  0  0  0  0  0  0  0  0  0  0  0
   60.2460   30.4040   46.6180 C   0  0  0  0  0  0  0  0  0  0  0  0
   60.4370   31.7680   46.4210 C   0  0  0  0  0  0  0  0  0  0  0  0
   59.4570   32.5260   45.7850 C   0  0  0  0  0  0  0  0  0  0  0  0
   58.2700   31.9350   45.3310 C   0  0  0  0  0  0  0  0  0  0  0  0
   57.3920   32.7620   44.6250 O   0  0  0  0  0  0  0  0  0  0  0  0
   58.0360   30.5490   45.5790 C   0  0  0  0  0  0  0  0  0  0  0  0
   56.8310   29.8710   45.2790 C   0  0  0  0  0  0  0  0  0  0  0  0
   55.8270   30.4750   44.8200 O   0  0  0  0  0  0  0  0  0  0  0  0
   56.7230   28.4990   45.5310 C   0  0  0  0  0  0  0  0  0  0  0  0
   55.5280   27.8400   45.2560 O   0  0  0  0  0  0  0  0  0  0  0  0
   56.7080   25.7760   47.0720 C   0  0  0  0  0  0  0  0  0  0  0  0
   56.6820   24.3980   47.2970 C   0  0  0  0  0  0  0  0  0  0  0  0
   57.7110   23.5870   46.8150 C   0  0  0  0  0  0  0  0  0  0  0  0
   57.6720   22.2170   47.0490 O   0  0  0  0  0  0  0  0  0  0  0  0
   59.3832   21.2735   45.4158 H   0  0  0  0  0  0  0  0  0  0  0  0
   58.6804   22.3414   44.1539 H   0  0  0  0  0  0  0  0  0  0  0  0
   60.4419   21.9900   44.1539 H   0  0  0  0  0  0  0  0  0  0  0  0
   59.6244   25.9821   45.2955 H   0  0  0  0  0  0  0  0  0  0  0  0
   61.0336   29.8047   47.0982 H   0  0  0  0  0  0  0  0  0  0  0  0
   61.3636   32.2485   46.7682 H   0  0  0  0  0  0  0  0  0  0  0  0
   59.6169   33.6042   45.6368 H   0  0  0  0  0  0  0  0  0  0  0  0
   56.4830   32.4820   44.2880 H   0  0  0  0  0  0  0  0  0  0  0  0
   55.8889   26.4074   47.4467 H   0  0  0  0  0  0  0  0  0  0  0  0
   55.8475   23.9498   47.8562 H   0  0  0  0  0  0  0  0  0  0  0  0
  1  2  1  0
  2  3  1  0
  3  4  2  0
  4  5  1  0
  5  6  1  0
  6  7  1  0
  7  8  1  0
  8  9  2  0
  9 10  1  0
 10 11  2  0
 11 12  1  0
 12 13  1  0
 12 14  2  0
 14 15  1  0
 15 16  2  0
 15 17  1  0
 17 18  1  0
  5 19  2  0
 19 20  1  0
 20 21  2  0
 21 22  1  0
 21  3  1  0
 17  6  2  0
 14  8  1  0
  1 23  1  0
  1 24  1  0
  1 25  1  0
  4 26  1  0
  9 27  1  0
 10 28  1  0
 11 29  1  0
 13 30  1  0
 19 31  1  0
 20 32  1  0
M  CHG  2  18  -1  22  -1
M  END
>  <UniqueID>  (36) 
33

>  <SMILES>  (36) 
COc1cc(-c2oc3cccc(O)c3c(=O)c2[O-])ccc1[O-]

>  <Energy>  (36) 
51.86064437796267

>  <Genealogy>  (36) 
COc1cc(-c2oc3cccc(O)c3c(=O)c2[O-])ccc1[O-] (protonated)
COc1cc(-c2oc3cccc(O)c3c(=O)c2[O-])ccc1[O-] (3D coordinates assigned)
COc1cc(-c2oc3cccc(O)c3c(=O)c2[O-])ccc1[O-] (optimized conformer: 51.86064437796267 kcal/mol)

>  <smiles>  (36) 
COc1cc(-c2oc3cccc(O)c3c(=O)c2O)ccc1O

>  <score_type>  (36) 
oracle

>  <origin>  (36) 
adg

>  <m_score__min__energy>  (36) 
-10.880000000000001

>  <m_primary>  (36) 
energy

$$$$
36:0
     RDKit          3D

 40 42  0  0  0  0  0  0  0  0999 V2000
   54.6024   30.5087   43.9144 H   0  0  0  0  0  0  0  0  0  0  0  0
   55.5200   30.1140   44.3750 C   0  0  0  0  0  0  0  0  0  0  0  0
   55.5350   28.8540   44.8770 N   0  0  0  0  0  0  0  0  0  0  0  0
   56.6480   28.3240   45.4490 C   0  0  0  0  0  0  0  0  0  0  0  0
   56.6140   27.0150   45.9440 C   0  0  0  0  0  0  0  0  0  0  0  0
   55.6888   26.4246   45.8699 H   0  0  0  0  0  0  0  0  0  0  0  0
   57.7520   26.4560   46.5320 C   0  0  0  0  0  0  0  0  0  0  0  0
   57.7040   24.8160   47.1500 Cl  0  0  0  0  0  0  0  0  0  0  0  0
   58.9290   27.2040   46.6290 C   0  0  0  0  0  0  0  0  0  0  0  0
   59.8227   26.7611   47.0927 H   0  0  0  0  0  0  0  0  0  0  0  0
   58.9750   28.5130   46.1390 C   0  0  0  0  0  0  0  0  0  0  0  0
   59.9048   29.0952   46.2202 H   0  0  0  0  0  0  0  0  0  0  0  0
   57.8350   29.0910   45.5410 C   0  0  0  0  0  0  0  0  0  0  0  0
   57.8380   30.4150   45.0430 C   0  0  0  0  0  0  0  0  0  0  0  0
   58.9320   31.1280   45.1150 N   0  0  0  0  0  0  0  0  0  0  0  0
   59.1650   32.3070   45.8990 C   0  0  0  0  0  0  0  0  0  0  0  0
   58.3030   33.4010   45.7570 C   0  0  0  0  0  0  0  0  0  0  0  0
   57.4343   33.3300   45.0859 H   0  0  0  0  0  0  0  0  0  0  0  0
   58.5410   34.5830   46.4640 C   0  0  0  0  0  0  0  0  0  0  0  0
   57.8491   35.4321   46.3627 H   0  0  0  0  0  0  0  0  0  0  0  0
   59.6560   34.6880   47.2990 C   0  0  0  0  0  0  0  0  0  0  0  0
   59.8361   35.6182   47.8578 H   0  0  0  0  0  0  0  0  0  0  0  0
   60.5480   33.6110   47.4280 C   0  0  0  0  0  0  0  0  0  0  0  0
   61.7750   33.7430   48.2990 C   0  0  0  0  0  0  0  0  0  0  0  0
   61.5751   33.2642   49.2690 H   0  0  0  0  0  0  0  0  0  0  0  0
   61.9912   34.8146   48.4212 H   0  0  0  0  0  0  0  0  0  0  0  0
   62.9620   33.1040   47.6860 N   0  0  0  0  0  0  0  0  0  0  0  0
   62.7250   32.1200   47.4100 H   0  0  0  0  0  0  0  0  0  0  0  0
   64.0990   33.0660   48.6240 C   0  0  0  0  0  0  0  0  0  0  0  0
   63.7224   33.0786   49.6574 H   0  0  0  0  0  0  0  0  0  0  0  0
   64.6814   32.1479   48.4572 H   0  0  0  0  0  0  0  0  0  0  0  0
   64.7414   33.9432   48.4572 H   0  0  0  0  0  0  0  0  0  0  0  0
   63.3490   33.8310   46.4650 C   0  0  0  0  0  0  0  0  0  0  0  0
   63.8493   34.7709   46.7410 H   0  0  0  0  0  0  0  0  0  0  0  0
   64.0362   33.2105   45.8710 H   0  0  0  0  0  0  0  0  0  0  0  0
   62.4505   34.0546   45.8710 H   0  0  0  0  0  0  0  0  0  0  0  0
   60.3060   32.4280   46.7120 C   0  0  0  0  0  0  0  0  0  0  0  0
   61.0141   31.5896   46.7875 H   0  0  0  0  0  0  0  0  0  0  0  0
   56.6630   30.9120   44.4400 C   0  0  0  0  0  0  0  0  0  0  0  0
   56.6480   31.9290   44.0210 H   0  0  0  0  0  0  0  0  0  0  0  0
  1  2  1  0
  2  3  1  0
  3  4  1  0
  4  5  2  0
  5  6  1  0
  5  7  1  0
  7  8  1  0
  7  9  2  0
  9 10  1  0
  9 11  1  0
 11 12  1  0
 11 13  2  0
 13 14  1  0
 14 15  2  0
 15 16  1  0
 16 17  2  0
 17 18  1  0
 17 19  1  0
 19 20  1  0
 19 21  2  0
 21 22  1  0
 21 23  1  0
 23 24  1  0
 24 25  1  0
 24 26  1  0
 24 27  1  0
 27 28  1  0
 27 29  1  0
 29 30  1  0
 29 31  1  0
 29 32  1  0
 27 33  1  0
 33 34  1  0
 33 35  1  0
 33 36  1  0
 23 37  2  0
 37 38  1  0
 14 39  1  0
 39 40  1  0
 39  2  2  0
 13  4  1  0
 37 16  1  0
M  CHG  2   3  -1  27   1
M  END
>  <UniqueID>  (37) 
34

>  <SMILES>  (37) 
C[NH+](C)Cc1cccc(/N=c2\cc[n-]c3cc(Cl)ccc23)c1

>  <Energy>  (37) 
56.715415124600476

>  <Genealogy>  (37) 
C[NH+](C)Cc1cccc(N=c2cc[n-]c3cc(Cl)ccc23)c1 (protonated)
C[NH+](C)Cc1cccc(/N=c2\cc[n-]c3cc(Cl)ccc23)c1 (cis-trans isomerization)
C[NH+](C)Cc1cccc(/N=c2\cc[n-]c3cc(Cl)ccc23)c1 (3D coordinates assigned)
C[NH+](C)Cc1cccc(/N=c2\cc[n-]c3cc(Cl)ccc23)c1 (optimized conformer: 56.715415124600476 kcal/mol)

>  <smiles>  (37) 
CN(C)Cc1cccc(N=c2cc[nH]c3cc(Cl)ccc23)c1

>  <score_type>  (37) 
oracle

>  <origin>  (37) 
adg

>  <m_score__min__energy>  (37) 
-8.5299999999999994

>  <m_primary>  (37) 
energy

$$$$
37:0
     RDKit          3D

 48 49  0  0  0  0  0  0  0  0999 V2000
   65.7070   33.2770   50.5040 C   0  0  0  0  0  0  0  0  0  0  0  0
   65.2150   32.3260   49.5680 O   0  0  0  0  0  0  0  0  0  0  0  0
   64.0730   32.5110   48.7740 C   0  0  0  0  0  0  0  0  0  0  0  0
   64.0270   33.4470   47.7280 C   0  0  0  0  0  0  0  0  0  0  0  0
   62.8680   33.5980   46.9690 C   0  0  0  0  0  0  0  0  0  0  0  0
   61.7310   32.8190   47.2380 C   0  0  0  0  0  0  0  0  0  0  0  0
   60.4980   33.0180   46.3880 C   0  0  0  0  0  0  0  0  0  0  0  0
   59.8160   34.2710   46.7740 N   0  0  0  0  0  0  0  0  0  0  0  0
   59.3190   34.1750   48.1580 C   0  0  0  0  0  0  0  0  0  0  0  0
   58.7110   34.5930   45.8460 C   0  0  0  0  0  0  0  0  0  0  0  0
   57.7690   33.4260   45.7600 C   0  0  0  0  0  0  0  0  0  0  0  0
   56.7330   33.4170   46.4750 O   0  0  0  0  0  0  0  0  0  0  0  0
   57.9450   32.3940   44.7820 N   0  0  0  0  0  0  0  0  0  0  0  0
   57.7390   30.9920   44.9960 C   0  0  0  0  0  0  0  0  0  0  0  0
   58.5000   30.2780   45.9350 C   0  0  0  0  0  0  0  0  0  0  0  0
   58.2280   28.9300   46.1850 C   0  0  0  0  0  0  0  0  0  0  0  0
   57.1820   28.2850   45.5120 C   0  0  0  0  0  0  0  0  0  0  0  0
   56.8270   26.5960   45.8680 S   0  0  0  0  0  0  0  0  0  0  0  0
   55.1190   26.3670   45.9990 N   0  0  0  0  0  0  0  0  0  0  0  0
   57.4700   26.1920   47.1650 O   0  0  0  0  0  0  0  0  0  0  0  0
   57.3680   25.7320   44.7650 O   0  0  0  0  0  0  0  0  0  0  0  0
   56.4090   29.0020   44.5880 C   0  0  0  0  0  0  0  0  0  0  0  0
   56.6830   30.3490   44.3390 C   0  0  0  0  0  0  0  0  0  0  0  0
   61.7730   31.8600   48.2710 C   0  0  0  0  0  0  0  0  0  0  0  0
   60.6430   31.0590   48.5080 O   0  0  0  0  0  0  0  0  0  0  0  0
   60.6610   29.6360   48.5760 C   0  0  0  0  0  0  0  0  0  0  0  0
   62.9460   31.7260   49.0370 C   0  0  0  0  0  0  0  0  0  0  0  0
   65.5202   32.9160   51.5261 H   0  0  0  0  0  0  0  0  0  0  0  0
   66.7884   33.4126   50.3549 H   0  0  0  0  0  0  0  0  0  0  0  0
   65.1930   34.2380   50.3549 H   0  0  0  0  0  0  0  0  0  0  0  0
   64.9103   34.0641   47.5067 H   0  0  0  0  0  0  0  0  0  0  0  0
   62.8436   34.3340   46.1519 H   0  0  0  0  0  0  0  0  0  0  0  0
   60.7904   33.0735   45.3290 H   0  0  0  0  0  0  0  0  0  0  0  0
   59.8127   32.1714   46.5414 H   0  0  0  0  0  0  0  0  0  0  0  0
   60.1517   34.3358   48.8586 H   0  0  0  0  0  0  0  0  0  0  0  0
   58.5468   34.9406   48.3242 H   0  0  0  0  0  0  0  0  0  0  0  0
   58.8875   33.1769   48.3242 H   0  0  0  0  0  0  0  0  0  0  0  0
   58.1680   35.4754   46.2155 H   0  0  0  0  0  0  0  0  0  0  0  0
   59.1221   34.8050   44.8480 H   0  0  0  0  0  0  0  0  0  0  0  0
   59.3142   30.7818   46.4766 H   0  0  0  0  0  0  0  0  0  0  0  0
   58.8372   28.3736   46.9126 H   0  0  0  0  0  0  0  0  0  0  0  0
   54.7600   27.0890   46.6630 H   0  0  0  0  0  0  0  0  0  0  0  0
   55.5847   28.5027   44.0577 H   0  0  0  0  0  0  0  0  0  0  0  0
   56.0647   30.9085   43.6216 H   0  0  0  0  0  0  0  0  0  0  0  0
   60.6650   29.3193   49.6294 H   0  0  0  0  0  0  0  0  0  0  0  0
   59.7679   29.2337   48.0755 H   0  0  0  0  0  0  0  0  0  0  0  0
   61.5640   29.2564   48.0755 H   0  0  0  0  0  0  0  0  0  0  0  0
   62.9768   30.9920   49.8557 H   0  0  0  0  0  0  0  0  0  0  0  0
  1  2  1  0
  2  3  1  0
  3  4  2  0
  4  5  1  0
  5  6  2  0
  6  7  1  0
  7  8  1  0
  8  9  1  0
  8 10  1  0
 10 11  1  0
 11 12  2  0
 11 13  1  0
 13 14  1  0
 14 15  2  0
 15 16  1  0
 16 17  2  0
 17 18  1  0
 18 19  1  0
 18 20  2  0
 18 21  2  0
 17 22  1  0
 22 23  2  0
  6 24  1  0
 24 25  1  0
 25 26  1  0
 24 27  2  0
 27  3  1  0
 23 14  1  0
  1 28  1  0
  1 29  1  0
  1 30  1  0
  4 31  1  0
  5 32  1  0
  7 33  1  0
  7 34  1  0
  9 35  1  0
  9 36  1  0
  9 37  1  0
 10 38  1  0
 10 39  1  0
 15 40  1  0
 16 41  1  0
 19 42  1  0
 22 43  1  0
 23 44  1  0
 26 45  1  0
 26 46  1  0
 26 47  1  0
 27 48  1  0
M  CHG  2  13  -1  19  -1
M  END
>  <UniqueID>  (38) 
35

>  <SMILES>  (38) 
COc1ccc(CN(C)CC(=O)[N-]c2ccc(S([NH-])(=O)=O)cc2)c(OC)c1

>  <Energy>  (38) 
45.8580494824293

>  <Genealogy>  (38) 
COc1ccc(CN(C)CC(=O)[N-]c2ccc(S([NH-])(=O)=O)cc2)c(OC)c1 (protonated)
COc1ccc(CN(C)CC(=O)[N-]c2ccc(S([NH-])(=O)=O)cc2)c(OC)c1 (3D coordinates assigned)
COc1ccc(CN(C)CC(=O)[N-]c2ccc(S([NH-])(=O)=O)cc2)c(OC)c1 (optimized conformer: 45.8580494824293 kcal/mol)

>  <smiles>  (38) 
COc1ccc(CN(C)CC(=O)Nc2ccc(S(N)(=O)=O)cc2)c(OC)c1

>  <score_type>  (38) 
oracle

>  <origin>  (38) 
adg

>  <m_score__min__energy>  (38) 
-11.43

>  <m_primary>  (38) 
energy

$$$$
38:0
     RDKit          3D

 48 51  0  0  0  0  0  0  0  0999 V2000
   61.8822   33.1675   47.2448 H   0  0  0  0  0  0  0  0  0  0  0  0
   61.3300   32.3170   47.6710 C   0  0  0  0  0  0  0  0  0  0  0  0
   60.4540   32.5190   48.7410 C   0  0  0  0  0  0  0  0  0  0  0  0
   60.3146   33.5291   49.1537 H   0  0  0  0  0  0  0  0  0  0  0  0
   59.7540   31.4380   49.2880 C   0  0  0  0  0  0  0  0  0  0  0  0
   59.0578   31.6023   50.1237 H   0  0  0  0  0  0  0  0  0  0  0  0
   59.9370   30.1440   48.7740 C   0  0  0  0  0  0  0  0  0  0  0  0
   59.1590   28.9890   49.3330 C   0  0  0  0  0  0  0  0  0  0  0  0
   58.1124   29.2908   49.4861 H   0  0  0  0  0  0  0  0  0  0  0  0
   59.5948   28.6827   50.2954 H   0  0  0  0  0  0  0  0  0  0  0  0
   59.2120   27.8720   48.3950 N   0  0  0  0  0  0  0  0  0  0  0  0
   58.4570   27.7710   47.3430 C   0  0  0  0  0  0  0  0  0  0  0  0
   58.1160   26.5550   46.8400 N   0  0  0  0  0  0  0  0  0  0  0  0
   57.3220   26.4590   45.7400 C   0  0  0  0  0  0  0  0  0  0  0  0
   56.9500   25.1290   45.1980 C   0  0  0  0  0  0  0  0  0  0  0  0
   57.2480   24.7880   43.8640 C   0  0  0  0  0  0  0  0  0  0  0  0
   57.7617   25.5142   43.2169 H   0  0  0  0  0  0  0  0  0  0  0  0
   56.8960   23.5340   43.3560 C   0  0  0  0  0  0  0  0  0  0  0  0
   57.1331   23.2784   42.3127 H   0  0  0  0  0  0  0  0  0  0  0  0
   56.2440   22.6050   44.1700 C   0  0  0  0  0  0  0  0  0  0  0  0
   55.8950   21.3600   43.6630 O   0  0  0  0  0  0  0  0  0  0  0  0
   55.9420   22.9300   45.4940 C   0  0  0  0  0  0  0  0  0  0  0  0
   55.4280   22.1983   46.1347 H   0  0  0  0  0  0  0  0  0  0  0  0
   56.2910   24.1830   46.0080 C   0  0  0  0  0  0  0  0  0  0  0  0
   56.0493   24.4317   47.0519 H   0  0  0  0  0  0  0  0  0  0  0  0
   56.8720   27.5960   45.1460 N   0  0  0  0  0  0  0  0  0  0  0  0
   57.2140   28.8150   45.6340 C   0  0  0  0  0  0  0  0  0  0  0  0
   56.7470   29.8830   45.0560 N   0  0  0  0  0  0  0  0  0  0  0  0
   57.3770   31.1740   44.9880 C   0  0  0  0  0  0  0  0  0  0  0  0
   57.7730   31.7920   46.1820 C   0  0  0  0  0  0  0  0  0  0  0  0
   57.6191   31.2762   47.1413 H   0  0  0  0  0  0  0  0  0  0  0  0
   58.3620   33.0590   46.1620 C   0  0  0  0  0  0  0  0  0  0  0  0
   58.6832   33.5298   47.1028 H   0  0  0  0  0  0  0  0  0  0  0  0
   58.5440   33.7300   44.9480 C   0  0  0  0  0  0  0  0  0  0  0  0
   59.2950   35.3590   44.9240 S   0  0  0  0  0  0  0  0  0  0  0  0
   59.6750   35.3420   46.7040 C   0  0  0  0  0  0  0  0  0  0  0  0
   58.7384   35.3839   47.2793 H   0  0  0  0  0  0  0  0  0  0  0  0
   60.2180   34.4187   46.9542 H   0  0  0  0  0  0  0  0  0  0  0  0
   60.2983   36.2132   46.9542 H   0  0  0  0  0  0  0  0  0  0  0  0
   58.1180   33.1360   43.7550 C   0  0  0  0  0  0  0  0  0  0  0  0
   58.2475   33.6678   42.8009 H   0  0  0  0  0  0  0  0  0  0  0  0
   57.5280   31.8680   43.7720 C   0  0  0  0  0  0  0  0  0  0  0  0
   57.1811   31.4117   42.8332 H   0  0  0  0  0  0  0  0  0  0  0  0
   58.0000   28.8960   46.7400 N   0  0  0  0  0  0  0  0  0  0  0  0
   60.8070   29.9520   47.6870 C   0  0  0  0  0  0  0  0  0  0  0  0
   60.9397   28.9457   47.2629 H   0  0  0  0  0  0  0  0  0  0  0  0
   61.5050   31.0350   47.1420 C   0  0  0  0  0  0  0  0  0  0  0  0
   62.1916   30.8777   46.2971 H   0  0  0  0  0  0  0  0  0  0  0  0
  1  2  1  0
  2  3  2  0
  3  4  1  0
  3  5  1  0
  5  6  1  0
  5  7  2  0
  7  8  1  0
  8  9  1  0
  8 10  1  0
  8 11  1  0
 11 12  2  0
 12 13  1  0
 13 14  1  0
 14 15  1  0
 15 16  2  0
 16 17  1  0
 16 18  1  0
 18 19  1  0
 18 20  2  0
 20 21  1  0
 20 22  1  0
 22 23  1  0
 22 24  2  0
 24 25  1  0
 14 26  2  0
 26 27  1  0
 27 28  2  0
 28 29  1  0
 29 30  2  0
 30 31  1  0
 30 32  1  0
 32 33  1  0
 32 34  2  0
 34 35  1  0
 35 36  1  0
 36 37  1  0
 36 38  1  0
 36 39  1  0
 34 40  1  0
 40 41  1  0
 40 42  2  0
 42 43  1  0
 27 44  1  0
  7 45  1  0
 45 46  1  0
 45 47  2  0
 47 48  1  0
 47  2  1  0
 44 12  1  0
 24 15  1  0
 42 29  1  0
M  CHG  3  13  -1  21  -1  44  -1
M  END
>  <UniqueID>  (39) 
36

>  <SMILES>  (39) 
CSc1ccc(/N=c2/nc(-c3ccc([O-])cc3)[n-]/c(=N\Cc3ccccc3)[n-]2)cc1

>  <Energy>  (39) 
55.32949686350728

>  <Genealogy>  (39) 
CSc1ccc(N=c2nc(-c3ccc([O-])cc3)[n-]c(=NCc3ccccc3)[n-]2)cc1 (protonated)
CSc1ccc(/N=c2/nc(-c3ccc([O-])cc3)[n-]/c(=N\Cc3ccccc3)[n-]2)cc1 (cis-trans isomerization)
CSc1ccc(/N=c2/nc(-c3ccc([O-])cc3)[n-]/c(=N\Cc3ccccc3)[n-]2)cc1 (3D coordinates assigned)
CSc1ccc(/N=c2/nc(-c3ccc([O-])cc3)[n-]/c(=N\Cc3ccccc3)[n-]2)cc1 (optimized conformer: 55.32949686350728 kcal/mol)

>  <smiles>  (39) 
CSc1ccc(N=c2nc(-c3ccc(O)cc3)[nH]c(=NCc3ccccc3)[nH]2)cc1

>  <score_type>  (39) 
oracle

>  <origin>  (39) 
adg

>  <m_score__min__energy>  (39) 
-13.44

>  <m_primary>  (39) 
energy

$$$$
39:0
     RDKit          3D

 23 24  0  0  0  0  0  0  0  0999 V2000
   63.9140   33.0730   47.6040 O   0  0  0  0  0  0  0  0  0  0  0  0
   62.8200   33.6970   47.5950 C   0  0  0  0  0  0  0  0  0  0  0  0
   62.3050   34.1830   48.7900 O   0  0  0  0  0  0  0  0  0  0  0  0
   62.1080   33.9090   46.4080 O   0  0  0  0  0  0  0  0  0  0  0  0
   60.7160   34.0530   46.3160 C   0  0  0  0  0  0  0  0  0  0  0  0
   60.1920   35.2000   46.2700 O   0  0  0  0  0  0  0  0  0  0  0  0
   59.8570   32.8480   46.2730 C   0  0  0  0  0  0  0  0  0  0  0  0
   60.1210   31.7610   47.1240 C   0  0  0  0  0  0  0  0  0  0  0  0
   59.3160   30.6190   47.0920 C   0  0  0  0  0  0  0  0  0  0  0  0
   58.2320   30.5430   46.2070 C   0  0  0  0  0  0  0  0  0  0  0  0
   57.4190   29.4000   46.1680 C   0  0  0  0  0  0  0  0  0  0  0  0
   56.3410   29.3360   45.2800 C   0  0  0  0  0  0  0  0  0  0  0  0
   55.5380   28.2010   45.2430 O   0  0  0  0  0  0  0  0  0  0  0  0
   56.0680   30.4090   44.4270 C   0  0  0  0  0  0  0  0  0  0  0  0
   56.8710   31.5530   44.4570 C   0  0  0  0  0  0  0  0  0  0  0  0
   57.9570   31.6300   45.3440 C   0  0  0  0  0  0  0  0  0  0  0  0
   58.7700   32.7730   45.3830 C   0  0  0  0  0  0  0  0  0  0  0  0
   60.9697   31.8096   47.8222 H   0  0  0  0  0  0  0  0  0  0  0  0
   59.5342   29.7762   47.7643 H   0  0  0  0  0  0  0  0  0  0  0  0
   57.6302   28.5529   46.8372 H   0  0  0  0  0  0  0  0  0  0  0  0
   55.2188   30.3532   43.7300 H   0  0  0  0  0  0  0  0  0  0  0  0
   56.6516   32.3950   43.7841 H   0  0  0  0  0  0  0  0  0  0  0  0
   58.5556   33.6177   44.7119 H   0  0  0  0  0  0  0  0  0  0  0  0
  1  2  2  0
  2  3  1  0
  2  4  1  0
  4  5  1  0
  5  6  2  0
  5  7  1  0
  7  8  2  0
  8  9  1  0
  9 10  2  0
 10 11  1  0
 11 12  2  0
 12 13  1  0
 12 14  1  0
 14 15  2  0
 15 16  1  0
 16 17  2  0
 17  7  1  0
 16 10  1  0
  8 18  1  0
  9 19  1  0
 11 20  1  0
 14 21  1  0
 15 22  1  0
 17 23  1  0
M  CHG  2   3  -1  13  -1
M  END
>  <UniqueID>  (40) 
37

>  <SMILES>  (40) 
O=C([O-])OC(=O)c1ccc2cc([O-])ccc2c1

>  <Energy>  (40) 
28.512066702810433

>  <Genealogy>  (40) 
O=C([O-])OC(=O)c1ccc2cc([O-])ccc2c1 (protonated)
O=C([O-])OC(=O)c1ccc2cc([O-])ccc2c1 (3D coordinates assigned)
O=C([O-])OC(=O)c1ccc2cc([O-])ccc2c1 (optimized conformer: 28.512066702810433 kcal/mol)

>  <smiles>  (40) 
O=C(O)OC(=O)c1ccc2cc(O)ccc2c1

>  <score_type>  (40) 
oracle

>  <origin>  (40) 
adg

>  <m_score__min__energy>  (40) 
-9.3399999999999999

>  <m_primary>  (40) 
energy

$$$$
40:0
     RDKit          3D

 36 37  0  0  0  0  0  0  0  0999 V2000
   59.2510   34.1370   47.9050 C   0  0  0  0  0  0  0  0  0  0  0  0
   58.2300   33.6820   46.8650 C   0  0  0  0  0  0  0  0  0  0  0  0
   58.8490   33.6310   45.5230 N   0  0  0  0  0  0  0  0  0  0  0  0
   59.5370   34.9010   45.2300 C   0  0  0  0  0  0  0  0  0  0  0  0
   57.8350   33.3500   44.4820 C   0  0  0  0  0  0  0  0  0  0  0  0
   57.6540   31.9070   44.3360 N   0  0  0  0  0  0  0  0  0  0  0  0
   58.1500   30.9490   45.1450 C   0  0  0  0  0  0  0  0  0  0  0  0
   57.7720   29.7170   44.6380 C   0  0  0  0  0  0  0  0  0  0  0  0
   58.0940   28.4040   45.2330 C   0  0  0  0  0  0  0  0  0  0  0  0
   57.0700   27.5220   45.6200 C   0  0  0  0  0  0  0  0  0  0  0  0
   57.3840   26.2900   46.2030 C   0  0  0  0  0  0  0  0  0  0  0  0
   58.7180   25.9330   46.4160 C   0  0  0  0  0  0  0  0  0  0  0  0
   59.7410   26.8120   46.0520 C   0  0  0  0  0  0  0  0  0  0  0  0
   59.4320   28.0450   45.4680 C   0  0  0  0  0  0  0  0  0  0  0  0
   57.0530   29.9330   43.5150 N   0  0  0  0  0  0  0  0  0  0  0  0
   56.5870   28.9790   42.5960 N   0  0  0  0  0  0  0  0  0  0  0  0
   56.9940   31.2680   43.3490 C   0  0  0  0  0  0  0  0  0  0  0  0
   58.8509   33.9587   48.9140 H   0  0  0  0  0  0  0  0  0  0  0  0
   60.1844   33.5697   47.7751 H   0  0  0  0  0  0  0  0  0  0  0  0
   59.4532   35.2104   47.7751 H   0  0  0  0  0  0  0  0  0  0  0  0
   57.8617   32.6806   47.1326 H   0  0  0  0  0  0  0  0  0  0  0  0
   57.3959   34.3989   46.8463 H   0  0  0  0  0  0  0  0  0  0  0  0
   59.8064   35.3982   46.1735 H   0  0  0  0  0  0  0  0  0  0  0  0
   60.4488   34.6985   44.6489 H   0  0  0  0  0  0  0  0  0  0  0  0
   58.8694   35.5541   44.6489 H   0  0  0  0  0  0  0  0  0  0  0  0
   56.8785   33.8095   44.7719 H   0  0  0  0  0  0  0  0  0  0  0  0
   58.1757   33.7696   43.5239 H   0  0  0  0  0  0  0  0  0  0  0  0
   58.7509   31.1170   46.0509 H   0  0  0  0  0  0  0  0  0  0  0  0
   56.0177   27.8019   45.4637 H   0  0  0  0  0  0  0  0  0  0  0  0
   56.5784   25.6001   46.4947 H   0  0  0  0  0  0  0  0  0  0  0  0
   58.9624   24.9612   46.8697 H   0  0  0  0  0  0  0  0  0  0  0  0
   60.7912   26.5341   46.2249 H   0  0  0  0  0  0  0  0  0  0  0  0
   60.2408   28.7373   45.1912 H   0  0  0  0  0  0  0  0  0  0  0  0
   56.8740   27.9790   42.6880 H   0  0  0  0  0  0  0  0  0  0  0  0
   55.8860   29.2280   41.8660 H   0  0  0  0  0  0  0  0  0  0  0  0
   56.4762   31.7704   42.5186 H   0  0  0  0  0  0  0  0  0  0  0  0
  1  2  1  0
  2  3  1  0
  3  4  1  0
  3  5  1  0
  5  6  1  0
  6  7  1  0
  7  8  2  0
  8  9  1  0
  9 10  2  0
 10 11  1  0
 11 12  2  0
 12 13  1  0
 13 14  2  0
  8 15  1  0
 15 16  1  0
 15 17  2  0
 17  6  1  0
 14  9  1  0
  1 18  1  0
  1 19  1  0
  1 20  1  0
  2 21  1  0
  2 22  1  0
  4 23  1  0
  4 24  1  0
  4 25  1  0
  5 26  1  0
  5 27  1  0
  7 28  1  0
 10 29  1  0
 11 30  1  0
 12 31  1  0
 13 32  1  0
 14 33  1  0
 16 34  1  0
 16 35  1  0
 17 36  1  0
M  CHG  1  15   1
M  END
>  <UniqueID>  (41) 
38

>  <SMILES>  (41) 
CCN(C)Cn1cc(-c2ccccc2)[n+](N)c1

>  <Energy>  (41) 
70.66242104226791

>  <Genealogy>  (41) 
CCN(C)Cn1cc(-c2ccccc2)[n+](N)c1 (3D coordinates assigned)
CCN(C)Cn1cc(-c2ccccc2)[n+](N)c1 (optimized conformer: 70.66242104226791 kcal/mol)

>  <smiles>  (41) 
CCN(C)Cn1cc(-c2ccccc2)[n+](N)c1

>  <score_type>  (41) 
oracle

>  <origin>  (41) 
adg

>  <m_score__min__energy>  (41) 
-4.5499999999999998

>  <m_primary>  (41) 
energy

$$$$
41:0
     RDKit          3D

 64 66  0  0  0  0  0  0  0  0999 V2000
   60.0460   35.3850   46.4850 C   0  0  0  0  0  0  0  0  0  0  0  0
   59.0300   34.3380   46.1160 C   0  0  0  0  0  0  0  0  0  0  0  0
   58.3880   34.4520   44.8700 C   0  0  0  0  0  0  0  0  0  0  0  0
   57.4770   33.4880   44.4440 C   0  0  0  0  0  0  0  0  0  0  0  0
   57.2190   32.3660   45.2350 C   0  0  0  0  0  0  0  0  0  0  0  0
   56.2710   31.3720   44.8280 N   0  0  0  0  0  0  0  0  0  0  0  0
   56.5230   29.9710   44.6630 C   0  0  0  0  0  0  0  0  0  0  0  0
   55.5810   29.1690   44.8870 O   0  0  0  0  0  0  0  0  0  0  0  0
   57.9260   29.4390   44.4310 C   0  0  0  0  0  0  0  0  0  0  0  0
   58.6220   28.9760   45.6550 N   0  0  0  0  0  0  0  0  0  0  0  0
   59.7940   28.1390   45.3550 C   0  0  0  0  0  0  0  0  0  0  0  0
   57.7230   28.3370   46.6380 C   0  0  0  0  0  0  0  0  0  0  0  0
   57.1140   27.1100   46.0360 C   0  0  0  0  0  0  0  0  0  0  0  0
   55.8590   27.0080   45.9560 O   0  0  0  0  0  0  0  0  0  0  0  0
   57.9580   26.0540   45.5570 N   0  0  0  0  0  0  0  0  0  0  0  0
   57.4270   24.8530   44.9800 C   0  0  0  0  0  0  0  0  0  0  0  0
   57.3260   24.7310   43.5760 C   0  0  0  0  0  0  0  0  0  0  0  0
   57.7790   25.8440   42.6720 C   0  0  0  0  0  0  0  0  0  0  0  0
   56.7780   23.5630   43.0220 C   0  0  0  0  0  0  0  0  0  0  0  0
   56.3510   22.5230   43.8480 C   0  0  0  0  0  0  0  0  0  0  0  0
   56.4490   22.6420   45.2350 C   0  0  0  0  0  0  0  0  0  0  0  0
   56.9780   23.8040   45.8070 C   0  0  0  0  0  0  0  0  0  0  0  0
   56.9960   23.9530   47.7210 Br  0  0  0  0  0  0  0  0  0  0  0  0
   57.8300   32.2520   46.4840 C   0  0  0  0  0  0  0  0  0  0  0  0
   58.7260   33.2290   46.9530 C   0  0  0  0  0  0  0  0  0  0  0  0
   59.4470   32.9700   48.5660 S   0  0  0  0  0  0  0  0  0  0  0  0
   59.5240   34.3040   49.2570 O   0  0  0  0  0  0  0  0  0  0  0  0
   58.5700   32.0870   49.4110 O   0  0  0  0  0  0  0  0  0  0  0  0
   61.0650   32.2970   48.5030 N   0  0  0  0  0  0  0  0  0  0  0  0
   61.5920   32.2040   47.1210 C   0  0  0  0  0  0  0  0  0  0  0  0
   62.5280   33.3690   46.7750 C   0  0  0  0  0  0  0  0  0  0  0  0
   63.7450   33.3970   47.7210 C   0  0  0  0  0  0  0  0  0  0  0  0
   63.4410   32.7810   49.1000 C   0  0  0  0  0  0  0  0  0  0  0  0
   61.9660   32.9710   49.4670 C   0  0  0  0  0  0  0  0  0  0  0  0
   60.1165   35.4576   47.5803 H   0  0  0  0  0  0  0  0  0  0  0  0
   61.0267   35.1059   46.0722 H   0  0  0  0  0  0  0  0  0  0  0  0
   59.7376   36.3568   46.0722 H   0  0  0  0  0  0  0  0  0  0  0  0
   58.6081   35.3140   44.2230 H   0  0  0  0  0  0  0  0  0  0  0  0
   56.9590   33.6108   43.4814 H   0  0  0  0  0  0  0  0  0  0  0  0
   57.8602   28.5916   43.7327 H   0  0  0  0  0  0  0  0  0  0  0  0
   58.5161   30.2793   44.0365 H   0  0  0  0  0  0  0  0  0  0  0  0
   60.2582   27.8075   46.2955 H   0  0  0  0  0  0  0  0  0  0  0  0
   59.4781   27.2609   44.7726 H   0  0  0  0  0  0  0  0  0  0  0  0
   60.5220   28.7227   44.7726 H   0  0  0  0  0  0  0  0  0  0  0  0
   58.2979   28.0589   47.5336 H   0  0  0  0  0  0  0  0  0  0  0  0
   56.9259   29.0418   46.9170 H   0  0  0  0  0  0  0  0  0  0  0  0
   58.9810   26.0930   45.7690 H   0  0  0  0  0  0  0  0  0  0  0  0
   58.1245   26.6929   43.2803 H   0  0  0  0  0  0  0  0  0  0  0  0
   58.6038   25.4881   42.0372 H   0  0  0  0  0  0  0  0  0  0  0  0
   56.9401   26.1652   42.0372 H   0  0  0  0  0  0  0  0  0  0  0  0
   56.6848   23.4674   41.9301 H   0  0  0  0  0  0  0  0  0  0  0  0
   55.9357   21.6060   43.4045 H   0  0  0  0  0  0  0  0  0  0  0  0
   56.1090   21.8191   45.8809 H   0  0  0  0  0  0  0  0  0  0  0  0
   57.6061   31.3794   47.1152 H   0  0  0  0  0  0  0  0  0  0  0  0
   62.1482   31.2606   47.0173 H   0  0  0  0  0  0  0  0  0  0  0  0
   60.7361   32.2438   46.4312 H   0  0  0  0  0  0  0  0  0  0  0  0
   62.8797   33.2530   45.7392 H   0  0  0  0  0  0  0  0  0  0  0  0
   61.9726   34.3116   46.8891 H   0  0  0  0  0  0  0  0  0  0  0  0
   64.5653   32.8307   47.2558 H   0  0  0  0  0  0  0  0  0  0  0  0
   64.0172   34.4507   47.8808 H   0  0  0  0  0  0  0  0  0  0  0  0
   63.6704   31.7055   49.0731 H   0  0  0  0  0  0  0  0  0  0  0  0
   64.0604   33.2856   49.8561 H   0  0  0  0  0  0  0  0  0  0  0  0
   61.7921   32.5518   50.4690 H   0  0  0  0  0  0  0  0  0  0  0  0
   61.7452   34.0484   49.4437 H   0  0  0  0  0  0  0  0  0  0  0  0
  1  2  1  0
  2  3  2  0
  3  4  1  0
  4  5  2  0
  5  6  1  0
  6  7  1  0
  7  8  2  0
  7  9  1  0
  9 10  1  0
 10 11  1  0
 10 12  1  0
 12 13  1  0
 13 14  2  0
 13 15  1  0
 15 16  1  0
 16 17  2  0
 17 18  1  0
 17 19  1  0
 19 20  2  0
 20 21  1  0
 21 22  2  0
 22 23  1  0
  5 24  1  0
 24 25  2  0
 25 26  1  0
 26 27  2  0
 26 28  2  0
 26 29  1  0
 29 30  1  0
 30 31  1  0
 31 32  1  0
 32 33  1  0
 33 34  1  0
 25  2  1  0
 34 29  1  0
 22 16  1  0
  1 35  1  0
  1 36  1  0
  1 37  1  0
  3 38  1  0
  4 39  1  0
  9 40  1  0
  9 41  1  0
 11 42  1  0
 11 43  1  0
 11 44  1  0
 12 45  1  0
 12 46  1  0
 15 47  1  0
 18 48  1  0
 18 49  1  0
 18 50  1  0
 19 51  1  0
 20 52  1  0
 21 53  1  0
 24 54  1  0
 30 55  1  0
 30 56  1  0
 31 57  1  0
 31 58  1  0
 32 59  1  0
 32 60  1  0
 33 61  1  0
 33 62  1  0
 34 63  1  0
 34 64  1  0
M  CHG  1   6  -1
M  END
>  <UniqueID>  (42) 
39

>  <SMILES>  (42) 
Cc1ccc([N-]C(=O)CN(C)CC(=O)Nc2c(C)cccc2Br)cc1S(=O)(=O)N1CCCCC1

>  <Energy>  (42) 
89.23476325459455

>  <Genealogy>  (42) 
Cc1ccc([N-]C(=O)CN(C)CC(=O)Nc2c(C)cccc2Br)cc1S(=O)(=O)N1CCCCC1 (protonated)
Cc1ccc([N-]C(=O)CN(C)CC(=O)Nc2c(C)cccc2Br)cc1S(=O)(=O)N1CCCCC1 (3D coordinates assigned)
Cc1ccc([N-]C(=O)CN(C)CC(=O)Nc2c(C)cccc2Br)cc1S(=O)(=O)N1CCCCC1 (nonaromatic ring conformer: 89.23476325459455 kcal/mol)

>  <smiles>  (42) 
Cc1ccc(NC(=O)CN(C)CC(=O)Nc2c(C)cccc2Br)cc1S(=O)(=O)N1CCCCC1

>  <score_type>  (42) 
oracle

>  <origin>  (42) 
adg

>  <m_score__min__energy>  (42) 
-12.32

>  <m_primary>  (42) 
energy

$$$$
42:0
     RDKit          3D

 70 73  0  0  0  0  0  0  0  0999 V2000
   63.7320   33.8710   45.9790 O   0  0  0  0  0  0  0  0  0  0  0  0
   63.0750   33.5540   47.0080 C   0  0  0  0  0  0  0  0  0  0  0  0
   63.3690   34.1610   48.3190 C   0  0  0  0  0  0  0  0  0  0  0  0
   63.2900   33.5410   49.5060 C   0  0  0  0  0  0  0  0  0  0  0  0
   64.3520   32.6990   50.1010 C   0  0  0  0  0  0  0  0  0  0  0  0
   64.0470   31.4920   50.7600 C   0  0  0  0  0  0  0  0  0  0  0  0
   65.0760   30.7040   51.2920 C   0  0  0  0  0  0  0  0  0  0  0  0
   66.4090   31.1010   51.1550 C   0  0  0  0  0  0  0  0  0  0  0  0
   66.7180   32.2790   50.4710 C   0  0  0  0  0  0  0  0  0  0  0  0
   65.6950   33.0700   49.9350 C   0  0  0  0  0  0  0  0  0  0  0  0
   62.0530   32.5570   46.9300 N   0  0  0  0  0  0  0  0  0  0  0  0
   62.1800   31.2360   47.5290 C   0  0  0  0  0  0  0  0  0  0  0  0
   60.8440   30.7930   48.1650 C   0  0  2  0  0  0  0  0  0  0  0  0
   60.9440   30.6210   49.6970 C   0  0  0  0  0  0  0  0  0  0  0  0
   60.0030   31.5160   50.4690 C   0  0  0  0  0  0  0  0  0  0  0  0
   58.6750   31.1210   50.6940 C   0  0  0  0  0  0  0  0  0  0  0  0
   57.8150   31.9320   51.4430 C   0  0  0  0  0  0  0  0  0  0  0  0
   58.2780   33.1390   51.9780 C   0  0  0  0  0  0  0  0  0  0  0  0
   59.6000   33.5360   51.7600 C   0  0  0  0  0  0  0  0  0  0  0  0
   60.4600   32.7310   51.0070 C   0  0  0  0  0  0  0  0  0  0  0  0
   60.3530   29.5570   47.5560 N   0  0  0  0  0  0  0  0  0  0  0  0
   59.0140   29.0590   47.6860 C   0  0  0  0  0  0  0  0  0  0  0  0
   58.5190   28.8570   48.8280 O   0  0  0  0  0  0  0  0  0  0  0  0
   58.1910   28.7860   46.4540 C   0  0  2  0  0  0  0  0  0  0  0  0
   58.4240   27.3540   45.9240 C   0  0  0  0  0  0  0  0  0  0  0  0
   57.2890   26.4170   46.2250 C   0  0  0  0  0  0  0  0  0  0  0  0
   55.9560   26.6690   45.9970 C   0  0  0  0  0  0  0  0  0  0  0  0
   55.2460   25.5770   46.3200 N   0  0  0  0  0  0  0  0  0  0  0  0
   56.1750   24.6870   46.7320 C   0  0  0  0  0  0  0  0  0  0  0  0
   57.4380   25.1570   46.6750 N   0  0  0  0  0  0  0  0  0  0  0  0
   58.4880   29.7790   45.4200 N   0  0  0  0  0  0  0  0  0  0  0  0
   57.4960   30.5960   44.7920 C   0  0  0  0  0  0  0  0  0  0  0  0
   56.2830   30.2500   44.8530 O   0  0  0  0  0  0  0  0  0  0  0  0
   57.8690   31.7670   44.1230 O   0  0  0  0  0  0  0  0  0  0  0  0
   57.4150   33.0560   44.5150 C   0  0  0  0  0  0  0  0  0  0  0  0
   58.2470   33.5560   45.6620 C   0  0  0  0  0  0  0  0  0  0  0  0
   59.2010   34.5690   45.4670 C   0  0  0  0  0  0  0  0  0  0  0  0
   59.9670   35.0320   46.5420 C   0  0  0  0  0  0  0  0  0  0  0  0
   59.7880   34.4850   47.8160 C   0  0  0  0  0  0  0  0  0  0  0  0
   58.8450   33.4740   48.0170 C   0  0  0  0  0  0  0  0  0  0  0  0
   58.0750   33.0100   46.9440 C   0  0  0  0  0  0  0  0  0  0  0  0
   63.6808   35.2159   48.3243 H   0  0  0  0  0  0  0  0  0  0  0  0
   62.3622   33.6685   50.0830 H   0  0  0  0  0  0  0  0  0  0  0  0
   63.0003   31.1679   50.8570 H   0  0  0  0  0  0  0  0  0  0  0  0
   64.8339   29.7695   51.8194 H   0  0  0  0  0  0  0  0  0  0  0  0
   67.2137   30.4866   51.5852 H   0  0  0  0  0  0  0  0  0  0  0  0
   67.7678   32.5859   50.3533 H   0  0  0  0  0  0  0  0  0  0  0  0
   65.9451   33.9868   49.3810 H   0  0  0  0  0  0  0  0  0  0  0  0
   62.4666   30.5130   46.7511 H   0  0  0  0  0  0  0  0  0  0  0  0
   62.9488   31.2769   48.3147 H   0  0  0  0  0  0  0  0  0  0  0  0
   60.1258   31.6024   47.9673 H   0  0  0  0  0  0  0  0  0  0  0  0
   60.7112   29.5750   49.9454 H   0  0  0  0  0  0  0  0  0  0  0  0
   61.9671   30.9022   49.9870 H   0  0  0  0  0  0  0  0  0  0  0  0
   58.3088   30.1700   50.2799 H   0  0  0  0  0  0  0  0  0  0  0  0
   56.7737   31.6201   51.6113 H   0  0  0  0  0  0  0  0  0  0  0  0
   57.6024   33.7745   52.5693 H   0  0  0  0  0  0  0  0  0  0  0  0
   59.9648   34.4841   52.1818 H   0  0  0  0  0  0  0  0  0  0  0  0
   61.4986   33.0500   50.8350 H   0  0  0  0  0  0  0  0  0  0  0  0
   57.1285   28.8658   46.7274 H   0  0  0  0  0  0  0  0  0  0  0  0
   58.5566   27.4027   44.8331 H   0  0  0  0  0  0  0  0  0  0  0  0
   59.3159   26.9594   46.4327 H   0  0  0  0  0  0  0  0  0  0  0  0
   55.5399   27.6119   45.6126 H   0  0  0  0  0  0  0  0  0  0  0  0
   55.9250   23.6743   47.0811 H   0  0  0  0  0  0  0  0  0  0  0  0
   57.5064   33.7500   43.6665 H   0  0  0  0  0  0  0  0  0  0  0  0
   56.3622   32.9932   44.8274 H   0  0  0  0  0  0  0  0  0  0  0  0
   59.3460   34.9996   44.4652 H   0  0  0  0  0  0  0  0  0  0  0  0
   60.7107   35.8271   46.3848 H   0  0  0  0  0  0  0  0  0  0  0  0
   60.3901   34.8509   48.6608 H   0  0  0  0  0  0  0  0  0  0  0  0
   58.7075   33.0422   49.0193 H   0  0  0  0  0  0  0  0  0  0  0  0
   57.3325   32.2147   47.1058 H   0  0  0  0  0  0  0  0  0  0  0  0
  1  2  2  0
  2  3  1  0
  3  4  2  3
  4  5  1  0
  5  6  2  0
  6  7  1  0
  7  8  2  0
  8  9  1  0
  9 10  2  0
  2 11  1  0
 11 12  1  0
 12 13  1  0
 13 14  1  0
 14 15  1  0
 15 16  2  0
 16 17  1  0
 17 18  2  0
 18 19  1  0
 19 20  2  0
 13 21  1  0
 21 22  1  0
 22 23  2  0
 22 24  1  0
 24 25  1  0
 25 26  1  0
 26 27  2  0
 27 28  1  0
 28 29  1  0
 29 30  2  0
 24 31  1  0
 31 32  1  0
 32 33  2  0
 32 34  1  0
 34 35  1  0
 35 36  1  0
 36 37  2  0
 37 38  1  0
 38 39  2  0
 39 40  1  0
 40 41  2  0
 10  5  1  0
 20 15  1  0
 30 26  1  0
 41 36  1  0
  3 42  1  0
  4 43  1  0
  6 44  1  0
  7 45  1  0
  8 46  1  0
  9 47  1  0
 10 48  1  0
 12 49  1  0
 12 50  1  0
 13 51  1  1
 14 52  1  0
 14 53  1  0
 16 54  1  0
 17 55  1  0
 18 56  1  0
 19 57  1  0
 20 58  1  0
 24 59  1  1
 25 60  1  0
 25 61  1  0
 27 62  1  0
 29 63  1  0
 35 64  1  0
 35 65  1  0
 37 66  1  0
 38 67  1  0
 39 68  1  0
 40 69  1  0
 41 70  1  0
M  CHG  4  11  -1  21  -1  28  -1  31  -1
M  END
>  <UniqueID>  (43) 
40

>  <SMILES>  (43) 
O=C(C=Cc1ccccc1)[N-]C[C@H](Cc1ccccc1)[N-]C(=O)[C@H](Cc1c[n-]cn1)[N-]C(=O)OCc1ccccc1

>  <Energy>  (43) 
94.7129173029812

>  <Genealogy>  (43) 
O=C(C=Cc1ccccc1)[N-]CC(Cc1ccccc1)[N-]C(=O)C(Cc1c[n-]cn1)[N-]C(=O)OCc1ccccc1 (protonated)
O=C(C=Cc1ccccc1)[N-]C[C@H](Cc1ccccc1)[N-]C(=O)[C@H](Cc1c[n-]cn1)[N-]C(=O)OCc1ccccc1 (chirality)
O=C(C=Cc1ccccc1)[N-]C[C@H](Cc1ccccc1)[N-]C(=O)[C@H](Cc1c[n-]cn1)[N-]C(=O)OCc1ccccc1 (3D coordinates assigned)
O=C(C=Cc1ccccc1)[N-]C[C@H](Cc1ccccc1)[N-]C(=O)[C@H](Cc1c[n-]cn1)[N-]C(=O)OCc1ccccc1 (optimized conformer: 94.7129173029812 kcal/mol)

>  <smiles>  (43) 
O=C(C=Cc1ccccc1)NCC(Cc1ccccc1)NC(=O)C(Cc1c[nH]cn1)NC(=O)OCc1ccccc1

>  <score_type>  (43) 
oracle

>  <origin>  (43) 
adg

>  <m_score__min__energy>  (43) 
-15.09

>  <m_primary>  (43) 
energy

$$$$
43:0
     RDKit          3D

 36 38  0  0  0  0  0  0  0  0999 V2000
   59.6380   34.4980   48.9870 O   0  0  0  0  0  0  0  0  0  0  0  0
   60.2670   34.5520   47.8960 C   0  0  0  0  0  0  0  0  0  0  0  0
   59.6450   35.2800   46.7390 C   0  0  0  0  0  0  0  0  0  0  0  0
   58.9000   34.3170   45.8740 C   0  0  0  0  0  0  0  0  0  0  0  0
   59.0810   32.9480   45.8290 C   0  0  0  0  0  0  0  0  0  0  0  0
   58.1350   32.5150   44.9150 C   0  0  0  0  0  0  0  0  0  0  0  0
   57.8720   31.1100   44.5070 C   0  0  0  0  0  0  0  0  0  0  0  0
   56.8430   30.8070   43.5950 C   0  0  0  0  0  0  0  0  0  0  0  0
   56.6100   29.4870   43.2020 C   0  0  0  0  0  0  0  0  0  0  0  0
   57.3970   28.4520   43.7110 C   0  0  0  0  0  0  0  0  0  0  0  0
   58.4180   28.7370   44.6190 C   0  0  0  0  0  0  0  0  0  0  0  0
   58.6540   30.0560   45.0200 C   0  0  0  0  0  0  0  0  0  0  0  0
   57.4520   33.5910   44.4690 N   0  0  0  0  0  0  0  0  0  0  0  0
   57.9250   34.6470   45.0590 O   0  0  0  0  0  0  0  0  0  0  0  0
   61.5780   33.9640   47.8020 N   0  0  0  0  0  0  0  0  0  0  0  0
   62.3390   33.8380   46.5690 C   0  0  0  0  0  0  0  0  0  0  0  0
   63.5690   33.0160   46.9290 C   0  0  0  0  0  0  0  0  0  0  0  0
   63.6660   33.0510   48.4520 C   0  0  0  0  0  0  0  0  0  0  0  0
   62.2750   33.4120   48.9510 C   0  0  0  0  0  0  0  0  0  0  0  0
   58.9492   36.0424   47.1193 H   0  0  0  0  0  0  0  0  0  0  0  0
   60.4366   35.7617   46.1463 H   0  0  0  0  0  0  0  0  0  0  0  0
   59.8082   32.3422   46.3895 H   0  0  0  0  0  0  0  0  0  0  0  0
   56.2178   31.6159   43.1889 H   0  0  0  0  0  0  0  0  0  0  0  0
   55.8034   29.2620   42.4887 H   0  0  0  0  0  0  0  0  0  0  0  0
   57.2127   27.4140   43.3970 H   0  0  0  0  0  0  0  0  0  0  0  0
   59.0386   27.9222   45.0202 H   0  0  0  0  0  0  0  0  0  0  0  0
   59.4560   30.2722   45.7412 H   0  0  0  0  0  0  0  0  0  0  0  0
   56.6550   33.6060   43.7960 H   0  0  0  0  0  0  0  0  0  0  0  0
   61.7436   33.3220   45.8014 H   0  0  0  0  0  0  0  0  0  0  0  0
   62.6125   34.8207   46.1573 H   0  0  0  0  0  0  0  0  0  0  0  0
   63.4533   31.9803   46.5769 H   0  0  0  0  0  0  0  0  0  0  0  0
   64.4767   33.4207   46.4576 H   0  0  0  0  0  0  0  0  0  0  0  0
   63.9675   32.0664   48.8388 H   0  0  0  0  0  0  0  0  0  0  0  0
   64.4180   33.7783   48.7918 H   0  0  0  0  0  0  0  0  0  0  0  0
   61.7554   32.5159   49.3210 H   0  0  0  0  0  0  0  0  0  0  0  0
   62.3152   34.1282   49.7849 H   0  0  0  0  0  0  0  0  0  0  0  0
  1  2  2  0
  2  3  1  0
  3  4  1  0
  4  5  2  0
  5  6  1  0
  6  7  1  0
  7  8  2  0
  8  9  1  0
  9 10  2  0
 10 11  1  0
 11 12  2  0
  6 13  2  0
 13 14  1  0
  2 15  1  0
 15 16  1  0
 16 17  1  0
 17 18  1  0
 18 19  1  0
 14  4  1  0
 19 15  1  0
 12  7  1  0
  3 20  1  0
  3 21  1  0
  5 22  1  0
  8 23  1  0
  9 24  1  0
 10 25  1  0
 11 26  1  0
 12 27  1  0
 13 28  1  0
 16 29  1  0
 16 30  1  0
 17 31  1  0
 17 32  1  0
 18 33  1  0
 18 34  1  0
 19 35  1  0
 19 36  1  0
M  CHG  1  13   1
M  END
>  <UniqueID>  (44) 
41

>  <SMILES>  (44) 
O=C(Cc1cc(-c2ccccc2)[nH+]o1)N1CCCC1

>  <Energy>  (44) 
66.83447767160905

>  <Genealogy>  (44) 
O=C(Cc1cc(-c2ccccc2)[nH+]o1)N1CCCC1 (protonated)
O=C(Cc1cc(-c2ccccc2)[nH+]o1)N1CCCC1 (3D coordinates assigned)
O=C(Cc1cc(-c2ccccc2)[nH+]o1)N1CCCC1 (nonaromatic ring conformer: 66.83447767160905 kcal/mol)

>  <smiles>  (44) 
O=C(Cc1cc(-c2ccccc2)no1)N1CCCC1

>  <score_type>  (44) 
oracle

>  <origin>  (44) 
adg

>  <m_score__min__energy>  (44) 
-6.0800000000000001

>  <m_primary>  (44) 
energy

$$$$
44:0
     RDKit          3D

 45 47  0  0  0  0  0  0  0  0999 V2000
   57.4330   20.3960   46.2580 C   0  0  0  0  0  0  0  0  0  0  0  0
   57.3860   21.5140   47.1360 O   0  0  0  0  0  0  0  0  0  0  0  0
   57.3980   22.8360   46.6800 C   0  0  0  0  0  0  0  0  0  0  0  0
   57.3940   23.0890   45.3070 C   0  0  0  0  0  0  0  0  0  0  0  0
   57.4080   24.4080   44.8510 C   0  0  0  0  0  0  0  0  0  0  0  0
   57.4400   25.4690   45.7660 C   0  0  0  0  0  0  0  0  0  0  0  0
   57.4320   26.8240   45.2850 N   0  0  0  0  0  0  0  0  0  0  0  0
   58.5100   27.7530   45.4900 C   0  0  0  0  0  0  0  0  0  0  0  0
   59.6700   27.3170   45.7270 O   0  0  0  0  0  0  0  0  0  0  0  0
   58.2880   29.2150   45.3750 C   0  0  0  0  0  0  0  0  0  0  0  0
   58.3480   30.0400   46.5080 C   0  0  0  0  0  0  0  0  0  0  0  0
   58.1430   31.4150   46.3940 C   0  0  0  0  0  0  0  0  0  0  0  0
   57.8840   32.0040   45.1410 C   0  0  0  0  0  0  0  0  0  0  0  0
   57.6580   33.3870   45.0140 O   0  0  0  0  0  0  0  0  0  0  0  0
   58.6670   34.3970   44.9880 C   0  0  0  0  0  0  0  0  0  0  0  0
   59.5480   34.3070   46.2060 C   0  0  0  0  0  0  0  0  0  0  0  0
   59.0350   34.6330   47.4720 C   0  0  0  0  0  0  0  0  0  0  0  0
   59.8470   34.5410   48.6070 C   0  0  0  0  0  0  0  0  0  0  0  0
   61.1730   34.1160   48.4860 C   0  0  0  0  0  0  0  0  0  0  0  0
   61.9590   34.0270   49.5880 F   0  0  0  0  0  0  0  0  0  0  0  0
   61.6870   33.7770   47.2310 C   0  0  0  0  0  0  0  0  0  0  0  0
   60.8780   33.8670   46.0950 C   0  0  0  0  0  0  0  0  0  0  0  0
   57.8360   31.1840   43.9890 C   0  0  0  0  0  0  0  0  0  0  0  0
   57.5860   31.7380   42.6780 N   0  0  0  0  0  0  0  0  0  0  0  0
   58.2470   32.7050   42.2480 O   0  0  0  0  0  0  0  0  0  0  0  0
   56.6440   31.1690   41.8520 O   0  0  0  0  0  0  0  0  0  0  0  0
   58.0380   29.7980   44.1230 C   0  0  0  0  0  0  0  0  0  0  0  0
   57.4240   25.1710   47.1380 C   0  0  0  0  0  0  0  0  0  0  0  0
   57.4070   23.8780   47.5580 N   0  0  0  0  0  0  0  0  0  0  0  0
   57.4720   19.4682   46.8476 H   0  0  0  0  0  0  0  0  0  0  0  0
   56.5343   20.3899   45.6237 H   0  0  0  0  0  0  0  0  0  0  0  0
   58.3290   20.4653   45.6237 H   0  0  0  0  0  0  0  0  0  0  0  0
   57.3799   22.2550   44.5899 H   0  0  0  0  0  0  0  0  0  0  0  0
   57.3939   24.6153   43.7708 H   0  0  0  0  0  0  0  0  0  0  0  0
   56.6460   27.1160   44.6600 H   0  0  0  0  0  0  0  0  0  0  0  0
   58.5583   29.5993   47.4937 H   0  0  0  0  0  0  0  0  0  0  0  0
   58.1841   32.0469   47.2934 H   0  0  0  0  0  0  0  0  0  0  0  0
   59.2840   34.2668   44.0867 H   0  0  0  0  0  0  0  0  0  0  0  0
   58.1782   35.3824   44.9795 H   0  0  0  0  0  0  0  0  0  0  0  0
   57.9901   34.9621   47.5714 H   0  0  0  0  0  0  0  0  0  0  0  0
   59.4418   34.8033   49.5955 H   0  0  0  0  0  0  0  0  0  0  0  0
   62.7296   33.4390   47.1375 H   0  0  0  0  0  0  0  0  0  0  0  0
   61.2839   33.5924   45.1102 H   0  0  0  0  0  0  0  0  0  0  0  0
   57.9992   29.1586   43.2287 H   0  0  0  0  0  0  0  0  0  0  0  0
   57.4252   25.9868   47.8759 H   0  0  0  0  0  0  0  0  0  0  0  0
  1  2  1  0
  2  3  1  0
  3  4  2  0
  4  5  1  0
  5  6  2  0
  6  7  1  0
  7  8  1  0
  8  9  2  0
  8 10  1  0
 10 11  2  0
 11 12  1  0
 12 13  2  0
 13 14  1  0
 14 15  1  0
 15 16  1  0
 16 17  2  0
 17 18  1  0
 18 19  2  0
 19 20  1  0
 19 21  1  0
 21 22  2  0
 13 23  1  0
 23 24  1  0
 24 25  2  0
 24 26  1  0
 23 27  2  0
  6 28  1  0
 28 29  2  0
 29  3  1  0
 27 10  1  0
 22 16  1  0
  1 30  1  0
  1 31  1  0
  1 32  1  0
  4 33  1  0
  5 34  1  0
  7 35  1  0
 11 36  1  0
 12 37  1  0
 15 38  1  0
 15 39  1  0
 17 40  1  0
 18 41  1  0
 21 42  1  0
 22 43  1  0
 27 44  1  0
 28 45  1  0
M  CHG  2  24   1  26  -1
M  END
>  <UniqueID>  (45) 
42

>  <SMILES>  (45) 
COc1ccc(NC(=O)c2ccc(OCc3ccc(F)cc3)c([N+](=O)[O-])c2)cn1

>  <Energy>  (45) 
54.892022270611264

>  <Genealogy>  (45) 
COc1ccc(NC(=O)c2ccc(OCc3ccc(F)cc3)c([N+](=O)[O-])c2)cn1 (3D coordinates assigned)
COc1ccc(NC(=O)c2ccc(OCc3ccc(F)cc3)c([N+](=O)[O-])c2)cn1 (optimized conformer: 54.892022270611264 kcal/mol)

>  <smiles>  (45) 
COc1ccc(NC(=O)c2ccc(OCc3ccc(F)cc3)c([N+](=O)[O-])c2)cn1

>  <score_type>  (45) 
oracle

>  <origin>  (45) 
adg

>  <m_score__min__energy>  (45) 
-8.3000000000000007

>  <m_primary>  (45) 
energy

$$$$
45:0
     RDKit          3D

 52 54  0  0  0  0  0  0  0  0999 V2000
   58.4170   32.7160   41.3730 C   0  0  0  0  0  0  0  0  0  0  0  0
   58.3280   32.5320   42.7810 O   0  0  0  0  0  0  0  0  0  0  0  0
   57.6770   31.4560   43.4040 C   0  0  0  0  0  0  0  0  0  0  0  0
   56.8110   30.6040   42.6900 C   0  0  0  0  0  0  0  0  0  0  0  0
   56.2220   29.5050   43.3150 C   0  0  0  0  0  0  0  0  0  0  0  0
   56.4700   29.2410   44.6640 C   0  0  0  0  0  0  0  0  0  0  0  0
   55.9170   28.0580   45.2520 N   0  0  0  0  0  0  0  0  0  0  0  0
   56.8370   26.6900   45.7840 S   0  0  0  0  0  0  0  0  0  0  0  0
   57.2640   25.8810   44.5890 O   0  0  0  0  0  0  0  0  0  0  0  0
   55.9670   25.8440   46.6750 O   0  0  0  0  0  0  0  0  0  0  0  0
   58.2720   27.2340   46.6580 C   0  0  0  0  0  0  0  0  0  0  0  0
   59.5100   26.6090   46.4440 C   0  0  0  0  0  0  0  0  0  0  0  0
   60.6240   26.9800   47.2030 C   0  0  0  0  0  0  0  0  0  0  0  0
   60.5070   27.9700   48.1810 C   0  0  0  0  0  0  0  0  0  0  0  0
   59.2750   28.6030   48.4000 C   0  0  0  0  0  0  0  0  0  0  0  0
   59.1370   29.8650   49.6190 S   0  0  0  0  0  0  0  0  0  0  0  0
   58.5690   31.3200   48.8780 N   0  0  0  0  0  0  0  0  0  0  0  0
   58.1690   29.4400   50.6910 O   0  0  0  0  0  0  0  0  0  0  0  0
   60.4800   30.1080   50.2490 O   0  0  0  0  0  0  0  0  0  0  0  0
   58.1630   28.2430   47.6260 C   0  0  0  0  0  0  0  0  0  0  0  0
   57.2860   30.1180   45.3950 C   0  0  0  0  0  0  0  0  0  0  0  0
   57.9130   31.2090   44.7740 C   0  0  0  0  0  0  0  0  0  0  0  0
   58.8360   32.0170   45.5340 N   0  0  0  0  0  0  0  0  0  0  0  0
   59.9520   31.3560   46.2210 C   0  0  0  0  0  0  0  0  0  0  0  0
   60.9230   32.3830   46.7940 C   0  0  0  0  0  0  0  0  0  0  0  0
   60.1720   33.3660   47.5970 N   0  0  0  0  0  0  0  0  0  0  0  0
   61.0970   34.2780   48.2870 C   0  0  0  0  0  0  0  0  0  0  0  0
   59.1590   34.1250   46.8180 C   0  0  0  0  0  0  0  0  0  0  0  0
   58.7880   33.4830   45.4640 C   0  0  0  0  0  0  0  0  0  0  0  0
   58.8868   33.6873   41.1591 H   0  0  0  0  0  0  0  0  0  0  0  0
   59.0250   31.9104   40.9356 H   0  0  0  0  0  0  0  0  0  0  0  0
   57.4080   32.6925   40.9356 H   0  0  0  0  0  0  0  0  0  0  0  0
   56.5976   30.8075   41.6303 H   0  0  0  0  0  0  0  0  0  0  0  0
   55.5577   28.8417   42.7417 H   0  0  0  0  0  0  0  0  0  0  0  0
   59.6042   25.8256   45.6776 H   0  0  0  0  0  0  0  0  0  0  0  0
   61.5941   26.4913   47.0296 H   0  0  0  0  0  0  0  0  0  0  0  0
   61.3839   28.2541   48.7813 H   0  0  0  0  0  0  0  0  0  0  0  0
   59.3360   32.0230   48.9620 H   0  0  0  0  0  0  0  0  0  0  0  0
   57.7740   31.6690   49.4560 H   0  0  0  0  0  0  0  0  0  0  0  0
   57.2009   28.7540   47.7785 H   0  0  0  0  0  0  0  0  0  0  0  0
   57.4364   29.9476   46.4713 H   0  0  0  0  0  0  0  0  0  0  0  0
   59.5555   30.7387   47.0406 H   0  0  0  0  0  0  0  0  0  0  0  0
   60.4907   30.7299   45.4945 H   0  0  0  0  0  0  0  0  0  0  0  0
   61.6619   31.8751   47.4313 H   0  0  0  0  0  0  0  0  0  0  0  0
   61.4436   32.8974   45.9728 H   0  0  0  0  0  0  0  0  0  0  0  0
   60.9811   34.1638   49.3749 H   0  0  0  0  0  0  0  0  0  0  0  0
   62.1314   34.0366   48.0011 H   0  0  0  0  0  0  0  0  0  0  0  0
   60.8702   35.3157   48.0011 H   0  0  0  0  0  0  0  0  0  0  0  0
   58.2447   34.2023   47.4247 H   0  0  0  0  0  0  0  0  0  0  0  0
   59.6051   35.1045   46.5908 H   0  0  0  0  0  0  0  0  0  0  0  0
   57.7700   33.7948   45.1873 H   0  0  0  0  0  0  0  0  0  0  0  0
   59.5173   33.8173   44.7114 H   0  0  0  0  0  0  0  0  0  0  0  0
  1  2  1  0
  2  3  1  0
  3  4  2  0
  4  5  1  0
  5  6  2  0
  6  7  1  0
  7  8  1  0
  8  9  2  0
  8 10  2  0
  8 11  1  0
 11 12  2  0
 12 13  1  0
 13 14  2  0
 14 15  1  0
 15 16  1  0
 16 17  1  0
 16 18  2  0
 16 19  2  0
 15 20  2  0
  6 21  1  0
 21 22  2  0
 22 23  1  0
 23 24  1  0
 24 25  1  0
 25 26  1  0
 26 27  1  0
 26 28  1  0
 28 29  1  0
 22  3  1  0
 29 23  1  0
 20 11  1  0
  1 30  1  0
  1 31  1  0
  1 32  1  0
  4 33  1  0
  5 34  1  0
 12 35  1  0
 13 36  1  0
 14 37  1  0
 17 38  1  0
 17 39  1  0
 20 40  1  0
 21 41  1  0
 24 42  1  0
 24 43  1  0
 25 44  1  0
 25 45  1  0
 27 46  1  0
 27 47  1  0
 27 48  1  0
 28 49  1  0
 28 50  1  0
 29 51  1  0
 29 52  1  0
M  CHG  1   7  -1
M  END
>  <UniqueID>  (46) 
43

>  <SMILES>  (46) 
COc1ccc([N-]S(=O)(=O)c2cccc(S(N)(=O)=O)c2)cc1N1CCN(C)CC1

>  <Energy>  (46) 
62.29184366663832

>  <Genealogy>  (46) 
COc1ccc([N-]S(=O)(=O)c2cccc(S(N)(=O)=O)c2)cc1N1CCN(C)CC1 (protonated)
COc1ccc([N-]S(=O)(=O)c2cccc(S(N)(=O)=O)c2)cc1N1CCN(C)CC1 (3D coordinates assigned)
COc1ccc([N-]S(=O)(=O)c2cccc(S(N)(=O)=O)c2)cc1N1CCN(C)CC1 (nonaromatic ring conformer: 62.29184366663832 kcal/mol)

>  <smiles>  (46) 
COc1ccc(NS(=O)(=O)c2cccc(S(N)(=O)=O)c2)cc1N1CCN(C)CC1

>  <score_type>  (46) 
oracle

>  <origin>  (46) 
adg

>  <m_score__min__energy>  (46) 
-10.529999999999999

>  <m_primary>  (46) 
energy

$$$$
46:0
     RDKit          3D

 36 39  0  0  0  0  0  0  0  0999 V2000
   58.1010   21.4550   43.5390 C   0  0  0  0  0  0  0  0  0  0  0  0
   57.2280   22.5110   43.9220 O   0  0  0  0  0  0  0  0  0  0  0  0
   57.6550   23.7340   44.4590 C   0  0  0  0  0  0  0  0  0  0  0  0
   58.4640   23.7110   45.6200 C   0  0  0  0  0  0  0  0  0  0  0  0
   58.9210   24.9050   46.2040 C   0  0  0  0  0  0  0  0  0  0  0  0
   58.5540   26.1050   45.6040 C   0  0  0  0  0  0  0  0  0  0  0  0
   58.8470   27.4050   45.9500 C   0  0  0  0  0  0  0  0  0  0  0  0
   58.2110   28.1910   44.9860 C   0  0  0  0  0  0  0  0  0  0  0  0
   58.2370   29.6730   44.9350 C   0  0  0  0  0  0  0  0  0  0  0  0
   58.4690   30.4180   46.1040 C   0  0  0  0  0  0  0  0  0  0  0  0
   58.4880   31.8150   46.0470 C   0  0  0  0  0  0  0  0  0  0  0  0
   58.7160   32.5730   47.2070 C   0  0  0  0  0  0  0  0  0  0  0  0
   58.7330   33.9690   47.1420 C   0  0  0  0  0  0  0  0  0  0  0  0
   58.5220   34.6170   45.9230 C   0  0  0  0  0  0  0  0  0  0  0  0
   58.2930   33.8750   44.7610 C   0  0  0  0  0  0  0  0  0  0  0  0
   58.2730   32.4680   44.8120 C   0  0  0  0  0  0  0  0  0  0  0  0
   58.0430   31.6870   43.6640 C   0  0  0  0  0  0  0  0  0  0  0  0
   57.8500   32.2360   42.5440 O   0  0  0  0  0  0  0  0  0  0  0  0
   58.0300   30.3280   43.7530 N   0  0  0  0  0  0  0  0  0  0  0  0
   57.5570   27.4080   44.0900 N   0  0  0  0  0  0  0  0  0  0  0  0
   57.7750   26.1420   44.4800 C   0  0  0  0  0  0  0  0  0  0  0  0
   57.3020   24.9780   43.8770 C   0  0  0  0  0  0  0  0  0  0  0  0
   58.5039   20.9676   44.4391 H   0  0  0  0  0  0  0  0  0  0  0  0
   57.5448   20.7182   42.9409 H   0  0  0  0  0  0  0  0  0  0  0  0
   58.9293   21.8627   42.9409 H   0  0  0  0  0  0  0  0  0  0  0  0
   58.7387   22.7461   46.0712 H   0  0  0  0  0  0  0  0  0  0  0  0
   59.5490   24.8909   47.1070 H   0  0  0  0  0  0  0  0  0  0  0  0
   59.4515   27.7503   46.8017 H   0  0  0  0  0  0  0  0  0  0  0  0
   58.6353   29.9032   47.0618 H   0  0  0  0  0  0  0  0  0  0  0  0
   58.8817   32.0666   48.1694 H   0  0  0  0  0  0  0  0  0  0  0  0
   58.9130   34.5586   48.0530 H   0  0  0  0  0  0  0  0  0  0  0  0
   58.5361   35.7160   45.8772 H   0  0  0  0  0  0  0  0  0  0  0  0
   58.1279   34.3916   43.8040 H   0  0  0  0  0  0  0  0  0  0  0  0
   57.8730   29.7810   42.8770 H   0  0  0  0  0  0  0  0  0  0  0  0
   56.9790   27.7120   43.2760 H   0  0  0  0  0  0  0  0  0  0  0  0
   56.6730   25.0229   42.9757 H   0  0  0  0  0  0  0  0  0  0  0  0
  1  2  1  0
  2  3  1  0
  3  4  2  0
  4  5  1  0
  5  6  2  0
  6  7  1  0
  7  8  2  0
  8  9  1  0
  9 10  2  0
 10 11  1  0
 11 12  2  0
 12 13  1  0
 13 14  2  0
 14 15  1  0
 15 16  2  0
 16 17  1  0
 17 18  2  0
 17 19  1  0
  8 20  1  0
 20 21  1  0
 21 22  2  0
 22  3  1  0
 21  6  1  0
 19  9  1  0
 16 11  1  0
  1 23  1  0
  1 24  1  0
  1 25  1  0
  4 26  1  0
  5 27  1  0
  7 28  1  0
 10 29  1  0
 12 30  1  0
 13 31  1  0
 14 32  1  0
 15 33  1  0
 19 34  1  0
 20 35  1  0
 22 36  1  0
M  END
>  <UniqueID>  (47) 
44

>  <SMILES>  (47) 
COc1ccc2cc(-c3cc4ccccc4c(=O)[nH]3)[nH]c2c1

>  <Energy>  (47) 
79.73647447478871

>  <Genealogy>  (47) 
COc1ccc2cc(-c3cc4ccccc4c(=O)[nH]3)[nH]c2c1 (3D coordinates assigned)
COc1ccc2cc(-c3cc4ccccc4c(=O)[nH]3)[nH]c2c1 (optimized conformer: 79.73647447478871 kcal/mol)

>  <smiles>  (47) 
COc1ccc2cc(-c3cc4ccccc4c(=O)[nH]3)[nH]c2c1

>  <score_type>  (47) 
oracle

>  <origin>  (47) 
adg

>  <m_score__min__energy>  (47) 
-7.6299999999999999

>  <m_primary>  (47) 
energy

$$$$
47:0
     RDKit          3D

 47 50  0  0  0  0  0  0  0  0999 V2000
   65.9420   32.8980   50.2360 C   0  0  0  0  0  0  0  0  0  0  0  0
   64.8390   33.4700   49.5410 O   0  0  0  0  0  0  0  0  0  0  0  0
   63.8000   32.7290   48.9570 C   0  0  0  0  0  0  0  0  0  0  0  0
   63.3450   32.9680   47.6480 C   0  0  0  0  0  0  0  0  0  0  0  0
   62.3080   32.2010   47.1090 C   0  0  0  0  0  0  0  0  0  0  0  0
   61.7090   31.1750   47.8650 C   0  0  0  0  0  0  0  0  0  0  0  0
   60.6000   30.3540   47.3160 C   0  0  0  0  0  0  0  0  0  0  0  0
   60.3510   29.0300   47.7810 C   0  0  0  0  0  0  0  0  0  0  0  0
   59.2790   28.2880   47.2490 C   0  0  0  0  0  0  0  0  0  0  0  0
   59.0340   27.1210   47.6550 O   0  0  0  0  0  0  0  0  0  0  0  0
   58.5000   28.8950   46.2700 C   0  0  0  0  0  0  0  0  0  0  0  0
   57.3760   28.5190   45.5540 C   0  0  0  0  0  0  0  0  0  0  0  0
   56.6360   27.2270   45.6610 C   0  0  0  0  0  0  0  0  0  0  0  0
   56.9980   29.5500   44.7560 N   0  0  0  0  0  0  0  0  0  0  0  0
   57.8610   30.5440   44.9370 N   0  0  0  0  0  0  0  0  0  0  0  0
   57.7520   31.8570   44.3070 C   0  0  0  0  0  0  0  0  0  0  0  0
   57.0900   32.8460   45.2660 C   0  0  0  0  0  0  0  0  0  0  0  0
   58.1170   33.4830   46.1630 C   0  0  0  0  0  0  0  0  0  0  0  0
   59.0470   34.3970   45.6410 C   0  0  0  0  0  0  0  0  0  0  0  0
   60.0210   34.9610   46.4710 C   0  0  0  0  0  0  0  0  0  0  0  0
   60.0790   34.6110   47.8220 C   0  0  0  0  0  0  0  0  0  0  0  0
   59.1650   33.6920   48.3460 C   0  0  0  0  0  0  0  0  0  0  0  0
   58.1900   33.1240   47.5210 C   0  0  0  0  0  0  0  0  0  0  0  0
   58.7650   30.1620   45.8540 C   0  0  0  0  0  0  0  0  0  0  0  0
   59.7840   30.8980   46.3580 N   0  0  0  0  0  0  0  0  0  0  0  0
   62.1620   30.9500   49.1770 C   0  0  0  0  0  0  0  0  0  0  0  0
   63.1990   31.7180   49.7140 C   0  0  0  0  0  0  0  0  0  0  0  0
   65.7766   32.9838   51.3201 H   0  0  0  0  0  0  0  0  0  0  0  0
   66.0373   31.8368   49.9624 H   0  0  0  0  0  0  0  0  0  0  0  0
   66.8643   33.4315   49.9624 H   0  0  0  0  0  0  0  0  0  0  0  0
   63.8077   33.7630   47.0448 H   0  0  0  0  0  0  0  0  0  0  0  0
   61.9570   32.4006   46.0858 H   0  0  0  0  0  0  0  0  0  0  0  0
   60.9958   28.5881   48.5549 H   0  0  0  0  0  0  0  0  0  0  0  0
   56.4912   26.9742   46.7217 H   0  0  0  0  0  0  0  0  0  0  0  0
   55.6564   27.3238   45.1701 H   0  0  0  0  0  0  0  0  0  0  0  0
   57.2151   26.4310   45.1701 H   0  0  0  0  0  0  0  0  0  0  0  0
   58.7571   32.2201   44.0464 H   0  0  0  0  0  0  0  0  0  0  0  0
   57.1381   31.7706   43.3983 H   0  0  0  0  0  0  0  0  0  0  0  0
   56.5828   33.6295   44.6839 H   0  0  0  0  0  0  0  0  0  0  0  0
   56.3633   32.3036   45.8886 H   0  0  0  0  0  0  0  0  0  0  0  0
   59.0091   34.6700   44.5761 H   0  0  0  0  0  0  0  0  0  0  0  0
   60.7428   35.6816   46.0591 H   0  0  0  0  0  0  0  0  0  0  0  0
   60.8439   35.0585   48.4737 H   0  0  0  0  0  0  0  0  0  0  0  0
   59.2132   33.4154   49.4096 H   0  0  0  0  0  0  0  0  0  0  0  0
   57.4782   32.3946   47.9348 H   0  0  0  0  0  0  0  0  0  0  0  0
   61.6958   30.1620   49.7866 H   0  0  0  0  0  0  0  0  0  0  0  0
   63.5453   31.5258   50.7402 H   0  0  0  0  0  0  0  0  0  0  0  0
  1  2  1  0
  2  3  1  0
  3  4  2  0
  4  5  1  0
  5  6  2  0
  6  7  1  0
  7  8  2  0
  8  9  1  0
  9 10  2  0
  9 11  1  0
 11 12  1  0
 12 13  1  0
 12 14  2  0
 14 15  1  0
 15 16  1  0
 16 17  1  0
 17 18  1  0
 18 19  2  0
 19 20  1  0
 20 21  2  0
 21 22  1  0
 22 23  2  0
 15 24  1  0
 24 25  1  0
  6 26  1  0
 26 27  2  0
 27  3  1  0
 25  7  1  0
 24 11  2  0
 23 18  1  0
  1 28  1  0
  1 29  1  0
  1 30  1  0
  4 31  1  0
  5 32  1  0
  8 33  1  0
 13 34  1  0
 13 35  1  0
 13 36  1  0
 16 37  1  0
 16 38  1  0
 17 39  1  0
 17 40  1  0
 19 41  1  0
 20 42  1  0
 21 43  1  0
 22 44  1  0
 23 45  1  0
 26 46  1  0
 27 47  1  0
M  CHG  1  25  -1
M  END
>  <UniqueID>  (48) 
45

>  <SMILES>  (48) 
COc1ccc(-c2cc(=O)c3c(C)nn(CCc4ccccc4)c3[n-]2)cc1

>  <Energy>  (48) 
91.15444108039087

>  <Genealogy>  (48) 
COc1ccc(-c2cc(=O)c3c(C)nn(CCc4ccccc4)c3[n-]2)cc1 (protonated)
COc1ccc(-c2cc(=O)c3c(C)nn(CCc4ccccc4)c3[n-]2)cc1 (3D coordinates assigned)
COc1ccc(-c2cc(=O)c3c(C)nn(CCc4ccccc4)c3[n-]2)cc1 (optimized conformer: 91.15444108039087 kcal/mol)

>  <smiles>  (48) 
COc1ccc(-c2cc(=O)c3c(C)nn(CCc4ccccc4)c3[nH]2)cc1

>  <score_type>  (48) 
oracle

>  <origin>  (48) 
adg

>  <m_score__min__energy>  (48) 
-8.9700000000000006

>  <m_primary>  (48) 
energy

$$$$
48:0
     RDKit          3D

 46 48  0  0  0  0  0  0  0  0999 V2000
   57.5314   35.0834   46.6382 H   0  0  0  0  0  0  0  0  0  0  0  0
   57.9030   34.0850   46.3640 C   0  0  0  0  0  0  0  0  0  0  0  0
   57.3980   33.4430   45.2320 C   0  0  0  0  0  0  0  0  0  0  0  0
   56.6228   33.9340   44.6253 H   0  0  0  0  0  0  0  0  0  0  0  0
   57.8720   32.1780   44.8640 C   0  0  0  0  0  0  0  0  0  0  0  0
   57.3050   31.4750   43.6610 C   0  0  0  0  0  0  0  0  0  0  0  0
   58.1269   31.0479   43.0676 H   0  0  0  0  0  0  0  0  0  0  0  0
   56.7420   32.1978   43.0523 H   0  0  0  0  0  0  0  0  0  0  0  0
   56.3860   30.3780   44.0960 C   0  0  0  0  0  0  0  0  0  0  0  0
   55.3510   30.1330   43.4180 O   0  0  0  0  0  0  0  0  0  0  0  0
   56.6740   29.6670   45.3110 N   0  0  0  0  0  0  0  0  0  0  0  0
   56.9690   28.4070   45.4440 C   0  0  0  0  0  0  0  0  0  0  0  0
   56.0070   27.4690   45.6160 N   0  0  0  0  0  0  0  0  0  0  0  0
   56.5480   26.2280   45.7280 C   0  0  0  0  0  0  0  0  0  0  0  0
   55.8040   25.0600   45.9100 C   0  0  0  0  0  0  0  0  0  0  0  0
   54.4070   25.1450   45.9860 O   0  0  0  0  0  0  0  0  0  0  0  0
   53.5130   24.2460   45.3370 C   0  0  0  0  0  0  0  0  0  0  0  0
   52.9496   23.6795   46.0931 H   0  0  0  0  0  0  0  0  0  0  0  0
   52.8126   24.8154   44.7083 H   0  0  0  0  0  0  0  0  0  0  0  0
   54.0863   23.5488   44.7083 H   0  0  0  0  0  0  0  0  0  0  0  0
   56.5040   23.8320   46.0100 C   0  0  0  0  0  0  0  0  0  0  0  0
   55.9410   22.8979   46.1531 H   0  0  0  0  0  0  0  0  0  0  0  0
   57.9100   23.7890   45.9290 C   0  0  0  0  0  0  0  0  0  0  0  0
   58.5420   22.5400   46.0350 O   0  0  0  0  0  0  0  0  0  0  0  0
   58.4130   21.4910   45.0800 C   0  0  0  0  0  0  0  0  0  0  0  0
   58.2949   20.5309   45.6037 H   0  0  0  0  0  0  0  0  0  0  0  0
   57.5308   21.6756   44.4494 H   0  0  0  0  0  0  0  0  0  0  0  0
   59.3137   21.4564   44.4494 H   0  0  0  0  0  0  0  0  0  0  0  0
   58.6370   24.9860   45.7440 C   0  0  0  0  0  0  0  0  0  0  0  0
   59.7349   24.9745   45.6769 H   0  0  0  0  0  0  0  0  0  0  0  0
   57.9300   26.1780   45.6490 C   0  0  0  0  0  0  0  0  0  0  0  0
   58.5290   27.7310   45.4270 S   0  0  0  0  0  0  0  0  0  0  0  0
   58.8410   31.5480   45.6590 C   0  0  0  0  0  0  0  0  0  0  0  0
   59.2053   30.5474   45.3830 H   0  0  0  0  0  0  0  0  0  0  0  0
   59.3520   32.1840   46.8070 C   0  0  0  0  0  0  0  0  0  0  0  0
   60.3190   31.5810   47.6250 O   0  0  0  0  0  0  0  0  0  0  0  0
   60.5860   30.1830   47.6610 C   0  0  0  0  0  0  0  0  0  0  0  0
   60.6498   29.8487   48.7070 H   0  0  0  0  0  0  0  0  0  0  0  0
   59.7750   29.6416   47.1519 H   0  0  0  0  0  0  0  0  0  0  0  0
   61.5394   29.9786   47.1519 H   0  0  0  0  0  0  0  0  0  0  0  0
   58.8860   33.4610   47.1570 C   0  0  0  0  0  0  0  0  0  0  0  0
   59.4200   34.0750   48.3010 O   0  0  0  0  0  0  0  0  0  0  0  0
   60.8110   34.2550   48.5460 C   0  0  0  0  0  0  0  0  0  0  0  0
   60.9922   34.2785   49.6307 H   0  0  0  0  0  0  0  0  0  0  0  0
   61.3730   33.4221   48.0983 H   0  0  0  0  0  0  0  0  0  0  0  0
   61.1424   35.2035   48.0983 H   0  0  0  0  0  0  0  0  0  0  0  0
  1  2  1  0
  2  3  2  0
  3  4  1  0
  3  5  1  0
  5  6  1  0
  6  7  1  0
  6  8  1  0
  6  9  1  0
  9 10  2  0
  9 11  1  0
 11 12  2  0
 12 13  1  0
 13 14  1  0
 14 15  2  0
 15 16  1  0
 16 17  1  0
 17 18  1  0
 17 19  1  0
 17 20  1  0
 15 21  1  0
 21 22  1  0
 21 23  2  0
 23 24  1  0
 24 25  1  0
 25 26  1  0
 25 27  1  0
 25 28  1  0
 23 29  1  0
 29 30  1  0
 29 31  2  0
 31 32  1  0
  5 33  2  0
 33 34  1  0
 33 35  1  0
 35 36  1  0
 36 37  1  0
 37 38  1  0
 37 39  1  0
 37 40  1  0
 35 41  2  0
 41 42  1  0
 42 43  1  0
 43 44  1  0
 43 45  1  0
 43 46  1  0
 41  2  1  0
 32 12  1  0
 31 14  1  0
M  CHG  1  13  -1
M  END
>  <UniqueID>  (49) 
46

>  <SMILES>  (49) 
COc1cc(OC)c2[n-]/c(=N/C(=O)Cc3ccc(OC)c(OC)c3)sc2c1

>  <Energy>  (49) 
81.47945804619233

>  <Genealogy>  (49) 
COc1cc(OC)c2[n-]c(=NC(=O)Cc3ccc(OC)c(OC)c3)sc2c1 (protonated)
COc1cc(OC)c2[n-]/c(=N/C(=O)Cc3ccc(OC)c(OC)c3)sc2c1 (cis-trans isomerization)
COc1cc(OC)c2[n-]/c(=N/C(=O)Cc3ccc(OC)c(OC)c3)sc2c1 (3D coordinates assigned)
COc1cc(OC)c2[n-]/c(=N/C(=O)Cc3ccc(OC)c(OC)c3)sc2c1 (optimized conformer: 81.47945804619233 kcal/mol)

>  <smiles>  (49) 
COc1cc(OC)c2[nH]c(=NC(=O)Cc3ccc(OC)c(OC)c3)sc2c1

>  <score_type>  (49) 
oracle

>  <origin>  (49) 
adg

>  <m_score__min__energy>  (49) 
-9.5299999999999994

>  <m_primary>  (49) 
energy

$$$$
49:0
     RDKit          3D

 52 57  0  0  0  0  0  0  0  0999 V2000
   57.5670   27.6400   42.7620 N   0  0  0  0  0  0  0  0  0  0  0  0
   57.7470   28.7050   43.7080 C   0  0  0  0  0  0  0  0  0  0  0  0
   57.6160   29.9950   43.2770 N   0  0  0  0  0  0  0  0  0  0  0  0
   57.8170   31.0110   44.1450 C   0  0  0  0  0  0  0  0  0  0  0  0
   57.7670   32.6540   43.7960 S   0  0  0  0  0  0  0  0  0  0  0  0
   58.1830   33.1140   45.3670 C   0  0  0  0  0  0  0  0  0  0  0  0
   58.3390   31.9960   46.1780 C   0  0  0  0  0  0  0  0  0  0  0  0
   58.1480   30.7960   45.4660 C   0  0  0  0  0  0  0  0  0  0  0  0
   58.2770   29.4780   45.9130 C   0  0  0  0  0  0  0  0  0  0  0  0
   58.5740   29.2400   47.1160 O   0  0  0  0  0  0  0  0  0  0  0  0
   58.0750   28.4460   45.0260 N   0  0  0  0  0  0  0  0  0  0  0  0
   58.2110   27.0910   45.4920 C   0  0  0  0  0  0  0  0  0  0  0  0
   57.0690   26.3060   45.7150 C   0  0  0  0  0  0  0  0  0  0  0  0
   57.2020   24.9870   46.1610 C   0  0  0  0  0  0  0  0  0  0  0  0
   58.4720   24.4460   46.3820 C   0  0  0  0  0  0  0  0  0  0  0  0
   59.6130   25.2250   46.1590 C   0  0  0  0  0  0  0  0  0  0  0  0
   59.4840   26.5440   45.7120 C   0  0  0  0  0  0  0  0  0  0  0  0
   58.7520   32.1120   47.6190 C   0  0  0  0  0  0  0  0  0  0  0  0
   58.9230   33.5780   48.0870 C   0  0  0  0  0  0  0  0  0  0  0  0
   59.3130   34.5240   47.0150 N   0  0  0  0  0  0  0  0  0  0  0  0
   60.7630   34.6090   46.7160 C   0  0  0  0  0  0  0  0  0  0  0  0
   61.6270   33.7200   47.5820 C   0  0  0  0  0  0  0  0  0  0  0  0
   62.0340   32.4410   47.1190 C   0  0  0  0  0  0  0  0  0  0  0  0
   62.7810   31.5840   47.9480 C   0  0  0  0  0  0  0  0  0  0  0  0
   63.1260   32.0430   49.2140 C   0  0  0  0  0  0  0  0  0  0  0  0
   62.7760   33.2800   49.6490 C   0  0  0  0  0  0  0  0  0  0  0  0
   62.0410   34.1590   48.8600 C   0  0  0  0  0  0  0  0  0  0  0  0
   63.2490   33.4670   50.9340 O   0  0  0  0  0  0  0  0  0  0  0  0
   63.9370   32.2720   51.3310 C   0  0  0  0  0  0  0  0  0  0  0  0
   63.8350   31.3910   50.2040 O   0  0  0  0  0  0  0  0  0  0  0  0
   58.4150   34.5090   45.8430 C   0  0  0  0  0  0  0  0  0  0  0  0
   56.6490   27.1680   42.6190 H   0  0  0  0  0  0  0  0  0  0  0  0
   58.3800   27.2880   42.2100 H   0  0  0  0  0  0  0  0  0  0  0  0
   57.3820   30.2030   42.2800 H   0  0  0  0  0  0  0  0  0  0  0  0
   56.0687   26.7284   45.5389 H   0  0  0  0  0  0  0  0  0  0  0  0
   56.3058   24.3743   46.3382 H   0  0  0  0  0  0  0  0  0  0  0  0
   58.5744   23.4079   46.7312 H   0  0  0  0  0  0  0  0  0  0  0  0
   60.6120   24.7997   46.3354 H   0  0  0  0  0  0  0  0  0  0  0  0
   60.3820   27.1534   45.5327 H   0  0  0  0  0  0  0  0  0  0  0  0
   57.9831   31.6330   48.2430 H   0  0  0  0  0  0  0  0  0  0  0  0
   59.7306   31.6198   47.7198 H   0  0  0  0  0  0  0  0  0  0  0  0
   57.9669   33.9165   48.5127 H   0  0  0  0  0  0  0  0  0  0  0  0
   59.7442   33.5789   48.8189 H   0  0  0  0  0  0  0  0  0  0  0  0
   60.9161   34.3214   45.6654 H   0  0  0  0  0  0  0  0  0  0  0  0
   61.0684   35.6453   46.9227 H   0  0  0  0  0  0  0  0  0  0  0  0
   61.7629   32.1173   46.1033 H   0  0  0  0  0  0  0  0  0  0  0  0
   63.0823   30.5831   47.6054 H   0  0  0  0  0  0  0  0  0  0  0  0
   61.7892   35.1672   49.2207 H   0  0  0  0  0  0  0  0  0  0  0  0
   64.9913   32.4901   51.5566 H   0  0  0  0  0  0  0  0  0  0  0  0
   63.5043   31.8299   52.2406 H   0  0  0  0  0  0  0  0  0  0  0  0
   57.4510   34.9591   46.1223 H   0  0  0  0  0  0  0  0  0  0  0  0
   58.8867   35.0830   45.0318 H   0  0  0  0  0  0  0  0  0  0  0  0
  1  2  1  0
  2  3  2  0
  3  4  1  0
  4  5  1  0
  5  6  1  0
  6  7  2  0
  7  8  1  0
  8  9  1  0
  9 10  2  0
  9 11  1  0
 11 12  1  0
 12 13  2  0
 13 14  1  0
 14 15  2  0
 15 16  1  0
 16 17  2  0
  7 18  1  0
 18 19  1  0
 19 20  1  0
 20 21  1  0
 21 22  1  0
 22 23  2  0
 23 24  1  0
 24 25  2  0
 25 26  1  0
 26 27  2  0
 26 28  1  0
 28 29  1  0
 29 30  1  0
 20 31  1  0
 11  2  1  0
 17 12  1  0
 27 22  1  0
  8  4  2  0
 30 25  1  0
 31  6  1  0
  1 32  1  0
  1 33  1  0
  3 34  1  0
 13 35  1  0
 14 36  1  0
 15 37  1  0
 16 38  1  0
 17 39  1  0
 18 40  1  0
 18 41  1  0
 19 42  1  0
 19 43  1  0
 21 44  1  0
 21 45  1  0
 23 46  1  0
 24 47  1  0
 27 48  1  0
 29 49  1  0
 29 50  1  0
 31 51  1  0
 31 52  1  0
M  CHG  1   3   1
M  END
>  <UniqueID>  (50) 
47

>  <SMILES>  (50) 
Nc1[nH+]c2sc3c(c2c(=O)n1-c1ccccc1)CCN(Cc1ccc2c(c1)OCO2)C3

>  <Energy>  (50) 
138.22456616676678

>  <Genealogy>  (50) 
Nc1[nH+]c2sc3c(c2c(=O)n1-c1ccccc1)CCN(Cc1ccc2c(c1)OCO2)C3 (protonated)
Nc1[nH+]c2sc3c(c2c(=O)n1-c1ccccc1)CCN(Cc1ccc2c(c1)OCO2)C3 (3D coordinates assigned)
Nc1[nH+]c2sc3c(c2c(=O)n1-c1ccccc1)CCN(Cc1ccc2c(c1)OCO2)C3 (nonaromatic ring conformer: 138.22456616676678 kcal/mol)

>  <smiles>  (50) 
Nc1nc2sc3c(c2c(=O)n1-c1ccccc1)CCN(Cc1ccc2c(c1)OCO2)C3

>  <score_type>  (50) 
oracle

>  <origin>  (50) 
adg

>  <m_score__min__energy>  (50) 
-7.9199999999999999

>  <m_primary>  (50) 
energy

$$$$
50:0
     RDKit          3D

 31 32  0  0  0  0  0  0  0  0999 V2000
   55.1080   24.4930   45.4110 C   0  0  0  0  0  0  0  0  0  0  0  0
   55.4850   25.6580   46.1350 O   0  0  0  0  0  0  0  0  0  0  0  0
   56.8000   26.1330   46.1700 C   0  0  0  0  0  0  0  0  0  0  0  0
   57.7370   25.3720   46.5400 O   0  0  0  0  0  0  0  0  0  0  0  0
   57.0860   27.5290   45.7710 C   0  0  0  0  0  0  0  0  0  0  0  0
   58.3670   28.0700   45.9450 C   0  0  0  0  0  0  0  0  0  0  0  0
   58.6280   29.3960   45.5850 C   0  0  0  0  0  0  0  0  0  0  0  0
   60.3030   30.0200   45.8200 S   0  0  0  0  0  0  0  0  0  0  0  0
   59.7740   31.4590   46.7600 C   0  0  0  0  0  0  0  0  0  0  0  0
   58.9450   31.2930   47.8780 C   0  0  0  0  0  0  0  0  0  0  0  0
   58.5280   32.4060   48.6160 C   0  0  0  0  0  0  0  0  0  0  0  0
   58.9470   33.6880   48.2460 C   0  0  0  0  0  0  0  0  0  0  0  0
   59.7870   33.8560   47.1420 C   0  0  0  0  0  0  0  0  0  0  0  0
   60.2030   32.7450   46.4020 C   0  0  0  0  0  0  0  0  0  0  0  0
   57.6050   30.1710   44.9920 C   0  0  0  0  0  0  0  0  0  0  0  0
   57.8520   31.5000   44.4920 N   0  0  0  0  0  0  0  0  0  0  0  0
   58.5050   31.6820   43.4460 O   0  0  0  0  0  0  0  0  0  0  0  0
   57.4150   32.5980   45.1970 O   0  0  0  0  0  0  0  0  0  0  0  0
   56.3310   29.5880   44.8360 C   0  0  0  0  0  0  0  0  0  0  0  0
   55.3830   30.2560   44.3390 O   0  0  0  0  0  0  0  0  0  0  0  0
   56.1030   28.3030   45.2290 N   0  0  0  0  0  0  0  0  0  0  0  0
   54.8483   23.6905   46.1171 H   0  0  0  0  0  0  0  0  0  0  0  0
   54.2376   24.7203   44.7780 H   0  0  0  0  0  0  0  0  0  0  0  0
   55.9466   24.1673   44.7780 H   0  0  0  0  0  0  0  0  0  0  0  0
   59.1710   27.4488   46.3667 H   0  0  0  0  0  0  0  0  0  0  0  0
   58.6214   30.2848   48.1760 H   0  0  0  0  0  0  0  0  0  0  0  0
   57.8703   32.2727   49.4876 H   0  0  0  0  0  0  0  0  0  0  0  0
   58.6155   34.5635   48.8237 H   0  0  0  0  0  0  0  0  0  0  0  0
   60.1215   34.8638   46.8547 H   0  0  0  0  0  0  0  0  0  0  0  0
   60.8686   32.8802   45.5367 H   0  0  0  0  0  0  0  0  0  0  0  0
   55.1440   27.9090   45.1010 H   0  0  0  0  0  0  0  0  0  0  0  0
  1  2  1  0
  2  3  1  0
  3  4  2  0
  3  5  1  0
  5  6  2  0
  6  7  1  0
  7  8  1  0
  8  9  1  0
  9 10  2  0
 10 11  1  0
 11 12  2  0
 12 13  1  0
 13 14  2  0
  7 15  2  0
 15 16  1  0
 16 17  2  0
 16 18  1  0
 15 19  1  0
 19 20  2  0
 19 21  1  0
 21  5  1  0
 14  9  1  0
  1 22  1  0
  1 23  1  0
  1 24  1  0
  6 25  1  0
 10 26  1  0
 11 27  1  0
 12 28  1  0
 13 29  1  0
 14 30  1  0
 21 31  1  0
M  CHG  2  16   1  18  -1
M  END
>  <UniqueID>  (51) 
48

>  <SMILES>  (51) 
COC(=O)c1cc(Sc2ccccc2)c([N+](=O)[O-])c(=O)[nH]1

>  <Energy>  (51) 
33.78003524440288

>  <Genealogy>  (51) 
COC(=O)c1cc(Sc2ccccc2)c([N+](=O)[O-])c(=O)[nH]1 (3D coordinates assigned)
COC(=O)c1cc(Sc2ccccc2)c([N+](=O)[O-])c(=O)[nH]1 (optimized conformer: 33.78003524440288 kcal/mol)

>  <smiles>  (51) 
COC(=O)c1cc(Sc2ccccc2)c([N+](=O)[O-])c(=O)[nH]1

>  <score_type>  (51) 
oracle

>  <origin>  (51) 
adg

>  <m_score__min__energy>  (51) 
-6.9400000000000004

>  <m_primary>  (51) 
energy

$$$$
51:0
     RDKit          3D

 41 44  0  0  0  0  0  0  0  0999 V2000
   63.7920   33.1340   47.0580 C   0  0  0  0  0  0  0  0  0  0  0  0
   62.7450   33.6140   47.8950 O   0  0  0  0  0  0  0  0  0  0  0  0
   61.3800   33.5450   47.5770 C   0  0  0  0  0  0  0  0  0  0  0  0
   60.4970   34.6040   47.8450 C   0  0  0  0  0  0  0  0  0  0  0  0
   59.1600   34.4640   47.4850 C   0  0  0  0  0  0  0  0  0  0  0  0
   58.7310   33.3200   46.8990 N   0  0  0  0  0  0  0  0  0  0  0  0
   59.5850   32.2880   46.6550 C   0  0  0  0  0  0  0  0  0  0  0  0
   59.0910   31.0900   46.0280 N   0  0  0  0  0  0  0  0  0  0  0  0
   57.7960   31.1790   45.2750 C   0  0  0  0  0  0  0  0  0  0  0  0
   57.3980   29.7770   44.7690 C   0  0  1  0  0  0  0  0  0  0  0  0
   58.6620   29.1830   44.1360 C   0  0  0  0  0  0  0  0  0  0  0  0
   59.4100   28.6070   45.3130 C   0  0  1  0  0  0  0  0  0  0  0  0
   59.7740   29.7770   46.3100 C   0  0  0  0  0  0  0  0  0  0  0  0
   58.5180   27.5010   45.9200 C   0  0  0  0  0  0  0  0  0  0  0  0
   59.1310   26.4910   46.6710 C   0  0  0  0  0  0  0  0  0  0  0  0
   58.3660   25.4470   47.1800 C   0  0  0  0  0  0  0  0  0  0  0  0
   56.9970   25.4070   46.9380 C   0  0  0  0  0  0  0  0  0  0  0  0
   56.3900   26.4280   46.2000 C   0  0  0  0  0  0  0  0  0  0  0  0
   55.1470   26.3750   45.9970 O   0  0  0  0  0  0  0  0  0  0  0  0
   57.1350   27.4730   45.7120 N   0  0  0  0  0  0  0  0  0  0  0  0
   56.4300   28.5890   44.9870 C   0  0  0  0  0  0  0  0  0  0  0  0
   60.9030   32.4150   46.9860 N   0  0  0  0  0  0  0  0  0  0  0  0
   64.6158   32.7563   47.6814 H   0  0  0  0  0  0  0  0  0  0  0  0
   63.4102   32.3210   46.4230 H   0  0  0  0  0  0  0  0  0  0  0  0
   64.1588   33.9539   46.4230 H   0  0  0  0  0  0  0  0  0  0  0  0
   60.8548   35.5246   48.3292 H   0  0  0  0  0  0  0  0  0  0  0  0
   58.4508   35.2828   47.6763 H   0  0  0  0  0  0  0  0  0  0  0  0
   57.0103   31.5651   45.9411 H   0  0  0  0  0  0  0  0  0  0  0  0
   57.9162   31.8578   44.4178 H   0  0  0  0  0  0  0  0  0  0  0  0
   56.4351   30.2956   44.6510 H   0  0  0  0  0  0  0  0  0  0  0  0
   58.4059   28.3969   43.4104 H   0  0  0  0  0  0  0  0  0  0  0  0
   59.2502   29.9258   43.5773 H   0  0  0  0  0  0  0  0  0  0  0  0
   60.3686   28.1444   45.0355 H   0  0  0  0  0  0  0  0  0  0  0  0
   59.4956   29.4588   47.3255 H   0  0  0  0  0  0  0  0  0  0  0  0
   60.8520   29.9593   46.1893 H   0  0  0  0  0  0  0  0  0  0  0  0
   60.2145   26.5230   46.8580 H   0  0  0  0  0  0  0  0  0  0  0  0
   58.8434   24.6534   47.7736 H   0  0  0  0  0  0  0  0  0  0  0  0
   56.3929   24.5738   47.3264 H   0  0  0  0  0  0  0  0  0  0  0  0
   56.0774   28.2233   44.0113 H   0  0  0  0  0  0  0  0  0  0  0  0
   55.5753   28.9273   45.5912 H   0  0  0  0  0  0  0  0  0  0  0  0
   61.5800   31.6540   46.7580 H   0  0  0  0  0  0  0  0  0  0  0  0
  1  2  1  0
  2  3  1  0
  3  4  2  0
  4  5  1  0
  5  6  2  0
  6  7  1  0
  7  8  1  0
  8  9  1  0
  9 10  1  0
 10 11  1  0
 11 12  1  0
 12 13  1  0
 12 14  1  0
 14 15  2  0
 15 16  1  0
 16 17  2  0
 17 18  1  0
 18 19  2  0
 18 20  1  0
 20 21  1  0
  7 22  2  0
 22  3  1  0
 13  8  1  0
 20 14  1  0
 21 10  1  0
  1 23  1  0
  1 24  1  0
  1 25  1  0
  4 26  1  0
  5 27  1  0
  9 28  1  0
  9 29  1  0
 10 30  1  6
 11 31  1  0
 11 32  1  0
 12 33  1  6
 13 34  1  0
 13 35  1  0
 15 36  1  0
 16 37  1  0
 17 38  1  0
 21 39  1  0
 21 40  1  0
 22 41  1  0
M  CHG  1  22   1
M  END
>  <UniqueID>  (52) 
49

>  <SMILES>  (52) 
COc1ccnc(N2C[C@@H]3C[C@@H](C2)c2cccc(=O)n2C3)[nH+]1

>  <Energy>  (52) 
158.51138093898473

>  <Genealogy>  (52) 
COc1ccnc(N2CC3CC(C2)c2cccc(=O)n2C3)[nH+]1 (protonated)
COc1ccnc(N2C[C@@H]3C[C@@H](C2)c2cccc(=O)n2C3)[nH+]1 (chirality)
COc1ccnc(N2C[C@@H]3C[C@@H](C2)c2cccc(=O)n2C3)[nH+]1 (3D coordinates assigned)
COc1ccnc(N2C[C@@H]3C[C@@H](C2)c2cccc(=O)n2C3)[nH+]1 (nonaromatic ring conformer: 158.51138093898473 kcal/mol)

>  <smiles>  (52) 
COc1ccnc(N2CC3CC(C2)c2cccc(=O)n2C3)n1

>  <score_type>  (52) 
oracle

>  <origin>  (52) 
adg

>  <m_score__min__energy>  (52) 
-5.6500000000000004

>  <m_primary>  (52) 
energy

$$$$
52:0
     RDKit          3D

 39 41  0  0  0  0  0  0  0  0999 V2000
   60.7540   28.6380   45.2710 C   0  0  0  0  0  0  0  0  0  0  0  0
   60.1420   29.3430   46.4450 C   0  0  0  0  0  0  0  0  0  0  0  0
   59.9870   28.6740   47.6690 C   0  0  0  0  0  0  0  0  0  0  0  0
   59.4460   29.3420   48.7700 C   0  0  0  0  0  0  0  0  0  0  0  0
   59.0710   30.6830   48.6640 C   0  0  0  0  0  0  0  0  0  0  0  0
   59.2380   31.3720   47.4520 C   0  0  0  0  0  0  0  0  0  0  0  0
   58.8660   32.7630   47.3490 N   0  0  0  0  0  0  0  0  0  0  0  0
   57.6080   33.1180   46.6790 C   0  0  0  0  0  0  0  0  0  0  0  0
   57.6450   32.6880   45.2460 C   0  0  0  0  0  0  0  0  0  0  0  0
   57.0580   31.5410   44.7280 C   0  0  0  0  0  0  0  0  0  0  0  0
   57.3260   31.3520   43.3680 C   0  0  0  0  0  0  0  0  0  0  0  0
   58.1330   32.3390   42.8150 C   0  0  0  0  0  0  0  0  0  0  0  0
   58.5150   33.4460   44.0230 S   0  0  0  0  0  0  0  0  0  0  0  0
   59.8300   33.7960   47.6500 C   0  0  0  0  0  0  0  0  0  0  0  0
   59.4270   34.9480   47.9690 O   0  0  0  0  0  0  0  0  0  0  0  0
   61.2880   33.5360   47.5900 C   0  0  0  0  0  0  0  0  0  0  0  0
   61.9440   32.9410   48.6800 C   0  0  0  0  0  0  0  0  0  0  0  0
   63.3180   32.7000   48.6120 C   0  0  0  0  0  0  0  0  0  0  0  0
   64.0170   33.0300   47.4930 N   0  0  0  0  0  0  0  0  0  0  0  0
   63.4050   33.5930   46.4170 C   0  0  0  0  0  0  0  0  0  0  0  0
   62.0320   33.8520   46.4430 C   0  0  0  0  0  0  0  0  0  0  0  0
   59.7820   30.6960   46.3470 C   0  0  0  0  0  0  0  0  0  0  0  0
   61.4357   27.8527   45.6295 H   0  0  0  0  0  0  0  0  0  0  0  0
   59.9593   28.1834   44.6613 H   0  0  0  0  0  0  0  0  0  0  0  0
   61.3158   29.3609   44.6613 H   0  0  0  0  0  0  0  0  0  0  0  0
   60.2922   27.6213   47.7615 H   0  0  0  0  0  0  0  0  0  0  0  0
   59.3149   28.8099   49.7238 H   0  0  0  0  0  0  0  0  0  0  0  0
   58.6427   31.2020   49.5342 H   0  0  0  0  0  0  0  0  0  0  0  0
   56.7716   32.6159   47.1873 H   0  0  0  0  0  0  0  0  0  0  0  0
   57.4742   34.2090   46.7225 H   0  0  0  0  0  0  0  0  0  0  0  0
   56.4446   30.8512   45.3263 H   0  0  0  0  0  0  0  0  0  0  0  0
   56.9345   30.5016   42.7904 H   0  0  0  0  0  0  0  0  0  0  0  0
   58.4650   32.3881   41.7674 H   0  0  0  0  0  0  0  0  0  0  0  0
   61.3785   32.6662   49.5826 H   0  0  0  0  0  0  0  0  0  0  0  0
   63.8368   32.2415   49.4668 H   0  0  0  0  0  0  0  0  0  0  0  0
   65.0440   32.8430   47.4570 H   0  0  0  0  0  0  0  0  0  0  0  0
   63.9932   33.8456   45.5224 H   0  0  0  0  0  0  0  0  0  0  0  0
   61.5372   34.3011   45.5692 H   0  0  0  0  0  0  0  0  0  0  0  0
   59.9270   31.2316   45.3972 H   0  0  0  0  0  0  0  0  0  0  0  0
  1  2  1  0
  2  3  2  0
  3  4  1  0
  4  5  2  0
  5  6  1  0
  6  7  1  0
  7  8  1  0
  8  9  1  0
  9 10  2  0
 10 11  1  0
 11 12  2  0
 12 13  1  0
  7 14  1  0
 14 15  2  0
 14 16  1  0
 16 17  2  0
 17 18  1  0
 18 19  2  0
 19 20  1  0
 20 21  2  0
  6 22  2  0
 22  2  1  0
 13  9  1  0
 21 16  1  0
  1 23  1  0
  1 24  1  0
  1 25  1  0
  3 26  1  0
  4 27  1  0
  5 28  1  0
  8 29  1  0
  8 30  1  0
 10 31  1  0
 11 32  1  0
 12 33  1  0
 17 34  1  0
 18 35  1  0
 19 36  1  0
 20 37  1  0
 21 38  1  0
 22 39  1  0
M  CHG  1  19   1
M  END
>  <UniqueID>  (53) 
50

>  <SMILES>  (53) 
Cc1cccc(N(Cc2cccs2)C(=O)c2cc[nH+]cc2)c1

>  <Energy>  (53) 
73.02725565742985

>  <Genealogy>  (53) 
Cc1cccc(N(Cc2cccs2)C(=O)c2cc[nH+]cc2)c1 (protonated)
Cc1cccc(N(Cc2cccs2)C(=O)c2cc[nH+]cc2)c1 (3D coordinates assigned)
Cc1cccc(N(Cc2cccs2)C(=O)c2cc[nH+]cc2)c1 (optimized conformer: 73.02725565742985 kcal/mol)

>  <smiles>  (53) 
Cc1cccc(N(Cc2cccs2)C(=O)c2ccncc2)c1

>  <score_type>  (53) 
oracle

>  <origin>  (53) 
adg

>  <m_score__min__energy>  (53) 
-6.1399999999999997

>  <m_primary>  (53) 
energy

$$$$
53:0
     RDKit          3D

 23 25  0  0  0  0  0  0  0  0999 V2000
   55.5830   27.9170   44.8770 H   0  0  0  0  0  0  0  0  0  0  0  0
   55.5560   28.9590   44.8040 N   0  0  0  0  0  0  0  0  0  0  0  0
   56.5510   29.7270   45.1240 C   0  0  0  0  0  0  0  0  0  0  0  0
   56.4580   31.0540   44.8700 N   0  0  0  0  0  0  0  0  0  0  0  0
   57.4510   31.9310   45.1700 C   0  0  0  0  0  0  0  0  0  0  0  0
   57.2720   33.2870   44.8730 C   0  0  0  0  0  0  0  0  0  0  0  0
   56.3369   33.6257   44.4030 H   0  0  0  0  0  0  0  0  0  0  0  0
   58.2730   34.2100   45.1700 C   0  0  0  0  0  0  0  0  0  0  0  0
   58.1270   35.2744   44.9339 H   0  0  0  0  0  0  0  0  0  0  0  0
   59.4590   33.7850   45.7660 C   0  0  0  0  0  0  0  0  0  0  0  0
   60.2469   34.5165   45.9986 H   0  0  0  0  0  0  0  0  0  0  0  0
   59.6530   32.4340   46.0700 C   0  0  0  0  0  0  0  0  0  0  0  0
   60.5934   32.1111   46.5406 H   0  0  0  0  0  0  0  0  0  0  0  0
   58.6510   31.4780   45.7780 C   0  0  0  0  0  0  0  0  0  0  0  0
   58.7830   30.0880   46.0590 C   0  0  0  0  0  0  0  0  0  0  0  0
   57.7160   29.2160   45.7260 C   0  0  0  0  0  0  0  0  0  0  0  0
   57.8330   27.8860   45.9910 N   0  0  0  0  0  0  0  0  0  0  0  0
   58.9450   27.3720   46.5690 C   0  0  0  0  0  0  0  0  0  0  0  0
   59.0156   26.2935   46.7734 H   0  0  0  0  0  0  0  0  0  0  0  0
   59.9970   28.2190   46.9020 C   0  0  0  0  0  0  0  0  0  0  0  0
   60.9042   27.8120   47.3724 H   0  0  0  0  0  0  0  0  0  0  0  0
   59.9020   29.5510   46.6450 N   0  0  0  0  0  0  0  0  0  0  0  0
   60.7220   30.1300   46.9170 H   0  0  0  0  0  0  0  0  0  0  0  0
  1  2  1  0
  2  3  2  0
  3  4  1  0
  4  5  1  0
  5  6  2  0
  6  7  1  0
  6  8  1  0
  8  9  1  0
  8 10  2  0
 10 11  1  0
 10 12  1  0
 12 13  1  0
 12 14  2  0
 14 15  1  0
 15 16  2  0
 16 17  1  0
 17 18  2  0
 18 19  1  0
 18 20  1  0
 20 21  1  0
 20 22  2  0
 22 23  1  0
 16  3  1  0
 14  5  1  0
 22 15  1  0
M  CHG  2   4  -1  22   1
M  END
>  <UniqueID>  (54) 
51

>  <SMILES>  (54) 
[H]/N=c1/[n-]c2ccccc2c2[nH+]ccnc12

>  <Energy>  (54) 
38.59424546735778

>  <Genealogy>  (54) 
N=c1[n-]c2ccccc2c2[nH+]ccnc12 (protonated)
[H]/N=c1/[n-]c2ccccc2c2[nH+]ccnc12 (cis-trans isomerization)
[H]/N=c1/[n-]c2ccccc2c2[nH+]ccnc12 (3D coordinates assigned)
[H]/N=c1/[n-]c2ccccc2c2[nH+]ccnc12 (optimized conformer: 38.59424546735778 kcal/mol)

>  <smiles>  (54) 
N=c1[nH]c2ccccc2c2nccnc12

>  <score_type>  (54) 
oracle

>  <origin>  (54) 
adg

>  <m_score__min__energy>  (54) 
-6.6900000000000004

>  <m_primary>  (54) 
energy

$$$$
54:0
     RDKit          3D

 41 42  0  0  0  0  0  0  0  0999 V2000
   62.1010   27.8030   51.8880 N   0  0  0  0  0  0  0  0  0  0  0  0
   60.8450   28.3500   51.4920 C   0  0  0  0  0  0  0  0  0  0  0  0
   59.8810   28.3330   52.3030 O   0  0  0  0  0  0  0  0  0  0  0  0
   60.6940   28.9160   50.1810 N   0  0  0  0  0  0  0  0  0  0  0  0
   59.4720   29.4870   49.6870 C   0  0  0  0  0  0  0  0  0  0  0  0
   58.4260   29.4850   50.3910 O   0  0  0  0  0  0  0  0  0  0  0  0
   59.4350   30.0880   48.3140 C   0  0  0  0  0  0  0  0  0  0  0  0
   60.7570   29.9720   47.6590 N   0  0  0  0  0  0  0  0  0  0  0  0
   60.6400   29.5570   46.2470 C   0  0  0  0  0  0  0  0  0  0  0  0
   59.1910   29.4010   45.8650 C   0  0  0  0  0  0  0  0  0  0  0  0
   58.5230   28.1930   46.1270 C   0  0  0  0  0  0  0  0  0  0  0  0
   57.1740   28.0460   45.7920 C   0  0  0  0  0  0  0  0  0  0  0  0
   56.4810   29.1030   45.1920 C   0  0  0  0  0  0  0  0  0  0  0  0
   55.1410   28.9560   44.8600 O   0  0  0  0  0  0  0  0  0  0  0  0
   57.1400   30.3090   44.9280 C   0  0  0  0  0  0  0  0  0  0  0  0
   58.4890   30.4590   45.2630 C   0  0  0  0  0  0  0  0  0  0  0  0
   61.6070   31.1770   47.8300 C   0  0  0  0  0  0  0  0  0  0  0  0
   60.8500   32.4870   47.7310 C   0  0  0  0  0  0  0  0  0  0  0  0
   60.7110   33.3190   48.8550 C   0  0  0  0  0  0  0  0  0  0  0  0
   60.0120   34.5260   48.7580 C   0  0  0  0  0  0  0  0  0  0  0  0
   59.4390   34.9080   47.5430 C   0  0  0  0  0  0  0  0  0  0  0  0
   59.5570   34.0810   46.4220 C   0  0  0  0  0  0  0  0  0  0  0  0
   58.8290   34.5560   44.8990 Cl  0  0  0  0  0  0  0  0  0  0  0  0
   60.2550   32.8710   46.5170 C   0  0  0  0  0  0  0  0  0  0  0  0
   62.9140   27.8090   51.2320 H   0  0  0  0  0  0  0  0  0  0  0  0
   62.2210   27.3900   52.8400 H   0  0  0  0  0  0  0  0  0  0  0  0
   61.5260   28.9160   49.5500 H   0  0  0  0  0  0  0  0  0  0  0  0
   58.6838   29.5599   47.7083 H   0  0  0  0  0  0  0  0  0  0  0  0
   59.1740   31.1531   48.4000 H   0  0  0  0  0  0  0  0  0  0  0  0
   61.1042   30.3202   45.6050 H   0  0  0  0  0  0  0  0  0  0  0  0
   61.1503   28.5915   46.1149 H   0  0  0  0  0  0  0  0  0  0  0  0
   59.0642   27.3591   46.5979 H   0  0  0  0  0  0  0  0  0  0  0  0
   56.6565   27.0980   46.0004 H   0  0  0  0  0  0  0  0  0  0  0  0
   56.5957   31.1403   44.4561 H   0  0  0  0  0  0  0  0  0  0  0  0
   59.0029   31.4090   45.0545 H   0  0  0  0  0  0  0  0  0  0  0  0
   62.0825   31.1267   48.8206 H   0  0  0  0  0  0  0  0  0  0  0  0
   62.3375   31.1695   47.0076 H   0  0  0  0  0  0  0  0  0  0  0  0
   61.1544   33.0191   49.8160 H   0  0  0  0  0  0  0  0  0  0  0  0
   59.9132   35.1758   49.6401 H   0  0  0  0  0  0  0  0  0  0  0  0
   58.8942   35.8607   47.4680 H   0  0  0  0  0  0  0  0  0  0  0  0
   60.3382   32.2171   45.6364 H   0  0  0  0  0  0  0  0  0  0  0  0
  1  2  1  0
  2  3  2  0
  2  4  1  0
  4  5  1  0
  5  6  2  0
  5  7  1  0
  7  8  1  0
  8  9  1  0
  9 10  1  0
 10 11  2  0
 11 12  1  0
 12 13  2  0
 13 14  1  0
 13 15  1  0
 15 16  2  0
  8 17  1  0
 17 18  1  0
 18 19  2  0
 19 20  1  0
 20 21  2  0
 21 22  1  0
 22 23  1  0
 22 24  2  0
 16 10  1  0
 24 18  1  0
  1 25  1  0
  1 26  1  0
  4 27  1  0
  7 28  1  0
  7 29  1  0
  9 30  1  0
  9 31  1  0
 11 32  1  0
 12 33  1  0
 15 34  1  0
 16 35  1  0
 17 36  1  0
 17 37  1  0
 19 38  1  0
 20 39  1  0
 21 40  1  0
 24 41  1  0
M  CHG  1  14  -1
M  END
>  <UniqueID>  (55) 
52

>  <SMILES>  (55) 
NC(=O)NC(=O)CN(Cc1ccc([O-])cc1)Cc1cccc(Cl)c1

>  <Energy>  (55) 
41.71053094797953

>  <Genealogy>  (55) 
NC(=O)NC(=O)CN(Cc1ccc([O-])cc1)Cc1cccc(Cl)c1 (protonated)
NC(=O)NC(=O)CN(Cc1ccc([O-])cc1)Cc1cccc(Cl)c1 (3D coordinates assigned)
NC(=O)NC(=O)CN(Cc1ccc([O-])cc1)Cc1cccc(Cl)c1 (optimized conformer: 41.71053094797953 kcal/mol)

>  <smiles>  (55) 
NC(=O)NC(=O)CN(Cc1ccc(O)cc1)Cc1cccc(Cl)c1

>  <score_type>  (55) 
oracle

>  <origin>  (55) 
adg

>  <m_score__min__energy>  (55) 
-10.31

>  <m_primary>  (55) 
energy

$$$$
55:0
     RDKit          3D

 48 49  0  0  0  0  0  0  0  0999 V2000
   56.0690   24.2330   44.7900 C   0  0  0  0  0  0  0  0  0  0  0  0
   54.8870   24.7790   45.5850 C   0  0  0  0  0  0  0  0  0  0  0  0
   55.1900   26.0650   46.1210 O   0  0  0  0  0  0  0  0  0  0  0  0
   56.4940   26.5370   46.3060 C   0  0  0  0  0  0  0  0  0  0  0  0
   57.2790   25.9640   47.1100 O   0  0  0  0  0  0  0  0  0  0  0  0
   56.9550   27.7400   45.5450 C   0  0  0  0  0  0  0  0  0  0  0  0
   55.8240   28.6080   45.2410 N   0  0  0  0  0  0  0  0  0  0  0  0
   55.8420   29.5980   44.2060 C   0  0  0  0  0  0  0  0  0  0  0  0
   54.8840   29.6950   43.3940 O   0  0  0  0  0  0  0  0  0  0  0  0
   56.9740   30.5680   44.1340 C   0  0  0  0  0  0  0  0  0  0  0  0
   57.1300   31.1950   45.4040 O   0  0  0  0  0  0  0  0  0  0  0  0
   58.3480   31.6690   45.9150 C   0  0  0  0  0  0  0  0  0  0  0  0
   59.3290   30.8010   46.4330 C   0  0  0  0  0  0  0  0  0  0  0  0
   60.5230   31.3140   46.9470 C   0  0  0  0  0  0  0  0  0  0  0  0
   60.7600   32.6930   46.9480 C   0  0  0  0  0  0  0  0  0  0  0  0
   62.2540   33.3280   47.6370 S   0  0  0  0  0  0  0  0  0  0  0  0
   63.1090   33.8570   46.5190 O   0  0  0  0  0  0  0  0  0  0  0  0
   61.9310   34.4640   48.5660 O   0  0  0  0  0  0  0  0  0  0  0  0
   63.0900   32.0430   48.4860 N   0  0  0  0  0  0  0  0  0  0  0  0
   64.4090   32.4840   48.9800 C   0  0  0  0  0  0  0  0  0  0  0  0
   64.2900   33.4440   50.1910 C   0  0  0  0  0  0  0  0  0  0  0  0
   63.0210   33.4050   50.8230 O   0  0  0  0  0  0  0  0  0  0  0  0
   62.5810   32.0700   50.9540 C   0  0  0  0  0  0  0  0  0  0  0  0
   62.2570   31.4670   49.5730 C   0  0  0  0  0  0  0  0  0  0  0  0
   59.7910   33.5590   46.4250 C   0  0  0  0  0  0  0  0  0  0  0  0
   58.5910   33.0530   45.9150 C   0  0  0  0  0  0  0  0  0  0  0  0
   57.3920   34.1670   45.2770 Cl  0  0  0  0  0  0  0  0  0  0  0  0
   56.8437   23.8751   45.4841 H   0  0  0  0  0  0  0  0  0  0  0  0
   55.7311   23.3997   44.1564 H   0  0  0  0  0  0  0  0  0  0  0  0
   56.4844   25.0304   44.1564 H   0  0  0  0  0  0  0  0  0  0  0  0
   54.0131   24.8611   44.9220 H   0  0  0  0  0  0  0  0  0  0  0  0
   54.6726   24.0913   46.4164 H   0  0  0  0  0  0  0  0  0  0  0  0
   57.6862   28.2950   46.1511 H   0  0  0  0  0  0  0  0  0  0  0  0
   57.4190   27.4124   44.6030 H   0  0  0  0  0  0  0  0  0  0  0  0
   57.8995   30.0356   43.8695 H   0  0  0  0  0  0  0  0  0  0  0  0
   56.7631   31.3286   43.3678 H   0  0  0  0  0  0  0  0  0  0  0  0
   59.1546   29.7149   46.4329 H   0  0  0  0  0  0  0  0  0  0  0  0
   61.2816   30.6290   47.3535 H   0  0  0  0  0  0  0  0  0  0  0  0
   63.2590   31.2910   47.7760 H   0  0  0  0  0  0  0  0  0  0  0  0
   64.9869   31.5991   49.2849 H   0  0  0  0  0  0  0  0  0  0  0  0
   64.9097   33.0283   48.1657 H   0  0  0  0  0  0  0  0  0  0  0  0
   65.0557   33.1674   50.9307 H   0  0  0  0  0  0  0  0  0  0  0  0
   64.4287   34.4658   49.8079 H   0  0  0  0  0  0  0  0  0  0  0  0
   63.3723   31.4739   51.4320 H   0  0  0  0  0  0  0  0  0  0  0  0
   61.6694   32.0561   51.5695 H   0  0  0  0  0  0  0  0  0  0  0  0
   62.4321   30.3818   49.6130 H   0  0  0  0  0  0  0  0  0  0  0  0
   61.2065   31.7016   49.3463 H   0  0  0  0  0  0  0  0  0  0  0  0
   59.9750   34.6435   46.4154 H   0  0  0  0  0  0  0  0  0  0  0  0
  1  2  1  0
  2  3  1  0
  3  4  1  0
  4  5  2  0
  4  6  1  0
  6  7  1  0
  7  8  1  0
  8  9  2  0
  8 10  1  0
 10 11  1  0
 11 12  1  0
 12 13  2  0
 13 14  1  0
 14 15  2  0
 15 16  1  0
 16 17  2  0
 16 18  2  0
 16 19  1  0
 19 20  1  0
 20 21  1  0
 21 22  1  0
 22 23  1  0
 23 24  1  0
 15 25  1  0
 25 26  2  0
 26 27  1  0
 26 12  1  0
 24 19  1  0
  1 28  1  0
  1 29  1  0
  1 30  1  0
  2 31  1  0
  2 32  1  0
  6 33  1  0
  6 34  1  0
 10 35  1  0
 10 36  1  0
 13 37  1  0
 14 38  1  0
 19 39  1  0
 20 40  1  0
 20 41  1  0
 21 42  1  0
 21 43  1  0
 23 44  1  0
 23 45  1  0
 24 46  1  0
 24 47  1  0
 25 48  1  0
M  CHG  2   7  -1  19   1
M  END
>  <UniqueID>  (56) 
53

>  <SMILES>  (56) 
CCOC(=O)C[N-]C(=O)COc1ccc(S(=O)(=O)[NH+]2CCOCC2)cc1Cl

>  <Energy>  (56) 
48.980560811204214

>  <Genealogy>  (56) 
CCOC(=O)C[N-]C(=O)COc1ccc(S(=O)(=O)[NH+]2CCOCC2)cc1Cl (protonated)
CCOC(=O)C[N-]C(=O)COc1ccc(S(=O)(=O)[NH+]2CCOCC2)cc1Cl (3D coordinates assigned)
CCOC(=O)C[N-]C(=O)COc1ccc(S(=O)(=O)[NH+]2CCOCC2)cc1Cl (nonaromatic ring conformer: 48.980560811204214 kcal/mol)

>  <smiles>  (56) 
CCOC(=O)CNC(=O)COc1ccc(S(=O)(=O)N2CCOCC2)cc1Cl

>  <score_type>  (56) 
oracle

>  <origin>  (56) 
adg

>  <m_score__min__energy>  (56) 
-9.1799999999999997

>  <m_primary>  (56) 
energy

$$$$
56:0
     RDKit          3D

 38 40  0  0  0  0  0  0  0  0999 V2000
   55.3520   29.7610   44.8600 O   0  0  0  0  0  0  0  0  0  0  0  0
   56.6280   29.9310   44.0830 S   0  0  0  0  0  0  0  0  0  0  0  0
   56.4430   29.3520   42.7080 O   0  0  0  0  0  0  0  0  0  0  0  0
   56.9860   31.6240   43.9460 N   0  0  0  0  0  0  0  0  0  0  0  0
   57.8070   32.3510   44.8790 C   0  0  0  0  0  0  0  0  0  0  0  0
   57.9480   31.9490   46.2200 C   0  0  0  0  0  0  0  0  0  0  0  0
   58.7590   32.6750   47.0960 C   0  0  0  0  0  0  0  0  0  0  0  0
   59.4290   33.8270   46.6530 C   0  0  0  0  0  0  0  0  0  0  0  0
   60.2650   34.5730   47.4970 O   0  0  0  0  0  0  0  0  0  0  0  0
   61.5020   34.1440   48.0020 C   0  0  0  0  0  0  0  0  0  0  0  0
   61.7330   34.2320   49.3810 C   0  0  0  0  0  0  0  0  0  0  0  0
   62.9470   33.8030   49.9240 C   0  0  0  0  0  0  0  0  0  0  0  0
   63.9370   33.2680   49.0930 C   0  0  0  0  0  0  0  0  0  0  0  0
   65.4590   32.7260   49.7740 Cl  0  0  0  0  0  0  0  0  0  0  0  0
   63.7070   33.1570   47.7180 C   0  0  0  0  0  0  0  0  0  0  0  0
   62.4930   33.5870   47.1730 C   0  0  0  0  0  0  0  0  0  0  0  0
   59.3020   34.2210   45.3170 C   0  0  0  0  0  0  0  0  0  0  0  0
   58.4920   33.4940   44.4390 C   0  0  0  0  0  0  0  0  0  0  0  0
   57.9570   29.0930   44.8760 C   0  0  0  0  0  0  0  0  0  0  0  0
   57.6940   28.1650   45.8930 C   0  0  0  0  0  0  0  0  0  0  0  0
   58.7470   27.4900   46.5170 C   0  0  0  0  0  0  0  0  0  0  0  0
   60.0660   27.7420   46.1330 C   0  0  0  0  0  0  0  0  0  0  0  0
   60.3350   28.6710   45.1240 C   0  0  0  0  0  0  0  0  0  0  0  0
   59.2840   29.3470   44.4960 C   0  0  0  0  0  0  0  0  0  0  0  0
   56.6280   32.1150   43.0960 H   0  0  0  0  0  0  0  0  0  0  0  0
   57.4159   31.0567   46.5813 H   0  0  0  0  0  0  0  0  0  0  0  0
   58.8733   32.3425   48.1383 H   0  0  0  0  0  0  0  0  0  0  0  0
   60.9537   34.6414   50.0406 H   0  0  0  0  0  0  0  0  0  0  0  0
   63.1244   33.8861   51.0064 H   0  0  0  0  0  0  0  0  0  0  0  0
   64.4822   32.7308   47.0642 H   0  0  0  0  0  0  0  0  0  0  0  0
   62.3122   33.4894   46.0924 H   0  0  0  0  0  0  0  0  0  0  0  0
   59.8425   35.1080   44.9548 H   0  0  0  0  0  0  0  0  0  0  0  0
   58.3908   33.8211   43.3937 H   0  0  0  0  0  0  0  0  0  0  0  0
   56.6566   27.9675   46.2008 H   0  0  0  0  0  0  0  0  0  0  0  0
   58.5365   26.7592   47.3117 H   0  0  0  0  0  0  0  0  0  0  0  0
   60.8932   27.2092   46.6248 H   0  0  0  0  0  0  0  0  0  0  0  0
   61.3742   28.8706   44.8236 H   0  0  0  0  0  0  0  0  0  0  0  0
   59.4977   30.0788   43.7031 H   0  0  0  0  0  0  0  0  0  0  0  0
  1  2  2  0
  2  3  2  0
  2  4  1  0
  4  5  1  0
  5  6  2  0
  6  7  1  0
  7  8  2  0
  8  9  1  0
  9 10  1  0
 10 11  2  0
 11 12  1  0
 12 13  2  0
 13 14  1  0
 13 15  1  0
 15 16  2  0
  8 17  1  0
 17 18  2  0
  2 19  1  0
 19 20  2  0
 20 21  1  0
 21 22  2  0
 22 23  1  0
 23 24  2  0
 18  5  1  0
 24 19  1  0
 16 10  1  0
  4 25  1  0
  6 26  1  0
  7 27  1  0
 11 28  1  0
 12 29  1  0
 15 30  1  0
 16 31  1  0
 17 32  1  0
 18 33  1  0
 20 34  1  0
 21 35  1  0
 22 36  1  0
 23 37  1  0
 24 38  1  0
M  END
>  <UniqueID>  (57) 
54

>  <SMILES>  (57) 
O=S(=O)(Nc1ccc(Oc2ccc(Cl)cc2)cc1)c1ccccc1

>  <Energy>  (57) 
49.86335898506702

>  <Genealogy>  (57) 
O=S(=O)(Nc1ccc(Oc2ccc(Cl)cc2)cc1)c1ccccc1 (3D coordinates assigned)
O=S(=O)(Nc1ccc(Oc2ccc(Cl)cc2)cc1)c1ccccc1 (optimized conformer: 49.86335898506702 kcal/mol)

>  <smiles>  (57) 
O=S(=O)(Nc1ccc(Oc2ccc(Cl)cc2)cc1)c1ccccc1

>  <score_type>  (57) 
oracle

>  <origin>  (57) 
adg

>  <m_score__min__energy>  (57) 
-8.8499999999999996

>  <m_primary>  (57) 
energy

$$$$
57:0
     RDKit          3D

 55 59  0  0  0  0  0  0  0  0999 V2000
   57.3280   30.7700   45.6010 O   0  0  0  0  0  0  0  0  0  0  0  0
   58.1690   30.9840   46.5160 C   0  0  0  0  0  0  0  0  0  0  0  0
   58.7210   32.3450   46.6620 C   0  0  0  0  0  0  0  0  0  0  0  0
   59.5350   32.8870   45.6540 C   0  0  0  0  0  0  0  0  0  0  0  0
   60.0860   34.1630   45.8030 C   0  0  0  0  0  0  0  0  0  0  0  0
   59.8170   34.9120   46.9520 C   0  0  0  0  0  0  0  0  0  0  0  0
   58.9880   34.3890   47.9490 C   0  0  0  0  0  0  0  0  0  0  0  0
   58.4360   33.1130   47.8040 C   0  0  0  0  0  0  0  0  0  0  0  0
   58.5680   29.9080   47.3910 N   0  0  0  0  0  0  0  0  0  0  0  0
   58.6420   28.5620   46.9000 C   0  0  0  0  0  0  0  0  0  0  0  0
   59.8910   27.9720   46.6690 C   0  0  0  0  0  0  0  0  0  0  0  0
   59.9750   26.6710   46.1680 C   0  0  0  0  0  0  0  0  0  0  0  0
   58.8080   25.9480   45.8790 C   0  0  0  0  0  0  0  0  0  0  0  0
   58.8860   24.6790   45.3910 N   0  0  0  0  0  0  0  0  0  0  0  0
   57.7620   23.9710   45.0930 C   0  0  0  0  0  0  0  0  0  0  0  0
   56.5210   24.5170   45.2880 N   0  0  0  0  0  0  0  0  0  0  0  0
   56.3970   25.7860   45.7960 C   0  0  0  0  0  0  0  0  0  0  0  0
   55.2530   26.2820   45.9990 O   0  0  0  0  0  0  0  0  0  0  0  0
   57.5460   26.5380   46.0960 C   0  0  0  0  0  0  0  0  0  0  0  0
   57.4710   27.8480   46.6040 C   0  0  0  0  0  0  0  0  0  0  0  0
   55.3410   23.6810   45.0020 C   0  0  0  0  0  0  0  0  0  0  0  0
   55.4900   22.9720   43.6460 C   0  0  0  0  0  0  0  0  0  0  0  0
   56.8860   22.3400   43.4200 C   0  0  0  0  0  0  0  0  0  0  0  0
   57.8690   22.5600   44.5780 C   0  0  0  0  0  0  0  0  0  0  0  0
   59.1620   30.2180   49.0000 S   0  0  0  0  0  0  0  0  0  0  0  0
   58.1130   30.9480   49.7910 O   0  0  0  0  0  0  0  0  0  0  0  0
   59.4660   28.9150   49.6880 O   0  0  0  0  0  0  0  0  0  0  0  0
   60.6520   31.1550   48.9280 C   0  0  0  0  0  0  0  0  0  0  0  0
   60.9460   32.0640   49.9540 C   0  0  0  0  0  0  0  0  0  0  0  0
   62.1520   32.7690   49.9440 C   0  0  0  0  0  0  0  0  0  0  0  0
   63.0710   32.5730   48.9070 C   0  0  0  0  0  0  0  0  0  0  0  0
   64.5880   33.4530   48.9010 Cl  0  0  0  0  0  0  0  0  0  0  0  0
   62.7790   31.6710   47.8770 C   0  0  0  0  0  0  0  0  0  0  0  0
   61.5730   30.9640   47.8860 C   0  0  0  0  0  0  0  0  0  0  0  0
   59.7398   32.3049   44.7434 H   0  0  0  0  0  0  0  0  0  0  0  0
   60.7319   34.5780   45.0152 H   0  0  0  0  0  0  0  0  0  0  0  0
   60.2575   35.9128   47.0719 H   0  0  0  0  0  0  0  0  0  0  0  0
   58.7698   34.9826   48.8490 H   0  0  0  0  0  0  0  0  0  0  0  0
   57.7765   32.7087   48.5861 H   0  0  0  0  0  0  0  0  0  0  0  0
   60.8106   28.5362   46.8833 H   0  0  0  0  0  0  0  0  0  0  0  0
   60.9601   26.2114   45.9994 H   0  0  0  0  0  0  0  0  0  0  0  0
   59.8240   24.2400   45.2420 H   0  0  0  0  0  0  0  0  0  0  0  0
   56.4889   28.3149   46.7700 H   0  0  0  0  0  0  0  0  0  0  0  0
   55.2338   22.9254   45.7942 H   0  0  0  0  0  0  0  0  0  0  0  0
   54.4514   24.3271   44.9662 H   0  0  0  0  0  0  0  0  0  0  0  0
   54.7348   22.1744   43.5870 H   0  0  0  0  0  0  0  0  0  0  0  0
   55.3558   23.7380   42.8680 H   0  0  0  0  0  0  0  0  0  0  0  0
   56.7559   21.2569   43.2785 H   0  0  0  0  0  0  0  0  0  0  0  0
   57.3190   22.8350   42.5383 H   0  0  0  0  0  0  0  0  0  0  0  0
   57.6343   21.8579   45.3916 H   0  0  0  0  0  0  0  0  0  0  0  0
   58.8933   22.3879   44.2157 H   0  0  0  0  0  0  0  0  0  0  0  0
   60.2249   32.2226   50.7694 H   0  0  0  0  0  0  0  0  0  0  0  0
   62.3796   33.4793   50.7525 H   0  0  0  0  0  0  0  0  0  0  0  0
   63.4993   31.5184   47.0597 H   0  0  0  0  0  0  0  0  0  0  0  0
   61.3453   30.2566   47.0750 H   0  0  0  0  0  0  0  0  0  0  0  0
  1  2  2  0
  2  3  1  0
  3  4  2  0
  4  5  1  0
  5  6  2  0
  6  7  1  0
  7  8  2  0
  2  9  1  0
  9 10  1  0
 10 11  2  0
 11 12  1  0
 12 13  2  0
 13 14  1  0
 14 15  2  0
 15 16  1  0
 16 17  1  0
 17 18  2  0
 17 19  1  0
 19 20  2  0
 16 21  1  0
 21 22  1  0
 22 23  1  0
 23 24  1  0
  9 25  1  0
 25 26  2  0
 25 27  2  0
 25 28  1  0
 28 29  2  0
 29 30  1  0
 30 31  2  0
 31 32  1  0
 31 33  1  0
 33 34  2  0
  8  3  1  0
 20 10  1  0
 34 28  1  0
 19 13  1  0
 24 15  1  0
  4 35  1  0
  5 36  1  0
  6 37  1  0
  7 38  1  0
  8 39  1  0
 11 40  1  0
 12 41  1  0
 14 42  1  0
 20 43  1  0
 21 44  1  0
 21 45  1  0
 22 46  1  0
 22 47  1  0
 23 48  1  0
 23 49  1  0
 24 50  1  0
 24 51  1  0
 29 52  1  0
 30 53  1  0
 33 54  1  0
 34 55  1  0
M  CHG  1  14   1
M  END
>  <UniqueID>  (58) 
55

>  <SMILES>  (58) 
O=C(c1ccccc1)N(c1ccc2[nH+]c3n(c(=O)c2c1)CCCC3)S(=O)(=O)c1ccc(Cl)cc1

>  <Energy>  (58) 
82.35782615714137

>  <Genealogy>  (58) 
O=C(c1ccccc1)N(c1ccc2[nH+]c3n(c(=O)c2c1)CCCC3)S(=O)(=O)c1ccc(Cl)cc1 (protonated)
O=C(c1ccccc1)N(c1ccc2[nH+]c3n(c(=O)c2c1)CCCC3)S(=O)(=O)c1ccc(Cl)cc1 (3D coordinates assigned)
O=C(c1ccccc1)N(c1ccc2[nH+]c3n(c(=O)c2c1)CCCC3)S(=O)(=O)c1ccc(Cl)cc1 (nonaromatic ring conformer: 82.35782615714137 kcal/mol)

>  <smiles>  (58) 
O=C(c1ccccc1)N(c1ccc2nc3n(c(=O)c2c1)CCCC3)S(=O)(=O)c1ccc(Cl)cc1

>  <score_type>  (58) 
oracle

>  <origin>  (58) 
adg

>  <m_score__min__energy>  (58) 
-8.5500000000000007

>  <m_primary>  (58) 
energy

$$$$
58:0
     RDKit          3D

 53 55  0  0  0  0  0  0  0  0999 V2000
   56.6720   21.1400   43.4020 C   0  0  0  0  0  0  0  0  0  0  0  0
   56.4310   20.7130   44.8480 C   0  0  0  0  0  0  0  0  0  0  0  0
   55.5540   21.6700   45.5420 N   0  0  0  0  0  0  0  0  0  0  0  0
   54.2880   21.1840   46.1160 C   0  0  0  0  0  0  0  0  0  0  0  0
   54.3160   21.2660   47.6410 C   0  0  0  0  0  0  0  0  0  0  0  0
   55.9370   23.0620   45.6510 C   0  0  0  0  0  0  0  0  0  0  0  0
   54.9850   24.0570   45.9320 C   0  0  0  0  0  0  0  0  0  0  0  0
   55.3610   25.3580   46.0360 N   0  0  0  0  0  0  0  0  0  0  0  0
   56.6500   25.7620   45.8740 C   0  0  0  0  0  0  0  0  0  0  0  0
   56.9660   27.1980   46.0120 C   0  0  0  0  0  0  0  0  0  0  0  0
   57.7860   27.5600   46.8970 O   0  0  0  0  0  0  0  0  0  0  0  0
   56.2990   28.1860   45.2120 N   0  0  0  0  0  0  0  0  0  0  0  0
   56.8320   29.4970   44.9740 C   0  0  0  0  0  0  0  0  0  0  0  0
   56.7980   30.2050   43.7820 C   0  0  0  0  0  0  0  0  0  0  0  0
   56.1460   29.7600   42.5060 C   0  0  0  0  0  0  0  0  0  0  0  0
   57.5220   31.3430   43.9350 N   0  0  0  0  0  0  0  0  0  0  0  0
   57.7760   32.3440   42.8960 C   0  0  0  0  0  0  0  0  0  0  0  0
   57.9840   31.3940   45.1830 N   0  0  0  0  0  0  0  0  0  0  0  0
   58.7720   32.4560   45.7490 C   0  0  0  0  0  0  0  0  0  0  0  0
   59.9950   32.1740   46.3790 C   0  0  0  0  0  0  0  0  0  0  0  0
   60.7560   33.2070   46.9360 C   0  0  0  0  0  0  0  0  0  0  0  0
   60.2980   34.5260   46.8730 C   0  0  0  0  0  0  0  0  0  0  0  0
   59.0770   34.8130   46.2570 C   0  0  0  0  0  0  0  0  0  0  0  0
   58.3140   33.7830   45.6990 C   0  0  0  0  0  0  0  0  0  0  0  0
   57.5950   30.2730   45.8250 C   0  0  0  0  0  0  0  0  0  0  0  0
   57.9110   29.9840   47.0110 O   0  0  0  0  0  0  0  0  0  0  0  0
   57.6390   24.7990   45.6080 C   0  0  0  0  0  0  0  0  0  0  0  0
   58.9500   25.1360   45.5110 F   0  0  0  0  0  0  0  0  0  0  0  0
   57.2750   23.4560   45.4940 C   0  0  0  0  0  0  0  0  0  0  0  0
   57.2126   22.0979   43.3878 H   0  0  0  0  0  0  0  0  0  0  0  0
   57.2707   20.3734   42.8882 H   0  0  0  0  0  0  0  0  0  0  0  0
   55.7063   21.2563   42.8882 H   0  0  0  0  0  0  0  0  0  0  0  0
   55.9573   19.7203   44.8556 H   0  0  0  0  0  0  0  0  0  0  0  0
   57.3987   20.6826   45.3701 H   0  0  0  0  0  0  0  0  0  0  0  0
   53.4600   21.8010   45.7370 H   0  0  0  0  0  0  0  0  0  0  0  0
   54.1486   20.1331   45.8223 H   0  0  0  0  0  0  0  0  0  0  0  0
   53.9881   20.3058   48.0659 H   0  0  0  0  0  0  0  0  0  0  0  0
   55.3400   21.4854   47.9777 H   0  0  0  0  0  0  0  0  0  0  0  0
   53.6401   22.0659   47.9777 H   0  0  0  0  0  0  0  0  0  0  0  0
   53.9291   23.7805   46.0685 H   0  0  0  0  0  0  0  0  0  0  0  0
   55.3370   27.9730   44.8630 H   0  0  0  0  0  0  0  0  0  0  0  0
   55.2582   29.1541   42.7398 H   0  0  0  0  0  0  0  0  0  0  0  0
   55.8446   30.6417   41.9214 H   0  0  0  0  0  0  0  0  0  0  0  0
   56.8572   29.1580   41.9214 H   0  0  0  0  0  0  0  0  0  0  0  0
   58.0205   33.3075   43.3671 H   0  0  0  0  0  0  0  0  0  0  0  0
   58.6197   32.0172   42.2704 H   0  0  0  0  0  0  0  0  0  0  0  0
   56.8786   32.4590   42.2704 H   0  0  0  0  0  0  0  0  0  0  0  0
   60.3560   31.1364   46.4347 H   0  0  0  0  0  0  0  0  0  0  0  0
   61.7156   32.9811   47.4240 H   0  0  0  0  0  0  0  0  0  0  0  0
   60.8987   35.3382   47.3083 H   0  0  0  0  0  0  0  0  0  0  0  0
   58.7156   35.8509   46.2111 H   0  0  0  0  0  0  0  0  0  0  0  0
   57.3513   34.0126   45.2189 H   0  0  0  0  0  0  0  0  0  0  0  0
   58.0441   22.6995   45.2791 H   0  0  0  0  0  0  0  0  0  0  0  0
  1  2  1  0
  2  3  1  0
  3  4  1  0
  4  5  1  0
  3  6  1  0
  6  7  2  0
  7  8  1  0
  8  9  2  0
  9 10  1  0
 10 11  2  0
 10 12  1  0
 12 13  1  0
 13 14  2  0
 14 15  1  0
 14 16  1  0
 16 17  1  0
 16 18  1  0
 18 19  1  0
 19 20  2  0
 20 21  1  0
 21 22  2  0
 22 23  1  0
 23 24  2  0
 18 25  1  0
 25 26  2  0
  9 27  1  0
 27 28  1  0
 27 29  2  0
 29  6  1  0
 25 13  1  0
 24 19  1  0
  1 30  1  0
  1 31  1  0
  1 32  1  0
  2 33  1  0
  2 34  1  0
  4 35  1  0
  4 36  1  0
  5 37  1  0
  5 38  1  0
  5 39  1  0
  7 40  1  0
 12 41  1  0
 15 42  1  0
 15 43  1  0
 15 44  1  0
 17 45  1  0
 17 46  1  0
 17 47  1  0
 20 48  1  0
 21 49  1  0
 22 50  1  0
 23 51  1  0
 24 52  1  0
 29 53  1  0
M  END
>  <UniqueID>  (59) 
56

>  <SMILES>  (59) 
CCN(CC)c1cnc(C(=O)Nc2c(C)n(C)n(-c3ccccc3)c2=O)c(F)c1

>  <Energy>  (59) 
99.40537188609804

>  <Genealogy>  (59) 
CCN(CC)c1cnc(C(=O)Nc2c(C)n(C)n(-c3ccccc3)c2=O)c(F)c1 (3D coordinates assigned)
CCN(CC)c1cnc(C(=O)Nc2c(C)n(C)n(-c3ccccc3)c2=O)c(F)c1 (optimized conformer: 99.40537188609804 kcal/mol)

>  <smiles>  (59) 
CCN(CC)c1cnc(C(=O)Nc2c(C)n(C)n(-c3ccccc3)c2=O)c(F)c1

>  <score_type>  (59) 
oracle

>  <origin>  (59) 
adg

>  <m_score__min__energy>  (59) 
-7.4400000000000004

>  <m_primary>  (59) 
energy

$$$$
59:0
     RDKit          3D

 35 37  0  0  0  0  0  0  0  0999 V2000
   59.8536   26.9575   47.2166 H   0  0  0  0  0  0  0  0  0  0  0  0
   59.1430   27.2980   46.4490 C   0  0  0  0  0  0  0  0  0  0  0  0
   59.3370   28.6330   45.4420 S   0  0  0  0  0  0  0  0  0  0  0  0
   57.8520   28.4120   44.6760 C   0  0  0  0  0  0  0  0  0  0  0  0
   57.3730   29.1260   43.7000 N   0  0  0  0  0  0  0  0  0  0  0  0
   56.7360   30.4040   43.8160 C   0  0  0  0  0  0  0  0  0  0  0  0
   55.6800   30.4920   44.4980 O   0  0  0  0  0  0  0  0  0  0  0  0
   57.3980   31.6640   43.3190 C   0  0  0  0  0  0  0  0  0  0  0  0
   58.2065   31.3918   42.6246 H   0  0  0  0  0  0  0  0  0  0  0  0
   56.6354   32.2763   42.8156 H   0  0  0  0  0  0  0  0  0  0  0  0
   57.9780   32.4730   44.4510 C   0  0  0  0  0  0  0  0  0  0  0  0
   58.3690   33.8160   44.2500 C   0  0  0  0  0  0  0  0  0  0  0  0
   58.2585   34.2741   43.2560 H   0  0  0  0  0  0  0  0  0  0  0  0
   58.8970   34.5690   45.3090 C   0  0  0  0  0  0  0  0  0  0  0  0
   59.2002   35.6152   45.1553 H   0  0  0  0  0  0  0  0  0  0  0  0
   59.0310   33.9670   46.5620 C   0  0  0  0  0  0  0  0  0  0  0  0
   58.6600   32.6640   46.7650 C   0  0  0  0  0  0  0  0  0  0  0  0
   58.1320   31.8920   45.7270 C   0  0  0  0  0  0  0  0  0  0  0  0
   57.8405   30.8459   45.9024 H   0  0  0  0  0  0  0  0  0  0  0  0
   58.8910   32.2280   48.1610 C   0  0  0  0  0  0  0  0  0  0  0  0
   57.9467   31.9256   48.6374 H   0  0  0  0  0  0  0  0  0  0  0  0
   59.5580   31.3558   48.2270 H   0  0  0  0  0  0  0  0  0  0  0  0
   59.4770   33.4760   48.8500 C   0  0  0  0  0  0  0  0  0  0  0  0
   58.8222   33.7908   49.6759 H   0  0  0  0  0  0  0  0  0  0  0  0
   60.4724   33.2573   49.2639 H   0  0  0  0  0  0  0  0  0  0  0  0
   59.5640   34.5940   47.7930 C   0  0  0  0  0  0  0  0  0  0  0  0
   58.9516   35.4589   48.0877 H   0  0  0  0  0  0  0  0  0  0  0  0
   60.5877   34.9755   47.6642 H   0  0  0  0  0  0  0  0  0  0  0  0
   57.2120   27.3260   45.1600 N   0  0  0  0  0  0  0  0  0  0  0  0
   56.2770   27.0040   44.8220 H   0  0  0  0  0  0  0  0  0  0  0  0
   57.9220   26.7000   46.1380 C   0  0  0  0  0  0  0  0  0  0  0  0
   57.3940   25.5060   46.8670 C   0  0  0  0  0  0  0  0  0  0  0  0
   57.4690   25.6756   47.9512 H   0  0  0  0  0  0  0  0  0  0  0  0
   56.3409   25.3452   46.5930 H   0  0  0  0  0  0  0  0  0  0  0  0
   57.9837   24.6188   46.5930 H   0  0  0  0  0  0  0  0  0  0  0  0
  1  2  1  0
  2  3  1  0
  3  4  1  0
  4  5  2  0
  5  6  1  0
  6  7  2  0
  6  8  1  0
  8  9  1  0
  8 10  1  0
  8 11  1  0
 11 12  2  0
 12 13  1  0
 12 14  1  0
 14 15  1  0
 14 16  2  0
 16 17  1  0
 17 18  2  0
 18 19  1  0
 17 20  1  0
 20 21  1  0
 20 22  1  0
 20 23  1  0
 23 24  1  0
 23 25  1  0
 23 26  1  0
 26 27  1  0
 26 28  1  0
  4 29  1  0
 29 30  1  0
 29 31  1  0
 31 32  1  0
 32 33  1  0
 32 34  1  0
 32 35  1  0
 31  2  2  0
 18 11  1  0
 26 16  1  0
M  END
>  <UniqueID>  (60) 
57

>  <SMILES>  (60) 
Cc1cs/c(=N\C(=O)Cc2ccc3c(c2)CCC3)[nH]1

>  <Energy>  (60) 
78.39428584267144

>  <Genealogy>  (60) 
Cc1cs/c(=N\C(=O)Cc2ccc3c(c2)CCC3)[nH]1 (cis-trans isomerization)
Cc1cs/c(=N\C(=O)Cc2ccc3c(c2)CCC3)[nH]1 (3D coordinates assigned)
Cc1cs/c(=N\C(=O)Cc2ccc3c(c2)CCC3)[nH]1 (nonaromatic ring conformer: 78.39428584267144 kcal/mol)

>  <smiles>  (60) 
Cc1csc(=NC(=O)Cc2ccc3c(c2)CCC3)[nH]1

>  <score_type>  (60) 
oracle

>  <origin>  (60) 
adg

>  <m_score__min__energy>  (60) 
-7.7199999999999998

>  <m_primary>  (60) 
energy

$$$$
60:0
     RDKit          3D

 46 50  0  0  0  0  0  0  0  0999 V2000
   54.8040   23.0030   46.4410 C   0  0  0  0  0  0  0  0  0  0  0  0
   55.2190   24.2830   46.9060 O   0  0  0  0  0  0  0  0  0  0  0  0
   56.4050   24.9230   46.5170 C   0  0  0  0  0  0  0  0  0  0  0  0
   56.4130   26.2100   45.9440 C   0  0  0  0  0  0  0  0  0  0  0  0
   57.6190   26.8060   45.5340 C   0  0  0  0  0  0  0  0  0  0  0  0
   57.6080   28.1590   44.9320 C   0  0  0  0  0  0  0  0  0  0  0  0
   58.1170   29.2080   45.6440 N   0  0  0  0  0  0  0  0  0  0  0  0
   58.1080   30.4470   45.1020 C   0  0  0  0  0  0  0  0  0  0  0  0
   57.5630   30.6450   43.8560 C   0  0  0  0  0  0  0  0  0  0  0  0
   57.0490   29.6120   43.1540 N   0  0  0  0  0  0  0  0  0  0  0  0
   57.0800   28.3820   43.6820 N   0  0  0  0  0  0  0  0  0  0  0  0
   57.5960   32.2710   43.4270 S   0  0  0  0  0  0  0  0  0  0  0  0
   58.3390   32.7340   44.8810 C   0  0  0  0  0  0  0  0  0  0  0  0
   58.6810   34.0190   45.2950 C   0  0  0  0  0  0  0  0  0  0  0  0
   58.4600   35.0030   44.5370 O   0  0  0  0  0  0  0  0  0  0  0  0
   59.2530   34.1930   46.5320 N   0  0  0  0  0  0  0  0  0  0  0  0
   59.6310   35.5380   46.9790 C   0  0  0  0  0  0  0  0  0  0  0  0
   59.5200   33.1130   47.3410 C   0  0  0  0  0  0  0  0  0  0  0  0
   59.1990   31.8010   46.9420 C   0  0  0  0  0  0  0  0  0  0  0  0
   59.5700   30.6640   47.8110 C   0  0  0  0  0  0  0  0  0  0  0  0
   58.9320   30.4800   49.0480 C   0  0  0  0  0  0  0  0  0  0  0  0
   59.3000   29.4140   49.8770 C   0  0  0  0  0  0  0  0  0  0  0  0
   60.3100   28.5320   49.4800 C   0  0  0  0  0  0  0  0  0  0  0  0
   60.7710   27.1970   50.5200 Cl  0  0  0  0  0  0  0  0  0  0  0  0
   60.9550   28.7160   48.2530 C   0  0  0  0  0  0  0  0  0  0  0  0
   60.5940   29.7820   47.4250 C   0  0  0  0  0  0  0  0  0  0  0  0
   58.5760   31.6290   45.6950 C   0  0  0  0  0  0  0  0  0  0  0  0
   58.8250   26.1110   45.7240 C   0  0  0  0  0  0  0  0  0  0  0  0
   58.8230   24.8420   46.3070 C   0  0  0  0  0  0  0  0  0  0  0  0
   57.6190   24.2490   46.7000 C   0  0  0  0  0  0  0  0  0  0  0  0
   57.6340   22.9830   47.2730 O   0  0  0  0  0  0  0  0  0  0  0  0
   54.5926   22.3511   47.3015 H   0  0  0  0  0  0  0  0  0  0  0  0
   53.8950   23.1114   45.8311 H   0  0  0  0  0  0  0  0  0  0  0  0
   55.6037   22.5574   45.8311 H   0  0  0  0  0  0  0  0  0  0  0  0
   55.4658   26.7545   45.8159 H   0  0  0  0  0  0  0  0  0  0  0  0
   56.6600   27.5990   43.1360 H   0  0  0  0  0  0  0  0  0  0  0  0
   59.6400   35.5700   48.0785 H   0  0  0  0  0  0  0  0  0  0  0  0
   60.6329   35.7833   46.5969 H   0  0  0  0  0  0  0  0  0  0  0  0
   58.9036   36.2693   46.5969 H   0  0  0  0  0  0  0  0  0  0  0  0
   59.9941   33.2775   48.3199 H   0  0  0  0  0  0  0  0  0  0  0  0
   58.1412   31.1751   49.3664 H   0  0  0  0  0  0  0  0  0  0  0  0
   58.7937   29.2697   50.8428 H   0  0  0  0  0  0  0  0  0  0  0  0
   61.7475   28.0207   47.9393 H   0  0  0  0  0  0  0  0  0  0  0  0
   61.1134   29.9316   46.4670 H   0  0  0  0  0  0  0  0  0  0  0  0
   59.7754   26.5686   45.4121 H   0  0  0  0  0  0  0  0  0  0  0  0
   59.7721   24.3068   46.4577 H   0  0  0  0  0  0  0  0  0  0  0  0
  1  2  1  0
  2  3  1  0
  3  4  2  0
  4  5  1  0
  5  6  1  0
  6  7  2  0
  7  8  1  0
  8  9  2  0
  9 10  1  0
 10 11  2  0
  9 12  1  0
 12 13  1  0
 13 14  1  0
 14 15  2  0
 14 16  1  0
 16 17  1  0
 16 18  1  0
 18 19  2  0
 19 20  1  0
 20 21  2  0
 21 22  1  0
 22 23  2  0
 23 24  1  0
 23 25  1  0
 25 26  2  0
 19 27  1  0
  5 28  2  0
 28 29  1  0
 29 30  2  0
 30 31  1  0
 30  3  1  0
 11  6  1  0
 27 13  2  0
 27  8  1  0
 26 20  1  0
  1 32  1  0
  1 33  1  0
  1 34  1  0
  4 35  1  0
 11 36  1  0
 17 37  1  0
 17 38  1  0
 17 39  1  0
 18 40  1  0
 21 41  1  0
 22 42  1  0
 25 43  1  0
 26 44  1  0
 28 45  1  0
 29 46  1  0
M  CHG  2  11   1  31  -1
M  END
>  <UniqueID>  (61) 
58

>  <SMILES>  (61) 
COc1cc(-c2nc3c(n[nH+]2)sc2c(=O)n(C)cc(-c4ccc(Cl)cc4)c23)ccc1[O-]

>  <Energy>  (61) 
103.10974089924821

>  <Genealogy>  (61) 
COc1cc(-c2nc3c(n[nH+]2)sc2c(=O)n(C)cc(-c4ccc(Cl)cc4)c23)ccc1[O-] (protonated)
COc1cc(-c2nc3c(n[nH+]2)sc2c(=O)n(C)cc(-c4ccc(Cl)cc4)c23)ccc1[O-] (3D coordinates assigned)
COc1cc(-c2nc3c(n[nH+]2)sc2c(=O)n(C)cc(-c4ccc(Cl)cc4)c23)ccc1[O-] (optimized conformer: 103.10974089924821 kcal/mol)

>  <smiles>  (61) 
COc1cc(-c2nnc3sc4c(=O)n(C)cc(-c5ccc(Cl)cc5)c4c3n2)ccc1O

>  <score_type>  (61) 
oracle

>  <origin>  (61) 
adg

>  <m_score__min__energy>  (61) 
-9.7599999999999998

>  <m_primary>  (61) 
energy

$$$$
61:0
     RDKit          3D

 34 36  0  0  0  0  0  0  0  0999 V2000
   58.9318   35.1311   45.9187 H   0  0  0  0  0  0  0  0  0  0  0  0
   58.5640   34.1150   45.7130 C   0  0  0  0  0  0  0  0  0  0  0  0
   57.1430   33.7270   44.9040 S   0  0  0  0  0  0  0  0  0  0  0  0
   57.3880   32.0670   45.0480 C   0  0  0  0  0  0  0  0  0  0  0  0
   56.6090   31.1220   44.6060 N   0  0  0  0  0  0  0  0  0  0  0  0
   56.6390   29.7230   44.9420 C   0  0  0  0  0  0  0  0  0  0  0  0
   55.5900   29.0260   44.8910 O   0  0  0  0  0  0  0  0  0  0  0  0
   57.9160   29.0950   45.3550 C   0  0  0  0  0  0  0  0  0  0  0  0
   59.0070   29.0340   44.4670 C   0  0  0  0  0  0  0  0  0  0  0  0
   58.9126   29.4573   43.4561 H   0  0  0  0  0  0  0  0  0  0  0  0
   60.2100   28.4390   44.8610 C   0  0  0  0  0  0  0  0  0  0  0  0
   61.0567   28.3962   44.1602 H   0  0  0  0  0  0  0  0  0  0  0  0
   60.3380   27.8990   46.1430 C   0  0  0  0  0  0  0  0  0  0  0  0
   61.2851   27.4319   46.4508 H   0  0  0  0  0  0  0  0  0  0  0  0
   59.2650   27.9520   47.0330 C   0  0  0  0  0  0  0  0  0  0  0  0
   59.3676   27.5265   48.0422 H   0  0  0  0  0  0  0  0  0  0  0  0
   58.0590   28.5450   46.6450 C   0  0  0  0  0  0  0  0  0  0  0  0
   57.2165   28.5824   47.3513 H   0  0  0  0  0  0  0  0  0  0  0  0
   58.5350   31.7930   45.7020 N   0  0  0  0  0  0  0  0  0  0  0  0
   59.1990   32.9230   46.0800 C   0  0  0  0  0  0  0  0  0  0  0  0
   60.4940   32.8510   46.8090 C   0  0  0  0  0  0  0  0  0  0  0  0
   61.4630   33.8530   46.6140 C   0  0  0  0  0  0  0  0  0  0  0  0
   61.2558   34.6838   45.9235 H   0  0  0  0  0  0  0  0  0  0  0  0
   62.6860   33.8030   47.2890 C   0  0  0  0  0  0  0  0  0  0  0  0
   63.4363   34.5896   47.1212 H   0  0  0  0  0  0  0  0  0  0  0  0
   62.9610   32.7550   48.1790 C   0  0  0  0  0  0  0  0  0  0  0  0
   64.2890   32.6810   48.8720 C   0  0  0  0  0  0  0  0  0  0  0  0
   64.1352   32.6896   49.9612 H   0  0  0  0  0  0  0  0  0  0  0  0
   64.8029   31.7528   48.5816 H   0  0  0  0  0  0  0  0  0  0  0  0
   64.9029   33.5463   48.5816 H   0  0  0  0  0  0  0  0  0  0  0  0
   62.0120   31.7410   48.3600 C   0  0  0  0  0  0  0  0  0  0  0  0
   62.2310   30.9017   49.0365 H   0  0  0  0  0  0  0  0  0  0  0  0
   60.7880   31.7890   47.6860 C   0  0  0  0  0  0  0  0  0  0  0  0
   60.0481   30.9902   47.8421 H   0  0  0  0  0  0  0  0  0  0  0  0
  1  2  1  0
  2  3  1  0
  3  4  1  0
  4  5  2  0
  5  6  1  0
  6  7  2  0
  6  8  1  0
  8  9  2  0
  9 10  1  0
  9 11  1  0
 11 12  1  0
 11 13  2  0
 13 14  1  0
 13 15  1  0
 15 16  1  0
 15 17  2  0
 17 18  1  0
  4 19  1  0
 19 20  1  0
 20 21  1  0
 21 22  2  0
 22 23  1  0
 22 24  1  0
 24 25  1  0
 24 26  2  0
 26 27  1  0
 27 28  1  0
 27 29  1  0
 27 30  1  0
 26 31  1  0
 31 32  1  0
 31 33  2  0
 33 34  1  0
 20  2  2  0
 33 21  1  0
 17  8  1  0
M  CHG  1  19  -1
M  END
>  <UniqueID>  (62) 
59

>  <SMILES>  (62) 
Cc1ccc(-c2cs/c(=N\C(=O)c3ccccc3)[n-]2)cc1

>  <Energy>  (62) 
72.71124118480492

>  <Genealogy>  (62) 
Cc1ccc(-c2csc(=NC(=O)c3ccccc3)[n-]2)cc1 (protonated)
Cc1ccc(-c2cs/c(=N\C(=O)c3ccccc3)[n-]2)cc1 (cis-trans isomerization)
Cc1ccc(-c2cs/c(=N\C(=O)c3ccccc3)[n-]2)cc1 (3D coordinates assigned)
Cc1ccc(-c2cs/c(=N\C(=O)c3ccccc3)[n-]2)cc1 (optimized conformer: 72.71124118480492 kcal/mol)

>  <smiles>  (62) 
Cc1ccc(-c2csc(=NC(=O)c3ccccc3)[nH]2)cc1

>  <score_type>  (62) 
oracle

>  <origin>  (62) 
adg

>  <m_score__min__energy>  (62) 
-9.5800000000000001

>  <m_primary>  (62) 
energy

$$$$
62:0
     RDKit          3D

 40 42  0  0  0  0  0  0  0  0999 V2000
   58.2850   22.1230   44.7350 C   0  0  0  0  0  0  0  0  0  0  0  0
   57.7010   22.8410   45.8190 O   0  0  0  0  0  0  0  0  0  0  0  0
   57.5980   24.2410   45.8850 C   0  0  0  0  0  0  0  0  0  0  0  0
   58.7370   25.0680   45.9130 C   0  0  0  0  0  0  0  0  0  0  0  0
   58.6020   26.4560   45.9750 C   0  0  0  0  0  0  0  0  0  0  0  0
   57.3350   27.0450   46.0230 C   0  0  0  0  0  0  0  0  0  0  0  0
   57.2430   28.4760   46.0610 N   0  0  0  0  0  0  0  0  0  0  0  0
   56.6960   29.4710   44.7490 S   0  0  0  0  0  0  0  0  0  0  0  0
   57.0070   28.7820   43.4510 O   0  0  0  0  0  0  0  0  0  0  0  0
   55.2110   29.6630   44.8590 O   0  0  0  0  0  0  0  0  0  0  0  0
   57.4820   31.0460   44.8290 C   0  0  0  0  0  0  0  0  0  0  0  0
   57.5770   31.8310   43.6740 C   0  0  0  0  0  0  0  0  0  0  0  0
   58.1420   33.1080   43.7300 C   0  0  0  0  0  0  0  0  0  0  0  0
   58.6200   33.6130   44.9480 C   0  0  0  0  0  0  0  0  0  0  0  0
   59.1770   34.8980   45.0200 C   0  0  0  0  0  0  0  0  0  0  0  0
   59.6440   35.3930   46.2400 C   0  0  0  0  0  0  0  0  0  0  0  0
   59.5640   34.6090   47.3940 C   0  0  0  0  0  0  0  0  0  0  0  0
   59.0120   33.3260   47.3360 C   0  0  0  0  0  0  0  0  0  0  0  0
   58.5350   32.8190   46.1180 C   0  0  0  0  0  0  0  0  0  0  0  0
   57.9660   31.5380   46.0480 C   0  0  0  0  0  0  0  0  0  0  0  0
   56.1970   26.2230   46.0230 C   0  0  0  0  0  0  0  0  0  0  0  0
   56.3210   24.8290   45.9290 C   0  0  0  0  0  0  0  0  0  0  0  0
   54.8670   23.8280   45.8830 S   0  0  0  0  0  0  0  0  0  0  0  0
   54.9890   22.6340   44.6360 N   0  0  0  0  0  0  0  0  0  0  0  0
   53.6720   24.6980   45.6170 O   0  0  0  0  0  0  0  0  0  0  0  0
   54.6930   23.1240   47.2000 O   0  0  0  0  0  0  0  0  0  0  0  0
   58.9329   21.3264   45.1296 H   0  0  0  0  0  0  0  0  0  0  0  0
   57.4896   21.6775   44.1194 H   0  0  0  0  0  0  0  0  0  0  0  0
   58.8832   22.8110   44.1194 H   0  0  0  0  0  0  0  0  0  0  0  0
   59.7401   24.6174   45.8858 H   0  0  0  0  0  0  0  0  0  0  0  0
   59.4998   27.0915   45.9862 H   0  0  0  0  0  0  0  0  0  0  0  0
   57.2044   31.4401   42.7157 H   0  0  0  0  0  0  0  0  0  0  0  0
   58.2119   33.7180   42.8173 H   0  0  0  0  0  0  0  0  0  0  0  0
   59.2463   35.5176   44.1137 H   0  0  0  0  0  0  0  0  0  0  0  0
   60.0761   36.4032   46.2924 H   0  0  0  0  0  0  0  0  0  0  0  0
   59.9366   35.0027   48.3512 H   0  0  0  0  0  0  0  0  0  0  0  0
   58.9515   32.7127   48.2472 H   0  0  0  0  0  0  0  0  0  0  0  0
   57.8998   30.9178   46.9541 H   0  0  0  0  0  0  0  0  0  0  0  0
   55.1977   26.6768   46.0975 H   0  0  0  0  0  0  0  0  0  0  0  0
   55.9350   22.2000   44.7170 H   0  0  0  0  0  0  0  0  0  0  0  0
  1  2  1  0
  2  3  1  0
  3  4  2  0
  4  5  1  0
  5  6  2  0
  6  7  1  0
  7  8  1  0
  8  9  2  0
  8 10  2  0
  8 11  1  0
 11 12  2  0
 12 13  1  0
 13 14  2  0
 14 15  1  0
 15 16  2  0
 16 17  1  0
 17 18  2  0
 18 19  1  0
 19 20  2  0
  6 21  1  0
 21 22  2  0
 22 23  1  0
 23 24  1  0
 23 25  2  0
 23 26  2  0
 22  3  1  0
 20 11  1  0
 19 14  1  0
  1 27  1  0
  1 28  1  0
  1 29  1  0
  4 30  1  0
  5 31  1  0
 12 32  1  0
 13 33  1  0
 15 34  1  0
 16 35  1  0
 17 36  1  0
 18 37  1  0
 20 38  1  0
 21 39  1  0
 24 40  1  0
M  CHG  2   7  -1  24  -1
M  END
>  <UniqueID>  (63) 
60

>  <SMILES>  (63) 
COc1ccc([N-]S(=O)(=O)c2ccc3ccccc3c2)cc1S([NH-])(=O)=O

>  <Energy>  (63) 
47.18849865757654

>  <Genealogy>  (63) 
COc1ccc([N-]S(=O)(=O)c2ccc3ccccc3c2)cc1S([NH-])(=O)=O (protonated)
COc1ccc([N-]S(=O)(=O)c2ccc3ccccc3c2)cc1S([NH-])(=O)=O (3D coordinates assigned)
COc1ccc([N-]S(=O)(=O)c2ccc3ccccc3c2)cc1S([NH-])(=O)=O (optimized conformer: 47.18849865757654 kcal/mol)

>  <smiles>  (63) 
COc1ccc(NS(=O)(=O)c2ccc3ccccc3c2)cc1S(N)(=O)=O

>  <score_type>  (63) 
oracle

>  <origin>  (63) 
adg

>  <m_score__min__energy>  (63) 
-12.949999999999999

>  <m_primary>  (63) 
energy

$$$$
63:0
     RDKit          3D

 46 50  0  0  0  0  0  0  0  0999 V2000
   60.4677   35.4900   46.5468 H   0  0  0  0  0  0  0  0  0  0  0  0
   60.0930   34.4580   46.4790 C   0  0  0  0  0  0  0  0  0  0  0  0
   60.6630   33.4500   47.2960 C   0  0  0  0  0  0  0  0  0  0  0  0
   61.7550   33.7920   48.2380 C   0  0  0  0  0  0  0  0  0  0  0  0
   62.8180   34.2980   47.7890 O   0  0  0  0  0  0  0  0  0  0  0  0
   61.6290   33.6160   49.6590 N   0  0  0  0  0  0  0  0  0  0  0  0
   60.6380   33.0320   50.2680 C   0  0  0  0  0  0  0  0  0  0  0  0
   60.3540   31.7060   50.1490 N   0  0  0  0  0  0  0  0  0  0  0  0
   59.2790   31.5670   50.9450 C   0  0  0  0  0  0  0  0  0  0  0  0
   58.5500   30.4070   51.1930 C   0  0  0  0  0  0  0  0  0  0  0  0
   58.8268   29.4514   50.7238 H   0  0  0  0  0  0  0  0  0  0  0  0
   57.4390   30.4970   52.0700 C   0  0  0  0  0  0  0  0  0  0  0  0
   56.6410   29.3860   52.3800 O   0  0  0  0  0  0  0  0  0  0  0  0
   56.7420   28.6400   53.5880 C   0  0  0  0  0  0  0  0  0  0  0  0
   56.6499   29.3200   54.4477 H   0  0  0  0  0  0  0  0  0  0  0  0
   55.9370   27.8912   53.6249 H   0  0  0  0  0  0  0  0  0  0  0  0
   57.7171   28.1322   53.6249 H   0  0  0  0  0  0  0  0  0  0  0  0
   57.1110   31.7430   52.6590 C   0  0  0  0  0  0  0  0  0  0  0  0
   56.2505   31.8116   53.3408 H   0  0  0  0  0  0  0  0  0  0  0  0
   57.8720   32.8940   52.3830 C   0  0  0  0  0  0  0  0  0  0  0  0
   57.6224   33.8646   52.8366 H   0  0  0  0  0  0  0  0  0  0  0  0
   58.9510   32.7600   51.5160 C   0  0  0  0  0  0  0  0  0  0  0  0
   59.8080   33.7020   51.1020 N   0  0  0  0  0  0  0  0  0  0  0  0
   59.8250   34.7150   51.3560 H   0  0  0  0  0  0  0  0  0  0  0  0
   60.1570   32.1310   47.2290 C   0  0  0  0  0  0  0  0  0  0  0  0
   60.5576   31.3421   47.8826 H   0  0  0  0  0  0  0  0  0  0  0  0
   59.1350   31.8500   46.3130 C   0  0  0  0  0  0  0  0  0  0  0  0
   58.6050   32.8370   45.5290 C   0  0  0  0  0  0  0  0  0  0  0  0
   59.0540   34.1530   45.5830 C   0  0  0  0  0  0  0  0  0  0  0  0
   58.6095   34.9305   44.9442 H   0  0  0  0  0  0  0  0  0  0  0  0
   57.6170   32.2730   44.7660 C   0  0  0  0  0  0  0  0  0  0  0  0
   56.9847   32.7786   44.0213 H   0  0  0  0  0  0  0  0  0  0  0  0
   57.5770   30.9260   45.1270 C   0  0  0  0  0  0  0  0  0  0  0  0
   58.5340   30.6590   46.0740 N   0  0  0  0  0  0  0  0  0  0  0  0
   58.8960   29.4230   46.7900 C   0  0  0  0  0  0  0  0  0  0  0  0
   59.8571   29.0661   46.3913 H   0  0  0  0  0  0  0  0  0  0  0  0
   58.9381   29.6857   47.8573 H   0  0  0  0  0  0  0  0  0  0  0  0
   57.8840   28.2920   46.6680 C   0  0  0  0  0  0  0  0  0  0  0  0
   58.2101   27.4490   47.2949 H   0  0  0  0  0  0  0  0  0  0  0  0
   56.9032   28.6637   46.9994 H   0  0  0  0  0  0  0  0  0  0  0  0
   57.7600   27.8200   45.2250 C   0  0  0  0  0  0  0  0  0  0  0  0
   58.7148   27.9822   44.7035 H   0  0  0  0  0  0  0  0  0  0  0  0
   57.5102   26.7488   45.2113 H   0  0  0  0  0  0  0  0  0  0  0  0
   56.7140   28.5660   44.5580 N   0  0  0  0  0  0  0  0  0  0  0  0
   56.6110   29.9890   44.4930 C   0  0  0  0  0  0  0  0  0  0  0  0
   55.6270   30.4730   43.8740 O   0  0  0  0  0  0  0  0  0  0  0  0
  1  2  1  0
  2  3  2  0
  3  4  1  0
  4  5  2  0
  4  6  1  0
  6  7  2  0
  7  8  1  0
  8  9  1  0
  9 10  2  0
 10 11  1  0
 10 12  1  0
 12 13  1  0
 13 14  1  0
 14 15  1  0
 14 16  1  0
 14 17  1  0
 12 18  2  0
 18 19  1  0
 18 20  1  0
 20 21  1  0
 20 22  2  0
 22 23  1  0
 23 24  1  0
  3 25  1  0
 25 26  1  0
 25 27  2  0
 27 28  1  0
 28 29  2  0
 29 30  1  0
 28 31  1  0
 31 32  1  0
 31 33  2  0
 33 34  1  0
 34 35  1  0
 35 36  1  0
 35 37  1  0
 35 38  1  0
 38 39  1  0
 38 40  1  0
 38 41  1  0
 41 42  1  0
 41 43  1  0
 41 44  1  0
 44 45  1  0
 45 46  2  0
 29  2  1  0
 45 33  1  0
 23  7  1  0
 34 27  1  0
 22  9  1  0
M  CHG  2   8  -1  44  -1
M  END
>  <UniqueID>  (64) 
61

>  <SMILES>  (64) 
COc1ccc2[nH]/c(=N/C(=O)c3ccc4cc5n(c4c3)CCC[N-]C5=O)[n-]c2c1

>  <Energy>  (64) 
134.05490896486626

>  <Genealogy>  (64) 
COc1ccc2[nH]c(=NC(=O)c3ccc4cc5n(c4c3)CCC[N-]C5=O)[n-]c2c1 (protonated)
COc1ccc2[nH]/c(=N/C(=O)c3ccc4cc5n(c4c3)CCC[N-]C5=O)[n-]c2c1 (cis-trans isomerization)
COc1ccc2[nH]/c(=N/C(=O)c3ccc4cc5n(c4c3)CCC[N-]C5=O)[n-]c2c1 (3D coordinates assigned)
COc1ccc2[nH]/c(=N/C(=O)c3ccc4cc5n(c4c3)CCC[N-]C5=O)[n-]c2c1 (nonaromatic ring conformer: 134.05490896486626 kcal/mol)

>  <smiles>  (64) 
COc1ccc2[nH]c(=NC(=O)c3ccc4cc5n(c4c3)CCCNC5=O)[nH]c2c1

>  <score_type>  (64) 
oracle

>  <origin>  (64) 
adg

>  <m_score__min__energy>  (64) 
-8.7100000000000009

>  <m_primary>  (64) 
energy

$$$$
64:0
     RDKit          3D

 49 51  0  0  0  0  0  0  0  0999 V2000
   55.0100   26.7060   45.9550 O   0  0  0  0  0  0  0  0  0  0  0  0
   56.2640   26.1000   45.9770 C   0  0  0  0  0  0  0  0  0  0  0  0
   56.4630   24.9010   45.2850 C   0  0  0  0  0  0  0  0  0  0  0  0
   57.7160   24.2840   45.2970 C   0  0  0  0  0  0  0  0  0  0  0  0
   58.7760   24.8590   46.0040 C   0  0  0  0  0  0  0  0  0  0  0  0
   58.5840   26.0550   46.7140 C   0  0  0  0  0  0  0  0  0  0  0  0
   59.7340   26.7060   47.4350 C   0  0  0  0  0  0  0  0  0  0  0  0
   59.2240   27.8530   48.3240 C   0  0  0  0  0  0  0  0  0  0  0  0
   60.3180   28.6920   48.8400 N   0  0  0  0  0  0  0  0  0  0  0  0
   60.5340   29.9100   48.0380 C   0  0  0  0  0  0  0  0  0  0  0  0
   59.2280   30.7040   47.8830 C   0  0  0  0  0  0  0  0  0  0  0  0
   58.9640   31.0780   46.4810 N   0  0  0  0  0  0  0  0  0  0  0  0
   58.5340   30.0920   45.5070 C   0  0  0  0  0  0  0  0  0  0  0  0
   57.2100   30.0680   45.0250 C   0  0  0  0  0  0  0  0  0  0  0  0
   56.8080   29.0950   44.1050 C   0  0  0  0  0  0  0  0  0  0  0  0
   57.7170   28.1370   43.6530 C   0  0  0  0  0  0  0  0  0  0  0  0
   59.0340   28.1510   44.1180 C   0  0  0  0  0  0  0  0  0  0  0  0
   59.4410   29.1210   45.0380 C   0  0  0  0  0  0  0  0  0  0  0  0
   59.0500   32.4670   46.0960 C   0  0  0  0  0  0  0  0  0  0  0  0
   60.0820   33.2790   46.6020 C   0  0  0  0  0  0  0  0  0  0  0  0
   60.1630   34.6260   46.2400 C   0  0  0  0  0  0  0  0  0  0  0  0
   59.2170   35.1760   45.3710 C   0  0  0  0  0  0  0  0  0  0  0  0
   58.1890   34.3780   44.8620 C   0  0  0  0  0  0  0  0  0  0  0  0
   58.1040   33.0290   45.2220 C   0  0  0  0  0  0  0  0  0  0  0  0
   57.3250   26.6790   46.6870 C   0  0  0  0  0  0  0  0  0  0  0  0
   54.3940   26.6800   46.7600 H   0  0  0  0  0  0  0  0  0  0  0  0
   55.6310   24.4429   44.7301 H   0  0  0  0  0  0  0  0  0  0  0  0
   57.8691   23.3429   44.7485 H   0  0  0  0  0  0  0  0  0  0  0  0
   59.7630   24.3733   46.0041 H   0  0  0  0  0  0  0  0  0  0  0  0
   60.2397   25.9574   48.0626 H   0  0  0  0  0  0  0  0  0  0  0  0
   60.4378   27.1126   46.6938 H   0  0  0  0  0  0  0  0  0  0  0  0
   58.5444   28.4835   47.7319 H   0  0  0  0  0  0  0  0  0  0  0  0
   58.7092   27.4052   49.1868 H   0  0  0  0  0  0  0  0  0  0  0  0
   60.1050   28.9620   49.8290 H   0  0  0  0  0  0  0  0  0  0  0  0
   61.2825   30.5422   48.5380 H   0  0  0  0  0  0  0  0  0  0  0  0
   60.8860   29.6145   47.0386 H   0  0  0  0  0  0  0  0  0  0  0  0
   58.3935   30.0872   48.2478 H   0  0  0  0  0  0  0  0  0  0  0  0
   59.3265   31.6315   48.4661 H   0  0  0  0  0  0  0  0  0  0  0  0
   56.4877   30.8201   45.3751 H   0  0  0  0  0  0  0  0  0  0  0  0
   55.7718   29.0844   43.7361 H   0  0  0  0  0  0  0  0  0  0  0  0
   57.3964   27.3715   42.9311 H   0  0  0  0  0  0  0  0  0  0  0  0
   59.7514   27.3980   43.7598 H   0  0  0  0  0  0  0  0  0  0  0  0
   60.4798   29.1266   45.3996 H   0  0  0  0  0  0  0  0  0  0  0  0
   60.8291   32.8508   47.2864 H   0  0  0  0  0  0  0  0  0  0  0  0
   60.9726   35.2544   46.6396 H   0  0  0  0  0  0  0  0  0  0  0  0
   59.2815   36.2369   45.0877 H   0  0  0  0  0  0  0  0  0  0  0  0
   57.4453   34.8114   44.1771 H   0  0  0  0  0  0  0  0  0  0  0  0
   57.2927   32.4050   44.8190 H   0  0  0  0  0  0  0  0  0  0  0  0
   57.1715   27.6259   47.2254 H   0  0  0  0  0  0  0  0  0  0  0  0
  1  2  1  0
  2  3  2  0
  3  4  1  0
  4  5  2  0
  5  6  1  0
  6  7  1  0
  7  8  1  0
  8  9  1  0
  9 10  1  0
 10 11  1  0
 11 12  1  0
 12 13  1  0
 13 14  2  0
 14 15  1  0
 15 16  2  0
 16 17  1  0
 17 18  2  0
 12 19  1  0
 19 20  2  0
 20 21  1  0
 21 22  2  0
 22 23  1  0
 23 24  2  0
  6 25  2  0
 25  2  1  0
 18 13  1  0
 24 19  1  0
  1 26  1  0
  3 27  1  0
  4 28  1  0
  5 29  1  0
  7 30  1  0
  7 31  1  0
  8 32  1  0
  8 33  1  0
  9 34  1  0
 10 35  1  0
 10 36  1  0
 11 37  1  0
 11 38  1  0
 14 39  1  0
 15 40  1  0
 16 41  1  0
 17 42  1  0
 18 43  1  0
 20 44  1  0
 21 45  1  0
 22 46  1  0
 23 47  1  0
 24 48  1  0
 25 49  1  0
M  END
>  <UniqueID>  (65) 
62

>  <SMILES>  (65) 
Oc1cccc(CCNCCN(c2ccccc2)c2ccccc2)c1

>  <Energy>  (65) 
54.4006104969417

>  <Genealogy>  (65) 
Oc1cccc(CCNCCN(c2ccccc2)c2ccccc2)c1 (3D coordinates assigned)
Oc1cccc(CCNCCN(c2ccccc2)c2ccccc2)c1 (optimized conformer: 54.4006104969417 kcal/mol)

>  <smiles>  (65) 
Oc1cccc(CCNCCN(c2ccccc2)c2ccccc2)c1

>  <score_type>  (65) 
oracle

>  <origin>  (65) 
adg

>  <m_score__min__energy>  (65) 
-9

>  <m_primary>  (65) 
energy

$$$$
65:0
     RDKit          3D

 50 52  0  0  1  0  0  0  0  0999 V2000
   60.7850   30.2120   46.7780 C   0  0  0  0  0  0  0  0  0  0  0  0
   60.4030   29.0680   47.6650 C   0  0  0  0  0  0  0  0  0  0  0  0
   60.0520   27.8650   46.9240 N   0  0  0  0  0  0  0  0  0  0  0  0
   58.6930   27.7800   46.4620 C   0  0  0  0  0  0  0  0  0  0  0  0
   57.9990   26.6040   46.6500 C   0  0  0  0  0  0  0  0  0  0  0  0
   56.6790   26.4700   46.2210 C   0  0  0  0  0  0  0  0  0  0  0  0
   56.0080   25.3790   46.3850 N   0  0  0  0  0  0  0  0  0  0  0  0
   56.3150   24.3180   45.4700 C   0  0  0  0  0  0  0  0  0  0  0  0
   57.4070   23.5350   45.7510 C   0  0  0  0  0  0  0  0  0  0  0  0
   57.7900   22.4750   44.9220 C   0  0  0  0  0  0  0  0  0  0  0  0
   57.0130   22.2560   43.8040 C   0  0  0  0  0  0  0  0  0  0  0  0
   55.9070   23.0250   43.4910 C   0  0  0  0  0  0  0  0  0  0  0  0
   55.5580   24.0730   44.3430 C   0  0  0  0  0  0  0  0  0  0  0  0
   56.1420   27.5490   45.6220 N   0  0  0  0  0  0  0  0  0  0  0  0
   56.8400   28.6990   45.4460 C   0  0  0  0  0  0  0  0  0  0  0  0
   56.2440   29.6630   44.8700 N   0  0  0  0  0  0  0  0  0  0  0  0
   56.9200   30.7940   44.3300 C   0  0  0  0  0  0  0  0  0  0  0  0
   57.0930   30.9500   42.9690 C   0  0  0  0  0  0  0  0  0  0  0  0
   57.7620   32.0800   42.5440 C   0  0  0  0  0  0  0  0  0  0  0  0
   58.2480   33.0330   43.4150 C   0  0  0  0  0  0  0  0  0  0  0  0
   58.0740   32.8760   44.7760 C   0  0  0  0  0  0  0  0  0  0  0  0
   58.5640   33.8370   45.6860 N   0  0  0  0  0  0  0  0  0  0  0  0
   59.2520   35.0050   45.1810 C   0  0  0  0  0  0  0  0  0  0  0  0
   58.3700   33.6440   47.1110 C   0  0  0  0  0  0  0  0  0  0  0  0
   57.4040   31.7480   45.2340 C   0  0  0  0  0  0  0  0  0  0  0  0
   58.1150   28.8410   45.8550 N   0  0  0  0  0  0  0  0  0  0  0  0
   61.0732   31.0750   47.3962 H   0  0  0  0  0  0  0  0  0  0  0  0
   61.6332   29.9163   46.1430 H   0  0  0  0  0  0  0  0  0  0  0  0
   59.9293   30.4852   46.1430 H   0  0  0  0  0  0  0  0  0  0  0  0
   61.2523   28.8376   48.3250 H   0  0  0  0  0  0  0  0  0  0  0  0
   59.5126   29.3756   48.2329 H   0  0  0  0  0  0  0  0  0  0  0  0
   60.7360   27.1180   46.7400 H   0  0  0  0  0  0  0  0  0  0  0  0
   58.4948   25.7570   47.1468 H   0  0  0  0  0  0  0  0  0  0  0  0
   57.9981   23.7471   46.6541 H   0  0  0  0  0  0  0  0  0  0  0  0
   58.6652   21.8490   45.1501 H   0  0  0  0  0  0  0  0  0  0  0  0
   57.2857   21.4310   43.1295 H   0  0  0  0  0  0  0  0  0  0  0  0
   55.3145   22.8145   42.5884 H   0  0  0  0  0  0  0  0  0  0  0  0
   54.6835   24.7009   44.1173 H   0  0  0  0  0  0  0  0  0  0  0  0
   55.1380   27.5000   45.2760 H   0  0  0  0  0  0  0  0  0  0  0  0
   56.7137   30.2053   42.2538 H   0  0  0  0  0  0  0  0  0  0  0  0
   57.9142   32.2270   41.4645 H   0  0  0  0  0  0  0  0  0  0  0  0
   58.7738   33.9173   43.0258 H   0  0  0  0  0  0  0  0  0  0  0  0
   59.6101   35.6130   46.0248 H   0  0  0  0  0  0  0  0  0  0  0  0
   60.1084   34.6892   44.5671 H   0  0  0  0  0  0  0  0  0  0  0  0
   58.5606   35.6009   44.5671 H   0  0  0  0  0  0  0  0  0  0  0  0
   59.0430   34.3135   47.6667 H   0  0  0  0  0  0  0  0  0  0  0  0
   57.3265   33.8728   47.3733 H   0  0  0  0  0  0  0  0  0  0  0  0
   58.5934   32.5994   47.3733 H   0  0  0  0  0  0  0  0  0  0  0  0
   57.2527   31.6034   46.3139 H   0  0  0  0  0  0  0  0  0  0  0  0
   58.6290   29.7490   45.7020 H   0  0  0  0  0  0  0  0  0  0  0  0
  1  2  1  0
  2  3  1  0
  3  4  1  0
  4  5  2  0
  5  6  1  0
  6  7  2  0
  7  8  1  0
  8  9  2  0
  9 10  1  0
 10 11  2  0
 11 12  1  0
 12 13  2  0
  6 14  1  0
 14 15  1  0
 15 16  2  0
 16 17  1  0
 17 18  2  0
 18 19  1  0
 19 20  2  0
 20 21  1  0
 21 22  1  0
 22 23  1  0
 22 24  1  0
 21 25  2  0
 15 26  1  0
 26  4  1  0
 13  8  1  0
 25 17  1  0
  1 27  1  0
  1 28  1  0
  1 29  1  0
  2 30  1  0
  2 31  1  0
  3 32  1  0
  5 33  1  0
  9 34  1  0
 10 35  1  0
 11 36  1  0
 12 37  1  0
 13 38  1  0
 14 39  1  0
 18 40  1  0
 19 41  1  0
 20 42  1  0
 23 43  1  0
 23 44  1  0
 23 45  1  0
 24 46  1  0
 24 47  1  0
 24 48  1  0
 25 49  1  0
 26 50  1  0
M  END
>  <smiles>  (66) 
CCNc1cc(=Nc2ccccc2)[nH]c(=Nc2cccc(N(C)C)c2)[nH]1

>  <score_type>  (66) 
oracle

>  <origin>  (66) 
adg

>  <m_score__min__energy>  (66) 
-8.3200000000000003

>  <m_primary>  (66) 
energy

$$$$
66:0
     RDKit          3D

 54 57  0  0  0  0  0  0  0  0999 V2000
   62.1610   33.5010   52.9900 C   0  0  0  0  0  0  0  0  0  0  0  0
   62.9280   34.1790   52.0020 O   0  0  0  0  0  0  0  0  0  0  0  0
   62.9750   33.8170   50.6470 C   0  0  0  0  0  0  0  0  0  0  0  0
   64.1700   33.8260   49.9050 C   0  0  0  0  0  0  0  0  0  0  0  0
   64.1650   33.4530   48.5580 C   0  0  0  0  0  0  0  0  0  0  0  0
   62.9720   33.0780   47.9380 C   0  0  0  0  0  0  0  0  0  0  0  0
   61.7660   33.0750   48.6600 C   0  0  0  0  0  0  0  0  0  0  0  0
   60.5360   32.6940   48.0150 N   0  0  0  0  0  0  0  0  0  0  0  0
   59.7870   33.6610   47.2010 C   0  0  0  0  0  0  0  0  0  0  0  0
   59.3620   33.0330   45.8600 C   0  0  0  0  0  0  0  0  0  0  0  0
   59.2010   31.5620   45.9260 N   0  0  0  0  0  0  0  0  0  0  0  0
   58.0650   30.9960   44.7230 S   0  0  0  0  0  0  0  0  0  0  0  0
   58.5200   31.4900   43.3780 O   0  0  0  0  0  0  0  0  0  0  0  0
   56.6950   31.5540   44.9950 O   0  0  0  0  0  0  0  0  0  0  0  0
   57.9690   29.2390   44.6690 C   0  0  0  0  0  0  0  0  0  0  0  0
   58.7790   28.3920   43.9250 C   0  0  0  0  0  0  0  0  0  0  0  0
   58.4570   27.0400   44.0860 C   0  0  0  0  0  0  0  0  0  0  0  0
   57.4010   26.8140   44.9690 C   0  0  0  0  0  0  0  0  0  0  0  0
   56.8560   25.4770   45.3180 C   0  0  0  0  0  0  0  0  0  0  0  0
   57.6610   24.3910   45.1650 N   0  0  0  0  0  0  0  0  0  0  0  0
   57.2530   23.1300   45.4660 C   0  0  0  0  0  0  0  0  0  0  0  0
   58.2170   21.9930   45.2910 C   0  0  0  0  0  0  0  0  0  0  0  0
   55.9540   22.9390   45.9760 C   0  0  0  0  0  0  0  0  0  0  0  0
   55.4420   21.5860   46.3660 C   0  0  0  0  0  0  0  0  0  0  0  0
   55.1450   24.0220   46.1310 N   0  0  0  0  0  0  0  0  0  0  0  0
   55.5540   25.2790   45.8200 C   0  0  0  0  0  0  0  0  0  0  0  0
   54.7590   26.2400   45.9950 O   0  0  0  0  0  0  0  0  0  0  0  0
   56.8670   28.3140   45.5330 S   0  0  0  0  0  0  0  0  0  0  0  0
   58.8200   31.0850   47.2630 C   0  0  0  0  0  0  0  0  0  0  0  0
   59.9690   31.3560   48.2380 C   0  0  0  0  0  0  0  0  0  0  0  0
   61.7830   33.4360   50.0190 C   0  0  0  0  0  0  0  0  0  0  0  0
   62.5029   33.8033   53.9909 H   0  0  0  0  0  0  0  0  0  0  0  0
   61.0987   33.7607   52.8715 H   0  0  0  0  0  0  0  0  0  0  0  0
   62.2884   32.4148   52.8715 H   0  0  0  0  0  0  0  0  0  0  0  0
   65.1118   34.1277   50.3866 H   0  0  0  0  0  0  0  0  0  0  0  0
   65.1039   33.4550   47.9849 H   0  0  0  0  0  0  0  0  0  0  0  0
   62.9756   32.7831   46.8783 H   0  0  0  0  0  0  0  0  0  0  0  0
   58.8890   33.9773   47.7519 H   0  0  0  0  0  0  0  0  0  0  0  0
   60.4346   34.5262   46.9960 H   0  0  0  0  0  0  0  0  0  0  0  0
   58.4021   33.4759   45.5559 H   0  0  0  0  0  0  0  0  0  0  0  0
   60.1629   33.2406   45.1351 H   0  0  0  0  0  0  0  0  0  0  0  0
   59.5917   28.7478   43.2747 H   0  0  0  0  0  0  0  0  0  0  0  0
   58.9877   26.2299   43.5643 H   0  0  0  0  0  0  0  0  0  0  0  0
   58.5307   21.6230   46.2783 H   0  0  0  0  0  0  0  0  0  0  0  0
   57.7283   21.1805   44.7332 H   0  0  0  0  0  0  0  0  0  0  0  0
   59.0985   22.3422   44.7332 H   0  0  0  0  0  0  0  0  0  0  0  0
   55.4122   21.5074   47.4628 H   0  0  0  0  0  0  0  0  0  0  0  0
   54.4289   21.4465   45.9608 H   0  0  0  0  0  0  0  0  0  0  0  0
   56.1089   20.8108   45.9608 H   0  0  0  0  0  0  0  0  0  0  0  0
   57.9177   31.6161   47.6003 H   0  0  0  0  0  0  0  0  0  0  0  0
   58.6123   30.0054   47.2260 H   0  0  0  0  0  0  0  0  0  0  0  0
   59.5905   31.2916   49.2688 H   0  0  0  0  0  0  0  0  0  0  0  0
   60.7569   30.6063   48.0728 H   0  0  0  0  0  0  0  0  0  0  0  0
   60.8470   33.4188   50.5966 H   0  0  0  0  0  0  0  0  0  0  0  0
  1  2  1  0
  2  3  1  0
  3  4  2  0
  4  5  1  0
  5  6  2  0
  6  7  1  0
  7  8  1  0
  8  9  1  0
  9 10  1  0
 10 11  1  0
 11 12  1  0
 12 13  2  0
 12 14  2  0
 12 15  1  0
 15 16  2  0
 16 17  1  0
 17 18  2  0
 18 19  1  0
 19 20  2  0
 20 21  1  0
 21 22  1  0
 21 23  2  0
 23 24  1  0
 23 25  1  0
 25 26  1  0
 26 27  2  0
 18 28  1  0
 11 29  1  0
 29 30  1  0
  7 31  2  0
 31  3  1  0
 30  8  1  0
 28 15  1  0
 26 19  1  0
  1 32  1  0
  1 33  1  0
  1 34  1  0
  4 35  1  0
  5 36  1  0
  6 37  1  0
  9 38  1  0
  9 39  1  0
 10 40  1  0
 10 41  1  0
 16 42  1  0
 17 43  1  0
 22 44  1  0
 22 45  1  0
 22 46  1  0
 24 47  1  0
 24 48  1  0
 24 49  1  0
 29 50  1  0
 29 51  1  0
 30 52  1  0
 30 53  1  0
 31 54  1  0
M  CHG  1  25  -1
M  END
>  <UniqueID>  (67) 
63

>  <SMILES>  (67) 
COc1cccc(N2CCN(S(=O)(=O)c3ccc(-c4nc(C)c(C)[n-]c4=O)s3)CC2)c1

>  <Energy>  (67) 
95.11028225482187

>  <Genealogy>  (67) 
COc1cccc(N2CCN(S(=O)(=O)c3ccc(-c4nc(C)c(C)[n-]c4=O)s3)CC2)c1 (protonated)
COc1cccc(N2CCN(S(=O)(=O)c3ccc(-c4nc(C)c(C)[n-]c4=O)s3)CC2)c1 (3D coordinates assigned)
COc1cccc(N2CCN(S(=O)(=O)c3ccc(-c4nc(C)c(C)[n-]c4=O)s3)CC2)c1 (nonaromatic ring conformer: 95.11028225482187 kcal/mol)

>  <smiles>  (67) 
COc1cccc(N2CCN(S(=O)(=O)c3ccc(-c4nc(C)c(C)[nH]c4=O)s3)CC2)c1

>  <score_type>  (67) 
oracle

>  <origin>  (67) 
adg

>  <m_score__min__energy>  (67) 
-11

>  <m_primary>  (67) 
energy

$$$$
67:0
     RDKit          3D

 38 40  0  0  0  0  0  0  0  0999 V2000
   55.7660   29.7200   45.1690 O   0  0  0  0  0  0  0  0  0  0  0  0
   56.7940   29.2500   44.6030 C   0  0  0  0  0  0  0  0  0  0  0  0
   57.6250   30.0150   43.7520 N   0  0  0  0  0  0  0  0  0  0  0  0
   57.4150   31.4030   43.4260 C   0  0  0  0  0  0  0  0  0  0  0  0
   58.0170   32.2740   44.4660 C   0  0  0  0  0  0  0  0  0  0  0  0
   58.1090   31.9300   45.7950 C   0  0  0  0  0  0  0  0  0  0  0  0
   58.6790   32.7560   46.7420 C   0  0  0  0  0  0  0  0  0  0  0  0
   59.1790   33.9840   46.3450 C   0  0  0  0  0  0  0  0  0  0  0  0
   59.7590   34.8240   47.3110 O   0  0  0  0  0  0  0  0  0  0  0  0
   60.8770   34.2530   47.9450 C   0  0  0  0  0  0  0  0  0  0  0  0
   60.9840   34.1720   49.3090 C   0  0  0  0  0  0  0  0  0  0  0  0
   62.1430   33.5820   49.8060 C   0  0  0  0  0  0  0  0  0  0  0  0
   63.1370   33.1030   48.9670 C   0  0  0  0  0  0  0  0  0  0  0  0
   64.3170   32.5020   49.4870 N   0  0  0  0  0  0  0  0  0  0  0  0
   65.4140   33.0880   49.3610 O   0  0  0  0  0  0  0  0  0  0  0  0
   64.1990   31.2860   50.1150 O   0  0  0  0  0  0  0  0  0  0  0  0
   63.0100   33.1940   47.5800 C   0  0  0  0  0  0  0  0  0  0  0  0
   61.8600   33.7780   47.0920 C   0  0  0  0  0  0  0  0  0  0  0  0
   59.1060   34.3570   45.0390 C   0  0  0  0  0  0  0  0  0  0  0  0
   58.5240   33.5010   44.0990 C   0  0  0  0  0  0  0  0  0  0  0  0
   57.0700   27.8320   44.8960 C   0  0  0  0  0  0  0  0  0  0  0  0
   58.0440   27.1270   44.3220 N   0  0  0  0  0  0  0  0  0  0  0  0
   58.0500   25.8490   44.7930 C   0  0  0  0  0  0  0  0  0  0  0  0
   57.0370   25.8120   45.6760 N   0  0  0  0  0  0  0  0  0  0  0  0
   56.4480   27.0090   45.7370 N   0  0  0  0  0  0  0  0  0  0  0  0
   58.4540   29.5000   43.3410 H   0  0  0  0  0  0  0  0  0  0  0  0
   57.8821   31.6221   42.4545 H   0  0  0  0  0  0  0  0  0  0  0  0
   56.3337   31.5992   43.3775 H   0  0  0  0  0  0  0  0  0  0  0  0
   57.7116   30.9558   46.1160 H   0  0  0  0  0  0  0  0  0  0  0  0
   58.7351   32.4436   47.7952 H   0  0  0  0  0  0  0  0  0  0  0  0
   60.1962   34.5528   49.9755 H   0  0  0  0  0  0  0  0  0  0  0  0
   62.2735   33.4935   50.8946 H   0  0  0  0  0  0  0  0  0  0  0  0
   63.7929   32.8165   46.9058 H   0  0  0  0  0  0  0  0  0  0  0  0
   61.7205   33.8684   46.0046 H   0  0  0  0  0  0  0  0  0  0  0  0
   59.5048   35.3320   44.7223 H   0  0  0  0  0  0  0  0  0  0  0  0
   58.4700   33.8136   43.0457 H   0  0  0  0  0  0  0  0  0  0  0  0
   58.7306   25.0312   44.5137 H   0  0  0  0  0  0  0  0  0  0  0  0
   56.8000   24.9390   46.2060 H   0  0  0  0  0  0  0  0  0  0  0  0
  1  2  2  0
  2  3  1  0
  3  4  1  0
  4  5  1  0
  5  6  2  0
  6  7  1  0
  7  8  2  0
  8  9  1  0
  9 10  1  0
 10 11  2  0
 11 12  1  0
 12 13  2  0
 13 14  1  0
 14 15  2  0
 14 16  1  0
 13 17  1  0
 17 18  2  0
  8 19  1  0
 19 20  2  0
  2 21  1  0
 21 22  1  0
 22 23  2  0
 23 24  1  0
 24 25  1  0
 20  5  1  0
 25 21  2  0
 18 10  1  0
  3 26  1  0
  4 27  1  0
  4 28  1  0
  6 29  1  0
  7 30  1  0
 11 31  1  0
 12 32  1  0
 17 33  1  0
 18 34  1  0
 19 35  1  0
 20 36  1  0
 23 37  1  0
 24 38  1  0
M  CHG  2  14   1  16  -1
M  END
>  <smiles>  (68) 
O=C(NCc1ccc(Oc2ccc([N+](=O)[O-])cc2)cc1)c1nc[nH]n1

>  <score_type>  (68) 
oracle

>  <origin>  (68) 
adg

>  <m_score__min__energy>  (68) 
-7.7300000000000004

>  <m_primary>  (68) 
energy

$$$$
68:0
     RDKit          3D

 40 42  0  0  0  0  0  0  0  0999 V2000
   54.1453   24.9432   45.6737 H   0  0  0  0  0  0  0  0  0  0  0  0
   55.1520   25.2800   45.9620 C   0  0  0  0  0  0  0  0  0  0  0  0
   55.5200   26.5710   45.7800 N   0  0  0  0  0  0  0  0  0  0  0  0
   56.7630   27.0200   46.1040 C   0  0  0  0  0  0  0  0  0  0  0  0
   57.0470   28.2840   45.9860 N   0  0  0  0  0  0  0  0  0  0  0  0
   56.6370   29.2630   44.6150 S   0  0  0  0  0  0  0  0  0  0  0  0
   55.1430   29.4200   44.5560 O   0  0  0  0  0  0  0  0  0  0  0  0
   57.0900   28.5930   43.3470 O   0  0  0  0  0  0  0  0  0  0  0  0
   57.3860   30.8460   44.7790 C   0  0  0  0  0  0  0  0  0  0  0  0
   57.7860   31.3140   46.0390 C   0  0  0  0  0  0  0  0  0  0  0  0
   57.6513   30.6806   46.9282 H   0  0  0  0  0  0  0  0  0  0  0  0
   58.3560   32.5850   46.1670 C   0  0  0  0  0  0  0  0  0  0  0  0
   58.6716   32.9485   47.1561 H   0  0  0  0  0  0  0  0  0  0  0  0
   58.5250   33.3940   45.0390 C   0  0  0  0  0  0  0  0  0  0  0  0
   58.9735   34.3932   45.1410 H   0  0  0  0  0  0  0  0  0  0  0  0
   58.1240   32.9330   43.7820 C   0  0  0  0  0  0  0  0  0  0  0  0
   58.2569   33.5695   42.8948 H   0  0  0  0  0  0  0  0  0  0  0  0
   57.5540   31.6630   43.6520 C   0  0  0  0  0  0  0  0  0  0  0  0
   57.2363   31.3035   42.6621 H   0  0  0  0  0  0  0  0  0  0  0  0
   57.7130   26.0950   46.6240 C   0  0  0  0  0  0  0  0  0  0  0  0
   58.9490   26.4060   46.9210 N   0  0  0  0  0  0  0  0  0  0  0  0
   59.6150   27.6640   46.7450 C   0  0  0  0  0  0  0  0  0  0  0  0
   60.0750   28.0340   45.4770 C   0  0  0  0  0  0  0  0  0  0  0  0
   59.9392   27.3540   44.6231 H   0  0  0  0  0  0  0  0  0  0  0  0
   60.7070   29.2670   45.2940 C   0  0  0  0  0  0  0  0  0  0  0  0
   61.0848   29.5480   44.2999 H   0  0  0  0  0  0  0  0  0  0  0  0
   60.8600   30.1440   46.3720 C   0  0  0  0  0  0  0  0  0  0  0  0
   61.3683   31.1082   46.2236 H   0  0  0  0  0  0  0  0  0  0  0  0
   60.3710   29.8040   47.6390 C   0  0  0  0  0  0  0  0  0  0  0  0
   60.5270   30.7270   48.6850 O   0  0  0  0  0  0  0  0  0  0  0  0
   61.0900   32.0260   48.5340 C   0  0  0  0  0  0  0  0  0  0  0  0
   61.2787   32.4614   49.5264 H   0  0  0  0  0  0  0  0  0  0  0  0
   62.0372   31.9529   47.9795 H   0  0  0  0  0  0  0  0  0  0  0  0
   60.3890   32.6672   47.9795 H   0  0  0  0  0  0  0  0  0  0  0  0
   59.7380   28.5590   47.8200 C   0  0  0  0  0  0  0  0  0  0  0  0
   59.3382   28.2865   48.8079 H   0  0  0  0  0  0  0  0  0  0  0  0
   57.3080   24.8090   46.8420 N   0  0  0  0  0  0  0  0  0  0  0  0
   57.9780   24.1160   47.2460 H   0  0  0  0  0  0  0  0  0  0  0  0
   56.0600   24.3850   46.5170 C   0  0  0  0  0  0  0  0  0  0  0  0
   55.7686   23.3388   46.6918 H   0  0  0  0  0  0  0  0  0  0  0  0
  1  2  1  0
  2  3  1  0
  3  4  1  0
  4  5  2  0
  5  6  1  0
  6  7  2  0
  6  8  2  0
  6  9  1  0
  9 10  2  0
 10 11  1  0
 10 12  1  0
 12 13  1  0
 12 14  2  0
 14 15  1  0
 14 16  1  0
 16 17  1  0
 16 18  2  0
 18 19  1  0
  4 20  1  0
 20 21  2  0
 21 22  1  0
 22 23  2  0
 23 24  1  0
 23 25  1  0
 25 26  1  0
 25 27  2  0
 27 28  1  0
 27 29  1  0
 29 30  1  0
 30 31  1  0
 31 32  1  0
 31 33  1  0
 31 34  1  0
 29 35  2  0
 35 36  1  0
 20 37  1  0
 37 38  1  0
 37 39  1  0
 39 40  1  0
 39  2  2  0
 18  9  1  0
 35 22  1  0
M  CHG  1   3  -1
M  END
>  <UniqueID>  (69) 
64

>  <SMILES>  (69) 
COc1cccc(/N=c2/[nH]cc[n-]/c2=N/S(=O)(=O)c2ccccc2)c1

>  <Energy>  (69) 
58.771268294093474

>  <Genealogy>  (69) 
COc1cccc(N=c2[nH]cc[n-]c2=NS(=O)(=O)c2ccccc2)c1 (protonated)
COc1cccc(/N=c2/[nH]cc[n-]/c2=N/S(=O)(=O)c2ccccc2)c1 (cis-trans isomerization)
COc1cccc(/N=c2/[nH]cc[n-]/c2=N/S(=O)(=O)c2ccccc2)c1 (3D coordinates assigned)
COc1cccc(/N=c2/[nH]cc[n-]/c2=N/S(=O)(=O)c2ccccc2)c1 (optimized conformer: 58.771268294093474 kcal/mol)

>  <smiles>  (69) 
COc1cccc(N=c2[nH]cc[nH]c2=NS(=O)(=O)c2ccccc2)c1

>  <score_type>  (69) 
oracle

>  <origin>  (69) 
adg

>  <m_score__min__energy>  (69) 
-9.3699999999999992

>  <m_primary>  (69) 
energy

$$$$
69:0
     RDKit          3D

 43 44  0  0  0  0  0  0  0  0999 V2000
   59.0000   32.0200   48.7160 C   0  0  0  0  0  0  0  0  0  0  0  0
   58.5710   33.0120   47.7880 O   0  0  0  0  0  0  0  0  0  0  0  0
   58.4330   32.8060   46.4050 C   0  0  0  0  0  0  0  0  0  0  0  0
   57.7900   31.6680   45.8840 C   0  0  0  0  0  0  0  0  0  0  0  0
   57.6560   31.4790   44.5010 C   0  0  0  0  0  0  0  0  0  0  0  0
   56.7970   30.0280   43.9510 S   0  0  0  0  0  0  0  0  0  0  0  0
   56.1960   30.2880   42.5980 O   0  0  0  0  0  0  0  0  0  0  0  0
   55.6750   29.6610   44.8820 O   0  0  0  0  0  0  0  0  0  0  0  0
   57.9280   28.7230   43.8180 N   0  0  0  0  0  0  0  0  0  0  0  0
   58.2690   27.9290   44.9570 C   0  0  0  0  0  0  0  0  0  0  0  0
   57.4060   26.9020   45.3700 C   0  0  0  0  0  0  0  0  0  0  0  0
   57.7140   26.1180   46.4910 C   0  0  0  0  0  0  0  0  0  0  0  0
   56.8020   25.0010   46.9030 C   0  0  0  0  0  0  0  0  0  0  0  0
   58.9150   26.3400   47.1770 C   0  0  0  0  0  0  0  0  0  0  0  0
   59.7840   27.3560   46.7700 C   0  0  0  0  0  0  0  0  0  0  0  0
   59.4670   28.1640   45.6670 C   0  0  0  0  0  0  0  0  0  0  0  0
   60.4040   29.2640   45.2540 C   0  0  0  0  0  0  0  0  0  0  0  0
   58.1500   32.4690   43.6140 C   0  0  0  0  0  0  0  0  0  0  0  0
   58.0260   32.3420   42.1190 C   0  0  0  0  0  0  0  0  0  0  0  0
   58.8040   33.5950   44.1380 C   0  0  0  0  0  0  0  0  0  0  0  0
   58.9520   33.7660   45.5220 C   0  0  0  0  0  0  0  0  0  0  0  0
   59.6390   34.9920   46.0590 C   0  0  0  0  0  0  0  0  0  0  0  0
   58.8423   32.3848   49.7417 H   0  0  0  0  0  0  0  0  0  0  0  0
   58.4201   31.0981   48.5614 H   0  0  0  0  0  0  0  0  0  0  0  0
   60.0689   31.8111   48.5614 H   0  0  0  0  0  0  0  0  0  0  0  0
   57.3852   30.9130   46.5740 H   0  0  0  0  0  0  0  0  0  0  0  0
   58.5780   28.7430   43.0020 H   0  0  0  0  0  0  0  0  0  0  0  0
   56.4794   26.7104   44.8090 H   0  0  0  0  0  0  0  0  0  0  0  0
   56.7592   24.9486   48.0009 H   0  0  0  0  0  0  0  0  0  0  0  0
   55.7932   25.1856   46.5051 H   0  0  0  0  0  0  0  0  0  0  0  0
   57.1846   24.0495   46.5051 H   0  0  0  0  0  0  0  0  0  0  0  0
   59.1756   25.7110   48.0410 H   0  0  0  0  0  0  0  0  0  0  0  0
   60.7230   27.5236   47.3179 H   0  0  0  0  0  0  0  0  0  0  0  0
   60.8174   29.7493   46.1504 H   0  0  0  0  0  0  0  0  0  0  0  0
   61.2239   28.8415   44.6547 H   0  0  0  0  0  0  0  0  0  0  0  0
   59.8565   30.0063   44.6547 H   0  0  0  0  0  0  0  0  0  0  0  0
   57.2763   31.5742   41.8772 H   0  0  0  0  0  0  0  0  0  0  0  0
   57.7129   33.3069   41.6938 H   0  0  0  0  0  0  0  0  0  0  0  0
   58.9982   32.0521   41.6938 H   0  0  0  0  0  0  0  0  0  0  0  0
   59.2067   34.3551   43.4524 H   0  0  0  0  0  0  0  0  0  0  0  0
   59.6255   34.9679   47.1587 H   0  0  0  0  0  0  0  0  0  0  0  0
   60.6804   35.0132   45.7055 H   0  0  0  0  0  0  0  0  0  0  0  0
   59.1134   35.8913   45.7055 H   0  0  0  0  0  0  0  0  0  0  0  0
  1  2  1  0
  2  3  1  0
  3  4  2  0
  4  5  1  0
  5  6  1  0
  6  7  2  0
  6  8  2  0
  6  9  1  0
  9 10  1  0
 10 11  2  0
 11 12  1  0
 12 13  1  0
 12 14  2  0
 14 15  1  0
 15 16  2  0
 16 17  1  0
  5 18  2  0
 18 19  1  0
 18 20  1  0
 20 21  2  0
 21 22  1  0
 21  3  1  0
 16 10  1  0
  1 23  1  0
  1 24  1  0
  1 25  1  0
  4 26  1  0
  9 27  1  0
 11 28  1  0
 13 29  1  0
 13 30  1  0
 13 31  1  0
 14 32  1  0
 15 33  1  0
 17 34  1  0
 17 35  1  0
 17 36  1  0
 19 37  1  0
 19 38  1  0
 19 39  1  0
 20 40  1  0
 22 41  1  0
 22 42  1  0
 22 43  1  0
M  END
>  <UniqueID>  (70) 
65

>  <SMILES>  (70) 
COc1cc(S(=O)(=O)Nc2cc(C)ccc2C)c(C)cc1C

>  <Energy>  (70) 
48.616929434363854

>  <Genealogy>  (70) 
COc1cc(S(=O)(=O)Nc2cc(C)ccc2C)c(C)cc1C (3D coordinates assigned)
COc1cc(S(=O)(=O)Nc2cc(C)ccc2C)c(C)cc1C (optimized conformer: 48.616929434363854 kcal/mol)

>  <smiles>  (70) 
COc1cc(S(=O)(=O)Nc2cc(C)ccc2C)c(C)cc1C

>  <score_type>  (70) 
oracle

>  <origin>  (70) 
adg

>  <m_score__min__energy>  (70) 
-8.4900000000000002

>  <m_primary>  (70) 
energy

$$$$
70:0
     RDKit          3D

 25 26  0  0  0  0  0  0  0  0999 V2000
   60.9700   34.2170   49.2920 C   0  0  0  0  0  0  0  0  0  0  0  0
   61.9640   33.6720   48.3780 N   0  0  0  0  0  0  0  0  0  0  0  0
   63.2690   33.8010   48.5410 N   0  0  0  0  0  0  0  0  0  0  0  0
   63.8740   33.1480   47.5620 N   0  0  0  0  0  0  0  0  0  0  0  0
   62.9920   32.5850   46.7500 N   0  0  0  0  0  0  0  0  0  0  0  0
   61.7910   32.9290   47.2610 C   0  0  0  0  0  0  0  0  0  0  0  0
   60.5030   32.4980   46.6760 C   0  0  0  0  0  0  0  0  0  0  0  0
   60.0980   31.1540   46.7110 C   0  0  0  0  0  0  0  0  0  0  0  0
   58.8680   30.7730   46.1660 C   0  0  0  0  0  0  0  0  0  0  0  0
   58.0180   31.7230   45.5890 C   0  0  0  0  0  0  0  0  0  0  0  0
   56.7960   31.2850   45.0550 O   0  0  0  0  0  0  0  0  0  0  0  0
   56.6130   30.0670   44.3390 C   0  0  0  0  0  0  0  0  0  0  0  0
   55.5460   29.3640   44.8690 F   0  0  0  0  0  0  0  0  0  0  0  0
   56.3470   30.3570   43.0150 F   0  0  0  0  0  0  0  0  0  0  0  0
   58.4120   33.0740   45.5720 C   0  0  0  0  0  0  0  0  0  0  0  0
   59.6420   33.4560   46.1180 C   0  0  0  0  0  0  0  0  0  0  0  0
   61.2905   34.0413   50.3295 H   0  0  0  0  0  0  0  0  0  0  0  0
   60.8661   35.2982   49.1185 H   0  0  0  0  0  0  0  0  0  0  0  0
   60.0025   33.7232   49.1185 H   0  0  0  0  0  0  0  0  0  0  0  0
   64.9090   33.0810   47.4490 H   0  0  0  0  0  0  0  0  0  0  0  0
   60.7515   30.3972   47.1694 H   0  0  0  0  0  0  0  0  0  0  0  0
   58.5655   29.7157   46.1911 H   0  0  0  0  0  0  0  0  0  0  0  0
   57.5260   29.4586   44.4186 H   0  0  0  0  0  0  0  0  0  0  0  0
   57.7504   33.8323   45.1278 H   0  0  0  0  0  0  0  0  0  0  0  0
   59.9369   34.5157   46.1100 H   0  0  0  0  0  0  0  0  0  0  0  0
  1  2  1  0
  2  3  1  0
  3  4  2  0
  4  5  1  0
  5  6  2  0
  6  7  1  0
  7  8  2  0
  8  9  1  0
  9 10  2  0
 10 11  1  0
 11 12  1  0
 12 13  1  0
 12 14  1  0
 10 15  1  0
 15 16  2  0
  6  2  1  0
 16  7  1  0
  1 17  1  0
  1 18  1  0
  1 19  1  0
  4 20  1  0
  8 21  1  0
  9 22  1  0
 12 23  1  0
 15 24  1  0
 16 25  1  0
M  CHG  1   4   1
M  END
>  <UniqueID>  (71) 
66

>  <SMILES>  (71) 
Cn1n[nH+]nc1-c1ccc(OC(F)F)cc1

>  <Energy>  (71) 
68.85374916957475

>  <Genealogy>  (71) 
Cn1n[nH+]nc1-c1ccc(OC(F)F)cc1 (protonated)
Cn1n[nH+]nc1-c1ccc(OC(F)F)cc1 (3D coordinates assigned)
Cn1n[nH+]nc1-c1ccc(OC(F)F)cc1 (optimized conformer: 68.85374916957475 kcal/mol)

>  <smiles>  (71) 
Cn1nnnc1-c1ccc(OC(F)F)cc1

>  <score_type>  (71) 
oracle

>  <origin>  (71) 
adg

>  <m_score__min__energy>  (71) 
-4.6500000000000004

>  <m_primary>  (71) 
energy

$$$$
71:0
     RDKit          3D

 43 45  0  0  0  0  0  0  0  0999 V2000
   54.7150   29.4770   43.6330 O   0  0  0  0  0  0  0  0  0  0  0  0
   55.8140   29.3680   44.2370 C   0  0  0  0  0  0  0  0  0  0  0  0
   56.9190   30.3330   43.9130 C   0  0  0  0  0  0  0  0  0  0  0  0
   56.8830   31.4630   44.8380 N   0  0  0  0  0  0  0  0  0  0  0  0
   57.6510   32.6660   44.6990 C   0  0  0  0  0  0  0  0  0  0  0  0
   57.7790   33.1720   43.5530 O   0  0  0  0  0  0  0  0  0  0  0  0
   58.3010   33.3240   45.8500 C   0  0  0  0  0  0  0  0  0  0  0  0
   58.2880   32.7250   47.1200 C   0  0  0  0  0  0  0  0  0  0  0  0
   58.9480   33.3310   48.1930 C   0  0  0  0  0  0  0  0  0  0  0  0
   59.6380   34.5310   48.0030 C   0  0  0  0  0  0  0  0  0  0  0  0
   59.6700   35.1260   46.7380 C   0  0  0  0  0  0  0  0  0  0  0  0
   59.0100   34.5220   45.6630 C   0  0  0  0  0  0  0  0  0  0  0  0
   55.9450   28.3630   45.2530 N   0  0  0  0  0  0  0  0  0  0  0  0
   57.1700   27.8320   45.7780 C   0  0  0  0  0  0  0  0  0  0  0  0
   58.1500   28.7390   46.2000 C   0  0  0  0  0  0  0  0  0  0  0  0
   59.3820   28.2840   46.6750 C   0  0  0  0  0  0  0  0  0  0  0  0
   59.6420   26.9170   46.7420 C   0  0  0  0  0  0  0  0  0  0  0  0
   58.6590   25.9970   46.3690 C   0  0  0  0  0  0  0  0  0  0  0  0
   57.4020   26.4380   45.9160 C   0  0  0  0  0  0  0  0  0  0  0  0
   56.3610   25.4240   45.6280 C   0  0  0  0  0  0  0  0  0  0  0  0
   55.1830   25.6370   46.0250 O   0  0  0  0  0  0  0  0  0  0  0  0
   56.6550   24.1840   44.8660 C   0  0  0  0  0  0  0  0  0  0  0  0
   57.5440   23.2160   45.3700 C   0  0  0  0  0  0  0  0  0  0  0  0
   57.8060   22.0500   44.6450 C   0  0  0  0  0  0  0  0  0  0  0  0
   57.1920   21.8430   43.4070 C   0  0  0  0  0  0  0  0  0  0  0  0
   56.3170   22.8020   42.8920 C   0  0  0  0  0  0  0  0  0  0  0  0
   56.0520   23.9700   43.6130 C   0  0  0  0  0  0  0  0  0  0  0  0
   57.8881   29.8202   44.0019 H   0  0  0  0  0  0  0  0  0  0  0  0
   56.7855   30.7030   42.8857 H   0  0  0  0  0  0  0  0  0  0  0  0
   57.7559   31.7742   47.2713 H   0  0  0  0  0  0  0  0  0  0  0  0
   58.9241   32.8626   49.1880 H   0  0  0  0  0  0  0  0  0  0  0  0
   60.1559   35.0076   48.8484 H   0  0  0  0  0  0  0  0  0  0  0  0
   60.2147   36.0699   46.5882 H   0  0  0  0  0  0  0  0  0  0  0  0
   59.0463   34.9871   44.6668 H   0  0  0  0  0  0  0  0  0  0  0  0
   57.9476   29.8194   46.1570 H   0  0  0  0  0  0  0  0  0  0  0  0
   60.1476   29.0055   46.9964 H   0  0  0  0  0  0  0  0  0  0  0  0
   60.6232   26.5613   47.0893 H   0  0  0  0  0  0  0  0  0  0  0  0
   58.8695   24.9190   46.4300 H   0  0  0  0  0  0  0  0  0  0  0  0
   58.0357   23.3782   46.3406 H   0  0  0  0  0  0  0  0  0  0  0  0
   58.4961   21.2948   45.0493 H   0  0  0  0  0  0  0  0  0  0  0  0
   57.3979   20.9245   42.8379 H   0  0  0  0  0  0  0  0  0  0  0  0
   55.8353   22.6379   41.9168 H   0  0  0  0  0  0  0  0  0  0  0  0
   55.3685   24.7257   43.1985 H   0  0  0  0  0  0  0  0  0  0  0  0
  1  2  2  0
  2  3  1  0
  3  4  1  0
  4  5  1  0
  5  6  2  0
  5  7  1  0
  7  8  2  0
  8  9  1  0
  9 10  2  0
 10 11  1  0
 11 12  2  0
  2 13  1  0
 13 14  1  0
 14 15  2  0
 15 16  1  0
 16 17  2  0
 17 18  1  0
 18 19  2  0
 19 20  1  0
 20 21  2  0
 20 22  1  0
 22 23  2  0
 23 24  1  0
 24 25  2  0
 25 26  1  0
 26 27  2  0
 12  7  1  0
 19 14  1  0
 27 22  1  0
  3 28  1  0
  3 29  1  0
  8 30  1  0
  9 31  1  0
 10 32  1  0
 11 33  1  0
 12 34  1  0
 15 35  1  0
 16 36  1  0
 17 37  1  0
 18 38  1  0
 23 39  1  0
 24 40  1  0
 25 41  1  0
 26 42  1  0
 27 43  1  0
M  CHG  2   4  -1  13  -1
M  END
>  <UniqueID>  (72) 
67

>  <SMILES>  (72) 
O=C(C[N-]C(=O)c1ccccc1)[N-]c1ccccc1C(=O)c1ccccc1

>  <Energy>  (72) 
59.10579349948236

>  <Genealogy>  (72) 
O=C(C[N-]C(=O)c1ccccc1)[N-]c1ccccc1C(=O)c1ccccc1 (protonated)
O=C(C[N-]C(=O)c1ccccc1)[N-]c1ccccc1C(=O)c1ccccc1 (3D coordinates assigned)
O=C(C[N-]C(=O)c1ccccc1)[N-]c1ccccc1C(=O)c1ccccc1 (optimized conformer: 59.10579349948236 kcal/mol)

>  <smiles>  (72) 
O=C(CNC(=O)c1ccccc1)Nc1ccccc1C(=O)c1ccccc1

>  <score_type>  (72) 
oracle

>  <origin>  (72) 
adg

>  <m_score__min__energy>  (72) 
-13.140000000000001

>  <m_primary>  (72) 
energy

$$$$
72:0
     RDKit          3D

 50 53  0  0  0  0  0  0  0  0999 V2000
   58.1010   31.1950   55.7430 O   0  0  0  0  0  0  0  0  0  0  0  0
   58.6160   32.4170   55.2870 C   0  0  0  0  0  0  0  0  0  0  0  0
   59.0100   32.3180   53.8110 C   0  0  0  0  0  0  0  0  0  0  0  0
   58.6280   30.9950   53.2550 N   0  0  0  0  0  0  0  0  0  0  0  0
   57.3040   31.0240   52.5930 C   0  0  0  0  0  0  0  0  0  0  0  0
   57.3200   31.9280   51.3500 C   0  0  0  0  0  0  0  0  0  0  0  0
   58.5900   31.7930   50.6360 N   0  0  0  0  0  0  0  0  0  0  0  0
   58.8750   32.6640   49.5360 C   0  0  0  0  0  0  0  0  0  0  0  0
   58.1610   32.5740   48.4550 N   0  0  0  0  0  0  0  0  0  0  0  0
   58.3610   33.3060   47.2340 C   0  0  0  0  0  0  0  0  0  0  0  0
   57.2320   33.5710   46.4470 C   0  0  0  0  0  0  0  0  0  0  0  0
   57.3540   34.2090   45.2120 C   0  0  0  0  0  0  0  0  0  0  0  0
   58.6140   34.5650   44.7330 C   0  0  0  0  0  0  0  0  0  0  0  0
   59.7530   34.2870   45.4910 C   0  0  0  0  0  0  0  0  0  0  0  0
   59.6480   33.6740   46.7490 C   0  0  0  0  0  0  0  0  0  0  0  0
   60.8750   33.3670   47.4350 N   0  0  0  0  0  0  0  0  0  0  0  0
   61.0830   33.3290   48.7210 C   0  0  0  0  0  0  0  0  0  0  0  0
   62.4560   33.0030   49.2120 C   0  0  0  0  0  0  0  0  0  0  0  0
   63.6160   33.4090   48.5180 C   0  0  0  0  0  0  0  0  0  0  0  0
   64.8880   33.0920   49.0050 C   0  0  0  0  0  0  0  0  0  0  0  0
   65.0260   32.3720   50.1960 C   0  0  0  0  0  0  0  0  0  0  0  0
   66.7670   31.9410   50.8580 Br  0  0  0  0  0  0  0  0  0  0  0  0
   63.8890   31.9680   50.9020 C   0  0  0  0  0  0  0  0  0  0  0  0
   62.6140   32.2810   50.4190 C   0  0  0  0  0  0  0  0  0  0  0  0
   59.9650   33.6820   49.6630 C   0  0  0  0  0  0  0  0  0  0  0  0
   59.4290   30.6170   50.8690 C   0  0  0  0  0  0  0  0  0  0  0  0
   59.6820   30.4100   52.3790 C   0  0  0  0  0  0  0  0  0  0  0  0
   58.2010   30.5540   54.9900 H   0  0  0  0  0  0  0  0  0  0  0  0
   57.8510   33.1985   55.4054 H   0  0  0  0  0  0  0  0  0  0  0  0
   59.5101   32.6675   55.8769 H   0  0  0  0  0  0  0  0  0  0  0  0
   58.4961   33.1095   53.2459 H   0  0  0  0  0  0  0  0  0  0  0  0
   60.1003   32.4364   53.7266 H   0  0  0  0  0  0  0  0  0  0  0  0
   57.0330   30.0021   52.2892 H   0  0  0  0  0  0  0  0  0  0  0  0
   56.5688   31.4266   53.3053 H   0  0  0  0  0  0  0  0  0  0  0  0
   56.4959   31.6389   50.6812 H   0  0  0  0  0  0  0  0  0  0  0  0
   57.1998   32.9740   51.6686 H   0  0  0  0  0  0  0  0  0  0  0  0
   56.2367   33.2721   46.8076 H   0  0  0  0  0  0  0  0  0  0  0  0
   56.4562   34.4310   44.6165 H   0  0  0  0  0  0  0  0  0  0  0  0
   58.7107   35.0649   43.7579 H   0  0  0  0  0  0  0  0  0  0  0  0
   60.7453   34.5518   45.0971 H   0  0  0  0  0  0  0  0  0  0  0  0
   63.5184   33.9812   47.5836 H   0  0  0  0  0  0  0  0  0  0  0  0
   65.7827   33.4099   48.4496 H   0  0  0  0  0  0  0  0  0  0  0  0
   63.9972   31.4027   51.8394 H   0  0  0  0  0  0  0  0  0  0  0  0
   61.7250   31.9627   50.9832 H   0  0  0  0  0  0  0  0  0  0  0  0
   60.3428   33.6897   50.6960 H   0  0  0  0  0  0  0  0  0  0  0  0
   59.5714   34.6783   49.4129 H   0  0  0  0  0  0  0  0  0  0  0  0
   58.9236   29.7281   50.4634 H   0  0  0  0  0  0  0  0  0  0  0  0
   60.3964   30.7711   50.3687 H   0  0  0  0  0  0  0  0  0  0  0  0
   59.7351   29.3291   52.5760 H   0  0  0  0  0  0  0  0  0  0  0  0
   60.6209   30.9304   52.6191 H   0  0  0  0  0  0  0  0  0  0  0  0
  1  2  1  0
  2  3  1  0
  3  4  1  0
  4  5  1  0
  5  6  1  0
  6  7  1  0
  7  8  1  0
  8  9  2  0
  9 10  1  0
 10 11  2  0
 11 12  1  0
 12 13  2  0
 13 14  1  0
 14 15  2  0
 15 16  1  0
 16 17  2  0
 17 18  1  0
 18 19  2  0
 19 20  1  0
 20 21  2  0
 21 22  1  0
 21 23  1  0
 23 24  2  0
 17 25  1  0
  7 26  1  0
 26 27  1  0
 27  4  1  0
 25  8  1  0
 15 10  1  0
 24 18  1  0
  1 28  1  0
  2 29  1  0
  2 30  1  0
  3 31  1  0
  3 32  1  0
  5 33  1  0
  5 34  1  0
  6 35  1  0
  6 36  1  0
 11 37  1  0
 12 38  1  0
 13 39  1  0
 14 40  1  0
 19 41  1  0
 20 42  1  0
 23 43  1  0
 24 44  1  0
 25 45  1  0
 25 46  1  0
 26 47  1  0
 26 48  1  0
 27 49  1  0
 27 50  1  0
M  END
>  <UniqueID>  (73) 
68

>  <SMILES>  (73) 
OCCN1CCN(C2=Nc3ccccc3N=C(c3ccc(Br)cc3)C2)CC1

>  <Energy>  (73) 
78.72000256244979

>  <Genealogy>  (73) 
OCCN1CCN(C2=Nc3ccccc3N=C(c3ccc(Br)cc3)C2)CC1 (3D coordinates assigned)
OCCN1CCN(C2=Nc3ccccc3N=C(c3ccc(Br)cc3)C2)CC1 (nonaromatic ring conformer: 78.72000256244979 kcal/mol)

>  <smiles>  (73) 
OCCN1CCN(C2=Nc3ccccc3N=C(c3ccc(Br)cc3)C2)CC1

>  <score_type>  (73) 
oracle

>  <origin>  (73) 
adg

>  <m_score__min__energy>  (73) 
-6.7999999999999998

>  <m_primary>  (73) 
energy

$$$$
73:0
     RDKit          3D

 29 30  0  0  0  0  0  0  0  0999 V2000
   61.1480   30.4430   46.9150 C   0  0  0  0  0  0  0  0  0  0  0  0
   60.6030   30.0610   45.6560 O   0  0  0  0  0  0  0  0  0  0  0  0
   59.2440   29.8000   45.4270 C   0  0  0  0  0  0  0  0  0  0  0  0
   58.4780   30.5420   44.5090 C   0  0  0  0  0  0  0  0  0  0  0  0
   57.1230   30.2520   44.3280 C   0  0  0  0  0  0  0  0  0  0  0  0
   56.5200   29.2170   45.0490 C   0  0  0  0  0  0  0  0  0  0  0  0
   55.1570   28.9930   44.8960 O   0  0  0  0  0  0  0  0  0  0  0  0
   57.2880   28.4410   45.9420 C   0  0  0  0  0  0  0  0  0  0  0  0
   56.7190   27.3600   46.6950 N   0  0  0  0  0  0  0  0  0  0  0  0
   57.1470   25.9920   46.6610 C   0  0  0  0  0  0  0  0  0  0  0  0
   58.1540   25.6570   47.3410 O   0  0  0  0  0  0  0  0  0  0  0  0
   56.4620   24.9740   45.8310 C   0  0  0  0  0  0  0  0  0  0  0  0
   57.2070   23.9100   45.2930 C   0  0  0  0  0  0  0  0  0  0  0  0
   56.5820   22.9250   44.5220 C   0  0  0  0  0  0  0  0  0  0  0  0
   57.6020   21.4720   43.8170 Br  0  0  0  0  0  0  0  0  0  0  0  0
   55.2090   23.0000   44.2710 C   0  0  0  0  0  0  0  0  0  0  0  0
   54.4630   24.0660   44.7800 C   0  0  0  0  0  0  0  0  0  0  0  0
   55.0830   25.0590   45.5470 C   0  0  0  0  0  0  0  0  0  0  0  0
   54.3250   26.1340   45.9960 O   0  0  0  0  0  0  0  0  0  0  0  0
   58.6370   28.7620   46.1420 C   0  0  0  0  0  0  0  0  0  0  0  0
   60.5375   30.0151   47.7238 H   0  0  0  0  0  0  0  0  0  0  0  0
   62.1792   30.0690   46.9968 H   0  0  0  0  0  0  0  0  0  0  0  0
   61.1482   31.5400   46.9968 H   0  0  0  0  0  0  0  0  0  0  0  0
   58.9471   31.3527   43.9322 H   0  0  0  0  0  0  0  0  0  0  0  0
   56.5279   30.8410   43.6147 H   0  0  0  0  0  0  0  0  0  0  0  0
   58.2894   23.8519   45.4799 H   0  0  0  0  0  0  0  0  0  0  0  0
   54.7158   22.2197   43.6727 H   0  0  0  0  0  0  0  0  0  0  0  0
   53.3835   24.1251   44.5770 H   0  0  0  0  0  0  0  0  0  0  0  0
   59.2277   28.1893   46.8721 H   0  0  0  0  0  0  0  0  0  0  0  0
  1  2  1  0
  2  3  1  0
  3  4  2  0
  4  5  1  0
  5  6  2  0
  6  7  1  0
  6  8  1  0
  8  9  1  0
  9 10  1  0
 10 11  2  0
 10 12  1  0
 12 13  2  0
 13 14  1  0
 14 15  1  0
 14 16  2  0
 16 17  1  0
 17 18  2  0
 18 19  1  0
  8 20  2  0
 20  3  1  0
 18 12  1  0
  1 21  1  0
  1 22  1  0
  1 23  1  0
  4 24  1  0
  5 25  1  0
 13 26  1  0
 16 27  1  0
 17 28  1  0
 20 29  1  0
M  CHG  3   7  -1   9  -1  19  -1
M  END
>  <UniqueID>  (74) 
69

>  <SMILES>  (74) 
COc1ccc([O-])c([N-]C(=O)c2cc(Br)ccc2[O-])c1

>  <Energy>  (74) 
39.5629112397827

>  <Genealogy>  (74) 
COc1ccc([O-])c([N-]C(=O)c2cc(Br)ccc2[O-])c1 (protonated)
COc1ccc([O-])c([N-]C(=O)c2cc(Br)ccc2[O-])c1 (3D coordinates assigned)
COc1ccc([O-])c([N-]C(=O)c2cc(Br)ccc2[O-])c1 (optimized conformer: 39.5629112397827 kcal/mol)

>  <smiles>  (74) 
COc1ccc(O)c(NC(=O)c2cc(Br)ccc2O)c1

>  <score_type>  (74) 
oracle

>  <origin>  (74) 
adg

>  <m_score__min__energy>  (74) 
-15.039999999999999

>  <m_primary>  (74) 
energy

$$$$
74:0
     RDKit          3D

 34 36  0  0  0  0  0  0  0  0999 V2000
   57.2582   26.0362   46.3394 H   0  0  0  0  0  0  0  0  0  0  0  0
   57.3140   26.9960   45.8050 C   0  0  0  0  0  0  0  0  0  0  0  0
   56.1950   27.7370   45.6200 N   0  0  0  0  0  0  0  0  0  0  0  0
   56.2340   28.9260   44.9640 C   0  0  0  0  0  0  0  0  0  0  0  0
   55.1640   29.5750   44.8190 O   0  0  0  0  0  0  0  0  0  0  0  0
   57.4230   29.4100   44.4730 N   0  0  0  0  0  0  0  0  0  0  0  0
   57.4620   30.6870   43.7310 C   0  0  0  0  0  0  0  0  0  0  0  0
   56.4371   30.9791   43.4586 H   0  0  0  0  0  0  0  0  0  0  0  0
   58.0712   30.5541   42.8248 H   0  0  0  0  0  0  0  0  0  0  0  0
   58.0780   31.7700   44.5790 C   0  0  0  0  0  0  0  0  0  0  0  0
   58.6760   31.4550   45.8080 C   0  0  0  0  0  0  0  0  0  0  0  0
   58.7180   30.4079   46.1423 H   0  0  0  0  0  0  0  0  0  0  0  0
   59.2190   32.4620   46.6110 C   0  0  0  0  0  0  0  0  0  0  0  0
   59.6883   32.2009   47.5710 H   0  0  0  0  0  0  0  0  0  0  0  0
   59.1700   33.8070   46.2010 C   0  0  0  0  0  0  0  0  0  0  0  0
   59.7440   34.8750   47.0540 C   0  0  0  0  0  0  0  0  0  0  0  0
   59.6340   36.0820   46.7010 O   0  0  0  0  0  0  0  0  0  0  0  0
   60.4190   34.5270   48.2750 N   0  0  0  0  0  0  0  0  0  0  0  0
   61.6200   34.0420   48.4120 C   0  0  0  0  0  0  0  0  0  0  0  0
   62.6910   33.6260   47.1750 S   0  0  0  0  0  0  0  0  0  0  0  0
   63.8980   33.1280   48.2390 C   0  0  0  0  0  0  0  0  0  0  0  0
   64.8853   32.7334   47.9572 H   0  0  0  0  0  0  0  0  0  0  0  0
   63.4280   33.3030   49.5360 C   0  0  0  0  0  0  0  0  0  0  0  0
   64.0283   33.0518   50.4229 H   0  0  0  0  0  0  0  0  0  0  0  0
   62.1680   33.8090   49.6230 N   0  0  0  0  0  0  0  0  0  0  0  0
   61.6840   33.9940   50.5300 H   0  0  0  0  0  0  0  0  0  0  0  0
   58.5670   34.1200   44.9700 C   0  0  0  0  0  0  0  0  0  0  0  0
   58.5220   35.1666   44.6345 H   0  0  0  0  0  0  0  0  0  0  0  0
   58.0240   33.1100   44.1690 C   0  0  0  0  0  0  0  0  0  0  0  0
   57.5510   33.3688   43.2102 H   0  0  0  0  0  0  0  0  0  0  0  0
   58.5710   28.6740   44.6460 C   0  0  0  0  0  0  0  0  0  0  0  0
   59.6780   29.0870   44.2040 O   0  0  0  0  0  0  0  0  0  0  0  0
   58.5310   27.4520   45.3180 C   0  0  0  0  0  0  0  0  0  0  0  0
   59.4476   26.8605   45.4593 H   0  0  0  0  0  0  0  0  0  0  0  0
  1  2  1  0
  2  3  1  0
  3  4  1  0
  4  5  2  0
  4  6  1  0
  6  7  1  0
  7  8  1  0
  7  9  1  0
  7 10  1  0
 10 11  2  0
 11 12  1  0
 11 13  1  0
 13 14  1  0
 13 15  2  0
 15 16  1  0
 16 17  2  0
 16 18  1  0
 18 19  2  0
 19 20  1  0
 20 21  1  0
 21 22  1  0
 21 23  2  0
 23 24  1  0
 23 25  1  0
 25 26  1  0
 15 27  1  0
 27 28  1  0
 27 29  2  0
 29 30  1  0
  6 31  1  0
 31 32  2  0
 31 33  1  0
 33 34  1  0
 33  2  2  0
 29 10  1  0
 25 19  1  0
M  CHG  1   3  -1
M  END
>  <UniqueID>  (75) 
70

>  <SMILES>  (75) 
O=C(/N=c1/[nH]ccs1)c1ccc(Cn2c(=O)cc[n-]c2=O)cc1

>  <Energy>  (75) 
74.87272133735624

>  <Genealogy>  (75) 
O=C(N=c1[nH]ccs1)c1ccc(Cn2c(=O)cc[n-]c2=O)cc1 (protonated)
O=C(/N=c1/[nH]ccs1)c1ccc(Cn2c(=O)cc[n-]c2=O)cc1 (cis-trans isomerization)
O=C(/N=c1/[nH]ccs1)c1ccc(Cn2c(=O)cc[n-]c2=O)cc1 (3D coordinates assigned)
O=C(/N=c1/[nH]ccs1)c1ccc(Cn2c(=O)cc[n-]c2=O)cc1 (optimized conformer: 74.87272133735624 kcal/mol)

>  <smiles>  (75) 
O=C(N=c1[nH]ccs1)c1ccc(Cn2c(=O)cc[nH]c2=O)cc1

>  <score_type>  (75) 
oracle

>  <origin>  (75) 
adg

>  <m_score__min__energy>  (75) 
-9.25

>  <m_primary>  (75) 
energy

$$$$
75:0
     RDKit          3D

 45 48  0  0  0  0  0  0  0  0999 V2000
   62.8570   32.9000   48.5070 C   0  0  0  0  0  0  0  0  0  0  0  0
   62.7360   32.9730   47.1180 C   0  0  0  0  0  0  0  0  0  0  0  0
   61.6690   33.6700   46.5430 C   0  0  0  0  0  0  0  0  0  0  0  0
   60.7070   34.2920   47.3570 C   0  0  0  0  0  0  0  0  0  0  0  0
   59.5540   35.0380   46.7310 C   0  0  0  0  0  0  0  0  0  0  0  0
   58.2590   34.2100   46.7280 C   0  0  0  0  0  0  0  0  0  0  0  0
   58.0160   33.4920   45.4310 C   0  0  0  0  0  0  0  0  0  0  0  0
   58.6520   33.7610   44.2720 N   0  0  0  0  0  0  0  0  0  0  0  0
   58.2340   32.8570   43.4340 O   0  0  0  0  0  0  0  0  0  0  0  0
   57.3930   32.0500   44.0360 C   0  0  0  0  0  0  0  0  0  0  0  0
   56.7640   30.8510   43.4000 C   0  0  0  0  0  0  0  0  0  0  0  0
   55.9960   30.0790   44.3890 N   0  0  0  0  0  0  0  0  0  0  0  0
   56.6730   28.8320   44.7810 C   0  0  0  0  0  0  0  0  0  0  0  0
   57.6830   29.0970   45.8550 C   0  0  0  0  0  0  0  0  0  0  0  0
   58.6330   28.1880   46.3140 C   0  0  0  0  0  0  0  0  0  0  0  0
   59.2880   28.8630   47.3170 C   0  0  0  0  0  0  0  0  0  0  0  0
   60.3220   28.4660   48.1600 C   0  0  0  0  0  0  0  0  0  0  0  0
   60.7840   29.3950   49.1110 C   0  0  0  0  0  0  0  0  0  0  0  0
   60.2040   30.6810   49.1950 C   0  0  0  0  0  0  0  0  0  0  0  0
   59.1550   31.0480   48.3330 C   0  0  0  0  0  0  0  0  0  0  0  0
   58.7220   30.1080   47.4010 C   0  0  0  0  0  0  0  0  0  0  0  0
   57.7640   30.2370   46.5160 O   0  0  0  0  0  0  0  0  0  0  0  0
   57.2190   32.4140   45.3170 N   0  0  0  0  0  0  0  0  0  0  0  0
   60.8310   34.2050   48.7540 C   0  0  0  0  0  0  0  0  0  0  0  0
   61.9060   33.5160   49.3250 C   0  0  0  0  0  0  0  0  0  0  0  0
   63.7011   32.3575   48.9576 H   0  0  0  0  0  0  0  0  0  0  0  0
   63.4811   32.4815   46.4752 H   0  0  0  0  0  0  0  0  0  0  0  0
   61.5821   33.7318   45.4482 H   0  0  0  0  0  0  0  0  0  0  0  0
   59.3810   35.9639   47.2992 H   0  0  0  0  0  0  0  0  0  0  0  0
   59.8193   35.2532   45.6854 H   0  0  0  0  0  0  0  0  0  0  0  0
   58.3197   33.4640   47.5341 H   0  0  0  0  0  0  0  0  0  0  0  0
   57.4238   34.9108   46.8740 H   0  0  0  0  0  0  0  0  0  0  0  0
   56.0889   31.1811   42.5967 H   0  0  0  0  0  0  0  0  0  0  0  0
   57.5592   30.2098   42.9918 H   0  0  0  0  0  0  0  0  0  0  0  0
   55.9180   30.6710   45.2490 H   0  0  0  0  0  0  0  0  0  0  0  0
   55.9257   28.1170   45.1557 H   0  0  0  0  0  0  0  0  0  0  0  0
   57.1891   28.4169   43.9028 H   0  0  0  0  0  0  0  0  0  0  0  0
   58.8172   27.1643   45.9561 H   0  0  0  0  0  0  0  0  0  0  0  0
   60.7628   27.4609   48.0855 H   0  0  0  0  0  0  0  0  0  0  0  0
   61.6015   29.1184   49.7930 H   0  0  0  0  0  0  0  0  0  0  0  0
   60.5756   31.4001   49.9399 H   0  0  0  0  0  0  0  0  0  0  0  0
   58.6921   32.0441   48.3929 H   0  0  0  0  0  0  0  0  0  0  0  0
   56.6440   31.9480   46.0540 H   0  0  0  0  0  0  0  0  0  0  0  0
   60.0795   34.6807   49.4012 H   0  0  0  0  0  0  0  0  0  0  0  0
   62.0030   33.4589   50.4192 H   0  0  0  0  0  0  0  0  0  0  0  0
  1  2  2  0
  2  3  1  0
  3  4  2  0
  4  5  1  0
  5  6  1  0
  6  7  1  0
  7  8  2  0
  8  9  1  0
  9 10  1  0
 10 11  1  0
 11 12  1  0
 12 13  1  0
 13 14  1  0
 14 15  2  0
 15 16  1  0
 16 17  2  0
 17 18  1  0
 18 19  2  0
 19 20  1  0
 20 21  2  0
 21 22  1  0
 10 23  2  0
  4 24  1  0
 24 25  2  0
 25  1  1  0
 23  7  1  0
 22 14  1  0
 21 16  1  0
  1 26  1  0
  2 27  1  0
  3 28  1  0
  5 29  1  0
  5 30  1  0
  6 31  1  0
  6 32  1  0
 11 33  1  0
 11 34  1  0
 12 35  1  0
 13 36  1  0
 13 37  1  0
 15 38  1  0
 17 39  1  0
 18 40  1  0
 19 41  1  0
 20 42  1  0
 23 43  1  0
 24 44  1  0
 25 45  1  0
M  CHG  1  23   1
M  END
>  <UniqueID>  (76) 
71

>  <SMILES>  (76) 
c1ccc(CCc2noc(CNCc3cc4ccccc4o3)[nH+]2)cc1

>  <Energy>  (76) 
107.88680305718165

>  <Genealogy>  (76) 
c1ccc(CCc2noc(CNCc3cc4ccccc4o3)[nH+]2)cc1 (protonated)
c1ccc(CCc2noc(CNCc3cc4ccccc4o3)[nH+]2)cc1 (3D coordinates assigned)
c1ccc(CCc2noc(CNCc3cc4ccccc4o3)[nH+]2)cc1 (optimized conformer: 107.88680305718165 kcal/mol)

>  <smiles>  (76) 
c1ccc(CCc2noc(CNCc3cc4ccccc4o3)n2)cc1

>  <score_type>  (76) 
oracle

>  <origin>  (76) 
adg

>  <m_score__min__energy>  (76) 
-7.0800000000000001

>  <m_primary>  (76) 
energy

$$$$
76:0
     RDKit          3D

 48 51  0  0  0  0  0  0  0  0999 V2000
   59.7810   29.5530   45.4470 O   0  0  0  0  0  0  0  0  0  0  0  0
   59.2190   29.3650   46.5590 C   0  0  0  0  0  0  0  0  0  0  0  0
   58.2590   28.3130   46.7240 N   0  0  0  0  0  0  0  0  0  0  0  0
   58.3670   26.9360   46.3240 C   0  0  0  0  0  0  0  0  0  0  0  0
   59.5940   26.2470   46.4000 C   0  0  0  0  0  0  0  0  0  0  0  0
   59.6890   24.9150   45.9940 C   0  0  0  0  0  0  0  0  0  0  0  0
   58.5670   24.2540   45.5030 C   0  0  0  0  0  0  0  0  0  0  0  0
   57.3490   24.9250   45.4000 C   0  0  0  0  0  0  0  0  0  0  0  0
   57.2330   26.2730   45.7910 C   0  0  0  0  0  0  0  0  0  0  0  0
   55.9660   26.9480   45.6420 N   0  0  0  0  0  0  0  0  0  0  0  0
   55.9280   28.1380   45.2680 O   0  0  0  0  0  0  0  0  0  0  0  0
   54.7870   26.3350   45.9990 O   0  0  0  0  0  0  0  0  0  0  0  0
   59.6620   30.1390   47.7380 C   0  0  0  0  0  0  0  0  0  0  0  0
   60.6810   29.5780   48.5280 C   0  0  0  0  0  0  0  0  0  0  0  0
   60.9930   30.1170   49.7720 C   0  0  0  0  0  0  0  0  0  0  0  0
   60.2730   31.2120   50.2380 C   0  0  0  0  0  0  0  0  0  0  0  0
   59.3240   31.7820   49.4540 N   0  0  0  0  0  0  0  0  0  0  0  0
   59.0170   31.3240   48.2100 C   0  0  0  0  0  0  0  0  0  0  0  0
   58.1890   32.0470   47.5050 N   0  0  0  0  0  0  0  0  0  0  0  0
   58.1500   32.2960   46.0900 C   0  0  0  0  0  0  0  0  0  0  0  0
   57.4540   31.3940   45.2740 C   0  0  0  0  0  0  0  0  0  0  0  0
   57.4030   31.5850   43.8900 C   0  0  0  0  0  0  0  0  0  0  0  0
   56.5930   30.4090   42.8720 Cl  0  0  0  0  0  0  0  0  0  0  0  0
   58.0190   32.6990   43.3160 C   0  0  0  0  0  0  0  0  0  0  0  0
   58.6760   33.6310   44.1250 C   0  0  0  0  0  0  0  0  0  0  0  0
   58.7240   33.4590   45.5130 C   0  0  0  0  0  0  0  0  0  0  0  0
   59.3730   34.4380   46.2780 O   0  0  0  0  0  0  0  0  0  0  0  0
   60.5120   34.2200   47.0680 C   0  0  0  0  0  0  0  0  0  0  0  0
   61.6770   33.7510   46.4510 C   0  0  0  0  0  0  0  0  0  0  0  0
   62.8260   33.5000   47.2080 C   0  0  0  0  0  0  0  0  0  0  0  0
   62.8200   33.7340   48.5860 C   0  0  0  0  0  0  0  0  0  0  0  0
   61.6680   34.2250   49.2070 C   0  0  0  0  0  0  0  0  0  0  0  0
   60.5170   34.4740   48.4520 C   0  0  0  0  0  0  0  0  0  0  0  0
   60.4860   26.7642   46.7832 H   0  0  0  0  0  0  0  0  0  0  0  0
   60.6517   24.3871   46.0622 H   0  0  0  0  0  0  0  0  0  0  0  0
   58.6412   23.2004   45.1956 H   0  0  0  0  0  0  0  0  0  0  0  0
   56.4681   24.3950   45.0086 H   0  0  0  0  0  0  0  0  0  0  0  0
   61.2372   28.7039   48.1586 H   0  0  0  0  0  0  0  0  0  0  0  0
   61.7999   29.6822   50.3801 H   0  0  0  0  0  0  0  0  0  0  0  0
   60.4730   31.6155   51.2416 H   0  0  0  0  0  0  0  0  0  0  0  0
   56.9444   30.5300   45.7254 H   0  0  0  0  0  0  0  0  0  0  0  0
   57.9873   32.8435   42.2260 H   0  0  0  0  0  0  0  0  0  0  0  0
   59.1591   34.5066   43.6668 H   0  0  0  0  0  0  0  0  0  0  0  0
   61.6893   33.5788   45.3646 H   0  0  0  0  0  0  0  0  0  0  0  0
   63.7344   33.1184   46.7189 H   0  0  0  0  0  0  0  0  0  0  0  0
   63.7222   33.5317   49.1820 H   0  0  0  0  0  0  0  0  0  0  0  0
   61.6665   34.4158   50.2903 H   0  0  0  0  0  0  0  0  0  0  0  0
   59.6143   34.8690   48.9410 H   0  0  0  0  0  0  0  0  0  0  0  0
  1  2  2  0
  2  3  1  0
  3  4  1  0
  4  5  2  0
  5  6  1  0
  6  7  2  0
  7  8  1  0
  8  9  2  0
  9 10  1  0
 10 11  2  0
 10 12  1  0
  2 13  1  0
 13 14  2  0
 14 15  1  0
 15 16  2  0
 16 17  1  0
 17 18  1  0
 18 19  2  3
 19 20  1  0
 20 21  2  0
 21 22  1  0
 22 23  1  0
 22 24  2  0
 24 25  1  0
 25 26  2  0
 26 27  1  0
 27 28  1  0
 28 29  2  0
 29 30  1  0
 30 31  2  0
 31 32  1  0
 32 33  2  0
  9  4  1  0
 18 13  1  0
 26 20  1  0
 33 28  1  0
  5 34  1  0
  6 35  1  0
  7 36  1  0
  8 37  1  0
 14 38  1  0
 15 39  1  0
 16 40  1  0
 21 41  1  0
 24 42  1  0
 25 43  1  0
 29 44  1  0
 30 45  1  0
 31 46  1  0
 32 47  1  0
 33 48  1  0
M  CHG  4   3  -1  10   1  12  -1  17  -1
M  END
>  <UniqueID>  (77) 
72

>  <SMILES>  (77) 
O=C([N-]c1ccccc1[N+](=O)[O-])c1ccc[n-]c1=Nc1cc(Cl)ccc1Oc1ccccc1

>  <Energy>  (77) 
83.82183864427697

>  <Genealogy>  (77) 
O=C([N-]c1ccccc1[N+](=O)[O-])c1ccc[n-]c1=Nc1cc(Cl)ccc1Oc1ccccc1 (protonated)
O=C([N-]c1ccccc1[N+](=O)[O-])c1ccc[n-]c1=Nc1cc(Cl)ccc1Oc1ccccc1 (3D coordinates assigned)
O=C([N-]c1ccccc1[N+](=O)[O-])c1ccc[n-]c1=Nc1cc(Cl)ccc1Oc1ccccc1 (optimized conformer: 83.82183864427697 kcal/mol)

>  <smiles>  (77) 
O=C(Nc1ccccc1[N+](=O)[O-])c1ccc[nH]c1=Nc1cc(Cl)ccc1Oc1ccccc1

>  <score_type>  (77) 
oracle

>  <origin>  (77) 
adg

>  <m_score__min__energy>  (77) 
-12.92

>  <m_primary>  (77) 
energy

$$$$
77:0
     RDKit          3D

 37 38  0  0  0  0  0  0  0  0999 V2000
   59.0264   35.7074   46.5239 H   0  0  0  0  0  0  0  0  0  0  0  0
   58.9280   34.6130   46.4730 C   0  0  0  0  0  0  0  0  0  0  0  0
   57.9570   34.0340   45.6410 C   0  0  0  0  0  0  0  0  0  0  0  0
   57.2858   34.6592   45.0338 H   0  0  0  0  0  0  0  0  0  0  0  0
   57.8710   32.6820   45.6080 N   0  0  0  0  0  0  0  0  0  0  0  0
   57.0360   31.9520   44.8980 N   0  0  0  0  0  0  0  0  0  0  0  0
   57.3530   30.6730   45.2170 C   0  0  0  0  0  0  0  0  0  0  0  0
   56.6790   29.5320   44.6620 N   0  0  0  0  0  0  0  0  0  0  0  0
   57.0440   28.1870   45.1150 C   0  0  0  0  0  0  0  0  0  0  0  0
   57.0514   28.1599   46.2146 H   0  0  0  0  0  0  0  0  0  0  0  0
   56.3105   27.4605   44.7352 H   0  0  0  0  0  0  0  0  0  0  0  0
   58.0441   27.9310   44.7352 H   0  0  0  0  0  0  0  0  0  0  0  0
   55.6360   29.7280   43.6520 C   0  0  0  0  0  0  0  0  0  0  0  0
   54.6723   29.9091   44.1505 H   0  0  0  0  0  0  0  0  0  0  0  0
   55.8922   30.5937   43.0236 H   0  0  0  0  0  0  0  0  0  0  0  0
   55.5604   28.8283   43.0236 H   0  0  0  0  0  0  0  0  0  0  0  0
   58.3720   30.5750   46.1140 N   0  0  0  0  0  0  0  0  0  0  0  0
   58.6580   31.8730   46.3230 C   0  0  0  0  0  0  0  0  0  0  0  0
   59.6400   32.3810   47.1690 C   0  0  0  0  0  0  0  0  0  0  0  0
   60.2855   31.7127   47.7579 H   0  0  0  0  0  0  0  0  0  0  0  0
   59.7790   33.7910   47.2450 C   0  0  0  0  0  0  0  0  0  0  0  0
   60.6690   34.3620   48.0050 N   0  0  0  0  0  0  0  0  0  0  0  0
   61.4310   33.7200   49.0770 C   0  0  0  0  0  0  0  0  0  0  0  0
   61.1787   32.6498   49.1097 H   0  0  0  0  0  0  0  0  0  0  0  0
   61.1737   34.1996   50.0329 H   0  0  0  0  0  0  0  0  0  0  0  0
   62.9440   33.8770   48.8320 C   0  0  0  0  0  0  0  0  0  0  0  0
   63.4725   33.5330   49.7333 H   0  0  0  0  0  0  0  0  0  0  0  0
   63.1087   34.9409   48.6064 H   0  0  0  0  0  0  0  0  0  0  0  0
   63.4750   33.1230   47.6730 N   0  0  0  0  0  0  0  0  0  0  0  0
   63.3410   33.8400   46.3960 C   0  0  0  0  0  0  0  0  0  0  0  0
   63.1422   34.9040   46.5920 H   0  0  0  0  0  0  0  0  0  0  0  0
   64.2732   33.7412   45.8204 H   0  0  0  0  0  0  0  0  0  0  0  0
   62.5074   33.4112   45.8204 H   0  0  0  0  0  0  0  0  0  0  0  0
   62.9410   31.7550   47.5760 C   0  0  0  0  0  0  0  0  0  0  0  0
   62.7831   31.3505   48.5867 H   0  0  0  0  0  0  0  0  0  0  0  0
   61.9837   31.7726   47.0344 H   0  0  0  0  0  0  0  0  0  0  0  0
   63.6571   31.1194   47.0344 H   0  0  0  0  0  0  0  0  0  0  0  0
  1  2  1  0
  2  3  2  0
  3  4  1  0
  3  5  1  0
  5  6  1  0
  6  7  1  0
  7  8  1  0
  8  9  1  0
  9 10  1  0
  9 11  1  0
  9 12  1  0
  8 13  1  0
 13 14  1  0
 13 15  1  0
 13 16  1  0
  7 17  2  0
 17 18  1  0
 18 19  2  0
 19 20  1  0
 19 21  1  0
 21 22  2  0
 22 23  1  0
 23 24  1  0
 23 25  1  0
 23 26  1  0
 26 27  1  0
 26 28  1  0
 26 29  1  0
 29 30  1  0
 30 31  1  0
 30 32  1  0
 30 33  1  0
 29 34  1  0
 34 35  1  0
 34 36  1  0
 34 37  1  0
 21  2  1  0
 18  5  1  0
M  CHG  1   6  -1
M  END
>  <UniqueID>  (78) 
73

>  <SMILES>  (78) 
CN(C)CC/N=c1/ccn2[n-]c(N(C)C)nc2c1

>  <Energy>  (78) 
74.9461937770203

>  <Genealogy>  (78) 
CN(C)CCN=c1ccn2[n-]c(N(C)C)nc2c1 (protonated)
CN(C)CC/N=c1/ccn2[n-]c(N(C)C)nc2c1 (cis-trans isomerization)
CN(C)CC/N=c1/ccn2[n-]c(N(C)C)nc2c1 (3D coordinates assigned)
CN(C)CC/N=c1/ccn2[n-]c(N(C)C)nc2c1 (optimized conformer: 74.9461937770203 kcal/mol)

>  <smiles>  (78) 
CN(C)CCN=c1ccn2[nH]c(N(C)C)nc2c1

>  <score_type>  (78) 
oracle

>  <origin>  (78) 
adg

>  <m_score__min__energy>  (78) 
-6.7300000000000004

>  <m_primary>  (78) 
energy

$$$$
78:0
     RDKit          3D

 52 54  0  0  0  0  0  0  0  0999 V2000
   57.1050   30.3920   43.7120 C   0  0  0  0  0  0  0  0  0  0  0  0
   57.0080   31.1470   44.9150 O   0  0  0  0  0  0  0  0  0  0  0  0
   57.8390   32.2300   45.2430 C   0  0  0  0  0  0  0  0  0  0  0  0
   57.5260   33.5530   44.8690 C   0  0  0  0  0  0  0  0  0  0  0  0
   58.3920   34.6010   45.1930 C   0  0  0  0  0  0  0  0  0  0  0  0
   59.5730   34.3450   45.8900 C   0  0  0  0  0  0  0  0  0  0  0  0
   59.8920   33.0400   46.2690 C   0  0  0  0  0  0  0  0  0  0  0  0
   59.0280   31.9810   45.9570 C   0  0  0  0  0  0  0  0  0  0  0  0
   59.3670   30.6470   46.3650 N   0  0  0  0  0  0  0  0  0  0  0  0
   60.1310   29.7850   45.4540 C   0  0  0  0  0  0  0  0  0  0  0  0
   60.3900   28.4050   46.0700 C   0  0  0  0  0  0  0  0  0  0  0  0
   59.1590   27.8630   46.6670 N   0  0  0  0  0  0  0  0  0  0  0  0
   58.9090   26.4410   46.6200 C   0  0  0  0  0  0  0  0  0  0  0  0
   59.8480   25.6540   46.3160 O   0  0  0  0  0  0  0  0  0  0  0  0
   57.5610   25.8730   46.9970 C   0  0  0  0  0  0  0  0  0  0  0  0
   56.6720   25.6110   45.7760 C   0  0  0  0  0  0  0  0  0  0  0  0
   55.2600   25.6240   46.1650 N   0  0  0  0  0  0  0  0  0  0  0  0
   54.5010   24.0930   45.8340 S   0  0  0  0  0  0  0  0  0  0  0  0
   54.2060   23.3820   47.1260 O   0  0  0  0  0  0  0  0  0  0  0  0
   53.2060   24.3300   45.1110 O   0  0  0  0  0  0  0  0  0  0  0  0
   55.5530   23.1090   44.8160 C   0  0  0  0  0  0  0  0  0  0  0  0
   55.5740   23.2960   43.4250 C   0  0  0  0  0  0  0  0  0  0  0  0
   56.4020   22.5050   42.6220 C   0  0  0  0  0  0  0  0  0  0  0  0
   57.2100   21.5240   43.2020 C   0  0  0  0  0  0  0  0  0  0  0  0
   57.1920   21.3320   44.5860 C   0  0  0  0  0  0  0  0  0  0  0  0
   56.3660   22.1200   45.3940 C   0  0  0  0  0  0  0  0  0  0  0  0
   56.3570   21.9170   46.7360 F   0  0  0  0  0  0  0  0  0  0  0  0
   58.2740   28.7420   47.4510 C   0  0  0  0  0  0  0  0  0  0  0  0
   58.8840   30.1310   47.6490 C   0  0  0  0  0  0  0  0  0  0  0  0
   57.2417   29.3283   43.9567 H   0  0  0  0  0  0  0  0  0  0  0  0
   56.1833   30.5177   43.1249 H   0  0  0  0  0  0  0  0  0  0  0  0
   57.9650   30.7466   43.1249 H   0  0  0  0  0  0  0  0  0  0  0  0
   56.5960   33.7612   44.3197 H   0  0  0  0  0  0  0  0  0  0  0  0
   58.1417   35.6306   44.8976 H   0  0  0  0  0  0  0  0  0  0  0  0
   60.2533   35.1721   46.1411 H   0  0  0  0  0  0  0  0  0  0  0  0
   60.8260   32.8416   46.8152 H   0  0  0  0  0  0  0  0  0  0  0  0
   59.5625   29.6587   44.5208 H   0  0  0  0  0  0  0  0  0  0  0  0
   61.1022   30.2636   45.2597 H   0  0  0  0  0  0  0  0  0  0  0  0
   60.7429   27.7197   45.2853 H   0  0  0  0  0  0  0  0  0  0  0  0
   61.1506   28.5064   46.8582 H   0  0  0  0  0  0  0  0  0  0  0  0
   57.7151   24.9239   47.5313 H   0  0  0  0  0  0  0  0  0  0  0  0
   57.0507   26.6148   47.6290 H   0  0  0  0  0  0  0  0  0  0  0  0
   56.8486   26.3937   45.0235 H   0  0  0  0  0  0  0  0  0  0  0  0
   56.9195   24.6243   45.3575 H   0  0  0  0  0  0  0  0  0  0  0  0
   54.9377   24.0666   42.9654 H   0  0  0  0  0  0  0  0  0  0  0  0
   56.4170   22.6555   41.5324 H   0  0  0  0  0  0  0  0  0  0  0  0
   57.8605   20.9026   42.5691 H   0  0  0  0  0  0  0  0  0  0  0  0
   57.8290   20.5593   45.0411 H   0  0  0  0  0  0  0  0  0  0  0  0
   57.3155   28.8462   46.9215 H   0  0  0  0  0  0  0  0  0  0  0  0
   58.1305   28.2869   48.4421 H   0  0  0  0  0  0  0  0  0  0  0  0
   58.1198   30.8117   48.0523 H   0  0  0  0  0  0  0  0  0  0  0  0
   59.7261   30.0616   48.3533 H   0  0  0  0  0  0  0  0  0  0  0  0
  1  2  1  0
  2  3  1  0
  3  4  2  0
  4  5  1  0
  5  6  2  0
  6  7  1  0
  7  8  2  0
  8  9  1  0
  9 10  1  0
 10 11  1  0
 11 12  1  0
 12 13  1  0
 13 14  2  0
 13 15  1  0
 15 16  1  0
 16 17  1  0
 17 18  1  0
 18 19  2  0
 18 20  2  0
 18 21  1  0
 21 22  2  0
 22 23  1  0
 23 24  2  0
 24 25  1  0
 25 26  2  0
 26 27  1  0
 12 28  1  0
 28 29  1  0
  8  3  1  0
 29  9  1  0
 26 21  1  0
  1 30  1  0
  1 31  1  0
  1 32  1  0
  4 33  1  0
  5 34  1  0
  6 35  1  0
  7 36  1  0
 10 37  1  0
 10 38  1  0
 11 39  1  0
 11 40  1  0
 15 41  1  0
 15 42  1  0
 16 43  1  0
 16 44  1  0
 22 45  1  0
 23 46  1  0
 24 47  1  0
 25 48  1  0
 28 49  1  0
 28 50  1  0
 29 51  1  0
 29 52  1  0
M  CHG  1  17  -1
M  END
>  <UniqueID>  (79) 
74

>  <SMILES>  (79) 
COc1ccccc1N1CCN(C(=O)CC[N-]S(=O)(=O)c2ccccc2F)CC1

>  <Energy>  (79) 
57.31864563349725

>  <Genealogy>  (79) 
COc1ccccc1N1CCN(C(=O)CC[N-]S(=O)(=O)c2ccccc2F)CC1 (protonated)
COc1ccccc1N1CCN(C(=O)CC[N-]S(=O)(=O)c2ccccc2F)CC1 (3D coordinates assigned)
COc1ccccc1N1CCN(C(=O)CC[N-]S(=O)(=O)c2ccccc2F)CC1 (nonaromatic ring conformer: 57.31864563349725 kcal/mol)

>  <smiles>  (79) 
COc1ccccc1N1CCN(C(=O)CCNS(=O)(=O)c2ccccc2F)CC1

>  <score_type>  (79) 
oracle

>  <origin>  (79) 
adg

>  <m_score__min__energy>  (79) 
-10.199999999999999

>  <m_primary>  (79) 
energy

$$$$
79:0
     RDKit          3D

 48 51  0  0  0  0  0  0  0  0999 V2000
   60.6390   29.9980   46.7720 C   0  0  0  0  0  0  0  0  0  0  0  0
   59.3700   29.3870   46.2500 C   0  0  0  0  0  0  0  0  0  0  0  0
   58.1900   30.0530   45.9390 C   0  0  0  0  0  0  0  0  0  0  0  0
   57.9160   31.4580   45.9930 N   0  0  0  0  0  0  0  0  0  0  0  0
   57.3900   32.1900   44.8780 C   0  0  0  0  0  0  0  0  0  0  0  0
   56.9230   31.5820   43.8770 O   0  0  0  0  0  0  0  0  0  0  0  0
   57.4140   33.6870   44.8870 C   0  0  0  0  0  0  0  0  0  0  0  0
   58.6900   34.1620   45.5000 C   0  0  0  0  0  0  0  0  0  0  0  0
   59.2170   35.3850   45.3040 N   0  0  0  0  0  0  0  0  0  0  0  0
   60.3290   35.4270   46.0220 N   0  0  0  0  0  0  0  0  0  0  0  0
   60.4370   34.2270   46.6280 C   0  0  0  0  0  0  0  0  0  0  0  0
   61.5330   33.8450   47.5380 C   0  0  0  0  0  0  0  0  0  0  0  0
   61.4680   34.1810   48.9010 C   0  0  0  0  0  0  0  0  0  0  0  0
   62.5070   33.8240   49.7660 C   0  0  0  0  0  0  0  0  0  0  0  0
   63.6170   33.1300   49.2790 C   0  0  0  0  0  0  0  0  0  0  0  0
   63.6910   32.7930   47.9260 C   0  0  0  0  0  0  0  0  0  0  0  0
   62.6550   33.1470   47.0570 C   0  0  0  0  0  0  0  0  0  0  0  0
   59.4330   33.4460   46.3080 O   0  0  0  0  0  0  0  0  0  0  0  0
   57.2990   29.0640   45.6000 C   0  0  0  0  0  0  0  0  0  0  0  0
   56.1020   29.2410   45.2470 O   0  0  0  0  0  0  0  0  0  0  0  0
   57.9110   27.8650   45.6630 N   0  0  0  0  0  0  0  0  0  0  0  0
   57.3140   26.6000   45.3260 C   0  0  0  0  0  0  0  0  0  0  0  0
   56.3300   26.0340   46.1540 C   0  0  0  0  0  0  0  0  0  0  0  0
   55.7610   24.7990   45.8280 C   0  0  0  0  0  0  0  0  0  0  0  0
   56.1740   24.1190   44.6790 C   0  0  0  0  0  0  0  0  0  0  0  0
   57.1590   24.6710   43.8560 C   0  0  0  0  0  0  0  0  0  0  0  0
   57.7300   25.9050   44.1790 C   0  0  0  0  0  0  0  0  0  0  0  0
   59.1650   28.0560   46.0700 N   0  0  0  0  0  0  0  0  0  0  0  0
   60.1600   26.9970   46.2630 C   0  0  0  0  0  0  0  0  0  0  0  0
   60.6240   29.9908   47.8719 H   0  0  0  0  0  0  0  0  0  0  0  0
   61.5008   29.4161   46.4132 H   0  0  0  0  0  0  0  0  0  0  0  0
   60.7215   31.0346   46.4132 H   0  0  0  0  0  0  0  0  0  0  0  0
   57.9840   31.9390   46.9170 H   0  0  0  0  0  0  0  0  0  0  0  0
   57.3418   34.0608   43.8550 H   0  0  0  0  0  0  0  0  0  0  0  0
   56.5634   34.0632   45.4743 H   0  0  0  0  0  0  0  0  0  0  0  0
   60.5958   34.7274   49.2892 H   0  0  0  0  0  0  0  0  0  0  0  0
   62.4501   34.0902   50.8318 H   0  0  0  0  0  0  0  0  0  0  0  0
   64.4328   32.8490   49.9613 H   0  0  0  0  0  0  0  0  0  0  0  0
   64.5664   32.2478   47.5432 H   0  0  0  0  0  0  0  0  0  0  0  0
   62.7177   32.8784   45.9921 H   0  0  0  0  0  0  0  0  0  0  0  0
   56.0062   26.5642   47.0617 H   0  0  0  0  0  0  0  0  0  0  0  0
   54.9874   24.3622   46.4767 H   0  0  0  0  0  0  0  0  0  0  0  0
   55.7234   23.1489   44.4225 H   0  0  0  0  0  0  0  0  0  0  0  0
   57.4853   24.1339   42.9532 H   0  0  0  0  0  0  0  0  0  0  0  0
   58.5091   26.3339   43.5316 H   0  0  0  0  0  0  0  0  0  0  0  0
   60.3154   26.8316   47.3393 H   0  0  0  0  0  0  0  0  0  0  0  0
   59.8011   26.0673   45.7972 H   0  0  0  0  0  0  0  0  0  0  0  0
   61.1102   27.2973   45.7972 H   0  0  0  0  0  0  0  0  0  0  0  0
  1  2  1  0
  2  3  2  0
  3  4  1  0
  4  5  1  0
  5  6  2  0
  5  7  1  0
  7  8  1  0
  8  9  2  0
  9 10  1  0
 10 11  2  0
 11 12  1  0
 12 13  2  0
 13 14  1  0
 14 15  2  0
 15 16  1  0
 16 17  2  0
 11 18  1  0
  3 19  1  0
 19 20  2  0
 19 21  1  0
 21 22  1  0
 22 23  2  0
 23 24  1  0
 24 25  2  0
 25 26  1  0
 26 27  2  0
 21 28  1  0
 28 29  1  0
 28  2  1  0
 18  8  1  0
 27 22  1  0
 17 12  1  0
  1 30  1  0
  1 31  1  0
  1 32  1  0
  4 33  1  0
  7 34  1  0
  7 35  1  0
 13 36  1  0
 14 37  1  0
 15 38  1  0
 16 39  1  0
 17 40  1  0
 23 41  1  0
 24 42  1  0
 25 43  1  0
 26 44  1  0
 27 45  1  0
 29 46  1  0
 29 47  1  0
 29 48  1  0
M  END
>  <UniqueID>  (80) 
75

>  <SMILES>  (80) 
Cc1c(NC(=O)Cc2nnc(-c3ccccc3)o2)c(=O)n(-c2ccccc2)n1C

>  <Energy>  (80) 
129.17246609008328

>  <Genealogy>  (80) 
Cc1c(NC(=O)Cc2nnc(-c3ccccc3)o2)c(=O)n(-c2ccccc2)n1C (3D coordinates assigned)
Cc1c(NC(=O)Cc2nnc(-c3ccccc3)o2)c(=O)n(-c2ccccc2)n1C (optimized conformer: 129.17246609008328 kcal/mol)

>  <smiles>  (80) 
Cc1c(NC(=O)Cc2nnc(-c3ccccc3)o2)c(=O)n(-c2ccccc2)n1C

>  <score_type>  (80) 
oracle

>  <origin>  (80) 
adg

>  <m_score__min__energy>  (80) 
-8.9399999999999995

>  <m_primary>  (80) 
energy

$$$$
80:0
     RDKit          3D

 43 45  0  0  0  0  0  0  0  0999 V2000
   59.6930   31.6700   49.1200 C   0  0  0  0  0  0  0  0  0  0  0  0
   58.7520   32.6330   48.6580 O   0  0  0  0  0  0  0  0  0  0  0  0
   58.8270   33.2970   47.4210 C   0  0  0  0  0  0  0  0  0  0  0  0
   59.3770   34.5900   47.3120 C   0  0  0  0  0  0  0  0  0  0  0  0
   59.4460   35.2350   46.0750 C   0  0  0  0  0  0  0  0  0  0  0  0
   59.9950   36.5140   45.9990 O   0  0  0  0  0  0  0  0  0  0  0  0
   58.9650   34.5990   44.9260 C   0  0  0  0  0  0  0  0  0  0  0  0
   58.4140   33.3130   45.0100 C   0  0  0  0  0  0  0  0  0  0  0  0
   57.9340   32.6760   43.8580 C   0  0  0  0  0  0  0  0  0  0  0  0
   57.3880   31.3950   43.9370 C   0  0  0  0  0  0  0  0  0  0  0  0
   57.3150   30.7210   45.1670 C   0  0  0  0  0  0  0  0  0  0  0  0
   56.7740   29.3440   45.2350 C   0  0  0  0  0  0  0  0  0  0  0  0
   55.6750   29.0640   44.6830 O   0  0  0  0  0  0  0  0  0  0  0  0
   57.4830   28.3330   45.9570 N   0  0  0  0  0  0  0  0  0  0  0  0
   57.6130   26.9580   45.4930 C   0  0  0  0  0  0  0  0  0  0  0  0
   57.3300   26.0410   46.5950 N   0  0  0  0  0  0  0  0  0  0  0  0
   55.9670   25.0270   46.2160 S   0  0  0  0  0  0  0  0  0  0  0  0
   55.5010   24.3210   47.4590 O   0  0  0  0  0  0  0  0  0  0  0  0
   54.8420   25.8860   45.7120 O   0  0  0  0  0  0  0  0  0  0  0  0
   56.3840   23.8440   44.9750 C   0  0  0  0  0  0  0  0  0  0  0  0
   55.5960   23.7140   43.8220 C   0  0  0  0  0  0  0  0  0  0  0  0
   55.9060   22.7430   42.8640 C   0  0  0  0  0  0  0  0  0  0  0  0
   57.0050   21.9000   43.0520 C   0  0  0  0  0  0  0  0  0  0  0  0
   57.7940   22.0250   44.1990 C   0  0  0  0  0  0  0  0  0  0  0  0
   57.4830   22.9910   45.1610 C   0  0  0  0  0  0  0  0  0  0  0  0
   57.7900   31.3600   46.3260 C   0  0  0  0  0  0  0  0  0  0  0  0
   58.3420   32.6540   46.2630 C   0  0  0  0  0  0  0  0  0  0  0  0
   59.7001   31.6627   50.2200 H   0  0  0  0  0  0  0  0  0  0  0  0
   59.4106   30.6739   48.7485 H   0  0  0  0  0  0  0  0  0  0  0  0
   60.6954   31.9293   48.7485 H   0  0  0  0  0  0  0  0  0  0  0  0
   59.7563   35.0971   48.2114 H   0  0  0  0  0  0  0  0  0  0  0  0
   59.7560   37.2340   46.6690 H   0  0  0  0  0  0  0  0  0  0  0  0
   59.0193   35.1097   43.9533 H   0  0  0  0  0  0  0  0  0  0  0  0
   57.9881   33.1888   42.8864 H   0  0  0  0  0  0  0  0  0  0  0  0
   57.0105   30.9073   43.0261 H   0  0  0  0  0  0  0  0  0  0  0  0
   56.8999   26.7786   44.6749 H   0  0  0  0  0  0  0  0  0  0  0  0
   58.6380   26.7895   45.1310 H   0  0  0  0  0  0  0  0  0  0  0  0
   54.7318   24.3775   43.6707 H   0  0  0  0  0  0  0  0  0  0  0  0
   55.2844   22.6428   41.9620 H   0  0  0  0  0  0  0  0  0  0  0  0
   57.2490   21.1380   42.2971 H   0  0  0  0  0  0  0  0  0  0  0  0
   58.6602   21.3629   44.3450 H   0  0  0  0  0  0  0  0  0  0  0  0
   58.1014   23.0827   46.0661 H   0  0  0  0  0  0  0  0  0  0  0  0
   57.7296   30.8423   47.2947 H   0  0  0  0  0  0  0  0  0  0  0  0
  1  2  1  0
  2  3  1  0
  3  4  2  0
  4  5  1  0
  5  6  1  0
  5  7  2  0
  7  8  1  0
  8  9  2  0
  9 10  1  0
 10 11  2  0
 11 12  1  0
 12 13  2  0
 12 14  1  0
 14 15  1  0
 15 16  1  0
 16 17  1  0
 17 18  2  0
 17 19  2  0
 17 20  1  0
 20 21  2  0
 21 22  1  0
 22 23  2  0
 23 24  1  0
 24 25  2  0
 11 26  1  0
 26 27  2  0
 27  3  1  0
 27  8  1  0
 25 20  1  0
  1 28  1  0
  1 29  1  0
  1 30  1  0
  4 31  1  0
  6 32  1  0
  7 33  1  0
  9 34  1  0
 10 35  1  0
 15 36  1  0
 15 37  1  0
 21 38  1  0
 22 39  1  0
 23 40  1  0
 24 41  1  0
 25 42  1  0
 26 43  1  0
M  CHG  2  14  -1  16  -1
M  END
>  <UniqueID>  (81) 
76

>  <SMILES>  (81) 
COc1cc(O)cc2ccc(C(=O)[N-]C[N-]S(=O)(=O)c3ccccc3)cc12

>  <Energy>  (81) 
43.21259830655111

>  <Genealogy>  (81) 
COc1cc(O)cc2ccc(C(=O)[N-]C[N-]S(=O)(=O)c3ccccc3)cc12 (protonated)
COc1cc(O)cc2ccc(C(=O)[N-]C[N-]S(=O)(=O)c3ccccc3)cc12 (3D coordinates assigned)
COc1cc(O)cc2ccc(C(=O)[N-]C[N-]S(=O)(=O)c3ccccc3)cc12 (optimized conformer: 43.21259830655111 kcal/mol)

>  <smiles>  (81) 
COc1cc(O)cc2ccc(C(=O)NCNS(=O)(=O)c3ccccc3)cc12

>  <score_type>  (81) 
oracle

>  <origin>  (81) 
adg

>  <m_score__min__energy>  (81) 
-12.19

>  <m_primary>  (81) 
energy

$$$$
81:0
     RDKit          3D

 32 33  0  0  0  0  0  0  0  0999 V2000
   59.2290   34.8760   45.2660 C   0  0  0  0  0  0  0  0  0  0  0  0
   58.8560   33.5110   45.6320 N   0  0  0  0  0  0  0  0  0  0  0  0
   58.3720   32.6560   44.5880 C   0  0  0  0  0  0  0  0  0  0  0  0
   58.2850   33.0950   43.4240 O   0  0  0  0  0  0  0  0  0  0  0  0
   57.9740   31.2890   44.8370 C   0  0  0  0  0  0  0  0  0  0  0  0
   56.8720   30.8080   44.1590 C   0  0  0  0  0  0  0  0  0  0  0  0
   56.4410   29.4950   44.3570 C   0  0  0  0  0  0  0  0  0  0  0  0
   57.1290   28.6730   45.2440 C   0  0  0  0  0  0  0  0  0  0  0  0
   56.7130   27.2930   45.4820 C   0  0  0  0  0  0  0  0  0  0  0  0
   57.4090   26.1820   45.2000 N   0  0  0  0  0  0  0  0  0  0  0  0
   56.6850   25.1090   45.5680 C   0  0  0  0  0  0  0  0  0  0  0  0
   57.1320   23.6860   45.4110 C   0  0  0  0  0  0  0  0  0  0  0  0
   56.4530   23.0620   44.3880 O   0  0  0  0  0  0  0  0  0  0  0  0
   56.5690   23.6860   43.1620 C   0  0  0  0  0  0  0  0  0  0  0  0
   55.5300   25.5460   46.0830 N   0  0  0  0  0  0  0  0  0  0  0  0
   55.5460   26.8520   46.0320 N   0  0  0  0  0  0  0  0  0  0  0  0
   58.2320   29.1380   45.9290 C   0  0  0  0  0  0  0  0  0  0  0  0
   58.6260   30.4380   45.7060 C   0  0  0  0  0  0  0  0  0  0  0  0
   59.3910   35.4689   46.1782 H   0  0  0  0  0  0  0  0  0  0  0  0
   60.1547   34.8564   44.6722 H   0  0  0  0  0  0  0  0  0  0  0  0
   58.4220   35.3299   44.6722 H   0  0  0  0  0  0  0  0  0  0  0  0
   58.9370   33.1730   46.6040 H   0  0  0  0  0  0  0  0  0  0  0  0
   56.3310   31.4622   43.4595 H   0  0  0  0  0  0  0  0  0  0  0  0
   55.5632   29.1128   43.8153 H   0  0  0  0  0  0  0  0  0  0  0  0
   58.2092   23.6704   45.1889 H   0  0  0  0  0  0  0  0  0  0  0  0
   56.9220   23.1489   46.3477 H   0  0  0  0  0  0  0  0  0  0  0  0
   56.7681   24.7572   43.3132 H   0  0  0  0  0  0  0  0  0  0  0  0
   57.3987   23.2348   42.5980 H   0  0  0  0  0  0  0  0  0  0  0  0
   55.6326   23.5631   42.5980 H   0  0  0  0  0  0  0  0  0  0  0  0
   54.7600   27.4640   46.3710 H   0  0  0  0  0  0  0  0  0  0  0  0
   58.7791   28.4912   46.6307 H   0  0  0  0  0  0  0  0  0  0  0  0
   59.5048   30.8176   46.2478 H   0  0  0  0  0  0  0  0  0  0  0  0
  1  2  1  0
  2  3  1  0
  3  4  2  0
  3  5  1  0
  5  6  2  0
  6  7  1  0
  7  8  2  0
  8  9  1  0
  9 10  2  0
 10 11  1  0
 11 12  1  0
 12 13  1  0
 13 14  1  0
 11 15  2  0
 15 16  1  0
  8 17  1  0
 17 18  2  0
 18  5  1  0
 16  9  1  0
  1 19  1  0
  1 20  1  0
  1 21  1  0
  2 22  1  0
  6 23  1  0
  7 24  1  0
 12 25  1  0
 12 26  1  0
 14 27  1  0
 14 28  1  0
 14 29  1  0
 16 30  1  0
 17 31  1  0
 18 32  1  0
M  END
>  <smiles>  (82) 
CNC(=O)c1ccc(-c2nc(COC)n[nH]2)cc1

>  <score_type>  (82) 
oracle

>  <origin>  (82) 
adg

>  <m_score__min__energy>  (82) 
-6.1900000000000004

>  <m_primary>  (82) 
energy

$$$$
82:0
     RDKit          3D

 47 50  0  0  0  0  0  0  0  0999 V2000
   55.4120   29.0750   44.7530 N   0  0  0  0  0  0  0  0  0  0  0  0
   56.6460   29.6030   45.2390 C   0  0  0  0  0  0  0  0  0  0  0  0
   56.9690   30.7860   44.9500 O   0  0  0  0  0  0  0  0  0  0  0  0
   57.5370   28.7790   46.0800 C   0  0  0  0  0  0  0  0  0  0  0  0
   57.5610   27.3760   46.0630 C   0  0  0  0  0  0  0  0  0  0  0  0
   56.6590   26.4990   45.3730 N   0  0  0  0  0  0  0  0  0  0  0  0
   55.5810   25.7640   45.9650 C   0  0  0  0  0  0  0  0  0  0  0  0
   54.4360   26.2890   45.9890 O   0  0  0  0  0  0  0  0  0  0  0  0
   55.7620   24.3960   46.5060 C   0  0  0  0  0  0  0  0  0  0  0  0
   55.2470   23.2760   45.8300 C   0  0  0  0  0  0  0  0  0  0  0  0
   55.4400   21.9890   46.3430 C   0  0  0  0  0  0  0  0  0  0  0  0
   56.1340   21.8100   47.5430 C   0  0  0  0  0  0  0  0  0  0  0  0
   56.3740   20.1960   48.1860 Cl  0  0  0  0  0  0  0  0  0  0  0  0
   56.6310   22.9210   48.2340 C   0  0  0  0  0  0  0  0  0  0  0  0
   56.4420   24.2080   47.7220 C   0  0  0  0  0  0  0  0  0  0  0  0
   58.8340   26.8150   47.0070 S   0  0  0  0  0  0  0  0  0  0  0  0
   59.3380   28.3400   47.4990 C   0  0  0  0  0  0  0  0  0  0  0  0
   58.5420   29.3080   46.9200 C   0  0  0  0  0  0  0  0  0  0  0  0
   58.9180   30.7520   47.0720 C   0  0  0  0  0  0  0  0  0  0  0  0
   59.4910   31.0150   48.4750 C   0  0  0  0  0  0  0  0  0  0  0  0
   60.4770   29.9990   48.8980 N   0  0  0  0  0  0  0  0  0  0  0  0
   61.3930   30.3430   49.9490 C   0  0  0  0  0  0  0  0  0  0  0  0
   61.2460   29.8180   51.0860 O   0  0  0  0  0  0  0  0  0  0  0  0
   62.5090   31.2890   49.7110 C   0  0  0  0  0  0  0  0  0  0  0  0
   63.5080   31.4780   50.6850 C   0  0  0  0  0  0  0  0  0  0  0  0
   64.5540   32.3760   50.4590 C   0  0  0  0  0  0  0  0  0  0  0  0
   64.6140   33.0990   49.2650 C   0  0  0  0  0  0  0  0  0  0  0  0
   63.6210   32.9290   48.2940 C   0  0  0  0  0  0  0  0  0  0  0  0
   63.6930   33.8400   46.7970 Cl  0  0  0  0  0  0  0  0  0  0  0  0
   62.5690   32.0310   48.5170 C   0  0  0  0  0  0  0  0  0  0  0  0
   60.5560   28.6500   48.3060 C   0  0  0  0  0  0  0  0  0  0  0  0
   54.7660   29.6760   44.1950 H   0  0  0  0  0  0  0  0  0  0  0  0
   55.1510   28.0780   44.9230 H   0  0  0  0  0  0  0  0  0  0  0  0
   54.6889   23.4126   44.8920 H   0  0  0  0  0  0  0  0  0  0  0  0
   55.0451   21.1168   45.8014 H   0  0  0  0  0  0  0  0  0  0  0  0
   57.1714   22.7812   49.1819 H   0  0  0  0  0  0  0  0  0  0  0  0
   56.8274   25.0782   48.2735 H   0  0  0  0  0  0  0  0  0  0  0  0
   59.6756   31.0101   46.3174 H   0  0  0  0  0  0  0  0  0  0  0  0
   58.0187   31.3701   46.9335 H   0  0  0  0  0  0  0  0  0  0  0  0
   59.9813   31.9997   48.4740 H   0  0  0  0  0  0  0  0  0  0  0  0
   58.6520   30.9736   49.1851 H   0  0  0  0  0  0  0  0  0  0  0  0
   63.4646   30.9154   51.6292 H   0  0  0  0  0  0  0  0  0  0  0  0
   65.3328   32.5143   51.2235 H   0  0  0  0  0  0  0  0  0  0  0  0
   65.4417   33.8017   49.0883 H   0  0  0  0  0  0  0  0  0  0  0  0
   61.7859   31.9054   47.7547 H   0  0  0  0  0  0  0  0  0  0  0  0
   61.4409   28.5956   47.6548 H   0  0  0  0  0  0  0  0  0  0  0  0
   60.6281   27.9161   49.1222 H   0  0  0  0  0  0  0  0  0  0  0  0
  1  2  1  0
  2  3  2  0
  2  4  1  0
  4  5  2  0
  5  6  1  0
  6  7  1  0
  7  8  2  0
  7  9  1  0
  9 10  2  0
 10 11  1  0
 11 12  2  0
 12 13  1  0
 12 14  1  0
 14 15  2  0
  5 16  1  0
 16 17  1  0
 17 18  2  0
 18 19  1  0
 19 20  1  0
 20 21  1  0
 21 22  1  0
 22 23  2  0
 22 24  1  0
 24 25  2  0
 25 26  1  0
 26 27  2  0
 27 28  1  0
 28 29  1  0
 28 30  2  0
 21 31  1  0
 18  4  1  0
 30 24  1  0
 15  9  1  0
 31 17  1  0
  1 32  1  0
  1 33  1  0
 10 34  1  0
 11 35  1  0
 14 36  1  0
 15 37  1  0
 19 38  1  0
 19 39  1  0
 20 40  1  0
 20 41  1  0
 25 42  1  0
 26 43  1  0
 27 44  1  0
 30 45  1  0
 31 46  1  0
 31 47  1  0
M  CHG  1   6  -1
M  END
>  <UniqueID>  (83) 
77

>  <SMILES>  (83) 
NC(=O)c1c([N-]C(=O)c2ccc(Cl)cc2)sc2c1CCN(C(=O)c1cccc(Cl)c1)C2

>  <Energy>  (83) 
96.98401049778619

>  <Genealogy>  (83) 
NC(=O)c1c([N-]C(=O)c2ccc(Cl)cc2)sc2c1CCN(C(=O)c1cccc(Cl)c1)C2 (protonated)
NC(=O)c1c([N-]C(=O)c2ccc(Cl)cc2)sc2c1CCN(C(=O)c1cccc(Cl)c1)C2 (3D coordinates assigned)
NC(=O)c1c([N-]C(=O)c2ccc(Cl)cc2)sc2c1CCN(C(=O)c1cccc(Cl)c1)C2 (nonaromatic ring conformer: 96.98401049778619 kcal/mol)

>  <smiles>  (83) 
NC(=O)c1c(NC(=O)c2ccc(Cl)cc2)sc2c1CCN(C(=O)c1cccc(Cl)c1)C2

>  <score_type>  (83) 
oracle

>  <origin>  (83) 
adg

>  <m_score__min__energy>  (83) 
-12.57

>  <m_primary>  (83) 
energy

$$$$
83:0
     RDKit          3D

 45 48  0  0  0  0  0  0  0  0999 V2000
   58.8010   34.2140   46.4330 C   0  0  0  0  0  0  0  0  0  0  0  0
   59.4710   33.1350   47.0780 O   0  0  0  0  0  0  0  0  0  0  0  0
   60.8640   33.0290   47.2210 C   0  0  0  0  0  0  0  0  0  0  0  0
   61.7420   33.8540   46.4890 C   0  0  0  0  0  0  0  0  0  0  0  0
   63.1240   33.7100   46.6170 C   0  0  0  0  0  0  0  0  0  0  0  0
   63.6500   32.7460   47.4740 C   0  0  0  0  0  0  0  0  0  0  0  0
   62.7960   31.9250   48.2110 C   0  0  0  0  0  0  0  0  0  0  0  0
   61.3990   32.0590   48.1020 C   0  0  0  0  0  0  0  0  0  0  0  0
   60.5210   31.1800   48.9120 C   0  0  0  0  0  0  0  0  0  0  0  0
   59.5590   30.3020   48.4140 C   0  0  0  0  0  0  0  0  0  0  0  0
   58.8840   29.5840   49.4090 C   0  0  0  0  0  0  0  0  0  0  0  0
   59.3260   29.8790   50.6920 C   0  0  0  0  0  0  0  0  0  0  0  0
   58.7370   29.3450   51.9610 C   0  0  0  0  0  0  0  0  0  0  0  0
   57.3240   29.3590   51.9040 O   0  0  0  0  0  0  0  0  0  0  0  0
   56.7440   29.6500   53.1680 C   0  0  2  0  0  0  0  0  0  0  0  0
   55.8650   28.4510   53.5950 C   0  0  0  0  0  0  0  0  0  0  0  0
   54.7470   28.2840   52.7150 O   0  0  0  0  0  0  0  0  0  0  0  0
   54.1300   29.4080   52.1710 C   0  0  0  0  0  0  0  0  0  0  0  0
   52.9820   29.4000   51.4690 N   0  0  0  0  0  0  0  0  0  0  0  0
   52.7860   30.7000   51.1570 C   0  0  0  0  0  0  0  0  0  0  0  0
   51.6630   31.1840   50.4140 N   0  0  0  0  0  0  0  0  0  0  0  0
   51.2530   30.5620   49.4130 O   0  0  0  0  0  0  0  0  0  0  0  0
   51.0260   32.3390   50.7980 O   0  0  0  0  0  0  0  0  0  0  0  0
   53.8170   31.4720   51.6700 C   0  0  0  0  0  0  0  0  0  0  0  0
   54.6620   30.6320   52.2940 N   0  0  0  0  0  0  0  0  0  0  0  0
   55.8790   30.9270   53.0450 C   0  0  0  0  0  0  0  0  0  0  0  0
   60.5320   31.0440   50.5950 S   0  0  0  0  0  0  0  0  0  0  0  0
   58.3808   34.8907   47.1917 H   0  0  0  0  0  0  0  0  0  0  0  0
   59.5154   34.7661   45.8046 H   0  0  0  0  0  0  0  0  0  0  0  0
   57.9894   33.8185   45.8046 H   0  0  0  0  0  0  0  0  0  0  0  0
   61.3340   34.6180   45.8109 H   0  0  0  0  0  0  0  0  0  0  0  0
   63.7993   34.3589   46.0401 H   0  0  0  0  0  0  0  0  0  0  0  0
   64.7399   32.6319   47.5698 H   0  0  0  0  0  0  0  0  0  0  0  0
   63.2189   31.1649   48.8844 H   0  0  0  0  0  0  0  0  0  0  0  0
   59.3499   30.1844   47.3405 H   0  0  0  0  0  0  0  0  0  0  0  0
   58.0843   28.8594   49.1958 H   0  0  0  0  0  0  0  0  0  0  0  0
   59.0816   28.3112   52.1114 H   0  0  0  0  0  0  0  0  0  0  0  0
   59.0624   29.9826   52.7962 H   0  0  0  0  0  0  0  0  0  0  0  0
   57.5267   29.8183   53.9223 H   0  0  0  0  0  0  0  0  0  0  0  0
   56.4747   27.5356   53.5769 H   0  0  0  0  0  0  0  0  0  0  0  0
   55.4827   28.6449   54.6081 H   0  0  0  0  0  0  0  0  0  0  0  0
   52.3830   28.5780   51.2320 H   0  0  0  0  0  0  0  0  0  0  0  0
   53.9236   32.5634   51.5832 H   0  0  0  0  0  0  0  0  0  0  0  0
   56.4514   31.7063   52.5205 H   0  0  0  0  0  0  0  0  0  0  0  0
   55.6075   31.2790   54.0512 H   0  0  0  0  0  0  0  0  0  0  0  0
  1  2  1  0
  2  3  1  0
  3  4  2  0
  4  5  1  0
  5  6  2  0
  6  7  1  0
  7  8  2  0
  8  9  1  0
  9 10  2  0
 10 11  1  0
 11 12  2  0
 12 13  1  0
 13 14  1  0
 14 15  1  0
 15 16  1  0
 16 17  1  0
 17 18  1  0
 18 19  2  0
 19 20  1  0
 20 21  1  0
 21 22  2  0
 21 23  1  0
 20 24  2  0
 24 25  1  0
 25 26  1  0
 12 27  1  0
  8  3  1  0
 27  9  1  0
 26 15  1  0
 25 18  1  0
  1 28  1  0
  1 29  1  0
  1 30  1  0
  4 31  1  0
  5 32  1  0
  6 33  1  0
  7 34  1  0
 10 35  1  0
 11 36  1  0
 13 37  1  0
 13 38  1  0
 15 39  1  1
 16 40  1  0
 16 41  1  0
 19 42  1  0
 24 43  1  0
 26 44  1  0
 26 45  1  0
M  CHG  3  19   1  21   1  23  -1
M  END
>  <UniqueID>  (84) 
78

>  <SMILES>  (84) 
COc1ccccc1-c1ccc(CO[C@@H]2COc3[nH+]c([N+](=O)[O-])cn3C2)s1

>  <Energy>  (84) 
113.11459969495482

>  <Genealogy>  (84) 
COc1ccccc1-c1ccc(COC2COc3[nH+]c([N+](=O)[O-])cn3C2)s1 (protonated)
COc1ccccc1-c1ccc(CO[C@@H]2COc3[nH+]c([N+](=O)[O-])cn3C2)s1 (chirality)
COc1ccccc1-c1ccc(CO[C@@H]2COc3[nH+]c([N+](=O)[O-])cn3C2)s1 (3D coordinates assigned)
COc1ccccc1-c1ccc(CO[C@@H]2COc3[nH+]c([N+](=O)[O-])cn3C2)s1 (nonaromatic ring conformer: 113.11459969495482 kcal/mol)

>  <smiles>  (84) 
COc1ccccc1-c1ccc(COC2COc3nc([N+](=O)[O-])cn3C2)s1

>  <score_type>  (84) 
oracle

>  <origin>  (84) 
adg

>  <m_score__min__energy>  (84) 
-8.4600000000000009

>  <m_primary>  (84) 
energy

$$$$
84:0
     RDKit          3D

 32 32  0  0  0  0  0  0  0  0999 V2000
   54.7770   26.3340   46.0180 N   0  0  0  0  0  0  0  0  0  0  0  0
   55.4880   24.7920   45.6950 S   0  0  0  0  0  0  0  0  0  0  0  0
   54.6610   24.0790   44.6630 O   0  0  0  0  0  0  0  0  0  0  0  0
   55.5140   23.9760   46.9560 O   0  0  0  0  0  0  0  0  0  0  0  0
   57.1480   25.0090   45.0600 C   0  0  0  0  0  0  0  0  0  0  0  0
   57.5080   26.4820   44.8180 C   0  0  0  0  0  0  0  0  0  0  0  0
   58.1050   27.1600   46.0590 C   0  0  0  0  0  0  0  0  0  0  0  0
   58.3960   28.5690   45.7940 N   0  0  0  0  0  0  0  0  0  0  0  0
   57.3810   29.4610   45.3080 C   0  0  0  0  0  0  0  0  0  0  0  0
   56.1840   29.0640   45.2470 O   0  0  0  0  0  0  0  0  0  0  0  0
   57.7090   30.8450   44.8920 C   0  0  0  0  0  0  0  0  0  0  0  0
   57.5030   31.2730   43.5680 C   0  0  0  0  0  0  0  0  0  0  0  0
   57.7970   32.5860   43.1960 C   0  0  0  0  0  0  0  0  0  0  0  0
   58.3020   33.4880   44.1340 C   0  0  0  0  0  0  0  0  0  0  0  0
   58.5310   33.0800   45.4580 C   0  0  0  0  0  0  0  0  0  0  0  0
   59.0260   34.0660   46.4870 C   0  0  0  0  0  0  0  0  0  0  0  0
   60.2130   33.6300   47.0480 F   0  0  0  0  0  0  0  0  0  0  0  0
   59.2490   35.3060   45.9120 F   0  0  0  0  0  0  0  0  0  0  0  0
   58.0770   34.1970   47.4840 F   0  0  0  0  0  0  0  0  0  0  0  0
   58.2060   31.7640   45.8340 C   0  0  0  0  0  0  0  0  0  0  0  0
   55.2180   27.0170   45.3620 H   0  0  0  0  0  0  0  0  0  0  0  0
   57.8592   24.5887   45.7863 H   0  0  0  0  0  0  0  0  0  0  0  0
   57.2001   24.4930   44.0899 H   0  0  0  0  0  0  0  0  0  0  0  0
   58.2428   26.5346   44.0011 H   0  0  0  0  0  0  0  0  0  0  0  0
   56.5783   27.0130   44.5655 H   0  0  0  0  0  0  0  0  0  0  0  0
   57.3860   27.0904   46.8885 H   0  0  0  0  0  0  0  0  0  0  0  0
   59.0438   26.6501   46.3210 H   0  0  0  0  0  0  0  0  0  0  0  0
   59.3470   28.9440   46.0110 H   0  0  0  0  0  0  0  0  0  0  0  0
   57.1078   30.5687   42.8211 H   0  0  0  0  0  0  0  0  0  0  0  0
   57.6299   32.9114   42.1586 H   0  0  0  0  0  0  0  0  0  0  0  0
   58.5216   34.5234   43.8346 H   0  0  0  0  0  0  0  0  0  0  0  0
   58.3424   31.4492   46.8791 H   0  0  0  0  0  0  0  0  0  0  0  0
  1  2  1  0
  2  3  2  0
  2  4  2  0
  2  5  1  0
  5  6  1  0
  6  7  1  0
  7  8  1  0
  8  9  1  0
  9 10  2  0
  9 11  1  0
 11 12  2  0
 12 13  1  0
 13 14  2  0
 14 15  1  0
 15 16  1  0
 16 17  1  0
 16 18  1  0
 16 19  1  0
 15 20  2  0
 20 11  1  0
  1 21  1  0
  5 22  1  0
  5 23  1  0
  6 24  1  0
  6 25  1  0
  7 26  1  0
  7 27  1  0
  8 28  1  0
 12 29  1  0
 13 30  1  0
 14 31  1  0
 20 32  1  0
M  CHG  1   1  -1
M  END
>  <UniqueID>  (85) 
79

>  <SMILES>  (85) 
[NH-]S(=O)(=O)CCCNC(=O)c1cccc(C(F)(F)F)c1

>  <Energy>  (85) 
23.317519764103075

>  <Genealogy>  (85) 
[NH-]S(=O)(=O)CCCNC(=O)c1cccc(C(F)(F)F)c1 (protonated)
[NH-]S(=O)(=O)CCCNC(=O)c1cccc(C(F)(F)F)c1 (3D coordinates assigned)
[NH-]S(=O)(=O)CCCNC(=O)c1cccc(C(F)(F)F)c1 (optimized conformer: 23.317519764103075 kcal/mol)

>  <smiles>  (85) 
NS(=O)(=O)CCCNC(=O)c1cccc(C(F)(F)F)c1

>  <score_type>  (85) 
oracle

>  <origin>  (85) 
adg

>  <m_score__min__energy>  (85) 
-9.8200000000000003

>  <m_primary>  (85) 
energy

$$$$
85:0
     RDKit          3D

 44 46  0  0  0  0  0  0  0  0999 V2000
   56.2660   29.7190   43.3140 C   0  0  0  0  0  0  0  0  0  0  0  0
   56.7770   30.9520   43.2790 C   0  0  0  0  0  0  0  0  0  0  0  0
   58.1810   31.2340   43.7360 C   0  0  0  0  0  0  0  0  0  0  0  0
   58.2040   31.5330   45.1720 N   0  0  0  0  0  0  0  0  0  0  0  0
   58.3940   30.6850   46.2140 C   0  0  0  0  0  0  0  0  0  0  0  0
   58.7180   29.2510   46.1020 C   0  0  0  0  0  0  0  0  0  0  0  0
   60.0510   28.8210   45.9990 C   0  0  0  0  0  0  0  0  0  0  0  0
   60.3430   27.4580   45.9040 C   0  0  0  0  0  0  0  0  0  0  0  0
   59.3120   26.5160   45.9210 C   0  0  0  0  0  0  0  0  0  0  0  0
   57.9800   26.9330   46.0380 C   0  0  0  0  0  0  0  0  0  0  0  0
   56.6780   25.7480   46.0840 S   0  0  0  0  0  0  0  0  0  0  0  0
   55.1550   26.5600   46.0130 N   0  0  0  0  0  0  0  0  0  0  0  0
   56.7580   24.9490   47.3540 O   0  0  0  0  0  0  0  0  0  0  0  0
   56.8040   24.8100   44.9170 O   0  0  0  0  0  0  0  0  0  0  0  0
   57.6880   28.3000   46.1430 C   0  0  0  0  0  0  0  0  0  0  0  0
   58.1690   31.2950   47.3960 N   0  0  0  0  0  0  0  0  0  0  0  0
   57.8470   32.5460   47.1130 N   0  0  0  0  0  0  0  0  0  0  0  0
   57.8600   32.6870   45.7780 C   0  0  0  0  0  0  0  0  0  0  0  0
   57.4400   34.2200   44.9380 S   0  0  0  0  0  0  0  0  0  0  0  0
   59.1570   34.8410   44.8980 C   0  0  0  0  0  0  0  0  0  0  0  0
   59.8790   34.5110   46.1760 C   0  0  0  0  0  0  0  0  0  0  0  0
   59.3560   34.9170   47.4140 C   0  0  0  0  0  0  0  0  0  0  0  0
   60.0480   34.6420   48.5960 C   0  0  0  0  0  0  0  0  0  0  0  0
   61.2690   33.9600   48.5560 C   0  0  0  0  0  0  0  0  0  0  0  0
   62.1120   33.6350   50.0640 Cl  0  0  0  0  0  0  0  0  0  0  0  0
   61.8020   33.5550   47.3200 C   0  0  0  0  0  0  0  0  0  0  0  0
   63.3370   32.7020   47.2260 Cl  0  0  0  0  0  0  0  0  0  0  0  0
   61.1070   33.8320   46.1370 C   0  0  0  0  0  0  0  0  0  0  0  0
   55.2353   29.5409   42.9734 H   0  0  0  0  0  0  0  0  0  0  0  0
   56.8757   28.8813   43.6835 H   0  0  0  0  0  0  0  0  0  0  0  0
   56.1563   31.7805   42.9072 H   0  0  0  0  0  0  0  0  0  0  0  0
   58.8094   30.3528   43.5397 H   0  0  0  0  0  0  0  0  0  0  0  0
   58.5661   32.1049   43.1852 H   0  0  0  0  0  0  0  0  0  0  0  0
   60.8668   29.5588   45.9931 H   0  0  0  0  0  0  0  0  0  0  0  0
   61.3879   27.1259   45.8156 H   0  0  0  0  0  0  0  0  0  0  0  0
   59.5466   25.4442   45.8423 H   0  0  0  0  0  0  0  0  0  0  0  0
   55.1550   27.1310   45.1380 H   0  0  0  0  0  0  0  0  0  0  0  0
   56.6446   28.6288   46.2583 H   0  0  0  0  0  0  0  0  0  0  0  0
   57.6140   33.2760   47.8210 H   0  0  0  0  0  0  0  0  0  0  0  0
   59.6882   34.3762   44.0543 H   0  0  0  0  0  0  0  0  0  0  0  0
   59.1318   35.9346   44.7818 H   0  0  0  0  0  0  0  0  0  0  0  0
   58.3969   35.4541   47.4535 H   0  0  0  0  0  0  0  0  0  0  0  0
   59.6312   34.9630   49.5621 H   0  0  0  0  0  0  0  0  0  0  0  0
   61.5259   33.5155   45.1704 H   0  0  0  0  0  0  0  0  0  0  0  0
  1  2  2  0
  2  3  1  0
  3  4  1  0
  4  5  1  0
  5  6  1  0
  6  7  2  0
  7  8  1  0
  8  9  2  0
  9 10  1  0
 10 11  1  0
 11 12  1  0
 11 13  2  0
 11 14  2  0
 10 15  2  0
  5 16  2  0
 16 17  1  0
 17 18  2  0
 18 19  1  0
 19 20  1  0
 20 21  1  0
 21 22  2  0
 22 23  1  0
 23 24  2  0
 24 25  1  0
 24 26  1  0
 26 27  1  0
 26 28  2  0
 18  4  1  0
 28 21  1  0
 15  6  1  0
  1 29  1  0
  1 30  1  0
  2 31  1  0
  3 32  1  0
  3 33  1  0
  7 34  1  0
  8 35  1  0
  9 36  1  0
 12 37  1  0
 15 38  1  0
 17 39  1  0
 20 40  1  0
 20 41  1  0
 22 42  1  0
 23 43  1  0
 28 44  1  0
M  CHG  2  12  -1  17   1
M  END
>  <UniqueID>  (86) 
80

>  <SMILES>  (86) 
C=CCn1c(-c2cccc(S([NH-])(=O)=O)c2)n[nH+]c1SCc1ccc(Cl)c(Cl)c1

>  <Energy>  (86) 
78.52455399872395

>  <Genealogy>  (86) 
C=CCn1c(-c2cccc(S([NH-])(=O)=O)c2)n[nH+]c1SCc1ccc(Cl)c(Cl)c1 (protonated)
C=CCn1c(-c2cccc(S([NH-])(=O)=O)c2)n[nH+]c1SCc1ccc(Cl)c(Cl)c1 (3D coordinates assigned)
C=CCn1c(-c2cccc(S([NH-])(=O)=O)c2)n[nH+]c1SCc1ccc(Cl)c(Cl)c1 (optimized conformer: 78.52455399872395 kcal/mol)

>  <smiles>  (86) 
C=CCn1c(SCc2ccc(Cl)c(Cl)c2)nnc1-c1cccc(S(N)(=O)=O)c1

>  <score_type>  (86) 
oracle

>  <origin>  (86) 
adg

>  <m_score__min__energy>  (86) 
-11.890000000000001

>  <m_primary>  (86) 
energy

$$$$
86:0
     RDKit          3D

 45 47  0  0  0  0  0  0  0  0999 V2000
   56.3140   29.4080   45.2920 O   0  0  0  0  0  0  0  0  0  0  0  0
   57.0960   28.5100   45.7010 C   0  0  0  0  0  0  0  0  0  0  0  0
   56.6500   27.1070   45.6340 C   0  0  0  0  0  0  0  0  0  0  0  0
   57.3860   26.0220   45.1940 C   0  0  0  0  0  0  0  0  0  0  0  0
   56.5450   24.9350   45.2930 C   0  0  0  0  0  0  0  0  0  0  0  0
   55.3490   25.4210   45.7820 C   0  0  0  0  0  0  0  0  0  0  0  0
   55.4420   26.7160   45.9710 O   0  0  0  0  0  0  0  0  0  0  0  0
   58.3920   28.8770   46.2080 N   0  0  0  0  0  0  0  0  0  0  0  0
   59.1650   29.9120   45.5110 C   0  0  0  0  0  0  0  0  0  0  0  0
   60.3170   30.4190   46.3860 C   0  0  0  0  0  0  0  0  0  0  0  0
   59.8540   30.5550   47.7860 N   0  0  0  0  0  0  0  0  0  0  0  0
   60.8450   31.2940   48.6120 C   0  0  0  0  0  0  0  0  0  0  0  0
   61.0240   32.7640   48.1760 C   0  0  0  0  0  0  0  0  0  0  0  0
   59.7610   33.6060   48.4140 C   0  0  0  0  0  0  0  0  0  0  0  0
   58.9820   33.7610   47.1340 C   0  0  0  0  0  0  0  0  0  0  0  0
   57.7470   33.1080   46.9740 C   0  0  0  0  0  0  0  0  0  0  0  0
   57.0410   33.2250   45.7730 C   0  0  0  0  0  0  0  0  0  0  0  0
   57.5650   33.9850   44.7220 C   0  0  0  0  0  0  0  0  0  0  0  0
   58.7980   34.6270   44.8700 C   0  0  0  0  0  0  0  0  0  0  0  0
   59.5080   34.5120   46.0700 C   0  0  0  0  0  0  0  0  0  0  0  0
   59.5920   29.2190   48.3770 C   0  0  0  0  0  0  0  0  0  0  0  0
   58.9610   28.2100   47.3880 C   0  0  0  0  0  0  0  0  0  0  0  0
   58.4270   26.0259   44.8386 H   0  0  0  0  0  0  0  0  0  0  0  0
   56.7791   23.8917   45.0348 H   0  0  0  0  0  0  0  0  0  0  0  0
   54.4536   24.8144   45.9828 H   0  0  0  0  0  0  0  0  0  0  0  0
   59.5772   29.4894   44.5828 H   0  0  0  0  0  0  0  0  0  0  0  0
   58.4973   30.7567   45.2862 H   0  0  0  0  0  0  0  0  0  0  0  0
   61.1512   29.7032   46.3441 H   0  0  0  0  0  0  0  0  0  0  0  0
   60.6537   31.3985   46.0155 H   0  0  0  0  0  0  0  0  0  0  0  0
   58.9480   31.0820   47.7880 H   0  0  0  0  0  0  0  0  0  0  0  0
   60.5085   31.2784   49.6591 H   0  0  0  0  0  0  0  0  0  0  0  0
   61.8162   30.7940   48.4828 H   0  0  0  0  0  0  0  0  0  0  0  0
   61.8540   33.2033   48.7488 H   0  0  0  0  0  0  0  0  0  0  0  0
   61.2308   32.7695   47.0956 H   0  0  0  0  0  0  0  0  0  0  0  0
   59.1295   33.1075   49.1641 H   0  0  0  0  0  0  0  0  0  0  0  0
   60.0596   34.6024   48.7719 H   0  0  0  0  0  0  0  0  0  0  0  0
   57.3354   32.5037   47.7958 H   0  0  0  0  0  0  0  0  0  0  0  0
   56.0718   32.7185   45.6543 H   0  0  0  0  0  0  0  0  0  0  0  0
   57.0067   34.0775   43.7788 H   0  0  0  0  0  0  0  0  0  0  0  0
   59.2102   35.2230   44.0424 H   0  0  0  0  0  0  0  0  0  0  0  0
   60.4818   35.0116   46.1806 H   0  0  0  0  0  0  0  0  0  0  0  0
   60.5466   28.8044   48.7332 H   0  0  0  0  0  0  0  0  0  0  0  0
   58.8663   29.3659   49.1905 H   0  0  0  0  0  0  0  0  0  0  0  0
   59.7373   27.5044   47.0571 H   0  0  0  0  0  0  0  0  0  0  0  0
   58.1450   27.6884   47.9096 H   0  0  0  0  0  0  0  0  0  0  0  0
  1  2  2  0
  2  3  1  0
  3  4  2  0
  4  5  1  0
  5  6  2  0
  6  7  1  0
  2  8  1  0
  8  9  1  0
  9 10  1  0
 10 11  1  0
 11 12  1  0
 12 13  1  0
 13 14  1  0
 14 15  1  0
 15 16  2  0
 16 17  1  0
 17 18  2  0
 18 19  1  0
 19 20  2  0
 11 21  1  0
 21 22  1  0
  7  3  1  0
 22  8  1  0
 20 15  1  0
  4 23  1  0
  5 24  1  0
  6 25  1  0
  9 26  1  0
  9 27  1  0
 10 28  1  0
 10 29  1  0
 11 30  1  0
 12 31  1  0
 12 32  1  0
 13 33  1  0
 13 34  1  0
 14 35  1  0
 14 36  1  0
 16 37  1  0
 17 38  1  0
 18 39  1  0
 19 40  1  0
 20 41  1  0
 21 42  1  0
 21 43  1  0
 22 44  1  0
 22 45  1  0
M  CHG  1  11   1
M  END
>  <UniqueID>  (87) 
81

>  <SMILES>  (87) 
O=C(c1ccco1)N1CC[NH+](CCCc2ccccc2)CC1

>  <Energy>  (87) 
80.08546724651248

>  <Genealogy>  (87) 
O=C(c1ccco1)N1CC[NH+](CCCc2ccccc2)CC1 (protonated)
O=C(c1ccco1)N1CC[NH+](CCCc2ccccc2)CC1 (3D coordinates assigned)
O=C(c1ccco1)N1CC[NH+](CCCc2ccccc2)CC1 (nonaromatic ring conformer: 80.08546724651248 kcal/mol)

>  <smiles>  (87) 
O=C(c1ccco1)N1CCN(CCCc2ccccc2)CC1

>  <score_type>  (87) 
oracle

>  <origin>  (87) 
adg

>  <m_score__min__energy>  (87) 
-6.7300000000000004

>  <m_primary>  (87) 
energy

$$$$
87:0
     RDKit          3D

 43 46  0  0  0  0  0  0  0  0999 V2000
   49.9890   32.3320   51.2580 H   0  0  0  0  0  0  0  0  0  0  0  0
   51.0240   32.3440   51.1150 N   0  0  0  0  0  0  0  0  0  0  0  0
   51.7100   31.1960   50.6210 C   0  0  0  0  0  0  0  0  0  0  0  0
   51.3700   30.7100   49.5070 O   0  0  0  0  0  0  0  0  0  0  0  0
   52.8100   30.5810   51.4000 C   0  0  0  0  0  0  0  0  0  0  0  0
   52.6480   29.3110   51.9820 C   0  0  0  0  0  0  0  0  0  0  0  0
   51.7026   28.7651   51.8472 H   0  0  0  0  0  0  0  0  0  0  0  0
   53.6790   28.7380   52.7300 C   0  0  0  0  0  0  0  0  0  0  0  0
   53.5385   27.7486   53.1897 H   0  0  0  0  0  0  0  0  0  0  0  0
   54.8870   29.4170   52.8960 C   0  0  0  0  0  0  0  0  0  0  0  0
   55.6896   28.9680   53.4996 H   0  0  0  0  0  0  0  0  0  0  0  0
   55.0820   30.6740   52.2940 C   0  0  0  0  0  0  0  0  0  0  0  0
   56.3000   31.4190   52.4650 N   0  0  0  0  0  0  0  0  0  0  0  0
   57.3520   31.3820   51.7000 C   0  0  0  0  0  0  0  0  0  0  0  0
   57.3810   32.0350   50.5080 N   0  0  0  0  0  0  0  0  0  0  0  0
   58.4960   32.0030   49.7350 C   0  0  0  0  0  0  0  0  0  0  0  0
   58.5110   32.6800   48.4820 N   0  0  0  0  0  0  0  0  0  0  0  0
   57.5330   33.0990   47.4630 C   0  0  0  0  0  0  0  0  0  0  0  0
   57.0020   32.2494   47.0088 H   0  0  0  0  0  0  0  0  0  0  0  0
   56.6979   33.7314   47.7988 H   0  0  0  0  0  0  0  0  0  0  0  0
   58.5300   33.7200   46.5360 C   0  0  0  0  0  0  0  0  0  0  0  0
   58.4423   34.7425   46.1401 H   0  0  0  0  0  0  0  0  0  0  0  0
   58.6980   32.9830   45.3260 O   0  0  0  0  0  0  0  0  0  0  0  0
   58.1720   31.7060   45.0660 C   0  0  0  0  0  0  0  0  0  0  0  0
   57.0220   31.6320   44.2660 C   0  0  0  0  0  0  0  0  0  0  0  0
   56.5716   32.5555   43.8733 H   0  0  0  0  0  0  0  0  0  0  0  0
   56.4430   30.3970   43.9630 C   0  0  0  0  0  0  0  0  0  0  0  0
   55.5405   30.3524   43.3357 H   0  0  0  0  0  0  0  0  0  0  0  0
   57.0080   29.2210   44.4550 C   0  0  0  0  0  0  0  0  0  0  0  0
   56.5520   28.2492   44.2147 H   0  0  0  0  0  0  0  0  0  0  0  0
   58.1530   29.2770   45.2530 C   0  0  0  0  0  0  0  0  0  0  0  0
   58.5963   28.3475   45.6397 H   0  0  0  0  0  0  0  0  0  0  0  0
   58.7390   30.5090   45.5630 C   0  0  0  0  0  0  0  0  0  0  0  0
   59.8480   30.5140   46.3420 F   0  0  0  0  0  0  0  0  0  0  0  0
   59.5070   33.2900   47.5840 C   0  0  0  0  0  0  0  0  0  0  0  0
   60.2415   32.5628   47.2075 H   0  0  0  0  0  0  0  0  0  0  0  0
   60.1589   34.0663   48.0111 H   0  0  0  0  0  0  0  0  0  0  0  0
   59.5920   31.3240   50.1560 N   0  0  0  0  0  0  0  0  0  0  0  0
   59.5720   30.6800   51.3500 C   0  0  0  0  0  0  0  0  0  0  0  0
   60.4611   30.1309   51.6935 H   0  0  0  0  0  0  0  0  0  0  0  0
   58.4550   30.7130   52.1210 N   0  0  0  0  0  0  0  0  0  0  0  0
   54.0320   31.2570   51.5730 C   0  0  0  0  0  0  0  0  0  0  0  0
   54.1646   32.2576   51.1358 H   0  0  0  0  0  0  0  0  0  0  0  0
  1  2  1  0
  2  3  1  0
  3  4  2  0
  3  5  1  0
  5  6  2  0
  6  7  1  0
  6  8  1  0
  8  9  1  0
  8 10  2  0
 10 11  1  0
 10 12  1  0
 12 13  1  0
 13 14  2  0
 14 15  1  0
 15 16  2  0
 16 17  1  0
 17 18  1  0
 18 19  1  0
 18 20  1  0
 18 21  1  0
 21 22  1  0
 21 23  1  0
 23 24  1  0
 24 25  2  0
 25 26  1  0
 25 27  1  0
 27 28  1  0
 27 29  2  0
 29 30  1  0
 29 31  1  0
 31 32  1  0
 31 33  2  0
 33 34  1  0
 21 35  1  0
 35 36  1  0
 35 37  1  0
 16 38  1  0
 38 39  2  0
 39 40  1  0
 39 41  1  0
 12 42  2  0
 42 43  1  0
 42  5  1  0
 41 14  1  0
 35 17  1  0
 33 24  1  0
M  CHG  2   2  -1  41  -1
M  END
>  <UniqueID>  (88) 
82

>  <SMILES>  (88) 
[NH-]C(=O)c1cccc(/N=c2\nc(N3CC(Oc4ccccc4F)C3)nc[n-]2)c1

>  <Energy>  (88) 
99.73145787699451

>  <Genealogy>  (88) 
[NH-]C(=O)c1cccc(N=c2nc(N3CC(Oc4ccccc4F)C3)nc[n-]2)c1 (protonated)
[NH-]C(=O)c1cccc(/N=c2\nc(N3CC(Oc4ccccc4F)C3)nc[n-]2)c1 (cis-trans isomerization)
[NH-]C(=O)c1cccc(/N=c2\nc(N3CC(Oc4ccccc4F)C3)nc[n-]2)c1 (3D coordinates assigned)
[NH-]C(=O)c1cccc(/N=c2\nc(N3CC(Oc4ccccc4F)C3)nc[n-]2)c1 (nonaromatic ring conformer: 99.73145787699451 kcal/mol)

>  <smiles>  (88) 
NC(=O)c1cccc(N=c2nc(N3CC(Oc4ccccc4F)C3)nc[nH]2)c1

>  <score_type>  (88) 
oracle

>  <origin>  (88) 
adg

>  <m_score__min__energy>  (88) 
-12.69

>  <m_primary>  (88) 
energy

$$$$
88:0
     RDKit          3D

 39 41  0  0  0  0  0  0  0  0999 V2000
   63.9830   32.6230   48.9550 C   0  0  0  0  0  0  0  0  0  0  0  0
   63.7530   33.1020   47.5260 C   0  0  0  0  0  0  0  0  0  0  0  0
   62.3180   32.8930   47.1200 C   0  0  0  0  0  0  0  0  0  0  0  0
   61.6020   33.9110   46.4790 C   0  0  0  0  0  0  0  0  0  0  0  0
   60.2980   33.7240   46.1510 N   0  0  0  0  0  0  0  0  0  0  0  0
   59.6420   32.5600   46.4150 C   0  0  0  0  0  0  0  0  0  0  0  0
   60.3100   31.5270   47.0800 C   0  0  0  0  0  0  0  0  0  0  0  0
   61.6570   31.6980   47.4320 C   0  0  0  0  0  0  0  0  0  0  0  0
   59.6170   30.3100   47.3880 N   0  0  0  0  0  0  0  0  0  0  0  0
   59.6740   29.7280   48.7360 C   0  0  0  0  0  0  0  0  0  0  0  0
   58.9860   30.6310   49.7560 C   0  0  0  0  0  0  0  0  0  0  0  0
   59.2060   29.4970   46.2830 C   0  0  0  0  0  0  0  0  0  0  0  0
   59.6640   28.2160   46.2070 N   0  0  0  0  0  0  0  0  0  0  0  0
   59.3560   27.3920   45.1750 C   0  0  0  0  0  0  0  0  0  0  0  0
   58.5450   27.8500   44.1390 C   0  0  0  0  0  0  0  0  0  0  0  0
   58.1430   26.7950   42.7960 Cl  0  0  0  0  0  0  0  0  0  0  0  0
   58.0480   29.1520   44.1890 C   0  0  0  0  0  0  0  0  0  0  0  0
   58.3660   30.0040   45.2630 C   0  0  0  0  0  0  0  0  0  0  0  0
   57.7190   31.3470   45.3310 C   0  0  0  0  0  0  0  0  0  0  0  0
   56.6550   31.5260   44.6750 O   0  0  0  0  0  0  0  0  0  0  0  0
   58.2420   32.4470   46.1110 N   0  0  0  0  0  0  0  0  0  0  0  0
   57.3930   33.6200   46.3380 C   0  0  0  0  0  0  0  0  0  0  0  0
   63.6176   33.3841   49.6601 H   0  0  0  0  0  0  0  0  0  0  0  0
   63.4391   31.6809   49.1180 H   0  0  0  0  0  0  0  0  0  0  0  0
   65.0583   32.4584   49.1180 H   0  0  0  0  0  0  0  0  0  0  0  0
   63.9946   34.1732   47.4607 H   0  0  0  0  0  0  0  0  0  0  0  0
   64.4000   32.5235   46.8502 H   0  0  0  0  0  0  0  0  0  0  0  0
   62.0969   34.8641   46.2407 H   0  0  0  0  0  0  0  0  0  0  0  0
   62.1949   30.8927   47.9537 H   0  0  0  0  0  0  0  0  0  0  0  0
   59.1713   28.7496   48.7261 H   0  0  0  0  0  0  0  0  0  0  0  0
   60.7300   29.6183   49.0239 H   0  0  0  0  0  0  0  0  0  0  0  0
   59.2408   30.2966   50.7725 H   0  0  0  0  0  0  0  0  0  0  0  0
   59.3251   31.6679   49.6153 H   0  0  0  0  0  0  0  0  0  0  0  0
   57.8963   30.5793   49.6153 H   0  0  0  0  0  0  0  0  0  0  0  0
   59.7459   26.3636   45.1559 H   0  0  0  0  0  0  0  0  0  0  0  0
   57.3995   29.5175   43.3791 H   0  0  0  0  0  0  0  0  0  0  0  0
   57.2748   33.7833   47.4194 H   0  0  0  0  0  0  0  0  0  0  0  0
   57.8611   34.5051   45.8825 H   0  0  0  0  0  0  0  0  0  0  0  0
   56.4060   33.4519   45.8825 H   0  0  0  0  0  0  0  0  0  0  0  0
  1  2  1  0
  2  3  1  0
  3  4  2  0
  4  5  1  0
  5  6  2  0
  6  7  1  0
  7  8  2  0
  7  9  1  0
  9 10  1  0
 10 11  1  0
  9 12  1  0
 12 13  2  0
 13 14  1  0
 14 15  2  0
 15 16  1  0
 15 17  1  0
 17 18  2  0
 18 19  1  0
 19 20  2  0
 19 21  1  0
 21 22  1  0
  8  3  1  0
 18 12  1  0
 21  6  1  0
  1 23  1  0
  1 24  1  0
  1 25  1  0
  2 26  1  0
  2 27  1  0
  4 28  1  0
  8 29  1  0
 10 30  1  0
 10 31  1  0
 11 32  1  0
 11 33  1  0
 11 34  1  0
 14 35  1  0
 17 36  1  0
 22 37  1  0
 22 38  1  0
 22 39  1  0
M  END
>  <UniqueID>  (89) 
83

>  <SMILES>  (89) 
CCc1cnc2c(c1)N(CC)c1ncc(Cl)cc1C(=O)N2C

>  <Energy>  (89) 
57.78332042815004

>  <Genealogy>  (89) 
CCc1cnc2c(c1)N(CC)c1ncc(Cl)cc1C(=O)N2C (3D coordinates assigned)
CCc1cnc2c(c1)N(CC)c1ncc(Cl)cc1C(=O)N2C (nonaromatic ring conformer: 57.78332042815004 kcal/mol)

>  <smiles>  (89) 
CCc1cnc2c(c1)N(CC)c1ncc(Cl)cc1C(=O)N2C

>  <score_type>  (89) 
oracle

>  <origin>  (89) 
adg

>  <m_score__min__energy>  (89) 
-7.2400000000000002

>  <m_primary>  (89) 
energy

$$$$
89:0
     RDKit          3D

 31 33  0  0  1  0  0  0  0  0999 V2000
   56.5430   29.3490   42.9880 O   0  0  0  0  0  0  0  0  0  0  0  0
   56.3760   29.9480   44.0810 C   0  0  0  0  0  0  0  0  0  0  0  0
   55.5080   29.4510   45.0250 O   0  0  0  0  0  0  0  0  0  0  0  0
   57.1400   31.1700   44.2840 C   0  0  0  0  0  0  0  0  0  0  0  0
   57.5770   31.9200   43.2330 C   0  0  0  0  0  0  0  0  0  0  0  0
   58.3000   33.0820   43.3350 C   0  0  0  0  0  0  0  0  0  0  0  0
   58.6070   33.5200   44.6000 C   0  0  0  0  0  0  0  0  0  0  0  0
   59.3150   34.6570   44.6930 N   0  0  0  0  0  0  0  0  0  0  0  0
   59.6370   35.1230   45.8960 C   0  0  0  0  0  0  0  0  0  0  0  0
   59.2490   34.4480   46.9720 N   0  0  0  0  0  0  0  0  0  0  0  0
   58.5370   33.3040   46.9220 C   0  0  0  0  0  0  0  0  0  0  0  0
   58.2270   32.7580   47.9750 N   0  0  0  0  0  0  0  0  0  0  0  0
   58.7700   31.7600   48.6980 C   0  0  0  0  0  0  0  0  0  0  0  0
   58.5280   31.6400   50.0880 C   0  0  0  0  0  0  0  0  0  0  0  0
   59.0010   30.5510   50.7870 C   0  0  0  0  0  0  0  0  0  0  0  0
   58.7500   30.4700   52.1160 F   0  0  0  0  0  0  0  0  0  0  0  0
   59.7260   29.5490   50.1380 C   0  0  0  0  0  0  0  0  0  0  0  0
   60.1560   28.5140   50.8900 F   0  0  0  0  0  0  0  0  0  0  0  0
   59.9570   29.6730   48.7900 C   0  0  0  0  0  0  0  0  0  0  0  0
   60.6650   28.6800   48.1930 F   0  0  0  0  0  0  0  0  0  0  0  0
   59.5050   30.7440   48.0430 C   0  0  0  0  0  0  0  0  0  0  0  0
   58.1850   32.7910   45.7080 C   0  0  0  0  0  0  0  0  0  0  0  0
   57.4670   31.6390   45.5690 C   0  0  0  0  0  0  0  0  0  0  0  0
   55.5190   29.7150   46.0030 H   0  0  0  0  0  0  0  0  0  0  0  0
   57.3302   31.5652   42.2215 H   0  0  0  0  0  0  0  0  0  0  0  0
   58.6199   33.6387   42.4419 H   0  0  0  0  0  0  0  0  0  0  0  0
   59.6310   35.2030   43.8590 H   0  0  0  0  0  0  0  0  0  0  0  0
   60.2156   36.0529   45.9984 H   0  0  0  0  0  0  0  0  0  0  0  0
   57.9587   32.4212   50.6131 H   0  0  0  0  0  0  0  0  0  0  0  0
   59.7118   30.8052   46.9643 H   0  0  0  0  0  0  0  0  0  0  0  0
   57.1449   31.0789   46.4592 H   0  0  0  0  0  0  0  0  0  0  0  0
  1  2  2  0
  2  3  1  0
  2  4  1  0
  4  5  2  0
  5  6  1  0
  6  7  2  0
  7  8  1  0
  8  9  1  0
  9 10  2  0
 10 11  1  0
 11 12  2  0
 12 13  1  0
 13 14  2  0
 14 15  1  0
 15 16  1  0
 15 17  2  0
 17 18  1  0
 17 19  1  0
 19 20  1  0
 19 21  2  0
 11 22  1  0
 22 23  2  0
 23  4  1  0
 22  7  1  0
 21 13  1  0
  3 24  1  0
  5 25  1  0
  6 26  1  0
  8 27  1  0
  9 28  1  0
 14 29  1  0
 21 30  1  0
 23 31  1  0
M  END
>  <smiles>  (90) 
O=C(O)c1ccc2[nH]cnc(=Nc3cc(F)c(F)c(F)c3)c2c1

>  <score_type>  (90) 
oracle

>  <origin>  (90) 
adg

>  <m_score__min__energy>  (90) 
-7.0999999999999996

>  <m_primary>  (90) 
energy

$$$$
90:0
     RDKit          3D

 32 34  0  0  0  0  0  0  0  0999 V2000
   54.7350   25.0320   45.6120 C   0  0  0  0  0  0  0  0  0  0  0  0
   55.2270   26.2800   46.0880 O   0  0  0  0  0  0  0  0  0  0  0  0
   56.5390   26.7440   45.9020 C   0  0  0  0  0  0  0  0  0  0  0  0
   57.6540   25.9110   46.1180 C   0  0  0  0  0  0  0  0  0  0  0  0
   58.9500   26.4120   45.9790 C   0  0  0  0  0  0  0  0  0  0  0  0
   59.1510   27.7490   45.6320 C   0  0  0  0  0  0  0  0  0  0  0  0
   60.7800   28.3790   45.4700 Cl  0  0  0  0  0  0  0  0  0  0  0  0
   58.0540   28.5840   45.4080 C   0  0  0  0  0  0  0  0  0  0  0  0
   56.7480   28.0860   45.5100 C   0  0  0  0  0  0  0  0  0  0  0  0
   55.6580   28.9780   45.2340 N   0  0  0  0  0  0  0  0  0  0  0  0
   55.5020   29.7990   44.0680 C   0  0  0  0  0  0  0  0  0  0  0  0
   54.4570   29.6770   43.3780 O   0  0  0  0  0  0  0  0  0  0  0  0
   56.5090   30.8020   43.6680 C   0  0  0  0  0  0  0  0  0  0  0  0
   57.0060   31.0200   42.3820 C   0  0  0  0  0  0  0  0  0  0  0  0
   57.9120   32.0250   42.4170 N   0  0  0  0  0  0  0  0  0  0  0  0
   57.9950   32.4530   43.6630 N   0  0  0  0  0  0  0  0  0  0  0  0
   58.7630   33.4610   44.1440 C   0  0  0  0  0  0  0  0  0  0  0  0
   58.6650   33.7640   45.5090 C   0  0  0  0  0  0  0  0  0  0  0  0
   57.7730   33.0190   46.3070 C   0  0  0  0  0  0  0  0  0  0  0  0
   57.0240   32.0180   45.7580 N   0  0  0  0  0  0  0  0  0  0  0  0
   57.1640   31.7470   44.4370 C   0  0  0  0  0  0  0  0  0  0  0  0
   54.4811   24.3879   46.4668 H   0  0  0  0  0  0  0  0  0  0  0  0
   53.8363   25.2012   45.0007 H   0  0  0  0  0  0  0  0  0  0  0  0
   55.5074   24.5424   45.0007 H   0  0  0  0  0  0  0  0  0  0  0  0
   57.5028   24.8581   46.3982 H   0  0  0  0  0  0  0  0  0  0  0  0
   59.8143   25.7517   46.1433 H   0  0  0  0  0  0  0  0  0  0  0  0
   58.2164   29.6408   45.1495 H   0  0  0  0  0  0  0  0  0  0  0  0
   56.7082   30.4627   41.4816 H   0  0  0  0  0  0  0  0  0  0  0  0
   58.4490   32.4090   41.6070 H   0  0  0  0  0  0  0  0  0  0  0  0
   59.4410   34.0228   43.4847 H   0  0  0  0  0  0  0  0  0  0  0  0
   59.2728   34.5681   45.9494 H   0  0  0  0  0  0  0  0  0  0  0  0
   57.6798   33.2457   47.3793 H   0  0  0  0  0  0  0  0  0  0  0  0
  1  2  1  0
  2  3  1  0
  3  4  2  0
  4  5  1  0
  5  6  2  0
  6  7  1  0
  6  8  1  0
  8  9  2  0
  9 10  1  0
 10 11  1  0
 11 12  2  0
 11 13  1  0
 13 14  1  0
 14 15  2  0
 15 16  1  0
 16 17  1  0
 17 18  2  0
 18 19  1  0
 19 20  2  0
 20 21  1  0
  9  3  1  0
 21 13  2  0
 21 16  1  0
  1 22  1  0
  1 23  1  0
  1 24  1  0
  4 25  1  0
  5 26  1  0
  8 27  1  0
 14 28  1  0
 15 29  1  0
 17 30  1  0
 18 31  1  0
 19 32  1  0
M  CHG  2  10  -1  15   1
M  END
>  <UniqueID>  (91) 
84

>  <SMILES>  (91) 
COc1ccc(Cl)cc1[N-]C(=O)c1c[nH+]n2cccnc12

>  <Energy>  (91) 
78.6641252396014

>  <Genealogy>  (91) 
COc1ccc(Cl)cc1[N-]C(=O)c1c[nH+]n2cccnc12 (protonated)
COc1ccc(Cl)cc1[N-]C(=O)c1c[nH+]n2cccnc12 (3D coordinates assigned)
COc1ccc(Cl)cc1[N-]C(=O)c1c[nH+]n2cccnc12 (optimized conformer: 78.6641252396014 kcal/mol)

>  <smiles>  (91) 
COc1ccc(Cl)cc1NC(=O)c1cnn2cccnc12

>  <score_type>  (91) 
oracle

>  <origin>  (91) 
adg

>  <m_score__min__energy>  (91) 
-8.6099999999999994

>  <m_primary>  (91) 
energy

$$$$
91:0
     RDKit          3D

 33 34  0  0  0  0  0  0  0  0999 V2000
   55.1750   29.6450   44.7070 N   0  0  0  0  0  0  0  0  0  0  0  0
   56.0530   29.6570   43.5390 C   0  0  0  0  0  0  0  0  0  0  0  0
   57.0110   30.8560   43.5740 C   0  0  0  0  0  0  0  0  0  0  0  0
   57.1950   31.3270   44.9470 N   0  0  0  0  0  0  0  0  0  0  0  0
   58.0660   32.4150   45.3370 C   0  0  0  0  0  0  0  0  0  0  0  0
   58.2890   33.5130   44.4780 C   0  0  0  0  0  0  0  0  0  0  0  0
   59.1100   34.5720   44.8710 C   0  0  0  0  0  0  0  0  0  0  0  0
   59.7220   34.5580   46.1220 C   0  0  0  0  0  0  0  0  0  0  0  0
   59.5240   33.4800   46.9820 C   0  0  0  0  0  0  0  0  0  0  0  0
   58.7140   32.4010   46.5980 C   0  0  0  0  0  0  0  0  0  0  0  0
   58.5360   31.0310   47.7520 S   0  0  0  0  0  0  0  0  0  0  0  0
   58.9780   29.8040   46.5210 C   0  0  0  0  0  0  0  0  0  0  0  0
   60.2080   29.8830   45.8530 C   0  0  0  0  0  0  0  0  0  0  0  0
   60.5490   28.9200   44.8960 C   0  0  0  0  0  0  0  0  0  0  0  0
   59.6620   27.8810   44.6020 C   0  0  0  0  0  0  0  0  0  0  0  0
   58.4310   27.8040   45.2610 C   0  0  0  0  0  0  0  0  0  0  0  0
   58.0880   28.7650   46.2170 C   0  0  0  0  0  0  0  0  0  0  0  0
   54.7520   30.5950   44.8200 H   0  0  0  0  0  0  0  0  0  0  0  0
   54.3950   28.9680   44.5370 H   0  0  0  0  0  0  0  0  0  0  0  0
   56.6419   28.7281   43.5238 H   0  0  0  0  0  0  0  0  0  0  0  0
   55.4293   29.7370   42.6365 H   0  0  0  0  0  0  0  0  0  0  0  0
   57.9849   30.5530   43.1620 H   0  0  0  0  0  0  0  0  0  0  0  0
   56.5814   31.6714   42.9735 H   0  0  0  0  0  0  0  0  0  0  0  0
   56.6490   30.8180   45.6750 H   0  0  0  0  0  0  0  0  0  0  0  0
   57.8105   33.5345   43.4878 H   0  0  0  0  0  0  0  0  0  0  0  0
   59.2739   35.4203   44.1901 H   0  0  0  0  0  0  0  0  0  0  0  0
   60.3616   35.3979   46.4310 H   0  0  0  0  0  0  0  0  0  0  0  0
   60.0068   33.4749   47.9704 H   0  0  0  0  0  0  0  0  0  0  0  0
   60.9056   30.7023   46.0811 H   0  0  0  0  0  0  0  0  0  0  0  0
   61.5159   28.9812   44.3750 H   0  0  0  0  0  0  0  0  0  0  0  0
   59.9322   27.1233   43.8518 H   0  0  0  0  0  0  0  0  0  0  0  0
   57.7323   26.9872   45.0272 H   0  0  0  0  0  0  0  0  0  0  0  0
   57.1176   28.7054   46.7315 H   0  0  0  0  0  0  0  0  0  0  0  0
  1  2  1  0
  2  3  1  0
  3  4  1  0
  4  5  1  0
  5  6  2  0
  6  7  1  0
  7  8  2  0
  8  9  1  0
  9 10  2  0
 10 11  1  0
 11 12  1  0
 12 13  2  0
 13 14  1  0
 14 15  2  0
 15 16  1  0
 16 17  2  0
 10  5  1  0
 17 12  1  0
  1 18  1  0
  1 19  1  0
  2 20  1  0
  2 21  1  0
  3 22  1  0
  3 23  1  0
  4 24  1  0
  6 25  1  0
  7 26  1  0
  8 27  1  0
  9 28  1  0
 13 29  1  0
 14 30  1  0
 15 31  1  0
 16 32  1  0
 17 33  1  0
M  END
>  <UniqueID>  (92) 
85

>  <SMILES>  (92) 
NCCNc1ccccc1Sc1ccccc1

>  <Energy>  (92) 
27.39386045732994

>  <Genealogy>  (92) 
NCCNc1ccccc1Sc1ccccc1 (3D coordinates assigned)
NCCNc1ccccc1Sc1ccccc1 (optimized conformer: 27.39386045732994 kcal/mol)

>  <smiles>  (92) 
NCCNc1ccccc1Sc1ccccc1

>  <score_type>  (92) 
oracle

>  <origin>  (92) 
adg

>  <m_score__min__energy>  (92) 
-7.6100000000000003

>  <m_primary>  (92) 
energy

$$$$
92:0
     RDKit          3D

 65 69  0  0  0  0  0  0  0  0999 V2000
   57.0350   32.5150   43.8640 H   0  0  0  0  0  0  0  0  0  0  0  0
   57.3870   33.4390   43.9400 O   0  0  0  0  0  0  0  0  0  0  0  0
   57.2090   33.8120   45.2790 C   0  0  0  0  0  0  0  0  0  0  0  0
   56.5541   33.0814   45.7764 H   0  0  0  0  0  0  0  0  0  0  0  0
   56.7508   34.8113   45.3170 H   0  0  0  0  0  0  0  0  0  0  0  0
   58.5570   33.8520   45.9950 C   0  0  0  0  0  0  0  0  0  0  0  0
   58.5164   34.5989   46.8015 H   0  0  0  0  0  0  0  0  0  0  0  0
   59.3379   34.1205   45.2683 H   0  0  0  0  0  0  0  0  0  0  0  0
   58.8730   32.5420   46.5670 N   0  0  0  0  0  0  0  0  0  0  0  0
   59.2540   32.3680   47.8300 N   0  0  0  0  0  0  0  0  0  0  0  0
   59.4980   31.0500   47.9910 C   0  0  0  0  0  0  0  0  0  0  0  0
   59.2760   30.3920   46.8200 C   0  0  0  0  0  0  0  0  0  0  0  0
   59.4520   29.0620   46.6900 N   0  0  0  0  0  0  0  0  0  0  0  0
   59.8640   28.3350   47.7670 C   0  0  0  0  0  0  0  0  0  0  0  0
   60.0058   27.2492   47.6628 H   0  0  0  0  0  0  0  0  0  0  0  0
   60.1160   28.9590   49.0330 C   0  0  0  0  0  0  0  0  0  0  0  0
   60.5710   28.2470   50.1750 C   0  0  0  0  0  0  0  0  0  0  0  0
   60.8310   26.8530   50.1380 C   0  0  0  0  0  0  0  0  0  0  0  0
   60.6381   26.2920   49.2117 H   0  0  0  0  0  0  0  0  0  0  0  0
   61.3260   26.1820   51.2530 C   0  0  0  0  0  0  0  0  0  0  0  0
   61.5118   25.0989   51.2038 H   0  0  0  0  0  0  0  0  0  0  0  0
   61.5850   26.8750   52.4240 C   0  0  0  0  0  0  0  0  0  0  0  0
   61.9943   26.3443   53.2963 H   0  0  0  0  0  0  0  0  0  0  0  0
   61.3290   28.2400   52.5000 C   0  0  0  0  0  0  0  0  0  0  0  0
   61.5499   28.7771   53.4342 H   0  0  0  0  0  0  0  0  0  0  0  0
   60.7890   28.9560   51.3990 C   0  0  0  0  0  0  0  0  0  0  0  0
   60.4970   30.3090   51.4900 N   0  0  0  0  0  0  0  0  0  0  0  0
   60.5850   31.0360   52.7850 C   0  0  0  0  0  0  0  0  0  0  0  0
   61.0883   30.3863   53.5162 H   0  0  0  0  0  0  0  0  0  0  0  0
   61.1451   31.9643   52.5990 H   0  0  0  0  0  0  0  0  0  0  0  0
   59.2000   31.4430   53.3590 C   0  0  0  0  0  0  0  0  0  0  0  0
   58.5855   30.5331   53.4264 H   0  0  0  0  0  0  0  0  0  0  0  0
   59.4144   31.9216   54.3259 H   0  0  0  0  0  0  0  0  0  0  0  0
   58.4320   32.4500   52.5830 N   0  0  0  0  0  0  0  0  0  0  0  0
   58.8900   32.4930   51.6410 H   0  0  0  0  0  0  0  0  0  0  0  0
   57.0320   32.0570   52.3430 C   0  0  0  0  0  0  0  0  0  0  0  0
   56.5211   31.9136   53.3065 H   0  0  0  0  0  0  0  0  0  0  0  0
   56.5223   32.8468   51.7717 H   0  0  0  0  0  0  0  0  0  0  0  0
   57.0077   31.1173   51.7717 H   0  0  0  0  0  0  0  0  0  0  0  0
   58.5180   33.8100   53.1480 C   0  0  0  0  0  0  0  0  0  0  0  0
   58.5143   33.7516   54.2464 H   0  0  0  0  0  0  0  0  0  0  0  0
   59.4483   34.2896   52.8094 H   0  0  0  0  0  0  0  0  0  0  0  0
   57.6556   34.4029   52.8094 H   0  0  0  0  0  0  0  0  0  0  0  0
   60.1320   31.0150   50.3660 C   0  0  0  0  0  0  0  0  0  0  0  0
   59.9640   32.2660   50.4290 O   0  0  0  0  0  0  0  0  0  0  0  0
   59.9220   30.3630   49.1410 C   0  0  0  0  0  0  0  0  0  0  0  0
   58.8820   31.3550   45.9150 C   0  0  0  0  0  0  0  0  0  0  0  0
   58.5640   31.2140   44.6610 N   0  0  0  0  0  0  0  0  0  0  0  0
   57.1670   30.3800   44.0560 S   0  0  0  0  0  0  0  0  0  0  0  0
   55.9490   30.8640   44.7900 O   0  0  0  0  0  0  0  0  0  0  0  0
   57.0000   30.6840   42.5920 O   0  0  0  0  0  0  0  0  0  0  0  0
   57.3450   28.6490   44.3270 C   0  0  0  0  0  0  0  0  0  0  0  0
   56.8890   28.0850   45.5270 C   0  0  0  0  0  0  0  0  0  0  0  0
   56.4051   28.7215   46.2824 H   0  0  0  0  0  0  0  0  0  0  0  0
   57.0470   26.7170   45.7670 C   0  0  0  0  0  0  0  0  0  0  0  0
   56.6786   26.2797   46.7067 H   0  0  0  0  0  0  0  0  0  0  0  0
   57.6730   25.9000   44.8150 C   0  0  0  0  0  0  0  0  0  0  0  0
   57.8270   24.4270   45.0570 C   0  0  0  0  0  0  0  0  0  0  0  0
   57.8472   24.2334   46.1396 H   0  0  0  0  0  0  0  0  0  0  0  0
   56.9800   23.8905   44.6044 H   0  0  0  0  0  0  0  0  0  0  0  0
   58.7666   24.0773   44.6044 H   0  0  0  0  0  0  0  0  0  0  0  0
   58.1110   26.4630   43.6040 C   0  0  0  0  0  0  0  0  0  0  0  0
   58.5817   25.8246   42.8418 H   0  0  0  0  0  0  0  0  0  0  0  0
   57.9510   27.8310   43.3640 C   0  0  0  0  0  0  0  0  0  0  0  0
   58.3017   28.2664   42.4167 H   0  0  0  0  0  0  0  0  0  0  0  0
  1  2  1  0
  2  3  1  0
  3  4  1  0
  3  5  1  0
  3  6  1  0
  6  7  1  0
  6  8  1  0
  6  9  1  0
  9 10  1  0
 10 11  1  0
 11 12  2  0
 12 13  1  0
 13 14  2  0
 14 15  1  0
 14 16  1  0
 16 17  1  0
 17 18  2  0
 18 19  1  0
 18 20  1  0
 20 21  1  0
 20 22  2  0
 22 23  1  0
 22 24  1  0
 24 25  1  0
 24 26  2  0
 26 27  1  0
 27 28  1  0
 28 29  1  0
 28 30  1  0
 28 31  1  0
 31 32  1  0
 31 33  1  0
 31 34  1  0
 34 35  1  0
 34 36  1  0
 36 37  1  0
 36 38  1  0
 36 39  1  0
 34 40  1  0
 40 41  1  0
 40 42  1  0
 40 43  1  0
 27 44  1  0
 44 45  2  0
 44 46  1  0
 12 47  1  0
 47 48  2  0
 48 49  1  0
 49 50  2  0
 49 51  2  0
 49 52  1  0
 52 53  2  0
 53 54  1  0
 53 55  1  0
 55 56  1  0
 55 57  2  0
 57 58  1  0
 58 59  1  0
 58 60  1  0
 58 61  1  0
 57 62  1  0
 62 63  1  0
 62 64  2  0
 64 65  1  0
 47  9  1  0
 64 52  1  0
 46 11  1  0
 46 16  2  0
 26 17  1  0
M  CHG  2  10  -1  34   1
M  END
>  <UniqueID>  (93) 
86

>  <SMILES>  (93) 
Cc1ccc(S(=O)(=O)/N=c2\c3ncc4c5ccccc5n(CC[NH+](C)C)c(=O)c4c3[n-]n2CCO)cc1

>  <Energy>  (93) 
139.77967985450363

>  <Genealogy>  (93) 
Cc1ccc(S(=O)(=O)N=c2c3ncc4c5ccccc5n(CC[NH+](C)C)c(=O)c4c3[n-]n2CCO)cc1 (protonated)
Cc1ccc(S(=O)(=O)/N=c2\c3ncc4c5ccccc5n(CC[NH+](C)C)c(=O)c4c3[n-]n2CCO)cc1 (cis-trans isomerization)
Cc1ccc(S(=O)(=O)/N=c2\c3ncc4c5ccccc5n(CC[NH+](C)C)c(=O)c4c3[n-]n2CCO)cc1 (3D coordinates assigned)
Cc1ccc(S(=O)(=O)/N=c2\c3ncc4c5ccccc5n(CC[NH+](C)C)c(=O)c4c3[n-]n2CCO)cc1 (optimized conformer: 139.77967985450363 kcal/mol)

>  <smiles>  (93) 
Cc1ccc(S(=O)(=O)N=c2c3ncc4c5ccccc5n(CCN(C)C)c(=O)c4c3[nH]n2CCO)cc1

>  <score_type>  (93) 
oracle

>  <origin>  (93) 
adg

>  <m_score__min__energy>  (93) 
-9.7200000000000006

>  <m_primary>  (93) 
energy

$$$$
93:0
     RDKit          3D

 49 51  0  0  0  0  0  0  0  0999 V2000
   56.3170   29.3400   42.4450 C   0  0  0  0  0  0  0  0  0  0  0  0
   56.4030   29.4250   43.9670 C   0  0  0  0  0  0  0  0  0  0  0  0
   56.0360   30.8240   44.4810 C   0  0  0  0  0  0  0  0  0  0  0  0
   57.1580   31.4110   45.2510 N   0  0  0  0  0  0  0  0  0  0  0  0
   58.4660   31.0050   44.6750 C   0  0  0  0  0  0  0  0  0  0  0  0
   59.0990   29.9200   45.5090 C   0  0  0  0  0  0  0  0  0  0  0  0
   59.7870   28.8570   44.8980 C   0  0  0  0  0  0  0  0  0  0  0  0
   60.4190   27.8850   45.6800 C   0  0  0  0  0  0  0  0  0  0  0  0
   60.3620   27.9620   47.0740 C   0  0  0  0  0  0  0  0  0  0  0  0
   59.6650   29.0050   47.6890 C   0  0  0  0  0  0  0  0  0  0  0  0
   59.0290   29.9780   46.9100 C   0  0  0  0  0  0  0  0  0  0  0  0
   57.0200   32.8850   45.3290 C   0  0  0  0  0  0  0  0  0  0  0  0
   58.3230   33.5320   45.6950 C   0  0  0  0  0  0  0  0  0  0  0  0
   58.8990   34.6130   45.0700 C   0  0  0  0  0  0  0  0  0  0  0  0
   60.0500   34.8330   45.6550 O   0  0  0  0  0  0  0  0  0  0  0  0
   60.1850   33.9320   46.6050 C   0  0  0  0  0  0  0  0  0  0  0  0
   61.3810   33.8160   47.4620 C   0  0  0  0  0  0  0  0  0  0  0  0
   61.3130   34.1280   48.8300 C   0  0  0  0  0  0  0  0  0  0  0  0
   62.4400   33.9890   49.6440 C   0  0  0  0  0  0  0  0  0  0  0  0
   63.6570   33.5360   49.1020 C   0  0  0  0  0  0  0  0  0  0  0  0
   64.8150   33.3780   49.8770 O   0  0  0  0  0  0  0  0  0  0  0  0
   65.4490   32.1290   50.1300 C   0  0  0  0  0  0  0  0  0  0  0  0
   63.7220   33.2270   47.7380 C   0  0  0  0  0  0  0  0  0  0  0  0
   62.5950   33.3640   46.9230 C   0  0  0  0  0  0  0  0  0  0  0  0
   59.1250   33.0980   46.6850 N   0  0  0  0  0  0  0  0  0  0  0  0
   55.5611   28.5928   42.1616 H   0  0  0  0  0  0  0  0  0  0  0  0
   56.0326   30.3217   42.0384 H   0  0  0  0  0  0  0  0  0  0  0  0
   57.2954   29.0442   42.0384 H   0  0  0  0  0  0  0  0  0  0  0  0
   55.7096   28.6916   44.4044 H   0  0  0  0  0  0  0  0  0  0  0  0
   57.4409   29.2130   44.2634 H   0  0  0  0  0  0  0  0  0  0  0  0
   55.8068   31.4747   43.6242 H   0  0  0  0  0  0  0  0  0  0  0  0
   55.1604   30.7393   45.1414 H   0  0  0  0  0  0  0  0  0  0  0  0
   58.3102   30.6306   43.6525 H   0  0  0  0  0  0  0  0  0  0  0  0
   59.1346   31.8784   44.6625 H   0  0  0  0  0  0  0  0  0  0  0  0
   59.8283   28.7896   43.8008 H   0  0  0  0  0  0  0  0  0  0  0  0
   60.9616   27.0589   45.1971 H   0  0  0  0  0  0  0  0  0  0  0  0
   60.8662   27.2009   47.6876 H   0  0  0  0  0  0  0  0  0  0  0  0
   59.6161   29.0614   48.7865 H   0  0  0  0  0  0  0  0  0  0  0  0
   58.4719   30.7917   47.3973 H   0  0  0  0  0  0  0  0  0  0  0  0
   56.6916   33.2671   44.3512 H   0  0  0  0  0  0  0  0  0  0  0  0
   56.2804   33.1255   46.1070 H   0  0  0  0  0  0  0  0  0  0  0  0
   58.4723   35.1865   44.2339 H   0  0  0  0  0  0  0  0  0  0  0  0
   60.3665   34.4840   49.2630 H   0  0  0  0  0  0  0  0  0  0  0  0
   62.3756   34.2350   50.7142 H   0  0  0  0  0  0  0  0  0  0  0  0
   65.5289   31.9716   51.2158 H   0  0  0  0  0  0  0  0  0  0  0  0
   64.8532   31.3185   49.6849 H   0  0  0  0  0  0  0  0  0  0  0  0
   66.4549   32.1316   49.6849 H   0  0  0  0  0  0  0  0  0  0  0  0
   64.6688   32.8732   47.3039 H   0  0  0  0  0  0  0  0  0  0  0  0
   62.6601   33.1161   45.8533 H   0  0  0  0  0  0  0  0  0  0  0  0
  1  2  1  0
  2  3  1  0
  3  4  1  0
  4  5  1  0
  5  6  1  0
  6  7  2  0
  7  8  1  0
  8  9  2  0
  9 10  1  0
 10 11  2  0
  4 12  1  0
 12 13  1  0
 13 14  2  0
 14 15  1  0
 15 16  1  0
 16 17  1  0
 17 18  2  0
 18 19  1  0
 19 20  2  0
 20 21  1  0
 21 22  1  0
 20 23  1  0
 23 24  2  0
 16 25  2  0
 11  6  1  0
 25 13  1  0
 24 17  1  0
  1 26  1  0
  1 27  1  0
  1 28  1  0
  2 29  1  0
  2 30  1  0
  3 31  1  0
  3 32  1  0
  5 33  1  0
  5 34  1  0
  7 35  1  0
  8 36  1  0
  9 37  1  0
 10 38  1  0
 11 39  1  0
 12 40  1  0
 12 41  1  0
 14 42  1  0
 18 43  1  0
 19 44  1  0
 22 45  1  0
 22 46  1  0
 22 47  1  0
 23 48  1  0
 24 49  1  0
M  END
>  <UniqueID>  (94) 
87

>  <SMILES>  (94) 
CCCN(Cc1ccccc1)Cc1coc(-c2ccc(OC)cc2)n1

>  <Energy>  (94) 
74.33142291809708

>  <Genealogy>  (94) 
CCCN(Cc1ccccc1)Cc1coc(-c2ccc(OC)cc2)n1 (3D coordinates assigned)
CCCN(Cc1ccccc1)Cc1coc(-c2ccc(OC)cc2)n1 (optimized conformer: 74.33142291809708 kcal/mol)

>  <smiles>  (94) 
CCCN(Cc1ccccc1)Cc1coc(-c2ccc(OC)cc2)n1

>  <score_type>  (94) 
oracle

>  <origin>  (94) 
adg

>  <m_score__min__energy>  (94) 
-7.4400000000000004

>  <m_primary>  (94) 
energy

$$$$
94:0
     RDKit          3D

 41 43  0  0  0  0  0  0  0  0999 V2000
   54.8330   30.4190   44.6490 H   0  0  0  0  0  0  0  0  0  0  0  0
   56.8260   26.2770   46.6140 N   0  0  0  0  0  0  0  0  0  0  0  0
   56.8980   27.5010   46.1780 C   0  0  0  0  0  0  0  0  0  0  0  0
   57.5840   29.5110   45.9910 N   0  0  0  0  0  0  0  0  0  0  0  0
   58.3770   30.6940   46.1540 C   0  0  0  0  0  0  0  0  0  0  0  0
   59.9780   30.5290   46.4870 S   0  0  0  0  0  0  0  0  0  0  0  0
   57.7570   31.9910   46.0670 N   0  0  0  0  0  0  0  0  0  0  0  0
   56.7130   32.0370   46.0380 H   0  0  0  0  0  0  0  0  0  0  0  0
   58.4650   33.2400   46.0380 C   0  0  0  0  0  0  0  0  0  0  0  0
   58.9840   33.7640   47.2300 C   0  0  0  0  0  0  0  0  0  0  0  0
   58.8711   33.2033   48.1696 H   0  0  0  0  0  0  0  0  0  0  0  0
   59.6450   34.9970   47.2300 C   0  0  0  0  0  0  0  0  0  0  0  0
   60.0620   35.3969   48.1660 H   0  0  0  0  0  0  0  0  0  0  0  0
   59.7760   35.7210   46.0420 C   0  0  0  0  0  0  0  0  0  0  0  0
   60.3032   36.6864   46.0413 H   0  0  0  0  0  0  0  0  0  0  0  0
   59.2370   35.2180   44.8550 C   0  0  0  0  0  0  0  0  0  0  0  0
   59.3338   35.7917   43.9215 H   0  0  0  0  0  0  0  0  0  0  0  0
   58.5750   33.9870   44.8520 C   0  0  0  0  0  0  0  0  0  0  0  0
   58.1387   33.6014   43.9188 H   0  0  0  0  0  0  0  0  0  0  0  0
   57.8430   28.3660   46.6020 N   0  0  0  0  0  0  0  0  0  0  0  0
   56.4800   29.3320   45.2340 C   0  0  0  0  0  0  0  0  0  0  0  0
   55.8630   30.2670   44.5810 N   0  0  0  0  0  0  0  0  0  0  0  0
   57.0990   25.0890   45.8570 C   0  0  0  0  0  0  0  0  0  0  0  0
   56.0280   24.3600   45.3260 C   0  0  0  0  0  0  0  0  0  0  0  0
   54.9985   24.7222   45.4638 H   0  0  0  0  0  0  0  0  0  0  0  0
   56.2590   23.1750   44.6220 C   0  0  0  0  0  0  0  0  0  0  0  0
   55.4129   22.6225   44.1875 H   0  0  0  0  0  0  0  0  0  0  0  0
   57.5650   22.6870   44.4670 C   0  0  0  0  0  0  0  0  0  0  0  0
   57.8170   21.4290   43.6800 C   0  0  0  0  0  0  0  0  0  0  0  0
   58.7980   21.5019   43.1876 H   0  0  0  0  0  0  0  0  0  0  0  0
   57.7976   20.5718   44.3691 H   0  0  0  0  0  0  0  0  0  0  0  0
   56.7390   21.2290   42.6200 C   0  0  0  0  0  0  0  0  0  0  0  0
   55.7711   21.0494   43.1107 H   0  0  0  0  0  0  0  0  0  0  0  0
   56.6704   22.1297   41.9923 H   0  0  0  0  0  0  0  0  0  0  0  0
   56.9980   20.3636   41.9923 H   0  0  0  0  0  0  0  0  0  0  0  0
   58.6380   23.4050   45.0180 C   0  0  0  0  0  0  0  0  0  0  0  0
   59.6660   23.0331   44.8958 H   0  0  0  0  0  0  0  0  0  0  0  0
   58.4060   24.5900   45.7210 C   0  0  0  0  0  0  0  0  0  0  0  0
   59.2497   25.1347   46.1699 H   0  0  0  0  0  0  0  0  0  0  0  0
   56.0200   28.0720   45.3220 N   0  0  0  0  0  0  0  0  0  0  0  0
   55.1520   27.6800   44.8950 H   0  0  0  0  0  0  0  0  0  0  0  0
  1  2  1  0
  2  3  2  0
  3  4  1  0
  4  5  1  0
  5  6  2  0
  5  7  1  0
  7  8  1  0
  7  9  1  0
  9 10  2  0
 10 11  1  0
 10 12  1  0
 12 13  1  0
 12 14  2  0
 14 15  1  0
 14 16  1  0
 16 17  1  0
 16 18  2  0
 18 19  1  0
  4 20  1  0
 20 21  1  0
 21 22  2  0
 22 23  1  0
 23 24  2  0
 24 25  1  0
 24 26  1  0
 26 27  1  0
 26 28  2  0
 28 29  1  0
 29 30  1  0
 29 31  1  0
 29 32  1  0
 32 33  1  0
 32 34  1  0
 32 35  1  0
 28 36  1  0
 36 37  1  0
 36 38  2  0
 38 39  1  0
 21 40  1  0
 40 41  1  0
 40  3  1  0
 18  9  1  0
 38 23  1  0
M  CHG  1  20  -1
M  END
>  <UniqueID>  (95) 
88

>  <SMILES>  (95) 
[H]/N=c1/[nH]/c(=N\c2ccc(CC)cc2)[n-]n1C(=S)Nc1ccccc1

>  <Energy>  (95) 
95.11215229582018

>  <Genealogy>  (95) 
CCc1ccc(N=c2[n-]n(C(=S)Nc3ccccc3)c(=N)[nH]2)cc1 (protonated)
[H]/N=c1/[nH]/c(=N\c2ccc(CC)cc2)[n-]n1C(=S)Nc1ccccc1 (cis-trans isomerization)
[H]/N=c1/[nH]/c(=N\c2ccc(CC)cc2)[n-]n1C(=S)Nc1ccccc1 (3D coordinates assigned)
[H]/N=c1/[nH]/c(=N\c2ccc(CC)cc2)[n-]n1C(=S)Nc1ccccc1 (optimized conformer: 95.11215229582018 kcal/mol)

>  <smiles>  (95) 
CCc1ccc(N=c2[nH]c(=N)n(C(=S)Nc3ccccc3)[nH]2)cc1

>  <score_type>  (95) 
oracle

>  <origin>  (95) 
adg

>  <m_score__min__energy>  (95) 
-9.5

>  <m_primary>  (95) 
energy

$$$$
95:0
     RDKit          3D

 24 25  0  0  0  0  0  0  0  0999 V2000
   56.4548   21.1916   42.0568 H   0  0  0  0  0  0  0  0  0  0  0  0
   56.6330   21.7200   43.0050 C   0  0  0  0  0  0  0  0  0  0  0  0
   55.7330   22.5910   43.5350 N   0  0  0  0  0  0  0  0  0  0  0  0
   56.1720   23.1280   44.6920 C   0  0  0  0  0  0  0  0  0  0  0  0
   55.4520   23.9680   45.3740 N   0  0  0  0  0  0  0  0  0  0  0  0
   55.7150   25.3580   45.6210 C   0  0  0  0  0  0  0  0  0  0  0  0
   54.7590   26.0940   45.9810 O   0  0  0  0  0  0  0  0  0  0  0  0
   57.0330   26.0060   45.2930 C   0  0  0  0  0  0  0  0  0  0  0  0
   57.8168   25.2347   45.2670 H   0  0  0  0  0  0  0  0  0  0  0  0
   56.9473   26.5003   44.3141 H   0  0  0  0  0  0  0  0  0  0  0  0
   57.4720   27.2630   46.5450 S   0  0  0  0  0  0  0  0  0  0  0  0
   57.0360   28.6680   45.5170 C   0  0  0  0  0  0  0  0  0  0  0  0
   57.9200   29.6870   45.3600 N   0  0  0  0  0  0  0  0  0  0  0  0
   57.6260   30.7530   44.5710 C   0  0  0  0  0  0  0  0  0  0  0  0
   58.4630   31.6830   44.4340 O   0  0  0  0  0  0  0  0  0  0  0  0
   56.3960   30.8140   43.9160 C   0  0  0  0  0  0  0  0  0  0  0  0
   56.1434   31.6682   43.2706 H   0  0  0  0  0  0  0  0  0  0  0  0
   55.4940   29.7660   44.0990 C   0  0  0  0  0  0  0  0  0  0  0  0
   54.5143   29.7898   43.5994 H   0  0  0  0  0  0  0  0  0  0  0  0
   55.8260   28.7150   44.8950 N   0  0  0  0  0  0  0  0  0  0  0  0
   55.1440   27.9330   45.0210 H   0  0  0  0  0  0  0  0  0  0  0  0
   57.6850   22.5180   45.1160 S   0  0  0  0  0  0  0  0  0  0  0  0
   57.7950   21.5460   43.7490 C   0  0  0  0  0  0  0  0  0  0  0  0
   58.6375   20.8883   43.4888 H   0  0  0  0  0  0  0  0  0  0  0  0
  1  2  1  0
  2  3  1  0
  3  4  1  0
  4  5  2  0
  5  6  1  0
  6  7  2  0
  6  8  1  0
  8  9  1  0
  8 10  1  0
  8 11  1  0
 11 12  1  0
 12 13  2  0
 13 14  1  0
 14 15  2  0
 14 16  1  0
 16 17  1  0
 16 18  2  0
 18 19  1  0
 18 20  1  0
 20 21  1  0
  4 22  1  0
 22 23  1  0
 23 24  1  0
 23  2  2  0
 20 12  1  0
M  CHG  1   3  -1
M  END
>  <UniqueID>  (96) 
89

>  <SMILES>  (96) 
O=C(CSc1nc(=O)cc[nH]1)/N=c1/[n-]ccs1

>  <Energy>  (96) 
56.65518416377606

>  <Genealogy>  (96) 
O=C(CSc1nc(=O)cc[nH]1)N=c1[n-]ccs1 (protonated)
O=C(CSc1nc(=O)cc[nH]1)/N=c1/[n-]ccs1 (cis-trans isomerization)
O=C(CSc1nc(=O)cc[nH]1)/N=c1/[n-]ccs1 (3D coordinates assigned)
O=C(CSc1nc(=O)cc[nH]1)/N=c1/[n-]ccs1 (optimized conformer: 56.65518416377606 kcal/mol)

>  <smiles>  (96) 
O=C(CSc1nc(=O)cc[nH]1)N=c1[nH]ccs1

>  <score_type>  (96) 
oracle

>  <origin>  (96) 
adg

>  <m_score__min__energy>  (96) 
-8.4299999999999997

>  <m_primary>  (96) 
energy

$$$$
96:0
     RDKit          3D

 42 42  0  0  0  0  0  0  0  0999 V2000
   61.8260   33.8360   46.5280 C   0  0  0  0  0  0  0  0  0  0  0  0
   63.3450   33.8800   46.7180 C   0  0  0  0  0  0  0  0  0  0  0  0
   63.8830   32.6180   47.2560 N   0  0  0  0  0  0  0  0  0  0  0  0
   64.1520   32.6970   48.7010 C   0  0  0  0  0  0  0  0  0  0  0  0
   62.8480   32.5870   49.5040 C   0  0  0  0  0  0  0  0  0  0  0  0
   62.1540   31.2440   49.2520 C   0  0  0  0  0  0  0  0  0  0  0  0
   62.0190   31.0040   47.8510 O   0  0  0  0  0  0  0  0  0  0  0  0
   60.8530   30.5570   47.2080 C   0  0  0  0  0  0  0  0  0  0  0  0
   60.9940   29.7170   46.0970 C   0  0  0  0  0  0  0  0  0  0  0  0
   59.8700   29.2400   45.4180 C   0  0  0  0  0  0  0  0  0  0  0  0
   58.5820   29.5980   45.8430 C   0  0  0  0  0  0  0  0  0  0  0  0
   57.3740   29.0950   45.0940 C   0  0  0  0  0  0  0  0  0  0  0  0
   56.5110   30.2230   44.6830 N   0  0  0  0  0  0  0  0  0  0  0  0
   57.3260   31.2760   44.0550 C   0  0  0  0  0  0  0  0  0  0  0  0
   55.4760   29.7730   43.7350 C   0  0  0  0  0  0  0  0  0  0  0  0
   58.4350   30.4460   46.9500 C   0  0  0  0  0  0  0  0  0  0  0  0
   59.5590   30.9230   47.6290 C   0  0  0  0  0  0  0  0  0  0  0  0
   61.3337   33.8217   47.5116 H   0  0  0  0  0  0  0  0  0  0  0  0
   61.5006   34.7251   45.9680 H   0  0  0  0  0  0  0  0  0  0  0  0
   61.5526   32.9296   45.9680 H   0  0  0  0  0  0  0  0  0  0  0  0
   63.8168   34.0779   45.7442 H   0  0  0  0  0  0  0  0  0  0  0  0
   63.5682   34.6752   47.4445 H   0  0  0  0  0  0  0  0  0  0  0  0
   64.7580   32.3560   46.7440 H   0  0  0  0  0  0  0  0  0  0  0  0
   63.1700   31.8690   47.0870 H   0  0  0  0  0  0  0  0  0  0  0  0
   64.8233   31.8744   48.9886 H   0  0  0  0  0  0  0  0  0  0  0  0
   64.6209   33.6676   48.9203 H   0  0  0  0  0  0  0  0  0  0  0  0
   63.0780   32.6765   50.5760 H   0  0  0  0  0  0  0  0  0  0  0  0
   62.1724   33.3939   49.1838 H   0  0  0  0  0  0  0  0  0  0  0  0
   62.7526   30.4377   49.7010 H   0  0  0  0  0  0  0  0  0  0  0  0
   61.1522   31.2715   49.7056 H   0  0  0  0  0  0  0  0  0  0  0  0
   61.9994   29.4298   45.7554 H   0  0  0  0  0  0  0  0  0  0  0  0
   59.9956   28.5809   44.5464 H   0  0  0  0  0  0  0  0  0  0  0  0
   57.7052   28.5481   44.1989 H   0  0  0  0  0  0  0  0  0  0  0  0
   56.7984   28.4297   45.7543 H   0  0  0  0  0  0  0  0  0  0  0  0
   57.7998   31.8881   44.8366 H   0  0  0  0  0  0  0  0  0  0  0  0
   58.1039   30.8136   43.4296 H   0  0  0  0  0  0  0  0  0  0  0  0
   56.6833   31.9131   43.4296 H   0  0  0  0  0  0  0  0  0  0  0  0
   54.6068   29.3951   44.2933 H   0  0  0  0  0  0  0  0  0  0  0  0
   55.1663   30.6177   43.1021 H   0  0  0  0  0  0  0  0  0  0  0  0
   55.8825   28.9704   43.1021 H   0  0  0  0  0  0  0  0  0  0  0  0
   57.4288   30.7374   47.2858 H   0  0  0  0  0  0  0  0  0  0  0  0
   59.4332   31.5875   48.4965 H   0  0  0  0  0  0  0  0  0  0  0  0
  1  2  1  0
  2  3  1  0
  3  4  1  0
  4  5  1  0
  5  6  1  0
  6  7  1  0
  7  8  1  0
  8  9  2  0
  9 10  1  0
 10 11  2  0
 11 12  1  0
 12 13  1  0
 13 14  1  0
 13 15  1  0
 11 16  1  0
 16 17  2  0
 17  8  1  0
  1 18  1  0
  1 19  1  0
  1 20  1  0
  2 21  1  0
  2 22  1  0
  3 23  1  0
  3 24  1  0
  4 25  1  0
  4 26  1  0
  5 27  1  0
  5 28  1  0
  6 29  1  0
  6 30  1  0
  9 31  1  0
 10 32  1  0
 12 33  1  0
 12 34  1  0
 14 35  1  0
 14 36  1  0
 14 37  1  0
 15 38  1  0
 15 39  1  0
 15 40  1  0
 16 41  1  0
 17 42  1  0
M  CHG  1   3   1
M  END
>  <UniqueID>  (97) 
90

>  <SMILES>  (97) 
CC[NH2+]CCCOc1ccc(CN(C)C)cc1

>  <Energy>  (97) 
33.114534491662305

>  <Genealogy>  (97) 
CC[NH2+]CCCOc1ccc(CN(C)C)cc1 (protonated)
CC[NH2+]CCCOc1ccc(CN(C)C)cc1 (3D coordinates assigned)
CC[NH2+]CCCOc1ccc(CN(C)C)cc1 (optimized conformer: 33.114534491662305 kcal/mol)

>  <smiles>  (97) 
CCNCCCOc1ccc(CN(C)C)cc1

>  <score_type>  (97) 
oracle

>  <origin>  (97) 
adg

>  <m_score__min__energy>  (97) 
-4.4299999999999997

>  <m_primary>  (97) 
energy

$$$$
97:0
     RDKit          3D

 41 43  0  0  1  0  0  0  0  0999 V2000
   59.3100   30.4470   47.9800 C   0  0  0  0  0  0  0  0  0  0  0  0
   58.1610   29.9800   47.2980 O   0  0  0  0  0  0  0  0  0  0  0  0
   58.3020   28.8310   46.5270 C   0  0  0  0  0  0  0  0  0  0  0  0
   59.1770   27.8080   46.8680 C   0  0  0  0  0  0  0  0  0  0  0  0
   59.2710   26.6920   46.0610 C   0  0  0  0  0  0  0  0  0  0  0  0
   58.5170   26.5490   44.9070 C   0  0  0  0  0  0  0  0  0  0  0  0
   57.6410   27.5800   44.5710 C   0  0  0  0  0  0  0  0  0  0  0  0
   57.5420   28.6970   45.3740 C   0  0  0  0  0  0  0  0  0  0  0  0
   57.9610   33.9100   45.9470 N   0  0  0  0  0  0  0  0  0  0  0  0
   57.7830   33.0400   45.0140 C   0  0  0  0  0  0  0  0  0  0  0  0
   57.3330   31.0590   43.2040 C   0  0  0  0  0  0  0  0  0  0  0  0
   57.8090   32.2890   42.8340 C   0  0  0  0  0  0  0  0  0  0  0  0
   58.0310   33.2680   43.7280 N   0  0  0  0  0  0  0  0  0  0  0  0
   57.0780   30.8300   44.5340 C   0  0  0  0  0  0  0  0  0  0  0  0
   56.6340   29.7270   44.9960 N   0  0  0  0  0  0  0  0  0  0  0  0
   59.1820   33.8880   46.6750 C   0  0  0  0  0  0  0  0  0  0  0  0
   60.3680   33.8560   45.9920 C   0  0  0  0  0  0  0  0  0  0  0  0
   61.6000   33.8340   46.6360 C   0  0  0  0  0  0  0  0  0  0  0  0
   61.6470   33.8420   48.0020 C   0  0  0  0  0  0  0  0  0  0  0  0
   62.9690   33.8180   48.6890 C   0  0  0  0  0  0  0  0  0  0  0  0
   63.2670   32.5610   49.1730 F   0  0  0  0  0  0  0  0  0  0  0  0
   62.9260   34.7350   49.7220 F   0  0  0  0  0  0  0  0  0  0  0  0
   63.9340   34.1740   47.7880 F   0  0  0  0  0  0  0  0  0  0  0  0
   60.4480   33.8730   48.7010 C   0  0  0  0  0  0  0  0  0  0  0  0
   59.2310   33.8960   48.0520 C   0  0  0  0  0  0  0  0  0  0  0  0
   57.3080   31.8290   45.4220 N   0  0  0  0  0  0  0  0  0  0  0  0
   59.1447   30.3798   49.0654 H   0  0  0  0  0  0  0  0  0  0  0  0
   60.1773   29.8300   47.7023 H   0  0  0  0  0  0  0  0  0  0  0  0
   59.5009   31.4941   47.7023 H   0  0  0  0  0  0  0  0  0  0  0  0
   59.7921   27.8866   47.7766 H   0  0  0  0  0  0  0  0  0  0  0  0
   59.9679   25.8891   46.3434 H   0  0  0  0  0  0  0  0  0  0  0  0
   58.6068   25.6517   44.2771 H   0  0  0  0  0  0  0  0  0  0  0  0
   57.0264   27.5024   43.6620 H   0  0  0  0  0  0  0  0  0  0  0  0
   57.1591   30.2735   42.4539 H   0  0  0  0  0  0  0  0  0  0  0  0
   58.0163   32.4818   41.7710 H   0  0  0  0  0  0  0  0  0  0  0  0
   58.3950   34.2180   43.4630 H   0  0  0  0  0  0  0  0  0  0  0  0
   60.3454   33.8474   44.8923 H   0  0  0  0  0  0  0  0  0  0  0  0
   62.5307   33.8103   46.0501 H   0  0  0  0  0  0  0  0  0  0  0  0
   60.4690   33.8794   49.8008 H   0  0  0  0  0  0  0  0  0  0  0  0
   58.2983   33.9208   48.6346 H   0  0  0  0  0  0  0  0  0  0  0  0
   57.1120   31.6540   46.4530 H   0  0  0  0  0  0  0  0  0  0  0  0
  1  2  1  0
  2  3  1  0
  3  4  2  0
  4  5  1  0
  5  6  2  0
  6  7  1  0
  7  8  2  0
  8  9  1  0
  9 10  2  0
 10 11  1  0
 11 12  2  0
 12 13  1  0
 13 14  1  0
 14 15  2  0
 15 16  1  0
 16 17  2  0
 17 18  1  0
 18 19  2  0
 19 20  1  0
 20 21  1  0
 20 22  1  0
 20 23  1  0
 19 24  1  0
 24 25  2  0
 14 26  1  0
  8  3  1  0
 26 10  1  0
 25 16  1  0
  1 27  1  0
  1 28  1  0
  1 29  1  0
  4 30  1  0
  5 31  1  0
  6 32  1  0
  7 33  1  0
 11 34  1  0
 12 35  1  0
 13 36  1  0
 17 37  1  0
 18 38  1  0
 24 39  1  0
 25 40  1  0
 26 41  1  0
M  END
>  <smiles>  (98) 
COc1ccccc1N=c1cc[nH]c(=Nc2ccc(C(F)(F)F)cc2)[nH]1

>  <score_type>  (98) 
oracle

>  <origin>  (98) 
adg

>  <m_score__min__energy>  (98) 
-8.0199999999999996

>  <m_primary>  (98) 
energy

$$$$
98:0
     RDKit          3D

 39 41  0  0  0  0  0  0  0  0999 V2000
   60.1350   34.0460   49.7560 O   0  0  0  0  0  0  0  0  0  0  0  0
   59.6240   32.8980   49.8590 C   0  0  0  0  0  0  0  0  0  0  0  0
   59.9530   31.8710   48.9090 N   0  0  0  0  0  0  0  0  0  0  0  0
   61.0340   31.9690   47.9660 C   0  0  0  0  0  0  0  0  0  0  0  0
   62.4470   32.6830   48.4000 S   0  0  0  0  0  0  0  0  0  0  0  0
   60.9990   31.2040   46.7500 N   0  0  0  0  0  0  0  0  0  0  0  0
   59.7860   30.8140   46.0850 C   0  0  0  0  0  0  0  0  0  0  0  0
   59.5320   29.4720   45.7510 C   0  0  0  0  0  0  0  0  0  0  0  0
   58.3360   29.1130   45.1240 C   0  0  0  0  0  0  0  0  0  0  0  0
   57.3640   30.0860   44.8290 C   0  0  0  0  0  0  0  0  0  0  0  0
   56.1300   29.7200   44.1830 N   0  0  0  0  0  0  0  0  0  0  0  0
   55.1470   29.3470   44.8550 O   0  0  0  0  0  0  0  0  0  0  0  0
   56.0160   29.7740   42.8130 O   0  0  0  0  0  0  0  0  0  0  0  0
   57.6130   31.4240   45.1830 C   0  0  0  0  0  0  0  0  0  0  0  0
   58.8080   31.7800   45.8120 C   0  0  0  0  0  0  0  0  0  0  0  0
   58.6620   32.6490   50.9460 C   0  0  0  0  0  0  0  0  0  0  0  0
   58.5690   33.3330   52.1460 C   0  0  0  0  0  0  0  0  0  0  0  0
   57.5270   32.7470   52.8330 C   0  0  0  0  0  0  0  0  0  0  0  0
   57.0410   31.7470   52.0070 C   0  0  0  0  0  0  0  0  0  0  0  0
   55.9410   30.8040   52.3020 C   0  0  0  0  0  0  0  0  0  0  0  0
   54.6270   31.1970   51.9880 C   0  0  0  0  0  0  0  0  0  0  0  0
   53.5520   30.3390   52.2280 C   0  0  0  0  0  0  0  0  0  0  0  0
   53.7710   29.0850   52.7970 C   0  0  0  0  0  0  0  0  0  0  0  0
   55.0650   28.6900   53.1390 C   0  0  0  0  0  0  0  0  0  0  0  0
   56.1540   29.5390   52.9020 C   0  0  0  0  0  0  0  0  0  0  0  0
   57.7370   29.0110   53.4640 Cl  0  0  0  0  0  0  0  0  0  0  0  0
   57.7440   31.7120   50.8960 O   0  0  0  0  0  0  0  0  0  0  0  0
   59.3370   31.0310   48.8460 H   0  0  0  0  0  0  0  0  0  0  0  0
   61.9080   30.8970   46.3340 H   0  0  0  0  0  0  0  0  0  0  0  0
   60.2797   28.6998   45.9848 H   0  0  0  0  0  0  0  0  0  0  0  0
   58.1531   28.0612   44.8590 H   0  0  0  0  0  0  0  0  0  0  0  0
   56.8609   32.1960   44.9628 H   0  0  0  0  0  0  0  0  0  0  0  0
   58.9832   32.8282   46.0958 H   0  0  0  0  0  0  0  0  0  0  0  0
   59.1970   34.1712   52.4821 H   0  0  0  0  0  0  0  0  0  0  0  0
   57.1572   33.0183   53.8328 H   0  0  0  0  0  0  0  0  0  0  0  0
   54.4450   32.1892   51.5494 H   0  0  0  0  0  0  0  0  0  0  0  0
   52.5304   30.6529   51.9677 H   0  0  0  0  0  0  0  0  0  0  0  0
   52.9236   28.4069   52.9763 H   0  0  0  0  0  0  0  0  0  0  0  0
   55.2313   27.7044   53.5982 H   0  0  0  0  0  0  0  0  0  0  0  0
  1  2  2  0
  2  3  1  0
  3  4  1  0
  4  5  2  0
  4  6  1  0
  6  7  1  0
  7  8  2  0
  8  9  1  0
  9 10  2  0
 10 11  1  0
 11 12  2  0
 11 13  1  0
 10 14  1  0
 14 15  2  0
  2 16  1  0
 16 17  2  0
 17 18  1  0
 18 19  2  0
 19 20  1  0
 20 21  2  0
 21 22  1  0
 22 23  2  0
 23 24  1  0
 24 25  2  0
 25 26  1  0
 19 27  1  0
 15  7  1  0
 27 16  1  0
 25 20  1  0
  3 28  1  0
  6 29  1  0
  8 30  1  0
  9 31  1  0
 14 32  1  0
 15 33  1  0
 17 34  1  0
 18 35  1  0
 21 36  1  0
 22 37  1  0
 23 38  1  0
 24 39  1  0
M  CHG  2  11   1  13  -1
M  END
>  <UniqueID>  (99) 
91

>  <SMILES>  (99) 
O=C(NC(=S)Nc1ccc([N+](=O)[O-])cc1)c1ccc(-c2ccccc2Cl)o1

>  <Energy>  (99) 
79.95290091115005

>  <Genealogy>  (99) 
O=C(NC(=S)Nc1ccc([N+](=O)[O-])cc1)c1ccc(-c2ccccc2Cl)o1 (3D coordinates assigned)
O=C(NC(=S)Nc1ccc([N+](=O)[O-])cc1)c1ccc(-c2ccccc2Cl)o1 (optimized conformer: 79.95290091115005 kcal/mol)

>  <smiles>  (99) 
O=C(NC(=S)Nc1ccc([N+](=O)[O-])cc1)c1ccc(-c2ccccc2Cl)o1

>  <score_type>  (99) 
oracle

>  <origin>  (99) 
adg

>  <m_score__min__energy>  (99) 
-9.3900000000000006

>  <m_primary>  (99) 
energy

$$$$
