0:0
     RDKit          3D

 40 42  0  0  0  0  0  0  0  0999 V2000
   51.3480   33.2140   52.9000 H   0  0  0  0  0  0  0  0  0  0  0  0
   51.0190   33.1840   51.9440 O   0  0  0  0  0  0  0  0  0  0  0  0
   51.2800   32.0960   51.1160 C   0  0  0  0  0  0  0  0  0  0  0  0
   50.7930   31.9850   49.8700 N   0  0  0  0  0  0  0  0  0  0  0  0
   51.3370   30.8270   49.4380 C   0  0  0  0  0  0  0  0  0  0  0  0
   51.1250   30.3670   48.2860 O   0  0  0  0  0  0  0  0  0  0  0  0
   52.1370   30.2080   50.3320 N   0  0  0  0  0  0  0  0  0  0  0  0
   52.0760   31.0080   51.4110 C   0  0  0  0  0  0  0  0  0  0  0  0
   52.8700   30.7840   52.6280 C   0  0  0  0  0  0  0  0  0  0  0  0
   52.3395   30.8410   53.5899 H   0  0  0  0  0  0  0  0  0  0  0  0
   54.1900   30.5150   52.6700 C   0  0  0  0  0  0  0  0  0  0  0  0
   55.0540   30.8630   51.6490 C   0  0  0  0  0  0  0  0  0  0  0  0
   54.7809   31.3472   50.6998 H   0  0  0  0  0  0  0  0  0  0  0  0
   56.3230   30.4900   52.0420 C   0  0  0  0  0  0  0  0  0  0  0  0
   57.5190   30.6420   51.1830 C   0  0  0  0  0  0  0  0  0  0  0  0
   58.2410   29.6350   50.9460 O   0  0  0  0  0  0  0  0  0  0  0  0
   57.8900   31.9220   50.6620 N   0  0  0  0  0  0  0  0  0  0  0  0
   59.1500   32.1830   49.9760 C   0  0  0  0  0  0  0  0  0  0  0  0
   59.3881   33.2544   50.0495 H   0  0  0  0  0  0  0  0  0  0  0  0
   59.9449   31.5872   50.4484 H   0  0  0  0  0  0  0  0  0  0  0  0
   59.0440   31.7950   48.5210 C   0  0  0  0  0  0  0  0  0  0  0  0
   58.9040   30.4410   48.1730 C   0  0  0  0  0  0  0  0  0  0  0  0
   58.8562   29.6760   48.9619 H   0  0  0  0  0  0  0  0  0  0  0  0
   58.8250   30.0600   46.8300 C   0  0  0  0  0  0  0  0  0  0  0  0
   58.7129   28.9979   46.5666 H   0  0  0  0  0  0  0  0  0  0  0  0
   58.8880   31.0240   45.8230 C   0  0  0  0  0  0  0  0  0  0  0  0
   58.8236   30.7222   44.7672 H   0  0  0  0  0  0  0  0  0  0  0  0
   59.0330   32.3730   46.1570 C   0  0  0  0  0  0  0  0  0  0  0  0
   59.0846   33.1308   45.3613 H   0  0  0  0  0  0  0  0  0  0  0  0
   59.1130   32.7660   47.4990 C   0  0  0  0  0  0  0  0  0  0  0  0
   59.3050   34.4790   47.8600 Cl  0  0  0  0  0  0  0  0  0  0  0  0
   56.2840   29.9290   53.2780 N   0  0  0  0  0  0  0  0  0  0  0  0
   57.4350   29.4300   54.0420 C   0  0  0  0  0  0  0  0  0  0  0  0
   57.2274   29.5200   55.1185 H   0  0  0  0  0  0  0  0  0  0  0  0
   57.6125   28.3741   53.7898 H   0  0  0  0  0  0  0  0  0  0  0  0
   58.3270   30.0222   53.7898 H   0  0  0  0  0  0  0  0  0  0  0  0
   54.9740   29.8820   53.6480 C   0  0  0  0  0  0  0  0  0  0  0  0
   54.5280   29.2020   54.7180 C   0  0  0  0  0  0  0  0  0  0  0  0
   55.2441   28.7473   55.4183 H   0  0  0  0  0  0  0  0  0  0  0  0
   53.4469   29.1002   54.8935 H   0  0  0  0  0  0  0  0  0  0  0  0
  1  2  1  0
  2  3  1  0
  3  4  1  0
  4  5  1  0
  5  6  2  0
  5  7  1  0
  7  8  1  0
  8  9  1  0
  9 10  1  0
  9 11  2  0
 11 12  1  0
 12 13  1  0
 12 14  2  0
 14 15  1  0
 15 16  2  0
 15 17  1  0
 17 18  1  0
 18 19  1  0
 18 20  1  0
 18 21  1  0
 21 22  2  0
 22 23  1  0
 22 24  1  0
 24 25  1  0
 24 26  2  0
 26 27  1  0
 26 28  1  0
 28 29  1  0
 28 30  2  0
 30 31  1  0
 14 32  1  0
 32 33  1  0
 33 34  1  0
 33 35  1  0
 33 36  1  0
 32 37  1  0
 37 38  2  0
 38 39  1  0
 38 40  1  0
  8  3  2  0
 37 11  1  0
 30 21  1  0
M  CHG  3   4  -1   7  -1  17  -1
M  END
>  <UniqueID>  (1) 
1

>  <SMILES>  (1) 
C=c1/c(=C\c2[n-]c(=O)[n-]c2O)cc(C(=O)[N-]Cc2ccccc2Cl)n1C

>  <Energy>  (1) 
113.40607128907897

>  <Genealogy>  (1) 
C=c1c(=Cc2[n-]c(=O)[n-]c2O)cc(C(=O)[N-]Cc2ccccc2Cl)n1C (protonated)
C=c1/c(=C\c2[n-]c(=O)[n-]c2O)cc(C(=O)[N-]Cc2ccccc2Cl)n1C (cis-trans isomerization)
C=c1/c(=C\c2[n-]c(=O)[n-]c2O)cc(C(=O)[N-]Cc2ccccc2Cl)n1C (3D coordinates assigned)
C=c1/c(=C\c2[n-]c(=O)[n-]c2O)cc(C(=O)[N-]Cc2ccccc2Cl)n1C (optimized conformer: 113.40607128907897 kcal/mol)

>  <smiles>  (1) 
C=c1c(=Cc2[nH]c(=O)[nH]c2O)cc(C(=O)NCc2ccccc2Cl)n1C

>  <score_type>  (1) 
oracle

>  <origin>  (1) 
adg

>  <m_score__min__energy>  (1) 
-14.24

>  <m_primary>  (1) 
energy

$$$$
1:0
     RDKit          3D

 60 62  0  0  0  0  0  0  0  0999 V2000
   62.1360   33.2710   46.9490 C   0  0  0  0  0  0  0  0  0  0  0  0
   62.3760   33.0200   48.4540 C   0  0  0  0  0  0  0  0  0  0  0  0
   62.5670   34.3760   49.1770 C   0  0  0  0  0  0  0  0  0  0  0  0
   63.7040   32.2330   48.5990 C   0  0  0  0  0  0  0  0  0  0  0  0
   61.1600   32.2710   49.0420 C   0  0  0  0  0  0  0  0  0  0  0  0
   60.3550   32.9060   50.0080 C   0  0  0  0  0  0  0  0  0  0  0  0
   59.2370   32.2720   50.5690 C   0  0  0  0  0  0  0  0  0  0  0  0
   58.4380   32.9780   51.6030 C   0  0  0  0  0  0  0  0  0  0  0  0
   57.0520   32.6740   51.7970 N   0  0  0  0  0  0  0  0  0  0  0  0
   58.9760   33.8680   52.3200 O   0  0  0  0  0  0  0  0  0  0  0  0
   58.8810   30.9830   50.1300 C   0  0  0  0  0  0  0  0  0  0  0  0
   57.7690   30.3550   50.6890 O   0  0  0  0  0  0  0  0  0  0  0  0
   59.6480   30.3290   49.1380 C   0  0  0  0  0  0  0  0  0  0  0  0
   59.2880   28.9750   48.6260 C   0  0  0  0  0  0  0  0  0  0  0  0
   59.8210   27.9510   49.1330 O   0  0  0  0  0  0  0  0  0  0  0  0
   58.2990   28.8190   47.6010 N   0  0  0  0  0  0  0  0  0  0  0  0
   58.2260   27.7550   46.6420 C   0  0  0  0  0  0  0  0  0  0  0  0
   58.9510   26.5630   46.8120 C   0  0  0  0  0  0  0  0  0  0  0  0
   58.9120   25.5670   45.8320 C   0  0  0  0  0  0  0  0  0  0  0  0
   58.1640   25.7560   44.6680 C   0  0  0  0  0  0  0  0  0  0  0  0
   57.4600   26.9450   44.4780 C   0  0  0  0  0  0  0  0  0  0  0  0
   57.4900   27.9480   45.4580 C   0  0  0  0  0  0  0  0  0  0  0  0
   56.7450   29.1960   45.2320 C   0  0  0  0  0  0  0  0  0  0  0  0
   55.5150   29.1440   44.9520 O   0  0  0  0  0  0  0  0  0  0  0  0
   57.3920   30.4680   45.3130 N   0  0  0  0  0  0  0  0  0  0  0  0
   58.4410   30.8980   44.3940 C   0  0  0  0  0  0  0  0  0  0  0  0
   58.1560   32.3150   43.8870 C   0  0  0  0  0  0  0  0  0  0  0  0
   57.3780   33.1630   44.9060 C   0  0  0  0  0  0  0  0  0  0  0  0
   58.2850   33.9230   45.7650 N   0  0  0  0  0  0  0  0  0  0  0  0
   58.3230   33.9210   47.1070 C   0  0  0  0  0  0  0  0  0  0  0  0
   59.2820   34.8270   47.5040 C   0  0  0  0  0  0  0  0  0  0  0  0
   59.8410   35.4020   46.4170 N   0  0  0  0  0  0  0  0  0  0  0  0
   59.2060   34.8260   45.3720 C   0  0  0  0  0  0  0  0  0  0  0  0
   60.7760   30.9820   48.6090 C   0  0  0  0  0  0  0  0  0  0  0  0
   61.3807   34.0610   46.8249 H   0  0  0  0  0  0  0  0  0  0  0  0
   63.0774   33.5861   46.4751 H   0  0  0  0  0  0  0  0  0  0  0  0
   61.7791   32.3447   46.4751 H   0  0  0  0  0  0  0  0  0  0  0  0
   62.5447   34.2176   50.2653 H   0  0  0  0  0  0  0  0  0  0  0  0
   63.5354   34.8115   48.8896 H   0  0  0  0  0  0  0  0  0  0  0  0
   61.7566   35.0621   48.8896 H   0  0  0  0  0  0  0  0  0  0  0  0
   63.9346   32.0963   49.6658 H   0  0  0  0  0  0  0  0  0  0  0  0
   63.6019   31.2495   48.1170 H   0  0  0  0  0  0  0  0  0  0  0  0
   64.5177   32.7948   48.1170 H   0  0  0  0  0  0  0  0  0  0  0  0
   60.6101   33.9262   50.3308 H   0  0  0  0  0  0  0  0  0  0  0  0
   56.5300   32.0590   51.1310 H   0  0  0  0  0  0  0  0  0  0  0  0
   56.5170   33.1320   52.5700 H   0  0  0  0  0  0  0  0  0  0  0  0
   59.5522   26.4131   47.7209 H   0  0  0  0  0  0  0  0  0  0  0  0
   59.4721   24.6316   45.9781 H   0  0  0  0  0  0  0  0  0  0  0  0
   58.1300   24.9677   43.9015 H   0  0  0  0  0  0  0  0  0  0  0  0
   56.8792   27.0966   43.5563 H   0  0  0  0  0  0  0  0  0  0  0  0
   59.4085   30.8876   44.9173 H   0  0  0  0  0  0  0  0  0  0  0  0
   58.4691   30.2101   43.5361 H   0  0  0  0  0  0  0  0  0  0  0  0
   59.1139   32.8119   43.6736 H   0  0  0  0  0  0  0  0  0  0  0  0
   57.5342   32.2265   42.9839 H   0  0  0  0  0  0  0  0  0  0  0  0
   56.7249   33.8637   44.3652 H   0  0  0  0  0  0  0  0  0  0  0  0
   56.7835   32.4877   45.5389 H   0  0  0  0  0  0  0  0  0  0  0  0
   57.6992   33.3053   47.7716 H   0  0  0  0  0  0  0  0  0  0  0  0
   59.5514   35.0484   48.5473 H   0  0  0  0  0  0  0  0  0  0  0  0
   59.4168   35.0668   44.3196 H   0  0  0  0  0  0  0  0  0  0  0  0
   61.3751   30.4757   47.8378 H   0  0  0  0  0  0  0  0  0  0  0  0
  1  2  1  0
  2  3  1  0
  2  4  1  0
  2  5  1  0
  5  6  2  0
  6  7  1  0
  7  8  1  0
  8  9  1  0
  8 10  2  0
  7 11  2  0
 11 12  1  0
 11 13  1  0
 13 14  1  0
 14 15  2  0
 14 16  1  0
 16 17  1  0
 17 18  2  0
 18 19  1  0
 19 20  2  0
 20 21  1  0
 21 22  2  0
 22 23  1  0
 23 24  2  0
 23 25  1  0
 25 26  1  0
 26 27  1  0
 27 28  1  0
 28 29  1  0
 29 30  1  0
 30 31  2  0
 31 32  1  0
 32 33  2  0
 13 34  2  0
 34  5  1  0
 22 17  1  0
 33 29  1  0
  1 35  1  0
  1 36  1  0
  1 37  1  0
  3 38  1  0
  3 39  1  0
  3 40  1  0
  4 41  1  0
  4 42  1  0
  4 43  1  0
  6 44  1  0
  9 45  1  0
  9 46  1  0
 18 47  1  0
 19 48  1  0
 20 49  1  0
 21 50  1  0
 26 51  1  0
 26 52  1  0
 27 53  1  0
 27 54  1  0
 28 55  1  0
 28 56  1  0
 30 57  1  0
 31 58  1  0
 33 59  1  0
 34 60  1  0
M  CHG  3  12  -1  16  -1  25  -1
M  END
>  <UniqueID>  (2) 
2

>  <SMILES>  (2) 
CC(C)(C)c1cc(C(N)=O)c([O-])c(C(=O)[N-]c2ccccc2C(=O)[N-]CCCn2ccnc2)c1

>  <Energy>  (2) 
102.06621352380185

>  <Genealogy>  (2) 
CC(C)(C)c1cc(C(N)=O)c([O-])c(C(=O)[N-]c2ccccc2C(=O)[N-]CCCn2ccnc2)c1 (protonated)
CC(C)(C)c1cc(C(N)=O)c([O-])c(C(=O)[N-]c2ccccc2C(=O)[N-]CCCn2ccnc2)c1 (3D coordinates assigned)
CC(C)(C)c1cc(C(N)=O)c([O-])c(C(=O)[N-]c2ccccc2C(=O)[N-]CCCn2ccnc2)c1 (optimized conformer: 102.06621352380185 kcal/mol)

>  <smiles>  (2) 
CC(C)(C)c1cc(C(N)=O)c(O)c(C(=O)Nc2ccccc2C(=O)NCCCn2ccnc2)c1

>  <score_type>  (2) 
oracle

>  <origin>  (2) 
adg

>  <m_score__min__energy>  (2) 
-15.470000000000001

>  <m_primary>  (2) 
energy

$$$$
2:0
     RDKit          3D

 42 43  0  0  0  0  0  0  0  0999 V2000
   63.8160   33.0240   48.0990 C   0  0  0  0  0  0  0  0  0  0  0  0
   62.9610   33.8300   46.7100 S   0  0  0  0  0  0  0  0  0  0  0  0
   61.4950   32.8150   46.8820 C   0  0  0  0  0  0  0  0  0  0  0  0
   60.2440   33.3160   46.5190 C   0  0  0  0  0  0  0  0  0  0  0  0
   59.1240   32.4850   46.6540 C   0  0  0  0  0  0  0  0  0  0  0  0
   57.7470   32.9880   46.3210 C   0  0  0  0  0  0  0  0  0  0  0  0
   57.3610   32.6570   44.8740 C   0  0  0  0  0  0  0  0  0  0  0  0
   57.0630   31.1950   44.7090 C   0  0  0  0  0  0  0  0  0  0  0  0
   55.9020   30.8370   44.3740 O   0  0  0  0  0  0  0  0  0  0  0  0
   58.0850   30.2200   44.9710 N   0  0  0  0  0  0  0  0  0  0  0  0
   57.8160   28.8230   45.1670 C   0  0  0  0  0  0  0  0  0  0  0  0
   56.6310   28.4030   45.2550 O   0  0  0  0  0  0  0  0  0  0  0  0
   58.9490   27.8500   45.2800 C   0  0  0  0  0  0  0  0  0  0  0  0
   58.4510   26.4380   45.2120 C   0  0  0  0  0  0  0  0  0  0  0  0
   59.0240   25.3950   45.9380 C   0  0  0  0  0  0  0  0  0  0  0  0
   58.1620   23.9890   45.5940 S   0  0  0  0  0  0  0  0  0  0  0  0
   57.1030   24.7590   44.5420 C   0  0  0  0  0  0  0  0  0  0  0  0
   55.9930   24.0840   43.8060 C   0  0  0  0  0  0  0  0  0  0  0  0
   57.3940   26.0740   44.4350 N   0  0  0  0  0  0  0  0  0  0  0  0
   59.2810   31.2270   47.1440 N   0  0  0  0  0  0  0  0  0  0  0  0
   60.5080   30.7570   47.4960 C   0  0  0  0  0  0  0  0  0  0  0  0
   60.6450   29.3700   48.0260 C   0  0  0  0  0  0  0  0  0  0  0  0
   61.6030   31.5500   47.3610 N   0  0  0  0  0  0  0  0  0  0  0  0
   63.4122   33.4047   49.0487 H   0  0  0  0  0  0  0  0  0  0  0  0
   63.6603   31.9365   48.0440 H   0  0  0  0  0  0  0  0  0  0  0  0
   64.8925   33.2435   48.0440 H   0  0  0  0  0  0  0  0  0  0  0  0
   60.1395   34.3415   46.1351 H   0  0  0  0  0  0  0  0  0  0  0  0
   57.0210   32.5181   47.0008 H   0  0  0  0  0  0  0  0  0  0  0  0
   57.7422   34.0818   46.4373 H   0  0  0  0  0  0  0  0  0  0  0  0
   56.4680   33.2378   44.5997 H   0  0  0  0  0  0  0  0  0  0  0  0
   58.2084   32.9141   44.2215 H   0  0  0  0  0  0  0  0  0  0  0  0
   59.0710   30.5500   45.0740 H   0  0  0  0  0  0  0  0  0  0  0  0
   59.6555   28.0227   44.4548 H   0  0  0  0  0  0  0  0  0  0  0  0
   59.4460   28.0008   46.2497 H   0  0  0  0  0  0  0  0  0  0  0  0
   59.8866   25.4757   46.6158 H   0  0  0  0  0  0  0  0  0  0  0  0
   55.2836   23.6526   44.5276 H   0  0  0  0  0  0  0  0  0  0  0  0
   55.4722   24.8184   43.1741 H   0  0  0  0  0  0  0  0  0  0  0  0
   56.4055   23.2837   43.1741 H   0  0  0  0  0  0  0  0  0  0  0  0
   56.8600   26.7410   43.8310 H   0  0  0  0  0  0  0  0  0  0  0  0
   60.6425   29.3958   49.1257 H   0  0  0  0  0  0  0  0  0  0  0  0
   59.8030   28.7572   47.6716 H   0  0  0  0  0  0  0  0  0  0  0  0
   61.5906   28.9338   47.6716 H   0  0  0  0  0  0  0  0  0  0  0  0
  1  2  1  0
  2  3  1  0
  3  4  2  0
  4  5  1  0
  5  6  1  0
  6  7  1  0
  7  8  1  0
  8  9  2  0
  8 10  1  0
 10 11  1  0
 11 12  2  0
 11 13  1  0
 13 14  1  0
 14 15  2  0
 15 16  1  0
 16 17  1  0
 17 18  1  0
 17 19  2  0
  5 20  2  0
 20 21  1  0
 21 22  1  0
 21 23  2  0
 23  3  1  0
 19 14  1  0
  1 24  1  0
  1 25  1  0
  1 26  1  0
  4 27  1  0
  6 28  1  0
  6 29  1  0
  7 30  1  0
  7 31  1  0
 10 32  1  0
 13 33  1  0
 13 34  1  0
 15 35  1  0
 18 36  1  0
 18 37  1  0
 18 38  1  0
 19 39  1  0
 22 40  1  0
 22 41  1  0
 22 42  1  0
M  CHG  1  19   1
M  END
>  <UniqueID>  (3) 
3

>  <SMILES>  (3) 
CSc1cc(CCC(=O)NC(=O)Cc2csc(C)[nH+]2)nc(C)n1

>  <Energy>  (3) 
53.03275980900035

>  <Genealogy>  (3) 
CSc1cc(CCC(=O)NC(=O)Cc2csc(C)[nH+]2)nc(C)n1 (protonated)
CSc1cc(CCC(=O)NC(=O)Cc2csc(C)[nH+]2)nc(C)n1 (3D coordinates assigned)
CSc1cc(CCC(=O)NC(=O)Cc2csc(C)[nH+]2)nc(C)n1 (optimized conformer: 53.03275980900035 kcal/mol)

>  <smiles>  (3) 
CSc1cc(CCC(=O)NC(=O)Cc2csc(C)n2)nc(C)n1

>  <score_type>  (3) 
oracle

>  <origin>  (3) 
adg

>  <m_score__min__energy>  (3) 
-6.54

>  <m_primary>  (3) 
energy

$$$$
3:0
     RDKit          3D

 45 47  0  0  0  0  0  0  0  0999 V2000
   58.4650   34.2770   45.0100 C   0  0  0  0  0  0  0  0  0  0  0  0
   58.1190   32.8320   44.8020 C   0  0  0  0  0  0  0  0  0  0  0  0
   58.0970   31.9470   45.8910 C   0  0  0  0  0  0  0  0  0  0  0  0
   57.7400   30.6090   45.7030 C   0  0  0  0  0  0  0  0  0  0  0  0
   57.3750   30.1440   44.4300 C   0  0  0  0  0  0  0  0  0  0  0  0
   57.0150   28.7010   44.2310 C   0  0  0  0  0  0  0  0  0  0  0  0
   56.0640   28.2940   45.2580 N   0  0  0  0  0  0  0  0  0  0  0  0
   56.1210   27.0500   45.9660 C   0  0  0  0  0  0  0  0  0  0  0  0
   55.1050   26.3060   45.9660 O   0  0  0  0  0  0  0  0  0  0  0  0
   57.3350   26.6540   46.7630 C   0  0  0  0  0  0  0  0  0  0  0  0
   58.5290   26.5850   45.9240 N   0  0  0  0  0  0  0  0  0  0  0  0
   59.6630   27.4620   46.0000 C   0  0  0  0  0  0  0  0  0  0  0  0
   60.0340   28.0610   44.9570 O   0  0  0  0  0  0  0  0  0  0  0  0
   60.4190   27.6940   47.2840 C   0  0  0  0  0  0  0  0  0  0  0  0
   60.0930   28.9980   47.8830 N   0  0  0  0  0  0  0  0  0  0  0  0
   59.2620   29.0300   48.9300 N   0  0  0  0  0  0  0  0  0  0  0  0
   58.9140   30.1820   49.5540 C   0  0  0  0  0  0  0  0  0  0  0  0
   58.1150   30.1400   50.5280 O   0  0  0  0  0  0  0  0  0  0  0  0
   59.4460   31.3980   49.1070 C   0  0  0  0  0  0  0  0  0  0  0  0
   59.1040   32.6230   49.7110 C   0  0  0  0  0  0  0  0  0  0  0  0
   59.6590   33.8160   49.2440 C   0  0  0  0  0  0  0  0  0  0  0  0
   60.5600   33.8020   48.1790 C   0  0  0  0  0  0  0  0  0  0  0  0
   60.9120   32.5940   47.5720 C   0  0  0  0  0  0  0  0  0  0  0  0
   60.3540   31.3820   48.0250 C   0  0  0  0  0  0  0  0  0  0  0  0
   60.6790   30.1510   47.4270 C   0  0  0  0  0  0  0  0  0  0  0  0
   61.5040   30.1130   46.4710 O   0  0  0  0  0  0  0  0  0  0  0  0
   57.3960   31.0300   43.3420 C   0  0  0  0  0  0  0  0  0  0  0  0
   57.7550   32.3690   43.5290 C   0  0  0  0  0  0  0  0  0  0  0  0
   58.5161   34.4903   46.0879 H   0  0  0  0  0  0  0  0  0  0  0  0
   59.4398   34.4909   44.5473 H   0  0  0  0  0  0  0  0  0  0  0  0
   57.6928   34.9092   44.5473 H   0  0  0  0  0  0  0  0  0  0  0  0
   58.3616   32.3077   46.8959 H   0  0  0  0  0  0  0  0  0  0  0  0
   57.7451   29.9164   46.5575 H   0  0  0  0  0  0  0  0  0  0  0  0
   56.5613   28.5694   43.2376 H   0  0  0  0  0  0  0  0  0  0  0  0
   57.9217   28.0824   44.3034 H   0  0  0  0  0  0  0  0  0  0  0  0
   57.4990   27.3973   47.5571 H   0  0  0  0  0  0  0  0  0  0  0  0
   57.1561   25.6563   47.1903 H   0  0  0  0  0  0  0  0  0  0  0  0
   60.1592   26.8991   47.9986 H   0  0  0  0  0  0  0  0  0  0  0  0
   61.4946   27.6831   47.0538 H   0  0  0  0  0  0  0  0  0  0  0  0
   58.3972   32.6402   50.5537 H   0  0  0  0  0  0  0  0  0  0  0  0
   59.3849   34.7703   49.7175 H   0  0  0  0  0  0  0  0  0  0  0  0
   60.9946   34.7451   47.8161 H   0  0  0  0  0  0  0  0  0  0  0  0
   61.6278   32.5889   46.7368 H   0  0  0  0  0  0  0  0  0  0  0  0
   57.1289   30.6699   42.3375 H   0  0  0  0  0  0  0  0  0  0  0  0
   57.7518   33.0615   42.6744 H   0  0  0  0  0  0  0  0  0  0  0  0
  1  2  1  0
  2  3  2  0
  3  4  1  0
  4  5  2  0
  5  6  1  0
  6  7  1  0
  7  8  1  0
  8  9  2  0
  8 10  1  0
 10 11  1  0
 11 12  1  0
 12 13  2  0
 12 14  1  0
 14 15  1  0
 15 16  1  0
 16 17  1  0
 17 18  2  0
 17 19  1  0
 19 20  2  0
 20 21  1  0
 21 22  2  0
 22 23  1  0
 23 24  2  0
 24 25  1  0
 25 26  2  0
  5 27  1  0
 27 28  2  0
 28  2  1  0
 25 15  1  0
 24 19  1  0
  1 29  1  0
  1 30  1  0
  1 31  1  0
  3 32  1  0
  4 33  1  0
  6 34  1  0
  6 35  1  0
 10 36  1  0
 10 37  1  0
 14 38  1  0
 14 39  1  0
 20 40  1  0
 21 41  1  0
 22 42  1  0
 23 43  1  0
 27 44  1  0
 28 45  1  0
M  CHG  3   7  -1  11  -1  16  -1
M  END
>  <UniqueID>  (4) 
4

>  <SMILES>  (4) 
Cc1ccc(C[N-]C(=O)C[N-]C(=O)Cn2[n-]c(=O)c3ccccc3c2=O)cc1

>  <Energy>  (4) 
47.24341364976087

>  <Genealogy>  (4) 
Cc1ccc(C[N-]C(=O)C[N-]C(=O)Cn2[n-]c(=O)c3ccccc3c2=O)cc1 (protonated)
Cc1ccc(C[N-]C(=O)C[N-]C(=O)Cn2[n-]c(=O)c3ccccc3c2=O)cc1 (3D coordinates assigned)
Cc1ccc(C[N-]C(=O)C[N-]C(=O)Cn2[n-]c(=O)c3ccccc3c2=O)cc1 (optimized conformer: 47.24341364976087 kcal/mol)

>  <smiles>  (4) 
Cc1ccc(CNC(=O)CNC(=O)Cn2[nH]c(=O)c3ccccc3c2=O)cc1

>  <score_type>  (4) 
oracle

>  <origin>  (4) 
adg

>  <m_score__min__energy>  (4) 
-14.34

>  <m_primary>  (4) 
energy

$$$$
4:0
     RDKit          3D

 56 59  0  0  0  0  0  0  0  0999 V2000
   54.0530   26.3280   45.9600 H   0  0  0  0  0  0  0  0  0  0  0  0
   55.0630   26.0590   45.9450 N   0  0  0  0  0  0  0  0  0  0  0  0
   56.0000   26.9490   45.9050 C   0  0  0  0  0  0  0  0  0  0  0  0
   57.1880   26.7040   46.5140 N   0  0  0  0  0  0  0  0  0  0  0  0
   58.1860   27.6260   46.4910 C   0  0  0  0  0  0  0  0  0  0  0  0
   58.0000   28.8490   45.8390 C   0  0  0  0  0  0  0  0  0  0  0  0
   56.7720   29.0740   45.1980 C   0  0  0  0  0  0  0  0  0  0  0  0
   56.5580   30.1420   44.5660 O   0  0  0  0  0  0  0  0  0  0  0  0
   55.7990   28.1260   45.2530 N   0  0  0  0  0  0  0  0  0  0  0  0
   59.1650   29.8070   45.7350 C   0  0  0  0  0  0  0  0  0  0  0  0
   59.8106   29.4814   44.9060 H   0  0  0  0  0  0  0  0  0  0  0  0
   58.7452   30.8099   45.5678 H   0  0  0  0  0  0  0  0  0  0  0  0
   60.0270   29.8810   47.0320 C   0  0  2  0  0  0  0  0  0  0  0  0
   59.5931   30.7123   47.6071 H   0  0  0  0  0  0  0  0  0  0  0  0
   61.5220   30.2050   46.7270 C   0  0  0  0  0  0  0  0  0  0  0  0
   62.1028   29.2832   46.8786 H   0  0  0  0  0  0  0  0  0  0  0  0
   61.5360   30.5848   45.6947 H   0  0  0  0  0  0  0  0  0  0  0  0
   62.1430   31.2720   47.5510 N   0  0  0  0  0  0  0  0  0  0  0  0
   63.5040   31.6410   47.1280 C   0  0  0  0  0  0  0  0  0  0  0  0
   64.1306   31.8109   48.0160 H   0  0  0  0  0  0  0  0  0  0  0  0
   63.9342   30.8271   46.5260 H   0  0  0  0  0  0  0  0  0  0  0  0
   63.4641   32.5608   46.5260 H   0  0  0  0  0  0  0  0  0  0  0  0
   62.0320   31.0730   49.0090 C   0  0  0  0  0  0  0  0  0  0  0  0
   61.6192   30.0735   49.2108 H   0  0  0  0  0  0  0  0  0  0  0  0
   63.0294   31.1610   49.4646 H   0  0  0  0  0  0  0  0  0  0  0  0
   61.1230   32.1170   49.5980 C   0  0  0  0  0  0  0  0  0  0  0  0
   60.8600   32.1430   50.9760 C   0  0  0  0  0  0  0  0  0  0  0  0
   61.3067   31.3822   51.6331 H   0  0  0  0  0  0  0  0  0  0  0  0
   60.0340   33.1300   51.5170 C   0  0  0  0  0  0  0  0  0  0  0  0
   59.8289   33.1420   52.5976 H   0  0  0  0  0  0  0  0  0  0  0  0
   59.4670   34.1030   50.6890 C   0  0  0  0  0  0  0  0  0  0  0  0
   58.8132   34.8759   51.1194 H   0  0  0  0  0  0  0  0  0  0  0  0
   59.7300   34.0970   49.3060 C   0  0  0  0  0  0  0  0  0  0  0  0
   59.1920   35.0540   48.4330 O   0  0  0  0  0  0  0  0  0  0  0  0
   59.6400   35.2670   47.0980 C   0  0  0  0  0  0  0  0  0  0  0  0
   59.4646   36.3150   46.8136 H   0  0  0  0  0  0  0  0  0  0  0  0
   60.7157   35.0477   47.0290 H   0  0  0  0  0  0  0  0  0  0  0  0
   58.8800   34.3620   46.1740 C   0  0  0  0  0  0  0  0  0  0  0  0
   59.2830   34.2180   44.8350 C   0  0  0  0  0  0  0  0  0  0  0  0
   60.1744   34.7495   44.4704 H   0  0  0  0  0  0  0  0  0  0  0  0
   58.5540   33.4010   43.9650 C   0  0  0  0  0  0  0  0  0  0  0  0
   58.8789   33.2824   42.9208 H   0  0  0  0  0  0  0  0  0  0  0  0
   57.4130   32.7350   44.4210 C   0  0  0  0  0  0  0  0  0  0  0  0
   56.8420   32.0909   43.7362 H   0  0  0  0  0  0  0  0  0  0  0  0
   56.9970   32.8870   45.7470 C   0  0  0  0  0  0  0  0  0  0  0  0
   56.0979   32.3636   46.1042 H   0  0  0  0  0  0  0  0  0  0  0  0
   57.7230   33.7040   46.6200 C   0  0  0  0  0  0  0  0  0  0  0  0
   57.3862   33.8313   47.6594 H   0  0  0  0  0  0  0  0  0  0  0  0
   60.5590   33.1030   48.7720 C   0  0  0  0  0  0  0  0  0  0  0  0
   60.7711   33.0942   47.6927 H   0  0  0  0  0  0  0  0  0  0  0  0
   59.9290   28.6030   47.9280 C   0  0  0  0  0  0  0  0  0  0  0  0
   60.9170   28.4130   48.3726 H   0  0  0  0  0  0  0  0  0  0  0  0
   59.1597   28.7999   48.6892 H   0  0  0  0  0  0  0  0  0  0  0  0
   59.4940   27.3520   47.1620 C   0  0  0  0  0  0  0  0  0  0  0  0
   60.2517   27.1001   46.4054 H   0  0  0  0  0  0  0  0  0  0  0  0
   59.3863   26.5071   47.8581 H   0  0  0  0  0  0  0  0  0  0  0  0
  1  2  1  0
  2  3  2  0
  3  4  1  0
  4  5  1  0
  5  6  2  0
  6  7  1  0
  7  8  2  0
  7  9  1  0
  6 10  1  0
 10 11  1  0
 10 12  1  0
 10 13  1  0
 13 14  1  1
 13 15  1  0
 15 16  1  0
 15 17  1  0
 15 18  1  0
 18 19  1  0
 19 20  1  0
 19 21  1  0
 19 22  1  0
 18 23  1  0
 23 24  1  0
 23 25  1  0
 23 26  1  0
 26 27  2  0
 27 28  1  0
 27 29  1  0
 29 30  1  0
 29 31  2  0
 31 32  1  0
 31 33  1  0
 33 34  1  0
 34 35  1  0
 35 36  1  0
 35 37  1  0
 35 38  1  0
 38 39  2  0
 39 40  1  0
 39 41  1  0
 41 42  1  0
 41 43  2  0
 43 44  1  0
 43 45  1  0
 45 46  1  0
 45 47  2  0
 47 48  1  0
 33 49  2  0
 49 50  1  0
 13 51  1  0
 51 52  1  0
 51 53  1  0
 51 54  1  0
 54 55  1  0
 54 56  1  0
  9  3  1  0
 49 26  1  0
 54  5  1  0
 47 38  1  0
M  CHG  2   4  -1   9  -1
M  END
>  <UniqueID>  (5) 
5

>  <SMILES>  (5) 
[H]/N=c1/[n-]c2c(c(=O)[n-]1)C[C@H](CN(C)Cc1cccc(OCc3ccccc3)c1)CC2

>  <Energy>  (5) 
71.97203289246589

>  <Genealogy>  (5) 
CN(Cc1cccc(OCc2ccccc2)c1)CC1CCc2[n-]c(=N)[n-]c(=O)c2C1 (protonated)
CN(Cc1cccc(OCc2ccccc2)c1)C[C@@H]1CCc2[n-]c(=N)[n-]c(=O)c2C1 (chirality)
[H]/N=c1/[n-]c2c(c(=O)[n-]1)C[C@H](CN(C)Cc1cccc(OCc3ccccc3)c1)CC2 (cis-trans isomerization)
[H]/N=c1/[n-]c2c(c(=O)[n-]1)C[C@H](CN(C)Cc1cccc(OCc3ccccc3)c1)CC2 (3D coordinates assigned)
[H]/N=c1/[n-]c2c(c(=O)[n-]1)C[C@H](CN(C)Cc1cccc(OCc3ccccc3)c1)CC2 (nonaromatic ring conformer: 71.97203289246589 kcal/mol)

>  <smiles>  (5) 
CN(Cc1cccc(OCc2ccccc2)c1)CC1CCc2[nH]c(=N)[nH]c(=O)c2C1

>  <score_type>  (5) 
oracle

>  <origin>  (5) 
adg

>  <m_score__min__energy>  (5) 
-13.56

>  <m_primary>  (5) 
energy

$$$$
5:0
     RDKit          3D

 37 39  0  0  0  0  0  0  0  0999 V2000
   54.1350   27.9480   53.1790 C   0  0  0  0  0  0  0  0  0  0  0  0
   54.6390   29.1300   52.7870 C   0  0  0  0  0  0  0  0  0  0  0  0
   53.8980   30.2240   52.3300 C   0  0  0  0  0  0  0  0  0  0  0  0
   52.5590   30.3050   52.1830 C   0  0  0  0  0  0  0  0  0  0  0  0
   51.8910   30.7880   50.9610 C   0  0  0  0  0  0  0  0  0  0  0  0
   51.7500   30.0380   49.8540 N   0  0  0  0  0  0  0  0  0  0  0  0
   51.0230   30.8260   49.0320 C   0  0  0  0  0  0  0  0  0  0  0  0
   50.6910   30.4690   47.8710 O   0  0  0  0  0  0  0  0  0  0  0  0
   50.6710   32.0200   49.5550 N   0  0  0  0  0  0  0  0  0  0  0  0
   51.2170   31.9770   50.7820 C   0  0  0  0  0  0  0  0  0  0  0  0
   51.0650   32.9820   51.7310 O   0  0  0  0  0  0  0  0  0  0  0  0
   54.8180   31.1980   51.9780 C   0  0  0  0  0  0  0  0  0  0  0  0
   56.0730   30.6770   52.2330 C   0  0  0  0  0  0  0  0  0  0  0  0
   57.3260   31.3830   51.8880 C   0  0  0  0  0  0  0  0  0  0  0  0
   57.5790   32.4920   52.4300 O   0  0  0  0  0  0  0  0  0  0  0  0
   58.2740   30.8030   50.9860 N   0  0  0  0  0  0  0  0  0  0  0  0
   58.5620   31.1710   49.7680 C   0  0  0  0  0  0  0  0  0  0  0  0
   58.6740   32.4890   49.3880 C   0  0  0  0  0  0  0  0  0  0  0  0
   59.0060   32.4310   48.0510 C   0  0  0  0  0  0  0  0  0  0  0  0
   59.1110   31.1440   47.6630 N   0  0  0  0  0  0  0  0  0  0  0  0
   58.8490   30.3730   48.7080 N   0  0  0  0  0  0  0  0  0  0  0  0
   58.9730   28.9190   48.6400 C   0  0  0  0  0  0  0  0  0  0  0  0
   55.9670   29.4290   52.7570 N   0  0  0  0  0  0  0  0  0  0  0  0
   57.0790   28.5740   53.1910 C   0  0  0  0  0  0  0  0  0  0  0  0
   54.8090   27.1496   53.5229 H   0  0  0  0  0  0  0  0  0  0  0  0
   53.0484   27.7786   53.1561 H   0  0  0  0  0  0  0  0  0  0  0  0
   51.9272   29.9913   53.0270 H   0  0  0  0  0  0  0  0  0  0  0  0
   51.5210   32.9130   52.6330 H   0  0  0  0  0  0  0  0  0  0  0  0
   54.5930   32.1956   51.5729 H   0  0  0  0  0  0  0  0  0  0  0  0
   58.5311   33.3851   50.0097 H   0  0  0  0  0  0  0  0  0  0  0  0
   59.1617   33.3033   47.3991 H   0  0  0  0  0  0  0  0  0  0  0  0
   59.0082   28.5060   49.6589 H   0  0  0  0  0  0  0  0  0  0  0  0
   58.1072   28.5018   48.1049 H   0  0  0  0  0  0  0  0  0  0  0  0
   59.8970   28.6544   48.1049 H   0  0  0  0  0  0  0  0  0  0  0  0
   57.1137   28.5473   54.2901 H   0  0  0  0  0  0  0  0  0  0  0  0
   56.9307   27.5551   52.8040 H   0  0  0  0  0  0  0  0  0  0  0  0
   58.0257   28.9791   52.8040 H   0  0  0  0  0  0  0  0  0  0  0  0
  1  2  2  0
  2  3  1  0
  3  4  2  3
  4  5  1  0
  5  6  1  0
  6  7  1  0
  7  8  2  0
  7  9  1  0
  9 10  1  0
 10 11  1  0
  3 12  1  0
 12 13  2  0
 13 14  1  0
 14 15  2  0
 14 16  1  0
 16 17  2  3
 17 18  1  0
 18 19  2  0
 19 20  1  0
 20 21  1  0
 21 22  1  0
 13 23  1  0
 23 24  1  0
 23  2  1  0
 10  5  2  0
 21 17  1  0
  1 25  1  0
  1 26  1  0
  4 27  1  0
 11 28  1  0
 12 29  1  0
 18 30  1  0
 19 31  1  0
 22 32  1  0
 22 33  1  0
 22 34  1  0
 24 35  1  0
 24 36  1  0
 24 37  1  0
M  CHG  3   6  -1   9  -1  20  -1
M  END
>  <UniqueID>  (6) 
6

>  <SMILES>  (6) 
C=c1c(=Cc2[n-]c(=O)[n-]c2O)cc(C(=O)N=c2cc[n-]n2C)n1C

>  <Energy>  (6) 
148.3372344367171

>  <Genealogy>  (6) 
C=c1c(=Cc2[n-]c(=O)[n-]c2O)cc(C(=O)N=c2cc[n-]n2C)n1C (protonated)
C=c1c(=Cc2[n-]c(=O)[n-]c2O)cc(C(=O)N=c2cc[n-]n2C)n1C (3D coordinates assigned)
C=c1c(=Cc2[n-]c(=O)[n-]c2O)cc(C(=O)N=c2cc[n-]n2C)n1C (optimized conformer: 148.3372344367171 kcal/mol)

>  <smiles>  (6) 
C=c1c(=Cc2[nH]c(=O)[nH]c2O)cc(C(=O)N=c2cc[nH]n2C)n1C

>  <score_type>  (6) 
oracle

>  <origin>  (6) 
adg

>  <m_score__min__energy>  (6) 
-12.92

>  <m_primary>  (6) 
energy

$$$$
6:0
     RDKit          3D

 46 47  0  0  0  0  0  0  0  0999 V2000
   60.0910   28.3000   44.9090 C   0  0  0  0  0  0  0  0  0  0  0  0
   58.9530   29.3060   45.1590 C   0  0  0  0  0  0  0  0  0  0  0  0
   58.4960   29.1910   46.6240 C   0  0  0  0  0  0  0  0  0  0  0  0
   57.7670   29.0830   44.1700 C   0  0  1  0  0  0  0  0  0  0  0  0
   57.5120   27.6580   43.9570 N   0  0  0  0  0  0  0  0  0  0  0  0
   56.4820   29.7700   44.6050 C   0  0  0  0  0  0  0  0  0  0  0  0
   55.4910   29.0500   44.8960 O   0  0  0  0  0  0  0  0  0  0  0  0
   56.3220   31.1960   44.6660 N   0  0  0  0  0  0  0  0  0  0  0  0
   57.3240   32.1710   44.9690 C   0  0  0  0  0  0  0  0  0  0  0  0
   57.6210   32.5230   46.2980 C   0  0  0  0  0  0  0  0  0  0  0  0
   58.5590   33.5400   46.5670 C   0  0  0  0  0  0  0  0  0  0  0  0
   58.8770   33.9660   47.8990 N   0  0  0  0  0  0  0  0  0  0  0  0
   59.2160   32.9410   49.2560 S   0  0  0  0  0  0  0  0  0  0  0  0
   59.8310   33.7780   50.3430 O   0  0  0  0  0  0  0  0  0  0  0  0
   57.9410   32.3410   49.7770 O   0  0  0  0  0  0  0  0  0  0  0  0
   60.3660   31.6540   48.8060 C   0  0  0  0  0  0  0  0  0  0  0  0
   61.6740   32.2450   48.3630 C   0  0  0  0  0  0  0  0  0  0  0  0
   62.8080   32.1580   49.1890 C   0  0  0  0  0  0  0  0  0  0  0  0
   64.0170   32.7350   48.7890 C   0  0  0  0  0  0  0  0  0  0  0  0
   64.1030   33.4080   47.5670 C   0  0  0  0  0  0  0  0  0  0  0  0
   62.9770   33.5090   46.7440 C   0  0  0  0  0  0  0  0  0  0  0  0
   61.7660   32.9350   47.1420 C   0  0  0  0  0  0  0  0  0  0  0  0
   59.1980   34.1820   45.5010 C   0  0  0  0  0  0  0  0  0  0  0  0
   58.8920   33.8450   44.1820 C   0  0  0  0  0  0  0  0  0  0  0  0
   57.9450   32.8550   43.9160 C   0  0  0  0  0  0  0  0  0  0  0  0
   57.6410   32.5470   42.6300 F   0  0  0  0  0  0  0  0  0  0  0  0
   60.4883   27.9488   45.8728 H   0  0  0  0  0  0  0  0  0  0  0  0
   59.7041   27.4432   44.3378 H   0  0  0  0  0  0  0  0  0  0  0  0
   60.8938   28.7891   44.3378 H   0  0  0  0  0  0  0  0  0  0  0  0
   59.3248   30.3251   44.9769 H   0  0  0  0  0  0  0  0  0  0  0  0
   59.3445   29.4045   47.2906 H   0  0  0  0  0  0  0  0  0  0  0  0
   57.6892   29.9141   46.8143 H   0  0  0  0  0  0  0  0  0  0  0  0
   58.1276   28.1721   46.8143 H   0  0  0  0  0  0  0  0  0  0  0  0
   58.0837   29.5463   43.2239 H   0  0  0  0  0  0  0  0  0  0  0  0
   57.0890   27.5290   43.0090 H   0  0  0  0  0  0  0  0  0  0  0  0
   56.7710   27.3440   44.6250 H   0  0  0  0  0  0  0  0  0  0  0  0
   57.1205   32.0038   47.1286 H   0  0  0  0  0  0  0  0  0  0  0  0
   60.5394   31.0037   49.6761 H   0  0  0  0  0  0  0  0  0  0  0  0
   59.9401   31.0724   47.9751 H   0  0  0  0  0  0  0  0  0  0  0  0
   62.7439   31.6338   50.1540 H   0  0  0  0  0  0  0  0  0  0  0  0
   64.9024   32.6592   49.4373 H   0  0  0  0  0  0  0  0  0  0  0  0
   65.0562   33.8581   47.2528 H   0  0  0  0  0  0  0  0  0  0  0  0
   63.0441   34.0403   45.7831 H   0  0  0  0  0  0  0  0  0  0  0  0
   60.8802   33.0239   46.4959 H   0  0  0  0  0  0  0  0  0  0  0  0
   59.9488   34.9598   45.7045 H   0  0  0  0  0  0  0  0  0  0  0  0
   59.3973   34.3598   43.3516 H   0  0  0  0  0  0  0  0  0  0  0  0
  1  2  1  0
  2  3  1  0
  2  4  1  0
  4  5  1  0
  4  6  1  0
  6  7  2  0
  6  8  1  0
  8  9  1  0
  9 10  2  0
 10 11  1  0
 11 12  1  0
 12 13  1  0
 13 14  2  0
 13 15  2  0
 13 16  1  0
 16 17  1  0
 17 18  2  0
 18 19  1  0
 19 20  2  0
 20 21  1  0
 21 22  2  0
 11 23  2  0
 23 24  1  0
 24 25  2  0
 25 26  1  0
 25  9  1  0
 22 17  1  0
  1 27  1  0
  1 28  1  0
  1 29  1  0
  2 30  1  0
  3 31  1  0
  3 32  1  0
  3 33  1  0
  4 34  1  6
  5 35  1  0
  5 36  1  0
 10 37  1  0
 16 38  1  0
 16 39  1  0
 18 40  1  0
 19 41  1  0
 20 42  1  0
 21 43  1  0
 22 44  1  0
 23 45  1  0
 24 46  1  0
M  CHG  2   8  -1  12  -1
M  END
>  <UniqueID>  (7) 
7

>  <SMILES>  (7) 
CC(C)[C@@H](N)C(=O)[N-]c1cc([N-]S(=O)(=O)Cc2ccccc2)ccc1F

>  <Energy>  (7) 
45.24581701995301

>  <Genealogy>  (7) 
CC(C)C(N)C(=O)[N-]c1cc([N-]S(=O)(=O)Cc2ccccc2)ccc1F (protonated)
CC(C)[C@@H](N)C(=O)[N-]c1cc([N-]S(=O)(=O)Cc2ccccc2)ccc1F (chirality)
CC(C)[C@@H](N)C(=O)[N-]c1cc([N-]S(=O)(=O)Cc2ccccc2)ccc1F (3D coordinates assigned)
CC(C)[C@@H](N)C(=O)[N-]c1cc([N-]S(=O)(=O)Cc2ccccc2)ccc1F (optimized conformer: 45.24581701995301 kcal/mol)

>  <smiles>  (7) 
CC(C)C(N)C(=O)Nc1cc(NS(=O)(=O)Cc2ccccc2)ccc1F

>  <score_type>  (7) 
oracle

>  <origin>  (7) 
adg

>  <m_score__min__energy>  (7) 
-12.02

>  <m_primary>  (7) 
energy

$$$$
7:0
     RDKit          3D

 27 28  0  0  0  0  0  0  0  0999 V2000
   60.3903   34.3615   50.6345 H   0  0  0  0  0  0  0  0  0  0  0  0
   59.6250   33.7110   50.1860 C   0  0  0  0  0  0  0  0  0  0  0  0
   58.8050   33.1110   50.9300 O   0  0  0  0  0  0  0  0  0  0  0  0
   59.5720   33.5530   48.7280 C   0  0  0  0  0  0  0  0  0  0  0  0
   60.4710   34.0870   48.0250 O   0  0  0  0  0  0  0  0  0  0  0  0
   58.5370   32.7650   48.1140 N   0  0  0  0  0  0  0  0  0  0  0  0
   58.0120   32.0870   48.7120 H   0  0  0  0  0  0  0  0  0  0  0  0
   58.2620   32.7470   46.7040 C   0  0  0  0  0  0  0  0  0  0  0  0
   57.8780   31.5780   46.1220 N   0  0  0  0  0  0  0  0  0  0  0  0
   57.5800   31.4730   44.7980 C   0  0  0  0  0  0  0  0  0  0  0  0
   57.2230   30.3030   44.3420 N   0  0  0  0  0  0  0  0  0  0  0  0
   56.4050   29.2950   44.9590 C   0  0  0  0  0  0  0  0  0  0  0  0
   55.1480   29.3650   44.9190 O   0  0  0  0  0  0  0  0  0  0  0  0
   57.0340   28.1160   45.5670 C   0  0  0  0  0  0  0  0  0  0  0  0
   58.3280   27.9920   45.7600 O   0  0  0  0  0  0  0  0  0  0  0  0
   58.5650   26.8240   46.3200 C   0  0  0  0  0  0  0  0  0  0  0  0
   59.5609   26.4488   46.5984 H   0  0  0  0  0  0  0  0  0  0  0  0
   57.3790   26.1380   46.5070 C   0  0  0  0  0  0  0  0  0  0  0  0
   57.2452   25.1397   46.9493 H   0  0  0  0  0  0  0  0  0  0  0  0
   56.4040   26.9750   46.0200 C   0  0  0  0  0  0  0  0  0  0  0  0
   55.0400   26.7100   45.9950 O   0  0  0  0  0  0  0  0  0  0  0  0
   57.6320   32.6310   43.9950 C   0  0  0  0  0  0  0  0  0  0  0  0
   57.3833   32.5763   42.9249 H   0  0  0  0  0  0  0  0  0  0  0  0
   58.0020   33.8470   44.5710 C   0  0  0  0  0  0  0  0  0  0  0  0
   58.0454   34.7557   43.9527 H   0  0  0  0  0  0  0  0  0  0  0  0
   58.3170   33.9140   45.9280 C   0  0  0  0  0  0  0  0  0  0  0  0
   58.6056   34.8721   46.3849 H   0  0  0  0  0  0  0  0  0  0  0  0
  1  2  1  0
  2  3  2  0
  2  4  1  0
  4  5  2  0
  4  6  1  0
  6  7  1  0
  6  8  1  0
  8  9  1  0
  9 10  1  0
 10 11  2  0
 11 12  1  0
 12 13  2  0
 12 14  1  0
 14 15  1  0
 15 16  1  0
 16 17  1  0
 16 18  2  0
 18 19  1  0
 18 20  1  0
 20 21  1  0
 10 22  1  0
 22 23  1  0
 22 24  2  0
 24 25  1  0
 24 26  1  0
 26 27  1  0
 26  8  2  0
 20 14  2  0
M  CHG  2   9  -1  21  -1
M  END
>  <UniqueID>  (8) 
8

>  <SMILES>  (8) 
O=CC(=O)Nc1ccc/c(=N\C(=O)c2occc2[O-])[n-]1

>  <Energy>  (8) 
64.91541012283105

>  <Genealogy>  (8) 
O=CC(=O)Nc1cccc(=NC(=O)c2occc2[O-])[n-]1 (protonated)
O=CC(=O)Nc1ccc/c(=N\C(=O)c2occc2[O-])[n-]1 (cis-trans isomerization)
O=CC(=O)Nc1ccc/c(=N\C(=O)c2occc2[O-])[n-]1 (3D coordinates assigned)
O=CC(=O)Nc1ccc/c(=N\C(=O)c2occc2[O-])[n-]1 (optimized conformer: 64.91541012283105 kcal/mol)

>  <smiles>  (8) 
O=CC(=O)Nc1cccc(=NC(=O)c2occc2O)[nH]1

>  <score_type>  (8) 
oracle

>  <origin>  (8) 
adg

>  <m_score__min__energy>  (8) 
-11.77

>  <m_primary>  (8) 
energy

$$$$
8:0
     RDKit          3D

 58 61  0  0  0  0  0  0  0  0999 V2000
   51.5250   24.4200   44.8060 C   0  0  0  0  0  0  0  0  0  0  0  0
   52.5230   23.5520   45.5850 C   0  0  2  0  0  0  0  0  0  0  0  0
   53.4950   22.9760   44.6600 N   0  0  0  0  0  0  0  0  0  0  0  0
   54.7990   22.5360   45.0530 C   0  0  0  0  0  0  0  0  0  0  0  0
   55.5830   22.0200   44.2110 O   0  0  0  0  0  0  0  0  0  0  0  0
   55.2660   22.7700   46.4530 C   0  0  0  0  0  0  0  0  0  0  0  0
   55.1290   24.1480   46.7880 O   0  0  0  0  0  0  0  0  0  0  0  0
   55.5970   25.1910   45.9790 C   0  0  0  0  0  0  0  0  0  0  0  0
   55.0400   26.3220   45.9960 O   0  0  0  0  0  0  0  0  0  0  0  0
   56.7630   24.9540   45.0760 C   0  0  0  0  0  0  0  0  0  0  0  0
   57.4440   26.2140   44.7890 N   0  0  0  0  0  0  0  0  0  0  0  0
   58.2760   26.8790   45.7500 C   0  0  0  0  0  0  0  0  0  0  0  0
   58.3190   26.4730   46.9440 O   0  0  0  0  0  0  0  0  0  0  0  0
   59.1270   28.0470   45.3370 C   0  0  0  0  0  0  0  0  0  0  0  0
   58.2750   29.1610   44.7770 C   0  0  0  0  0  0  0  0  0  0  0  0
   57.3940   28.8920   43.7180 C   0  0  0  0  0  0  0  0  0  0  0  0
   56.6160   29.9100   43.1650 C   0  0  0  0  0  0  0  0  0  0  0  0
   56.7150   31.2160   43.6490 C   0  0  0  0  0  0  0  0  0  0  0  0
   57.6050   31.5170   44.6960 C   0  0  0  0  0  0  0  0  0  0  0  0
   57.7570   32.8330   45.1760 C   0  0  0  0  0  0  0  0  0  0  0  0
   57.0840   33.7760   44.6720 O   0  0  0  0  0  0  0  0  0  0  0  0
   58.6730   33.0950   46.2150 C   0  0  0  0  0  0  0  0  0  0  0  0
   58.8820   34.3960   46.7120 C   0  0  0  0  0  0  0  0  0  0  0  0
   59.8130   34.6180   47.7310 C   0  0  0  0  0  0  0  0  0  0  0  0
   60.5370   33.5500   48.2680 C   0  0  0  0  0  0  0  0  0  0  0  0
   60.3390   32.2550   47.7850 C   0  0  0  0  0  0  0  0  0  0  0  0
   59.4160   32.0220   46.7590 C   0  0  0  0  0  0  0  0  0  0  0  0
   59.2550   30.7660   46.2720 N   0  0  0  0  0  0  0  0  0  0  0  0
   58.3860   30.4800   45.2650 C   0  0  0  0  0  0  0  0  0  0  0  0
   51.9000   22.4330   46.4070 C   0  0  0  0  0  0  0  0  0  0  0  0
   52.2460   22.1720   47.7520 C   0  0  0  0  0  0  0  0  0  0  0  0
   51.6480   21.1130   48.4430 C   0  0  0  0  0  0  0  0  0  0  0  0
   50.7000   20.3050   47.8120 C   0  0  0  0  0  0  0  0  0  0  0  0
   50.3530   20.5470   46.4820 C   0  0  0  0  0  0  0  0  0  0  0  0
   50.9570   21.5940   45.7800 C   0  0  0  0  0  0  0  0  0  0  0  0
   50.8895   24.9727   45.5135 H   0  0  0  0  0  0  0  0  0  0  0  0
   52.0746   25.1323   44.1731 H   0  0  0  0  0  0  0  0  0  0  0  0
   50.8958   23.7770   44.1731 H   0  0  0  0  0  0  0  0  0  0  0  0
   52.9973   24.2315   46.3085 H   0  0  0  0  0  0  0  0  0  0  0  0
   54.6614   22.1650   47.1447 H   0  0  0  0  0  0  0  0  0  0  0  0
   56.3246   22.4821   46.5336 H   0  0  0  0  0  0  0  0  0  0  0  0
   57.4666   24.2640   45.5648 H   0  0  0  0  0  0  0  0  0  0  0  0
   56.4030   24.5179   44.1325 H   0  0  0  0  0  0  0  0  0  0  0  0
   57.3200   26.6350   43.8390 H   0  0  0  0  0  0  0  0  0  0  0  0
   59.6773   28.4198   46.2135 H   0  0  0  0  0  0  0  0  0  0  0  0
   59.8280   27.7138   44.5575 H   0  0  0  0  0  0  0  0  0  0  0  0
   57.3161   27.8694   43.3203 H   0  0  0  0  0  0  0  0  0  0  0  0
   55.9210   29.6823   42.3433 H   0  0  0  0  0  0  0  0  0  0  0  0
   56.0952   32.0119   43.2103 H   0  0  0  0  0  0  0  0  0  0  0  0
   58.3111   35.2399   46.2973 H   0  0  0  0  0  0  0  0  0  0  0  0
   59.9763   35.6371   48.1115 H   0  0  0  0  0  0  0  0  0  0  0  0
   61.2646   33.7301   49.0731 H   0  0  0  0  0  0  0  0  0  0  0  0
   60.9093   31.4166   48.2115 H   0  0  0  0  0  0  0  0  0  0  0  0
   52.9896   22.8050   48.2583 H   0  0  0  0  0  0  0  0  0  0  0  0
   51.9260   20.9157   49.4889 H   0  0  0  0  0  0  0  0  0  0  0  0
   50.2271   19.4785   48.3627 H   0  0  0  0  0  0  0  0  0  0  0  0
   49.6034   19.9131   45.9857 H   0  0  0  0  0  0  0  0  0  0  0  0
   50.6932   21.7651   44.7259 H   0  0  0  0  0  0  0  0  0  0  0  0
  1  2  1  0
  2  3  1  0
  3  4  1  0
  4  5  2  0
  4  6  1  0
  6  7  1  0
  7  8  1  0
  8  9  2  0
  8 10  1  0
 10 11  1  0
 11 12  1  0
 12 13  2  0
 12 14  1  0
 14 15  1  0
 15 16  2  0
 16 17  1  0
 17 18  2  0
 18 19  1  0
 19 20  1  0
 20 21  2  0
 20 22  1  0
 22 23  2  0
 23 24  1  0
 24 25  2  0
 25 26  1  0
 26 27  2  0
 27 28  1  0
 28 29  1  0
  2 30  1  0
 30 31  2  0
 31 32  1  0
 32 33  2  0
 33 34  1  0
 34 35  2  0
 29 15  1  0
 35 30  1  0
 29 19  2  0
 27 22  1  0
  1 36  1  0
  1 37  1  0
  1 38  1  0
  2 39  1  1
  6 40  1  0
  6 41  1  0
 10 42  1  0
 10 43  1  0
 11 44  1  0
 14 45  1  0
 14 46  1  0
 16 47  1  0
 17 48  1  0
 18 49  1  0
 23 50  1  0
 24 51  1  0
 25 52  1  0
 26 53  1  0
 31 54  1  0
 32 55  1  0
 33 56  1  0
 34 57  1  0
 35 58  1  0
M  CHG  2   3  -1  28  -1
M  END
>  <UniqueID>  (9) 
9

>  <SMILES>  (9) 
C[C@H]([N-]C(=O)COC(=O)CNC(=O)Cc1cccc2c(=O)c3ccccc3[n-]c12)c1ccccc1

>  <Energy>  (9) 
53.70752955768114

>  <Genealogy>  (9) 
CC([N-]C(=O)COC(=O)CNC(=O)Cc1cccc2c(=O)c3ccccc3[n-]c12)c1ccccc1 (protonated)
C[C@H]([N-]C(=O)COC(=O)CNC(=O)Cc1cccc2c(=O)c3ccccc3[n-]c12)c1ccccc1 (chirality)
C[C@H]([N-]C(=O)COC(=O)CNC(=O)Cc1cccc2c(=O)c3ccccc3[n-]c12)c1ccccc1 (3D coordinates assigned)
C[C@H]([N-]C(=O)COC(=O)CNC(=O)Cc1cccc2c(=O)c3ccccc3[n-]c12)c1ccccc1 (optimized conformer: 53.70752955768114 kcal/mol)

>  <smiles>  (9) 
CC(NC(=O)COC(=O)CNC(=O)Cc1cccc2c(=O)c3ccccc3[nH]c12)c1ccccc1

>  <score_type>  (9) 
oracle

>  <origin>  (9) 
adg

>  <m_score__min__energy>  (9) 
-12.279999999999999

>  <m_primary>  (9) 
energy

$$$$
9:0
     RDKit          3D

 61 64  0  0  0  0  0  0  0  0999 V2000
   51.9600   29.0850   55.5210 C   0  0  0  0  0  0  0  0  0  0  0  0
   52.9020   29.3840   54.6140 C   0  0  0  0  0  0  0  0  0  0  0  0
   52.6870   29.9420   53.3490 C   0  0  0  0  0  0  0  0  0  0  0  0
   51.5030   30.2320   52.7760 C   0  0  0  0  0  0  0  0  0  0  0  0
   51.3640   30.8150   51.4290 C   0  0  0  0  0  0  0  0  0  0  0  0
   51.4510   30.0910   50.2970 N   0  0  0  0  0  0  0  0  0  0  0  0
   51.1940   30.9940   49.3260 C   0  0  0  0  0  0  0  0  0  0  0  0
   51.1970   30.6960   48.1040 O   0  0  0  0  0  0  0  0  0  0  0  0
   50.9260   32.2410   49.7700 N   0  0  0  0  0  0  0  0  0  0  0  0
   51.0270   32.1080   51.1030 C   0  0  0  0  0  0  0  0  0  0  0  0
   50.7720   33.1390   51.9980 O   0  0  0  0  0  0  0  0  0  0  0  0
   53.9390   30.0780   52.7670 C   0  0  0  0  0  0  0  0  0  0  0  0
   54.8550   29.5950   53.6790 C   0  0  0  0  0  0  0  0  0  0  0  0
   56.3040   29.5040   53.4170 C   0  0  0  0  0  0  0  0  0  0  0  0
   57.0080   28.7710   54.1620 O   0  0  0  0  0  0  0  0  0  0  0  0
   56.9270   30.2570   52.3570 N   0  0  0  0  0  0  0  0  0  0  0  0
   56.3660   31.5400   51.9160 C   0  0  0  0  0  0  0  0  0  0  0  0
   57.4910   32.5500   51.6900 C   0  0  0  0  0  0  0  0  0  0  0  0
   58.5290   32.0040   50.8080 N   0  0  0  0  0  0  0  0  0  0  0  0
   59.4230   32.9290   50.1650 C   0  0  0  0  0  0  0  0  0  0  0  0
   59.9310   33.8630   50.8420 O   0  0  0  0  0  0  0  0  0  0  0  0
   59.6450   32.8900   48.7450 N   0  0  0  0  0  0  0  0  0  0  0  0
   59.4430   34.1140   47.9680 C   0  0  0  0  0  0  0  0  0  0  0  0
   60.7980   34.5940   47.4540 C   0  0  0  0  0  0  0  0  0  0  0  0
   61.5120   33.5460   46.6840 N   0  0  0  0  0  0  0  0  0  0  0  0
   62.9850   33.6330   46.7770 C   0  0  0  0  0  0  0  0  0  0  0  0
   63.5840   32.7580   47.8840 C   0  0  0  0  0  0  0  0  0  0  0  0
   60.9600   32.1710   46.7510 C   0  0  0  0  0  0  0  0  0  0  0  0
   60.4180   31.7970   48.1460 C   0  0  0  0  0  0  0  0  0  0  0  0
   58.5920   30.5640   50.5320 C   0  0  0  0  0  0  0  0  0  0  0  0
   58.1720   29.7510   51.7630 C   0  0  0  0  0  0  0  0  0  0  0  0
   54.2310   29.1890   54.8100 N   0  0  0  0  0  0  0  0  0  0  0  0
   54.8660   28.7010   56.0380 C   0  0  0  0  0  0  0  0  0  0  0  0
   52.2472   28.6470   56.4883 H   0  0  0  0  0  0  0  0  0  0  0  0
   50.9004   29.2778   55.2975 H   0  0  0  0  0  0  0  0  0  0  0  0
   50.5863   30.0216   53.3464 H   0  0  0  0  0  0  0  0  0  0  0  0
   54.1589   30.4909   51.7714 H   0  0  0  0  0  0  0  0  0  0  0  0
   55.8139   31.3928   50.9761 H   0  0  0  0  0  0  0  0  0  0  0  0
   55.6858   31.9232   52.6909 H   0  0  0  0  0  0  0  0  0  0  0  0
   57.0712   33.4570   51.2305 H   0  0  0  0  0  0  0  0  0  0  0  0
   57.9492   32.7825   52.6626 H   0  0  0  0  0  0  0  0  0  0  0  0
   58.7762   33.9074   47.1179 H   0  0  0  0  0  0  0  0  0  0  0  0
   58.9849   34.8890   48.6001 H   0  0  0  0  0  0  0  0  0  0  0  0
   60.6403   35.4660   46.8023 H   0  0  0  0  0  0  0  0  0  0  0  0
   61.4169   34.8508   48.3264 H   0  0  0  0  0  0  0  0  0  0  0  0
   63.4133   33.3171   45.8143 H   0  0  0  0  0  0  0  0  0  0  0  0
   63.2311   34.6766   47.0228 H   0  0  0  0  0  0  0  0  0  0  0  0
   63.3042   33.1667   48.8662 H   0  0  0  0  0  0  0  0  0  0  0  0
   63.1977   31.7324   47.7901 H   0  0  0  0  0  0  0  0  0  0  0  0
   64.6799   32.7471   47.7901 H   0  0  0  0  0  0  0  0  0  0  0  0
   60.1385   32.0890   46.0240 H   0  0  0  0  0  0  0  0  0  0  0  0
   61.7843   31.4783   46.5259 H   0  0  0  0  0  0  0  0  0  0  0  0
   59.7692   30.9139   48.0501 H   0  0  0  0  0  0  0  0  0  0  0  0
   61.2774   31.5895   48.8005 H   0  0  0  0  0  0  0  0  0  0  0  0
   57.9163   30.3276   49.6968 H   0  0  0  0  0  0  0  0  0  0  0  0
   59.6286   30.3009   50.2744 H   0  0  0  0  0  0  0  0  0  0  0  0
   58.0224   28.7034   51.4628 H   0  0  0  0  0  0  0  0  0  0  0  0
   58.9686   29.8385   52.5165 H   0  0  0  0  0  0  0  0  0  0  0  0
   54.3360   29.1083   56.9116 H   0  0  0  0  0  0  0  0  0  0  0  0
   54.8219   27.6021   56.0619 H   0  0  0  0  0  0  0  0  0  0  0  0
   55.9165   29.0264   56.0619 H   0  0  0  0  0  0  0  0  0  0  0  0
  1  2  2  0
  2  3  1  0
  3  4  2  3
  4  5  1  0
  5  6  1  0
  6  7  1  0
  7  8  2  0
  7  9  1  0
  9 10  1  0
 10 11  1  0
  3 12  1  0
 12 13  2  0
 13 14  1  0
 14 15  2  0
 14 16  1  0
 16 17  1  0
 17 18  1  0
 18 19  1  0
 19 20  1  0
 20 21  2  0
 20 22  1  0
 22 23  1  0
 23 24  1  0
 24 25  1  0
 25 26  1  0
 26 27  1  0
 25 28  1  0
 28 29  1  0
 19 30  1  0
 30 31  1  0
 13 32  1  0
 32 33  1  0
 32  2  1  0
 10  5  2  0
 31 16  1  0
 29 22  1  0
  1 34  1  0
  1 35  1  0
  4 36  1  0
 12 37  1  0
 17 38  1  0
 17 39  1  0
 18 40  1  0
 18 41  1  0
 23 42  1  0
 23 43  1  0
 24 44  1  0
 24 45  1  0
 26 46  1  0
 26 47  1  0
 27 48  1  0
 27 49  1  0
 27 50  1  0
 28 51  1  0
 28 52  1  0
 29 53  1  0
 29 54  1  0
 30 55  1  0
 30 56  1  0
 31 57  1  0
 31 58  1  0
 33 59  1  0
 33 60  1  0
 33 61  1  0
M  CHG  3   6  -1   9  -1  11  -1
M  END
>  <UniqueID>  (10) 
10

>  <SMILES>  (10) 
C=c1c(=Cc2[n-]c(=O)[n-]c2[O-])cc(C(=O)N2CCN(C(=O)N3CCN(CC)CC3)CC2)n1C

>  <Energy>  (10) 
151.37814477668164

>  <Genealogy>  (10) 
C=c1c(=Cc2[n-]c(=O)[n-]c2[O-])cc(C(=O)N2CCN(C(=O)N3CCN(CC)CC3)CC2)n1C (protonated)
C=c1c(=Cc2[n-]c(=O)[n-]c2[O-])cc(C(=O)N2CCN(C(=O)N3CCN(CC)CC3)CC2)n1C (3D coordinates assigned)
C=c1c(=Cc2[n-]c(=O)[n-]c2[O-])cc(C(=O)N2CCN(C(=O)N3CCN(CC)CC3)CC2)n1C (nonaromatic ring conformer: 151.37814477668164 kcal/mol)

>  <smiles>  (10) 
C=c1c(=Cc2[nH]c(=O)[nH]c2O)cc(C(=O)N2CCN(C(=O)N3CCN(CC)CC3)CC2)n1C

>  <score_type>  (10) 
oracle

>  <origin>  (10) 
adg

>  <m_score__min__energy>  (10) 
-17.870000000000001

>  <m_primary>  (10) 
energy

$$$$
10:0
     RDKit          3D

 39 40  0  0  0  0  0  0  0  0999 V2000
   57.3826   32.9399   42.7026 H   0  0  0  0  0  0  0  0  0  0  0  0
   57.9020   32.8610   43.6690 C   0  0  0  0  0  0  0  0  0  0  0  0
   58.3511   33.7548   44.1266 H   0  0  0  0  0  0  0  0  0  0  0  0
   57.9880   31.6720   44.2910 C   0  0  0  0  0  0  0  0  0  0  0  0
   58.6850   31.5350   45.6000 C   0  0  0  0  0  0  0  0  0  0  0  0
   59.3160   32.6840   46.2880 C   0  0  0  0  0  0  0  0  0  0  0  0
   58.6380   33.7260   46.5020 O   0  0  0  0  0  0  0  0  0  0  0  0
   60.7260   32.6000   46.8030 C   0  0  0  0  0  0  0  0  0  0  0  0
   60.6958   32.4811   47.8961 H   0  0  0  0  0  0  0  0  0  0  0  0
   61.2092   31.7402   46.3159 H   0  0  0  0  0  0  0  0  0  0  0  0
   61.5510   33.8520   46.4660 C   0  0  0  0  0  0  0  0  0  0  0  0
   61.4028   34.0852   45.4013 H   0  0  0  0  0  0  0  0  0  0  0  0
   61.1959   34.6508   47.1337 H   0  0  0  0  0  0  0  0  0  0  0  0
   63.0620   33.7060   46.7210 C   0  0  0  0  0  0  0  0  0  0  0  0
   63.5773   33.6561   45.7504 H   0  0  0  0  0  0  0  0  0  0  0  0
   63.3797   34.5772   47.3127 H   0  0  0  0  0  0  0  0  0  0  0  0
   63.4180   32.4560   47.5250 C   0  0  0  0  0  0  0  0  0  0  0  0
   63.3540   32.6808   48.5999 H   0  0  0  0  0  0  0  0  0  0  0  0
   62.7143   31.6477   47.2769 H   0  0  0  0  0  0  0  0  0  0  0  0
   64.4419   32.1397   47.2769 H   0  0  0  0  0  0  0  0  0  0  0  0
   58.7470   30.3360   46.1900 C   0  0  0  0  0  0  0  0  0  0  0  0
   59.1448   30.2642   47.2130 H   0  0  0  0  0  0  0  0  0  0  0  0
   58.2950   29.1010   45.5050 C   0  0  0  0  0  0  0  0  0  0  0  0
   58.4240   27.9330   46.1730 C   0  0  0  0  0  0  0  0  0  0  0  0
   59.3917   27.7351   46.6571 H   0  0  0  0  0  0  0  0  0  0  0  0
   57.3770   26.8990   46.3090 C   0  0  0  0  0  0  0  0  0  0  0  0
   57.5180   25.7160   46.9370 N   0  0  0  0  0  0  0  0  0  0  0  0
   56.2850   25.1710   46.8630 C   0  0  0  0  0  0  0  0  0  0  0  0
   56.0140   24.0380   47.3400 O   0  0  0  0  0  0  0  0  0  0  0  0
   55.3630   25.9370   46.2410 N   0  0  0  0  0  0  0  0  0  0  0  0
   56.0690   27.0290   45.9040 C   0  0  0  0  0  0  0  0  0  0  0  0
   55.5280   28.1230   45.2430 O   0  0  0  0  0  0  0  0  0  0  0  0
   57.8730   29.1420   44.1200 N   0  0  0  0  0  0  0  0  0  0  0  0
   58.6910   28.9100   43.5100 H   0  0  0  0  0  0  0  0  0  0  0  0
   57.1170   28.4320   43.9800 H   0  0  0  0  0  0  0  0  0  0  0  0
   57.3630   30.4390   43.7250 C   0  0  0  0  0  0  0  0  0  0  0  0
   56.3490   30.5020   42.8440 C   0  0  0  0  0  0  0  0  0  0  0  0
   55.9500   31.4790   42.5336 H   0  0  0  0  0  0  0  0  0  0  0  0
   55.9185   29.5766   42.4338 H   0  0  0  0  0  0  0  0  0  0  0  0
  1  2  1  0
  2  3  1  0
  2  4  2  0
  4  5  1  0
  5  6  1  0
  6  7  2  0
  6  8  1  0
  8  9  1  0
  8 10  1  0
  8 11  1  0
 11 12  1  0
 11 13  1  0
 11 14  1  0
 14 15  1  0
 14 16  1  0
 14 17  1  0
 17 18  1  0
 17 19  1  0
 17 20  1  0
  5 21  2  0
 21 22  1  0
 21 23  1  0
 23 24  2  0
 24 25  1  0
 24 26  1  0
 26 27  1  0
 27 28  1  0
 28 29  2  0
 28 30  1  0
 30 31  1  0
 31 32  1  0
 23 33  1  0
 33 34  1  0
 33 35  1  0
 33 36  1  0
 36 37  2  0
 37 38  1  0
 37 39  1  0
 36  4  1  0
 31 26  2  0
M  CHG  4  27  -1  30  -1  32  -1  33   1
M  END
>  <UniqueID>  (11) 
11

>  <SMILES>  (11) 
C=C1[NH2+]/C(=C\c2[n-]c(=O)[n-]c2[O-])C=C(C(=O)CCCC)C1=C

>  <Energy>  (11) 
79.46095775763519

>  <Genealogy>  (11) 
C=C1[NH2+]C(=Cc2[n-]c(=O)[n-]c2[O-])C=C(C(=O)CCCC)C1=C (protonated)
C=C1[NH2+]/C(=C\c2[n-]c(=O)[n-]c2[O-])C=C(C(=O)CCCC)C1=C (cis-trans isomerization)
C=C1[NH2+]/C(=C\c2[n-]c(=O)[n-]c2[O-])C=C(C(=O)CCCC)C1=C (3D coordinates assigned)
C=C1[NH2+]/C(=C\c2[n-]c(=O)[n-]c2[O-])C=C(C(=O)CCCC)C1=C (nonaromatic ring conformer: 79.46095775763519 kcal/mol)

>  <smiles>  (11) 
C=C1NC(=Cc2[nH]c(=O)[nH]c2O)C=C(C(=O)CCCC)C1=C

>  <score_type>  (11) 
oracle

>  <origin>  (11) 
adg

>  <m_score__min__energy>  (11) 
-13.630000000000001

>  <m_primary>  (11) 
energy

$$$$
11:0
     RDKit          3D

 48 51  0  0  0  0  0  0  0  0999 V2000
   63.1690   32.7540   47.5000 C   0  0  0  0  0  0  0  0  0  0  0  0
   62.5730   32.8710   48.7880 O   0  0  0  0  0  0  0  0  0  0  0  0
   61.5050   32.0820   49.2470 C   0  0  0  0  0  0  0  0  0  0  0  0
   61.5300   30.6760   49.1500 C   0  0  0  0  0  0  0  0  0  0  0  0
   60.4610   29.9130   49.6250 C   0  0  0  0  0  0  0  0  0  0  0  0
   59.3580   30.5390   50.2060 C   0  0  0  0  0  0  0  0  0  0  0  0
   58.3260   29.7940   50.6730 F   0  0  0  0  0  0  0  0  0  0  0  0
   59.3180   31.9300   50.3090 C   0  0  0  0  0  0  0  0  0  0  0  0
   60.3780   32.7140   49.8210 C   0  0  0  0  0  0  0  0  0  0  0  0
   60.3010   34.2160   49.9580 C   0  0  0  0  0  0  0  0  0  0  0  0
   59.4890   34.7790   48.9270 O   0  0  0  0  0  0  0  0  0  0  0  0
   59.2040   34.1700   47.6940 C   0  0  0  0  0  0  0  0  0  0  0  0
   59.9460   34.4350   46.5310 C   0  0  0  0  0  0  0  0  0  0  0  0
   59.6100   33.7900   45.3400 C   0  0  0  0  0  0  0  0  0  0  0  0
   58.5320   32.8950   45.3000 C   0  0  0  0  0  0  0  0  0  0  0  0
   58.1680   32.1940   44.0470 C   0  0  0  0  0  0  0  0  0  0  0  0
   58.3570   32.7670   42.9390 O   0  0  0  0  0  0  0  0  0  0  0  0
   57.6090   30.8660   44.0650 N   0  0  0  0  0  0  0  0  0  0  0  0
   56.5250   30.5250   43.1280 C   0  0  0  0  0  0  0  0  0  0  0  0
   55.4870   29.6710   43.7940 C   0  0  0  0  0  0  0  0  0  0  0  0
   54.3050   29.6610   43.3560 O   0  0  0  0  0  0  0  0  0  0  0  0
   55.8530   28.8070   44.8730 N   0  0  0  0  0  0  0  0  0  0  0  0
   57.1700   28.8690   45.4350 C   0  0  0  0  0  0  0  0  0  0  0  0
   57.5750   27.9270   46.3910 C   0  0  0  0  0  0  0  0  0  0  0  0
   58.8580   27.9910   46.9400 C   0  0  0  0  0  0  0  0  0  0  0  0
   59.7420   28.9940   46.5370 C   0  0  0  0  0  0  0  0  0  0  0  0
   59.3440   29.9410   45.5900 C   0  0  0  0  0  0  0  0  0  0  0  0
   58.0500   29.8930   45.0370 C   0  0  0  0  0  0  0  0  0  0  0  0
   57.8230   32.6520   46.4850 C   0  0  0  0  0  0  0  0  0  0  0  0
   58.1690   33.2910   47.6340 N   0  0  0  0  0  0  0  0  0  0  0  0
   64.2429   32.5432   47.6107 H   0  0  0  0  0  0  0  0  0  0  0  0
   62.6892   31.9329   46.9472 H   0  0  0  0  0  0  0  0  0  0  0  0
   63.0352   33.6955   46.9472 H   0  0  0  0  0  0  0  0  0  0  0  0
   62.3984   30.1757   48.6966 H   0  0  0  0  0  0  0  0  0  0  0  0
   60.4888   28.8166   49.5408 H   0  0  0  0  0  0  0  0  0  0  0  0
   58.4495   32.4174   50.7761 H   0  0  0  0  0  0  0  0  0  0  0  0
   59.8662   34.4669   50.9368 H   0  0  0  0  0  0  0  0  0  0  0  0
   61.3165   34.6301   49.8722 H   0  0  0  0  0  0  0  0  0  0  0  0
   60.7854   35.1454   46.5589 H   0  0  0  0  0  0  0  0  0  0  0  0
   60.1939   33.9849   44.4283 H   0  0  0  0  0  0  0  0  0  0  0  0
   56.0530   31.4523   42.7713 H   0  0  0  0  0  0  0  0  0  0  0  0
   56.9540   29.9621   42.2859 H   0  0  0  0  0  0  0  0  0  0  0  0
   55.1540   28.1260   45.2460 H   0  0  0  0  0  0  0  0  0  0  0  0
   56.8808   27.1355   46.7096 H   0  0  0  0  0  0  0  0  0  0  0  0
   59.1722   27.2506   47.6904 H   0  0  0  0  0  0  0  0  0  0  0  0
   60.7539   29.0386   46.9660 H   0  0  0  0  0  0  0  0  0  0  0  0
   60.0450   30.7280   45.2749 H   0  0  0  0  0  0  0  0  0  0  0  0
   56.9833   31.9414   46.4850 H   0  0  0  0  0  0  0  0  0  0  0  0
  1  2  1  0
  2  3  1  0
  3  4  2  0
  4  5  1  0
  5  6  2  0
  6  7  1  0
  6  8  1  0
  8  9  2  0
  9 10  1  0
 10 11  1  0
 11 12  1  0
 12 13  2  0
 13 14  1  0
 14 15  2  0
 15 16  1  0
 16 17  2  0
 16 18  1  0
 18 19  1  0
 19 20  1  0
 20 21  2  0
 20 22  1  0
 22 23  1  0
 23 24  2  0
 24 25  1  0
 25 26  2  0
 26 27  1  0
 27 28  2  0
 15 29  1  0
 29 30  2  0
  9  3  1  0
 30 12  1  0
 28 18  1  0
 28 23  1  0
  1 31  1  0
  1 32  1  0
  1 33  1  0
  4 34  1  0
  5 35  1  0
  8 36  1  0
 10 37  1  0
 10 38  1  0
 13 39  1  0
 14 40  1  0
 19 41  1  0
 19 42  1  0
 22 43  1  0
 24 44  1  0
 25 45  1  0
 26 46  1  0
 27 47  1  0
 29 48  1  0
M  END
>  <UniqueID>  (12) 
12

>  <SMILES>  (12) 
COc1ccc(F)cc1COc1ccc(C(=O)N2CC(=O)Nc3ccccc32)cn1

>  <Energy>  (12) 
62.371536691540804

>  <Genealogy>  (12) 
COc1ccc(F)cc1COc1ccc(C(=O)N2CC(=O)Nc3ccccc32)cn1 (3D coordinates assigned)
COc1ccc(F)cc1COc1ccc(C(=O)N2CC(=O)Nc3ccccc32)cn1 (nonaromatic ring conformer: 62.371536691540804 kcal/mol)

>  <smiles>  (12) 
COc1ccc(F)cc1COc1ccc(C(=O)N2CC(=O)Nc3ccccc32)cn1

>  <score_type>  (12) 
oracle

>  <origin>  (12) 
adg

>  <m_score__min__energy>  (12) 
-8.7400000000000002

>  <m_primary>  (12) 
energy

$$$$
12:0
     RDKit          3D

 36 38  0  0  0  0  0  0  0  0999 V2000
   57.6980   31.0170   43.6210 C   0  0  0  0  0  0  0  0  0  0  0  0
   58.1990   30.9650   44.8690 C   0  0  0  0  0  0  0  0  0  0  0  0
   58.4470   32.1890   45.5200 C   0  0  0  0  0  0  0  0  0  0  0  0
   58.7420   32.2370   46.8870 C   0  0  0  0  0  0  0  0  0  0  0  0
   59.0010   33.5680   47.5520 C   0  0  0  0  0  0  0  0  0  0  0  0
   60.4240   33.6450   48.0470 C   0  0  0  0  0  0  0  0  0  0  0  0
   61.4840   33.4020   47.1560 C   0  0  0  0  0  0  0  0  0  0  0  0
   62.8070   33.4320   47.6030 C   0  0  0  0  0  0  0  0  0  0  0  0
   63.0870   33.7000   48.9450 C   0  0  0  0  0  0  0  0  0  0  0  0
   64.4040   33.7300   49.3890 O   0  0  0  0  0  0  0  0  0  0  0  0
   62.0420   33.9380   49.8420 C   0  0  0  0  0  0  0  0  0  0  0  0
   60.7140   33.9090   49.4010 C   0  0  0  0  0  0  0  0  0  0  0  0
   59.6920   34.1480   50.3150 O   0  0  0  0  0  0  0  0  0  0  0  0
   58.7950   31.0320   47.6010 C   0  0  0  0  0  0  0  0  0  0  0  0
   59.0150   31.0230   48.8410 O   0  0  0  0  0  0  0  0  0  0  0  0
   58.6220   29.8530   46.9520 N   0  0  0  0  0  0  0  0  0  0  0  0
   58.3820   29.7560   45.6140 C   0  0  0  0  0  0  0  0  0  0  0  0
   58.3700   28.5010   45.1070 C   0  0  0  0  0  0  0  0  0  0  0  0
   57.5540   27.3590   45.5800 C   0  0  0  0  0  0  0  0  0  0  0  0
   56.1570   27.4690   45.6300 C   0  0  0  0  0  0  0  0  0  0  0  0
   55.5210   28.6250   45.1940 O   0  0  0  0  0  0  0  0  0  0  0  0
   55.4120   26.4340   46.0990 N   0  0  0  0  0  0  0  0  0  0  0  0
   55.9960   25.2920   46.5390 C   0  0  0  0  0  0  0  0  0  0  0  0
   55.2850   24.3440   46.9640 O   0  0  0  0  0  0  0  0  0  0  0  0
   57.3490   25.1720   46.5290 N   0  0  0  0  0  0  0  0  0  0  0  0
   58.1390   26.1770   46.0720 C   0  0  0  0  0  0  0  0  0  0  0  0
   59.3910   26.0420   46.1070 O   0  0  0  0  0  0  0  0  0  0  0  0
   57.4883   30.0864   43.0733 H   0  0  0  0  0  0  0  0  0  0  0  0
   57.4982   31.9901   43.1486 H   0  0  0  0  0  0  0  0  0  0  0  0
   58.4081   33.1248   44.9431 H   0  0  0  0  0  0  0  0  0  0  0  0
   58.8266   34.3753   46.8255 H   0  0  0  0  0  0  0  0  0  0  0  0
   58.3204   33.6749   48.4096 H   0  0  0  0  0  0  0  0  0  0  0  0
   61.2698   33.1866   46.0988 H   0  0  0  0  0  0  0  0  0  0  0  0
   63.6296   33.2443   46.8972 H   0  0  0  0  0  0  0  0  0  0  0  0
   62.2641   34.1489   50.8985 H   0  0  0  0  0  0  0  0  0  0  0  0
   59.0368   28.3090   44.2535 H   0  0  0  0  0  0  0  0  0  0  0  0
  1  2  2  0
  2  3  1  0
  3  4  2  0
  4  5  1  0
  5  6  1  0
  6  7  2  0
  7  8  1  0
  8  9  2  0
  9 10  1  0
  9 11  1  0
 11 12  2  0
 12 13  1  0
  4 14  1  0
 14 15  2  0
 14 16  1  0
 16 17  1  0
 17 18  2  3
 18 19  1  0
 19 20  2  0
 20 21  1  0
 20 22  1  0
 22 23  1  0
 23 24  2  0
 23 25  1  0
 25 26  1  0
 26 27  2  0
 17  2  1  0
 26 19  1  0
 12  6  1  0
  1 28  1  0
  1 29  1  0
  3 30  1  0
  5 31  1  0
  5 32  1  0
  7 33  1  0
  8 34  1  0
 11 35  1  0
 18 36  1  0
M  CHG  6  10  -1  13  -1  16  -1  21  -1  22  -1  25  -1
M  END
>  <UniqueID>  (13) 
13

>  <SMILES>  (13) 
C=c1cc(Cc2ccc([O-])cc2[O-])c(=O)[n-]c1=Cc1c([O-])[n-]c(=O)[n-]c1=O

>  <Energy>  (13) 
63.85506355094725

>  <Genealogy>  (13) 
C=c1cc(Cc2ccc([O-])cc2[O-])c(=O)[n-]c1=Cc1c([O-])[n-]c(=O)[n-]c1=O (protonated)
C=c1cc(Cc2ccc([O-])cc2[O-])c(=O)[n-]c1=Cc1c([O-])[n-]c(=O)[n-]c1=O (3D coordinates assigned)
C=c1cc(Cc2ccc([O-])cc2[O-])c(=O)[n-]c1=Cc1c([O-])[n-]c(=O)[n-]c1=O (optimized conformer: 63.85506355094725 kcal/mol)

>  <smiles>  (13) 
C=c1cc(Cc2ccc(O)cc2O)c(=O)[nH]c1=Cc1c(O)[nH]c(=O)[nH]c1=O

>  <score_type>  (13) 
oracle

>  <origin>  (13) 
adg

>  <m_score__min__energy>  (13) 
-17.850000000000001

>  <m_primary>  (13) 
energy

$$$$
13:0
     RDKit          3D

 64 67  0  0  0  0  0  0  0  0999 V2000
   67.2600   30.0790   53.1800 C   0  0  0  0  0  0  0  0  0  0  0  0
   67.1250   31.1210   52.1030 C   0  0  0  0  0  0  0  0  0  0  0  0
   68.1600   32.0430   51.8840 C   0  0  0  0  0  0  0  0  0  0  0  0
   68.0360   33.0240   50.8980 C   0  0  0  0  0  0  0  0  0  0  0  0
   66.8760   33.0950   50.1250 C   0  0  0  0  0  0  0  0  0  0  0  0
   65.8340   32.1890   50.3390 C   0  0  0  0  0  0  0  0  0  0  0  0
   65.9470   31.1930   51.3300 C   0  0  0  0  0  0  0  0  0  0  0  0
   64.9180   30.2700   51.5760 O   0  0  0  0  0  0  0  0  0  0  0  0
   63.6190   30.6140   52.0480 C   0  0  0  0  0  0  0  0  0  0  0  0
   62.6090   30.5810   50.9360 C   0  0  0  0  0  0  0  0  0  0  0  0
   62.2870   29.4660   50.4440 O   0  0  0  0  0  0  0  0  0  0  0  0
   61.9230   31.7680   50.5050 N   0  0  0  0  0  0  0  0  0  0  0  0
   62.6510   32.8550   49.8400 C   0  0  0  0  0  0  0  0  0  0  0  0
   62.2690   32.9000   48.3580 C   0  0  0  0  0  0  0  0  0  0  0  0
   60.8100   32.8430   48.2120 N   0  0  0  0  0  0  0  0  0  0  0  0
   60.1230   33.7980   47.3840 C   0  0  0  0  0  0  0  0  0  0  0  0
   60.4070   35.0230   47.4910 O   0  0  0  0  0  0  0  0  0  0  0  0
   59.0990   33.3710   46.4010 C   0  0  0  0  0  0  0  0  0  0  0  0
   58.0030   34.1990   46.1090 C   0  0  0  0  0  0  0  0  0  0  0  0
   57.0380   33.7940   45.1860 C   0  0  0  0  0  0  0  0  0  0  0  0
   57.1460   32.5530   44.5580 C   0  0  0  0  0  0  0  0  0  0  0  0
   58.2140   31.6940   44.8570 C   0  0  0  0  0  0  0  0  0  0  0  0
   58.3050   30.4300   44.1760 N   0  0  0  0  0  0  0  0  0  0  0  0
   57.4640   29.2950   44.4400 C   0  0  0  0  0  0  0  0  0  0  0  0
   56.4500   29.4030   45.1800 O   0  0  0  0  0  0  0  0  0  0  0  0
   57.7320   27.9910   43.7530 C   0  0  0  0  0  0  0  0  0  0  0  0
   57.8380   26.8820   44.7630 C   0  0  0  0  0  0  0  0  0  0  0  0
   58.2320   27.1590   46.0840 C   0  0  0  0  0  0  0  0  0  0  0  0
   58.3560   26.1230   47.0140 C   0  0  0  0  0  0  0  0  0  0  0  0
   58.1020   24.8020   46.6280 C   0  0  0  0  0  0  0  0  0  0  0  0
   57.7210   24.5160   45.3140 C   0  0  0  0  0  0  0  0  0  0  0  0
   57.5910   25.5520   44.3820 C   0  0  0  0  0  0  0  0  0  0  0  0
   59.2000   32.1170   45.7700 C   0  0  0  0  0  0  0  0  0  0  0  0
   60.0770   31.7710   48.8990 C   0  0  0  0  0  0  0  0  0  0  0  0
   60.4620   31.7590   50.3790 C   0  0  0  0  0  0  0  0  0  0  0  0
   67.1975   30.5613   54.1667 H   0  0  0  0  0  0  0  0  0  0  0  0
   66.4499   29.3416   53.0803 H   0  0  0  0  0  0  0  0  0  0  0  0
   68.2313   29.5724   53.0803 H   0  0  0  0  0  0  0  0  0  0  0  0
   69.0747   31.9926   52.4929 H   0  0  0  0  0  0  0  0  0  0  0  0
   68.8530   33.7412   50.7304 H   0  0  0  0  0  0  0  0  0  0  0  0
   66.7819   33.8657   49.3458 H   0  0  0  0  0  0  0  0  0  0  0  0
   64.9200   32.2534   49.7304 H   0  0  0  0  0  0  0  0  0  0  0  0
   63.3188   29.8971   52.8264 H   0  0  0  0  0  0  0  0  0  0  0  0
   63.6558   31.6356   52.4541 H   0  0  0  0  0  0  0  0  0  0  0  0
   62.3910   33.8130   50.3140 H   0  0  0  0  0  0  0  0  0  0  0  0
   63.7329   32.6792   49.9324 H   0  0  0  0  0  0  0  0  0  0  0  0
   62.6430   33.8344   47.9140 H   0  0  0  0  0  0  0  0  0  0  0  0
   62.7165   32.0364   47.8442 H   0  0  0  0  0  0  0  0  0  0  0  0
   57.9046   35.1728   46.6110 H   0  0  0  0  0  0  0  0  0  0  0  0
   56.1901   34.4549   44.9530 H   0  0  0  0  0  0  0  0  0  0  0  0
   56.3878   32.2457   43.8227 H   0  0  0  0  0  0  0  0  0  0  0  0
   58.9840   30.3520   43.3870 H   0  0  0  0  0  0  0  0  0  0  0  0
   56.9086   27.7711   43.0575 H   0  0  0  0  0  0  0  0  0  0  0  0
   58.6809   28.0651   43.2016 H   0  0  0  0  0  0  0  0  0  0  0  0
   58.4435   28.1952   46.3867 H   0  0  0  0  0  0  0  0  0  0  0  0
   58.6532   26.3460   48.0493 H   0  0  0  0  0  0  0  0  0  0  0  0
   58.2024   23.9872   47.3601 H   0  0  0  0  0  0  0  0  0  0  0  0
   57.5233   23.4768   45.0124 H   0  0  0  0  0  0  0  0  0  0  0  0
   57.2944   25.3244   43.3475 H   0  0  0  0  0  0  0  0  0  0  0  0
   60.0556   31.4620   45.9915 H   0  0  0  0  0  0  0  0  0  0  0  0
   58.9953   31.9462   48.8027 H   0  0  0  0  0  0  0  0  0  0  0  0
   60.3329   30.8022   48.4453 H   0  0  0  0  0  0  0  0  0  0  0  0
   60.0460   32.6494   50.8731 H   0  0  0  0  0  0  0  0  0  0  0  0
   60.0589   30.8530   50.8550 H   0  0  0  0  0  0  0  0  0  0  0  0
  1  2  1  0
  2  3  2  0
  3  4  1  0
  4  5  2  0
  5  6  1  0
  6  7  2  0
  7  8  1  0
  8  9  1  0
  9 10  1  0
 10 11  2  0
 10 12  1  0
 12 13  1  0
 13 14  1  0
 14 15  1  0
 15 16  1  0
 16 17  2  0
 16 18  1  0
 18 19  2  0
 19 20  1  0
 20 21  2  0
 21 22  1  0
 22 23  1  0
 23 24  1  0
 24 25  2  0
 24 26  1  0
 26 27  1  0
 27 28  2  0
 28 29  1  0
 29 30  2  0
 30 31  1  0
 31 32  2  0
 22 33  2  0
 15 34  1  0
 34 35  1  0
  7  2  1  0
 35 12  1  0
 33 18  1  0
 32 27  1  0
  1 36  1  0
  1 37  1  0
  1 38  1  0
  3 39  1  0
  4 40  1  0
  5 41  1  0
  6 42  1  0
  9 43  1  0
  9 44  1  0
 13 45  1  0
 13 46  1  0
 14 47  1  0
 14 48  1  0
 19 49  1  0
 20 50  1  0
 21 51  1  0
 23 52  1  0
 26 53  1  0
 26 54  1  0
 28 55  1  0
 29 56  1  0
 30 57  1  0
 31 58  1  0
 32 59  1  0
 33 60  1  0
 34 61  1  0
 34 62  1  0
 35 63  1  0
 35 64  1  0
M  END
>  <UniqueID>  (14) 
14

>  <SMILES>  (14) 
Cc1ccccc1OCC(=O)N1CCN(C(=O)c2cccc(NC(=O)Cc3ccccc3)c2)CC1

>  <Energy>  (14) 
76.2969011763032

>  <Genealogy>  (14) 
Cc1ccccc1OCC(=O)N1CCN(C(=O)c2cccc(NC(=O)Cc3ccccc3)c2)CC1 (3D coordinates assigned)
Cc1ccccc1OCC(=O)N1CCN(C(=O)c2cccc(NC(=O)Cc3ccccc3)c2)CC1 (nonaromatic ring conformer: 76.2969011763032 kcal/mol)

>  <smiles>  (14) 
Cc1ccccc1OCC(=O)N1CCN(C(=O)c2cccc(NC(=O)Cc3ccccc3)c2)CC1

>  <score_type>  (14) 
oracle

>  <origin>  (14) 
adg

>  <m_score__min__energy>  (14) 
-9.3100000000000005

>  <m_primary>  (14) 
energy

$$$$
14:0
     RDKit          3D

 37 38  0  0  0  0  0  0  0  0999 V2000
   60.0300   34.2630   46.8490 C   0  0  0  0  0  0  0  0  0  0  0  0
   59.1360   33.1220   46.6950 N   0  0  0  0  0  0  0  0  0  0  0  0
   58.6400   32.7260   45.4060 C   0  0  0  0  0  0  0  0  0  0  0  0
   58.8790   33.4510   44.4010 O   0  0  0  0  0  0  0  0  0  0  0  0
   57.8410   31.4880   45.2330 C   0  0  0  0  0  0  0  0  0  0  0  0
   56.6440   31.5150   44.4970 C   0  0  0  0  0  0  0  0  0  0  0  0
   55.9270   30.3770   44.3080 N   0  0  0  0  0  0  0  0  0  0  0  0
   56.3350   29.1790   44.8040 C   0  0  0  0  0  0  0  0  0  0  0  0
   57.5280   29.0890   45.5320 C   0  0  0  0  0  0  0  0  0  0  0  0
   58.0270   27.7530   46.0140 C   0  0  0  0  0  0  0  0  0  0  0  0
   56.9570   27.0020   46.6690 N   0  0  0  0  0  0  0  0  0  0  0  0
   56.0860   26.0590   46.0280 C   0  0  0  0  0  0  0  0  0  0  0  0
   54.8520   26.3110   45.9710 O   0  0  0  0  0  0  0  0  0  0  0  0
   56.5960   24.8330   45.3910 C   0  0  0  0  0  0  0  0  0  0  0  0
   57.8630   24.3360   45.7080 C   0  0  0  0  0  0  0  0  0  0  0  0
   58.3460   23.2070   45.0440 C   0  0  0  0  0  0  0  0  0  0  0  0
   57.5960   22.5860   44.0840 N   0  0  0  0  0  0  0  0  0  0  0  0
   58.1330   21.3960   43.4140 C   0  0  0  0  0  0  0  0  0  0  0  0
   56.3310   23.0350   43.7950 C   0  0  0  0  0  0  0  0  0  0  0  0
   55.6180   22.4420   42.9390 O   0  0  0  0  0  0  0  0  0  0  0  0
   55.8160   24.1600   44.4450 C   0  0  0  0  0  0  0  0  0  0  0  0
   58.2720   30.2580   45.7560 C   0  0  0  0  0  0  0  0  0  0  0  0
   60.1873   34.4638   47.9190 H   0  0  0  0  0  0  0  0  0  0  0  0
   60.9956   34.0392   46.3721 H   0  0  0  0  0  0  0  0  0  0  0  0
   59.5817   35.1471   46.3721 H   0  0  0  0  0  0  0  0  0  0  0  0
   58.8220   32.6270   47.5580 H   0  0  0  0  0  0  0  0  0  0  0  0
   56.2855   32.4638   44.0713 H   0  0  0  0  0  0  0  0  0  0  0  0
   55.7269   28.2784   44.6332 H   0  0  0  0  0  0  0  0  0  0  0  0
   58.3982   27.1757   45.1544 H   0  0  0  0  0  0  0  0  0  0  0  0
   58.8348   27.9210   46.7415 H   0  0  0  0  0  0  0  0  0  0  0  0
   58.4757   24.8311   46.4757 H   0  0  0  0  0  0  0  0  0  0  0  0
   59.3414   22.8124   45.2960 H   0  0  0  0  0  0  0  0  0  0  0  0
   58.4619   20.6671   44.1693 H   0  0  0  0  0  0  0  0  0  0  0  0
   57.3511   20.9450   42.7852 H   0  0  0  0  0  0  0  0  0  0  0  0
   58.9884   21.6839   42.7852 H   0  0  0  0  0  0  0  0  0  0  0  0
   54.8009   24.5149   44.2134 H   0  0  0  0  0  0  0  0  0  0  0  0
   59.1995   30.2103   46.3455 H   0  0  0  0  0  0  0  0  0  0  0  0
  1  2  1  0
  2  3  1  0
  3  4  2  0
  3  5  1  0
  5  6  2  0
  6  7  1  0
  7  8  2  0
  8  9  1  0
  9 10  1  0
 10 11  1  0
 11 12  1  0
 12 13  2  0
 12 14  1  0
 14 15  1  0
 15 16  2  0
 16 17  1  0
 17 18  1  0
 17 19  1  0
 19 20  2  0
 19 21  1  0
  9 22  2  0
 22  5  1  0
 21 14  2  0
  1 23  1  0
  1 24  1  0
  1 25  1  0
  2 26  1  0
  6 27  1  0
  8 28  1  0
 10 29  1  0
 10 30  1  0
 15 31  1  0
 16 32  1  0
 18 33  1  0
 18 34  1  0
 18 35  1  0
 21 36  1  0
 22 37  1  0
M  CHG  1  11  -1
M  END
>  <UniqueID>  (15) 
15

>  <SMILES>  (15) 
CNC(=O)c1cncc(C[N-]C(=O)c2ccn(C)c(=O)c2)c1

>  <Energy>  (15) 
39.99918810465659

>  <Genealogy>  (15) 
CNC(=O)c1cncc(C[N-]C(=O)c2ccn(C)c(=O)c2)c1 (protonated)
CNC(=O)c1cncc(C[N-]C(=O)c2ccn(C)c(=O)c2)c1 (3D coordinates assigned)
CNC(=O)c1cncc(C[N-]C(=O)c2ccn(C)c(=O)c2)c1 (optimized conformer: 39.99918810465659 kcal/mol)

>  <smiles>  (15) 
CNC(=O)c1cncc(CNC(=O)c2ccn(C)c(=O)c2)c1

>  <score_type>  (15) 
oracle

>  <origin>  (15) 
adg

>  <m_score__min__energy>  (15) 
-8.9700000000000006

>  <m_primary>  (15) 
energy

$$$$
15:0
     RDKit          3D

 49 52  0  0  0  0  0  0  0  0999 V2000
   54.0150   26.3110   46.4260 H   0  0  0  0  0  0  0  0  0  0  0  0
   54.9270   26.3550   45.9890 O   0  0  0  0  0  0  0  0  0  0  0  0
   55.9830   25.5940   46.4770 C   0  0  0  0  0  0  0  0  0  0  0  0
   55.8310   24.4340   47.1390 N   0  0  0  0  0  0  0  0  0  0  0  0
   57.1070   24.0600   47.3770 C   0  0  0  0  0  0  0  0  0  0  0  0
   57.4010   22.9980   47.9840 O   0  0  0  0  0  0  0  0  0  0  0  0
   58.0440   24.9120   46.9040 N   0  0  0  0  0  0  0  0  0  0  0  0
   57.3160   25.9020   46.3570 C   0  0  0  0  0  0  0  0  0  0  0  0
   57.8740   27.0170   45.5760 C   0  0  0  0  0  0  0  0  0  0  0  0
   57.9665   26.8727   44.4894 H   0  0  0  0  0  0  0  0  0  0  0  0
   58.2810   28.1980   46.0760 C   0  0  0  0  0  0  0  0  0  0  0  0
   58.5870   28.3920   47.4110 C   0  0  0  0  0  0  0  0  0  0  0  0
   58.5921   27.6312   48.2054 H   0  0  0  0  0  0  0  0  0  0  0  0
   58.8850   29.7350   47.5450 C   0  0  0  0  0  0  0  0  0  0  0  0
   59.2590   30.4350   48.7870 C   0  0  0  0  0  0  0  0  0  0  0  0
   58.7180   30.0700   49.8670 O   0  0  0  0  0  0  0  0  0  0  0  0
   60.2190   31.5100   48.8000 N   0  0  0  0  0  0  0  0  0  0  0  0
   61.0430   31.7420   47.6020 C   0  0  0  0  0  0  0  0  0  0  0  0
   61.0817   30.8148   47.0115 H   0  0  0  0  0  0  0  0  0  0  0  0
   62.0483   32.0432   47.9317 H   0  0  0  0  0  0  0  0  0  0  0  0
   60.4680   32.8730   46.7200 C   0  0  0  0  0  0  0  0  0  0  0  0
   60.3037   32.4869   45.7032 H   0  0  0  0  0  0  0  0  0  0  0  0
   61.1875   33.7050   46.7070 H   0  0  0  0  0  0  0  0  0  0  0  0
   59.1780   33.3740   47.2630 N   0  0  0  0  0  0  0  0  0  0  0  0
   58.1960   33.8840   46.2680 C   0  0  0  0  0  0  0  0  0  0  0  0
   57.7464   34.6663   46.8972 H   0  0  0  0  0  0  0  0  0  0  0  0
   58.7550   34.2650   44.8920 C   0  0  0  0  0  0  0  0  0  0  0  0
   58.4949   35.2828   44.5657 H   0  0  0  0  0  0  0  0  0  0  0  0
   59.8406   34.3044   44.7189 H   0  0  0  0  0  0  0  0  0  0  0  0
   57.9050   33.1680   44.2570 C   0  0  0  0  0  0  0  0  0  0  0  0
   57.1506   33.5408   43.5486 H   0  0  0  0  0  0  0  0  0  0  0  0
   58.3764   32.4002   43.6258 H   0  0  0  0  0  0  0  0  0  0  0  0
   57.3400   32.7940   45.6250 C   0  0  0  0  0  0  0  0  0  0  0  0
   56.2564   32.9555   45.7240 H   0  0  0  0  0  0  0  0  0  0  0  0
   57.3913   31.7564   45.9866 H   0  0  0  0  0  0  0  0  0  0  0  0
   59.3710   34.3710   48.3410 C   0  0  0  0  0  0  0  0  0  0  0  0
   58.4034   34.5374   48.8371 H   0  0  0  0  0  0  0  0  0  0  0  0
   59.7633   35.2833   47.8678 H   0  0  0  0  0  0  0  0  0  0  0  0
   60.3950   33.9420   49.4060 C   0  0  0  0  0  0  0  0  0  0  0  0
   60.3036   34.6177   50.2692 H   0  0  0  0  0  0  0  0  0  0  0  0
   61.3894   33.9947   48.9388 H   0  0  0  0  0  0  0  0  0  0  0  0
   60.2010   32.4970   49.8960 C   0  0  0  0  0  0  0  0  0  0  0  0
   59.2325   32.4292   50.4131 H   0  0  0  0  0  0  0  0  0  0  0  0
   61.0411   32.2608   50.5656 H   0  0  0  0  0  0  0  0  0  0  0  0
   58.8230   30.3270   46.3750 O   0  0  0  0  0  0  0  0  0  0  0  0
   58.4860   29.4430   45.4630 C   0  0  0  0  0  0  0  0  0  0  0  0
   58.4530   29.7540   44.1660 C   0  0  0  0  0  0  0  0  0  0  0  0
   58.1670   28.9930   43.4250 H   0  0  0  0  0  0  0  0  0  0  0  0
   58.7118   30.7714   43.8376 H   0  0  0  0  0  0  0  0  0  0  0  0
  1  2  1  0
  2  3  1  0
  3  4  1  0
  4  5  1  0
  5  6  2  0
  5  7  1  0
  7  8  1  0
  8  9  1  0
  9 10  1  0
  9 11  2  0
 11 12  1  0
 12 13  1  0
 12 14  2  0
 14 15  1  0
 15 16  2  0
 15 17  1  0
 17 18  1  0
 18 19  1  0
 18 20  1  0
 18 21  1  0
 21 22  1  0
 21 23  1  0
 21 24  1  0
 24 25  1  0
 25 26  1  0
 25 27  1  0
 27 28  1  0
 27 29  1  0
 27 30  1  0
 30 31  1  0
 30 32  1  0
 30 33  1  0
 33 34  1  0
 33 35  1  0
 24 36  1  0
 36 37  1  0
 36 38  1  0
 36 39  1  0
 39 40  1  0
 39 41  1  0
 39 42  1  0
 42 43  1  0
 42 44  1  0
 14 45  1  0
 45 46  1  0
 46 47  2  0
 47 48  1  0
 47 49  1  0
  8  3  2  0
 46 11  1  0
 42 17  1  0
 33 25  1  0
M  CHG  2   4  -1   7  -1
M  END
>  <UniqueID>  (16) 
16

>  <SMILES>  (16) 
C=c1oc(C(=O)N2CCCN(C3CCC3)CC2)c/c1=C/c1[n-]c(=O)[n-]c1O

>  <Energy>  (16) 
194.62974831984232

>  <Genealogy>  (16) 
C=c1oc(C(=O)N2CCCN(C3CCC3)CC2)cc1=Cc1[n-]c(=O)[n-]c1O (protonated)
C=c1oc(C(=O)N2CCCN(C3CCC3)CC2)c/c1=C/c1[n-]c(=O)[n-]c1O (cis-trans isomerization)
C=c1oc(C(=O)N2CCCN(C3CCC3)CC2)c/c1=C/c1[n-]c(=O)[n-]c1O (3D coordinates assigned)
C=c1oc(C(=O)N2CCCN(C3CCC3)CC2)c/c1=C/c1[n-]c(=O)[n-]c1O (nonaromatic ring conformer: 194.62974831984232 kcal/mol)

>  <smiles>  (16) 
C=c1oc(C(=O)N2CCCN(C3CCC3)CC2)cc1=Cc1[nH]c(=O)[nH]c1O

>  <score_type>  (16) 
oracle

>  <origin>  (16) 
adg

>  <m_score__min__energy>  (16) 
-11.52

>  <m_primary>  (16) 
energy

$$$$
16:0
     RDKit          3D

 56 59  0  0  0  0  0  0  0  0999 V2000
   57.4880   27.7970   43.4280 O   0  0  0  0  0  0  0  0  0  0  0  0
   57.2290   28.2300   44.5860 C   0  0  0  0  0  0  0  0  0  0  0  0
   55.9130   28.7130   44.8760 N   0  0  0  0  0  0  0  0  0  0  0  0
   55.2400   29.7160   44.0630 C   0  0  0  0  0  0  0  0  0  0  0  0
   56.2650   30.4460   43.1970 C   0  0  0  0  0  0  0  0  0  0  0  0
   57.0910   31.3800   44.0320 C   0  0  0  0  0  0  0  0  0  0  0  0
   57.8350   32.4060   43.4350 C   0  0  0  0  0  0  0  0  0  0  0  0
   58.6230   33.2360   44.2330 C   0  0  0  0  0  0  0  0  0  0  0  0
   58.6690   33.0440   45.6230 C   0  0  0  0  0  0  0  0  0  0  0  0
   59.5110   33.9020   46.4860 C   0  0  0  0  0  0  0  0  0  0  0  0
   59.6650   35.1150   46.1790 O   0  0  0  0  0  0  0  0  0  0  0  0
   60.1500   33.3890   47.6710 N   0  0  0  0  0  0  0  0  0  0  0  0
   60.7100   32.0330   47.7110 C   0  0  0  0  0  0  0  0  0  0  0  0
   62.1320   32.0730   48.2850 C   0  0  0  0  0  0  0  0  0  0  0  0
   62.2530   32.8850   49.5300 N   0  0  0  0  0  0  0  0  0  0  0  0
   63.4330   33.7860   49.6430 C   0  0  0  0  0  0  0  0  0  0  0  0
   63.7940   34.1820   51.0760 C   0  0  0  0  0  0  0  0  0  0  0  0
   65.1630   33.5290   50.9030 C   0  0  0  0  0  0  0  0  0  0  0  0
   64.8030   33.1230   49.4780 C   0  0  0  0  0  0  0  0  0  0  0  0
   61.0030   33.5310   49.9900 C   0  0  0  0  0  0  0  0  0  0  0  0
   60.2730   34.2520   48.8500 C   0  0  0  0  0  0  0  0  0  0  0  0
   57.9300   31.9850   46.1740 C   0  0  0  0  0  0  0  0  0  0  0  0
   57.1690   31.1900   45.3770 N   0  0  0  0  0  0  0  0  0  0  0  0
   58.2870   28.2390   45.6270 C   0  0  0  0  0  0  0  0  0  0  0  0
   59.4440   29.0220   45.4400 C   0  0  0  0  0  0  0  0  0  0  0  0
   60.4520   29.0450   46.4080 C   0  0  0  0  0  0  0  0  0  0  0  0
   60.3230   28.2890   47.5740 C   0  0  0  0  0  0  0  0  0  0  0  0
   59.1840   27.5070   47.7750 C   0  0  0  0  0  0  0  0  0  0  0  0
   58.1680   27.4770   46.8120 C   0  0  0  0  0  0  0  0  0  0  0  0
   57.0850   26.6930   47.0430 F   0  0  0  0  0  0  0  0  0  0  0  0
   54.4977   29.2252   43.4164 H   0  0  0  0  0  0  0  0  0  0  0  0
   54.7352   30.4397   44.7198 H   0  0  0  0  0  0  0  0  0  0  0  0
   56.9258   29.7079   42.7189 H   0  0  0  0  0  0  0  0  0  0  0  0
   55.7320   31.0304   42.4325 H   0  0  0  0  0  0  0  0  0  0  0  0
   57.7982   32.5560   42.3459 H   0  0  0  0  0  0  0  0  0  0  0  0
   59.2102   34.0436   43.7715 H   0  0  0  0  0  0  0  0  0  0  0  0
   60.0777   31.3957   48.3467 H   0  0  0  0  0  0  0  0  0  0  0  0
   60.7424   31.6239   46.6904 H   0  0  0  0  0  0  0  0  0  0  0  0
   62.4446   31.0428   48.5105 H   0  0  0  0  0  0  0  0  0  0  0  0
   62.7715   32.5491   47.5271 H   0  0  0  0  0  0  0  0  0  0  0  0
   63.1052   34.5411   48.9134 H   0  0  0  0  0  0  0  0  0  0  0  0
   63.8315   35.2680   51.2472 H   0  0  0  0  0  0  0  0  0  0  0  0
   63.1417   33.8998   51.9155 H   0  0  0  0  0  0  0  0  0  0  0  0
   66.0057   34.2329   50.9681 H   0  0  0  0  0  0  0  0  0  0  0  0
   65.5092   32.7723   51.6224 H   0  0  0  0  0  0  0  0  0  0  0  0
   65.4359   33.5837   48.7052 H   0  0  0  0  0  0  0  0  0  0  0  0
   64.8814   32.0732   49.1590 H   0  0  0  0  0  0  0  0  0  0  0  0
   60.3375   32.7601   50.4058 H   0  0  0  0  0  0  0  0  0  0  0  0
   61.2688   34.2807   50.7498 H   0  0  0  0  0  0  0  0  0  0  0  0
   59.2674   34.5382   49.1919 H   0  0  0  0  0  0  0  0  0  0  0  0
   60.8553   35.1426   48.5711 H   0  0  0  0  0  0  0  0  0  0  0  0
   57.9673   31.7978   47.2573 H   0  0  0  0  0  0  0  0  0  0  0  0
   59.5547   29.6205   44.5237 H   0  0  0  0  0  0  0  0  0  0  0  0
   61.3497   29.6608   46.2503 H   0  0  0  0  0  0  0  0  0  0  0  0
   61.1180   28.3092   48.3340 H   0  0  0  0  0  0  0  0  0  0  0  0
   59.0843   26.9115   48.6945 H   0  0  0  0  0  0  0  0  0  0  0  0
  1  2  2  0
  2  3  1  0
  3  4  1  0
  4  5  1  0
  5  6  1  0
  6  7  2  0
  7  8  1  0
  8  9  2  0
  9 10  1  0
 10 11  2  0
 10 12  1  0
 12 13  1  0
 13 14  1  0
 14 15  1  0
 15 16  1  0
 16 17  1  0
 17 18  1  0
 18 19  1  0
 15 20  1  0
 20 21  1  0
  9 22  1  0
 22 23  2  0
  2 24  1  0
 24 25  2  0
 25 26  1  0
 26 27  2  0
 27 28  1  0
 28 29  2  0
 29 30  1  0
 23  6  1  0
 29 24  1  0
 21 12  1  0
 19 16  1  0
  4 31  1  0
  4 32  1  0
  5 33  1  0
  5 34  1  0
  7 35  1  0
  8 36  1  0
 13 37  1  0
 13 38  1  0
 14 39  1  0
 14 40  1  0
 16 41  1  0
 17 42  1  0
 17 43  1  0
 18 44  1  0
 18 45  1  0
 19 46  1  0
 19 47  1  0
 20 48  1  0
 20 49  1  0
 21 50  1  0
 21 51  1  0
 22 52  1  0
 25 53  1  0
 26 54  1  0
 27 55  1  0
 28 56  1  0
M  CHG  1   3  -1
M  END
>  <UniqueID>  (17) 
17

>  <SMILES>  (17) 
O=C([N-]CCc1ccc(C(=O)N2CCN(C3CCC3)CC2)cn1)c1ccccc1F

>  <Energy>  (17) 
133.70032148583863

>  <Genealogy>  (17) 
O=C([N-]CCc1ccc(C(=O)N2CCN(C3CCC3)CC2)cn1)c1ccccc1F (protonated)
O=C([N-]CCc1ccc(C(=O)N2CCN(C3CCC3)CC2)cn1)c1ccccc1F (3D coordinates assigned)
O=C([N-]CCc1ccc(C(=O)N2CCN(C3CCC3)CC2)cn1)c1ccccc1F (nonaromatic ring conformer: 133.70032148583863 kcal/mol)

>  <smiles>  (17) 
O=C(NCCc1ccc(C(=O)N2CCN(C3CCC3)CC2)cn1)c1ccccc1F

>  <score_type>  (17) 
oracle

>  <origin>  (17) 
adg

>  <m_score__min__energy>  (17) 
-10.619999999999999

>  <m_primary>  (17) 
energy

$$$$
17:0
     RDKit          3D

 61 65  0  0  0  0  0  0  0  0999 V2000
   56.5120   33.6190   45.9250 O   0  0  0  0  0  0  0  0  0  0  0  0
   57.3580   32.7520   45.5840 C   0  0  0  0  0  0  0  0  0  0  0  0
   56.9360   31.6820   44.7250 N   0  0  0  0  0  0  0  0  0  0  0  0
   57.1270   30.4110   44.9290 C   0  0  0  0  0  0  0  0  0  0  0  0
   57.3910   29.9150   46.1570 N   0  0  0  0  0  0  0  0  0  0  0  0
   57.5950   28.5720   46.1280 C   0  0  0  0  0  0  0  0  0  0  0  0
   57.5010   27.9960   44.8650 C   0  0  0  0  0  0  0  0  0  0  0  0
   57.6760   26.5450   44.5460 C   0  0  0  0  0  0  0  0  0  0  0  0
   57.1850   25.7010   45.6820 C   0  0  0  0  0  0  0  0  0  0  0  0
   57.8730   24.6730   46.2140 N   0  0  0  0  0  0  0  0  0  0  0  0
   57.0280   24.1870   47.1500 C   0  0  0  0  0  0  0  0  0  0  0  0
   57.3210   23.2040   47.8780 O   0  0  0  0  0  0  0  0  0  0  0  0
   55.8460   24.8330   47.2380 N   0  0  0  0  0  0  0  0  0  0  0  0
   55.9600   25.7850   46.2980 C   0  0  0  0  0  0  0  0  0  0  0  0
   54.9630   26.7080   46.0040 O   0  0  0  0  0  0  0  0  0  0  0  0
   57.1600   29.2050   43.7450 S   0  0  0  0  0  0  0  0  0  0  0  0
   58.7660   32.9040   46.0180 C   0  0  0  0  0  0  0  0  0  0  0  0
   59.5330   31.7810   46.3720 C   0  0  0  0  0  0  0  0  0  0  0  0
   60.8630   31.9300   46.7720 C   0  0  0  0  0  0  0  0  0  0  0  0
   61.4530   33.2010   46.8060 C   0  0  0  0  0  0  0  0  0  0  0  0
   63.1520   33.3800   47.2470 S   0  0  0  0  0  0  0  0  0  0  0  0
   63.7720   34.4510   46.3940 O   0  0  0  0  0  0  0  0  0  0  0  0
   63.8730   32.0890   46.9680 O   0  0  0  0  0  0  0  0  0  0  0  0
   63.3420   33.8020   48.9360 N   0  0  0  0  0  0  0  0  0  0  0  0
   62.0570   34.2530   49.5280 C   0  0  0  0  0  0  0  0  0  0  0  0
   61.3550   33.1360   50.3180 C   0  0  0  0  0  0  0  0  0  0  0  0
   62.1920   32.6330   51.4370 N   0  0  0  0  0  0  0  0  0  0  0  0
   61.8320   31.2430   51.7930 C   0  0  0  0  0  0  0  0  0  0  0  0
   60.8370   30.6620   50.8170 C   0  0  0  0  0  0  0  0  0  0  0  0
   61.2780   29.9510   49.6880 C   0  0  0  0  0  0  0  0  0  0  0  0
   60.3510   29.4210   48.7850 C   0  0  0  0  0  0  0  0  0  0  0  0
   58.9820   29.5990   48.9980 C   0  0  0  0  0  0  0  0  0  0  0  0
   58.5360   30.3060   50.1160 C   0  0  0  0  0  0  0  0  0  0  0  0
   59.4590   30.8330   51.0260 C   0  0  0  0  0  0  0  0  0  0  0  0
   63.6500   32.7550   51.1770 C   0  0  0  0  0  0  0  0  0  0  0  0
   63.9740   32.6850   49.6770 C   0  0  0  0  0  0  0  0  0  0  0  0
   60.6920   34.3240   46.4510 C   0  0  0  0  0  0  0  0  0  0  0  0
   59.3610   34.1760   46.0520 C   0  0  0  0  0  0  0  0  0  0  0  0
   57.8171   27.9861   47.0321 H   0  0  0  0  0  0  0  0  0  0  0  0
   57.1037   26.3012   43.6388 H   0  0  0  0  0  0  0  0  0  0  0  0
   58.7445   26.3403   44.3834 H   0  0  0  0  0  0  0  0  0  0  0  0
   59.0830   30.7780   46.3339 H   0  0  0  0  0  0  0  0  0  0  0  0
   61.4500   31.0459   47.0616 H   0  0  0  0  0  0  0  0  0  0  0  0
   64.0030   34.6140   48.9610 H   0  0  0  0  0  0  0  0  0  0  0  0
   62.2565   35.0950   50.2071 H   0  0  0  0  0  0  0  0  0  0  0  0
   61.3926   34.5509   48.7035 H   0  0  0  0  0  0  0  0  0  0  0  0
   60.4134   33.5296   50.7284 H   0  0  0  0  0  0  0  0  0  0  0  0
   61.1706   32.2982   49.6294 H   0  0  0  0  0  0  0  0  0  0  0  0
   62.7420   30.6251   51.7861 H   0  0  0  0  0  0  0  0  0  0  0  0
   61.3715   31.2507   52.7920 H   0  0  0  0  0  0  0  0  0  0  0  0
   62.3551   29.8110   49.5141 H   0  0  0  0  0  0  0  0  0  0  0  0
   60.7009   28.8623   47.9044 H   0  0  0  0  0  0  0  0  0  0  0  0
   58.2555   29.1822   48.2849 H   0  0  0  0  0  0  0  0  0  0  0  0
   57.4580   30.4489   50.2817 H   0  0  0  0  0  0  0  0  0  0  0  0
   59.1035   31.3838   51.9093 H   0  0  0  0  0  0  0  0  0  0  0  0
   64.0018   33.7195   51.5719 H   0  0  0  0  0  0  0  0  0  0  0  0
   64.1557   31.9139   51.6738 H   0  0  0  0  0  0  0  0  0  0  0  0
   65.0645   32.7382   49.5433 H   0  0  0  0  0  0  0  0  0  0  0  0
   63.5785   31.7382   49.2806 H   0  0  0  0  0  0  0  0  0  0  0  0
   61.1448   35.3259   46.4868 H   0  0  0  0  0  0  0  0  0  0  0  0
   58.7755   35.0612   45.7627 H   0  0  0  0  0  0  0  0  0  0  0  0
  1  2  2  0
  2  3  1  0
  3  4  2  3
  4  5  1  0
  5  6  1  0
  6  7  2  0
  7  8  1  0
  8  9  1  0
  9 10  1  0
 10 11  1  0
 11 12  2  0
 11 13  1  0
 13 14  1  0
 14 15  1  0
  7 16  1  0
  2 17  1  0
 17 18  2  0
 18 19  1  0
 19 20  2  0
 20 21  1  0
 21 22  2  0
 21 23  2  0
 21 24  1  0
 24 25  1  0
 25 26  1  0
 26 27  1  0
 27 28  1  0
 28 29  1  0
 29 30  2  0
 30 31  1  0
 31 32  2  0
 32 33  1  0
 33 34  2  0
 27 35  1  0
 35 36  1  0
 20 37  1  0
 37 38  2  0
 16  4  1  0
 38 17  1  0
 14  9  2  0
 36 24  1  0
 34 29  1  0
  6 39  1  0
  8 40  1  0
  8 41  1  0
 18 42  1  0
 19 43  1  0
 24 44  1  0
 25 45  1  0
 25 46  1  0
 26 47  1  0
 26 48  1  0
 28 49  1  0
 28 50  1  0
 30 51  1  0
 31 52  1  0
 32 53  1  0
 33 54  1  0
 34 55  1  0
 35 56  1  0
 35 57  1  0
 36 58  1  0
 36 59  1  0
 37 60  1  0
 38 61  1  0
M  CHG  5   5  -1  10  -1  13  -1  15  -1  24   1
M  END
>  <UniqueID>  (18) 
18

>  <SMILES>  (18) 
O=C(N=c1[n-]cc(Cc2[n-]c(=O)[n-]c2[O-])s1)c1ccc(S(=O)(=O)[NH+]2CCN(Cc3ccccc3)CC2)cc1

>  <Energy>  (18) 
141.9476036953751

>  <Genealogy>  (18) 
O=C(N=c1[n-]cc(Cc2[n-]c(=O)[n-]c2[O-])s1)c1ccc(S(=O)(=O)[NH+]2CCN(Cc3ccccc3)CC2)cc1 (protonated)
O=C(N=c1[n-]cc(Cc2[n-]c(=O)[n-]c2[O-])s1)c1ccc(S(=O)(=O)[NH+]2CCN(Cc3ccccc3)CC2)cc1 (3D coordinates assigned)
O=C(N=c1[n-]cc(Cc2[n-]c(=O)[n-]c2[O-])s1)c1ccc(S(=O)(=O)[NH+]2CCN(Cc3ccccc3)CC2)cc1 (nonaromatic ring conformer: 141.9476036953751 kcal/mol)

>  <smiles>  (18) 
O=C(N=c1[nH]cc(Cc2[nH]c(=O)[nH]c2O)s1)c1ccc(S(=O)(=O)N2CCN(Cc3ccccc3)CC2)cc1

>  <score_type>  (18) 
oracle

>  <origin>  (18) 
adg

>  <m_score__min__energy>  (18) 
-20.239999999999998

>  <m_primary>  (18) 
energy

$$$$
18:0
     RDKit          3D

 68 71  0  0  0  0  0  0  0  0999 V2000
   58.2290   32.3850   48.4740 C   0  0  0  0  0  0  0  0  0  0  0  0
   58.1250   33.5170   47.4520 C   0  0  0  0  0  0  0  0  0  0  0  0
   59.1280   34.6520   47.7130 C   0  0  0  0  0  0  0  0  0  0  0  0
   59.6490   35.3190   46.4300 C   0  0  0  0  0  0  0  0  0  0  0  0
   60.5840   34.4820   45.7470 O   0  0  0  0  0  0  0  0  0  0  0  0
   61.4810   33.5910   46.3580 C   0  0  0  0  0  0  0  0  0  0  0  0
   62.8650   33.8380   46.4400 C   0  0  0  0  0  0  0  0  0  0  0  0
   63.7080   32.9160   47.0650 C   0  0  0  0  0  0  0  0  0  0  0  0
   63.1830   31.7460   47.6160 C   0  0  0  0  0  0  0  0  0  0  0  0
   61.8080   31.4880   47.5400 C   0  0  0  0  0  0  0  0  0  0  0  0
   61.2330   30.2970   48.1900 C   0  0  0  0  0  0  0  0  0  0  0  0
   60.9930   30.1800   49.5600 C   0  0  0  0  0  0  0  0  0  0  0  0
   61.3360   31.1440   50.6270 C   0  0  0  0  0  0  0  0  0  0  0  0
   60.4840   31.4050   51.5190 O   0  0  0  0  0  0  0  0  0  0  0  0
   62.6460   31.8180   50.6700 C   0  0  0  0  0  0  0  0  0  0  0  0
   63.8220   31.0650   50.8040 C   0  0  0  0  0  0  0  0  0  0  0  0
   65.0630   31.7050   50.8800 C   0  0  0  0  0  0  0  0  0  0  0  0
   65.1430   33.1050   50.8190 C   0  0  0  0  0  0  0  0  0  0  0  0
   66.4770   33.7850   50.8740 C   0  0  0  0  0  0  0  0  0  0  0  0
   63.9710   33.8540   50.6390 C   0  0  0  0  0  0  0  0  0  0  0  0
   62.7300   33.2150   50.5660 C   0  0  0  0  0  0  0  0  0  0  0  0
   60.2190   29.0480   49.7120 C   0  0  0  0  0  0  0  0  0  0  0  0
   59.7110   28.5520   50.9100 O   0  0  0  0  0  0  0  0  0  0  0  0
   60.0170   28.5230   48.4590 C   0  0  0  0  0  0  0  0  0  0  0  0
   59.2310   27.4100   48.1820 O   0  0  0  0  0  0  0  0  0  0  0  0
   60.6400   29.2710   47.5220 N   0  0  0  0  0  0  0  0  0  0  0  0
   60.4990   29.1100   46.0690 C   0  0  0  0  0  0  0  0  0  0  0  0
   59.1450   28.4960   45.6420 C   0  0  0  0  0  0  0  0  0  0  0  0
   58.1080   29.4480   45.1890 N   0  0  0  0  0  0  0  0  0  0  0  0
   57.4060   29.0690   43.9550 C   0  0  0  0  0  0  0  0  0  0  0  0
   56.1780   29.9820   43.7530 C   0  0  0  0  0  0  0  0  0  0  0  0
   56.1820   31.1080   44.6160 O   0  0  0  0  0  0  0  0  0  0  0  0
   57.4400   31.7520   44.5640 C   0  0  0  0  0  0  0  0  0  0  0  0
   58.5300   30.8610   45.1870 C   0  0  0  0  0  0  0  0  0  0  0  0
   60.9640   32.4160   46.9170 C   0  0  0  0  0  0  0  0  0  0  0  0
   58.1905   32.8039   49.4904 H   0  0  0  0  0  0  0  0  0  0  0  0
   57.3913   31.6861   48.3335 H   0  0  0  0  0  0  0  0  0  0  0  0
   59.1800   31.8504   48.3335 H   0  0  0  0  0  0  0  0  0  0  0  0
   58.3149   33.1041   46.4503 H   0  0  0  0  0  0  0  0  0  0  0  0
   57.1145   33.9439   47.5338 H   0  0  0  0  0  0  0  0  0  0  0  0
   58.6336   35.4187   48.3276 H   0  0  0  0  0  0  0  0  0  0  0  0
   59.9960   34.2055   48.2202 H   0  0  0  0  0  0  0  0  0  0  0  0
   58.7986   35.5235   45.7629 H   0  0  0  0  0  0  0  0  0  0  0  0
   60.1608   36.2517   46.7094 H   0  0  0  0  0  0  0  0  0  0  0  0
   63.2836   34.7601   46.0104 H   0  0  0  0  0  0  0  0  0  0  0  0
   64.7887   33.1126   47.1231 H   0  0  0  0  0  0  0  0  0  0  0  0
   63.8502   31.0250   48.1110 H   0  0  0  0  0  0  0  0  0  0  0  0
   63.7677   29.9673   50.8495 H   0  0  0  0  0  0  0  0  0  0  0  0
   65.9809   31.1085   50.9881 H   0  0  0  0  0  0  0  0  0  0  0  0
   66.7695   33.9341   51.9239 H   0  0  0  0  0  0  0  0  0  0  0  0
   67.2283   33.1599   50.3693 H   0  0  0  0  0  0  0  0  0  0  0  0
   66.4125   34.7602   50.3693 H   0  0  0  0  0  0  0  0  0  0  0  0
   64.0287   34.9493   50.5549 H   0  0  0  0  0  0  0  0  0  0  0  0
   61.8152   33.8097   50.4264 H   0  0  0  0  0  0  0  0  0  0  0  0
   59.6780   29.1310   51.7410 H   0  0  0  0  0  0  0  0  0  0  0  0
   60.5958   30.0996   45.5985 H   0  0  0  0  0  0  0  0  0  0  0  0
   61.2857   28.4132   45.7440 H   0  0  0  0  0  0  0  0  0  0  0  0
   59.3401   27.7952   44.8169 H   0  0  0  0  0  0  0  0  0  0  0  0
   58.7364   28.0268   46.5492 H   0  0  0  0  0  0  0  0  0  0  0  0
   58.0875   29.1782   43.0985 H   0  0  0  0  0  0  0  0  0  0  0  0
   57.0734   28.0233   44.0319 H   0  0  0  0  0  0  0  0  0  0  0  0
   56.1716   30.3372   42.7119 H   0  0  0  0  0  0  0  0  0  0  0  0
   55.2820   29.3885   43.9873 H   0  0  0  0  0  0  0  0  0  0  0  0
   57.6976   31.9583   43.5147 H   0  0  0  0  0  0  0  0  0  0  0  0
   57.3816   32.6917   45.1329 H   0  0  0  0  0  0  0  0  0  0  0  0
   59.4562   30.9607   44.6020 H   0  0  0  0  0  0  0  0  0  0  0  0
   58.6990   31.1817   46.2255 H   0  0  0  0  0  0  0  0  0  0  0  0
   59.8829   32.2195   46.8663 H   0  0  0  0  0  0  0  0  0  0  0  0
  1  2  1  0
  2  3  1  0
  3  4  1  0
  4  5  1  0
  5  6  1  0
  6  7  2  0
  7  8  1  0
  8  9  2  0
  9 10  1  0
 10 11  1  0
 11 12  2  0
 12 13  1  0
 13 14  2  0
 13 15  1  0
 15 16  2  0
 16 17  1  0
 17 18  2  0
 18 19  1  0
 18 20  1  0
 20 21  2  0
 12 22  1  0
 22 23  1  0
 22 24  2  0
 24 25  1  0
 24 26  1  0
 26 27  1  0
 27 28  1  0
 28 29  1  0
 29 30  1  0
 30 31  1  0
 31 32  1  0
 32 33  1  0
 33 34  1  0
 10 35  2  0
 35  6  1  0
 26 11  1  0
 34 29  1  0
 21 15  1  0
  1 36  1  0
  1 37  1  0
  1 38  1  0
  2 39  1  0
  2 40  1  0
  3 41  1  0
  3 42  1  0
  4 43  1  0
  4 44  1  0
  7 45  1  0
  8 46  1  0
  9 47  1  0
 16 48  1  0
 17 49  1  0
 19 50  1  0
 19 51  1  0
 19 52  1  0
 20 53  1  0
 21 54  1  0
 23 55  1  0
 27 56  1  0
 27 57  1  0
 28 58  1  0
 28 59  1  0
 30 60  1  0
 30 61  1  0
 31 62  1  0
 31 63  1  0
 33 64  1  0
 33 65  1  0
 34 66  1  0
 34 67  1  0
 35 68  1  0
M  CHG  1  25  -1
M  END
>  <UniqueID>  (19) 
19

>  <SMILES>  (19) 
CCCCOc1cccc(-c2c(C(=O)c3ccc(C)cc3)c(O)c([O-])n2CCN2CCOCC2)c1

>  <Energy>  (19) 
116.9522516868081

>  <Genealogy>  (19) 
CCCCOc1cccc(-c2c(C(=O)c3ccc(C)cc3)c(O)c([O-])n2CCN2CCOCC2)c1 (protonated)
CCCCOc1cccc(-c2c(C(=O)c3ccc(C)cc3)c(O)c([O-])n2CCN2CCOCC2)c1 (3D coordinates assigned)
CCCCOc1cccc(-c2c(C(=O)c3ccc(C)cc3)c(O)c([O-])n2CCN2CCOCC2)c1 (nonaromatic ring conformer: 116.9522516868081 kcal/mol)

>  <smiles>  (19) 
CCCCOc1cccc(-c2c(C(=O)c3ccc(C)cc3)c(O)c(O)n2CCN2CCOCC2)c1

>  <score_type>  (19) 
oracle

>  <origin>  (19) 
adg

>  <m_score__min__energy>  (19) 
-10.69

>  <m_primary>  (19) 
energy

$$$$
19:0
     RDKit          3D

 57 61  0  0  0  0  0  0  0  0999 V2000
   60.7460   26.7150   49.0690 O   0  0  0  0  0  0  0  0  0  0  0  0
   60.2380   27.7680   48.5950 C   0  0  0  0  0  0  0  0  0  0  0  0
   59.7980   27.7840   47.1830 C   0  0  0  0  0  0  0  0  0  0  0  0
   60.1670   28.8460   46.3410 C   0  0  0  0  0  0  0  0  0  0  0  0
   59.7510   28.8660   45.0060 C   0  0  0  0  0  0  0  0  0  0  0  0
   58.9550   27.8330   44.5050 C   0  0  0  0  0  0  0  0  0  0  0  0
   58.5660   26.7810   45.3400 C   0  0  0  0  0  0  0  0  0  0  0  0
   57.4610   25.3810   44.6600 Br  0  0  0  0  0  0  0  0  0  0  0  0
   58.9790   26.7590   46.6770 C   0  0  0  0  0  0  0  0  0  0  0  0
   60.0940   28.9260   49.4370 N   0  0  0  0  0  0  0  0  0  0  0  0
   61.0550   29.1670   50.5190 C   0  0  0  0  0  0  0  0  0  0  0  0
   61.1820   30.6770   50.7480 C   0  0  0  0  0  0  0  0  0  0  0  0
   59.8730   31.3190   51.0340 N   0  0  0  0  0  0  0  0  0  0  0  0
   59.8050   32.7700   50.7360 C   0  0  0  0  0  0  0  0  0  0  0  0
   59.8410   33.1120   49.2440 C   0  0  0  0  0  0  0  0  0  0  0  0
   58.6630   33.0550   48.5550 N   0  0  0  0  0  0  0  0  0  0  0  0
   58.5770   33.4320   47.2530 C   0  0  0  0  0  0  0  0  0  0  0  0
   57.3400   33.4110   46.5860 C   0  0  0  0  0  0  0  0  0  0  0  0
   57.2560   33.8060   45.2480 C   0  0  0  0  0  0  0  0  0  0  0  0
   58.4030   34.2180   44.5660 C   0  0  0  0  0  0  0  0  0  0  0  0
   59.6380   34.2350   45.2180 C   0  0  0  0  0  0  0  0  0  0  0  0
   59.7320   33.8470   46.5690 C   0  0  0  0  0  0  0  0  0  0  0  0
   60.9530   33.8330   47.2590 C   0  0  0  0  0  0  0  0  0  0  0  0
   62.0130   34.1540   46.6490 O   0  0  0  0  0  0  0  0  0  0  0  0
   61.0040   33.4530   48.5790 N   0  0  0  0  0  0  0  0  0  0  0  0
   62.3010   33.3370   49.2030 C   0  0  0  0  0  0  0  0  0  0  0  0
   62.6730   34.2130   50.2390 C   0  0  0  0  0  0  0  0  0  0  0  0
   63.9480   34.1300   50.8070 C   0  0  0  0  0  0  0  0  0  0  0  0
   64.8690   33.1950   50.3290 C   0  0  0  0  0  0  0  0  0  0  0  0
   64.5210   32.3470   49.2740 C   0  0  0  0  0  0  0  0  0  0  0  0
   63.2470   32.4260   48.7030 C   0  0  0  0  0  0  0  0  0  0  0  0
   58.6750   30.5440   50.6490 C   0  0  0  0  0  0  0  0  0  0  0  0
   58.8870   29.7610   49.3480 C   0  0  0  0  0  0  0  0  0  0  0  0
   60.7862   29.6660   46.7336 H   0  0  0  0  0  0  0  0  0  0  0  0
   60.0509   29.6961   44.3496 H   0  0  0  0  0  0  0  0  0  0  0  0
   58.6340   27.8472   43.4530 H   0  0  0  0  0  0  0  0  0  0  0  0
   58.6616   25.9365   47.3348 H   0  0  0  0  0  0  0  0  0  0  0  0
   60.7009   28.6829   51.4411 H   0  0  0  0  0  0  0  0  0  0  0  0
   62.0350   28.7495   50.2448 H   0  0  0  0  0  0  0  0  0  0  0  0
   61.8540   30.8495   51.6017 H   0  0  0  0  0  0  0  0  0  0  0  0
   61.5799   31.1237   49.8249 H   0  0  0  0  0  0  0  0  0  0  0  0
   58.8681   33.1640   51.1567 H   0  0  0  0  0  0  0  0  0  0  0  0
   60.7010   33.2246   51.1838 H   0  0  0  0  0  0  0  0  0  0  0  0
   57.8000   32.7160   49.0390 H   0  0  0  0  0  0  0  0  0  0  0  0
   56.4353   33.0827   47.1187 H   0  0  0  0  0  0  0  0  0  0  0  0
   56.2850   33.7924   44.7313 H   0  0  0  0  0  0  0  0  0  0  0  0
   58.3336   34.5297   43.5134 H   0  0  0  0  0  0  0  0  0  0  0  0
   60.5403   34.5524   44.6748 H   0  0  0  0  0  0  0  0  0  0  0  0
   61.9585   34.9658   50.6034 H   0  0  0  0  0  0  0  0  0  0  0  0
   64.2263   34.8024   51.6319 H   0  0  0  0  0  0  0  0  0  0  0  0
   65.8685   33.1261   50.7831 H   0  0  0  0  0  0  0  0  0  0  0  0
   65.2499   31.6168   48.8925 H   0  0  0  0  0  0  0  0  0  0  0  0
   62.9841   31.7720   47.8585 H   0  0  0  0  0  0  0  0  0  0  0  0
   58.4377   29.8343   51.4552 H   0  0  0  0  0  0  0  0  0  0  0  0
   57.8507   31.2540   50.4861 H   0  0  0  0  0  0  0  0  0  0  0  0
   58.0141   29.1164   49.1677 H   0  0  0  0  0  0  0  0  0  0  0  0
   59.0102   30.4752   48.5205 H   0  0  0  0  0  0  0  0  0  0  0  0
  1  2  2  0
  2  3  1  0
  3  4  2  0
  4  5  1  0
  5  6  2  0
  6  7  1  0
  7  8  1  0
  7  9  2  0
  2 10  1  0
 10 11  1  0
 11 12  1  0
 12 13  1  0
 13 14  1  0
 14 15  1  0
 15 16  2  0
 16 17  1  0
 17 18  2  0
 18 19  1  0
 19 20  2  0
 20 21  1  0
 21 22  2  0
 22 23  1  0
 23 24  2  0
 23 25  1  0
 25 26  1  0
 26 27  2  0
 27 28  1  0
 28 29  2  0
 29 30  1  0
 30 31  2  0
 13 32  1  0
 32 33  1  0
  9  3  1  0
 33 10  1  0
 25 15  1  0
 31 26  1  0
 22 17  1  0
  4 34  1  0
  5 35  1  0
  6 36  1  0
  9 37  1  0
 11 38  1  0
 11 39  1  0
 12 40  1  0
 12 41  1  0
 14 42  1  0
 14 43  1  0
 16 44  1  0
 18 45  1  0
 19 46  1  0
 20 47  1  0
 21 48  1  0
 27 49  1  0
 28 50  1  0
 29 51  1  0
 30 52  1  0
 31 53  1  0
 32 54  1  0
 32 55  1  0
 33 56  1  0
 33 57  1  0
M  CHG  1  16   1
M  END
>  <UniqueID>  (20) 
20

>  <SMILES>  (20) 
O=C(c1cccc(Br)c1)N1CCN(Cc2[nH+]c3ccccc3c(=O)n2-c2ccccc2)CC1

>  <Energy>  (20) 
92.09589247586695

>  <Genealogy>  (20) 
O=C(c1cccc(Br)c1)N1CCN(Cc2[nH+]c3ccccc3c(=O)n2-c2ccccc2)CC1 (protonated)
O=C(c1cccc(Br)c1)N1CCN(Cc2[nH+]c3ccccc3c(=O)n2-c2ccccc2)CC1 (3D coordinates assigned)
O=C(c1cccc(Br)c1)N1CCN(Cc2[nH+]c3ccccc3c(=O)n2-c2ccccc2)CC1 (nonaromatic ring conformer: 92.09589247586695 kcal/mol)

>  <smiles>  (20) 
O=C(c1cccc(Br)c1)N1CCN(Cc2nc3ccccc3c(=O)n2-c2ccccc2)CC1

>  <score_type>  (20) 
oracle

>  <origin>  (20) 
adg

>  <m_score__min__energy>  (20) 
-8.2200000000000006

>  <m_primary>  (20) 
energy

$$$$
20:0
     RDKit          3D

 43 45  0  0  1  0  0  0  0  0999 V2000
   58.6230   34.3960   46.2160 C   0  0  0  0  0  0  0  0  0  0  0  0
   58.3620   32.9780   45.8290 C   0  0  0  0  0  0  0  0  0  0  0  0
   57.8760   32.7120   44.5710 C   0  0  0  0  0  0  0  0  0  0  0  0
   57.6270   31.4140   44.1870 C   0  0  0  0  0  0  0  0  0  0  0  0
   57.0060   31.0670   42.5790 Cl  0  0  0  0  0  0  0  0  0  0  0  0
   57.8690   30.3780   45.0770 C   0  0  0  0  0  0  0  0  0  0  0  0
   57.7260   29.0570   44.9820 N   0  0  0  0  0  0  0  0  0  0  0  0
   58.1010   28.4660   46.1320 C   0  0  0  0  0  0  0  0  0  0  0  0
   58.0510   26.9950   46.3240 C   0  0  2  0  0  0  0  0  0  0  0  0
   59.3620   26.4170   46.7260 C   0  0  0  0  0  0  0  0  0  0  0  0
   57.5820   26.3210   45.1290 N   0  0  0  0  0  0  0  0  0  0  0  0
   58.1120   26.5260   43.8160 C   0  0  0  0  0  0  0  0  0  0  0  0
   56.5110   25.3890   45.3040 C   0  0  0  0  0  0  0  0  0  0  0  0
   55.8540   25.3200   46.3830 O   0  0  0  0  0  0  0  0  0  0  0  0
   56.1200   24.4500   44.2060 C   0  0  0  0  0  0  0  0  0  0  0  0
   56.5760   23.0910   44.5890 C   0  0  0  0  0  0  0  0  0  0  0  0
   57.0150   22.8180   45.8520 N   0  0  0  0  0  0  0  0  0  0  0  0
   57.3490   21.5090   45.8570 C   0  0  0  0  0  0  0  0  0  0  0  0
   57.7960   20.9450   46.8930 O   0  0  0  0  0  0  0  0  0  0  0  0
   57.1330   20.9700   44.6440 N   0  0  0  0  0  0  0  0  0  0  0  0
   56.6450   21.9530   43.8320 C   0  0  0  0  0  0  0  0  0  0  0  0
   56.2890   21.8260   42.5090 O   0  0  0  0  0  0  0  0  0  0  0  0
   58.4920   29.4350   46.9750 N   0  0  0  0  0  0  0  0  0  0  0  0
   58.3540   30.6240   46.3360 C   0  0  0  0  0  0  0  0  0  0  0  0
   58.6000   31.9350   46.7080 C   0  0  0  0  0  0  0  0  0  0  0  0
   58.6384   34.4799   47.3127 H   0  0  0  0  0  0  0  0  0  0  0  0
   59.5947   34.7139   45.8102 H   0  0  0  0  0  0  0  0  0  0  0  0
   57.8281   35.0391   45.8102 H   0  0  0  0  0  0  0  0  0  0  0  0
   57.6858   33.5380   43.8699 H   0  0  0  0  0  0  0  0  0  0  0  0
   57.3395   26.8292   47.1464 H   0  0  0  0  0  0  0  0  0  0  0  0
   59.4287   26.3876   47.8236 H   0  0  0  0  0  0  0  0  0  0  0  0
   59.4509   25.3963   46.3258 H   0  0  0  0  0  0  0  0  0  0  0  0
   60.1755   27.0399   46.3258 H   0  0  0  0  0  0  0  0  0  0  0  0
   59.1355   26.9219   43.8914 H   0  0  0  0  0  0  0  0  0  0  0  0
   58.1280   25.5692   43.2735 H   0  0  0  0  0  0  0  0  0  0  0  0
   57.4800   27.2445   43.2735 H   0  0  0  0  0  0  0  0  0  0  0  0
   55.0273   24.4564   44.0793 H   0  0  0  0  0  0  0  0  0  0  0  0
   56.5807   24.7566   43.2553 H   0  0  0  0  0  0  0  0  0  0  0  0
   57.0740   23.5110   46.6560 H   0  0  0  0  0  0  0  0  0  0  0  0
   57.3110   19.9570   44.3730 H   0  0  0  0  0  0  0  0  0  0  0  0
   56.4910   22.5350   41.8010 H   0  0  0  0  0  0  0  0  0  0  0  0
   58.8380   29.2930   47.9490 H   0  0  0  0  0  0  0  0  0  0  0  0
   58.9892   32.1504   47.7140 H   0  0  0  0  0  0  0  0  0  0  0  0
  1  2  1  0
  2  3  2  0
  3  4  1  0
  4  5  1  0
  4  6  2  0
  6  7  1  0
  7  8  2  0
  8  9  1  0
  9 10  1  0
  9 11  1  0
 11 12  1  0
 11 13  1  0
 13 14  2  0
 13 15  1  0
 15 16  1  0
 16 17  1  0
 17 18  1  0
 18 19  2  0
 18 20  1  0
 20 21  1  0
 21 22  1  0
  8 23  1  0
 23 24  1  0
 24 25  2  0
 25  2  1  0
 24  6  1  0
 21 16  2  0
  1 26  1  0
  1 27  1  0
  1 28  1  0
  3 29  1  0
  9 30  1  1
 10 31  1  0
 10 32  1  0
 10 33  1  0
 12 34  1  0
 12 35  1  0
 12 36  1  0
 15 37  1  0
 15 38  1  0
 17 39  1  0
 20 40  1  0
 22 41  1  0
 23 42  1  0
 25 43  1  0
M  END
>  <smiles>  (21) 
Cc1cc(Cl)c2nc(C(C)N(C)C(=O)Cc3[nH]c(=O)[nH]c3O)[nH]c2c1

>  <score_type>  (21) 
oracle

>  <origin>  (21) 
adg

>  <m_score__min__energy>  (21) 
-8.7200000000000006

>  <m_primary>  (21) 
energy

$$$$
21:0
     RDKit          3D

 74 78  0  0  0  0  0  0  0  0999 V2000
   60.5530   32.6160   53.5380 C   0  0  0  0  0  0  0  0  0  0  0  0
   59.6750   31.7340   52.7610 N   0  0  0  0  0  0  0  0  0  0  0  0
   59.4750   30.3960   53.2400 C   0  0  0  0  0  0  0  0  0  0  0  0
   60.3660   29.5280   53.0190 O   0  0  0  0  0  0  0  0  0  0  0  0
   58.2570   30.0280   54.0010 C   0  0  0  0  0  0  0  0  0  0  0  0
   57.8790   30.7600   55.1430 C   0  0  0  0  0  0  0  0  0  0  0  0
   56.7130   30.4390   55.8390 C   0  0  0  0  0  0  0  0  0  0  0  0
   55.9110   29.3800   55.4120 C   0  0  0  0  0  0  0  0  0  0  0  0
   56.2790   28.6270   54.2850 C   0  0  0  0  0  0  0  0  0  0  0  0
   55.4030   27.4960   53.8160 C   0  0  0  0  0  0  0  0  0  0  0  0
   54.0120   27.9410   53.7090 N   0  0  0  0  0  0  0  0  0  0  0  0
   52.9320   27.3030   54.2160 C   0  0  0  0  0  0  0  0  0  0  0  0
   51.7680   28.0030   53.9290 C   0  0  0  0  0  0  0  0  0  0  0  0
   52.1770   29.1130   53.2240 C   0  0  0  0  0  0  0  0  0  0  0  0
   51.4350   30.1530   52.6730 C   0  0  0  0  0  0  0  0  0  0  0  0
   52.1200   31.1810   51.9880 C   0  0  0  0  0  0  0  0  0  0  0  0
   51.3730   32.3060   51.3770 C   0  0  0  0  0  0  0  0  0  0  0  0
   51.0460   32.2850   49.9910 N   0  0  0  0  0  0  0  0  0  0  0  0
   51.0260   33.2980   52.0730 O   0  0  0  0  0  0  0  0  0  0  0  0
   53.5340   31.1150   51.8810 C   0  0  0  0  0  0  0  0  0  0  0  0
   54.2540   30.0450   52.4340 C   0  0  0  0  0  0  0  0  0  0  0  0
   53.5400   29.0540   53.1100 C   0  0  0  0  0  0  0  0  0  0  0  0
   57.4440   28.9600   53.5780 C   0  0  0  0  0  0  0  0  0  0  0  0
   58.8300   32.2230   51.6480 C   0  0  0  0  0  0  0  0  0  0  0  0
   58.7580   31.2170   50.4750 C   0  0  0  0  0  0  0  0  0  0  0  0
   59.8990   31.3470   49.4600 C   0  0  0  0  0  0  0  0  0  0  0  0
   60.1120   32.7530   49.1150 N   0  0  0  0  0  0  0  0  0  0  0  0
   60.4280   33.1200   47.7700 C   0  0  0  0  0  0  0  0  0  0  0  0
   61.6220   33.0450   47.3680 O   0  0  0  0  0  0  0  0  0  0  0  0
   59.4110   33.6610   46.9140 N   0  0  0  0  0  0  0  0  0  0  0  0
   59.6750   34.8980   46.1760 C   0  0  0  0  0  0  0  0  0  0  0  0
   58.9560   34.9270   44.8070 C   0  0  0  0  0  0  0  0  0  0  0  0
   57.7830   34.0180   44.7100 N   0  0  0  0  0  0  0  0  0  0  0  0
   58.1390   32.7380   44.0710 C   0  0  0  0  0  0  0  0  0  0  0  0
   57.1100   33.8170   46.0120 C   0  0  0  0  0  0  0  0  0  0  0  0
   58.0360   33.1620   47.0440 C   0  0  0  0  0  0  0  0  0  0  0  0
   60.3210   33.7290   50.1810 C   0  0  0  0  0  0  0  0  0  0  0  0
   59.1790   33.6610   51.1960 C   0  0  0  0  0  0  0  0  0  0  0  0
   60.3849   32.4472   54.6119 H   0  0  0  0  0  0  0  0  0  0  0  0
   61.6027   32.3974   53.2923 H   0  0  0  0  0  0  0  0  0  0  0  0
   60.3296   33.6647   53.2923 H   0  0  0  0  0  0  0  0  0  0  0  0
   58.5088   31.5926   55.4896 H   0  0  0  0  0  0  0  0  0  0  0  0
   56.4254   31.0221   56.7263 H   0  0  0  0  0  0  0  0  0  0  0  0
   54.9888   29.1345   55.9591 H   0  0  0  0  0  0  0  0  0  0  0  0
   55.7508   27.1522   52.8307 H   0  0  0  0  0  0  0  0  0  0  0  0
   55.4604   26.6734   54.5441 H   0  0  0  0  0  0  0  0  0  0  0  0
   52.9709   26.3586   54.7787 H   0  0  0  0  0  0  0  0  0  0  0  0
   50.7391   27.7295   54.2056 H   0  0  0  0  0  0  0  0  0  0  0  0
   50.3394   30.1742   52.7687 H   0  0  0  0  0  0  0  0  0  0  0  0
   50.0470   32.3370   49.6760 H   0  0  0  0  0  0  0  0  0  0  0  0
   54.0744   31.9162   51.3557 H   0  0  0  0  0  0  0  0  0  0  0  0
   55.3483   29.9888   52.3377 H   0  0  0  0  0  0  0  0  0  0  0  0
   57.7244   28.3814   52.6855 H   0  0  0  0  0  0  0  0  0  0  0  0
   57.8101   32.2926   52.0542 H   0  0  0  0  0  0  0  0  0  0  0  0
   58.7826   30.1995   50.8921 H   0  0  0  0  0  0  0  0  0  0  0  0
   57.8270   31.4344   49.9310 H   0  0  0  0  0  0  0  0  0  0  0  0
   60.8216   30.9363   49.8961 H   0  0  0  0  0  0  0  0  0  0  0  0
   59.6335   30.7906   48.5490 H   0  0  0  0  0  0  0  0  0  0  0  0
   59.3262   35.7505   46.7773 H   0  0  0  0  0  0  0  0  0  0  0  0
   60.7576   34.9554   45.9898 H   0  0  0  0  0  0  0  0  0  0  0  0
   58.6111   35.9549   44.6212 H   0  0  0  0  0  0  0  0  0  0  0  0
   59.6859   34.5784   44.0615 H   0  0  0  0  0  0  0  0  0  0  0  0
   57.0850   34.4780   44.0810 H   0  0  0  0  0  0  0  0  0  0  0  0
   58.3480   31.9866   44.8467 H   0  0  0  0  0  0  0  0  0  0  0  0
   57.3020   32.3955   43.4448 H   0  0  0  0  0  0  0  0  0  0  0  0
   59.0326   32.8768   43.4448 H   0  0  0  0  0  0  0  0  0  0  0  0
   56.7840   34.7943   46.3975 H   0  0  0  0  0  0  0  0  0  0  0  0
   56.2534   33.1460   45.8509 H   0  0  0  0  0  0  0  0  0  0  0  0
   57.6655   33.3895   48.0544 H   0  0  0  0  0  0  0  0  0  0  0  0
   58.0409   32.0760   46.8689 H   0  0  0  0  0  0  0  0  0  0  0  0
   61.2718   33.5122   50.6898 H   0  0  0  0  0  0  0  0  0  0  0  0
   60.3492   34.7372   49.7419 H   0  0  0  0  0  0  0  0  0  0  0  0
   59.4687   34.2428   52.0835 H   0  0  0  0  0  0  0  0  0  0  0  0
   58.2850   34.0668   50.7000 H   0  0  0  0  0  0  0  0  0  0  0  0
  1  2  1  0
  2  3  1  0
  3  4  2  0
  3  5  1  0
  5  6  2  0
  6  7  1  0
  7  8  2  0
  8  9  1  0
  9 10  1  0
 10 11  1  0
 11 12  1  0
 12 13  2  0
 13 14  1  0
 14 15  2  0
 15 16  1  0
 16 17  1  0
 17 18  1  0
 17 19  2  0
 16 20  2  0
 20 21  1  0
 21 22  2  0
  9 23  2  0
  2 24  1  0
 24 25  1  0
 25 26  1  0
 26 27  1  0
 27 28  1  0
 28 29  2  0
 28 30  1  0
 30 31  1  0
 31 32  1  0
 32 33  1  0
 33 34  1  0
 33 35  1  0
 35 36  1  0
 27 37  1  0
 37 38  1  0
 23  5  1  0
 38 24  1  0
 22 11  1  0
 36 30  1  0
 22 14  1  0
  1 39  1  0
  1 40  1  0
  1 41  1  0
  6 42  1  0
  7 43  1  0
  8 44  1  0
 10 45  1  0
 10 46  1  0
 12 47  1  0
 13 48  1  0
 15 49  1  0
 18 50  1  0
 20 51  1  0
 21 52  1  0
 23 53  1  0
 24 54  1  0
 25 55  1  0
 25 56  1  0
 26 57  1  0
 26 58  1  0
 31 59  1  0
 31 60  1  0
 32 61  1  0
 32 62  1  0
 33 63  1  0
 34 64  1  0
 34 65  1  0
 34 66  1  0
 35 67  1  0
 35 68  1  0
 36 69  1  0
 36 70  1  0
 37 71  1  0
 37 72  1  0
 38 73  1  0
 38 74  1  0
M  CHG  2  18  -1  33   1
M  END
>  <UniqueID>  (22) 
21

>  <SMILES>  (22) 
CN(C(=O)c1cccc(Cn2ccc3cc(C([NH-])=O)ccc32)c1)C1CCN(C(=O)N2CC[NH+](C)CC2)CC1

>  <Energy>  (22) 
130.85833187271186

>  <Genealogy>  (22) 
CN(C(=O)c1cccc(Cn2ccc3cc(C([NH-])=O)ccc32)c1)C1CCN(C(=O)N2CC[NH+](C)CC2)CC1 (protonated)
CN(C(=O)c1cccc(Cn2ccc3cc(C([NH-])=O)ccc32)c1)C1CCN(C(=O)N2CC[NH+](C)CC2)CC1 (3D coordinates assigned)
CN(C(=O)c1cccc(Cn2ccc3cc(C([NH-])=O)ccc32)c1)C1CCN(C(=O)N2CC[NH+](C)CC2)CC1 (nonaromatic ring conformer: 130.85833187271186 kcal/mol)

>  <smiles>  (22) 
CN1CCN(C(=O)N2CCC(N(C)C(=O)c3cccc(Cn4ccc5cc(C(N)=O)ccc54)c3)CC2)CC1

>  <score_type>  (22) 
oracle

>  <origin>  (22) 
adg

>  <m_score__min__energy>  (22) 
-11.19

>  <m_primary>  (22) 
energy

$$$$
22:0
     RDKit          3D

 53 55  0  0  0  0  0  0  0  0999 V2000
   62.9720   33.8110   46.6710 C   0  0  0  0  0  0  0  0  0  0  0  0
   61.7020   33.2050   47.1940 C   0  0  0  0  0  0  0  0  0  0  0  0
   60.5320   33.6540   46.6820 N   0  0  0  0  0  0  0  0  0  0  0  0
   59.3310   33.1920   47.1060 C   0  0  0  0  0  0  0  0  0  0  0  0
   58.2210   33.6390   46.5880 N   0  0  0  0  0  0  0  0  0  0  0  0
   57.6200   33.2010   45.3590 C   0  0  0  0  0  0  0  0  0  0  0  0
   57.6860   33.9480   44.3500 O   0  0  0  0  0  0  0  0  0  0  0  0
   56.9470   31.9380   45.2420 N   0  0  0  0  0  0  0  0  0  0  0  0
   57.5530   30.6920   44.8660 C   0  0  0  0  0  0  0  0  0  0  0  0
   58.9110   30.4880   45.1460 C   0  0  0  0  0  0  0  0  0  0  0  0
   59.5350   29.2920   44.7790 C   0  0  0  0  0  0  0  0  0  0  0  0
   58.8010   28.2850   44.1460 C   0  0  0  0  0  0  0  0  0  0  0  0
   57.4410   28.4710   43.8860 C   0  0  0  0  0  0  0  0  0  0  0  0
   56.8140   29.6660   44.2490 C   0  0  0  0  0  0  0  0  0  0  0  0
   59.2930   32.2120   48.1030 C   0  0  0  0  0  0  0  0  0  0  0  0
   58.1750   31.7670   48.4890 O   0  0  0  0  0  0  0  0  0  0  0  0
   60.4610   31.7430   48.6580 N   0  0  0  0  0  0  0  0  0  0  0  0
   60.3720   30.7330   49.7360 C   0  0  0  0  0  0  0  0  0  0  0  0
   60.2520   29.3500   49.1660 C   0  0  0  0  0  0  0  0  0  0  0  0
   61.1460   28.4940   49.4080 O   0  0  0  0  0  0  0  0  0  0  0  0
   59.0800   28.9830   48.4210 N   0  0  0  0  0  0  0  0  0  0  0  0
   58.9800   27.7970   47.6150 C   0  0  0  0  0  0  0  0  0  0  0  0
   60.1490   27.1880   47.1370 C   0  0  0  0  0  0  0  0  0  0  0  0
   60.0790   26.0180   46.3770 C   0  0  0  0  0  0  0  0  0  0  0  0
   58.8400   25.4390   46.0940 C   0  0  0  0  0  0  0  0  0  0  0  0
   57.6600   26.0290   46.5710 C   0  0  0  0  0  0  0  0  0  0  0  0
   56.3260   25.3730   46.3140 C   0  0  0  0  0  0  0  0  0  0  0  0
   55.2520   26.3630   46.2860 N   0  0  0  0  0  0  0  0  0  0  0  0
   57.7350   27.1970   47.3460 C   0  0  0  0  0  0  0  0  0  0  0  0
   61.6820   32.1910   48.1850 C   0  0  0  0  0  0  0  0  0  0  0  0
   62.9840   31.6510   48.7430 C   0  0  0  0  0  0  0  0  0  0  0  0
   63.6083   34.1146   47.5154 H   0  0  0  0  0  0  0  0  0  0  0  0
   63.5059   33.0706   46.0572 H   0  0  0  0  0  0  0  0  0  0  0  0
   62.7324   34.6918   46.0572 H   0  0  0  0  0  0  0  0  0  0  0  0
   59.4885   31.2725   45.6569 H   0  0  0  0  0  0  0  0  0  0  0  0
   60.6046   29.1434   44.9886 H   0  0  0  0  0  0  0  0  0  0  0  0
   59.2939   27.3464   43.8527 H   0  0  0  0  0  0  0  0  0  0  0  0
   56.8624   27.6750   43.3944 H   0  0  0  0  0  0  0  0  0  0  0  0
   55.7407   29.8047   44.0520 H   0  0  0  0  0  0  0  0  0  0  0  0
   61.2779   30.7889   50.3575 H   0  0  0  0  0  0  0  0  0  0  0  0
   59.4774   30.9426   50.3407 H   0  0  0  0  0  0  0  0  0  0  0  0
   58.2290   29.5790   48.5260 H   0  0  0  0  0  0  0  0  0  0  0  0
   61.1286   27.6349   47.3621 H   0  0  0  0  0  0  0  0  0  0  0  0
   61.0015   25.5518   46.0007 H   0  0  0  0  0  0  0  0  0  0  0  0
   58.7892   24.5176   45.4953 H   0  0  0  0  0  0  0  0  0  0  0  0
   56.3615   24.8534   45.3451 H   0  0  0  0  0  0  0  0  0  0  0  0
   56.1240   24.6599   47.1268 H   0  0  0  0  0  0  0  0  0  0  0  0
   55.3480   26.9890   47.1180 H   0  0  0  0  0  0  0  0  0  0  0  0
   54.3350   25.8670   46.3660 H   0  0  0  0  0  0  0  0  0  0  0  0
   56.8143   27.6468   47.7461 H   0  0  0  0  0  0  0  0  0  0  0  0
   62.9463   31.6666   49.8422 H   0  0  0  0  0  0  0  0  0  0  0  0
   63.1311   30.6176   48.3958 H   0  0  0  0  0  0  0  0  0  0  0  0
   63.8193   32.2769   48.3958 H   0  0  0  0  0  0  0  0  0  0  0  0
  1  2  1  0
  2  3  1  0
  3  4  1  0
  4  5  2  3
  5  6  1  0
  6  7  2  0
  6  8  1  0
  8  9  1  0
  9 10  2  0
 10 11  1  0
 11 12  2  0
 12 13  1  0
 13 14  2  0
  4 15  1  0
 15 16  2  0
 15 17  1  0
 17 18  1  0
 18 19  1  0
 19 20  2  0
 19 21  1  0
 21 22  1  0
 22 23  2  0
 23 24  1  0
 24 25  2  0
 25 26  1  0
 26 27  1  0
 27 28  1  0
 26 29  2  0
 17 30  1  0
 30 31  1  0
 30  2  2  0
 14  9  1  0
 29 22  1  0
  1 32  1  0
  1 33  1  0
  1 34  1  0
 10 35  1  0
 11 36  1  0
 12 37  1  0
 13 38  1  0
 14 39  1  0
 18 40  1  0
 18 41  1  0
 21 42  1  0
 23 43  1  0
 24 44  1  0
 25 45  1  0
 27 46  1  0
 27 47  1  0
 28 48  1  0
 28 49  1  0
 29 50  1  0
 31 51  1  0
 31 52  1  0
 31 53  1  0
M  CHG  2   3  -1   8  -1
M  END
>  <UniqueID>  (23) 
22

>  <SMILES>  (23) 
Cc1[n-]c(=NC(=O)[N-]c2ccccc2)c(=O)n(CC(=O)Nc2cccc(CN)c2)c1C

>  <Energy>  (23) 
71.8455631063145

>  <Genealogy>  (23) 
Cc1[n-]c(=NC(=O)[N-]c2ccccc2)c(=O)n(CC(=O)Nc2cccc(CN)c2)c1C (protonated)
Cc1[n-]c(=NC(=O)[N-]c2ccccc2)c(=O)n(CC(=O)Nc2cccc(CN)c2)c1C (3D coordinates assigned)
Cc1[n-]c(=NC(=O)[N-]c2ccccc2)c(=O)n(CC(=O)Nc2cccc(CN)c2)c1C (optimized conformer: 71.8455631063145 kcal/mol)

>  <smiles>  (23) 
Cc1[nH]c(=NC(=O)Nc2ccccc2)c(=O)n(CC(=O)Nc2cccc(CN)c2)c1C

>  <score_type>  (23) 
oracle

>  <origin>  (23) 
adg

>  <m_score__min__energy>  (23) 
-11.51

>  <m_primary>  (23) 
energy

$$$$
23:0
     RDKit          3D

 55 57  0  0  0  0  0  0  0  0999 V2000
   57.7980   27.1700   42.8980 C   0  0  0  0  0  0  0  0  0  0  0  0
   58.0460   27.0430   44.2100 C   0  0  0  0  0  0  0  0  0  0  0  0
   57.8170   25.9080   45.0050 C   0  0  0  0  0  0  0  0  0  0  0  0
   57.1500   24.7670   44.7460 C   0  0  0  0  0  0  0  0  0  0  0  0
   55.7610   24.4810   45.1410 C   0  0  0  0  0  0  0  0  0  0  0  0
   55.1200   23.3250   44.8950 N   0  0  0  0  0  0  0  0  0  0  0  0
   53.8530   23.5810   45.2840 C   0  0  0  0  0  0  0  0  0  0  0  0
   52.9380   22.7200   45.2180 O   0  0  0  0  0  0  0  0  0  0  0  0
   53.6410   24.8360   45.7340 N   0  0  0  0  0  0  0  0  0  0  0  0
   54.8560   25.3950   45.6230 C   0  0  0  0  0  0  0  0  0  0  0  0
   55.1310   26.7170   45.9480 O   0  0  0  0  0  0  0  0  0  0  0  0
   58.3890   26.1750   46.2370 C   0  0  0  0  0  0  0  0  0  0  0  0
   58.8640   27.4690   46.1860 C   0  0  0  0  0  0  0  0  0  0  0  0
   59.4510   28.1960   47.3310 C   0  0  0  0  0  0  0  0  0  0  0  0
   60.1620   27.5460   48.1440 O   0  0  0  0  0  0  0  0  0  0  0  0
   59.2540   29.6210   47.5380 N   0  0  0  0  0  0  0  0  0  0  0  0
   58.8360   29.9330   48.9250 C   0  0  0  0  0  0  0  0  0  0  0  0
   60.0210   29.9820   49.9210 C   0  0  0  0  0  0  0  0  0  0  0  0
   61.2900   30.0900   49.3020 O   0  0  0  0  0  0  0  0  0  0  0  0
   61.2360   31.0100   48.2360 C   0  0  0  0  0  0  0  0  0  0  0  0
   60.4070   30.4340   47.0750 C   0  0  0  0  0  0  0  0  0  0  0  0
   58.6890   27.9900   44.9470 N   0  0  0  0  0  0  0  0  0  0  0  0
   59.1160   29.3260   44.5050 C   0  0  0  0  0  0  0  0  0  0  0  0
   58.0540   30.3620   44.7540 C   0  0  0  0  0  0  0  0  0  0  0  0
   56.9870   30.0250   45.3340 O   0  0  0  0  0  0  0  0  0  0  0  0
   58.2600   31.7400   44.4080 N   0  0  0  0  0  0  0  0  0  0  0  0
   57.8800   32.1990   43.0640 C   0  0  0  0  0  0  0  0  0  0  0  0
   56.9950   31.1770   42.3570 C   0  0  0  0  0  0  0  0  0  0  0  0
   58.3840   32.7150   45.4990 C   0  0  0  0  0  0  0  0  0  0  0  0
   57.4030   33.8650   45.3080 C   0  0  0  0  0  0  0  0  0  0  0  0
   58.0226   28.1167   42.3849 H   0  0  0  0  0  0  0  0  0  0  0  0
   57.3700   26.3274   42.3351 H   0  0  0  0  0  0  0  0  0  0  0  0
   57.6882   23.9831   44.1930 H   0  0  0  0  0  0  0  0  0  0  0  0
   58.4526   25.4869   47.0929 H   0  0  0  0  0  0  0  0  0  0  0  0
   58.4400   29.8930   46.9340 H   0  0  0  0  0  0  0  0  0  0  0  0
   58.3358   30.9127   48.9277 H   0  0  0  0  0  0  0  0  0  0  0  0
   58.1645   29.1263   49.2541 H   0  0  0  0  0  0  0  0  0  0  0  0
   59.8828   30.8515   50.5804 H   0  0  0  0  0  0  0  0  0  0  0  0
   60.0149   29.0287   50.4698 H   0  0  0  0  0  0  0  0  0  0  0  0
   60.7711   31.9436   48.5856 H   0  0  0  0  0  0  0  0  0  0  0  0
   62.2585   31.2078   47.8819 H   0  0  0  0  0  0  0  0  0  0  0  0
   60.0270   31.2682   46.4670 H   0  0  0  0  0  0  0  0  0  0  0  0
   61.0663   29.7723   46.4942 H   0  0  0  0  0  0  0  0  0  0  0  0
   60.0257   29.6092   45.0548 H   0  0  0  0  0  0  0  0  0  0  0  0
   59.3058   29.2838   43.4223 H   0  0  0  0  0  0  0  0  0  0  0  0
   57.3310   33.1482   43.1518 H   0  0  0  0  0  0  0  0  0  0  0  0
   58.7970   32.3322   42.4712 H   0  0  0  0  0  0  0  0  0  0  0  0
   56.4677   30.5681   43.1061 H   0  0  0  0  0  0  0  0  0  0  0  0
   56.2606   31.7010   41.7276 H   0  0  0  0  0  0  0  0  0  0  0  0
   57.6186   30.5251   41.7276 H   0  0  0  0  0  0  0  0  0  0  0  0
   58.1724   32.2151   46.4557 H   0  0  0  0  0  0  0  0  0  0  0  0
   59.4071   33.1191   45.4974 H   0  0  0  0  0  0  0  0  0  0  0  0
   57.0825   34.2407   46.2909 H   0  0  0  0  0  0  0  0  0  0  0  0
   57.8924   34.6752   44.7476 H   0  0  0  0  0  0  0  0  0  0  0  0
   56.5258   33.5094   44.7476 H   0  0  0  0  0  0  0  0  0  0  0  0
  1  2  2  0
  2  3  1  0
  3  4  2  3
  4  5  1  0
  5  6  1  0
  6  7  1  0
  7  8  2  0
  7  9  1  0
  9 10  1  0
 10 11  1  0
  3 12  1  0
 12 13  2  0
 13 14  1  0
 14 15  2  0
 14 16  1  0
 16 17  1  0
 17 18  1  0
 18 19  1  0
 19 20  1  0
 20 21  1  0
 13 22  1  0
 22 23  1  0
 23 24  1  0
 24 25  2  0
 24 26  1  0
 26 27  1  0
 27 28  1  0
 26 29  1  0
 29 30  1  0
 22  2  1  0
 10  5  2  0
 21 16  1  0
  1 31  1  0
  1 32  1  0
  4 33  1  0
 12 34  1  0
 16 35  1  0
 17 36  1  0
 17 37  1  0
 18 38  1  0
 18 39  1  0
 20 40  1  0
 20 41  1  0
 21 42  1  0
 21 43  1  0
 23 44  1  0
 23 45  1  0
 27 46  1  0
 27 47  1  0
 28 48  1  0
 28 49  1  0
 28 50  1  0
 29 51  1  0
 29 52  1  0
 30 53  1  0
 30 54  1  0
 30 55  1  0
M  CHG  4   6  -1   9  -1  11  -1  16   1
M  END
>  <UniqueID>  (24) 
23

>  <SMILES>  (24) 
C=c1c(=Cc2[n-]c(=O)[n-]c2[O-])cc(C(=O)[NH+]2CCOCC2)n1CC(=O)N(CC)CC

>  <Energy>  (24) 
142.97095163691492

>  <Genealogy>  (24) 
C=c1c(=Cc2[n-]c(=O)[n-]c2[O-])cc(C(=O)[NH+]2CCOCC2)n1CC(=O)N(CC)CC (protonated)
C=c1c(=Cc2[n-]c(=O)[n-]c2[O-])cc(C(=O)[NH+]2CCOCC2)n1CC(=O)N(CC)CC (3D coordinates assigned)
C=c1c(=Cc2[n-]c(=O)[n-]c2[O-])cc(C(=O)[NH+]2CCOCC2)n1CC(=O)N(CC)CC (nonaromatic ring conformer: 142.97095163691492 kcal/mol)

>  <smiles>  (24) 
C=c1c(=Cc2[nH]c(=O)[nH]c2O)cc(C(=O)N2CCOCC2)n1CC(=O)N(CC)CC

>  <score_type>  (24) 
oracle

>  <origin>  (24) 
adg

>  <m_score__min__energy>  (24) 
-13.859999999999999

>  <m_primary>  (24) 
energy

$$$$
24:0
     RDKit          3D

 49 51  0  0  0  0  0  0  0  0999 V2000
   55.1460   28.9990   44.7050 O   0  0  0  0  0  0  0  0  0  0  0  0
   56.3660   29.3110   44.7230 C   0  0  0  0  0  0  0  0  0  0  0  0
   56.8530   30.4460   43.8630 C   0  0  0  0  0  0  0  0  0  0  0  0
   57.0250   31.6590   44.6610 N   0  0  0  0  0  0  0  0  0  0  0  0
   57.7600   32.7960   44.1870 C   0  0  0  0  0  0  0  0  0  0  0  0
   58.2750   32.7830   43.0340 O   0  0  0  0  0  0  0  0  0  0  0  0
   57.9500   34.0010   45.0750 C   0  0  0  0  0  0  0  0  0  0  0  0
   57.8620   33.6290   46.5580 C   0  0  0  0  0  0  0  0  0  0  0  0
   58.9000   34.4870   47.2550 C   0  0  0  0  0  0  0  0  0  0  0  0
   60.0040   34.6830   46.2320 C   0  0  0  0  0  0  0  0  0  0  0  0
   59.3160   34.6770   44.8720 C   0  0  0  0  0  0  0  0  0  0  0  0
   57.2590   28.5490   45.5470 N   0  0  0  0  0  0  0  0  0  0  0  0
   58.3320   29.0640   46.3480 C   0  0  0  0  0  0  0  0  0  0  0  0
   59.3530   28.1950   46.7510 C   0  0  0  0  0  0  0  0  0  0  0  0
   60.3990   28.6560   47.5540 C   0  0  0  0  0  0  0  0  0  0  0  0
   60.4220   29.9890   47.9940 C   0  0  0  0  0  0  0  0  0  0  0  0
   61.5290   30.4920   48.8310 C   0  0  0  0  0  0  0  0  0  0  0  0
   61.8250   29.8690   49.8870 O   0  0  0  0  0  0  0  0  0  0  0  0
   62.2800   31.6650   48.4680 N   0  0  0  0  0  0  0  0  0  0  0  0
   62.4420   32.1320   47.0990 C   0  0  0  0  0  0  0  0  0  0  0  0
   63.6500   33.0590   47.1230 C   0  0  0  0  0  0  0  0  0  0  0  0
   63.8520   33.4350   48.5870 C   0  0  0  0  0  0  0  0  0  0  0  0
   63.1880   32.3260   49.3900 C   0  0  0  0  0  0  0  0  0  0  0  0
   59.3930   30.8590   47.5970 C   0  0  0  0  0  0  0  0  0  0  0  0
   58.3470   30.3960   46.7930 C   0  0  0  0  0  0  0  0  0  0  0  0
   57.8177   30.1699   43.4123 H   0  0  0  0  0  0  0  0  0  0  0  0
   56.1080   30.6408   43.0775 H   0  0  0  0  0  0  0  0  0  0  0  0
   56.6310   31.6720   45.6280 H   0  0  0  0  0  0  0  0  0  0  0  0
   57.1418   34.6910   44.7909 H   0  0  0  0  0  0  0  0  0  0  0  0
   56.8575   33.8471   46.9498 H   0  0  0  0  0  0  0  0  0  0  0  0
   58.0443   32.5565   46.7205 H   0  0  0  0  0  0  0  0  0  0  0  0
   58.4676   35.4555   47.5466 H   0  0  0  0  0  0  0  0  0  0  0  0
   59.2718   34.0160   48.1769 H   0  0  0  0  0  0  0  0  0  0  0  0
   60.5146   35.6429   46.3987 H   0  0  0  0  0  0  0  0  0  0  0  0
   60.7667   33.8936   46.3033 H   0  0  0  0  0  0  0  0  0  0  0  0
   59.1800   35.7070   44.5107 H   0  0  0  0  0  0  0  0  0  0  0  0
   59.9181   34.1393   44.1247 H   0  0  0  0  0  0  0  0  0  0  0  0
   59.3314   27.1421   46.4332 H   0  0  0  0  0  0  0  0  0  0  0  0
   61.2093   27.9706   47.8432 H   0  0  0  0  0  0  0  0  0  0  0  0
   62.6225   31.2835   46.4226 H   0  0  0  0  0  0  0  0  0  0  0  0
   61.5407   32.6471   46.7352 H   0  0  0  0  0  0  0  0  0  0  0  0
   64.5389   32.5409   46.7338 H   0  0  0  0  0  0  0  0  0  0  0  0
   63.4929   33.9473   46.4935 H   0  0  0  0  0  0  0  0  0  0  0  0
   64.9246   33.4915   48.8244 H   0  0  0  0  0  0  0  0  0  0  0  0
   63.4191   34.4196   48.8177 H   0  0  0  0  0  0  0  0  0  0  0  0
   63.9422   31.6164   49.7610 H   0  0  0  0  0  0  0  0  0  0  0  0
   62.6583   32.7216   50.2691 H   0  0  0  0  0  0  0  0  0  0  0  0
   59.4103   31.9102   47.9204 H   0  0  0  0  0  0  0  0  0  0  0  0
   57.5323   31.0779   46.5078 H   0  0  0  0  0  0  0  0  0  0  0  0
  1  2  2  0
  2  3  1  0
  3  4  1  0
  4  5  1  0
  5  6  2  0
  5  7  1  0
  7  8  1  0
  8  9  1  0
  9 10  1  0
 10 11  1  0
  2 12  1  0
 12 13  1  0
 13 14  2  0
 14 15  1  0
 15 16  2  0
 16 17  1  0
 17 18  2  0
 17 19  1  0
 19 20  1  0
 20 21  1  0
 21 22  1  0
 22 23  1  0
 16 24  1  0
 24 25  2  0
 11  7  1  0
 25 13  1  0
 23 19  1  0
  3 26  1  0
  3 27  1  0
  4 28  1  0
  7 29  1  0
  8 30  1  0
  8 31  1  0
  9 32  1  0
  9 33  1  0
 10 34  1  0
 10 35  1  0
 11 36  1  0
 11 37  1  0
 14 38  1  0
 15 39  1  0
 20 40  1  0
 20 41  1  0
 21 42  1  0
 21 43  1  0
 22 44  1  0
 22 45  1  0
 23 46  1  0
 23 47  1  0
 24 48  1  0
 25 49  1  0
M  CHG  1  12  -1
M  END
>  <UniqueID>  (25) 
24

>  <SMILES>  (25) 
O=C(CNC(=O)C1CCCC1)[N-]c1ccc(C(=O)N2CCCC2)cc1

>  <Energy>  (25) 
55.79977063358453

>  <Genealogy>  (25) 
O=C(CNC(=O)C1CCCC1)[N-]c1ccc(C(=O)N2CCCC2)cc1 (protonated)
O=C(CNC(=O)C1CCCC1)[N-]c1ccc(C(=O)N2CCCC2)cc1 (3D coordinates assigned)
O=C(CNC(=O)C1CCCC1)[N-]c1ccc(C(=O)N2CCCC2)cc1 (nonaromatic ring conformer: 55.79977063358453 kcal/mol)

>  <smiles>  (25) 
O=C(CNC(=O)C1CCCC1)Nc1ccc(C(=O)N2CCCC2)cc1

>  <score_type>  (25) 
oracle

>  <origin>  (25) 
adg

>  <m_score__min__energy>  (25) 
-10.18

>  <m_primary>  (25) 
energy

$$$$
25:0
     RDKit          3D

 31 32  0  0  0  0  0  0  0  0999 V2000
   58.7790   33.8740   44.4340 C   0  0  0  0  0  0  0  0  0  0  0  0
   58.1690   32.7220   44.7240 C   0  0  0  0  0  0  0  0  0  0  0  0
   57.4840   31.9300   43.8220 C   0  0  0  0  0  0  0  0  0  0  0  0
   57.0260   30.8500   44.5560 C   0  0  0  0  0  0  0  0  0  0  0  0
   56.2390   29.7280   44.0370 C   0  0  0  0  0  0  0  0  0  0  0  0
   55.8700   29.7190   42.8300 O   0  0  0  0  0  0  0  0  0  0  0  0
   55.9030   28.6750   44.8940 O   0  0  0  0  0  0  0  0  0  0  0  0
   56.8680   27.9110   45.6200 C   0  0  2  0  0  0  0  0  0  0  0  0
   58.1170   27.7270   44.7460 C   0  0  0  0  0  0  0  0  0  0  0  0
   59.1920   26.8140   45.3870 C   0  0  0  0  0  0  0  0  0  0  0  0
   58.6910   25.9870   46.5860 C   0  0  0  0  0  0  0  0  0  0  0  0
   57.2730   25.4440   46.3690 C   0  0  0  0  0  0  0  0  0  0  0  0
   56.3240   26.5500   45.9910 C   0  0  0  0  0  0  0  0  0  0  0  0
   55.1210   26.3390   45.9960 O   0  0  0  0  0  0  0  0  0  0  0  0
   57.3970   30.9610   45.8130 O   0  0  0  0  0  0  0  0  0  0  0  0
   58.0850   32.0720   45.9510 C   0  0  0  0  0  0  0  0  0  0  0  0
   58.6020   32.4650   47.1170 C   0  0  0  0  0  0  0  0  0  0  0  0
   59.3003   34.4344   45.2240 H   0  0  0  0  0  0  0  0  0  0  0  0
   58.7602   34.2625   43.4051 H   0  0  0  0  0  0  0  0  0  0  0  0
   57.3346   32.1182   42.7486 H   0  0  0  0  0  0  0  0  0  0  0  0
   57.1147   28.4512   46.5459 H   0  0  0  0  0  0  0  0  0  0  0  0
   57.8090   27.2824   43.7881 H   0  0  0  0  0  0  0  0  0  0  0  0
   58.5713   28.7206   44.6184 H   0  0  0  0  0  0  0  0  0  0  0  0
   59.5560   26.1179   44.6169 H   0  0  0  0  0  0  0  0  0  0  0  0
   59.9800   27.4785   45.7710 H   0  0  0  0  0  0  0  0  0  0  0  0
   59.3744   25.1390   46.7407 H   0  0  0  0  0  0  0  0  0  0  0  0
   58.6662   26.6494   47.4639 H   0  0  0  0  0  0  0  0  0  0  0  0
   57.2936   24.6963   45.5625 H   0  0  0  0  0  0  0  0  0  0  0  0
   56.9245   24.9886   47.3077 H   0  0  0  0  0  0  0  0  0  0  0  0
   59.1703   33.4049   47.1778 H   0  0  0  0  0  0  0  0  0  0  0  0
   58.4598   31.8491   48.0172 H   0  0  0  0  0  0  0  0  0  0  0  0
  1  2  2  0
  2  3  1  0
  3  4  2  0
  4  5  1  0
  5  6  2  0
  5  7  1  0
  7  8  1  0
  8  9  1  0
  9 10  1  0
 10 11  1  0
 11 12  1  0
 12 13  1  0
 13 14  2  0
  4 15  1  0
 15 16  1  0
 16 17  2  0
 16  2  1  0
 13  8  1  0
  1 18  1  0
  1 19  1  0
  3 20  1  0
  8 21  1  1
  9 22  1  0
  9 23  1  0
 10 24  1  0
 10 25  1  0
 11 26  1  0
 11 27  1  0
 12 28  1  0
 12 29  1  0
 17 30  1  0
 17 31  1  0
M  END
>  <UniqueID>  (26) 
25

>  <SMILES>  (26) 
C=c1cc(C(=O)O[C@@H]2CCCCC2=O)oc1=C

>  <Energy>  (26) 
56.465503463132706

>  <Genealogy>  (26) 
C=c1cc(C(=O)O[C@@H]2CCCCC2=O)oc1=C (chirality)
C=c1cc(C(=O)O[C@@H]2CCCCC2=O)oc1=C (3D coordinates assigned)
C=c1cc(C(=O)O[C@@H]2CCCCC2=O)oc1=C (nonaromatic ring conformer: 56.465503463132706 kcal/mol)

>  <smiles>  (26) 
C=c1cc(C(=O)OC2CCCCC2=O)oc1=C

>  <score_type>  (26) 
oracle

>  <origin>  (26) 
adg

>  <m_score__min__energy>  (26) 
-7.4299999999999997

>  <m_primary>  (26) 
energy

$$$$
26:0
     RDKit          3D

 51 54  0  0  1  0  0  0  0  0999 V2000
   54.7850   27.8570   54.0240 C   0  0  0  0  0  0  0  0  0  0  0  0
   55.6710   28.9550   54.2100 O   0  0  0  0  0  0  0  0  0  0  0  0
   56.4320   29.4820   53.1810 C   0  0  0  0  0  0  0  0  0  0  0  0
   55.8050   30.4190   52.3640 C   0  0  0  0  0  0  0  0  0  0  0  0
   56.5390   30.9330   51.3640 N   0  0  0  0  0  0  0  0  0  0  0  0
   57.8180   30.6090   51.1040 C   0  0  0  0  0  0  0  0  0  0  0  0
   58.5330   31.2380   49.9740 C   0  0  0  0  0  0  0  0  0  0  0  0
   59.6270   30.7270   49.6570 O   0  0  0  0  0  0  0  0  0  0  0  0
   57.9680   32.3570   49.3210 N   0  0  0  0  0  0  0  0  0  0  0  0
   58.5300   33.0560   48.2360 C   0  0  0  0  0  0  0  0  0  0  0  0
   59.6210   33.8680   48.4970 C   0  0  0  0  0  0  0  0  0  0  0  0
   60.2230   34.5800   47.4950 C   0  0  0  0  0  0  0  0  0  0  0  0
   59.7970   34.5400   46.1830 C   0  0  0  0  0  0  0  0  0  0  0  0
   58.7100   33.7360   45.9100 C   0  0  0  0  0  0  0  0  0  0  0  0
   58.1840   33.6350   44.5160 C   0  0  0  0  0  0  0  0  0  0  0  0
   58.4990   32.2960   44.0440 N   0  0  0  0  0  0  0  0  0  0  0  0
   57.7420   31.2780   44.2780 C   0  0  0  0  0  0  0  0  0  0  0  0
   56.5430   31.1730   43.7190 N   0  0  0  0  0  0  0  0  0  0  0  0
   55.7230   30.1310   43.9350 C   0  0  0  0  0  0  0  0  0  0  0  0
   56.1460   29.1370   44.7690 N   0  0  0  0  0  0  0  0  0  0  0  0
   57.3480   29.1770   45.3690 C   0  0  0  0  0  0  0  0  0  0  0  0
   57.7830   28.1760   46.2120 C   0  0  0  0  0  0  0  0  0  0  0  0
   56.9120   27.0380   46.4620 C   0  0  0  0  0  0  0  0  0  0  0  0
   55.6090   26.9610   45.9030 N   0  0  0  0  0  0  0  0  0  0  0  0
   57.3110   26.0960   47.1880 O   0  0  0  0  0  0  0  0  0  0  0  0
   59.0190   28.2400   46.8150 C   0  0  0  0  0  0  0  0  0  0  0  0
   59.8550   29.3250   46.5810 C   0  0  0  0  0  0  0  0  0  0  0  0
   59.4270   30.3410   45.7320 C   0  0  0  0  0  0  0  0  0  0  0  0
   58.1730   30.2740   45.1210 C   0  0  0  0  0  0  0  0  0  0  0  0
   58.0980   33.0090   46.9390 C   0  0  0  0  0  0  0  0  0  0  0  0
   58.4100   29.6830   51.9250 C   0  0  0  0  0  0  0  0  0  0  0  0
   57.7100   29.1370   52.9460 N   0  0  0  0  0  0  0  0  0  0  0  0
   54.4716   27.4686   55.0043 H   0  0  0  0  0  0  0  0  0  0  0  0
   53.9003   28.1909   53.4620 H   0  0  0  0  0  0  0  0  0  0  0  0
   55.2982   27.0628   53.4620 H   0  0  0  0  0  0  0  0  0  0  0  0
   54.7608   30.7229   52.5294 H   0  0  0  0  0  0  0  0  0  0  0  0
   57.0300   32.6770   49.7070 H   0  0  0  0  0  0  0  0  0  0  0  0
   60.0091   33.9418   49.5236 H   0  0  0  0  0  0  0  0  0  0  0  0
   61.0863   35.2134   47.7472 H   0  0  0  0  0  0  0  0  0  0  0  0
   60.2990   35.1201   45.3946 H   0  0  0  0  0  0  0  0  0  0  0  0
   57.0953   33.7924   44.5097 H   0  0  0  0  0  0  0  0  0  0  0  0
   58.6368   34.3990   43.8670 H   0  0  0  0  0  0  0  0  0  0  0  0
   56.2310   31.9540   43.0760 H   0  0  0  0  0  0  0  0  0  0  0  0
   54.7360   30.0803   43.4520 H   0  0  0  0  0  0  0  0  0  0  0  0
   54.7840   27.4270   46.3480 H   0  0  0  0  0  0  0  0  0  0  0  0
   55.4930   26.4060   45.0050 H   0  0  0  0  0  0  0  0  0  0  0  0
   59.3456   27.4301   47.4838 H   0  0  0  0  0  0  0  0  0  0  0  0
   60.8432   29.3801   47.0611 H   0  0  0  0  0  0  0  0  0  0  0  0
   60.0817   31.2040   45.5405 H   0  0  0  0  0  0  0  0  0  0  0  0
   57.2340   32.3738   46.6939 H   0  0  0  0  0  0  0  0  0  0  0  0
   59.4546   29.3842   51.7531 H   0  0  0  0  0  0  0  0  0  0  0  0
  1  2  1  0
  2  3  1  0
  3  4  2  0
  4  5  1  0
  5  6  2  0
  6  7  1  0
  7  8  2  0
  7  9  1  0
  9 10  1  0
 10 11  2  0
 11 12  1  0
 12 13  2  0
 13 14  1  0
 14 15  1  0
 15 16  1  0
 16 17  2  0
 17 18  1  0
 18 19  1  0
 19 20  2  0
 20 21  1  0
 21 22  2  0
 22 23  1  0
 23 24  1  0
 23 25  2  0
 22 26  1  0
 26 27  2  0
 27 28  1  0
 28 29  2  0
 14 30  2  0
  6 31  1  0
 31 32  2  0
 32  3  1  0
 30 10  1  0
 29 17  1  0
 29 21  1  0
  1 33  1  0
  1 34  1  0
  1 35  1  0
  4 36  1  0
  9 37  1  0
 11 38  1  0
 12 39  1  0
 13 40  1  0
 15 41  1  0
 15 42  1  0
 18 43  1  0
 19 44  1  0
 24 45  1  0
 24 46  1  0
 26 47  1  0
 27 48  1  0
 28 49  1  0
 30 50  1  0
 31 51  1  0
M  END
>  <smiles>  (27) 
COc1cnc(C(=O)Nc2cccc(CN=c3[nH]cnc4c(C(N)=O)cccc34)c2)cn1

>  <score_type>  (27) 
oracle

>  <origin>  (27) 
adg

>  <m_score__min__energy>  (27) 
-9.0999999999999996

>  <m_primary>  (27) 
energy

$$$$
27:0
     RDKit          3D

 37 39  0  0  0  0  0  0  0  0999 V2000
   56.1996   24.6142   46.4832 H   0  0  0  0  0  0  0  0  0  0  0  0
   57.2040   24.9930   46.2430 C   0  0  0  0  0  0  0  0  0  0  0  0
   58.0787   24.3334   46.3418 H   0  0  0  0  0  0  0  0  0  0  0  0
   57.3620   26.2580   45.8300 C   0  0  0  0  0  0  0  0  0  0  0  0
   58.6450   26.7360   45.5250 C   0  0  0  0  0  0  0  0  0  0  0  0
   59.5133   26.0684   45.6271 H   0  0  0  0  0  0  0  0  0  0  0  0
   58.8310   28.0510   45.0930 C   0  0  0  0  0  0  0  0  0  0  0  0
   59.8456   28.4046   44.8572 H   0  0  0  0  0  0  0  0  0  0  0  0
   57.7380   28.9340   44.9540 C   0  0  0  0  0  0  0  0  0  0  0  0
   57.9420   30.2080   44.5320 C   0  0  0  0  0  0  0  0  0  0  0  0
   58.3570   31.1990   45.3630 N   0  0  0  0  0  0  0  0  0  0  0  0
   58.4460   32.2950   44.5810 C   0  0  0  0  0  0  0  0  0  0  0  0
   58.7990   33.5180   45.0050 C   0  0  0  0  0  0  0  0  0  0  0  0
   58.4757   34.3831   44.4074 H   0  0  0  0  0  0  0  0  0  0  0  0
   59.5960   33.7780   46.2260 C   0  0  0  0  0  0  0  0  0  0  0  0
   58.9490   34.3010   47.3570 C   0  0  0  0  0  0  0  0  0  0  0  0
   57.8672   34.4976   47.3257 H   0  0  0  0  0  0  0  0  0  0  0  0
   59.6700   34.5730   48.5210 C   0  0  0  0  0  0  0  0  0  0  0  0
   59.1512   34.9687   49.4066 H   0  0  0  0  0  0  0  0  0  0  0  0
   61.0470   34.3450   48.5660 C   0  0  0  0  0  0  0  0  0  0  0  0
   61.6084   34.5539   49.4886 H   0  0  0  0  0  0  0  0  0  0  0  0
   61.7180   33.8480   47.4320 C   0  0  0  0  0  0  0  0  0  0  0  0
   63.1020   33.6190   47.4200 O   0  0  0  0  0  0  0  0  0  0  0  0
   63.7740   32.7050   48.2810 C   0  0  0  0  0  0  0  0  0  0  0  0
   63.5756   32.9748   49.3288 H   0  0  0  0  0  0  0  0  0  0  0  0
   63.4091   31.6851   48.0896 H   0  0  0  0  0  0  0  0  0  0  0  0
   64.8563   32.7491   48.0896 H   0  0  0  0  0  0  0  0  0  0  0  0
   60.9890   33.5750   46.2680 C   0  0  0  0  0  0  0  0  0  0  0  0
   61.5105   33.1976   45.3760 H   0  0  0  0  0  0  0  0  0  0  0  0
   58.0750   31.9500   43.3030 C   0  0  0  0  0  0  0  0  0  0  0  0
   58.0270   32.7200   42.3070 O   0  0  0  0  0  0  0  0  0  0  0  0
   57.7610   30.6480   43.2600 N   0  0  0  0  0  0  0  0  0  0  0  0
   57.4480   30.1290   42.4110 H   0  0  0  0  0  0  0  0  0  0  0  0
   56.4490   28.4440   45.2640 C   0  0  0  0  0  0  0  0  0  0  0  0
   55.5790   29.1096   45.1641 H   0  0  0  0  0  0  0  0  0  0  0  0
   56.2610   27.1260   45.6960 C   0  0  0  0  0  0  0  0  0  0  0  0
   54.9700   26.6930   45.9880 O   0  0  0  0  0  0  0  0  0  0  0  0
  1  2  1  0
  2  3  1  0
  2  4  2  0
  4  5  1  0
  5  6  1  0
  5  7  2  0
  7  8  1  0
  7  9  1  0
  9 10  2  0
 10 11  1  0
 11 12  1  0
 12 13  2  0
 13 14  1  0
 13 15  1  0
 15 16  2  0
 16 17  1  0
 16 18  1  0
 18 19  1  0
 18 20  2  0
 20 21  1  0
 20 22  1  0
 22 23  1  0
 23 24  1  0
 24 25  1  0
 24 26  1  0
 24 27  1  0
 22 28  2  0
 28 29  1  0
 12 30  1  0
 30 31  2  0
 30 32  1  0
 32 33  1  0
  9 34  1  0
 34 35  1  0
 34 36  2  0
 36 37  1  0
 36  4  1  0
 32 10  1  0
 28 15  1  0
M  CHG  2  11  -1  37  -1
M  END
>  <UniqueID>  (28) 
26

>  <SMILES>  (28) 
C=c1cc/c(=c2\[n-]/c(=C\c3cccc(OC)c3)c(=O)[nH]2)cc1[O-]

>  <Energy>  (28) 
82.29184785673431

>  <Genealogy>  (28) 
C=c1ccc(=c2[n-]c(=Cc3cccc(OC)c3)c(=O)[nH]2)cc1[O-] (protonated)
C=c1cc/c(=c2\[n-]/c(=C\c3cccc(OC)c3)c(=O)[nH]2)cc1[O-] (cis-trans isomerization)
C=c1cc/c(=c2\[n-]/c(=C\c3cccc(OC)c3)c(=O)[nH]2)cc1[O-] (3D coordinates assigned)
C=c1cc/c(=c2\[n-]/c(=C\c3cccc(OC)c3)c(=O)[nH]2)cc1[O-] (optimized conformer: 82.29184785673431 kcal/mol)

>  <smiles>  (28) 
C=c1ccc(=c2[nH]c(=O)c(=Cc3cccc(OC)c3)[nH]2)cc1O

>  <score_type>  (28) 
oracle

>  <origin>  (28) 
adg

>  <m_score__min__energy>  (28) 
-12.720000000000001

>  <m_primary>  (28) 
energy

$$$$
28:0
     RDKit          3D

 63 67  0  0  0  0  0  0  0  0999 V2000
   65.2250   32.8950   49.5810 O   0  0  0  0  0  0  0  0  0  0  0  0
   64.1490   32.2450   49.4680 C   0  0  0  0  0  0  0  0  0  0  0  0
   63.8110   31.2210   50.4840 C   0  0  0  0  0  0  0  0  0  0  0  0
   64.7610   30.8220   51.4390 C   0  0  0  0  0  0  0  0  0  0  0  0
   64.4470   29.8380   52.3780 C   0  0  0  0  0  0  0  0  0  0  0  0
   63.1850   29.2360   52.3720 C   0  0  0  0  0  0  0  0  0  0  0  0
   62.2270   29.6150   51.4190 C   0  0  0  0  0  0  0  0  0  0  0  0
   60.8580   28.9820   51.4250 C   0  0  0  0  0  0  0  0  0  0  0  0
   60.1990   29.0880   50.0740 C   0  0  0  0  0  0  0  0  0  0  0  0
   60.6850   28.3830   48.9560 C   0  0  0  0  0  0  0  0  0  0  0  0
   59.8750   28.4730   47.8330 C   0  0  0  0  0  0  0  0  0  0  0  0
   58.5350   29.4020   48.2280 S   0  0  0  0  0  0  0  0  0  0  0  0
   58.9770   29.7270   49.8170 C   0  0  0  0  0  0  0  0  0  0  0  0
   58.1290   30.4890   50.7510 C   0  0  0  0  0  0  0  0  0  0  0  0
   57.3750   29.8470   51.5360 O   0  0  0  0  0  0  0  0  0  0  0  0
   58.0580   31.9350   50.7010 N   0  0  0  0  0  0  0  0  0  0  0  0
   58.4150   32.5010   52.0230 C   0  0  0  0  0  0  0  0  0  0  0  0
   58.8960   33.9550   51.8780 C   0  0  0  0  0  0  0  0  0  0  0  0
   60.0570   34.1000   51.0690 O   0  0  0  0  0  0  0  0  0  0  0  0
   60.2260   33.0580   50.1160 C   0  0  0  0  0  0  0  0  0  0  0  0
   58.8980   32.4760   49.5980 C   0  0  0  0  0  0  0  0  0  0  0  0
   62.5470   30.6070   50.4770 C   0  0  0  0  0  0  0  0  0  0  0  0
   63.2650   32.5320   48.3690 N   0  0  0  0  0  0  0  0  0  0  0  0
   62.7310   31.4440   47.5410 C   0  0  0  0  0  0  0  0  0  0  0  0
   61.2840   31.7480   47.1450 C   0  0  0  0  0  0  0  0  0  0  0  0
   61.1320   33.1240   46.6460 N   0  0  0  0  0  0  0  0  0  0  0  0
   59.8960   33.5260   46.0160 C   0  0  0  0  0  0  0  0  0  0  0  0
   59.8650   34.5470   45.2770 O   0  0  0  0  0  0  0  0  0  0  0  0
   58.6400   32.7130   46.1760 C   0  0  0  0  0  0  0  0  0  0  0  0
   57.4320   33.5060   46.6560 C   0  0  0  0  0  0  0  0  0  0  0  0
   57.5180   33.0610   45.2060 C   0  0  0  0  0  0  0  0  0  0  0  0
   62.2860   34.0380   46.6450 C   0  0  0  0  0  0  0  0  0  0  0  0
   63.0660   33.9300   47.9610 C   0  0  0  0  0  0  0  0  0  0  0  0
   65.7576   31.2875   51.4468 H   0  0  0  0  0  0  0  0  0  0  0  0
   65.1951   29.5351   53.1254 H   0  0  0  0  0  0  0  0  0  0  0  0
   62.9424   28.4632   53.1163 H   0  0  0  0  0  0  0  0  0  0  0  0
   60.9557   27.9198   51.6935 H   0  0  0  0  0  0  0  0  0  0  0  0
   60.2334   29.5133   52.1582 H   0  0  0  0  0  0  0  0  0  0  0  0
   61.6245   27.8111   48.9716 H   0  0  0  0  0  0  0  0  0  0  0  0
   60.0765   28.0147   46.8535 H   0  0  0  0  0  0  0  0  0  0  0  0
   57.0690   32.2150   50.5120 H   0  0  0  0  0  0  0  0  0  0  0  0
   57.5311   32.4763   52.6774 H   0  0  0  0  0  0  0  0  0  0  0  0
   59.2276   31.9006   52.4579 H   0  0  0  0  0  0  0  0  0  0  0  0
   58.0842   34.5451   51.4277 H   0  0  0  0  0  0  0  0  0  0  0  0
   59.1634   34.3049   52.8860 H   0  0  0  0  0  0  0  0  0  0  0  0
   60.7882   33.4579   49.2593 H   0  0  0  0  0  0  0  0  0  0  0  0
   60.7609   32.2410   50.6224 H   0  0  0  0  0  0  0  0  0  0  0  0
   58.3388   33.2710   49.0830 H   0  0  0  0  0  0  0  0  0  0  0  0
   59.1342   31.6479   48.9135 H   0  0  0  0  0  0  0  0  0  0  0  0
   61.8006   30.9061   49.7264 H   0  0  0  0  0  0  0  0  0  0  0  0
   63.3435   31.3433   46.6329 H   0  0  0  0  0  0  0  0  0  0  0  0
   62.7583   30.5066   48.1158 H   0  0  0  0  0  0  0  0  0  0  0  0
   60.9760   31.0468   46.3554 H   0  0  0  0  0  0  0  0  0  0  0  0
   60.6539   31.6370   48.0398 H   0  0  0  0  0  0  0  0  0  0  0  0
   59.1410   31.7835   46.4844 H   0  0  0  0  0  0  0  0  0  0  0  0
   56.7009   33.0386   47.3320 H   0  0  0  0  0  0  0  0  0  0  0  0
   57.2878   34.4700   47.1659 H   0  0  0  0  0  0  0  0  0  0  0  0
   56.8493   32.2714   44.8326 H   0  0  0  0  0  0  0  0  0  0  0  0
   57.4620   33.5693   44.2321 H   0  0  0  0  0  0  0  0  0  0  0  0
   62.9515   33.7779   45.8087 H   0  0  0  0  0  0  0  0  0  0  0  0
   61.9194   35.0693   46.5355 H   0  0  0  0  0  0  0  0  0  0  0  0
   64.0493   34.4057   47.8313 H   0  0  0  0  0  0  0  0  0  0  0  0
   62.4814   34.4333   48.7452 H   0  0  0  0  0  0  0  0  0  0  0  0
  1  2  2  0
  2  3  1  0
  3  4  2  0
  4  5  1  0
  5  6  2  0
  6  7  1  0
  7  8  1  0
  8  9  1  0
  9 10  1  0
 10 11  2  0
 11 12  1  0
 12 13  1  0
 13 14  1  0
 14 15  2  0
 14 16  1  0
 16 17  1  0
 17 18  1  0
 18 19  1  0
 19 20  1  0
 20 21  1  0
  7 22  2  0
  2 23  1  0
 23 24  1  0
 24 25  1  0
 25 26  1  0
 26 27  1  0
 27 28  2  0
 27 29  1  0
 29 30  1  0
 30 31  1  0
 26 32  1  0
 32 33  1  0
 22  3  1  0
 33 23  1  0
 13  9  2  0
 21 16  1  0
 31 29  1  0
  4 34  1  0
  5 35  1  0
  6 36  1  0
  8 37  1  0
  8 38  1  0
 10 39  1  0
 11 40  1  0
 16 41  1  0
 17 42  1  0
 17 43  1  0
 18 44  1  0
 18 45  1  0
 20 46  1  0
 20 47  1  0
 21 48  1  0
 21 49  1  0
 22 50  1  0
 24 51  1  0
 24 52  1  0
 25 53  1  0
 25 54  1  0
 29 55  1  0
 30 56  1  0
 30 57  1  0
 31 58  1  0
 31 59  1  0
 32 60  1  0
 32 61  1  0
 33 62  1  0
 33 63  1  0
M  CHG  1  16   1
M  END
>  <UniqueID>  (29) 
27

>  <SMILES>  (29) 
O=C(c1cccc(Cc2ccsc2C(=O)[NH+]2CCOCC2)c1)N1CCN(C(=O)C2CC2)CC1

>  <Energy>  (29) 
379.51971551875

>  <Genealogy>  (29) 
O=C(c1cccc(Cc2ccsc2C(=O)[NH+]2CCOCC2)c1)N1CCN(C(=O)C2CC2)CC1 (protonated)
O=C(c1cccc(Cc2ccsc2C(=O)[NH+]2CCOCC2)c1)N1CCN(C(=O)C2CC2)CC1 (3D coordinates assigned)
O=C(c1cccc(Cc2ccsc2C(=O)[NH+]2CCOCC2)c1)N1CCN(C(=O)C2CC2)CC1 (nonaromatic ring conformer: 379.51971551875 kcal/mol)

>  <smiles>  (29) 
O=C(c1cccc(Cc2ccsc2C(=O)N2CCOCC2)c1)N1CCN(C(=O)C2CC2)CC1

>  <score_type>  (29) 
oracle

>  <origin>  (29) 
adg

>  <m_score__min__energy>  (29) 
-8.5700000000000003

>  <m_primary>  (29) 
energy

$$$$
29:0
     RDKit          3D

 47 50  0  0  0  0  0  0  0  0999 V2000
   59.7771   35.2984   46.5624 H   0  0  0  0  0  0  0  0  0  0  0  0
   59.8850   34.2130   46.4200 C   0  0  0  0  0  0  0  0  0  0  0  0
   59.0490   33.5830   45.3760 C   0  0  0  0  0  0  0  0  0  0  0  0
   58.4920   34.2860   44.4890 O   0  0  0  0  0  0  0  0  0  0  0  0
   58.8610   32.1590   45.3950 N   0  0  0  0  0  0  0  0  0  0  0  0
   59.5270   31.5890   45.9650 H   0  0  0  0  0  0  0  0  0  0  0  0
   57.9060   31.4610   44.5770 C   0  0  0  0  0  0  0  0  0  0  0  0
   57.9250   31.6480   43.1850 C   0  0  0  0  0  0  0  0  0  0  0  0
   58.6561   32.3364   42.7360 H   0  0  0  0  0  0  0  0  0  0  0  0
   57.0210   30.9650   42.3670 C   0  0  0  0  0  0  0  0  0  0  0  0
   57.0337   31.1274   41.2791 H   0  0  0  0  0  0  0  0  0  0  0  0
   56.1010   30.0760   42.9290 C   0  0  0  0  0  0  0  0  0  0  0  0
   55.3854   29.5446   42.2844 H   0  0  0  0  0  0  0  0  0  0  0  0
   56.0900   29.8620   44.3100 C   0  0  0  0  0  0  0  0  0  0  0  0
   55.1860   28.9650   44.8670 O   0  0  0  0  0  0  0  0  0  0  0  0
   56.9920   30.5470   45.1330 C   0  0  0  0  0  0  0  0  0  0  0  0
   56.9861   30.3700   46.2186 H   0  0  0  0  0  0  0  0  0  0  0  0
   60.7640   33.5760   47.2090 C   0  0  0  0  0  0  0  0  0  0  0  0
   61.8183   33.8821   47.1406 H   0  0  0  0  0  0  0  0  0  0  0  0
   60.4310   32.4960   48.1630 C   0  0  0  0  0  0  0  0  0  0  0  0
   60.0190   32.7870   49.4740 C   0  0  0  0  0  0  0  0  0  0  0  0
   59.9136   33.8332   49.7970 H   0  0  0  0  0  0  0  0  0  0  0  0
   59.7430   31.7500   50.3680 C   0  0  0  0  0  0  0  0  0  0  0  0
   59.3944   31.9816   51.3853 H   0  0  0  0  0  0  0  0  0  0  0  0
   59.9080   30.4200   49.9750 C   0  0  0  0  0  0  0  0  0  0  0  0
   59.6690   29.6073   50.6767 H   0  0  0  0  0  0  0  0  0  0  0  0
   60.3780   30.1170   48.6870 C   0  0  0  0  0  0  0  0  0  0  0  0
   60.5520   28.7210   48.2400 C   0  0  0  0  0  0  0  0  0  0  0  0
   61.3352   28.1162   48.7204 H   0  0  0  0  0  0  0  0  0  0  0  0
   59.8090   28.1480   47.2810 C   0  0  0  0  0  0  0  0  0  0  0  0
   59.7680   28.6030   45.8920 C   0  0  0  0  0  0  0  0  0  0  0  0
   60.3220   29.6360   45.4290 O   0  0  0  0  0  0  0  0  0  0  0  0
   58.9940   27.6500   45.1350 C   0  0  0  0  0  0  0  0  0  0  0  0
   58.6820   27.6460   43.7750 C   0  0  0  0  0  0  0  0  0  0  0  0
   59.0331   28.4514   43.1132 H   0  0  0  0  0  0  0  0  0  0  0  0
   57.9080   26.5870   43.2730 C   0  0  0  0  0  0  0  0  0  0  0  0
   57.6473   26.5573   42.2048 H   0  0  0  0  0  0  0  0  0  0  0  0
   57.4640   25.5620   44.1330 C   0  0  0  0  0  0  0  0  0  0  0  0
   56.8574   24.7364   43.7324 H   0  0  0  0  0  0  0  0  0  0  0  0
   57.7920   25.5890   45.4990 C   0  0  0  0  0  0  0  0  0  0  0  0
   57.4482   24.7917   46.1744 H   0  0  0  0  0  0  0  0  0  0  0  0
   58.5630   26.6480   45.9820 C   0  0  0  0  0  0  0  0  0  0  0  0
   59.0130   26.8670   47.3970 C   0  0  0  0  0  0  0  0  0  0  0  0
   59.6422   26.0363   47.7491 H   0  0  0  0  0  0  0  0  0  0  0  0
   58.1866   26.9231   48.1208 H   0  0  0  0  0  0  0  0  0  0  0  0
   60.6250   31.1600   47.7820 C   0  0  0  0  0  0  0  0  0  0  0  0
   60.9738   30.9282   46.7648 H   0  0  0  0  0  0  0  0  0  0  0  0
  1  2  1  0
  2  3  1  0
  3  4  2  0
  3  5  1  0
  5  6  1  0
  5  7  1  0
  7  8  2  0
  8  9  1  0
  8 10  1  0
 10 11  1  0
 10 12  2  0
 12 13  1  0
 12 14  1  0
 14 15  1  0
 14 16  2  0
 16 17  1  0
  2 18  2  0
 18 19  1  0
 18 20  1  0
 20 21  2  0
 21 22  1  0
 21 23  1  0
 23 24  1  0
 23 25  2  0
 25 26  1  0
 25 27  1  0
 27 28  1  0
 28 29  1  0
 28 30  2  0
 30 31  1  0
 31 32  2  0
 31 33  1  0
 33 34  2  0
 34 35  1  0
 34 36  1  0
 36 37  1  0
 36 38  2  0
 38 39  1  0
 38 40  1  0
 40 41  1  0
 40 42  2  0
 42 43  1  0
 43 44  1  0
 43 45  1  0
 27 46  2  0
 46 47  1  0
 16  7  1  0
 46 20  1  0
 43 30  1  0
 42 33  1  0
M  CHG  1  15  -1
M  END
>  <UniqueID>  (30) 
28

>  <SMILES>  (30) 
O=C(/C=C\c1cccc(/C=C2\Cc3ccccc3C2=O)c1)Nc1cccc([O-])c1

>  <Energy>  (30) 
86.89551449035096

>  <Genealogy>  (30) 
O=C(C=Cc1cccc(C=C2Cc3ccccc3C2=O)c1)Nc1cccc([O-])c1 (protonated)
O=C(/C=C\c1cccc(/C=C2\Cc3ccccc3C2=O)c1)Nc1cccc([O-])c1 (cis-trans isomerization)
O=C(/C=C\c1cccc(/C=C2\Cc3ccccc3C2=O)c1)Nc1cccc([O-])c1 (3D coordinates assigned)
O=C(/C=C\c1cccc(/C=C2\Cc3ccccc3C2=O)c1)Nc1cccc([O-])c1 (nonaromatic ring conformer: 86.89551449035096 kcal/mol)

>  <smiles>  (30) 
O=C(C=Cc1cccc(C=C2Cc3ccccc3C2=O)c1)Nc1cccc(O)c1

>  <score_type>  (30) 
oracle

>  <origin>  (30) 
adg

>  <m_score__min__energy>  (30) 
-14.08

>  <m_primary>  (30) 
energy

$$$$
30:0
     RDKit          3D

 46 48  0  0  0  0  0  0  0  0999 V2000
   55.9130   30.4660   44.1810 C   0  0  0  0  0  0  0  0  0  0  0  0
   56.5600   29.5140   44.8440 C   0  0  0  0  0  0  0  0  0  0  0  0
   56.0060   28.3040   45.2370 O   0  0  0  0  0  0  0  0  0  0  0  0
   56.9940   27.5800   45.9100 C   0  0  0  0  0  0  0  0  0  0  0  0
   58.1490   28.2520   45.9570 C   0  0  0  0  0  0  0  0  0  0  0  0
   59.4060   27.7980   46.6390 C   0  0  0  0  0  0  0  0  0  0  0  0
   59.6340   28.5640   47.9180 C   0  0  0  0  0  0  0  0  0  0  0  0
   59.4650   27.9900   48.9870 O   0  0  0  0  0  0  0  0  0  0  0  0
   60.0710   29.9500   47.8940 N   0  0  0  0  0  0  0  0  0  0  0  0
   61.4720   30.0490   48.3520 C   0  0  0  0  0  0  0  0  0  0  0  0
   62.0050   31.4680   48.1060 C   0  0  0  0  0  0  0  0  0  0  0  0
   60.9650   32.4720   48.3760 N   0  0  0  0  0  0  0  0  0  0  0  0
   61.1770   33.8330   47.9500 C   0  0  0  0  0  0  0  0  0  0  0  0
   62.3560   34.2640   47.8150 O   0  0  0  0  0  0  0  0  0  0  0  0
   60.0190   34.7600   47.6820 C   0  0  0  0  0  0  0  0  0  0  0  0
   59.1450   34.2480   46.5660 C   0  0  0  0  0  0  0  0  0  0  0  0
   59.6190   34.2460   45.2430 C   0  0  0  0  0  0  0  0  0  0  0  0
   58.8020   33.7890   44.2040 C   0  0  0  0  0  0  0  0  0  0  0  0
   57.5070   33.3410   44.4750 C   0  0  0  0  0  0  0  0  0  0  0  0
   57.0240   33.3540   45.7860 C   0  0  0  0  0  0  0  0  0  0  0  0
   57.8360   33.8110   46.8290 C   0  0  0  0  0  0  0  0  0  0  0  0
   59.8240   32.0920   49.2210 C   0  0  0  0  0  0  0  0  0  0  0  0
   59.1560   30.8000   48.7000 C   0  0  0  0  0  0  0  0  0  0  0  0
   57.9390   29.5280   45.2880 C   0  0  0  0  0  0  0  0  0  0  0  0
   58.7800   30.4510   45.1270 O   0  0  0  0  0  0  0  0  0  0  0  0
   56.4322   31.3969   43.9090 H   0  0  0  0  0  0  0  0  0  0  0  0
   54.8580   30.3235   43.9039 H   0  0  0  0  0  0  0  0  0  0  0  0
   56.8406   26.5820   46.3465 H   0  0  0  0  0  0  0  0  0  0  0  0
   59.3220   26.7262   46.8717 H   0  0  0  0  0  0  0  0  0  0  0  0
   60.2559   27.9806   45.9650 H   0  0  0  0  0  0  0  0  0  0  0  0
   60.0350   30.2960   46.9050 H   0  0  0  0  0  0  0  0  0  0  0  0
   61.5207   29.8227   49.4274 H   0  0  0  0  0  0  0  0  0  0  0  0
   62.0872   29.3296   47.7916 H   0  0  0  0  0  0  0  0  0  0  0  0
   62.8632   31.6507   48.7695 H   0  0  0  0  0  0  0  0  0  0  0  0
   62.3100   31.5517   47.0525 H   0  0  0  0  0  0  0  0  0  0  0  0
   59.4143   34.8495   48.5965 H   0  0  0  0  0  0  0  0  0  0  0  0
   60.4235   35.7377   47.3812 H   0  0  0  0  0  0  0  0  0  0  0  0
   60.6355   34.6049   45.0241 H   0  0  0  0  0  0  0  0  0  0  0  0
   59.1800   33.7823   43.1710 H   0  0  0  0  0  0  0  0  0  0  0  0
   56.8678   32.9781   43.6567 H   0  0  0  0  0  0  0  0  0  0  0  0
   56.0030   33.0041   45.9982 H   0  0  0  0  0  0  0  0  0  0  0  0
   57.4485   33.8283   47.8584 H   0  0  0  0  0  0  0  0  0  0  0  0
   60.1776   31.9249   50.2491 H   0  0  0  0  0  0  0  0  0  0  0  0
   59.0830   32.9046   49.1959 H   0  0  0  0  0  0  0  0  0  0  0  0
   58.8058   30.2152   49.5633 H   0  0  0  0  0  0  0  0  0  0  0  0
   58.3282   31.1032   48.0421 H   0  0  0  0  0  0  0  0  0  0  0  0
  1  2  2  0
  2  3  1  0
  3  4  1  0
  4  5  2  0
  5  6  1  0
  6  7  1  0
  7  8  2  0
  7  9  1  0
  9 10  1  0
 10 11  1  0
 11 12  1  0
 12 13  1  0
 13 14  2  0
 13 15  1  0
 15 16  1  0
 16 17  2  0
 17 18  1  0
 18 19  2  0
 19 20  1  0
 20 21  2  0
 12 22  1  0
 22 23  1  0
  5 24  1  0
 24 25  2  0
 24  2  1  0
 23  9  1  0
 21 16  1  0
  1 26  1  0
  1 27  1  0
  4 28  1  0
  6 29  1  0
  6 30  1  0
  9 31  1  0
 10 32  1  0
 10 33  1  0
 11 34  1  0
 11 35  1  0
 15 36  1  0
 15 37  1  0
 17 38  1  0
 18 39  1  0
 19 40  1  0
 20 41  1  0
 21 42  1  0
 22 43  1  0
 22 44  1  0
 23 45  1  0
 23 46  1  0
M  CHG  1   9   1
M  END
>  <UniqueID>  (31) 
29

>  <SMILES>  (31) 
C=C1OC=C(CC(=O)[NH+]2CCN(C(=O)Cc3ccccc3)CC2)C1=O

>  <Energy>  (31) 
78.69461788518416

>  <Genealogy>  (31) 
C=C1OC=C(CC(=O)[NH+]2CCN(C(=O)Cc3ccccc3)CC2)C1=O (protonated)
C=C1OC=C(CC(=O)[NH+]2CCN(C(=O)Cc3ccccc3)CC2)C1=O (3D coordinates assigned)
C=C1OC=C(CC(=O)[NH+]2CCN(C(=O)Cc3ccccc3)CC2)C1=O (nonaromatic ring conformer: 78.69461788518416 kcal/mol)

>  <smiles>  (31) 
C=C1OC=C(CC(=O)N2CCN(C(=O)Cc3ccccc3)CC2)C1=O

>  <score_type>  (31) 
oracle

>  <origin>  (31) 
adg

>  <m_score__min__energy>  (31) 
-7.71

>  <m_primary>  (31) 
energy

$$$$
31:0
     RDKit          3D

 60 63  0  0  0  0  0  0  0  0999 V2000
   55.8360   29.3350   45.2400 O   0  0  0  0  0  0  0  0  0  0  0  0
   56.7510   29.5340   44.3990 C   0  0  0  0  0  0  0  0  0  0  0  0
   57.2020   28.4370   43.5920 N   0  0  0  0  0  0  0  0  0  0  0  0
   58.2490   27.4820   43.9600 C   0  0  0  0  0  0  0  0  0  0  0  0
   57.9040   26.7750   45.2540 C   0  0  0  0  0  0  0  0  0  0  0  0
   56.7040   26.0450   45.3370 C   0  0  0  0  0  0  0  0  0  0  0  0
   56.4060   25.2960   46.4770 C   0  0  0  0  0  0  0  0  0  0  0  0
   57.2980   25.2640   47.5490 C   0  0  0  0  0  0  0  0  0  0  0  0
   58.4870   25.9940   47.4890 C   0  0  0  0  0  0  0  0  0  0  0  0
   58.7930   26.7660   46.3580 C   0  0  0  0  0  0  0  0  0  0  0  0
   60.0530   27.5340   46.3460 C   0  0  0  0  0  0  0  0  0  0  0  0
   61.0660   27.0410   45.7750 O   0  0  0  0  0  0  0  0  0  0  0  0
   60.1390   28.8300   46.9710 N   0  0  0  0  0  0  0  0  0  0  0  0
   61.1270   29.8040   46.4920 C   0  0  0  0  0  0  0  0  0  0  0  0
   60.6280   31.2280   46.7510 C   0  0  0  0  0  0  0  0  0  0  0  0
   60.3320   31.5070   48.2580 C   0  0  0  0  0  0  0  0  0  0  0  0
   61.4740   32.1960   48.9240 N   0  0  0  0  0  0  0  0  0  0  0  0
   62.6070   32.4630   48.0150 C   0  0  0  0  0  0  0  0  0  0  0  0
   63.1990   33.8240   48.3760 C   0  0  0  0  0  0  0  0  0  0  0  0
   62.3650   34.3330   49.5290 C   0  0  0  0  0  0  0  0  0  0  0  0
   61.0980   33.5120   49.4610 C   0  0  0  0  0  0  0  0  0  0  0  0
   59.9740   30.1980   49.0180 C   0  0  0  0  0  0  0  0  0  0  0  0
   59.2890   29.1560   48.1270 C   0  0  0  0  0  0  0  0  0  0  0  0
   57.3410   30.8810   44.2900 C   0  0  0  0  0  0  0  0  0  0  0  0
   57.6120   31.4250   43.0260 C   0  0  0  0  0  0  0  0  0  0  0  0
   58.1350   32.7160   42.9160 C   0  0  0  0  0  0  0  0  0  0  0  0
   58.4080   33.4630   44.0650 C   0  0  0  0  0  0  0  0  0  0  0  0
   58.1850   32.9140   45.3400 C   0  0  0  0  0  0  0  0  0  0  0  0
   58.4300   33.7330   46.5830 C   0  0  0  0  0  0  0  0  0  0  0  0
   57.8130   34.9630   46.4440 F   0  0  0  0  0  0  0  0  0  0  0  0
   57.9120   33.0930   47.6940 F   0  0  0  0  0  0  0  0  0  0  0  0
   59.7850   33.9290   46.7890 F   0  0  0  0  0  0  0  0  0  0  0  0
   57.6380   31.6230   45.4420 C   0  0  0  0  0  0  0  0  0  0  0  0
   58.3538   26.7358   43.1586 H   0  0  0  0  0  0  0  0  0  0  0  0
   59.1922   28.0306   44.0995 H   0  0  0  0  0  0  0  0  0  0  0  0
   55.9946   26.0646   44.4966 H   0  0  0  0  0  0  0  0  0  0  0  0
   55.4647   24.7293   46.5300 H   0  0  0  0  0  0  0  0  0  0  0  0
   57.0650   24.6641   48.4411 H   0  0  0  0  0  0  0  0  0  0  0  0
   59.1892   25.9635   48.3351 H   0  0  0  0  0  0  0  0  0  0  0  0
   62.0779   29.6492   47.0229 H   0  0  0  0  0  0  0  0  0  0  0  0
   61.2758   29.6650   45.4110 H   0  0  0  0  0  0  0  0  0  0  0  0
   61.3965   31.9363   46.4079 H   0  0  0  0  0  0  0  0  0  0  0  0
   59.6824   31.3497   46.2024 H   0  0  0  0  0  0  0  0  0  0  0  0
   59.4606   32.1774   48.2941 H   0  0  0  0  0  0  0  0  0  0  0  0
   63.3716   31.6812   48.1336 H   0  0  0  0  0  0  0  0  0  0  0  0
   62.2634   32.4636   46.9700 H   0  0  0  0  0  0  0  0  0  0  0  0
   64.2509   33.7175   48.6797 H   0  0  0  0  0  0  0  0  0  0  0  0
   63.1811   34.5168   47.5218 H   0  0  0  0  0  0  0  0  0  0  0  0
   62.8831   34.1724   50.4860 H   0  0  0  0  0  0  0  0  0  0  0  0
   62.1707   35.4137   49.4636 H   0  0  0  0  0  0  0  0  0  0  0  0
   60.6639   33.4013   50.4656 H   0  0  0  0  0  0  0  0  0  0  0  0
   60.3456   33.9987   48.8231 H   0  0  0  0  0  0  0  0  0  0  0  0
   60.9004   29.7613   49.4194 H   0  0  0  0  0  0  0  0  0  0  0  0
   59.2658   30.4645   49.8164 H   0  0  0  0  0  0  0  0  0  0  0  0
   59.1071   28.2424   48.7121 H   0  0  0  0  0  0  0  0  0  0  0  0
   58.3362   29.5687   47.7638 H   0  0  0  0  0  0  0  0  0  0  0  0
   57.4125   30.8343   42.1197 H   0  0  0  0  0  0  0  0  0  0  0  0
   58.3323   33.1453   41.9226 H   0  0  0  0  0  0  0  0  0  0  0  0
   58.7997   34.4866   43.9714 H   0  0  0  0  0  0  0  0  0  0  0  0
   57.4413   31.1911   46.4344 H   0  0  0  0  0  0  0  0  0  0  0  0
  1  2  2  0
  2  3  1  0
  3  4  1  0
  4  5  1  0
  5  6  2  0
  6  7  1  0
  7  8  2  0
  8  9  1  0
  9 10  2  0
 10 11  1  0
 11 12  2  0
 11 13  1  0
 13 14  1  0
 14 15  1  0
 15 16  1  0
 16 17  1  0
 17 18  1  0
 18 19  1  0
 19 20  1  0
 20 21  1  0
 16 22  1  0
 22 23  1  0
  2 24  1  0
 24 25  2  0
 25 26  1  0
 26 27  2  0
 27 28  1  0
 28 29  1  0
 29 30  1  0
 29 31  1  0
 29 32  1  0
 28 33  2  0
 10  5  1  0
 23 13  1  0
 33 24  1  0
 21 17  1  0
  4 34  1  0
  4 35  1  0
  6 36  1  0
  7 37  1  0
  8 38  1  0
  9 39  1  0
 14 40  1  0
 14 41  1  0
 15 42  1  0
 15 43  1  0
 16 44  1  0
 18 45  1  0
 18 46  1  0
 19 47  1  0
 19 48  1  0
 20 49  1  0
 20 50  1  0
 21 51  1  0
 21 52  1  0
 22 53  1  0
 22 54  1  0
 23 55  1  0
 23 56  1  0
 25 57  1  0
 26 58  1  0
 27 59  1  0
 33 60  1  0
M  CHG  1   3  -1
M  END
>  <UniqueID>  (32) 
30

>  <SMILES>  (32) 
O=C([N-]Cc1ccccc1C(=O)N1CCC(N2CCCC2)CC1)c1cccc(C(F)(F)F)c1

>  <Energy>  (32) 
79.6088744452454

>  <Genealogy>  (32) 
O=C([N-]Cc1ccccc1C(=O)N1CCC(N2CCCC2)CC1)c1cccc(C(F)(F)F)c1 (protonated)
O=C([N-]Cc1ccccc1C(=O)N1CCC(N2CCCC2)CC1)c1cccc(C(F)(F)F)c1 (3D coordinates assigned)
O=C([N-]Cc1ccccc1C(=O)N1CCC(N2CCCC2)CC1)c1cccc(C(F)(F)F)c1 (nonaromatic ring conformer: 79.6088744452454 kcal/mol)

>  <smiles>  (32) 
O=C(NCc1ccccc1C(=O)N1CCC(N2CCCC2)CC1)c1cccc(C(F)(F)F)c1

>  <score_type>  (32) 
oracle

>  <origin>  (32) 
adg

>  <m_score__min__energy>  (32) 
-11.460000000000001

>  <m_primary>  (32) 
energy

$$$$
32:0
     RDKit          3D

 65 69  0  0  0  0  0  0  0  0999 V2000
   59.8181   35.3239   45.3350 H   0  0  0  0  0  0  0  0  0  0  0  0
   59.1040   34.5290   45.0740 C   0  0  0  0  0  0  0  0  0  0  0  0
   58.2856   34.7348   44.3685 H   0  0  0  0  0  0  0  0  0  0  0  0
   59.2310   33.3110   45.6150 C   0  0  0  0  0  0  0  0  0  0  0  0
   60.2390   32.9280   46.5280 C   0  0  0  0  0  0  0  0  0  0  0  0
   61.1900   33.7160   47.0650 C   0  0  0  0  0  0  0  0  0  0  0  0
   61.5132   34.5966   46.4904 H   0  0  0  0  0  0  0  0  0  0  0  0
   61.8260   33.4750   48.3730 C   0  0  0  0  0  0  0  0  0  0  0  0
   63.0610   33.0470   48.5000 O   0  0  0  0  0  0  0  0  0  0  0  0
   63.3270   32.9180   49.7800 C   0  0  0  0  0  0  0  0  0  0  0  0
   64.6000   32.4840   50.2800 N   0  0  0  0  0  0  0  0  0  0  0  0
   65.6840   33.4510   50.4840 C   0  0  0  0  0  0  0  0  0  0  0  0
   65.6122   34.2377   49.7185 H   0  0  0  0  0  0  0  0  0  0  0  0
   65.5832   33.8809   51.4915 H   0  0  0  0  0  0  0  0  0  0  0  0
   67.0680   32.7680   50.3780 C   0  0  0  0  0  0  0  0  0  0  0  0
   67.5792   33.1550   49.4841 H   0  0  0  0  0  0  0  0  0  0  0  0
   67.6134   32.9990   51.3049 H   0  0  0  0  0  0  0  0  0  0  0  0
   66.9980   31.3560   50.2780 O   0  0  0  0  0  0  0  0  0  0  0  0
   66.1370   30.8410   51.2740 C   0  0  0  0  0  0  0  0  0  0  0  0
   66.2642   29.7504   51.3407 H   0  0  0  0  0  0  0  0  0  0  0  0
   66.3826   31.2984   52.2438 H   0  0  0  0  0  0  0  0  0  0  0  0
   64.6870   31.1640   50.9100 C   0  0  0  0  0  0  0  0  0  0  0  0
   64.3109   30.4031   50.2104 H   0  0  0  0  0  0  0  0  0  0  0  0
   64.0809   31.1663   51.8279 H   0  0  0  0  0  0  0  0  0  0  0  0
   62.2190   33.2710   50.5340 C   0  0  0  0  0  0  0  0  0  0  0  0
   62.1170   33.4120   51.9990 C   0  0  0  0  0  0  0  0  0  0  0  0
   62.9690   34.1130   52.6120 O   0  0  0  0  0  0  0  0  0  0  0  0
   61.0250   32.8210   52.7280 N   0  0  0  0  0  0  0  0  0  0  0  0
   60.5520   31.4670   52.4300 C   0  0  0  0  0  0  0  0  0  0  0  0
   60.9791   31.1383   51.4711 H   0  0  0  0  0  0  0  0  0  0  0  0
   60.8706   30.7949   53.2404 H   0  0  0  0  0  0  0  0  0  0  0  0
   59.0130   31.4350   52.3360 C   0  0  0  0  0  0  0  0  0  0  0  0
   58.7273   31.6013   51.2868 H   0  0  0  0  0  0  0  0  0  0  0  0
   58.6922   30.4525   52.7126 H   0  0  0  0  0  0  0  0  0  0  0  0
   58.3340   32.4570   53.1720 N   0  0  0  0  0  0  0  0  0  0  0  0
   57.8630   33.6010   52.3700 C   0  0  0  0  0  0  0  0  0  0  0  0
   57.5311   34.4072   53.0408 H   0  0  0  0  0  0  0  0  0  0  0  0
   58.6838   33.9666   51.7354 H   0  0  0  0  0  0  0  0  0  0  0  0
   57.0227   33.2827   51.7354 H   0  0  0  0  0  0  0  0  0  0  0  0
   59.1420   32.8890   54.3310 C   0  0  0  0  0  0  0  0  0  0  0  0
   58.5697   33.6308   54.9074 H   0  0  0  0  0  0  0  0  0  0  0  0
   59.3664   32.0018   54.9414 H   0  0  0  0  0  0  0  0  0  0  0  0
   60.4760   33.5190   53.8940 C   0  0  0  0  0  0  0  0  0  0  0  0
   60.3085   34.5751   53.6360 H   0  0  0  0  0  0  0  0  0  0  0  0
   61.1932   33.4362   54.7239 H   0  0  0  0  0  0  0  0  0  0  0  0
   61.2460   33.6250   49.6220 C   0  0  0  0  0  0  0  0  0  0  0  0
   60.2208   33.9578   49.8415 H   0  0  0  0  0  0  0  0  0  0  0  0
   59.9720   31.3040   46.9230 S   0  0  0  0  0  0  0  0  0  0  0  0
   58.6290   31.1510   45.9350 C   0  0  0  0  0  0  0  0  0  0  0  0
   57.8650   29.9810   45.8460 O   0  0  0  0  0  0  0  0  0  0  0  0
   56.6550   29.8660   45.1530 C   0  0  0  0  0  0  0  0  0  0  0  0
   56.2280   30.8170   44.4440 O   0  0  0  0  0  0  0  0  0  0  0  0
   55.9100   28.6460   45.1950 N   0  0  0  0  0  0  0  0  0  0  0  0
   56.4240   27.3840   45.6320 C   0  0  0  0  0  0  0  0  0  0  0  0
   55.6190   26.3490   46.0030 N   0  0  0  0  0  0  0  0  0  0  0  0
   56.3360   25.2660   46.3690 C   0  0  0  0  0  0  0  0  0  0  0  0
   55.7240   24.0100   46.8870 C   0  0  0  0  0  0  0  0  0  0  0  0
   55.7313   24.0250   47.9869 H   0  0  0  0  0  0  0  0  0  0  0  0
   54.6870   23.9323   46.5283 H   0  0  0  0  0  0  0  0  0  0  0  0
   56.3018   23.1455   46.5283 H   0  0  0  0  0  0  0  0  0  0  0  0
   57.9890   25.5630   46.2780 S   0  0  0  0  0  0  0  0  0  0  0  0
   57.7880   27.1370   45.7210 C   0  0  0  0  0  0  0  0  0  0  0  0
   58.5927   27.8444   45.4718 H   0  0  0  0  0  0  0  0  0  0  0  0
   58.3510   32.3130   45.3000 N   0  0  0  0  0  0  0  0  0  0  0  0
   57.5290   32.4500   44.6720 H   0  0  0  0  0  0  0  0  0  0  0  0
  1  2  1  0
  2  3  1  0
  2  4  2  0
  4  5  1  0
  5  6  2  0
  6  7  1  0
  6  8  1  0
  8  9  1  0
  9 10  1  0
 10 11  1  0
 11 12  1  0
 12 13  1  0
 12 14  1  0
 12 15  1  0
 15 16  1  0
 15 17  1  0
 15 18  1  0
 18 19  1  0
 19 20  1  0
 19 21  1  0
 19 22  1  0
 22 23  1  0
 22 24  1  0
 10 25  2  0
 25 26  1  0
 26 27  2  0
 26 28  1  0
 28 29  1  0
 29 30  1  0
 29 31  1  0
 29 32  1  0
 32 33  1  0
 32 34  1  0
 32 35  1  0
 35 36  1  0
 36 37  1  0
 36 38  1  0
 36 39  1  0
 35 40  1  0
 40 41  1  0
 40 42  1  0
 40 43  1  0
 43 44  1  0
 43 45  1  0
 25 46  1  0
 46 47  1  0
  5 48  1  0
 48 49  1  0
 49 50  1  0
 50 51  1  0
 51 52  2  0
 51 53  1  0
 53 54  1  0
 54 55  1  0
 55 56  2  0
 56 57  1  0
 57 58  1  0
 57 59  1  0
 57 60  1  0
 56 61  1  0
 61 62  1  0
 62 63  1  0
 49 64  2  0
 64 65  1  0
 64  4  1  0
 46  8  2  0
 62 54  2  0
 22 11  1  0
 43 28  1  0
M  CHG  2  53  -1  64   1
M  END
>  <UniqueID>  (33) 
31

>  <SMILES>  (33) 
C=c1[nH+]c(OC(=O)[N-]c2csc(C)n2)s/c1=C\c1cc(C(=O)N2CCN(C)CC2)c(N2CCOCC2)o1

>  <Energy>  (33) 
182.3352198992659

>  <Genealogy>  (33) 
C=c1[nH+]c(OC(=O)[N-]c2csc(C)n2)sc1=Cc1cc(C(=O)N2CCN(C)CC2)c(N2CCOCC2)o1 (protonated)
C=c1[nH+]c(OC(=O)[N-]c2csc(C)n2)s/c1=C\c1cc(C(=O)N2CCN(C)CC2)c(N2CCOCC2)o1 (cis-trans isomerization)
C=c1[nH+]c(OC(=O)[N-]c2csc(C)n2)s/c1=C\c1cc(C(=O)N2CCN(C)CC2)c(N2CCOCC2)o1 (3D coordinates assigned)
C=c1[nH+]c(OC(=O)[N-]c2csc(C)n2)s/c1=C\c1cc(C(=O)N2CCN(C)CC2)c(N2CCOCC2)o1 (nonaromatic ring conformer: 182.3352198992659 kcal/mol)

>  <smiles>  (33) 
C=c1nc(OC(=O)Nc2csc(C)n2)sc1=Cc1cc(C(=O)N2CCN(C)CC2)c(N2CCOCC2)o1

>  <score_type>  (33) 
oracle

>  <origin>  (33) 
adg

>  <m_score__min__energy>  (33) 
-9.8200000000000003

>  <m_primary>  (33) 
energy

$$$$
33:0
     RDKit          3D

 48 50  0  0  0  0  0  0  0  0999 V2000
   54.5380   28.9200   54.2280 C   0  0  0  0  0  0  0  0  0  0  0  0
   55.0930   29.6110   53.2170 C   0  0  0  0  0  0  0  0  0  0  0  0
   54.4790   30.6150   52.4540 C   0  0  0  0  0  0  0  0  0  0  0  0
   53.1940   31.0160   52.3820 C   0  0  0  0  0  0  0  0  0  0  0  0
   52.3780   31.0710   51.1590 C   0  0  0  0  0  0  0  0  0  0  0  0
   52.3630   30.1120   50.2190 N   0  0  0  0  0  0  0  0  0  0  0  0
   51.3940   30.4880   49.3620 C   0  0  0  0  0  0  0  0  0  0  0  0
   51.0970   29.8290   48.3320 O   0  0  0  0  0  0  0  0  0  0  0  0
   50.7590   31.6270   49.7120 N   0  0  0  0  0  0  0  0  0  0  0  0
   51.3800   31.9760   50.8560 C   0  0  0  0  0  0  0  0  0  0  0  0
   51.0230   33.0790   51.6200 O   0  0  0  0  0  0  0  0  0  0  0  0
   55.4810   31.1920   51.6970 C   0  0  0  0  0  0  0  0  0  0  0  0
   56.6470   30.5060   51.9700 C   0  0  0  0  0  0  0  0  0  0  0  0
   57.9460   30.8400   51.3410 C   0  0  0  0  0  0  0  0  0  0  0  0
   58.2330   32.0530   51.1420 O   0  0  0  0  0  0  0  0  0  0  0  0
   58.8880   29.8090   51.0090 N   0  0  0  0  0  0  0  0  0  0  0  0
   59.1760   29.3860   49.8160 C   0  0  0  0  0  0  0  0  0  0  0  0
   58.7830   30.0100   48.6560 C   0  0  0  0  0  0  0  0  0  0  0  0
   59.3240   29.2040   47.6660 C   0  0  0  0  0  0  0  0  0  0  0  0
   59.2070   29.3680   46.1620 C   0  0  0  0  0  0  0  0  0  0  0  0
   58.0750   28.4930   45.5800 C   0  0  0  0  0  0  0  0  0  0  0  0
   60.5440   28.9600   45.5170 C   0  0  0  0  0  0  0  0  0  0  0  0
   58.9110   30.8460   45.8410 C   0  0  0  0  0  0  0  0  0  0  0  0
   59.9630   28.2060   48.2420 O   0  0  0  0  0  0  0  0  0  0  0  0
   59.8990   28.2830   49.5390 N   0  0  0  0  0  0  0  0  0  0  0  0
   56.4100   29.5220   52.8780 N   0  0  0  0  0  0  0  0  0  0  0  0
   57.3850   28.5520   53.4040 C   0  0  0  0  0  0  0  0  0  0  0  0
   58.3730   29.2330   54.3480 C   0  0  0  0  0  0  0  0  0  0  0  0
   55.1225   28.1515   54.7551 H   0  0  0  0  0  0  0  0  0  0  0  0
   53.4994   29.1231   54.5281 H   0  0  0  0  0  0  0  0  0  0  0  0
   52.7132   31.3297   53.3203 H   0  0  0  0  0  0  0  0  0  0  0  0
   52.9640   29.2590   50.1690 H   0  0  0  0  0  0  0  0  0  0  0  0
   55.3699   32.0402   51.0055 H   0  0  0  0  0  0  0  0  0  0  0  0
   58.1848   30.9260   48.5411 H   0  0  0  0  0  0  0  0  0  0  0  0
   57.4971   28.0463   46.4025 H   0  0  0  0  0  0  0  0  0  0  0  0
   57.4116   29.1154   44.9615 H   0  0  0  0  0  0  0  0  0  0  0  0
   58.5101   27.6942   44.9615 H   0  0  0  0  0  0  0  0  0  0  0  0
   61.2780   28.7360   46.3051 H   0  0  0  0  0  0  0  0  0  0  0  0
   60.3925   28.0672   44.8925 H   0  0  0  0  0  0  0  0  0  0  0  0
   60.9168   29.7853   44.8925 H   0  0  0  0  0  0  0  0  0  0  0  0
   58.7982   31.4094   46.7790 H   0  0  0  0  0  0  0  0  0  0  0  0
   59.7424   31.2681   45.2575 H   0  0  0  0  0  0  0  0  0  0  0  0
   57.9811   30.9154   45.2575 H   0  0  0  0  0  0  0  0  0  0  0  0
   56.8489   27.7627   53.9514 H   0  0  0  0  0  0  0  0  0  0  0  0
   57.9438   28.1212   52.5601 H   0  0  0  0  0  0  0  0  0  0  0  0
   58.0823   29.0326   55.3898 H   0  0  0  0  0  0  0  0  0  0  0  0
   59.3840   28.8390   54.1672 H   0  0  0  0  0  0  0  0  0  0  0  0
   58.3645   30.3180   54.1672 H   0  0  0  0  0  0  0  0  0  0  0  0
  1  2  2  0
  2  3  1  0
  3  4  2  3
  4  5  1  0
  5  6  1  0
  6  7  1  0
  7  8  2  0
  7  9  1  0
  9 10  1  0
 10 11  1  0
  3 12  1  0
 12 13  2  0
 13 14  1  0
 14 15  2  0
 14 16  1  0
 16 17  2  3
 17 18  1  0
 18 19  2  0
 19 20  1  0
 20 21  1  0
 20 22  1  0
 20 23  1  0
 19 24  1  0
 24 25  1  0
 13 26  1  0
 26 27  1  0
 27 28  1  0
 26  2  1  0
 10  5  2  0
 25 17  1  0
  1 29  1  0
  1 30  1  0
  4 31  1  0
  6 32  1  0
 12 33  1  0
 18 34  1  0
 21 35  1  0
 21 36  1  0
 21 37  1  0
 22 38  1  0
 22 39  1  0
 22 40  1  0
 23 41  1  0
 23 42  1  0
 23 43  1  0
 27 44  1  0
 27 45  1  0
 28 46  1  0
 28 47  1  0
 28 48  1  0
M  CHG  3   9  -1  11  -1  25  -1
M  END
>  <UniqueID>  (34) 
32

>  <SMILES>  (34) 
C=c1c(=Cc2[nH]c(=O)[n-]c2[O-])cc(C(=O)N=c2cc(C(C)(C)C)o[n-]2)n1CC

>  <Energy>  (34) 
150.22627394617317

>  <Genealogy>  (34) 
C=c1c(=Cc2[nH]c(=O)[n-]c2[O-])cc(C(=O)N=c2cc(C(C)(C)C)o[n-]2)n1CC (protonated)
C=c1c(=Cc2[nH]c(=O)[n-]c2[O-])cc(C(=O)N=c2cc(C(C)(C)C)o[n-]2)n1CC (3D coordinates assigned)
C=c1c(=Cc2[nH]c(=O)[n-]c2[O-])cc(C(=O)N=c2cc(C(C)(C)C)o[n-]2)n1CC (optimized conformer: 150.22627394617317 kcal/mol)

>  <smiles>  (34) 
C=c1c(=Cc2[nH]c(=O)[nH]c2O)cc(C(=O)N=c2cc(C(C)(C)C)o[nH]2)n1CC

>  <score_type>  (34) 
oracle

>  <origin>  (34) 
adg

>  <m_score__min__energy>  (34) 
-16.039999999999999

>  <m_primary>  (34) 
energy

$$$$
34:0
     RDKit          3D

 55 58  0  0  0  0  0  0  0  0999 V2000
   55.5185   28.9372   43.5692 H   0  0  0  0  0  0  0  0  0  0  0  0
   56.1900   29.8030   43.6670 C   0  0  0  0  0  0  0  0  0  0  0  0
   56.6100   30.2010   44.8940 N   0  0  0  0  0  0  0  0  0  0  0  0
   57.4330   31.2720   45.0730 C   0  0  0  0  0  0  0  0  0  0  0  0
   57.8290   31.6380   46.2610 N   0  0  0  0  0  0  0  0  0  0  0  0
   58.7880   31.0320   47.1500 C   0  0  0  0  0  0  0  0  0  0  0  0
   59.0860   31.6650   48.1980 O   0  0  0  0  0  0  0  0  0  0  0  0
   59.3810   29.6480   46.9250 C   0  0  1  0  0  0  0  0  0  0  0  0
   60.1253   29.4992   47.7212 H   0  0  0  0  0  0  0  0  0  0  0  0
   58.3230   28.5250   47.0320 C   0  0  0  0  0  0  0  0  0  0  0  0
   57.4550   28.7924   46.4115 H   0  0  0  0  0  0  0  0  0  0  0  0
   58.0352   28.4239   48.0889 H   0  0  0  0  0  0  0  0  0  0  0  0
   58.8560   27.2310   46.5750 N   0  0  0  0  0  0  0  0  0  0  0  0
   57.9690   26.0950   46.5280 C   0  0  0  0  0  0  0  0  0  0  0  0
   57.9790   25.2640   47.4790 O   0  0  0  0  0  0  0  0  0  0  0  0
   57.0430   25.8750   45.3490 C   0  0  0  0  0  0  0  0  0  0  0  0
   56.2579   26.5994   45.6114 H   0  0  0  0  0  0  0  0  0  0  0  0
   56.6590   24.4180   45.0770 C   0  0  0  0  0  0  0  0  0  0  0  0
   57.0909   23.6988   45.7885 H   0  0  0  0  0  0  0  0  0  0  0  0
   55.6074   24.0992   45.1280 H   0  0  0  0  0  0  0  0  0  0  0  0
   57.3830   24.4810   43.7390 C   0  0  0  0  0  0  0  0  0  0  0  0
   58.2411   23.7971   43.6612 H   0  0  0  0  0  0  0  0  0  0  0  0
   56.8582   24.2091   42.8113 H   0  0  0  0  0  0  0  0  0  0  0  0
   57.7670   25.9300   44.0070 C   0  0  0  0  0  0  0  0  0  0  0  0
   58.8508   26.0995   44.0883 H   0  0  0  0  0  0  0  0  0  0  0  0
   57.5236   26.7145   43.2753 H   0  0  0  0  0  0  0  0  0  0  0  0
   60.2910   27.1020   46.2770 C   0  0  0  0  0  0  0  0  0  0  0  0
   60.4781   26.1180   45.8223 H   0  0  0  0  0  0  0  0  0  0  0  0
   60.8569   27.2036   47.2148 H   0  0  0  0  0  0  0  0  0  0  0  0
   60.7460   28.2010   45.3050 C   0  0  0  0  0  0  0  0  0  0  0  0
   60.5232   27.8720   44.2793 H   0  0  0  0  0  0  0  0  0  0  0  0
   61.8227   28.3529   45.4714 H   0  0  0  0  0  0  0  0  0  0  0  0
   60.0550   29.5620   45.5420 C   0  0  0  0  0  0  0  0  0  0  0  0
   59.2889   29.7086   44.7664 H   0  0  0  0  0  0  0  0  0  0  0  0
   60.8291   30.3423   45.4980 H   0  0  0  0  0  0  0  0  0  0  0  0
   57.8820   31.9940   43.9530 C   0  0  0  0  0  0  0  0  0  0  0  0
   58.7350   33.0950   44.1510 O   0  0  0  0  0  0  0  0  0  0  0  0
   58.4730   34.1970   45.0200 C   0  0  0  0  0  0  0  0  0  0  0  0
   58.5903   35.1353   44.4580 H   0  0  0  0  0  0  0  0  0  0  0  0
   57.4463   34.1068   45.4043 H   0  0  0  0  0  0  0  0  0  0  0  0
   59.4270   34.1970   46.1860 C   0  0  0  0  0  0  0  0  0  0  0  0
   58.9780   34.5700   47.4630 C   0  0  0  0  0  0  0  0  0  0  0  0
   57.9282   34.8635   47.6102 H   0  0  0  0  0  0  0  0  0  0  0  0
   59.8590   34.5700   48.5480 C   0  0  0  0  0  0  0  0  0  0  0  0
   59.5035   34.8722   49.5441 H   0  0  0  0  0  0  0  0  0  0  0  0
   61.1930   34.1860   48.3690 C   0  0  0  0  0  0  0  0  0  0  0  0
   62.3960   34.1890   49.8520 Br  0  0  0  0  0  0  0  0  0  0  0  0
   61.6430   33.8000   47.1020 C   0  0  0  0  0  0  0  0  0  0  0  0
   62.6906   33.4959   46.9607 H   0  0  0  0  0  0  0  0  0  0  0  0
   60.7640   33.8000   46.0150 C   0  0  0  0  0  0  0  0  0  0  0  0
   61.1203   33.4881   45.0222 H   0  0  0  0  0  0  0  0  0  0  0  0
   57.4600   31.5880   42.6720 C   0  0  0  0  0  0  0  0  0  0  0  0
   57.8017   32.1367   41.7819 H   0  0  0  0  0  0  0  0  0  0  0  0
   56.6100   30.4920   42.5300 C   0  0  0  0  0  0  0  0  0  0  0  0
   56.2744   30.1743   41.5318 H   0  0  0  0  0  0  0  0  0  0  0  0
  1  2  1  0
  2  3  1  0
  3  4  1  0
  4  5  2  0
  5  6  1  0
  6  7  2  0
  6  8  1  0
  8  9  1  1
  8 10  1  0
 10 11  1  0
 10 12  1  0
 10 13  1  0
 13 14  1  0
 14 15  2  0
 14 16  1  0
 16 17  1  0
 16 18  1  0
 18 19  1  0
 18 20  1  0
 18 21  1  0
 21 22  1  0
 21 23  1  0
 21 24  1  0
 24 25  1  0
 24 26  1  0
 13 27  1  0
 27 28  1  0
 27 29  1  0
 27 30  1  0
 30 31  1  0
 30 32  1  0
 30 33  1  0
 33 34  1  0
 33 35  1  0
  4 36  1  0
 36 37  1  0
 37 38  1  0
 38 39  1  0
 38 40  1  0
 38 41  1  0
 41 42  2  0
 42 43  1  0
 42 44  1  0
 44 45  1  0
 44 46  2  0
 46 47  1  0
 46 48  1  0
 48 49  1  0
 48 50  2  0
 50 51  1  0
 36 52  2  0
 52 53  1  0
 52 54  1  0
 54 55  1  0
 54  2  2  0
 33  8  1  0
 50 41  1  0
 24 16  1  0
M  CHG  1   3  -1
M  END
>  <UniqueID>  (35) 
33

>  <SMILES>  (35) 
O=C(/N=c1\[n-]cccc1OCc1ccc(Br)cc1)[C@@H]1CCCN(C(=O)C2CCC2)C1

>  <Energy>  (35) 
128.1965782583938

>  <Genealogy>  (35) 
O=C(N=c1[n-]cccc1OCc1ccc(Br)cc1)C1CCCN(C(=O)C2CCC2)C1 (protonated)
O=C(N=c1[n-]cccc1OCc1ccc(Br)cc1)[C@@H]1CCCN(C(=O)C2CCC2)C1 (chirality)
O=C(/N=c1\[n-]cccc1OCc1ccc(Br)cc1)[C@@H]1CCCN(C(=O)C2CCC2)C1 (cis-trans isomerization)
O=C(/N=c1\[n-]cccc1OCc1ccc(Br)cc1)[C@@H]1CCCN(C(=O)C2CCC2)C1 (3D coordinates assigned)
O=C(/N=c1\[n-]cccc1OCc1ccc(Br)cc1)[C@@H]1CCCN(C(=O)C2CCC2)C1 (nonaromatic ring conformer: 128.1965782583938 kcal/mol)

>  <smiles>  (35) 
O=C(N=c1[nH]cccc1OCc1ccc(Br)cc1)C1CCCN(C(=O)C2CCC2)C1

>  <score_type>  (35) 
oracle

>  <origin>  (35) 
adg

>  <m_score__min__energy>  (35) 
-10.789999999999999

>  <m_primary>  (35) 
energy

$$$$
35:0
     RDKit          3D

 58 61  0  0  0  0  0  0  0  0999 V2000
   56.5056   20.4643   42.4550 H   0  0  0  0  0  0  0  0  0  0  0  0
   56.9350   21.3000   43.0270 C   0  0  0  0  0  0  0  0  0  0  0  0
   56.3280   22.5580   42.9860 C   0  0  0  0  0  0  0  0  0  0  0  0
   55.4178   22.7108   42.3875 H   0  0  0  0  0  0  0  0  0  0  0  0
   56.8790   23.6230   43.7070 C   0  0  0  0  0  0  0  0  0  0  0  0
   56.3946   24.6102   43.6797 H   0  0  0  0  0  0  0  0  0  0  0  0
   58.0430   23.4400   44.4630 C   0  0  0  0  0  0  0  0  0  0  0  0
   58.5520   24.5250   45.1880 O   0  0  0  0  0  0  0  0  0  0  0  0
   58.0640   25.8390   45.1380 C   0  0  0  0  0  0  0  0  0  0  0  0
   57.5480   26.4850   46.2760 C   0  0  0  0  0  0  0  0  0  0  0  0
   57.5007   25.9499   47.2359 H   0  0  0  0  0  0  0  0  0  0  0  0
   57.0950   27.8050   46.1910 C   0  0  0  0  0  0  0  0  0  0  0  0
   56.7024   28.3080   47.0871 H   0  0  0  0  0  0  0  0  0  0  0  0
   57.1390   28.4920   44.9660 C   0  0  0  0  0  0  0  0  0  0  0  0
   56.7440   29.8690   44.8680 N   0  0  0  0  0  0  0  0  0  0  0  0
   57.4250   30.9220   45.2240 C   0  0  0  0  0  0  0  0  0  0  0  0
   56.8470   32.1420   45.0790 N   0  0  0  0  0  0  0  0  0  0  0  0
   57.4650   33.3000   45.4330 C   0  0  0  0  0  0  0  0  0  0  0  0
   56.7250   34.5920   45.2470 C   0  0  0  0  0  0  0  0  0  0  0  0
   56.4803   35.0193   46.2306 H   0  0  0  0  0  0  0  0  0  0  0  0
   57.3555   35.2983   44.6870 H   0  0  0  0  0  0  0  0  0  0  0  0
   55.7968   34.4056   44.6870 H   0  0  0  0  0  0  0  0  0  0  0  0
   58.7710   33.2620   45.9640 C   0  0  0  0  0  0  0  0  0  0  0  0
   59.4160   34.4680   46.3980 N   0  0  0  0  0  0  0  0  0  0  0  0
   59.9140   35.2530   45.5660 O   0  0  0  0  0  0  0  0  0  0  0  0
   59.4040   34.8120   47.7290 O   0  0  0  0  0  0  0  0  0  0  0  0
   59.4030   32.0060   46.1250 C   0  0  0  0  0  0  0  0  0  0  0  0
   60.7090   31.8690   46.6230 O   0  0  0  0  0  0  0  0  0  0  0  0
   61.1950   32.4410   47.8100 C   0  0  0  0  0  0  0  0  0  0  0  0
   62.2800   33.3350   47.7260 C   0  0  0  0  0  0  0  0  0  0  0  0
   62.8660   33.6910   46.3880 C   0  0  0  0  0  0  0  0  0  0  0  0
   63.7977   34.2570   46.5347 H   0  0  0  0  0  0  0  0  0  0  0  0
   63.0808   32.7706   45.8252 H   0  0  0  0  0  0  0  0  0  0  0  0
   62.1482   34.3058   45.8252 H   0  0  0  0  0  0  0  0  0  0  0  0
   62.8490   33.8550   48.8980 C   0  0  0  0  0  0  0  0  0  0  0  0
   63.7139   34.5313   48.8306 H   0  0  0  0  0  0  0  0  0  0  0  0
   62.3260   33.5210   50.1520 C   0  0  0  0  0  0  0  0  0  0  0  0
   62.9290   34.1050   51.3950 C   0  0  0  0  0  0  0  0  0  0  0  0
   62.4590   33.6498   52.2793 H   0  0  0  0  0  0  0  0  0  0  0  0
   64.0099   33.9016   51.4087 H   0  0  0  0  0  0  0  0  0  0  0  0
   62.7603   35.1919   51.4087 H   0  0  0  0  0  0  0  0  0  0  0  0
   61.1940   32.7010   50.2320 C   0  0  0  0  0  0  0  0  0  0  0  0
   60.7609   32.4668   51.2156 H   0  0  0  0  0  0  0  0  0  0  0  0
   60.6050   32.1740   49.0710 C   0  0  0  0  0  0  0  0  0  0  0  0
   59.3520   31.3510   49.2070 C   0  0  0  0  0  0  0  0  0  0  0  0
   59.1251   31.2020   50.2730 H   0  0  0  0  0  0  0  0  0  0  0  0
   58.5145   31.8755   48.7237 H   0  0  0  0  0  0  0  0  0  0  0  0
   59.5007   30.3741   48.7237 H   0  0  0  0  0  0  0  0  0  0  0  0
   58.7130   30.8420   45.7850 C   0  0  0  0  0  0  0  0  0  0  0  0
   59.1770   29.8594   45.9559 H   0  0  0  0  0  0  0  0  0  0  0  0
   57.6960   27.8620   43.8470 C   0  0  0  0  0  0  0  0  0  0  0  0
   57.7768   28.4084   42.8958 H   0  0  0  0  0  0  0  0  0  0  0  0
   58.1500   26.5430   43.9310 C   0  0  0  0  0  0  0  0  0  0  0  0
   58.5777   26.0547   43.0429 H   0  0  0  0  0  0  0  0  0  0  0  0
   58.6380   22.1650   44.5140 C   0  0  0  0  0  0  0  0  0  0  0  0
   59.5399   22.0048   45.1230 H   0  0  0  0  0  0  0  0  0  0  0  0
   58.0860   21.1020   43.7930 C   0  0  0  0  0  0  0  0  0  0  0  0
   58.5584   20.1092   43.8290 H   0  0  0  0  0  0  0  0  0  0  0  0
  1  2  1  0
  2  3  2  0
  3  4  1  0
  3  5  1  0
  5  6  1  0
  5  7  2  0
  7  8  1  0
  8  9  1  0
  9 10  2  0
 10 11  1  0
 10 12  1  0
 12 13  1  0
 12 14  2  0
 14 15  1  0
 15 16  2  0
 16 17  1  0
 17 18  1  0
 18 19  1  0
 19 20  1  0
 19 21  1  0
 19 22  1  0
 18 23  2  0
 23 24  1  0
 24 25  2  0
 24 26  1  0
 23 27  1  0
 27 28  1  0
 28 29  1  0
 29 30  2  0
 30 31  1  0
 31 32  1  0
 31 33  1  0
 31 34  1  0
 30 35  1  0
 35 36  1  0
 35 37  2  0
 37 38  1  0
 38 39  1  0
 38 40  1  0
 38 41  1  0
 37 42  1  0
 42 43  1  0
 42 44  2  0
 44 45  1  0
 45 46  1  0
 45 47  1  0
 45 48  1  0
 27 49  2  0
 49 50  1  0
 14 51  1  0
 51 52  1  0
 51 53  2  0
 53 54  1  0
  7 55  1  0
 55 56  1  0
 55 57  2  0
 57 58  1  0
 57  2  1  0
 53  9  1  0
 49 16  1  0
 44 29  1  0
M  CHG  3  17  -1  24   1  26  -1
M  END
>  <UniqueID>  (36) 
34

>  <SMILES>  (36) 
Cc1cc(C)c(Oc2c/c(=N\c3ccc(Oc4ccccc4)cc3)[n-]c(C)c2[N+](=O)[O-])c(C)c1

>  <Energy>  (36) 
92.9643229843858

>  <Genealogy>  (36) 
Cc1cc(C)c(Oc2cc(=Nc3ccc(Oc4ccccc4)cc3)[n-]c(C)c2[N+](=O)[O-])c(C)c1 (protonated)
Cc1cc(C)c(Oc2c/c(=N\c3ccc(Oc4ccccc4)cc3)[n-]c(C)c2[N+](=O)[O-])c(C)c1 (cis-trans isomerization)
Cc1cc(C)c(Oc2c/c(=N\c3ccc(Oc4ccccc4)cc3)[n-]c(C)c2[N+](=O)[O-])c(C)c1 (3D coordinates assigned)
Cc1cc(C)c(Oc2c/c(=N\c3ccc(Oc4ccccc4)cc3)[n-]c(C)c2[N+](=O)[O-])c(C)c1 (optimized conformer: 92.9643229843858 kcal/mol)

>  <smiles>  (36) 
Cc1cc(C)c(Oc2cc(=Nc3ccc(Oc4ccccc4)cc3)[nH]c(C)c2[N+](=O)[O-])c(C)c1

>  <score_type>  (36) 
oracle

>  <origin>  (36) 
adg

>  <m_score__min__energy>  (36) 
-10.640000000000001

>  <m_primary>  (36) 
energy

$$$$
36:0
     RDKit          3D

 56 58  0  0  0  0  0  0  0  0999 V2000
   57.7270   31.9550   42.3750 C   0  0  0  0  0  0  0  0  0  0  0  0
   58.3380   32.1540   43.7580 C   0  0  0  0  0  0  0  0  0  0  0  0
   57.9520   31.0560   44.6600 N   0  0  0  0  0  0  0  0  0  0  0  0
   57.5010   29.7890   44.0660 C   0  0  0  0  0  0  0  0  0  0  0  0
   56.1140   29.4450   44.5190 C   0  0  0  0  0  0  0  0  0  0  0  0
   55.1710   30.2610   44.3220 O   0  0  0  0  0  0  0  0  0  0  0  0
   55.8940   28.2310   45.2470 N   0  0  0  0  0  0  0  0  0  0  0  0
   56.8310   27.1610   45.4460 C   0  0  0  0  0  0  0  0  0  0  0  0
   58.2140   27.3830   45.5640 C   0  0  0  0  0  0  0  0  0  0  0  0
   59.0890   26.3060   45.7430 C   0  0  0  0  0  0  0  0  0  0  0  0
   58.5920   24.9910   45.8190 C   0  0  0  0  0  0  0  0  0  0  0  0
   59.4310   23.8760   45.9650 O   0  0  0  0  0  0  0  0  0  0  0  0
   59.3210   22.6830   45.1980 C   0  0  0  0  0  0  0  0  0  0  0  0
   57.2130   24.7800   45.7440 C   0  0  0  0  0  0  0  0  0  0  0  0
   56.3420   25.8560   45.5620 C   0  0  0  0  0  0  0  0  0  0  0  0
   57.9950   31.1850   46.1060 C   0  0  0  0  0  0  0  0  0  0  0  0
   58.1920   30.1630   46.8180 O   0  0  0  0  0  0  0  0  0  0  0  0
   57.8100   32.5030   46.8110 C   0  0  0  0  0  0  0  0  0  0  0  0
   59.1050   33.1010   47.1280 N   0  0  0  0  0  0  0  0  0  0  0  0
   59.6820   34.2550   46.5410 C   0  0  0  0  0  0  0  0  0  0  0  0
   59.0540   35.0420   45.7840 O   0  0  0  0  0  0  0  0  0  0  0  0
   61.0500   34.4380   46.8820 N   0  0  0  0  0  0  0  0  0  0  0  0
   61.4410   33.3330   47.7640 C   0  0  0  0  0  0  0  0  0  0  0  0
   61.7970   33.8880   49.1700 C   0  0  0  0  0  0  0  0  0  0  0  0
   63.2950   34.1880   49.2890 C   0  0  0  0  0  0  0  0  0  0  0  0
   64.1450   32.9140   49.1030 C   0  0  0  0  0  0  0  0  0  0  0  0
   63.4960   31.8730   48.1670 C   0  0  0  0  0  0  0  0  0  0  0  0
   62.6050   32.5370   47.1120 C   0  0  0  0  0  0  0  0  0  0  0  0
   60.1830   32.5020   47.8340 C   0  0  0  0  0  0  0  0  0  0  0  0
   60.0890   31.3940   48.4290 O   0  0  0  0  0  0  0  0  0  0  0  0
   56.6858   31.6159   42.4795 H   0  0  0  0  0  0  0  0  0  0  0  0
   57.7491   32.9068   41.8240 H   0  0  0  0  0  0  0  0  0  0  0  0
   58.3054   31.1988   41.8240 H   0  0  0  0  0  0  0  0  0  0  0  0
   59.4340   32.1794   43.6684 H   0  0  0  0  0  0  0  0  0  0  0  0
   57.9674   33.1018   44.1755 H   0  0  0  0  0  0  0  0  0  0  0  0
   57.5082   29.8832   42.9701 H   0  0  0  0  0  0  0  0  0  0  0  0
   58.1830   28.9888   44.3893 H   0  0  0  0  0  0  0  0  0  0  0  0
   58.6101   28.4081   45.5154 H   0  0  0  0  0  0  0  0  0  0  0  0
   60.1708   26.4877   45.8248 H   0  0  0  0  0  0  0  0  0  0  0  0
   59.2413   21.8187   45.8737 H   0  0  0  0  0  0  0  0  0  0  0  0
   58.4240   22.7364   44.5636 H   0  0  0  0  0  0  0  0  0  0  0  0
   60.2127   22.5714   44.5636 H   0  0  0  0  0  0  0  0  0  0  0  0
   56.8109   23.7597   45.8289 H   0  0  0  0  0  0  0  0  0  0  0  0
   55.2583   25.6750   45.5092 H   0  0  0  0  0  0  0  0  0  0  0  0
   57.2459   33.1861   46.1589 H   0  0  0  0  0  0  0  0  0  0  0  0
   57.2593   32.3308   47.7475 H   0  0  0  0  0  0  0  0  0  0  0  0
   61.2313   34.8155   49.3426 H   0  0  0  0  0  0  0  0  0  0  0  0
   61.5355   33.1265   49.9195 H   0  0  0  0  0  0  0  0  0  0  0  0
   63.5750   34.9200   48.5172 H   0  0  0  0  0  0  0  0  0  0  0  0
   63.4875   34.5865   50.2960 H   0  0  0  0  0  0  0  0  0  0  0  0
   65.1184   33.2034   48.6803 H   0  0  0  0  0  0  0  0  0  0  0  0
   64.2434   32.4431   50.0922 H   0  0  0  0  0  0  0  0  0  0  0  0
   64.2902   31.3072   47.6579 H   0  0  0  0  0  0  0  0  0  0  0  0
   62.8674   31.2079   48.7773 H   0  0  0  0  0  0  0  0  0  0  0  0
   63.2164   33.2266   46.5115 H   0  0  0  0  0  0  0  0  0  0  0  0
   62.1705   31.7466   46.4824 H   0  0  0  0  0  0  0  0  0  0  0  0
  1  2  1  0
  2  3  1  0
  3  4  1  0
  4  5  1  0
  5  6  2  0
  5  7  1  0
  7  8  1  0
  8  9  2  0
  9 10  1  0
 10 11  2  0
 11 12  1  0
 12 13  1  0
 11 14  1  0
 14 15  2  0
  3 16  1  0
 16 17  2  0
 16 18  1  0
 18 19  1  0
 19 20  1  0
 20 21  2  0
 20 22  1  0
 22 23  1  0
 23 24  1  0
 24 25  1  0
 25 26  1  0
 26 27  1  0
 27 28  1  0
 23 29  1  0
 29 30  2  0
 15  8  1  0
 29 19  1  0
 28 23  1  0
  1 31  1  0
  1 32  1  0
  1 33  1  0
  2 34  1  0
  2 35  1  0
  4 36  1  0
  4 37  1  0
  9 38  1  0
 10 39  1  0
 13 40  1  0
 13 41  1  0
 13 42  1  0
 14 43  1  0
 15 44  1  0
 18 45  1  0
 18 46  1  0
 24 47  1  0
 24 48  1  0
 25 49  1  0
 25 50  1  0
 26 51  1  0
 26 52  1  0
 27 53  1  0
 27 54  1  0
 28 55  1  0
 28 56  1  0
M  CHG  2   7  -1  22  -1
M  END
>  <UniqueID>  (37) 
35

>  <SMILES>  (37) 
CCN(CC(=O)[N-]c1ccc(OC)cc1)C(=O)CN1C(=O)[N-]C2(CCCCC2)C1=O

>  <Energy>  (37) 
75.12455607778404

>  <Genealogy>  (37) 
CCN(CC(=O)[N-]c1ccc(OC)cc1)C(=O)CN1C(=O)[N-]C2(CCCCC2)C1=O (protonated)
CCN(CC(=O)[N-]c1ccc(OC)cc1)C(=O)CN1C(=O)[N-]C2(CCCCC2)C1=O (3D coordinates assigned)
CCN(CC(=O)[N-]c1ccc(OC)cc1)C(=O)CN1C(=O)[N-]C2(CCCCC2)C1=O (nonaromatic ring conformer: 75.12455607778404 kcal/mol)

>  <smiles>  (37) 
CCN(CC(=O)Nc1ccc(OC)cc1)C(=O)CN1C(=O)NC2(CCCCC2)C1=O

>  <score_type>  (37) 
oracle

>  <origin>  (37) 
adg

>  <m_score__min__energy>  (37) 
-11.789999999999999

>  <m_primary>  (37) 
energy

$$$$
37:0
     RDKit          3D

 48 50  0  0  0  0  0  0  0  0999 V2000
   54.4750   25.9720   45.6550 O   0  0  0  0  0  0  0  0  0  0  0  0
   55.6400   26.2480   46.0510 C   0  0  0  0  0  0  0  0  0  0  0  0
   56.4250   25.2270   46.8330 C   0  0  0  0  0  0  0  0  0  0  0  0
   55.5350   24.2110   47.4030 N   0  0  0  0  0  0  0  0  0  0  0  0
   56.1230   22.6020   47.0920 S   0  0  0  0  0  0  0  0  0  0  0  0
   57.3890   22.3780   47.8700 O   0  0  0  0  0  0  0  0  0  0  0  0
   55.0930   21.6080   47.5590 O   0  0  0  0  0  0  0  0  0  0  0  0
   56.4560   22.3780   45.3680 C   0  0  0  0  0  0  0  0  0  0  0  0
   57.5980   21.6570   44.9790 C   0  0  0  0  0  0  0  0  0  0  0  0
   57.8780   21.4460   43.6250 C   0  0  0  0  0  0  0  0  0  0  0  0
   57.0210   21.9540   42.6470 C   0  0  0  0  0  0  0  0  0  0  0  0
   55.8880   22.6820   43.0190 C   0  0  0  0  0  0  0  0  0  0  0  0
   55.5980   22.9050   44.3720 C   0  0  0  0  0  0  0  0  0  0  0  0
   54.4610   23.6540   44.6840 O   0  0  0  0  0  0  0  0  0  0  0  0
   56.2450   27.4660   45.6040 N   0  0  0  0  0  0  0  0  0  0  0  0
   57.6570   27.7100   45.5120 C   0  0  0  0  0  0  0  0  0  0  0  0
   58.5620   26.6470   45.6640 C   0  0  0  0  0  0  0  0  0  0  0  0
   59.9380   26.8780   45.6380 C   0  0  0  0  0  0  0  0  0  0  0  0
   60.4250   28.1760   45.4850 C   0  0  0  0  0  0  0  0  0  0  0  0
   59.5360   29.2480   45.3640 C   0  0  0  0  0  0  0  0  0  0  0  0
   58.1450   29.0320   45.3910 C   0  0  0  0  0  0  0  0  0  0  0  0
   57.2260   30.1850   45.2380 C   0  0  0  0  0  0  0  0  0  0  0  0
   56.0700   30.0010   44.7650 O   0  0  0  0  0  0  0  0  0  0  0  0
   57.6470   31.5210   45.5740 N   0  0  0  0  0  0  0  0  0  0  0  0
   58.2940   31.7800   46.8640 C   0  0  0  0  0  0  0  0  0  0  0  0
   59.1490   33.0460   46.7650 C   0  0  0  0  0  0  0  0  0  0  0  0
   58.3850   34.1300   46.2710 O   0  0  0  0  0  0  0  0  0  0  0  0
   57.9880   33.8660   44.9390 C   0  0  0  0  0  0  0  0  0  0  0  0
   57.0430   32.6610   44.8800 C   0  0  0  0  0  0  0  0  0  0  0  0
   57.1483   24.7383   46.1637 H   0  0  0  0  0  0  0  0  0  0  0  0
   56.9483   25.7382   47.6545 H   0  0  0  0  0  0  0  0  0  0  0  0
   58.2770   21.2554   45.7456 H   0  0  0  0  0  0  0  0  0  0  0  0
   58.7738   20.8796   43.3306 H   0  0  0  0  0  0  0  0  0  0  0  0
   57.2380   21.7810   41.5826 H   0  0  0  0  0  0  0  0  0  0  0  0
   55.2184   23.0833   42.2440 H   0  0  0  0  0  0  0  0  0  0  0  0
   54.3730   24.2040   45.5290 H   0  0  0  0  0  0  0  0  0  0  0  0
   58.1832   25.6239   45.8047 H   0  0  0  0  0  0  0  0  0  0  0  0
   60.6388   26.0361   45.7382 H   0  0  0  0  0  0  0  0  0  0  0  0
   61.5098   28.3563   45.4595 H   0  0  0  0  0  0  0  0  0  0  0  0
   59.9268   30.2695   45.2466 H   0  0  0  0  0  0  0  0  0  0  0  0
   57.5248   31.9174   47.6382 H   0  0  0  0  0  0  0  0  0  0  0  0
   58.9350   30.9262   47.1290 H   0  0  0  0  0  0  0  0  0  0  0  0
   59.5332   33.3009   47.7637 H   0  0  0  0  0  0  0  0  0  0  0  0
   59.9818   32.8562   46.0718 H   0  0  0  0  0  0  0  0  0  0  0  0
   57.4714   34.7492   44.5351 H   0  0  0  0  0  0  0  0  0  0  0  0
   58.8843   33.6399   44.3428 H   0  0  0  0  0  0  0  0  0  0  0  0
   56.0902   32.9203   45.3647 H   0  0  0  0  0  0  0  0  0  0  0  0
   56.8634   32.3920   43.8286 H   0  0  0  0  0  0  0  0  0  0  0  0
  1  2  2  0
  2  3  1  0
  3  4  1  0
  4  5  1  0
  5  6  2  0
  5  7  2  0
  5  8  1  0
  8  9  2  0
  9 10  1  0
 10 11  2  0
 11 12  1  0
 12 13  2  0
 13 14  1  0
  2 15  1  0
 15 16  1  0
 16 17  2  0
 17 18  1  0
 18 19  2  0
 19 20  1  0
 20 21  2  0
 21 22  1  0
 22 23  2  0
 22 24  1  0
 24 25  1  0
 25 26  1  0
 26 27  1  0
 27 28  1  0
 28 29  1  0
 13  8  1  0
 21 16  1  0
 29 24  1  0
  3 30  1  0
  3 31  1  0
  9 32  1  0
 10 33  1  0
 11 34  1  0
 12 35  1  0
 14 36  1  0
 17 37  1  0
 18 38  1  0
 19 39  1  0
 20 40  1  0
 25 41  1  0
 25 42  1  0
 26 43  1  0
 26 44  1  0
 28 45  1  0
 28 46  1  0
 29 47  1  0
 29 48  1  0
M  CHG  2   4  -1  15  -1
M  END
>  <UniqueID>  (38) 
36

>  <SMILES>  (38) 
O=C(C[N-]S(=O)(=O)c1ccccc1O)[N-]c1ccccc1C(=O)N1CCOCC1

>  <Energy>  (38) 
62.15442922086854

>  <Genealogy>  (38) 
O=C(C[N-]S(=O)(=O)c1ccccc1O)[N-]c1ccccc1C(=O)N1CCOCC1 (protonated)
O=C(C[N-]S(=O)(=O)c1ccccc1O)[N-]c1ccccc1C(=O)N1CCOCC1 (3D coordinates assigned)
O=C(C[N-]S(=O)(=O)c1ccccc1O)[N-]c1ccccc1C(=O)N1CCOCC1 (nonaromatic ring conformer: 62.15442922086854 kcal/mol)

>  <smiles>  (38) 
O=C(CNS(=O)(=O)c1ccccc1O)Nc1ccccc1C(=O)N1CCOCC1

>  <score_type>  (38) 
oracle

>  <origin>  (38) 
adg

>  <m_score__min__energy>  (38) 
-12.699999999999999

>  <m_primary>  (38) 
energy

$$$$
38:0
     RDKit          3D

 73 78  0  0  0  0  0  0  0  0999 V2000
   58.6010   25.8080   47.8940 O   0  0  0  0  0  0  0  0  0  0  0  0
   58.2500   26.3520   46.8120 C   0  0  0  0  0  0  0  0  0  0  0  0
   58.6650   27.6930   46.5230 N   0  0  0  0  0  0  0  0  0  0  0  0
   57.8450   28.8820   46.7520 C   0  0  0  0  0  0  0  0  0  0  0  0
   57.4450   29.5510   45.4520 C   0  0  0  0  0  0  0  0  0  0  0  0
   56.2960   29.1150   44.7610 C   0  0  0  0  0  0  0  0  0  0  0  0
   55.5250   28.0660   45.2530 O   0  0  0  0  0  0  0  0  0  0  0  0
   55.9060   29.7390   43.5730 C   0  0  0  0  0  0  0  0  0  0  0  0
   56.6380   30.8140   43.0690 C   0  0  0  0  0  0  0  0  0  0  0  0
   57.7580   31.2780   43.7550 C   0  0  0  0  0  0  0  0  0  0  0  0
   58.1660   30.6630   44.9470 C   0  0  0  0  0  0  0  0  0  0  0  0
   59.2770   31.2180   45.6630 N   0  0  0  0  0  0  0  0  0  0  0  0
   60.2720   30.3280   46.2790 C   0  0  0  0  0  0  0  0  0  0  0  0
   61.1640   31.1020   47.2530 C   0  0  0  0  0  0  0  0  0  0  0  0
   60.3440   32.0680   47.9980 N   0  0  0  0  0  0  0  0  0  0  0  0
   60.1010   31.8830   49.4090 C   0  0  0  0  0  0  0  0  0  0  0  0
   60.2670   30.7440   49.9250 O   0  0  0  0  0  0  0  0  0  0  0  0
   59.5620   33.0180   50.2670 C   0  0  1  0  0  0  0  0  0  0  0  0
   58.2240   32.6120   50.9040 C   0  0  0  0  0  0  0  0  0  0  0  0
   58.4370   32.4790   52.3510 N   0  0  0  0  0  0  0  0  0  0  0  0
   57.6210   31.3880   52.9480 C   0  0  0  0  0  0  0  0  0  0  0  0
   56.2640   31.1210   52.3080 C   0  0  0  0  0  0  0  0  0  0  0  0
   57.3980   30.1150   52.1360 C   0  0  0  0  0  0  0  0  0  0  0  0
   59.8850   32.5260   52.5890 C   0  0  0  0  0  0  0  0  0  0  0  0
   60.4520   33.3900   51.4670 C   0  0  1  0  0  0  0  0  0  0  0  0
   61.9580   33.2840   51.2370 C   0  0  0  0  0  0  0  0  0  0  0  0
   62.5260   33.8570   50.0800 C   0  0  0  0  0  0  0  0  0  0  0  0
   63.9040   33.8020   49.8580 C   0  0  0  0  0  0  0  0  0  0  0  0
   64.7420   33.2030   50.8020 C   0  0  0  0  0  0  0  0  0  0  0  0
   66.4730   33.1360   50.5240 Cl  0  0  0  0  0  0  0  0  0  0  0  0
   64.2020   32.6760   51.9770 C   0  0  0  0  0  0  0  0  0  0  0  0
   62.8220   32.7260   52.2020 C   0  0  0  0  0  0  0  0  0  0  0  0
   59.5830   33.0770   47.2390 C   0  0  0  0  0  0  0  0  0  0  0  0
   59.4330   32.6730   45.7650 C   0  0  0  0  0  0  0  0  0  0  0  0
   57.4060   25.6070   45.8500 C   0  0  0  0  0  0  0  0  0  0  0  0
   57.8610   25.3670   44.5390 C   0  0  0  0  0  0  0  0  0  0  0  0
   57.0870   24.6210   43.6470 C   0  0  0  0  0  0  0  0  0  0  0  0
   55.8520   24.1040   44.0490 C   0  0  0  0  0  0  0  0  0  0  0  0
   55.3830   24.3430   45.3420 C   0  0  0  0  0  0  0  0  0  0  0  0
   53.8380   23.6810   45.8500 Cl  0  0  0  0  0  0  0  0  0  0  0  0
   56.1510   25.0990   46.2370 C   0  0  0  0  0  0  0  0  0  0  0  0
   56.9350   28.5873   47.2951 H   0  0  0  0  0  0  0  0  0  0  0  0
   58.4401   29.5995   47.3359 H   0  0  0  0  0  0  0  0  0  0  0  0
   55.0174   29.3806   43.0327 H   0  0  0  0  0  0  0  0  0  0  0  0
   56.3306   31.2957   42.1291 H   0  0  0  0  0  0  0  0  0  0  0  0
   58.3261   32.1326   43.3589 H   0  0  0  0  0  0  0  0  0  0  0  0
   59.7511   29.5277   46.8251 H   0  0  0  0  0  0  0  0  0  0  0  0
   60.9032   29.9016   45.4854 H   0  0  0  0  0  0  0  0  0  0  0  0
   61.6356   30.4002   47.9566 H   0  0  0  0  0  0  0  0  0  0  0  0
   61.9456   31.6361   46.6927 H   0  0  0  0  0  0  0  0  0  0  0  0
   59.4940   33.8671   49.5710 H   0  0  0  0  0  0  0  0  0  0  0  0
   57.4662   33.3845   50.7069 H   0  0  0  0  0  0  0  0  0  0  0  0
   57.8693   31.6614   50.4791 H   0  0  0  0  0  0  0  0  0  0  0  0
   57.9874   31.5951   53.9643 H   0  0  0  0  0  0  0  0  0  0  0  0
   55.3982   30.8710   52.9388 H   0  0  0  0  0  0  0  0  0  0  0  0
   55.6052   31.6746   51.6227 H   0  0  0  0  0  0  0  0  0  0  0  0
   57.3503   29.1401   52.6432 H   0  0  0  0  0  0  0  0  0  0  0  0
   57.8960   29.6430   51.2762 H   0  0  0  0  0  0  0  0  0  0  0  0
   60.0995   32.9779   53.5687 H   0  0  0  0  0  0  0  0  0  0  0  0
   60.3312   31.5206   52.5965 H   0  0  0  0  0  0  0  0  0  0  0  0
   60.4075   34.4631   51.7048 H   0  0  0  0  0  0  0  0  0  0  0  0
   61.8762   34.3530   49.3439 H   0  0  0  0  0  0  0  0  0  0  0  0
   64.3299   34.2308   48.9389 H   0  0  0  0  0  0  0  0  0  0  0  0
   64.8638   32.2201   52.7281 H   0  0  0  0  0  0  0  0  0  0  0  0
   62.4074   32.3268   53.1394 H   0  0  0  0  0  0  0  0  0  0  0  0
   58.5830   33.1814   47.6851 H   0  0  0  0  0  0  0  0  0  0  0  0
   60.1312   34.0297   47.2830 H   0  0  0  0  0  0  0  0  0  0  0  0
   58.5467   33.1662   45.3394 H   0  0  0  0  0  0  0  0  0  0  0  0
   60.3310   32.9822   45.2100 H   0  0  0  0  0  0  0  0  0  0  0  0
   58.8322   25.7696   44.2153 H   0  0  0  0  0  0  0  0  0  0  0  0
   57.4506   24.4398   42.6248 H   0  0  0  0  0  0  0  0  0  0  0  0
   55.2498   23.5090   43.3466 H   0  0  0  0  0  0  0  0  0  0  0  0
   55.7707   25.2973   47.2499 H   0  0  0  0  0  0  0  0  0  0  0  0
  1  2  2  0
  2  3  1  0
  3  4  1  0
  4  5  1  0
  5  6  2  0
  6  7  1  0
  6  8  1  0
  8  9  2  0
  9 10  1  0
 10 11  2  0
 11 12  1  0
 12 13  1  0
 13 14  1  0
 14 15  1  0
 15 16  1  0
 16 17  2  0
 16 18  1  0
 18 19  1  0
 19 20  1  0
 20 21  1  0
 21 22  1  0
 22 23  1  0
 20 24  1  0
 24 25  1  0
 25 26  1  0
 26 27  2  0
 27 28  1  0
 28 29  2  0
 29 30  1  0
 29 31  1  0
 31 32  2  0
 15 33  1  0
 33 34  1  0
  2 35  1  0
 35 36  2  0
 36 37  1  0
 37 38  2  0
 38 39  1  0
 39 40  1  0
 39 41  2  0
 11  5  1  0
 34 12  1  0
 41 35  1  0
 25 18  1  0
 32 26  1  0
 23 21  1  0
  4 42  1  0
  4 43  1  0
  8 44  1  0
  9 45  1  0
 10 46  1  0
 13 47  1  0
 13 48  1  0
 14 49  1  0
 14 50  1  0
 18 51  1  6
 19 52  1  0
 19 53  1  0
 21 54  1  0
 22 55  1  0
 22 56  1  0
 23 57  1  0
 23 58  1  0
 24 59  1  0
 24 60  1  0
 25 61  1  1
 27 62  1  0
 28 63  1  0
 31 64  1  0
 32 65  1  0
 33 66  1  0
 33 67  1  0
 34 68  1  0
 34 69  1  0
 36 70  1  0
 37 71  1  0
 38 72  1  0
 41 73  1  0
M  CHG  2   3  -1   7  -1
M  END
>  <UniqueID>  (39) 
37

>  <SMILES>  (39) 
O=C([N-]Cc1c([O-])cccc1N1CCN(C(=O)[C@H]2CN(C3CC3)C[C@H]2c2ccc(Cl)cc2)CC1)c1cccc(Cl)c1

>  <Energy>  (39) 
369.0596380328937

>  <Genealogy>  (39) 
O=C([N-]Cc1c([O-])cccc1N1CCN(C(=O)C2CN(C3CC3)CC2c2ccc(Cl)cc2)CC1)c1cccc(Cl)c1 (protonated)
O=C([N-]Cc1c([O-])cccc1N1CCN(C(=O)[C@H]2CN(C3CC3)C[C@H]2c2ccc(Cl)cc2)CC1)c1cccc(Cl)c1 (chirality)
O=C([N-]Cc1c([O-])cccc1N1CCN(C(=O)[C@H]2CN(C3CC3)C[C@H]2c2ccc(Cl)cc2)CC1)c1cccc(Cl)c1 (3D coordinates assigned)
O=C([N-]Cc1c([O-])cccc1N1CCN(C(=O)[C@H]2CN(C3CC3)C[C@H]2c2ccc(Cl)cc2)CC1)c1cccc(Cl)c1 (nonaromatic ring conformer: 369.0596380328937 kcal/mol)

>  <smiles>  (39) 
O=C(NCc1c(O)cccc1N1CCN(C(=O)C2CN(C3CC3)CC2c2ccc(Cl)cc2)CC1)c1cccc(Cl)c1

>  <score_type>  (39) 
oracle

>  <origin>  (39) 
adg

>  <m_score__min__energy>  (39) 
-15.67

>  <m_primary>  (39) 
energy

$$$$
39:0
     RDKit          3D

 54 57  0  0  0  0  0  0  0  0999 V2000
   56.0170   29.4570   54.8280 C   0  0  0  0  0  0  0  0  0  0  0  0
   55.7170   29.9610   53.6290 C   0  0  0  0  0  0  0  0  0  0  0  0
   54.4540   30.2120   53.2310 N   0  0  0  0  0  0  0  0  0  0  0  0
   54.5390   30.7890   52.0120 C   0  0  0  0  0  0  0  0  0  0  0  0
   53.4950   31.1760   51.2640 C   0  0  0  0  0  0  0  0  0  0  0  0
   52.2530   31.7320   51.8240 C   0  0  0  0  0  0  0  0  0  0  0  0
   51.9340   31.6530   53.1270 N   0  0  0  0  0  0  0  0  0  0  0  0
   50.7170   32.2340   53.1890 C   0  0  0  0  0  0  0  0  0  0  0  0
   50.0820   32.3650   54.2680 O   0  0  0  0  0  0  0  0  0  0  0  0
   50.2320   32.6590   52.0030 N   0  0  0  0  0  0  0  0  0  0  0  0
   51.2060   32.3240   51.1430 C   0  0  0  0  0  0  0  0  0  0  0  0
   51.1100   32.5170   49.7680 O   0  0  0  0  0  0  0  0  0  0  0  0
   55.8620   30.8940   51.6170 C   0  0  0  0  0  0  0  0  0  0  0  0
   56.6160   30.3560   52.6430 C   0  0  0  0  0  0  0  0  0  0  0  0
   58.0880   30.2490   52.6470 C   0  0  0  0  0  0  0  0  0  0  0  0
   58.6320   29.3880   53.3900 O   0  0  0  0  0  0  0  0  0  0  0  0
   58.9080   31.1200   51.8460 N   0  0  0  0  0  0  0  0  0  0  0  0
   60.1250   30.5960   51.2180 C   0  0  0  0  0  0  0  0  0  0  0  0
   61.0930   31.7290   50.8360 C   0  0  0  0  0  0  0  0  0  0  0  0
   60.4460   32.8220   50.0630 N   0  0  0  0  0  0  0  0  0  0  0  0
   60.7770   32.8870   48.6030 C   0  0  0  0  0  0  0  0  0  0  0  0
   62.3180   32.9250   48.3350 C   0  0  0  0  0  0  0  0  0  0  0  0
   63.0150   33.6090   49.3430 O   0  0  0  0  0  0  0  0  0  0  0  0
   60.1550   31.6940   47.8460 C   0  0  0  0  0  0  0  0  0  0  0  0
   59.8800   32.1680   46.4240 C   0  0  0  0  0  0  0  0  0  0  0  0
   59.8270   33.6890   46.4790 C   0  0  0  0  0  0  0  0  0  0  0  0
   60.0610   34.0780   47.9340 C   0  0  0  0  0  0  0  0  0  0  0  0
   59.0250   33.0980   50.4100 C   0  0  0  0  0  0  0  0  0  0  0  0
   58.6340   32.5590   51.7870 C   0  0  0  0  0  0  0  0  0  0  0  0
   57.0667   29.2721   55.0999 H   0  0  0  0  0  0  0  0  0  0  0  0
   55.2145   29.2266   55.5442 H   0  0  0  0  0  0  0  0  0  0  0  0
   53.5860   29.9900   53.7680 H   0  0  0  0  0  0  0  0  0  0  0  0
   53.5715   31.0720   50.1716 H   0  0  0  0  0  0  0  0  0  0  0  0
   51.7600   32.0860   49.1230 H   0  0  0  0  0  0  0  0  0  0  0  0
   56.2378   31.3203   50.6751 H   0  0  0  0  0  0  0  0  0  0  0  0
   60.6281   29.9182   51.9233 H   0  0  0  0  0  0  0  0  0  0  0  0
   59.8381   30.0620   50.3001 H   0  0  0  0  0  0  0  0  0  0  0  0
   61.5123   32.1556   51.7591 H   0  0  0  0  0  0  0  0  0  0  0  0
   61.8688   31.2902   50.1914 H   0  0  0  0  0  0  0  0  0  0  0  0
   62.6939   31.8926   48.2825 H   0  0  0  0  0  0  0  0  0  0  0  0
   62.4828   33.4599   47.3881 H   0  0  0  0  0  0  0  0  0  0  0  0
   62.3660   33.8140   50.0660 H   0  0  0  0  0  0  0  0  0  0  0  0
   60.8563   30.8466   47.8335 H   0  0  0  0  0  0  0  0  0  0  0  0
   59.2292   31.3565   48.3349 H   0  0  0  0  0  0  0  0  0  0  0  0
   60.6860   31.8397   45.7513 H   0  0  0  0  0  0  0  0  0  0  0  0
   58.9375   31.7503   46.0403 H   0  0  0  0  0  0  0  0  0  0  0  0
   60.6115   34.1199   45.8396 H   0  0  0  0  0  0  0  0  0  0  0  0
   58.8593   34.0666   46.1170 H   0  0  0  0  0  0  0  0  0  0  0  0
   60.6909   34.9781   47.9889 H   0  0  0  0  0  0  0  0  0  0  0  0
   59.1108   34.3030   48.4405 H   0  0  0  0  0  0  0  0  0  0  0  0
   58.8664   34.1865   50.4010 H   0  0  0  0  0  0  0  0  0  0  0  0
   58.3976   32.5871   49.6648 H   0  0  0  0  0  0  0  0  0  0  0  0
   59.2190   33.0755   52.5623 H   0  0  0  0  0  0  0  0  0  0  0  0
   57.5616   32.7347   51.9578 H   0  0  0  0  0  0  0  0  0  0  0  0
  1  2  2  0
  2  3  1  0
  3  4  1  0
  4  5  2  3
  5  6  1  0
  6  7  1  0
  7  8  1  0
  8  9  2  0
  8 10  1  0
 10 11  1  0
 11 12  1  0
  4 13  1  0
 13 14  2  0
 14 15  1  0
 15 16  2  0
 15 17  1  0
 17 18  1  0
 18 19  1  0
 19 20  1  0
 20 21  1  0
 21 22  1  0
 22 23  1  0
 21 24  1  0
 24 25  1  0
 25 26  1  0
 26 27  1  0
 20 28  1  0
 28 29  1  0
 14  2  1  0
 29 17  1  0
 11  6  2  0
 27 21  1  0
  1 30  1  0
  1 31  1  0
  3 32  1  0
  5 33  1  0
 12 34  1  0
 13 35  1  0
 18 36  1  0
 18 37  1  0
 19 38  1  0
 19 39  1  0
 22 40  1  0
 22 41  1  0
 23 42  1  0
 24 43  1  0
 24 44  1  0
 25 45  1  0
 25 46  1  0
 26 47  1  0
 26 48  1  0
 27 49  1  0
 27 50  1  0
 28 51  1  0
 28 52  1  0
 29 53  1  0
 29 54  1  0
M  CHG  2   7  -1  10  -1
M  END
>  <UniqueID>  (40) 
38

>  <SMILES>  (40) 
C=c1[nH]c(=Cc2[n-]c(=O)[n-]c2O)cc1C(=O)N1CCN(C2(CO)CCCC2)CC1

>  <Energy>  (40) 
140.1271554870923

>  <Genealogy>  (40) 
C=c1[nH]c(=Cc2[n-]c(=O)[n-]c2O)cc1C(=O)N1CCN(C2(CO)CCCC2)CC1 (protonated)
C=c1[nH]c(=Cc2[n-]c(=O)[n-]c2O)cc1C(=O)N1CCN(C2(CO)CCCC2)CC1 (3D coordinates assigned)
C=c1[nH]c(=Cc2[n-]c(=O)[n-]c2O)cc1C(=O)N1CCN(C2(CO)CCCC2)CC1 (nonaromatic ring conformer: 140.1271554870923 kcal/mol)

>  <smiles>  (40) 
C=c1[nH]c(=Cc2[nH]c(=O)[nH]c2O)cc1C(=O)N1CCN(C2(CO)CCCC2)CC1

>  <score_type>  (40) 
oracle

>  <origin>  (40) 
adg

>  <m_score__min__energy>  (40) 
-13.050000000000001

>  <m_primary>  (40) 
energy

$$$$
40:0
     RDKit          3D

 34 36  0  0  0  0  0  0  0  0999 V2000
   56.6005   28.5544   42.8794 H   0  0  0  0  0  0  0  0  0  0  0  0
   57.0190   29.4400   43.3800 C   0  0  0  0  0  0  0  0  0  0  0  0
   56.8724   30.4391   42.9437 H   0  0  0  0  0  0  0  0  0  0  0  0
   57.7060   29.3020   44.5190 C   0  0  0  0  0  0  0  0  0  0  0  0
   58.3740   30.6100   45.3390 S   0  0  0  0  0  0  0  0  0  0  0  0
   59.0340   29.7270   46.6020 C   0  0  0  0  0  0  0  0  0  0  0  0
   59.8030   30.3080   47.7180 C   0  0  0  0  0  0  0  0  0  0  0  0
   60.8850   29.7600   48.0640 O   0  0  0  0  0  0  0  0  0  0  0  0
   59.3460   31.5710   48.4040 C   0  0  0  0  0  0  0  0  0  0  0  0
   58.3237   31.4196   48.7808 H   0  0  0  0  0  0  0  0  0  0  0  0
   60.0474   31.7828   49.2245 H   0  0  0  0  0  0  0  0  0  0  0  0
   59.3500   32.7600   47.4710 C   0  0  0  0  0  0  0  0  0  0  0  0
   58.1310   33.2560   46.9790 C   0  0  0  0  0  0  0  0  0  0  0  0
   57.1855   32.7882   47.2907 H   0  0  0  0  0  0  0  0  0  0  0  0
   58.1110   34.3400   46.0960 C   0  0  0  0  0  0  0  0  0  0  0  0
   57.1514   34.7260   45.7216 H   0  0  0  0  0  0  0  0  0  0  0  0
   59.3080   34.9330   45.6890 C   0  0  0  0  0  0  0  0  0  0  0  0
   59.2860   35.9830   44.8310 F   0  0  0  0  0  0  0  0  0  0  0  0
   60.5270   34.4420   46.1600 C   0  0  0  0  0  0  0  0  0  0  0  0
   61.4676   34.9106   45.8351 H   0  0  0  0  0  0  0  0  0  0  0  0
   60.5590   33.3560   47.0440 C   0  0  0  0  0  0  0  0  0  0  0  0
   62.1250   32.7640   47.5880 Cl  0  0  0  0  0  0  0  0  0  0  0  0
   58.7380   28.3800   46.4050 C   0  0  0  0  0  0  0  0  0  0  0  0
   59.0629   27.5885   47.0963 H   0  0  0  0  0  0  0  0  0  0  0  0
   57.9830   28.1200   45.2380 C   0  0  0  0  0  0  0  0  0  0  0  0
   57.6010   26.8860   44.8350 C   0  0  0  0  0  0  0  0  0  0  0  0
   57.6858   26.6593   43.7620 H   0  0  0  0  0  0  0  0  0  0  0  0
   57.0790   25.8150   45.7130 C   0  0  0  0  0  0  0  0  0  0  0  0
   57.7930   24.7860   46.2050 N   0  0  0  0  0  0  0  0  0  0  0  0
   56.9160   24.1500   47.0120 C   0  0  0  0  0  0  0  0  0  0  0  0
   57.2160   23.1110   47.6550 O   0  0  0  0  0  0  0  0  0  0  0  0
   55.6940   24.7190   47.0800 N   0  0  0  0  0  0  0  0  0  0  0  0
   55.8180   25.7750   46.2600 C   0  0  0  0  0  0  0  0  0  0  0  0
   54.8000   26.6890   46.0190 O   0  0  0  0  0  0  0  0  0  0  0  0
  1  2  1  0
  2  3  1  0
  2  4  2  0
  4  5  1  0
  5  6  1  0
  6  7  1  0
  7  8  2  0
  7  9  1  0
  9 10  1  0
  9 11  1  0
  9 12  1  0
 12 13  2  0
 13 14  1  0
 13 15  1  0
 15 16  1  0
 15 17  2  0
 17 18  1  0
 17 19  1  0
 19 20  1  0
 19 21  2  0
 21 22  1  0
  6 23  2  0
 23 24  1  0
 23 25  1  0
 25 26  2  0
 26 27  1  0
 26 28  1  0
 28 29  1  0
 29 30  1  0
 30 31  2  0
 30 32  1  0
 32 33  1  0
 33 34  1  0
 25  4  1  0
 33 28  2  0
 21 12  1  0
M  CHG  3  29  -1  32  -1  34  -1
M  END
>  <UniqueID>  (41) 
39

>  <SMILES>  (41) 
C=c1sc(C(=O)Cc2ccc(F)cc2Cl)c/c1=C\c1[n-]c(=O)[n-]c1[O-]

>  <Energy>  (41) 
100.21259967567964

>  <Genealogy>  (41) 
C=c1sc(C(=O)Cc2ccc(F)cc2Cl)cc1=Cc1[n-]c(=O)[n-]c1[O-] (protonated)
C=c1sc(C(=O)Cc2ccc(F)cc2Cl)c/c1=C\c1[n-]c(=O)[n-]c1[O-] (cis-trans isomerization)
C=c1sc(C(=O)Cc2ccc(F)cc2Cl)c/c1=C\c1[n-]c(=O)[n-]c1[O-] (3D coordinates assigned)
C=c1sc(C(=O)Cc2ccc(F)cc2Cl)c/c1=C\c1[n-]c(=O)[n-]c1[O-] (optimized conformer: 100.21259967567964 kcal/mol)

>  <smiles>  (41) 
C=c1sc(C(=O)Cc2ccc(F)cc2Cl)cc1=Cc1[nH]c(=O)[nH]c1O

>  <score_type>  (41) 
oracle

>  <origin>  (41) 
adg

>  <m_score__min__energy>  (41) 
-17.079999999999998

>  <m_primary>  (41) 
energy

$$$$
41:0
     RDKit          3D

 57 59  0  0  0  0  0  0  0  0999 V2000
   57.3730   31.5990   44.4140 C   0  0  0  0  0  0  0  0  0  0  0  0
   58.1480   32.1510   45.5760 C   0  0  0  0  0  0  0  0  0  0  0  0
   57.6890   33.2930   46.2480 C   0  0  0  0  0  0  0  0  0  0  0  0
   58.4310   33.8370   47.3010 C   0  0  0  0  0  0  0  0  0  0  0  0
   59.6520   33.2560   47.6850 C   0  0  0  0  0  0  0  0  0  0  0  0
   60.4610   33.8540   48.8050 C   0  0  0  0  0  0  0  0  0  0  0  0
   59.9140   33.4330   50.1440 C   0  0  0  0  0  0  0  0  0  0  0  0
   59.2750   34.2420   50.8040 O   0  0  0  0  0  0  0  0  0  0  0  0
   60.1450   32.0930   50.6550 N   0  0  0  0  0  0  0  0  0  0  0  0
   61.3120   31.4840   49.9650 C   0  0  0  0  0  0  0  0  0  0  0  0
   61.2450   29.9550   49.9580 C   0  0  0  0  0  0  0  0  0  0  0  0
   60.0220   29.5360   49.2740 N   0  0  0  0  0  0  0  0  0  0  0  0
   59.9770   28.2700   48.5980 C   0  0  0  0  0  0  0  0  0  0  0  0
   60.4440   27.2480   49.1750 O   0  0  0  0  0  0  0  0  0  0  0  0
   59.4210   28.1510   47.2310 C   0  0  0  0  0  0  0  0  0  0  0  0
   60.2510   28.2920   46.1080 C   0  0  0  0  0  0  0  0  0  0  0  0
   59.7320   28.1460   44.8210 C   0  0  0  0  0  0  0  0  0  0  0  0
   58.3720   27.8550   44.6280 C   0  0  0  0  0  0  0  0  0  0  0  0
   57.8400   27.6900   43.2330 C   0  0  0  0  0  0  0  0  0  0  0  0
   57.5410   27.6720   45.7530 C   0  0  0  0  0  0  0  0  0  0  0  0
   56.1620   27.3260   45.6030 N   0  0  0  0  0  0  0  0  0  0  0  0
   55.6200   25.6910   45.7780 S   0  0  0  0  0  0  0  0  0  0  0  0
   56.3790   24.6730   44.5330 C   0  0  0  0  0  0  0  0  0  0  0  0
   55.9980   25.1690   47.1360 O   0  0  0  0  0  0  0  0  0  0  0  0
   54.1250   25.6440   45.6300 O   0  0  0  0  0  0  0  0  0  0  0  0
   58.0650   27.8310   47.0420 C   0  0  0  0  0  0  0  0  0  0  0  0
   58.8170   30.3730   49.3680 C   0  0  0  0  0  0  0  0  0  0  0  0
   58.8940   31.2830   50.6050 C   0  0  0  0  0  0  0  0  0  0  0  0
   60.1160   32.1180   47.0040 C   0  0  0  0  0  0  0  0  0  0  0  0
   59.3700   31.5710   45.9550 C   0  0  0  0  0  0  0  0  0  0  0  0
   56.5302   30.9987   44.7874 H   0  0  0  0  0  0  0  0  0  0  0  0
   56.9895   32.4285   43.8018 H   0  0  0  0  0  0  0  0  0  0  0  0
   58.0316   30.9654   43.8018 H   0  0  0  0  0  0  0  0  0  0  0  0
   56.7414   33.7628   45.9456 H   0  0  0  0  0  0  0  0  0  0  0  0
   58.0570   34.7248   47.8320 H   0  0  0  0  0  0  0  0  0  0  0  0
   61.5035   33.5140   48.7183 H   0  0  0  0  0  0  0  0  0  0  0  0
   60.4084   34.9503   48.7316 H   0  0  0  0  0  0  0  0  0  0  0  0
   60.4050   32.1760   51.6680 H   0  0  0  0  0  0  0  0  0  0  0  0
   61.3357   31.8425   48.9253 H   0  0  0  0  0  0  0  0  0  0  0  0
   62.2199   31.7802   50.5109 H   0  0  0  0  0  0  0  0  0  0  0  0
   62.1206   29.5497   49.4297 H   0  0  0  0  0  0  0  0  0  0  0  0
   61.2411   29.5780   50.9914 H   0  0  0  0  0  0  0  0  0  0  0  0
   61.3187   28.5193   46.2435 H   0  0  0  0  0  0  0  0  0  0  0  0
   60.3941   28.2599   43.9500 H   0  0  0  0  0  0  0  0  0  0  0  0
   56.7902   27.3644   43.2771 H   0  0  0  0  0  0  0  0  0  0  0  0
   57.9040   28.6502   42.7002 H   0  0  0  0  0  0  0  0  0  0  0  0
   58.4362   26.9345   42.7002 H   0  0  0  0  0  0  0  0  0  0  0  0
   56.9695   23.8810   45.0168 H   0  0  0  0  0  0  0  0  0  0  0  0
   55.5985   24.2173   43.9060 H   0  0  0  0  0  0  0  0  0  0  0  0
   57.0385   25.2910   43.9060 H   0  0  0  0  0  0  0  0  0  0  0  0
   57.4088   27.7042   47.9157 H   0  0  0  0  0  0  0  0  0  0  0  0
   58.7360   30.9951   48.4644 H   0  0  0  0  0  0  0  0  0  0  0  0
   57.9352   29.7216   49.4576 H   0  0  0  0  0  0  0  0  0  0  0  0
   58.0333   31.9678   50.5906 H   0  0  0  0  0  0  0  0  0  0  0  0
   58.8868   30.6333   51.4926 H   0  0  0  0  0  0  0  0  0  0  0  0
   61.0700   31.6553   47.2971 H   0  0  0  0  0  0  0  0  0  0  0  0
   59.7420   30.6823   45.4242 H   0  0  0  0  0  0  0  0  0  0  0  0
  1  2  1  0
  2  3  2  0
  3  4  1  0
  4  5  2  0
  5  6  1  0
  6  7  1  0
  7  8  2  0
  7  9  1  0
  9 10  1  0
 10 11  1  0
 11 12  1  0
 12 13  1  0
 13 14  2  0
 13 15  1  0
 15 16  2  0
 16 17  1  0
 17 18  2  0
 18 19  1  0
 18 20  1  0
 20 21  1  0
 21 22  1  0
 22 23  1  0
 22 24  2  0
 22 25  2  0
 20 26  2  0
 12 27  1  0
 27 28  1  0
  5 29  1  0
 29 30  2  0
 30  2  1  0
 28  9  1  0
 26 15  1  0
  1 31  1  0
  1 32  1  0
  1 33  1  0
  3 34  1  0
  4 35  1  0
  6 36  1  0
  6 37  1  0
  9 38  1  0
 10 39  1  0
 10 40  1  0
 11 41  1  0
 11 42  1  0
 16 43  1  0
 17 44  1  0
 19 45  1  0
 19 46  1  0
 19 47  1  0
 23 48  1  0
 23 49  1  0
 23 50  1  0
 26 51  1  0
 27 52  1  0
 27 53  1  0
 28 54  1  0
 28 55  1  0
 29 56  1  0
 30 57  1  0
M  CHG  2   9   1  21  -1
M  END
>  <UniqueID>  (42) 
40

>  <SMILES>  (42) 
Cc1ccc(CC(=O)[NH+]2CCN(C(=O)c3ccc(C)c([N-]S(C)(=O)=O)c3)CC2)cc1

>  <Energy>  (42) 
73.32986184271255

>  <Genealogy>  (42) 
Cc1ccc(CC(=O)[NH+]2CCN(C(=O)c3ccc(C)c([N-]S(C)(=O)=O)c3)CC2)cc1 (protonated)
Cc1ccc(CC(=O)[NH+]2CCN(C(=O)c3ccc(C)c([N-]S(C)(=O)=O)c3)CC2)cc1 (3D coordinates assigned)
Cc1ccc(CC(=O)[NH+]2CCN(C(=O)c3ccc(C)c([N-]S(C)(=O)=O)c3)CC2)cc1 (nonaromatic ring conformer: 73.32986184271255 kcal/mol)

>  <smiles>  (42) 
Cc1ccc(CC(=O)N2CCN(C(=O)c3ccc(C)c(NS(C)(=O)=O)c3)CC2)cc1

>  <score_type>  (42) 
oracle

>  <origin>  (42) 
adg

>  <m_score__min__energy>  (42) 
-10

>  <m_primary>  (42) 
energy

$$$$
42:0
     RDKit          3D

 45 48  0  0  0  0  0  0  0  0999 V2000
   56.0550   28.4820   54.0500 C   0  0  0  0  0  0  0  0  0  0  0  0
   55.6310   29.3480   53.1260 C   0  0  0  0  0  0  0  0  0  0  0  0
   54.3350   29.4640   52.7690 N   0  0  0  0  0  0  0  0  0  0  0  0
   54.2720   30.4530   51.8500 C   0  0  0  0  0  0  0  0  0  0  0  0
   53.1600   30.9050   51.2420 C   0  0  0  0  0  0  0  0  0  0  0  0
   52.0090   31.5520   51.9080 C   0  0  0  0  0  0  0  0  0  0  0  0
   51.6700   31.4240   53.2040 N   0  0  0  0  0  0  0  0  0  0  0  0
   50.5390   32.1530   53.3090 C   0  0  0  0  0  0  0  0  0  0  0  0
   49.9130   32.2820   54.3940 O   0  0  0  0  0  0  0  0  0  0  0  0
   50.1270   32.7290   52.1600 N   0  0  0  0  0  0  0  0  0  0  0  0
   51.0650   32.3340   51.2830 C   0  0  0  0  0  0  0  0  0  0  0  0
   51.0590   32.6810   49.9380 O   0  0  0  0  0  0  0  0  0  0  0  0
   55.5330   30.9750   51.6210 C   0  0  0  0  0  0  0  0  0  0  0  0
   56.4060   30.2710   52.4310 C   0  0  0  0  0  0  0  0  0  0  0  0
   57.8720   30.4680   52.4820 C   0  0  0  0  0  0  0  0  0  0  0  0
   58.4410   30.6440   53.5910 O   0  0  0  0  0  0  0  0  0  0  0  0
   58.6830   30.3730   51.3030 N   0  0  0  0  0  0  0  0  0  0  0  0
   59.0900   31.4700   50.4710 C   0  0  0  0  0  0  0  0  0  0  0  0
   59.1940   32.7740   50.9890 C   0  0  0  0  0  0  0  0  0  0  0  0
   59.6310   33.8220   50.1750 C   0  0  0  0  0  0  0  0  0  0  0  0
   59.9830   33.5790   48.8470 C   0  0  0  0  0  0  0  0  0  0  0  0
   59.9020   32.2840   48.3290 C   0  0  0  0  0  0  0  0  0  0  0  0
   59.4600   31.2240   49.1350 C   0  0  0  0  0  0  0  0  0  0  0  0
   59.3610   29.9020   48.5840 N   0  0  0  0  0  0  0  0  0  0  0  0
   59.9020   28.7680   49.3480 C   0  0  0  0  0  0  0  0  0  0  0  0
   60.1730   27.5620   48.4390 C   0  0  0  0  0  0  0  0  0  0  0  0
   58.9040   27.1840   47.6720 C   0  0  0  0  0  0  0  0  0  0  0  0
   58.4090   28.3290   46.9170 N   0  0  0  0  0  0  0  0  0  0  0  0
   58.5570   29.6590   47.4140 C   0  0  0  0  0  0  0  0  0  0  0  0
   58.0210   30.6160   46.7920 O   0  0  0  0  0  0  0  0  0  0  0  0
   57.1240   28.4280   54.3038 H   0  0  0  0  0  0  0  0  0  0  0  0
   55.3353   27.8227   54.5573 H   0  0  0  0  0  0  0  0  0  0  0  0
   53.5530   28.9070   53.1730 H   0  0  0  0  0  0  0  0  0  0  0  0
   53.1018   30.7821   50.1504 H   0  0  0  0  0  0  0  0  0  0  0  0
   55.7909   31.7908   50.9296 H   0  0  0  0  0  0  0  0  0  0  0  0
   58.9302   32.9691   52.0389 H   0  0  0  0  0  0  0  0  0  0  0  0
   59.6977   34.8416   50.5823 H   0  0  0  0  0  0  0  0  0  0  0  0
   60.3242   34.4068   48.2080 H   0  0  0  0  0  0  0  0  0  0  0  0
   60.1863   32.0944   47.2834 H   0  0  0  0  0  0  0  0  0  0  0  0
   60.8438   29.0749   49.8264 H   0  0  0  0  0  0  0  0  0  0  0  0
   59.1595   28.4730   50.1041 H   0  0  0  0  0  0  0  0  0  0  0  0
   60.9679   27.8178   47.7230 H   0  0  0  0  0  0  0  0  0  0  0  0
   60.4863   26.7085   49.0582 H   0  0  0  0  0  0  0  0  0  0  0  0
   59.1312   26.3620   46.9772 H   0  0  0  0  0  0  0  0  0  0  0  0
   58.1327   26.8683   48.3899 H   0  0  0  0  0  0  0  0  0  0  0  0
  1  2  2  0
  2  3  1  0
  3  4  1  0
  4  5  2  3
  5  6  1  0
  6  7  1  0
  7  8  1  0
  8  9  2  0
  8 10  1  0
 10 11  1  0
 11 12  1  0
  4 13  1  0
 13 14  2  0
 14 15  1  0
 15 16  2  0
 15 17  1  0
 17 18  1  0
 18 19  2  0
 19 20  1  0
 20 21  2  0
 21 22  1  0
 22 23  2  0
 23 24  1  0
 24 25  1  0
 25 26  1  0
 26 27  1  0
 27 28  1  0
 28 29  1  0
 29 30  2  0
 14  2  1  0
 23 18  1  0
 29 24  1  0
 11  6  2  0
  1 31  1  0
  1 32  1  0
  3 33  1  0
  5 34  1  0
 13 35  1  0
 19 36  1  0
 20 37  1  0
 21 38  1  0
 22 39  1  0
 25 40  1  0
 25 41  1  0
 26 42  1  0
 26 43  1  0
 27 44  1  0
 27 45  1  0
M  CHG  5   7  -1  10  -1  12  -1  17  -1  28  -1
M  END
>  <UniqueID>  (43) 
41

>  <SMILES>  (43) 
C=c1[nH]c(=Cc2[n-]c(=O)[n-]c2[O-])cc1C(=O)[N-]c1ccccc1N1CCC[N-]C1=O

>  <Energy>  (43) 
117.90065650049037

>  <Genealogy>  (43) 
C=c1[nH]c(=Cc2[n-]c(=O)[n-]c2[O-])cc1C(=O)[N-]c1ccccc1N1CCC[N-]C1=O (protonated)
C=c1[nH]c(=Cc2[n-]c(=O)[n-]c2[O-])cc1C(=O)[N-]c1ccccc1N1CCC[N-]C1=O (3D coordinates assigned)
C=c1[nH]c(=Cc2[n-]c(=O)[n-]c2[O-])cc1C(=O)[N-]c1ccccc1N1CCC[N-]C1=O (nonaromatic ring conformer: 117.90065650049037 kcal/mol)

>  <smiles>  (43) 
C=c1[nH]c(=Cc2[nH]c(=O)[nH]c2O)cc1C(=O)Nc1ccccc1N1CCCNC1=O

>  <score_type>  (43) 
oracle

>  <origin>  (43) 
adg

>  <m_score__min__energy>  (43) 
-19.77

>  <m_primary>  (43) 
energy

$$$$
43:0
     RDKit          3D

 55 57  0  0  0  0  0  0  0  0999 V2000
   65.0932   33.7568   49.8313 H   0  0  0  0  0  0  0  0  0  0  0  0
   64.3120   33.1340   49.3710 C   0  0  0  0  0  0  0  0  0  0  0  0
   64.0100   33.2810   48.0160 C   0  0  0  0  0  0  0  0  0  0  0  0
   64.5496   34.0246   47.4110 H   0  0  0  0  0  0  0  0  0  0  0  0
   63.0230   32.4850   47.4260 C   0  0  0  0  0  0  0  0  0  0  0  0
   62.7868   32.6082   46.3587 H   0  0  0  0  0  0  0  0  0  0  0  0
   62.3300   31.5270   48.1900 C   0  0  0  0  0  0  0  0  0  0  0  0
   61.2730   30.6810   47.5870 C   0  0  0  0  0  0  0  0  0  0  0  0
   60.9990   30.8170   46.3630 O   0  0  0  0  0  0  0  0  0  0  0  0
   60.5580   29.7120   48.3710 N   0  0  0  0  0  0  0  0  0  0  0  0
   60.7560   29.6010   49.3890 H   0  0  0  0  0  0  0  0  0  0  0  0
   59.6450   28.7870   47.7690 C   0  0  0  0  0  0  0  0  0  0  0  0
   58.4510   29.1640   47.3960 N   0  0  0  0  0  0  0  0  0  0  0  0
   57.6210   28.6680   47.7970 H   0  0  0  0  0  0  0  0  0  0  0  0
   58.2200   30.3020   46.5010 C   0  0  0  0  0  0  0  0  0  0  0  0
   59.1499   30.5315   45.9600 H   0  0  0  0  0  0  0  0  0  0  0  0
   57.9066   31.1687   47.1015 H   0  0  0  0  0  0  0  0  0  0  0  0
   57.1370   29.9810   45.5090 C   0  0  0  0  0  0  0  0  0  0  0  0
   56.5710   28.8570   45.5610 O   0  0  0  0  0  0  0  0  0  0  0  0
   56.6860   30.9390   44.5440 N   0  0  0  0  0  0  0  0  0  0  0  0
   57.4230   32.1270   44.1190 C   0  0  0  0  0  0  0  0  0  0  0  0
   58.5023   31.9455   44.2288 H   0  0  0  0  0  0  0  0  0  0  0  0
   57.1877   32.3422   43.0662 H   0  0  0  0  0  0  0  0  0  0  0  0
   57.0200   33.3240   44.9800 C   0  0  0  0  0  0  0  0  0  0  0  0
   56.8149   34.1851   44.3270 H   0  0  0  0  0  0  0  0  0  0  0  0
   56.1215   33.0573   45.5559 H   0  0  0  0  0  0  0  0  0  0  0  0
   58.1220   33.6860   45.9440 C   0  0  0  0  0  0  0  0  0  0  0  0
   58.0150   33.3500   47.3040 C   0  0  0  0  0  0  0  0  0  0  0  0
   57.1036   32.8603   47.6776 H   0  0  0  0  0  0  0  0  0  0  0  0
   59.0630   33.6360   48.1840 C   0  0  0  0  0  0  0  0  0  0  0  0
   58.9728   33.3750   49.2488 H   0  0  0  0  0  0  0  0  0  0  0  0
   60.2250   34.2530   47.7130 C   0  0  0  0  0  0  0  0  0  0  0  0
   61.0467   34.4806   48.4080 H   0  0  0  0  0  0  0  0  0  0  0  0
   60.3440   34.5810   46.3600 C   0  0  0  0  0  0  0  0  0  0  0  0
   61.2599   35.0651   45.9901 H   0  0  0  0  0  0  0  0  0  0  0  0
   59.2990   34.2940   45.4760 C   0  0  0  0  0  0  0  0  0  0  0  0
   59.3990   34.5453   44.4098 H   0  0  0  0  0  0  0  0  0  0  0  0
   60.0870   27.3640   47.5650 C   0  0  0  0  0  0  0  0  0  0  0  0
   61.1036   27.3568   47.1448 H   0  0  0  0  0  0  0  0  0  0  0  0
   60.0752   26.8441   48.5343 H   0  0  0  0  0  0  0  0  0  0  0  0
   59.1520   26.6540   46.6170 C   0  0  0  0  0  0  0  0  0  0  0  0
   58.3240   25.6310   47.1130 C   0  0  0  0  0  0  0  0  0  0  0  0
   58.3893   25.3427   48.1725 H   0  0  0  0  0  0  0  0  0  0  0  0
   57.4200   24.9780   46.2730 C   0  0  0  0  0  0  0  0  0  0  0  0
   56.7815   24.1753   46.6705 H   0  0  0  0  0  0  0  0  0  0  0  0
   57.3260   25.3430   44.9300 C   0  0  0  0  0  0  0  0  0  0  0  0
   56.6138   24.8274   44.2690 H   0  0  0  0  0  0  0  0  0  0  0  0
   58.1350   26.3620   44.4240 C   0  0  0  0  0  0  0  0  0  0  0  0
   58.0565   26.6469   43.3644 H   0  0  0  0  0  0  0  0  0  0  0  0
   59.0460   27.0240   45.2570 C   0  0  0  0  0  0  0  0  0  0  0  0
   60.0340   28.3010   44.5540 Cl  0  0  0  0  0  0  0  0  0  0  0  0
   62.6330   31.3990   49.5580 C   0  0  0  0  0  0  0  0  0  0  0  0
   62.0881   30.6669   50.1721 H   0  0  0  0  0  0  0  0  0  0  0  0
   63.6220   32.1960   50.1420 C   0  0  0  0  0  0  0  0  0  0  0  0
   63.8571   32.0841   51.2107 H   0  0  0  0  0  0  0  0  0  0  0  0
  1  2  1  0
  2  3  2  0
  3  4  1  0
  3  5  1  0
  5  6  1  0
  5  7  2  0
  7  8  1  0
  8  9  2  0
  8 10  1  0
 10 11  1  0
 10 12  1  0
 12 13  2  0
 13 14  1  0
 13 15  1  0
 15 16  1  0
 15 17  1  0
 15 18  1  0
 18 19  2  0
 18 20  1  0
 20 21  1  0
 21 22  1  0
 21 23  1  0
 21 24  1  0
 24 25  1  0
 24 26  1  0
 24 27  1  0
 27 28  2  0
 28 29  1  0
 28 30  1  0
 30 31  1  0
 30 32  2  0
 32 33  1  0
 32 34  1  0
 34 35  1  0
 34 36  2  0
 36 37  1  0
 12 38  1  0
 38 39  1  0
 38 40  1  0
 38 41  1  0
 41 42  2  0
 42 43  1  0
 42 44  1  0
 44 45  1  0
 44 46  2  0
 46 47  1  0
 46 48  1  0
 48 49  1  0
 48 50  2  0
 50 51  1  0
  7 52  1  0
 52 53  1  0
 52 54  2  0
 54 55  1  0
 54  2  1  0
 36 27  1  0
 50 41  1  0
M  CHG  2  13   1  20  -1
M  END
>  <UniqueID>  (44) 
42

>  <SMILES>  (44) 
O=C(C/[NH+]=C(/Cc1ccccc1Cl)NC(=O)c1ccccc1)[N-]CCc1ccccc1

>  <Energy>  (44) 
57.092284258960376

>  <Genealogy>  (44) 
O=C(C[NH+]=C(Cc1ccccc1Cl)NC(=O)c1ccccc1)[N-]CCc1ccccc1 (protonated)
O=C(C/[NH+]=C(/Cc1ccccc1Cl)NC(=O)c1ccccc1)[N-]CCc1ccccc1 (cis-trans isomerization)
O=C(C/[NH+]=C(/Cc1ccccc1Cl)NC(=O)c1ccccc1)[N-]CCc1ccccc1 (3D coordinates assigned)
O=C(C/[NH+]=C(/Cc1ccccc1Cl)NC(=O)c1ccccc1)[N-]CCc1ccccc1 (optimized conformer: 57.092284258960376 kcal/mol)

>  <smiles>  (44) 
O=C(CN=C(Cc1ccccc1Cl)NC(=O)c1ccccc1)NCCc1ccccc1

>  <score_type>  (44) 
oracle

>  <origin>  (44) 
adg

>  <m_score__min__energy>  (44) 
-9.7300000000000004

>  <m_primary>  (44) 
energy

$$$$
44:0
     RDKit          3D

 45 48  0  0  0  0  0  0  0  0999 V2000
   60.0330   30.4020   45.6120 O   0  0  0  0  0  0  0  0  0  0  0  0
   58.9310   29.7960   45.5370 C   0  0  0  0  0  0  0  0  0  0  0  0
   58.7320   28.3690   45.7560 C   0  0  0  0  0  0  0  0  0  0  0  0
   59.6370   27.3650   46.1000 C   0  0  0  0  0  0  0  0  0  0  0  0
   59.1490   26.0520   46.2270 C   0  0  0  0  0  0  0  0  0  0  0  0
   57.7830   25.7710   46.0050 C   0  0  0  0  0  0  0  0  0  0  0  0
   56.8920   26.8010   45.6540 C   0  0  0  0  0  0  0  0  0  0  0  0
   57.3990   28.0950   45.5400 C   0  0  0  0  0  0  0  0  0  0  0  0
   56.7440   29.3460   45.1800 C   0  0  0  0  0  0  0  0  0  0  0  0
   55.5300   29.4760   44.8710 O   0  0  0  0  0  0  0  0  0  0  0  0
   57.6890   30.4200   45.1990 N   0  0  0  0  0  0  0  0  0  0  0  0
   57.5220   31.7240   44.5620 C   0  0  0  0  0  0  0  0  0  0  0  0
   58.1550   32.7970   45.4070 C   0  0  0  0  0  0  0  0  0  0  0  0
   58.6540   33.9630   44.8100 C   0  0  0  0  0  0  0  0  0  0  0  0
   59.2910   34.9310   45.5870 C   0  0  0  0  0  0  0  0  0  0  0  0
   59.4430   34.7410   46.9620 C   0  0  0  0  0  0  0  0  0  0  0  0
   58.9520   33.5770   47.5830 C   0  0  0  0  0  0  0  0  0  0  0  0
   59.1500   33.3840   49.0470 C   0  0  0  0  0  0  0  0  0  0  0  0
   59.9910   34.1140   49.6440 O   0  0  0  0  0  0  0  0  0  0  0  0
   58.4390   32.3590   49.7860 N   0  0  0  0  0  0  0  0  0  0  0  0
   59.0120   31.0270   49.4890 C   0  0  0  0  0  0  0  0  0  0  0  0
   58.5230   29.9650   50.4970 C   0  0  0  0  0  0  0  0  0  0  0  0
   57.3790   30.4160   51.1940 O   0  0  0  0  0  0  0  0  0  0  0  0
   57.7190   31.5220   52.0130 C   0  0  0  0  0  0  0  0  0  0  0  0
   58.4790   32.6240   51.2370 C   0  0  0  0  0  0  0  0  0  0  0  0
   58.3140   32.6040   46.7890 C   0  0  0  0  0  0  0  0  0  0  0  0
   60.7001   27.5931   46.2669 H   0  0  0  0  0  0  0  0  0  0  0  0
   59.8363   25.2381   46.5012 H   0  0  0  0  0  0  0  0  0  0  0  0
   57.4135   24.7400   46.1073 H   0  0  0  0  0  0  0  0  0  0  0  0
   55.8270   26.5921   45.4748 H   0  0  0  0  0  0  0  0  0  0  0  0
   58.0020   31.7097   43.5724 H   0  0  0  0  0  0  0  0  0  0  0  0
   56.4483   31.9372   44.4540 H   0  0  0  0  0  0  0  0  0  0  0  0
   58.5431   34.1152   43.7262 H   0  0  0  0  0  0  0  0  0  0  0  0
   59.6749   35.8473   45.1147 H   0  0  0  0  0  0  0  0  0  0  0  0
   59.9510   35.5078   47.5653 H   0  0  0  0  0  0  0  0  0  0  0  0
   57.4290   32.3690   49.5060 H   0  0  0  0  0  0  0  0  0  0  0  0
   58.7086   30.7249   48.4757 H   0  0  0  0  0  0  0  0  0  0  0  0
   60.1072   31.0970   49.5645 H   0  0  0  0  0  0  0  0  0  0  0  0
   58.2724   29.0420   49.9536 H   0  0  0  0  0  0  0  0  0  0  0  0
   59.3257   29.7779   51.2255 H   0  0  0  0  0  0  0  0  0  0  0  0
   56.7945   31.9539   52.4238 H   0  0  0  0  0  0  0  0  0  0  0  0
   58.3837   31.1558   52.8093 H   0  0  0  0  0  0  0  0  0  0  0  0
   58.0097   33.5980   51.4397 H   0  0  0  0  0  0  0  0  0  0  0  0
   59.5282   32.6311   51.5674 H   0  0  0  0  0  0  0  0  0  0  0  0
   57.9361   31.6828   47.2566 H   0  0  0  0  0  0  0  0  0  0  0  0
  1  2  2  0
  2  3  1  0
  3  4  2  0
  4  5  1  0
  5  6  2  0
  6  7  1  0
  7  8  2  0
  8  9  1  0
  9 10  2  0
  9 11  1  0
 11 12  1  0
 12 13  1  0
 13 14  2  0
 14 15  1  0
 15 16  2  0
 16 17  1  0
 17 18  1  0
 18 19  2  0
 18 20  1  0
 20 21  1  0
 21 22  1  0
 22 23  1  0
 23 24  1  0
 24 25  1  0
 17 26  2  0
 11  2  1  0
 26 13  1  0
  8  3  1  0
 25 20  1  0
  4 27  1  0
  5 28  1  0
  6 29  1  0
  7 30  1  0
 12 31  1  0
 12 32  1  0
 14 33  1  0
 15 34  1  0
 16 35  1  0
 20 36  1  0
 21 37  1  0
 21 38  1  0
 22 39  1  0
 22 40  1  0
 24 41  1  0
 24 42  1  0
 25 43  1  0
 25 44  1  0
 26 45  1  0
M  CHG  1  20   1
M  END
>  <UniqueID>  (45) 
43

>  <SMILES>  (45) 
O=C1c2ccccc2C(=O)N1Cc1cccc(C(=O)[NH+]2CCOCC2)c1

>  <Energy>  (45) 
92.17457209253246

>  <Genealogy>  (45) 
O=C1c2ccccc2C(=O)N1Cc1cccc(C(=O)[NH+]2CCOCC2)c1 (protonated)
O=C1c2ccccc2C(=O)N1Cc1cccc(C(=O)[NH+]2CCOCC2)c1 (3D coordinates assigned)
O=C1c2ccccc2C(=O)N1Cc1cccc(C(=O)[NH+]2CCOCC2)c1 (nonaromatic ring conformer: 92.17457209253246 kcal/mol)

>  <smiles>  (45) 
O=C(c1cccc(CN2C(=O)c3ccccc3C2=O)c1)N1CCOCC1

>  <score_type>  (45) 
oracle

>  <origin>  (45) 
adg

>  <m_score__min__energy>  (45) 
-7.4400000000000004

>  <m_primary>  (45) 
energy

$$$$
45:0
     RDKit          3D

 52 54  0  0  0  0  0  0  0  0999 V2000
   64.5230   32.7270   49.2040 C   0  0  0  0  0  0  0  0  0  0  0  0
   63.0630   33.1060   49.4720 C   0  0  0  0  0  0  0  0  0  0  0  0
   62.7820   33.3260   50.8120 F   0  0  0  0  0  0  0  0  0  0  0  0
   62.5040   34.1660   48.5760 C   0  0  0  0  0  0  0  0  0  0  0  0
   61.5090   33.2990   47.9140 N   0  0  0  0  0  0  0  0  0  0  0  0
   60.5750   33.4470   46.8380 C   0  0  0  0  0  0  0  0  0  0  0  0
   60.5170   34.5520   46.2370 O   0  0  0  0  0  0  0  0  0  0  0  0
   59.7240   32.3580   46.4230 N   0  0  0  0  0  0  0  0  0  0  0  0
   58.4820   32.6480   45.6920 C   0  0  0  0  0  0  0  0  0  0  0  0
   58.1640   31.5240   44.7000 C   0  0  0  0  0  0  0  0  0  0  0  0
   58.2810   30.1950   45.3180 N   0  0  0  0  0  0  0  0  0  0  0  0
   57.6630   29.0930   44.6370 C   0  0  0  0  0  0  0  0  0  0  0  0
   58.2500   28.5560   43.6590 O   0  0  0  0  0  0  0  0  0  0  0  0
   56.3640   28.5740   45.0860 C   0  0  0  0  0  0  0  0  0  0  0  0
   55.1750   29.3330   44.8690 N   0  0  0  0  0  0  0  0  0  0  0  0
   56.2950   27.4570   45.6640 O   0  0  0  0  0  0  0  0  0  0  0  0
   58.7790   30.0690   46.7010 C   0  0  1  0  0  0  0  0  0  0  0  0
   59.1040   28.6380   47.0770 C   0  0  0  0  0  0  0  0  0  0  0  0
   58.9440   28.2390   48.2630 O   0  0  0  0  0  0  0  0  0  0  0  0
   59.6530   27.7530   46.0900 N   0  0  0  0  0  0  0  0  0  0  0  0
   59.8600   26.3290   46.3380 C   0  0  0  0  0  0  0  0  0  0  0  0
   58.5640   25.5890   46.1620 C   0  0  0  0  0  0  0  0  0  0  0  0
   58.1300   25.2240   44.8760 C   0  0  0  0  0  0  0  0  0  0  0  0
   56.9060   24.5680   44.7040 C   0  0  0  0  0  0  0  0  0  0  0  0
   56.1030   24.2810   45.8140 C   0  0  0  0  0  0  0  0  0  0  0  0
   54.5670   23.4580   45.5980 Cl  0  0  0  0  0  0  0  0  0  0  0  0
   56.5220   24.6580   47.0960 C   0  0  0  0  0  0  0  0  0  0  0  0
   57.7460   25.3140   47.2700 C   0  0  0  0  0  0  0  0  0  0  0  0
   59.9990   30.9910   46.8920 C   0  0  0  0  0  0  0  0  0  0  0  0
   62.0470   32.2420   48.7950 C   0  0  0  0  0  0  0  0  0  0  0  0
   65.0480   32.5907   50.1610 H   0  0  0  0  0  0  0  0  0  0  0  0
   64.5590   31.7898   48.6293 H   0  0  0  0  0  0  0  0  0  0  0  0
   65.0103   33.5284   48.6293 H   0  0  0  0  0  0  0  0  0  0  0  0
   62.0421   34.9939   49.1339 H   0  0  0  0  0  0  0  0  0  0  0  0
   63.2138   34.7011   47.9280 H   0  0  0  0  0  0  0  0  0  0  0  0
   57.6537   32.7416   46.4098 H   0  0  0  0  0  0  0  0  0  0  0  0
   58.6104   33.5872   45.1340 H   0  0  0  0  0  0  0  0  0  0  0  0
   57.1357   31.6554   44.3321 H   0  0  0  0  0  0  0  0  0  0  0  0
   58.8913   31.5813   43.8768 H   0  0  0  0  0  0  0  0  0  0  0  0
   54.4070   29.3430   45.5770 H   0  0  0  0  0  0  0  0  0  0  0  0
   57.9740   30.3832   47.3816 H   0  0  0  0  0  0  0  0  0  0  0  0
   59.8370   28.1190   45.1270 H   0  0  0  0  0  0  0  0  0  0  0  0
   60.6031   25.9386   45.6271 H   0  0  0  0  0  0  0  0  0  0  0  0
   60.2224   26.1880   47.3670 H   0  0  0  0  0  0  0  0  0  0  0  0
   58.7552   25.4550   44.0009 H   0  0  0  0  0  0  0  0  0  0  0  0
   56.5747   24.2777   43.6960 H   0  0  0  0  0  0  0  0  0  0  0  0
   55.8881   24.4382   47.9677 H   0  0  0  0  0  0  0  0  0  0  0  0
   58.0683   25.6151   48.2777 H   0  0  0  0  0  0  0  0  0  0  0  0
   60.2564   31.0254   47.9609 H   0  0  0  0  0  0  0  0  0  0  0  0
   60.8325   30.5855   46.2998 H   0  0  0  0  0  0  0  0  0  0  0  0
   61.2940   31.8455   49.4920 H   0  0  0  0  0  0  0  0  0  0  0  0
   62.4110   31.3231   48.3122 H   0  0  0  0  0  0  0  0  0  0  0  0
  1  2  1  0
  2  3  1  0
  2  4  1  0
  4  5  1  0
  5  6  1  0
  6  7  2  0
  6  8  1  0
  8  9  1  0
  9 10  1  0
 10 11  1  0
 11 12  1  0
 12 13  2  0
 12 14  1  0
 14 15  1  0
 14 16  2  0
 11 17  1  0
 17 18  1  0
 18 19  2  0
 18 20  1  0
 20 21  1  0
 21 22  1  0
 22 23  2  0
 23 24  1  0
 24 25  2  0
 25 26  1  0
 25 27  1  0
 27 28  2  0
 17 29  1  0
  5 30  1  0
 30  2  1  0
 29  8  1  0
 28 22  1  0
  1 31  1  0
  1 32  1  0
  1 33  1  0
  4 34  1  0
  4 35  1  0
  9 36  1  0
  9 37  1  0
 10 38  1  0
 10 39  1  0
 15 40  1  0
 17 41  1  1
 20 42  1  0
 21 43  1  0
 21 44  1  0
 23 45  1  0
 24 46  1  0
 27 47  1  0
 28 48  1  0
 29 49  1  0
 29 50  1  0
 30 51  1  0
 30 52  1  0
M  CHG  1  15  -1
M  END
>  <UniqueID>  (46) 
44

>  <SMILES>  (46) 
CC1(F)CN(C(=O)N2CCN(C(=O)C([NH-])=O)[C@@H](C(=O)NCc3ccc(Cl)cc3)C2)C1

>  <Energy>  (46) 
100.58036947978235

>  <Genealogy>  (46) 
CC1(F)CN(C(=O)N2CCN(C(=O)C([NH-])=O)C(C(=O)NCc3ccc(Cl)cc3)C2)C1 (protonated)
CC1(F)CN(C(=O)N2CCN(C(=O)C([NH-])=O)[C@@H](C(=O)NCc3ccc(Cl)cc3)C2)C1 (chirality)
CC1(F)CN(C(=O)N2CCN(C(=O)C([NH-])=O)[C@@H](C(=O)NCc3ccc(Cl)cc3)C2)C1 (3D coordinates assigned)
CC1(F)CN(C(=O)N2CCN(C(=O)C([NH-])=O)[C@@H](C(=O)NCc3ccc(Cl)cc3)C2)C1 (nonaromatic ring conformer: 100.58036947978235 kcal/mol)

>  <smiles>  (46) 
CC1(F)CN(C(=O)N2CCN(C(=O)C(N)=O)C(C(=O)NCc3ccc(Cl)cc3)C2)C1

>  <score_type>  (46) 
oracle

>  <origin>  (46) 
adg

>  <m_score__min__energy>  (46) 
-10.52

>  <m_primary>  (46) 
energy

$$$$
46:0
     RDKit          3D

 57 60  0  0  0  0  0  0  0  0999 V2000
   59.6450   35.4140   46.5310 C   0  0  0  0  0  0  0  0  0  0  0  0
   58.9810   34.2260   45.9020 C   0  0  0  0  0  0  0  0  0  0  0  0
   58.1900   33.3620   46.6750 C   0  0  0  0  0  0  0  0  0  0  0  0
   57.5430   32.2750   46.0780 C   0  0  0  0  0  0  0  0  0  0  0  0
   57.6650   32.0530   44.6990 C   0  0  0  0  0  0  0  0  0  0  0  0
   56.8670   30.6760   43.9490 S   0  0  0  0  0  0  0  0  0  0  0  0
   55.5080   30.4840   44.5610 O   0  0  0  0  0  0  0  0  0  0  0  0
   56.6830   30.9380   42.4820 O   0  0  0  0  0  0  0  0  0  0  0  0
   57.8670   29.2720   44.1510 N   0  0  0  0  0  0  0  0  0  0  0  0
   58.6010   28.9280   45.3330 C   0  0  0  0  0  0  0  0  0  0  0  0
   58.4040   27.6630   45.8970 C   0  0  0  0  0  0  0  0  0  0  0  0
   59.0780   27.2980   47.0630 C   0  0  0  0  0  0  0  0  0  0  0  0
   59.9390   28.2010   47.6880 C   0  0  0  0  0  0  0  0  0  0  0  0
   60.1290   29.4880   47.1540 C   0  0  0  0  0  0  0  0  0  0  0  0
   61.0130   30.4630   47.8390 C   0  0  0  0  0  0  0  0  0  0  0  0
   60.8580   30.7210   49.2110 C   0  0  0  0  0  0  0  0  0  0  0  0
   61.6870   31.6390   49.8560 C   0  0  0  0  0  0  0  0  0  0  0  0
   62.6950   32.3090   49.1490 C   0  0  0  0  0  0  0  0  0  0  0  0
   63.5680   33.2490   49.8790 C   0  0  0  0  0  0  0  0  0  0  0  0
   63.1760   34.4370   50.0380 O   0  0  0  0  0  0  0  0  0  0  0  0
   64.8270   32.8230   50.4440 N   0  0  0  0  0  0  0  0  0  0  0  0
   65.0560   31.3970   50.7340 C   0  0  0  0  0  0  0  0  0  0  0  0
   66.2790   31.1940   51.6350 C   0  0  0  0  0  0  0  0  0  0  0  0
   67.5140   31.9120   51.0710 C   0  0  0  0  0  0  0  0  0  0  0  0
   67.2290   33.3460   50.5760 C   0  0  0  0  0  0  0  0  0  0  0  0
   65.8070   33.8230   50.8920 C   0  0  0  0  0  0  0  0  0  0  0  0
   62.8370   32.0810   47.7620 C   0  0  0  0  0  0  0  0  0  0  0  0
   63.7780   32.7700   46.9910 O   0  0  0  0  0  0  0  0  0  0  0  0
   62.0070   31.1540   47.1220 C   0  0  0  0  0  0  0  0  0  0  0  0
   59.4510   29.8450   45.9740 C   0  0  0  0  0  0  0  0  0  0  0  0
   58.4480   32.9180   43.9250 C   0  0  0  0  0  0  0  0  0  0  0  0
   59.0960   34.0030   44.5210 C   0  0  0  0  0  0  0  0  0  0  0  0
   59.5951   35.3247   47.6262 H   0  0  0  0  0  0  0  0  0  0  0  0
   60.6975   35.4562   46.2141 H   0  0  0  0  0  0  0  0  0  0  0  0
   59.1295   36.3326   46.2141 H   0  0  0  0  0  0  0  0  0  0  0  0
   58.0784   33.5404   47.7547 H   0  0  0  0  0  0  0  0  0  0  0  0
   56.9369   31.5926   46.6920 H   0  0  0  0  0  0  0  0  0  0  0  0
   57.7140   26.9522   45.4187 H   0  0  0  0  0  0  0  0  0  0  0  0
   58.9302   26.2954   47.4908 H   0  0  0  0  0  0  0  0  0  0  0  0
   60.4720   27.9045   48.6034 H   0  0  0  0  0  0  0  0  0  0  0  0
   60.0775   30.1955   49.7808 H   0  0  0  0  0  0  0  0  0  0  0  0
   61.5485   31.8388   50.9288 H   0  0  0  0  0  0  0  0  0  0  0  0
   64.1685   30.9885   51.2394 H   0  0  0  0  0  0  0  0  0  0  0  0
   65.2399   30.8774   49.7820 H   0  0  0  0  0  0  0  0  0  0  0  0
   66.0575   31.5946   52.6352 H   0  0  0  0  0  0  0  0  0  0  0  0
   66.4972   30.1171   51.6862 H   0  0  0  0  0  0  0  0  0  0  0  0
   68.2767   31.9633   51.8620 H   0  0  0  0  0  0  0  0  0  0  0  0
   67.8506   31.3329   50.1985 H   0  0  0  0  0  0  0  0  0  0  0  0
   67.9425   34.0304   51.0582 H   0  0  0  0  0  0  0  0  0  0  0  0
   67.3361   33.3410   49.4812 H   0  0  0  0  0  0  0  0  0  0  0  0
   65.7057   33.9708   51.9773 H   0  0  0  0  0  0  0  0  0  0  0  0
   65.6201   34.7708   50.3659 H   0  0  0  0  0  0  0  0  0  0  0  0
   64.7210   32.4350   46.8490 H   0  0  0  0  0  0  0  0  0  0  0  0
   62.1331   30.9633   46.0460 H   0  0  0  0  0  0  0  0  0  0  0  0
   59.5875   30.8506   45.5496 H   0  0  0  0  0  0  0  0  0  0  0  0
   58.5534   32.7428   42.8442 H   0  0  0  0  0  0  0  0  0  0  0  0
   59.6993   34.6859   43.9048 H   0  0  0  0  0  0  0  0  0  0  0  0
  1  2  1  0
  2  3  2  0
  3  4  1  0
  4  5  2  0
  5  6  1  0
  6  7  2  0
  6  8  2  0
  6  9  1  0
  9 10  1  0
 10 11  2  0
 11 12  1  0
 12 13  2  0
 13 14  1  0
 14 15  1  0
 15 16  2  0
 16 17  1  0
 17 18  2  0
 18 19  1  0
 19 20  2  0
 19 21  1  0
 21 22  1  0
 22 23  1  0
 23 24  1  0
 24 25  1  0
 25 26  1  0
 18 27  1  0
 27 28  1  0
 27 29  2  0
 14 30  2  0
  5 31  1  0
 31 32  2  0
 32  2  1  0
 30 10  1  0
 29 15  1  0
 26 21  1  0
  1 33  1  0
  1 34  1  0
  1 35  1  0
  3 36  1  0
  4 37  1  0
 11 38  1  0
 12 39  1  0
 13 40  1  0
 16 41  1  0
 17 42  1  0
 22 43  1  0
 22 44  1  0
 23 45  1  0
 23 46  1  0
 24 47  1  0
 24 48  1  0
 25 49  1  0
 25 50  1  0
 26 51  1  0
 26 52  1  0
 28 53  1  0
 29 54  1  0
 30 55  1  0
 31 56  1  0
 32 57  1  0
M  CHG  1   9  -1
M  END
>  <UniqueID>  (47) 
45

>  <SMILES>  (47) 
Cc1ccc(S(=O)(=O)[N-]c2cccc(-c3ccc(C(=O)N4CCCCC4)c(O)c3)c2)cc1

>  <Energy>  (47) 
80.37289617802602

>  <Genealogy>  (47) 
Cc1ccc(S(=O)(=O)[N-]c2cccc(-c3ccc(C(=O)N4CCCCC4)c(O)c3)c2)cc1 (protonated)
Cc1ccc(S(=O)(=O)[N-]c2cccc(-c3ccc(C(=O)N4CCCCC4)c(O)c3)c2)cc1 (3D coordinates assigned)
Cc1ccc(S(=O)(=O)[N-]c2cccc(-c3ccc(C(=O)N4CCCCC4)c(O)c3)c2)cc1 (nonaromatic ring conformer: 80.37289617802602 kcal/mol)

>  <smiles>  (47) 
Cc1ccc(S(=O)(=O)Nc2cccc(-c3ccc(C(=O)N4CCCCC4)c(O)c3)c2)cc1

>  <score_type>  (47) 
oracle

>  <origin>  (47) 
adg

>  <m_score__min__energy>  (47) 
-12.199999999999999

>  <m_primary>  (47) 
energy

$$$$
47:0
     RDKit          3D

 66 69  0  0  0  0  0  0  0  0999 V2000
   66.2320   34.1580   51.2360 C   0  0  0  0  0  0  0  0  0  0  0  0
   65.3080   33.0290   51.4610 N   0  0  0  0  0  0  0  0  0  0  0  0
   65.2450   32.1180   50.2940 C   0  0  0  0  0  0  0  0  0  0  0  0
   64.4690   32.7150   49.1100 C   0  0  0  0  0  0  0  0  0  0  0  0
   63.1750   33.2370   49.5630 N   0  0  0  0  0  0  0  0  0  0  0  0
   62.0210   33.1800   48.7000 C   0  0  0  0  0  0  0  0  0  0  0  0
   61.9730   32.2780   47.6220 C   0  0  0  0  0  0  0  0  0  0  0  0
   60.8570   32.2390   46.7800 C   0  0  0  0  0  0  0  0  0  0  0  0
   59.7730   33.1010   47.0000 C   0  0  0  0  0  0  0  0  0  0  0  0
   58.5930   33.0880   46.0600 C   0  0  0  0  0  0  0  0  0  0  0  0
   58.2170   31.6830   45.6530 C   0  0  0  0  0  0  0  0  0  0  0  0
   57.9090   30.8390   46.5370 O   0  0  0  0  0  0  0  0  0  0  0  0
   58.2860   31.2450   44.2890 N   0  0  0  0  0  0  0  0  0  0  0  0
   57.2490   30.5050   43.5760 C   0  0  0  0  0  0  0  0  0  0  0  0
   57.6220   29.0560   43.4490 C   0  0  0  0  0  0  0  0  0  0  0  0
   57.2690   28.4050   42.4290 O   0  0  0  0  0  0  0  0  0  0  0  0
   58.3830   28.4010   44.4800 N   0  0  0  0  0  0  0  0  0  0  0  0
   59.8290   28.6730   44.5060 C   0  0  0  0  0  0  0  0  0  0  0  0
   60.5840   27.7640   45.4470 C   0  0  0  0  0  0  0  0  0  0  0  0
   59.9780   26.8940   46.2710 C   0  0  0  0  0  0  0  0  0  0  0  0
   58.4860   26.6670   46.2530 C   0  0  2  0  0  0  0  0  0  0  0  0
   58.1760   25.3940   45.4790 C   0  0  0  0  0  0  0  0  0  0  0  0
   57.5360   25.4300   44.2240 C   0  0  0  0  0  0  0  0  0  0  0  0
   57.2540   24.2460   43.5360 C   0  0  0  0  0  0  0  0  0  0  0  0
   57.6080   23.0130   44.0890 C   0  0  0  0  0  0  0  0  0  0  0  0
   58.2460   22.9630   45.3300 C   0  0  0  0  0  0  0  0  0  0  0  0
   58.5300   24.1440   46.0220 C   0  0  0  0  0  0  0  0  0  0  0  0
   57.7530   27.9300   45.7300 C   0  0  2  0  0  0  0  0  0  0  0  0
   56.2500   27.7620   45.6390 C   0  0  0  0  0  0  0  0  0  0  0  0
   55.5200   28.6490   45.1220 O   0  0  0  0  0  0  0  0  0  0  0  0
   55.6540   26.6290   46.1810 O   0  0  0  0  0  0  0  0  0  0  0  0
   59.8150   33.9970   48.0790 C   0  0  0  0  0  0  0  0  0  0  0  0
   60.9260   34.0310   48.9250 C   0  0  0  0  0  0  0  0  0  0  0  0
   63.1730   34.1210   50.7310 C   0  0  0  0  0  0  0  0  0  0  0  0
   63.9610   33.4790   51.8790 C   0  0  0  0  0  0  0  0  0  0  0  0
   66.5616   34.5608   52.2051 H   0  0  0  0  0  0  0  0  0  0  0  0
   67.1065   33.8084   50.6676 H   0  0  0  0  0  0  0  0  0  0  0  0
   65.7164   34.9461   50.6676 H   0  0  0  0  0  0  0  0  0  0  0  0
   65.7050   32.4750   52.2580 H   0  0  0  0  0  0  0  0  0  0  0  0
   66.2713   31.8973   49.9654 H   0  0  0  0  0  0  0  0  0  0  0  0
   64.7127   31.2097   50.6129 H   0  0  0  0  0  0  0  0  0  0  0  0
   65.0556   33.5331   48.6667 H   0  0  0  0  0  0  0  0  0  0  0  0
   64.2960   31.9280   48.3612 H   0  0  0  0  0  0  0  0  0  0  0  0
   62.8188   31.5987   47.4399 H   0  0  0  0  0  0  0  0  0  0  0  0
   60.8294   31.5284   45.9408 H   0  0  0  0  0  0  0  0  0  0  0  0
   57.7329   33.5559   46.5614 H   0  0  0  0  0  0  0  0  0  0  0  0
   58.8717   33.6442   45.1529 H   0  0  0  0  0  0  0  0  0  0  0  0
   56.3019   30.5867   44.1295 H   0  0  0  0  0  0  0  0  0  0  0  0
   57.1404   30.9315   42.5679 H   0  0  0  0  0  0  0  0  0  0  0  0
   60.2295   28.5369   43.4906 H   0  0  0  0  0  0  0  0  0  0  0  0
   59.9634   29.7037   44.8659 H   0  0  0  0  0  0  0  0  0  0  0  0
   61.6827   27.8173   45.4577 H   0  0  0  0  0  0  0  0  0  0  0  0
   60.5917   26.3258   46.9855 H   0  0  0  0  0  0  0  0  0  0  0  0
   58.1042   26.5104   47.2726 H   0  0  0  0  0  0  0  0  0  0  0  0
   57.2560   26.3976   43.7820 H   0  0  0  0  0  0  0  0  0  0  0  0
   56.7526   24.2854   42.5577 H   0  0  0  0  0  0  0  0  0  0  0  0
   57.3843   22.0822   43.5472 H   0  0  0  0  0  0  0  0  0  0  0  0
   58.5259   21.9919   45.7643 H   0  0  0  0  0  0  0  0  0  0  0  0
   59.0341   24.0964   46.9985 H   0  0  0  0  0  0  0  0  0  0  0  0
   57.8751   28.7269   46.4783 H   0  0  0  0  0  0  0  0  0  0  0  0
   58.9687   34.6761   48.2596 H   0  0  0  0  0  0  0  0  0  0  0  0
   60.9437   34.7298   49.7743 H   0  0  0  0  0  0  0  0  0  0  0  0
   63.6388   35.0805   50.4619 H   0  0  0  0  0  0  0  0  0  0  0  0
   62.1350   34.2868   51.0553 H   0  0  0  0  0  0  0  0  0  0  0  0
   64.0708   34.2170   52.6873 H   0  0  0  0  0  0  0  0  0  0  0  0
   63.4017   32.5927   52.2132 H   0  0  0  0  0  0  0  0  0  0  0  0
  1  2  1  0
  2  3  1  0
  3  4  1  0
  4  5  1  0
  5  6  1  0
  6  7  2  0
  7  8  1  0
  8  9  2  0
  9 10  1  0
 10 11  1  0
 11 12  2  0
 11 13  1  0
 13 14  1  0
 14 15  1  0
 15 16  2  0
 15 17  1  0
 17 18  1  0
 18 19  1  0
 19 20  2  0
 20 21  1  0
 21 22  1  0
 22 23  2  0
 23 24  1  0
 24 25  2  0
 25 26  1  0
 26 27  2  0
 21 28  1  0
 28 29  1  0
 29 30  2  0
 29 31  1  0
  9 32  1  0
 32 33  2  0
  5 34  1  0
 34 35  1  0
 35  2  1  0
 33  6  1  0
 28 17  1  0
 27 22  1  0
  1 36  1  0
  1 37  1  0
  1 38  1  0
  2 39  1  0
  3 40  1  0
  3 41  1  0
  4 42  1  0
  4 43  1  0
  7 44  1  0
  8 45  1  0
 10 46  1  0
 10 47  1  0
 14 48  1  0
 14 49  1  0
 18 50  1  0
 18 51  1  0
 19 52  1  0
 20 53  1  0
 21 54  1  1
 23 55  1  0
 24 56  1  0
 25 57  1  0
 26 58  1  0
 27 59  1  0
 28 60  1  1
 32 61  1  0
 33 62  1  0
 34 63  1  0
 34 64  1  0
 35 65  1  0
 35 66  1  0
M  CHG  3   2   1  13  -1  31  -1
M  END
>  <UniqueID>  (48) 
46

>  <SMILES>  (48) 
C[NH+]1CCN(c2ccc(CC(=O)[N-]CC(=O)N3CC=C[C@H](c4ccccc4)[C@@H]3C(=O)[O-])cc2)CC1

>  <Energy>  (48) 
85.3192263541665

>  <Genealogy>  (48) 
C[NH+]1CCN(c2ccc(CC(=O)[N-]CC(=O)N3CC=CC(c4ccccc4)C3C(=O)[O-])cc2)CC1 (protonated)
C[NH+]1CCN(c2ccc(CC(=O)[N-]CC(=O)N3CC=C[C@H](c4ccccc4)[C@@H]3C(=O)[O-])cc2)CC1 (chirality)
C[NH+]1CCN(c2ccc(CC(=O)[N-]CC(=O)N3CC=C[C@H](c4ccccc4)[C@@H]3C(=O)[O-])cc2)CC1 (3D coordinates assigned)
C[NH+]1CCN(c2ccc(CC(=O)[N-]CC(=O)N3CC=C[C@H](c4ccccc4)[C@@H]3C(=O)[O-])cc2)CC1 (nonaromatic ring conformer: 85.3192263541665 kcal/mol)

>  <smiles>  (48) 
CN1CCN(c2ccc(CC(=O)NCC(=O)N3CC=CC(c4ccccc4)C3C(=O)O)cc2)CC1

>  <score_type>  (48) 
oracle

>  <origin>  (48) 
adg

>  <m_score__min__energy>  (48) 
-12.01

>  <m_primary>  (48) 
energy

$$$$
48:0
     RDKit          3D

 34 36  0  0  0  0  0  0  0  0999 V2000
   59.2950   33.8830   49.3410 O   0  0  0  0  0  0  0  0  0  0  0  0
   59.9390   33.7410   48.2650 C   0  0  0  0  0  0  0  0  0  0  0  0
   61.4080   33.5530   48.3310 C   0  0  0  0  0  0  0  0  0  0  0  0
   62.1420   33.1720   47.1920 C   0  0  0  0  0  0  0  0  0  0  0  0
   63.5250   32.9820   47.2720 C   0  0  0  0  0  0  0  0  0  0  0  0
   64.1870   33.1580   48.4890 C   0  0  0  0  0  0  0  0  0  0  0  0
   63.4660   33.5200   49.6300 C   0  0  0  0  0  0  0  0  0  0  0  0
   62.0830   33.7110   49.5550 C   0  0  0  0  0  0  0  0  0  0  0  0
   59.1980   33.7680   46.9800 C   0  0  0  0  0  0  0  0  0  0  0  0
   59.3790   34.8380   46.0880 C   0  0  0  0  0  0  0  0  0  0  0  0
   58.6890   34.8710   44.8750 C   0  0  0  0  0  0  0  0  0  0  0  0
   57.8260   33.8290   44.5280 C   0  0  0  0  0  0  0  0  0  0  0  0
   57.6640   32.7310   45.3900 C   0  0  0  0  0  0  0  0  0  0  0  0
   56.7800   31.6430   45.0790 N   0  0  0  0  0  0  0  0  0  0  0  0
   57.0900   30.4880   44.2890 C   0  0  0  0  0  0  0  0  0  0  0  0
   57.5850   30.6090   43.1370 O   0  0  0  0  0  0  0  0  0  0  0  0
   56.8790   29.1490   44.8560 C   0  0  0  0  0  0  0  0  0  0  0  0
   57.8780   28.2480   45.1800 C   0  0  0  0  0  0  0  0  0  0  0  0
   57.2430   27.1310   45.6750 C   0  0  0  0  0  0  0  0  0  0  0  0
   55.8970   27.4160   45.6230 C   0  0  0  0  0  0  0  0  0  0  0  0
   54.8910   26.5510   46.0310 O   0  0  0  0  0  0  0  0  0  0  0  0
   55.6580   28.6440   45.1260 N   0  0  0  0  0  0  0  0  0  0  0  0
   58.3410   32.7140   46.6160 C   0  0  0  0  0  0  0  0  0  0  0  0
   61.6244   33.0228   46.2329 H   0  0  0  0  0  0  0  0  0  0  0  0
   64.0924   32.6934   46.3749 H   0  0  0  0  0  0  0  0  0  0  0  0
   65.2756   33.0117   48.5494 H   0  0  0  0  0  0  0  0  0  0  0  0
   63.9876   33.6549   50.5890 H   0  0  0  0  0  0  0  0  0  0  0  0
   61.5194   33.9865   50.4586 H   0  0  0  0  0  0  0  0  0  0  0  0
   60.0687   35.6549   46.3470 H   0  0  0  0  0  0  0  0  0  0  0  0
   58.8254   35.7207   44.1899 H   0  0  0  0  0  0  0  0  0  0  0  0
   57.2722   33.8679   43.5784 H   0  0  0  0  0  0  0  0  0  0  0  0
   58.9621   28.3947   45.0651 H   0  0  0  0  0  0  0  0  0  0  0  0
   57.7129   26.2045   46.0365 H   0  0  0  0  0  0  0  0  0  0  0  0
   58.2007   31.8660   47.3025 H   0  0  0  0  0  0  0  0  0  0  0  0
  1  2  2  0
  2  3  1  0
  3  4  2  0
  4  5  1  0
  5  6  2  0
  6  7  1  0
  7  8  2  0
  2  9  1  0
  9 10  2  0
 10 11  1  0
 11 12  2  0
 12 13  1  0
 13 14  1  0
 14 15  1  0
 15 16  2  0
 15 17  1  0
 17 18  2  0
 18 19  1  0
 19 20  2  0
 20 21  1  0
 20 22  1  0
 13 23  2  0
  8  3  1  0
 23  9  1  0
 22 17  1  0
  4 24  1  0
  5 25  1  0
  6 26  1  0
  7 27  1  0
  8 28  1  0
 10 29  1  0
 11 30  1  0
 12 31  1  0
 18 32  1  0
 19 33  1  0
 23 34  1  0
M  CHG  3  14  -1  21  -1  22  -1
M  END
>  <UniqueID>  (49) 
47

>  <SMILES>  (49) 
O=C(c1ccccc1)c1cccc([N-]C(=O)c2ccc([O-])[n-]2)c1

>  <Energy>  (49) 
70.79451959387582

>  <Genealogy>  (49) 
O=C(c1ccccc1)c1cccc([N-]C(=O)c2ccc([O-])[n-]2)c1 (protonated)
O=C(c1ccccc1)c1cccc([N-]C(=O)c2ccc([O-])[n-]2)c1 (3D coordinates assigned)
O=C(c1ccccc1)c1cccc([N-]C(=O)c2ccc([O-])[n-]2)c1 (optimized conformer: 70.79451959387582 kcal/mol)

>  <smiles>  (49) 
O=C(c1ccccc1)c1cccc(NC(=O)c2ccc(O)[nH]2)c1

>  <score_type>  (49) 
oracle

>  <origin>  (49) 
adg

>  <m_score__min__energy>  (49) 
-15.67

>  <m_primary>  (49) 
energy

$$$$
49:0
     RDKit          3D

 44 46  0  0  1  0  0  0  0  0999 V2000
   57.0700   23.4430   46.2270 C   0  0  0  0  0  0  0  0  0  0  0  0
   57.6510   24.7750   46.1710 N   0  0  0  0  0  0  0  0  0  0  0  0
   56.7710   25.8880   46.2590 C   0  0  0  0  0  0  0  0  0  0  0  0
   55.5280   25.6360   46.3830 O   0  0  0  0  0  0  0  0  0  0  0  0
   57.2880   27.2510   46.2110 C   0  0  0  0  0  0  0  0  0  0  0  0
   58.1370   27.8180   47.1370 C   0  0  0  0  0  0  0  0  0  0  0  0
   58.3730   29.0770   46.7300 N   0  0  0  0  0  0  0  0  0  0  0  0
   57.7110   29.3280   45.5890 C   0  0  0  0  0  0  0  0  0  0  0  0
   57.7690   30.6170   44.9000 C   0  0  0  0  0  0  0  0  0  0  0  0
   57.6210   31.7390   45.6260 N   0  0  0  0  0  0  0  0  0  0  0  0
   57.6530   32.9830   45.1070 C   0  0  0  0  0  0  0  0  0  0  0  0
   57.4970   33.9620   45.9080 N   0  0  0  0  0  0  0  0  0  0  0  0
   58.4180   34.1330   46.9930 C   0  0  0  0  0  0  0  0  0  0  0  0
   58.8880   35.2970   47.1270 O   0  0  0  0  0  0  0  0  0  0  0  0
   58.7730   33.0790   47.8510 N   0  0  0  0  0  0  0  0  0  0  0  0
   59.6940   33.1870   48.9640 C   0  0  0  0  0  0  0  0  0  0  0  0
   61.0790   33.3230   48.4700 C   0  0  0  0  0  0  0  0  0  0  0  0
   61.4440   33.2770   47.1470 C   0  0  0  0  0  0  0  0  0  0  0  0
   62.7800   33.4220   46.7730 C   0  0  0  0  0  0  0  0  0  0  0  0
   63.7830   33.6140   47.7070 C   0  0  0  0  0  0  0  0  0  0  0  0
   63.4130   33.6600   49.0520 C   0  0  0  0  0  0  0  0  0  0  0  0
   62.0870   33.5160   49.3930 C   0  0  0  0  0  0  0  0  0  0  0  0
   57.8520   33.1180   43.7480 C   0  0  0  0  0  0  0  0  0  0  0  0
   58.0030   31.9610   43.0150 C   0  0  0  0  0  0  0  0  0  0  0  0
   57.9650   30.7280   43.5730 N   0  0  0  0  0  0  0  0  0  0  0  0
   57.0190   28.1900   45.2390 C   0  0  0  0  0  0  0  0  0  0  0  0
   56.9395   23.1438   47.2774 H   0  0  0  0  0  0  0  0  0  0  0  0
   56.0923   23.4479   45.7230 H   0  0  0  0  0  0  0  0  0  0  0  0
   57.7388   22.7298   45.7230 H   0  0  0  0  0  0  0  0  0  0  0  0
   58.6990   24.9180   46.0670 H   0  0  0  0  0  0  0  0  0  0  0  0
   58.5435   27.3330   48.0367 H   0  0  0  0  0  0  0  0  0  0  0  0
   59.0040   29.7220   47.2860 H   0  0  0  0  0  0  0  0  0  0  0  0
   58.3190   32.1370   47.6470 H   0  0  0  0  0  0  0  0  0  0  0  0
   59.4346   34.0707   49.5656 H   0  0  0  0  0  0  0  0  0  0  0  0
   59.6206   32.2783   49.5795 H   0  0  0  0  0  0  0  0  0  0  0  0
   60.6756   33.1244   46.3748 H   0  0  0  0  0  0  0  0  0  0  0  0
   63.0437   33.3826   45.7058 H   0  0  0  0  0  0  0  0  0  0  0  0
   64.8335   33.7263   47.4006 H   0  0  0  0  0  0  0  0  0  0  0  0
   64.1738   33.8099   49.8322 H   0  0  0  0  0  0  0  0  0  0  0  0
   61.8162   33.5569   50.4584 H   0  0  0  0  0  0  0  0  0  0  0  0
   57.8886   34.1080   43.2699 H   0  0  0  0  0  0  0  0  0  0  0  0
   58.1613   32.0427   41.9295 H   0  0  0  0  0  0  0  0  0  0  0  0
   58.0810   29.8720   42.9990 H   0  0  0  0  0  0  0  0  0  0  0  0
   56.3769   28.0566   44.3559 H   0  0  0  0  0  0  0  0  0  0  0  0
  1  2  1  0
  2  3  1  0
  3  4  2  0
  3  5  1  0
  5  6  2  0
  6  7  1  0
  7  8  1  0
  8  9  1  0
  9 10  2  0
 10 11  1  0
 11 12  2  0
 12 13  1  0
 13 14  2  0
 13 15  1  0
 15 16  1  0
 16 17  1  0
 17 18  2  0
 18 19  1  0
 19 20  2  0
 20 21  1  0
 21 22  2  0
 11 23  1  0
 23 24  2  0
 24 25  1  0
  8 26  2  0
 26  5  1  0
 25  9  1  0
 22 17  1  0
  1 27  1  0
  1 28  1  0
  1 29  1  0
  2 30  1  0
  6 31  1  0
  7 32  1  0
 15 33  1  0
 16 34  1  0
 16 35  1  0
 18 36  1  0
 19 37  1  0
 20 38  1  0
 21 39  1  0
 22 40  1  0
 23 41  1  0
 24 42  1  0
 25 43  1  0
 26 44  1  0
M  END
>  <smiles>  (50) 
CNC(=O)c1c[nH]c(-c2nc(=NC(=O)NCc3ccccc3)cc[nH]2)c1

>  <score_type>  (50) 
oracle

>  <origin>  (50) 
adg

>  <m_score__min__energy>  (50) 
-8.1199999999999992

>  <m_primary>  (50) 
energy

$$$$
50:0
     RDKit          3D

 34 36  0  0  0  0  0  0  0  0999 V2000
   54.2833   24.2920   44.6042 H   0  0  0  0  0  0  0  0  0  0  0  0
   55.2680   23.8260   44.4520 C   0  0  0  0  0  0  0  0  0  0  0  0
   55.3600   22.6350   43.8020 N   0  0  0  0  0  0  0  0  0  0  0  0
   56.5540   22.0200   43.5970 C   0  0  0  0  0  0  0  0  0  0  0  0
   56.5960   20.9190   42.9880 O   0  0  0  0  0  0  0  0  0  0  0  0
   57.7310   22.6090   44.0650 C   0  0  0  0  0  0  0  0  0  0  0  0
   58.7008   22.1149   43.9060 H   0  0  0  0  0  0  0  0  0  0  0  0
   57.6640   23.8320   44.7370 C   0  0  0  0  0  0  0  0  0  0  0  0
   58.5841   24.3010   45.1158 H   0  0  0  0  0  0  0  0  0  0  0  0
   56.4250   24.4640   44.9300 C   0  0  0  0  0  0  0  0  0  0  0  0
   56.3460   25.7600   45.6500 C   0  0  0  0  0  0  0  0  0  0  0  0
   55.3130   26.0350   46.3160 O   0  0  0  0  0  0  0  0  0  0  0  0
   57.3820   26.7470   45.5520 N   0  0  0  0  0  0  0  0  0  0  0  0
   57.2000   28.0320   45.4720 C   0  0  0  0  0  0  0  0  0  0  0  0
   58.1860   28.9720   45.6650 C   0  0  0  0  0  0  0  0  0  0  0  0
   59.2407   28.8060   45.9296 H   0  0  0  0  0  0  0  0  0  0  0  0
   57.5360   30.1800   45.4470 C   0  0  0  0  0  0  0  0  0  0  0  0
   58.1280   31.5380   45.5280 C   0  0  0  0  0  0  0  0  0  0  0  0
   57.5280   32.6060   44.8350 C   0  0  0  0  0  0  0  0  0  0  0  0
   56.6185   32.4291   44.2420 H   0  0  0  0  0  0  0  0  0  0  0  0
   58.0780   33.8890   44.8940 C   0  0  0  0  0  0  0  0  0  0  0  0
   57.6030   34.7149   44.3443 H   0  0  0  0  0  0  0  0  0  0  0  0
   59.2280   34.1260   45.6480 C   0  0  0  0  0  0  0  0  0  0  0  0
   59.6623   35.1360   45.6837 H   0  0  0  0  0  0  0  0  0  0  0  0
   59.8310   33.0800   46.3600 C   0  0  0  0  0  0  0  0  0  0  0  0
   61.0900   33.3270   47.1400 C   0  0  0  0  0  0  0  0  0  0  0  0
   60.8688   33.2836   48.2166 H   0  0  0  0  0  0  0  0  0  0  0  0
   61.8347   32.5578   46.8874 H   0  0  0  0  0  0  0  0  0  0  0  0
   61.4889   34.3205   46.8874 H   0  0  0  0  0  0  0  0  0  0  0  0
   59.2890   31.7880   46.2860 C   0  0  0  0  0  0  0  0  0  0  0  0
   59.7755   30.9618   46.8253 H   0  0  0  0  0  0  0  0  0  0  0  0
   56.2420   29.9470   45.1310 N   0  0  0  0  0  0  0  0  0  0  0  0
   56.0440   28.6390   45.1450 N   0  0  0  0  0  0  0  0  0  0  0  0
   55.1330   28.1900   44.9060 H   0  0  0  0  0  0  0  0  0  0  0  0
  1  2  1  0
  2  3  1  0
  3  4  1  0
  4  5  2  0
  4  6  1  0
  6  7  1  0
  6  8  2  0
  8  9  1  0
  8 10  1  0
 10 11  1  0
 11 12  2  0
 11 13  1  0
 13 14  2  0
 14 15  1  0
 15 16  1  0
 15 17  2  0
 17 18  1  0
 18 19  2  0
 19 20  1  0
 19 21  1  0
 21 22  1  0
 21 23  2  0
 23 24  1  0
 23 25  1  0
 25 26  1  0
 26 27  1  0
 26 28  1  0
 26 29  1  0
 25 30  2  0
 30 31  1  0
 17 32  1  0
 32 33  1  0
 33 34  1  0
 10  2  2  0
 33 14  1  0
 30 18  1  0
M  CHG  2   3  -1  32  -1
M  END
>  <UniqueID>  (51) 
48

>  <SMILES>  (51) 
Cc1cccc(-c2c/c(=N/C(=O)c3ccc(=O)[n-]c3)[nH][n-]2)c1

>  <Energy>  (51) 
77.50119976581615

>  <Genealogy>  (51) 
Cc1cccc(-c2cc(=NC(=O)c3ccc(=O)[n-]c3)[nH][n-]2)c1 (protonated)
Cc1cccc(-c2c/c(=N/C(=O)c3ccc(=O)[n-]c3)[nH][n-]2)c1 (cis-trans isomerization)
Cc1cccc(-c2c/c(=N/C(=O)c3ccc(=O)[n-]c3)[nH][n-]2)c1 (3D coordinates assigned)
Cc1cccc(-c2c/c(=N/C(=O)c3ccc(=O)[n-]c3)[nH][n-]2)c1 (optimized conformer: 77.50119976581615 kcal/mol)

>  <smiles>  (51) 
Cc1cccc(-c2cc(=NC(=O)c3ccc(=O)[nH]c3)[nH][nH]2)c1

>  <score_type>  (51) 
oracle

>  <origin>  (51) 
adg

>  <m_score__min__energy>  (51) 
-12.48

>  <m_primary>  (51) 
energy

$$$$
51:0
     RDKit          3D

 53 55  0  0  0  0  0  0  0  0999 V2000
   58.2140   21.4790   43.6120 C   0  0  0  0  0  0  0  0  0  0  0  0
   58.6110   22.4120   44.7160 C   0  0  0  0  0  0  0  0  0  0  0  0
   59.7430   22.2510   45.2480 O   0  0  0  0  0  0  0  0  0  0  0  0
   57.7260   23.5110   45.1940 C   0  0  0  0  0  0  0  0  0  0  0  0
   58.2560   24.4930   46.0550 C   0  0  0  0  0  0  0  0  0  0  0  0
   57.4510   25.5360   46.5450 C   0  0  0  0  0  0  0  0  0  0  0  0
   57.9810   26.5510   47.4080 N   0  0  0  0  0  0  0  0  0  0  0  0
   58.8260   27.6420   47.0200 C   0  0  0  0  0  0  0  0  0  0  0  0
   59.9530   27.7630   47.5680 O   0  0  0  0  0  0  0  0  0  0  0  0
   58.4290   28.6120   45.9420 C   0  0  0  0  0  0  0  0  0  0  0  0
   57.0090   28.7110   45.8570 O   0  0  0  0  0  0  0  0  0  0  0  0
   56.3500   29.4320   44.8540 C   0  0  0  0  0  0  0  0  0  0  0  0
   55.1980   29.0810   44.4750 O   0  0  0  0  0  0  0  0  0  0  0  0
   56.9690   30.6460   44.2820 C   0  0  0  0  0  0  0  0  0  0  0  0
   57.6100   31.5490   45.1500 C   0  0  0  0  0  0  0  0  0  0  0  0
   58.2790   32.6740   44.6490 C   0  0  0  0  0  0  0  0  0  0  0  0
   59.0660   33.8070   45.7450 S   0  0  0  0  0  0  0  0  0  0  0  0
   58.1930   34.0020   46.9530 O   0  0  0  0  0  0  0  0  0  0  0  0
   59.2420   35.1370   45.0640 O   0  0  0  0  0  0  0  0  0  0  0  0
   60.6150   33.1720   46.2380 N   0  0  0  0  0  0  0  0  0  0  0  0
   61.2680   34.1020   47.1760 C   0  0  0  0  0  0  0  0  0  0  0  0
   62.4900   33.4420   47.8460 C   0  0  0  0  0  0  0  0  0  0  0  0
   62.8450   32.2440   47.1850 O   0  0  0  0  0  0  0  0  0  0  0  0
   61.8030   31.2950   47.3220 C   0  0  0  0  0  0  0  0  0  0  0  0
   60.4370   31.8550   46.8680 C   0  0  0  0  0  0  0  0  0  0  0  0
   58.3010   32.9090   43.2710 C   0  0  0  0  0  0  0  0  0  0  0  0
   57.6540   32.0320   42.4000 C   0  0  0  0  0  0  0  0  0  0  0  0
   56.9700   30.9130   42.8900 C   0  0  0  0  0  0  0  0  0  0  0  0
   56.2780   30.1200   41.9720 O   0  0  0  0  0  0  0  0  0  0  0  0
   56.1230   25.6300   46.1270 C   0  0  0  0  0  0  0  0  0  0  0  0
   55.5850   24.6730   45.2680 C   0  0  0  0  0  0  0  0  0  0  0  0
   56.3710   23.6160   44.8030 C   0  0  0  0  0  0  0  0  0  0  0  0
   55.8090   22.7290   43.9440 F   0  0  0  0  0  0  0  0  0  0  0  0
   57.8178   20.5479   44.0435 H   0  0  0  0  0  0  0  0  0  0  0  0
   57.4400   21.9539   42.9912 H   0  0  0  0  0  0  0  0  0  0  0  0
   59.0929   21.2505   42.9912 H   0  0  0  0  0  0  0  0  0  0  0  0
   59.3151   24.4425   46.3478 H   0  0  0  0  0  0  0  0  0  0  0  0
   58.8476   29.6024   46.1742 H   0  0  0  0  0  0  0  0  0  0  0  0
   58.8187   28.2518   44.9784 H   0  0  0  0  0  0  0  0  0  0  0  0
   57.5858   31.3698   46.2350 H   0  0  0  0  0  0  0  0  0  0  0  0
   61.5981   34.9955   46.6258 H   0  0  0  0  0  0  0  0  0  0  0  0
   60.5449   34.3770   47.9580 H   0  0  0  0  0  0  0  0  0  0  0  0
   63.3404   34.1387   47.8091 H   0  0  0  0  0  0  0  0  0  0  0  0
   62.2318   33.2037   48.8884 H   0  0  0  0  0  0  0  0  0  0  0  0
   62.0448   30.4133   46.7104 H   0  0  0  0  0  0  0  0  0  0  0  0
   61.7227   31.0347   48.3877 H   0  0  0  0  0  0  0  0  0  0  0  0
   59.9829   31.1633   46.1432 H   0  0  0  0  0  0  0  0  0  0  0  0
   59.7818   31.9610   47.7452 H   0  0  0  0  0  0  0  0  0  0  0  0
   58.8297   33.7875   42.8726 H   0  0  0  0  0  0  0  0  0  0  0  0
   57.6816   32.2217   41.3168 H   0  0  0  0  0  0  0  0  0  0  0  0
   55.5370   29.4850   42.2330 H   0  0  0  0  0  0  0  0  0  0  0  0
   55.4971   26.4640   46.4773 H   0  0  0  0  0  0  0  0  0  0  0  0
   54.5336   24.7508   44.9540 H   0  0  0  0  0  0  0  0  0  0  0  0
  1  2  1  0
  2  3  2  0
  2  4  1  0
  4  5  2  0
  5  6  1  0
  6  7  1  0
  7  8  1  0
  8  9  2  0
  8 10  1  0
 10 11  1  0
 11 12  1  0
 12 13  2  0
 12 14  1  0
 14 15  2  0
 15 16  1  0
 16 17  1  0
 17 18  2  0
 17 19  2  0
 17 20  1  0
 20 21  1  0
 21 22  1  0
 22 23  1  0
 23 24  1  0
 24 25  1  0
 16 26  2  0
 26 27  1  0
 27 28  2  0
 28 29  1  0
  6 30  2  0
 30 31  1  0
 31 32  2  0
 32 33  1  0
 32  4  1  0
 28 14  1  0
 25 20  1  0
  1 34  1  0
  1 35  1  0
  1 36  1  0
  5 37  1  0
 10 38  1  0
 10 39  1  0
 15 40  1  0
 21 41  1  0
 21 42  1  0
 22 43  1  0
 22 44  1  0
 24 45  1  0
 24 46  1  0
 25 47  1  0
 25 48  1  0
 26 49  1  0
 27 50  1  0
 29 51  1  0
 30 52  1  0
 31 53  1  0
M  CHG  1   7  -1
M  END
>  <UniqueID>  (52) 
49

>  <SMILES>  (52) 
CC(=O)c1cc([N-]C(=O)COC(=O)c2cc(S(=O)(=O)N3CCOCC3)ccc2O)ccc1F

>  <Energy>  (52) 
71.69301613774633

>  <Genealogy>  (52) 
CC(=O)c1cc([N-]C(=O)COC(=O)c2cc(S(=O)(=O)N3CCOCC3)ccc2O)ccc1F (protonated)
CC(=O)c1cc([N-]C(=O)COC(=O)c2cc(S(=O)(=O)N3CCOCC3)ccc2O)ccc1F (3D coordinates assigned)
CC(=O)c1cc([N-]C(=O)COC(=O)c2cc(S(=O)(=O)N3CCOCC3)ccc2O)ccc1F (nonaromatic ring conformer: 71.69301613774633 kcal/mol)

>  <smiles>  (52) 
CC(=O)c1cc(NC(=O)COC(=O)c2cc(S(=O)(=O)N3CCOCC3)ccc2O)ccc1F

>  <score_type>  (52) 
oracle

>  <origin>  (52) 
adg

>  <m_score__min__energy>  (52) 
-10.93

>  <m_primary>  (52) 
energy

$$$$
52:0
     RDKit          3D

 74 78  0  0  0  0  0  0  0  0999 V2000
   53.8910   29.0800   51.7090 N   0  0  0  0  0  0  0  0  0  0  0  0
   54.4300   30.3900   51.9210 C   0  0  0  0  0  0  0  0  0  0  0  0
   53.6710   31.3850   51.7520 O   0  0  0  0  0  0  0  0  0  0  0  0
   55.8380   30.6090   52.3530 C   0  0  0  0  0  0  0  0  0  0  0  0
   56.6560   29.5500   52.8000 C   0  0  0  0  0  0  0  0  0  0  0  0
   57.9650   29.7930   53.2240 C   0  0  0  0  0  0  0  0  0  0  0  0
   58.5030   31.0830   53.1650 C   0  0  0  0  0  0  0  0  0  0  0  0
   59.8420   31.3020   53.6300 N   0  0  0  0  0  0  0  0  0  0  0  0
   61.0290   30.8860   52.9490 C   0  0  0  0  0  0  0  0  0  0  0  0
   61.8520   30.1460   53.5500 O   0  0  0  0  0  0  0  0  0  0  0  0
   61.2750   31.3150   51.6030 N   0  0  0  0  0  0  0  0  0  0  0  0
   60.6800   30.8030   50.4020 C   0  0  0  0  0  0  0  0  0  0  0  0
   59.4150   31.2730   50.0330 C   0  0  0  0  0  0  0  0  0  0  0  0
   58.7750   30.7750   48.8950 C   0  0  0  0  0  0  0  0  0  0  0  0
   59.3880   29.7840   48.1070 C   0  0  0  0  0  0  0  0  0  0  0  0
   58.6990   29.2390   46.9080 C   0  0  0  0  0  0  0  0  0  0  0  0
   58.5680   27.8490   46.7290 C   0  0  0  0  0  0  0  0  0  0  0  0
   57.9350   27.3370   45.5950 C   0  0  0  0  0  0  0  0  0  0  0  0
   57.4290   28.2020   44.6230 C   0  0  0  0  0  0  0  0  0  0  0  0
   57.5650   29.5910   44.7740 C   0  0  0  0  0  0  0  0  0  0  0  0
   57.0350   30.5050   43.7470 C   0  0  0  0  0  0  0  0  0  0  0  0
   56.2940   30.0480   42.8380 O   0  0  0  0  0  0  0  0  0  0  0  0
   57.3410   31.9030   43.7550 N   0  0  0  0  0  0  0  0  0  0  0  0
   57.0230   32.7940   44.8680 C   0  0  0  0  0  0  0  0  0  0  0  0
   58.3010   33.1850   45.6280 C   0  0  0  0  0  0  0  0  0  0  0  0
   57.9990   33.4690   47.1110 C   0  0  0  0  0  0  0  0  0  0  0  0
   59.2830   33.8410   47.8850 C   0  0  0  0  0  0  0  0  0  0  0  0
   60.2600   34.6410   47.0960 N   0  0  0  0  0  0  0  0  0  0  0  0
   61.4460   33.8590   46.6850 C   0  0  0  0  0  0  0  0  0  0  0  0
   62.2830   33.5270   47.8910 C   0  0  0  0  0  0  0  0  0  0  0  0
   63.2180   32.4830   47.8230 C   0  0  0  0  0  0  0  0  0  0  0  0
   63.9990   32.1660   48.9390 C   0  0  0  0  0  0  0  0  0  0  0  0
   63.8610   32.8980   50.1220 C   0  0  0  0  0  0  0  0  0  0  0  0
   62.9380   33.9450   50.1950 C   0  0  0  0  0  0  0  0  0  0  0  0
   62.1530   34.2630   49.0830 C   0  0  0  0  0  0  0  0  0  0  0  0
   59.6390   35.3610   45.9670 C   0  0  0  0  0  0  0  0  0  0  0  0
   58.9790   34.4050   44.9560 C   0  0  0  0  0  0  0  0  0  0  0  0
   58.1820   30.1040   45.9240 C   0  0  0  0  0  0  0  0  0  0  0  0
   60.6540   29.3040   48.4870 C   0  0  0  0  0  0  0  0  0  0  0  0
   61.2900   29.7990   49.6290 C   0  0  0  0  0  0  0  0  0  0  0  0
   57.6970   32.1440   52.7250 C   0  0  0  0  0  0  0  0  0  0  0  0
   56.3790   31.9080   52.3220 C   0  0  0  0  0  0  0  0  0  0  0  0
   54.4160   28.2060   51.9290 H   0  0  0  0  0  0  0  0  0  0  0  0
   52.9080   28.9720   51.3670 H   0  0  0  0  0  0  0  0  0  0  0  0
   56.2598   28.5240   52.8149 H   0  0  0  0  0  0  0  0  0  0  0  0
   58.5773   28.9634   53.6072 H   0  0  0  0  0  0  0  0  0  0  0  0
   58.9196   32.0417   50.6443 H   0  0  0  0  0  0  0  0  0  0  0  0
   57.7842   31.1609   48.6132 H   0  0  0  0  0  0  0  0  0  0  0  0
   58.9675   27.1609   47.4885 H   0  0  0  0  0  0  0  0  0  0  0  0
   57.8346   26.2491   45.4670 H   0  0  0  0  0  0  0  0  0  0  0  0
   56.9222   27.7939   43.7361 H   0  0  0  0  0  0  0  0  0  0  0  0
   56.5417   33.7029   44.4778 H   0  0  0  0  0  0  0  0  0  0  0  0
   56.3445   32.2718   45.5586 H   0  0  0  0  0  0  0  0  0  0  0  0
   58.9988   32.3357   45.5866 H   0  0  0  0  0  0  0  0  0  0  0  0
   57.2860   34.3040   47.1778 H   0  0  0  0  0  0  0  0  0  0  0  0
   57.5755   32.5581   47.5593 H   0  0  0  0  0  0  0  0  0  0  0  0
   58.9947   34.4250   48.7715 H   0  0  0  0  0  0  0  0  0  0  0  0
   59.7827   32.8954   48.1422 H   0  0  0  0  0  0  0  0  0  0  0  0
   61.1187   32.9273   46.2004 H   0  0  0  0  0  0  0  0  0  0  0  0
   62.0457   34.4536   45.9802 H   0  0  0  0  0  0  0  0  0  0  0  0
   63.3370   31.9127   46.8900 H   0  0  0  0  0  0  0  0  0  0  0  0
   64.7229   31.3395   48.8859 H   0  0  0  0  0  0  0  0  0  0  0  0
   64.4798   32.6495   50.9968 H   0  0  0  0  0  0  0  0  0  0  0  0
   62.8294   34.5186   51.1273 H   0  0  0  0  0  0  0  0  0  0  0  0
   61.4314   35.0913   49.1401 H   0  0  0  0  0  0  0  0  0  0  0  0
   58.8716   36.0432   46.3617 H   0  0  0  0  0  0  0  0  0  0  0  0
   60.4333   35.9109   45.4410 H   0  0  0  0  0  0  0  0  0  0  0  0
   58.2167   34.9630   44.3925 H   0  0  0  0  0  0  0  0  0  0  0  0
   59.7743   34.0193   44.3013 H   0  0  0  0  0  0  0  0  0  0  0  0
   58.2630   31.1927   46.0589 H   0  0  0  0  0  0  0  0  0  0  0  0
   61.1485   28.5316   47.8797 H   0  0  0  0  0  0  0  0  0  0  0  0
   62.2722   29.4014   49.9244 H   0  0  0  0  0  0  0  0  0  0  0  0
   58.1037   33.1657   52.6970 H   0  0  0  0  0  0  0  0  0  0  0  0
   55.7577   32.7474   51.9767 H   0  0  0  0  0  0  0  0  0  0  0  0
  1  2  1  0
  2  3  2  0
  2  4  1  0
  4  5  2  0
  5  6  1  0
  6  7  2  0
  7  8  1  0
  8  9  1  0
  9 10  2  0
  9 11  1  0
 11 12  1  0
 12 13  2  0
 13 14  1  0
 14 15  2  0
 15 16  1  0
 16 17  2  0
 17 18  1  0
 18 19  2  0
 19 20  1  0
 20 21  1  0
 21 22  2  0
 21 23  1  0
 23 24  1  0
 24 25  1  0
 25 26  1  0
 26 27  1  0
 27 28  1  0
 28 29  1  0
 29 30  1  0
 30 31  2  0
 31 32  1  0
 32 33  2  0
 33 34  1  0
 34 35  2  0
 28 36  1  0
 36 37  1  0
 20 38  2  0
 15 39  1  0
 39 40  2  0
  7 41  1  0
 41 42  2  0
 42  4  1  0
 40 12  1  0
 38 16  1  0
 37 25  1  0
 35 30  1  0
  1 43  1  0
  1 44  1  0
  5 45  1  0
  6 46  1  0
 13 47  1  0
 14 48  1  0
 17 49  1  0
 18 50  1  0
 19 51  1  0
 24 52  1  0
 24 53  1  0
 25 54  1  0
 26 55  1  0
 26 56  1  0
 27 57  1  0
 27 58  1  0
 29 59  1  0
 29 60  1  0
 31 61  1  0
 32 62  1  0
 33 63  1  0
 34 64  1  0
 35 65  1  0
 36 66  1  0
 36 67  1  0
 37 68  1  0
 37 69  1  0
 38 70  1  0
 39 71  1  0
 40 72  1  0
 41 73  1  0
 42 74  1  0
M  CHG  3   8  -1  11  -1  23  -1
M  END
>  <UniqueID>  (53) 
50

>  <SMILES>  (53) 
NC(=O)c1ccc([N-]C(=O)[N-]c2ccc(-c3cccc(C(=O)[N-]CC4CCN(Cc5ccccc5)CC4)c3)cc2)cc1

>  <Energy>  (53) 
105.87354883797929

>  <Genealogy>  (53) 
NC(=O)c1ccc([N-]C(=O)[N-]c2ccc(-c3cccc(C(=O)[N-]CC4CCN(Cc5ccccc5)CC4)c3)cc2)cc1 (protonated)
NC(=O)c1ccc([N-]C(=O)[N-]c2ccc(-c3cccc(C(=O)[N-]CC4CCN(Cc5ccccc5)CC4)c3)cc2)cc1 (3D coordinates assigned)
NC(=O)c1ccc([N-]C(=O)[N-]c2ccc(-c3cccc(C(=O)[N-]CC4CCN(Cc5ccccc5)CC4)c3)cc2)cc1 (nonaromatic ring conformer: 105.87354883797929 kcal/mol)

>  <smiles>  (53) 
NC(=O)c1ccc(NC(=O)Nc2ccc(-c3cccc(C(=O)NCC4CCN(Cc5ccccc5)CC4)c3)cc2)cc1

>  <score_type>  (53) 
oracle

>  <origin>  (53) 
adg

>  <m_score__min__energy>  (53) 
-13.42

>  <m_primary>  (53) 
energy

$$$$
53:0
     RDKit          3D

 70 73  0  0  0  0  0  0  0  0999 V2000
   57.3910   32.6420   51.9170 C   0  0  0  0  0  0  0  0  0  0  0  0
   56.8330   30.9360   52.1800 S   0  0  0  0  0  0  0  0  0  0  0  0
   58.3280   30.1800   51.5340 C   0  0  0  0  0  0  0  0  0  0  0  0
   58.9100   29.0960   52.2000 C   0  0  0  0  0  0  0  0  0  0  0  0
   60.0000   28.4270   51.6290 C   0  0  0  0  0  0  0  0  0  0  0  0
   60.4980   28.8320   50.3870 C   0  0  0  0  0  0  0  0  0  0  0  0
   59.9290   29.9260   49.7260 C   0  0  0  0  0  0  0  0  0  0  0  0
   60.3660   30.2820   48.4090 N   0  0  0  0  0  0  0  0  0  0  0  0
   60.0950   29.6610   47.2360 C   0  0  0  0  0  0  0  0  0  0  0  0
   59.0890   28.5460   47.0520 C   0  0  2  0  0  0  0  0  0  0  0  0
   59.4950   27.5640   45.9200 C   0  0  0  0  0  0  0  0  0  0  0  0
   58.5440   26.3960   45.7560 C   0  0  0  0  0  0  0  0  0  0  0  0
   58.1340   25.6400   46.8690 C   0  0  0  0  0  0  0  0  0  0  0  0
   57.2700   24.5530   46.7070 C   0  0  0  0  0  0  0  0  0  0  0  0
   56.7900   24.2220   45.4400 C   0  0  0  0  0  0  0  0  0  0  0  0
   57.1660   24.9820   44.3310 C   0  0  0  0  0  0  0  0  0  0  0  0
   58.0340   26.0670   44.4870 C   0  0  0  0  0  0  0  0  0  0  0  0
   57.7740   29.1250   46.7710 N   0  0  0  0  0  0  0  0  0  0  0  0
   57.0280   29.1570   45.5400 C   0  0  0  0  0  0  0  0  0  0  0  0
   56.1040   28.3090   45.4120 O   0  0  0  0  0  0  0  0  0  0  0  0
   57.3560   30.0820   44.3600 C   0  0  0  0  0  0  0  0  0  0  0  0
   56.6910   29.5940   43.0570 C   0  0  0  0  0  0  0  0  0  0  0  0
   58.8870   30.1090   44.1230 C   0  0  0  0  0  0  0  0  0  0  0  0
   56.9160   31.5190   44.6820 C   0  0  0  0  0  0  0  0  0  0  0  0
   60.8900   30.1300   46.2510 N   0  0  0  0  0  0  0  0  0  0  0  0
   61.6420   31.0770   46.7880 N   0  0  0  0  0  0  0  0  0  0  0  0
   61.3270   31.1730   48.0890 C   0  0  0  0  0  0  0  0  0  0  0  0
   61.9410   32.1840   49.0240 C   0  0  0  0  0  0  0  0  0  0  0  0
   61.2330   33.5500   49.0260 C   0  0  0  0  0  0  0  0  0  0  0  0
   60.1860   33.7160   47.9480 C   0  0  0  0  0  0  0  0  0  0  0  0
   60.5120   34.4050   46.7660 C   0  0  0  0  0  0  0  0  0  0  0  0
   59.5460   34.6120   45.7750 C   0  0  0  0  0  0  0  0  0  0  0  0
   58.2420   34.1490   45.9650 C   0  0  0  0  0  0  0  0  0  0  0  0
   57.8980   33.4830   47.1470 C   0  0  0  0  0  0  0  0  0  0  0  0
   58.8610   33.2780   48.1410 C   0  0  0  0  0  0  0  0  0  0  0  0
   58.8620   30.6170   50.3150 C   0  0  0  0  0  0  0  0  0  0  0  0
   57.5505   33.1297   52.8900 H   0  0  0  0  0  0  0  0  0  0  0  0
   58.3341   32.6362   51.3508 H   0  0  0  0  0  0  0  0  0  0  0  0
   56.6268   33.1946   51.3508 H   0  0  0  0  0  0  0  0  0  0  0  0
   58.5116   28.7692   53.1719 H   0  0  0  0  0  0  0  0  0  0  0  0
   60.4647   27.5821   52.1583 H   0  0  0  0  0  0  0  0  0  0  0  0
   61.3383   28.2898   49.9289 H   0  0  0  0  0  0  0  0  0  0  0  0
   59.0561   27.9630   47.9842 H   0  0  0  0  0  0  0  0  0  0  0  0
   59.5273   28.1212   44.9721 H   0  0  0  0  0  0  0  0  0  0  0  0
   60.4743   27.1448   46.1943 H   0  0  0  0  0  0  0  0  0  0  0  0
   58.4955   25.9058   47.8733 H   0  0  0  0  0  0  0  0  0  0  0  0
   56.9680   23.9572   47.5810 H   0  0  0  0  0  0  0  0  0  0  0  0
   56.1153   23.3623   45.3146 H   0  0  0  0  0  0  0  0  0  0  0  0
   56.7790   24.7270   43.3334 H   0  0  0  0  0  0  0  0  0  0  0  0
   58.3201   26.6677   43.6110 H   0  0  0  0  0  0  0  0  0  0  0  0
   55.8264   28.9595   43.3019 H   0  0  0  0  0  0  0  0  0  0  0  0
   56.3547   30.4613   42.4698 H   0  0  0  0  0  0  0  0  0  0  0  0
   57.4175   29.0131   42.4698 H   0  0  0  0  0  0  0  0  0  0  0  0
   59.4079   30.1182   45.0918 H   0  0  0  0  0  0  0  0  0  0  0  0
   59.1858   29.2160   43.5545 H   0  0  0  0  0  0  0  0  0  0  0  0
   59.1542   31.0120   43.5545 H   0  0  0  0  0  0  0  0  0  0  0  0
   56.8746   31.6541   45.7729 H   0  0  0  0  0  0  0  0  0  0  0  0
   57.6380   32.2287   44.2518 H   0  0  0  0  0  0  0  0  0  0  0  0
   55.9204   31.7027   44.2518 H   0  0  0  0  0  0  0  0  0  0  0  0
   62.3470   31.6420   46.2640 H   0  0  0  0  0  0  0  0  0  0  0  0
   61.9066   31.7757   50.0449 H   0  0  0  0  0  0  0  0  0  0  0  0
   62.9678   32.3598   48.6707 H   0  0  0  0  0  0  0  0  0  0  0  0
   60.7443   33.6821   50.0026 H   0  0  0  0  0  0  0  0  0  0  0  0
   62.0086   34.3042   48.8271 H   0  0  0  0  0  0  0  0  0  0  0  0
   61.5342   34.7841   46.6194 H   0  0  0  0  0  0  0  0  0  0  0  0
   59.8134   35.1389   44.8472 H   0  0  0  0  0  0  0  0  0  0  0  0
   57.4838   34.3081   45.1841 H   0  0  0  0  0  0  0  0  0  0  0  0
   56.8700   33.1206   47.2945 H   0  0  0  0  0  0  0  0  0  0  0  0
   58.5823   32.7726   49.0774 H   0  0  0  0  0  0  0  0  0  0  0  0
   58.4426   31.5048   49.8190 H   0  0  0  0  0  0  0  0  0  0  0  0
  1  2  1  0
  2  3  1  0
  3  4  2  0
  4  5  1  0
  5  6  2  0
  6  7  1  0
  7  8  1  0
  8  9  1  0
  9 10  1  0
 10 11  1  0
 11 12  1  0
 12 13  2  0
 13 14  1  0
 14 15  2  0
 15 16  1  0
 16 17  2  0
 10 18  1  0
 18 19  1  0
 19 20  2  0
 19 21  1  0
 21 22  1  0
 21 23  1  0
 21 24  1  0
  9 25  2  0
 25 26  1  0
 26 27  2  0
 27 28  1  0
 28 29  1  0
 29 30  1  0
 30 31  2  0
 31 32  1  0
 32 33  2  0
 33 34  1  0
 34 35  2  0
  7 36  2  0
 36  3  1  0
 27  8  1  0
 35 30  1  0
 17 12  1  0
  1 37  1  0
  1 38  1  0
  1 39  1  0
  4 40  1  0
  5 41  1  0
  6 42  1  0
 10 43  1  1
 11 44  1  0
 11 45  1  0
 13 46  1  0
 14 47  1  0
 15 48  1  0
 16 49  1  0
 17 50  1  0
 22 51  1  0
 22 52  1  0
 22 53  1  0
 23 54  1  0
 23 55  1  0
 23 56  1  0
 24 57  1  0
 24 58  1  0
 24 59  1  0
 26 60  1  0
 28 61  1  0
 28 62  1  0
 29 63  1  0
 29 64  1  0
 31 65  1  0
 32 66  1  0
 33 67  1  0
 34 68  1  0
 35 69  1  0
 36 70  1  0
M  CHG  2  18  -1  26   1
M  END
>  <UniqueID>  (54) 
51

>  <SMILES>  (54) 
CSc1cccc(-n2c([C@H](Cc3ccccc3)[N-]C(=O)C(C)(C)C)n[nH+]c2CCc2ccccc2)c1

>  <Energy>  (54) 
109.59268144138758

>  <Genealogy>  (54) 
CSc1cccc(-n2c(C(Cc3ccccc3)[N-]C(=O)C(C)(C)C)n[nH+]c2CCc2ccccc2)c1 (protonated)
CSc1cccc(-n2c([C@H](Cc3ccccc3)[N-]C(=O)C(C)(C)C)n[nH+]c2CCc2ccccc2)c1 (chirality)
CSc1cccc(-n2c([C@H](Cc3ccccc3)[N-]C(=O)C(C)(C)C)n[nH+]c2CCc2ccccc2)c1 (3D coordinates assigned)
CSc1cccc(-n2c([C@H](Cc3ccccc3)[N-]C(=O)C(C)(C)C)n[nH+]c2CCc2ccccc2)c1 (optimized conformer: 109.59268144138758 kcal/mol)

>  <smiles>  (54) 
CSc1cccc(-n2c(CCc3ccccc3)nnc2C(Cc2ccccc2)NC(=O)C(C)(C)C)c1

>  <score_type>  (54) 
oracle

>  <origin>  (54) 
adg

>  <m_score__min__energy>  (54) 
-9.1400000000000006

>  <m_primary>  (54) 
energy

$$$$
54:0
     RDKit          3D

 56 59  0  0  0  0  0  0  0  0999 V2000
   57.1860   34.0730   45.0980 C   0  0  0  0  0  0  0  0  0  0  0  0
   57.6360   32.8150   45.2380 C   0  0  0  0  0  0  0  0  0  0  0  0
   56.7440   31.8280   44.9750 N   0  0  0  0  0  0  0  0  0  0  0  0
   57.0390   30.5160   45.1010 C   0  0  0  0  0  0  0  0  0  0  0  0
   56.1380   29.6680   44.8600 O   0  0  0  0  0  0  0  0  0  0  0  0
   58.2920   30.1240   45.4790 N   0  0  0  0  0  0  0  0  0  0  0  0
   58.6040   28.6890   45.6500 C   0  0  0  0  0  0  0  0  0  0  0  0
   59.2490   28.4530   46.9910 C   0  0  0  0  0  0  0  0  0  0  0  0
   60.1510   27.3900   47.1650 C   0  0  0  0  0  0  0  0  0  0  0  0
   60.7150   27.1400   48.4200 C   0  0  0  0  0  0  0  0  0  0  0  0
   60.3760   27.9450   49.5120 C   0  0  0  0  0  0  0  0  0  0  0  0
   59.4760   29.0010   49.3500 C   0  0  0  0  0  0  0  0  0  0  0  0
   58.9120   29.2550   48.0950 C   0  0  0  0  0  0  0  0  0  0  0  0
   59.2550   31.0700   45.7340 C   0  0  0  0  0  0  0  0  0  0  0  0
   60.4350   30.6870   45.9720 O   0  0  0  0  0  0  0  0  0  0  0  0
   58.9500   32.4640   45.6780 C   0  0  0  0  0  0  0  0  0  0  0  0
   59.8770   33.4160   46.0000 C   0  0  0  0  0  0  0  0  0  0  0  0
   60.8990   33.3030   47.0630 C   0  0  0  0  0  0  0  0  0  0  0  0
   62.2510   33.4880   46.7470 C   0  0  0  0  0  0  0  0  0  0  0  0
   63.2260   33.4220   47.7480 C   0  0  0  0  0  0  0  0  0  0  0  0
   62.8580   33.1980   49.0860 C   0  0  0  0  0  0  0  0  0  0  0  0
   63.8640   33.1100   50.1140 N   0  0  0  0  0  0  0  0  0  0  0  0
   64.7680   31.9560   50.1900 C   0  0  0  0  0  0  0  0  0  0  0  0
   66.2360   32.4100   50.1210 C   0  0  0  0  0  0  0  0  0  0  0  0
   66.4830   33.7910   50.7850 C   0  0  0  0  0  0  0  0  0  0  0  0
   67.8620   33.8430   51.4520 C   0  0  0  0  0  0  0  0  0  0  0  0
   65.3760   34.1480   51.7940 C   0  0  0  0  0  0  0  0  0  0  0  0
   64.0130   34.2040   51.0880 C   0  0  0  0  0  0  0  0  0  0  0  0
   61.4990   33.0390   49.4030 C   0  0  0  0  0  0  0  0  0  0  0  0
   60.5250   33.1050   48.4020 C   0  0  0  0  0  0  0  0  0  0  0  0
   57.8567   34.9222   45.2953 H   0  0  0  0  0  0  0  0  0  0  0  0
   56.1468   34.2539   44.7860 H   0  0  0  0  0  0  0  0  0  0  0  0
   57.6741   28.1049   45.5862 H   0  0  0  0  0  0  0  0  0  0  0  0
   59.2993   28.3759   44.8572 H   0  0  0  0  0  0  0  0  0  0  0  0
   60.4150   26.7509   46.3095 H   0  0  0  0  0  0  0  0  0  0  0  0
   61.4254   26.3100   48.5482 H   0  0  0  0  0  0  0  0  0  0  0  0
   60.8184   27.7465   50.4994 H   0  0  0  0  0  0  0  0  0  0  0  0
   59.2105   29.6335   50.2099 H   0  0  0  0  0  0  0  0  0  0  0  0
   58.2018   30.0859   47.9718 H   0  0  0  0  0  0  0  0  0  0  0  0
   59.8613   34.3485   45.4168 H   0  0  0  0  0  0  0  0  0  0  0  0
   62.5476   33.6862   45.7064 H   0  0  0  0  0  0  0  0  0  0  0  0
   64.2872   33.5462   47.4864 H   0  0  0  0  0  0  0  0  0  0  0  0
   64.5981   31.4261   51.1389 H   0  0  0  0  0  0  0  0  0  0  0  0
   64.5634   31.2898   49.3389 H   0  0  0  0  0  0  0  0  0  0  0  0
   66.8578   31.6604   50.6324 H   0  0  0  0  0  0  0  0  0  0  0  0
   66.4970   32.5086   49.0570 H   0  0  0  0  0  0  0  0  0  0  0  0
   66.4569   34.5449   49.9844 H   0  0  0  0  0  0  0  0  0  0  0  0
   67.7409   33.8384   52.5453 H   0  0  0  0  0  0  0  0  0  0  0  0
   68.4512   32.9664   51.1447 H   0  0  0  0  0  0  0  0  0  0  0  0
   68.3835   34.7614   51.1447 H   0  0  0  0  0  0  0  0  0  0  0  0
   65.3446   33.3838   52.5845 H   0  0  0  0  0  0  0  0  0  0  0  0
   65.5939   35.1330   52.2325 H   0  0  0  0  0  0  0  0  0  0  0  0
   63.2163   34.1221   51.8421 H   0  0  0  0  0  0  0  0  0  0  0  0
   63.9437   35.1593   50.5470 H   0  0  0  0  0  0  0  0  0  0  0  0
   61.1988   32.8613   50.4462 H   0  0  0  0  0  0  0  0  0  0  0  0
   59.4618   33.0014   48.6644 H   0  0  0  0  0  0  0  0  0  0  0  0
  1  2  2  0
  2  3  1  0
  3  4  1  0
  4  5  2  0
  4  6  1  0
  6  7  1  0
  7  8  1  0
  8  9  2  0
  9 10  1  0
 10 11  2  0
 11 12  1  0
 12 13  2  0
  6 14  1  0
 14 15  2  0
 14 16  1  0
 16 17  2  3
 17 18  1  0
 18 19  2  0
 19 20  1  0
 20 21  2  0
 21 22  1  0
 22 23  1  0
 23 24  1  0
 24 25  1  0
 25 26  1  0
 25 27  1  0
 27 28  1  0
 21 29  1  0
 29 30  2  0
 16  2  1  0
 30 18  1  0
 13  8  1  0
 28 22  1  0
  1 31  1  0
  1 32  1  0
  7 33  1  0
  7 34  1  0
  9 35  1  0
 10 36  1  0
 11 37  1  0
 12 38  1  0
 13 39  1  0
 17 40  1  0
 19 41  1  0
 20 42  1  0
 23 43  1  0
 23 44  1  0
 24 45  1  0
 24 46  1  0
 25 47  1  0
 26 48  1  0
 26 49  1  0
 26 50  1  0
 27 51  1  0
 27 52  1  0
 28 53  1  0
 28 54  1  0
 29 55  1  0
 30 56  1  0
M  CHG  1   3  -1
M  END
>  <UniqueID>  (55) 
52

>  <SMILES>  (55) 
C=c1[n-]c(=O)n(Cc2ccccc2)c(=O)c1=Cc1ccc(N2CCC(C)CC2)cc1

>  <Energy>  (55) 
87.31738794679673

>  <Genealogy>  (55) 
C=c1[n-]c(=O)n(Cc2ccccc2)c(=O)c1=Cc1ccc(N2CCC(C)CC2)cc1 (protonated)
C=c1[n-]c(=O)n(Cc2ccccc2)c(=O)c1=Cc1ccc(N2CCC(C)CC2)cc1 (3D coordinates assigned)
C=c1[n-]c(=O)n(Cc2ccccc2)c(=O)c1=Cc1ccc(N2CCC(C)CC2)cc1 (nonaromatic ring conformer: 87.31738794679673 kcal/mol)

>  <smiles>  (55) 
C=c1[nH]c(=O)n(Cc2ccccc2)c(=O)c1=Cc1ccc(N2CCC(C)CC2)cc1

>  <score_type>  (55) 
oracle

>  <origin>  (55) 
adg

>  <m_score__min__energy>  (55) 
-10.34

>  <m_primary>  (55) 
energy

$$$$
55:0
     RDKit          3D

 55 57  0  0  0  0  0  0  0  0999 V2000
   65.9850   32.5710   50.1080 C   0  0  0  0  0  0  0  0  0  0  0  0
   64.7640   33.4720   50.3420 C   0  0  0  0  0  0  0  0  0  0  0  0
   63.5910   33.1200   49.5130 N   0  0  0  0  0  0  0  0  0  0  0  0
   63.8270   33.2610   48.0670 C   0  0  0  0  0  0  0  0  0  0  0  0
   62.6820   32.5930   47.3060 C   0  0  0  0  0  0  0  0  0  0  0  0
   61.3790   33.0750   47.7900 N   0  0  0  0  0  0  0  0  0  0  0  0
   60.1830   32.7430   47.0510 C   0  0  0  0  0  0  0  0  0  0  0  0
   59.7490   33.5600   45.9910 C   0  0  0  0  0  0  0  0  0  0  0  0
   58.5900   33.2390   45.2780 C   0  0  0  0  0  0  0  0  0  0  0  0
   57.8560   32.0890   45.6010 C   0  0  0  0  0  0  0  0  0  0  0  0
   56.6460   31.7610   44.9080 N   0  0  0  0  0  0  0  0  0  0  0  0
   56.5420   30.9180   43.7560 C   0  0  0  0  0  0  0  0  0  0  0  0
   57.1040   31.2820   42.6880 O   0  0  0  0  0  0  0  0  0  0  0  0
   55.6620   29.6930   43.7540 C   0  0  0  0  0  0  0  0  0  0  0  0
   55.9330   28.8530   44.8770 O   0  0  0  0  0  0  0  0  0  0  0  0
   57.1530   28.1980   45.1370 C   0  0  0  0  0  0  0  0  0  0  0  0
   58.3900   28.8020   44.8390 C   0  0  0  0  0  0  0  0  0  0  0  0
   59.5840   28.1300   45.0910 C   0  0  0  0  0  0  0  0  0  0  0  0
   59.5660   26.8460   45.6300 C   0  0  0  0  0  0  0  0  0  0  0  0
   58.3490   26.2140   45.9260 C   0  0  0  0  0  0  0  0  0  0  0  0
   58.3730   24.8190   46.4980 C   0  0  0  0  0  0  0  0  0  0  0  0
   57.1290   26.9040   45.7060 C   0  0  0  0  0  0  0  0  0  0  0  0
   55.8070   26.2390   46.0100 C   0  0  0  0  0  0  0  0  0  0  0  0
   58.2610   31.2970   46.6790 C   0  0  0  0  0  0  0  0  0  0  0  0
   59.4200   31.6120   47.3930 C   0  0  0  0  0  0  0  0  0  0  0  0
   61.3300   34.0710   48.8690 C   0  0  0  0  0  0  0  0  0  0  0  0
   62.3250   33.7270   49.9950 C   0  0  0  0  0  0  0  0  0  0  0  0
   66.4038   32.2620   51.0771 H   0  0  0  0  0  0  0  0  0  0  0  0
   65.6797   31.6801   49.5396 H   0  0  0  0  0  0  0  0  0  0  0  0
   66.7463   33.1254   49.5396 H   0  0  0  0  0  0  0  0  0  0  0  0
   64.4752   33.3957   51.4007 H   0  0  0  0  0  0  0  0  0  0  0  0
   65.0611   34.4922   50.0574 H   0  0  0  0  0  0  0  0  0  0  0  0
   63.8715   34.3280   47.8033 H   0  0  0  0  0  0  0  0  0  0  0  0
   64.7799   32.7816   47.7985 H   0  0  0  0  0  0  0  0  0  0  0  0
   62.7771   32.8257   46.2351 H   0  0  0  0  0  0  0  0  0  0  0  0
   62.7378   31.5066   47.4692 H   0  0  0  0  0  0  0  0  0  0  0  0
   60.3254   34.4573   45.7214 H   0  0  0  0  0  0  0  0  0  0  0  0
   58.2524   33.8919   44.4596 H   0  0  0  0  0  0  0  0  0  0  0  0
   54.6090   30.0091   43.7897 H   0  0  0  0  0  0  0  0  0  0  0  0
   55.8679   29.1212   42.8371 H   0  0  0  0  0  0  0  0  0  0  0  0
   58.4135   29.8120   44.4040 H   0  0  0  0  0  0  0  0  0  0  0  0
   60.5445   28.6153   44.8634 H   0  0  0  0  0  0  0  0  0  0  0  0
   60.5138   26.3231   45.8253 H   0  0  0  0  0  0  0  0  0  0  0  0
   58.3721   24.8731   47.5967 H   0  0  0  0  0  0  0  0  0  0  0  0
   57.4842   24.2677   46.1573 H   0  0  0  0  0  0  0  0  0  0  0  0
   59.2802   24.2986   46.1573 H   0  0  0  0  0  0  0  0  0  0  0  0
   55.6726   26.1714   47.0997 H   0  0  0  0  0  0  0  0  0  0  0  0
   54.9893   26.8331   45.5758 H   0  0  0  0  0  0  0  0  0  0  0  0
   55.7965   25.2284   45.5758 H   0  0  0  0  0  0  0  0  0  0  0  0
   57.6633   30.4197   46.9673 H   0  0  0  0  0  0  0  0  0  0  0  0
   59.7379   30.9710   48.2284 H   0  0  0  0  0  0  0  0  0  0  0  0
   61.5833   35.0588   48.4565 H   0  0  0  0  0  0  0  0  0  0  0  0
   60.3147   34.0744   49.2922 H   0  0  0  0  0  0  0  0  0  0  0  0
   62.5688   34.6528   50.5368 H   0  0  0  0  0  0  0  0  0  0  0  0
   61.8358   32.9792   50.6365 H   0  0  0  0  0  0  0  0  0  0  0  0
  1  2  1  0
  2  3  1  0
  3  4  1  0
  4  5  1  0
  5  6  1  0
  6  7  1  0
  7  8  2  0
  8  9  1  0
  9 10  2  0
 10 11  1  0
 11 12  1  0
 12 13  2  0
 12 14  1  0
 14 15  1  0
 15 16  1  0
 16 17  2  0
 17 18  1  0
 18 19  2  0
 19 20  1  0
 20 21  1  0
 20 22  2  0
 22 23  1  0
 10 24  1  0
 24 25  2  0
  6 26  1  0
 26 27  1  0
 27  3  1  0
 25  7  1  0
 22 16  1  0
  1 28  1  0
  1 29  1  0
  1 30  1  0
  2 31  1  0
  2 32  1  0
  4 33  1  0
  4 34  1  0
  5 35  1  0
  5 36  1  0
  8 37  1  0
  9 38  1  0
 14 39  1  0
 14 40  1  0
 17 41  1  0
 18 42  1  0
 19 43  1  0
 21 44  1  0
 21 45  1  0
 21 46  1  0
 23 47  1  0
 23 48  1  0
 23 49  1  0
 24 50  1  0
 25 51  1  0
 26 52  1  0
 26 53  1  0
 27 54  1  0
 27 55  1  0
M  CHG  1  11  -1
M  END
>  <UniqueID>  (56) 
53

>  <SMILES>  (56) 
CCN1CCN(c2ccc([N-]C(=O)COc3cccc(C)c3C)cc2)CC1

>  <Energy>  (56) 
73.59310646577931

>  <Genealogy>  (56) 
CCN1CCN(c2ccc([N-]C(=O)COc3cccc(C)c3C)cc2)CC1 (protonated)
CCN1CCN(c2ccc([N-]C(=O)COc3cccc(C)c3C)cc2)CC1 (3D coordinates assigned)
CCN1CCN(c2ccc([N-]C(=O)COc3cccc(C)c3C)cc2)CC1 (nonaromatic ring conformer: 73.59310646577931 kcal/mol)

>  <smiles>  (56) 
CCN1CCN(c2ccc(NC(=O)COc3cccc(C)c3C)cc2)CC1

>  <score_type>  (56) 
oracle

>  <origin>  (56) 
adg

>  <m_score__min__energy>  (56) 
-9.6199999999999992

>  <m_primary>  (56) 
energy

$$$$
56:0
     RDKit          3D

 63 67  0  0  0  0  0  0  0  0999 V2000
   53.5370   30.1910   51.5410 C   0  0  0  0  0  0  0  0  0  0  0  0
   54.6220   30.8770   51.9000 C   0  0  0  0  0  0  0  0  0  0  0  0
   55.8890   30.2190   52.2890 C   0  0  0  0  0  0  0  0  0  0  0  0
   55.8720   28.9730   52.4920 O   0  0  0  0  0  0  0  0  0  0  0  0
   57.1350   30.9450   52.3960 N   0  0  0  0  0  0  0  0  0  0  0  0
   57.3980   32.0850   51.5010 C   0  0  0  0  0  0  0  0  0  0  0  0
   58.9000   32.3520   51.3370 C   0  0  0  0  0  0  0  0  0  0  0  0
   59.6330   31.0830   51.2160 N   0  0  0  0  0  0  0  0  0  0  0  0
   60.7320   30.9460   50.2930 C   0  0  0  0  0  0  0  0  0  0  0  0
   61.8110   30.4380   50.6990 O   0  0  0  0  0  0  0  0  0  0  0  0
   60.5960   31.3280   48.8640 C   0  0  0  0  0  0  0  0  0  0  0  0
   59.4290   31.2230   48.1290 C   0  0  0  0  0  0  0  0  0  0  0  0
   59.7420   31.6050   46.8380 C   0  0  0  0  0  0  0  0  0  0  0  0
   58.8080   31.6460   45.6970 C   0  0  0  0  0  0  0  0  0  0  0  0
   58.3410   30.5860   45.0240 C   0  0  0  0  0  0  0  0  0  0  0  0
   58.4880   29.1780   45.4320 C   0  0  0  0  0  0  0  0  0  0  0  0
   59.7580   28.6030   45.5690 C   0  0  0  0  0  0  0  0  0  0  0  0
   59.8840   27.2870   46.0260 C   0  0  0  0  0  0  0  0  0  0  0  0
   58.7450   26.5380   46.3380 C   0  0  0  0  0  0  0  0  0  0  0  0
   57.4670   27.0960   46.1680 C   0  0  0  0  0  0  0  0  0  0  0  0
   56.2580   26.2790   46.3850 C   0  0  0  0  0  0  0  0  0  0  0  0
   55.1500   26.6970   45.9590 O   0  0  0  0  0  0  0  0  0  0  0  0
   56.3030   25.0260   47.0750 N   0  0  0  0  0  0  0  0  0  0  0  0
   56.2670   23.7350   46.4000 C   0  0  0  0  0  0  0  0  0  0  0  0
   56.2080   23.8450   44.8870 C   0  0  0  0  0  0  0  0  0  0  0  0
   57.5130   23.4770   45.5750 C   0  0  0  0  0  0  0  0  0  0  0  0
   57.3450   28.4170   45.7170 C   0  0  0  0  0  0  0  0  0  0  0  0
   57.4410   31.0810   43.9840 C   0  0  0  0  0  0  0  0  0  0  0  0
   56.7930   30.3630   43.1760 O   0  0  0  0  0  0  0  0  0  0  0  0
   57.3610   32.4960   44.0180 N   0  0  0  0  0  0  0  0  0  0  0  0
   58.2160   32.8430   45.1000 C   0  0  0  0  0  0  0  0  0  0  0  0
   58.4210   34.0250   45.4750 O   0  0  0  0  0  0  0  0  0  0  0  0
   61.0890   31.9020   46.8190 C   0  0  0  0  0  0  0  0  0  0  0  0
   61.6050   31.7460   48.0570 N   0  0  0  0  0  0  0  0  0  0  0  0
   63.0070   31.9540   48.4110 C   0  0  0  0  0  0  0  0  0  0  0  0
   59.3930   30.0090   52.1940 C   0  0  0  0  0  0  0  0  0  0  0  0
   58.2570   30.3720   53.1560 C   0  0  0  0  0  0  0  0  0  0  0  0
   52.6171   30.7245   51.2597 H   0  0  0  0  0  0  0  0  0  0  0  0
   53.5615   29.0914   51.5260 H   0  0  0  0  0  0  0  0  0  0  0  0
   54.5736   31.9759   51.9074 H   0  0  0  0  0  0  0  0  0  0  0  0
   56.9659   31.8680   50.5130 H   0  0  0  0  0  0  0  0  0  0  0  0
   56.9404   32.9802   51.9473 H   0  0  0  0  0  0  0  0  0  0  0  0
   59.0649   32.9542   50.4314 H   0  0  0  0  0  0  0  0  0  0  0  0
   59.2660   32.8941   52.2214 H   0  0  0  0  0  0  0  0  0  0  0  0
   58.4451   30.8991   48.4992 H   0  0  0  0  0  0  0  0  0  0  0  0
   60.6560   29.1863   45.3172 H   0  0  0  0  0  0  0  0  0  0  0  0
   60.8824   26.8397   46.1404 H   0  0  0  0  0  0  0  0  0  0  0  0
   58.8499   25.5107   46.7170 H   0  0  0  0  0  0  0  0  0  0  0  0
   55.6977   23.1793   47.1596 H   0  0  0  0  0  0  0  0  0  0  0  0
   55.6628   23.0903   44.3012 H   0  0  0  0  0  0  0  0  0  0  0  0
   55.8959   24.6228   44.1745 H   0  0  0  0  0  0  0  0  0  0  0  0
   57.9125   22.4559   45.4866 H   0  0  0  0  0  0  0  0  0  0  0  0
   58.5371   23.8784   45.5663 H   0  0  0  0  0  0  0  0  0  0  0  0
   56.3467   28.8598   45.5857 H   0  0  0  0  0  0  0  0  0  0  0  0
   56.7870   33.1280   43.4190 H   0  0  0  0  0  0  0  0  0  0  0  0
   61.6561   32.2177   45.9309 H   0  0  0  0  0  0  0  0  0  0  0  0
   63.1103   31.9693   49.5060 H   0  0  0  0  0  0  0  0  0  0  0  0
   63.6150   31.1362   47.9968 H   0  0  0  0  0  0  0  0  0  0  0  0
   63.3514   32.9131   47.9968 H   0  0  0  0  0  0  0  0  0  0  0  0
   59.1253   29.0879   51.6555 H   0  0  0  0  0  0  0  0  0  0  0  0
   60.3115   29.8647   52.7819 H   0  0  0  0  0  0  0  0  0  0  0  0
   57.9191   29.4672   53.6825 H   0  0  0  0  0  0  0  0  0  0  0  0
   58.6181   31.1090   53.8884 H   0  0  0  0  0  0  0  0  0  0  0  0
  1  2  2  0
  2  3  1  0
  3  4  2  0
  3  5  1  0
  5  6  1  0
  6  7  1  0
  7  8  1  0
  8  9  1  0
  9 10  2  0
  9 11  1  0
 11 12  2  0
 12 13  1  0
 13 14  1  0
 14 15  2  0
 15 16  1  0
 16 17  2  0
 17 18  1  0
 18 19  2  0
 19 20  1  0
 20 21  1  0
 21 22  2  0
 21 23  1  0
 23 24  1  0
 24 25  1  0
 25 26  1  0
 20 27  2  0
 15 28  1  0
 28 29  2  0
 28 30  1  0
 30 31  1  0
 31 32  2  0
 13 33  2  0
 33 34  1  0
 34 35  1  0
  8 36  1  0
 36 37  1  0
 37  5  1  0
 34 11  1  0
 31 14  1  0
 27 16  1  0
 26 24  1  0
  1 38  1  0
  1 39  1  0
  2 40  1  0
  6 41  1  0
  6 42  1  0
  7 43  1  0
  7 44  1  0
 12 45  1  0
 17 46  1  0
 18 47  1  0
 19 48  1  0
 24 49  1  0
 25 50  1  0
 25 51  1  0
 26 52  1  0
 26 53  1  0
 27 54  1  0
 30 55  1  0
 33 56  1  0
 35 57  1  0
 35 58  1  0
 35 59  1  0
 36 60  1  0
 36 61  1  0
 37 62  1  0
 37 63  1  0
M  CHG  1  23  -1
M  END
>  <UniqueID>  (57) 
54

>  <SMILES>  (57) 
C=CC(=O)N1CCN(C(=O)c2cc(C3=C(c4cccc(C(=O)[N-]C5CC5)c4)C(=O)NC3=O)cn2C)CC1

>  <Energy>  (57) 
400.29192965900745

>  <Genealogy>  (57) 
C=CC(=O)N1CCN(C(=O)c2cc(C3=C(c4cccc(C(=O)[N-]C5CC5)c4)C(=O)NC3=O)cn2C)CC1 (protonated)
C=CC(=O)N1CCN(C(=O)c2cc(C3=C(c4cccc(C(=O)[N-]C5CC5)c4)C(=O)NC3=O)cn2C)CC1 (3D coordinates assigned)
C=CC(=O)N1CCN(C(=O)c2cc(C3=C(c4cccc(C(=O)[N-]C5CC5)c4)C(=O)NC3=O)cn2C)CC1 (nonaromatic ring conformer: 400.29192965900745 kcal/mol)

>  <smiles>  (57) 
C=CC(=O)N1CCN(C(=O)c2cc(C3=C(c4cccc(C(=O)NC5CC5)c4)C(=O)NC3=O)cn2C)CC1

>  <score_type>  (57) 
oracle

>  <origin>  (57) 
adg

>  <m_score__min__energy>  (57) 
-11.93

>  <m_primary>  (57) 
energy

$$$$
57:0
     RDKit          3D

 52 55  0  0  0  0  0  0  0  0999 V2000
   63.7640   33.3710   47.0060 C   0  0  0  0  0  0  0  0  0  0  0  0
   62.7320   33.0060   47.7590 C   0  0  0  0  0  0  0  0  0  0  0  0
   62.0480   31.7990   47.6210 O   0  0  0  0  0  0  0  0  0  0  0  0
   61.0520   31.7790   48.5990 C   0  0  0  0  0  0  0  0  0  0  0  0
   60.1180   30.7650   48.8310 C   0  0  0  0  0  0  0  0  0  0  0  0
   60.0670   29.5390   47.9670 C   0  0  0  0  0  0  0  0  0  0  0  0
   58.8230   29.5450   47.1370 C   0  0  0  0  0  0  0  0  0  0  0  0
   58.1040   30.5810   47.0890 O   0  0  0  0  0  0  0  0  0  0  0  0
   58.4490   28.3680   46.4170 N   0  0  0  0  0  0  0  0  0  0  0  0
   57.8510   28.3810   45.0830 C   0  0  1  0  0  0  0  0  0  0  0  0
   56.4390   28.9380   45.1000 C   0  0  0  0  0  0  0  0  0  0  0  0
   56.3080   29.6800   43.7830 C   0  0  0  0  0  0  0  0  0  0  0  0
   57.6620   30.1040   43.3770 N   0  0  1  0  0  0  0  0  0  0  0  0
   57.8850   31.5730   43.4480 C   0  0  0  0  0  0  0  0  0  0  0  0
   57.1020   32.3430   44.5490 C   0  0  0  0  0  0  0  0  0  0  0  0
   57.9590   33.2650   45.3810 C   0  0  0  0  0  0  0  0  0  0  0  0
   57.7930   33.3270   46.7770 C   0  0  0  0  0  0  0  0  0  0  0  0
   58.5880   34.1840   47.5450 C   0  0  0  0  0  0  0  0  0  0  0  0
   59.5420   34.9980   46.9260 C   0  0  0  0  0  0  0  0  0  0  0  0
   59.6980   34.9610   45.5380 C   0  0  0  0  0  0  0  0  0  0  0  0
   58.9080   34.1030   44.7660 C   0  0  0  0  0  0  0  0  0  0  0  0
   58.6330   29.3020   44.1490 C   0  0  0  0  0  0  0  0  0  0  0  0
   59.1720   30.9650   49.8630 C   0  0  0  0  0  0  0  0  0  0  0  0
   59.1910   32.1460   50.6370 C   0  0  0  0  0  0  0  0  0  0  0  0
   58.0080   32.3730   51.9110 Cl  0  0  0  0  0  0  0  0  0  0  0  0
   60.1460   33.1460   50.3860 C   0  0  0  0  0  0  0  0  0  0  0  0
   61.0620   32.9310   49.3600 C   0  0  0  0  0  0  0  0  0  0  0  0
   62.1350   33.7670   48.8540 C   0  0  0  0  0  0  0  0  0  0  0  0
   62.4760   34.9040   49.2730 O   0  0  0  0  0  0  0  0  0  0  0  0
   64.2528   34.3417   47.1760 H   0  0  0  0  0  0  0  0  0  0  0  0
   64.1296   32.7025   46.2126 H   0  0  0  0  0  0  0  0  0  0  0  0
   60.9455   29.5238   47.3052 H   0  0  0  0  0  0  0  0  0  0  0  0
   60.0661   28.6462   48.6096 H   0  0  0  0  0  0  0  0  0  0  0  0
   57.8609   27.3348   44.7433 H   0  0  0  0  0  0  0  0  0  0  0  0
   55.7009   28.1249   45.1633 H   0  0  0  0  0  0  0  0  0  0  0  0
   56.2565   29.5895   45.9673 H   0  0  0  0  0  0  0  0  0  0  0  0
   55.8773   29.0161   43.0190 H   0  0  0  0  0  0  0  0  0  0  0  0
   55.6456   30.5512   43.8930 H   0  0  0  0  0  0  0  0  0  0  0  0
   57.7760   29.8470   42.3670 H   0  0  0  0  0  0  0  0  0  0  0  0
   58.9581   31.7397   43.6230 H   0  0  0  0  0  0  0  0  0  0  0  0
   57.5097   31.9701   42.4933 H   0  0  0  0  0  0  0  0  0  0  0  0
   56.3202   32.9438   44.0613 H   0  0  0  0  0  0  0  0  0  0  0  0
   56.6901   31.5872   45.2339 H   0  0  0  0  0  0  0  0  0  0  0  0
   57.0345   32.6985   47.2665 H   0  0  0  0  0  0  0  0  0  0  0  0
   58.4627   34.2178   48.6373 H   0  0  0  0  0  0  0  0  0  0  0  0
   60.1698   35.6677   47.5321 H   0  0  0  0  0  0  0  0  0  0  0  0
   60.4432   35.6076   45.0517 H   0  0  0  0  0  0  0  0  0  0  0  0
   59.0290   34.0830   43.6729 H   0  0  0  0  0  0  0  0  0  0  0  0
   59.2495   28.7018   43.4636 H   0  0  0  0  0  0  0  0  0  0  0  0
   59.2953   29.9608   44.7298 H   0  0  0  0  0  0  0  0  0  0  0  0
   58.4143   30.1935   50.0647 H   0  0  0  0  0  0  0  0  0  0  0  0
   60.1690   34.0703   50.9820 H   0  0  0  0  0  0  0  0  0  0  0  0
  1  2  2  0
  2  3  1  0
  3  4  1  0
  4  5  2  0
  5  6  1  0
  6  7  1  0
  7  8  2  0
  7  9  1  0
  9 10  1  0
 10 11  1  0
 11 12  1  0
 12 13  1  0
 13 14  1  0
 14 15  1  0
 15 16  1  0
 16 17  2  0
 17 18  1  0
 18 19  2  0
 19 20  1  0
 20 21  2  0
 13 22  1  0
  5 23  1  0
 23 24  2  0
 24 25  1  0
 24 26  1  0
 26 27  2  0
 27 28  1  0
 28 29  2  0
 28  2  1  0
 27  4  1  0
 22 10  1  0
 21 16  1  0
  1 30  1  0
  1 31  1  0
  6 32  1  0
  6 33  1  0
 10 34  1  6
 11 35  1  0
 11 36  1  0
 12 37  1  0
 12 38  1  0
 13 39  1  6
 14 40  1  0
 14 41  1  0
 15 42  1  0
 15 43  1  0
 17 44  1  0
 18 45  1  0
 19 46  1  0
 20 47  1  0
 21 48  1  0
 22 49  1  0
 22 50  1  0
 23 51  1  0
 26 52  1  0
M  CHG  2   9  -1  13   1
M  END
>  <UniqueID>  (58) 
55

>  <SMILES>  (58) 
C=C1Oc2c(CC(=O)[N-][C@H]3CC[N@@H+](CCc4ccccc4)C3)cc(Cl)cc2C1=O

>  <Energy>  (58) 
88.84784761153604

>  <Genealogy>  (58) 
C=C1Oc2c(CC(=O)[N-]C3CC[NH+](CCc4ccccc4)C3)cc(Cl)cc2C1=O (protonated)
C=C1Oc2c(CC(=O)[N-][C@H]3CC[N@@H+](CCc4ccccc4)C3)cc(Cl)cc2C1=O (chirality)
C=C1Oc2c(CC(=O)[N-][C@H]3CC[N@@H+](CCc4ccccc4)C3)cc(Cl)cc2C1=O (3D coordinates assigned)
C=C1Oc2c(CC(=O)[N-][C@H]3CC[N@@H+](CCc4ccccc4)C3)cc(Cl)cc2C1=O (nonaromatic ring conformer: 88.84784761153604 kcal/mol)

>  <smiles>  (58) 
C=C1Oc2c(CC(=O)NC3CCN(CCc4ccccc4)C3)cc(Cl)cc2C1=O

>  <score_type>  (58) 
oracle

>  <origin>  (58) 
adg

>  <m_score__min__energy>  (58) 
-9.6600000000000001

>  <m_primary>  (58) 
energy

$$$$
58:0
     RDKit          3D

 68 72  0  0  0  0  0  0  0  0999 V2000
   57.4178   27.7685   42.7952 H   0  0  0  0  0  0  0  0  0  0  0  0
   57.2390   28.6210   43.4670 C   0  0  0  0  0  0  0  0  0  0  0  0
   57.0220   30.2210   42.9930 S   0  0  0  0  0  0  0  0  0  0  0  0
   56.8570   30.7700   44.5680 C   0  0  0  0  0  0  0  0  0  0  0  0
   56.6510   32.0150   44.8780 N   0  0  0  0  0  0  0  0  0  0  0  0
   57.4760   32.8220   45.7290 C   0  0  0  0  0  0  0  0  0  0  0  0
   57.0700   33.0960   46.8920 O   0  0  0  0  0  0  0  0  0  0  0  0
   58.7360   33.3330   45.2700 N   0  0  0  0  0  0  0  0  0  0  0  0
   59.3010   34.6060   45.7010 C   0  0  0  0  0  0  0  0  0  0  0  0
   60.2402   34.7862   45.1574 H   0  0  0  0  0  0  0  0  0  0  0  0
   58.5753   35.4044   45.4867 H   0  0  0  0  0  0  0  0  0  0  0  0
   59.5860   34.5930   47.2040 C   0  0  0  0  0  0  0  0  0  0  0  0
   59.3763   35.5892   47.6208 H   0  0  0  0  0  0  0  0  0  0  0  0
   58.9429   33.8389   47.6813 H   0  0  0  0  0  0  0  0  0  0  0  0
   61.0260   34.2400   47.4650 C   0  0  0  0  0  0  0  0  0  0  0  0
   61.8410   33.7680   46.4220 C   0  0  0  0  0  0  0  0  0  0  0  0
   61.4354   33.6897   45.4025 H   0  0  0  0  0  0  0  0  0  0  0  0
   63.1670   33.3970   46.6750 C   0  0  0  0  0  0  0  0  0  0  0  0
   63.7998   33.0264   45.8552 H   0  0  0  0  0  0  0  0  0  0  0  0
   63.6870   33.4970   47.9670 C   0  0  0  0  0  0  0  0  0  0  0  0
   64.7341   33.2219   48.1617 H   0  0  0  0  0  0  0  0  0  0  0  0
   62.8760   33.9470   49.0130 C   0  0  0  0  0  0  0  0  0  0  0  0
   63.2813   34.0093   50.0337 H   0  0  0  0  0  0  0  0  0  0  0  0
   61.5510   34.3180   48.7650 C   0  0  0  0  0  0  0  0  0  0  0  0
   60.9174   34.6723   49.5914 H   0  0  0  0  0  0  0  0  0  0  0  0
   56.9540   29.7640   45.4660 N   0  0  0  0  0  0  0  0  0  0  0  0
   57.1530   28.5610   44.8620 C   0  0  0  0  0  0  0  0  0  0  0  0
   57.3200   27.3190   45.6570 C   0  0  0  0  0  0  0  0  0  0  0  0
   56.2900   26.3610   45.6220 C   0  0  0  0  0  0  0  0  0  0  0  0
   55.4015   26.5396   44.9985 H   0  0  0  0  0  0  0  0  0  0  0  0
   56.3840   25.1850   46.3710 C   0  0  0  0  0  0  0  0  0  0  0  0
   55.5686   24.4474   46.3385 H   0  0  0  0  0  0  0  0  0  0  0  0
   57.5080   24.9440   47.1590 C   0  0  0  0  0  0  0  0  0  0  0  0
   57.5728   24.0230   47.7569 H   0  0  0  0  0  0  0  0  0  0  0  0
   58.5510   25.8700   47.1900 C   0  0  0  0  0  0  0  0  0  0  0  0
   59.4422   25.6679   47.8023 H   0  0  0  0  0  0  0  0  0  0  0  0
   58.4720   27.0590   46.4450 C   0  0  0  0  0  0  0  0  0  0  0  0
   59.6460   27.9550   46.4350 C   0  0  0  0  0  0  0  0  0  0  0  0
   60.5930   27.6890   45.6440 O   0  0  0  0  0  0  0  0  0  0  0  0
   59.7300   29.1150   47.2960 N   0  0  0  0  0  0  0  0  0  0  0  0
   58.5450   29.6490   47.9800 C   0  0  0  0  0  0  0  0  0  0  0  0
   58.0821   30.4176   47.3436 H   0  0  0  0  0  0  0  0  0  0  0  0
   57.8493   28.8165   48.1615 H   0  0  0  0  0  0  0  0  0  0  0  0
   58.9080   30.2790   49.3420 C   0  0  0  0  0  0  0  0  0  0  0  0
   58.2183   31.1159   49.5265 H   0  0  0  0  0  0  0  0  0  0  0  0
   58.8238   29.4744   50.0873 H   0  0  0  0  0  0  0  0  0  0  0  0
   60.3020   30.7970   49.4400 N   0  0  0  0  0  0  0  0  0  0  0  0
   60.4200   31.9080   50.4330 C   0  0  0  0  0  0  0  0  0  0  0  0
   61.2365   32.5513   50.0731 H   0  0  0  0  0  0  0  0  0  0  0  0
   60.7540   31.3640   51.8510 C   0  0  0  0  0  0  0  0  0  0  0  0
   60.2406   30.4009   51.9884 H   0  0  0  0  0  0  0  0  0  0  0  0
   61.8467   31.2554   51.9164 H   0  0  0  0  0  0  0  0  0  0  0  0
   60.3140   32.3210   52.9730 C   0  0  0  0  0  0  0  0  0  0  0  0
   59.3022   32.0476   53.3070 H   0  0  0  0  0  0  0  0  0  0  0  0
   61.0225   32.2398   53.8105 H   0  0  0  0  0  0  0  0  0  0  0  0
   60.3060   33.6510   52.5070 O   0  0  0  0  0  0  0  0  0  0  0  0
   59.2210   33.8390   51.6150 C   0  0  0  0  0  0  0  0  0  0  0  0
   58.2880   33.8430   52.1977 H   0  0  0  0  0  0  0  0  0  0  0  0
   59.3921   34.7927   51.0943 H   0  0  0  0  0  0  0  0  0  0  0  0
   59.1160   32.7420   50.5310 C   0  0  0  0  0  0  0  0  0  0  0  0
   58.2813   32.0710   50.7821 H   0  0  0  0  0  0  0  0  0  0  0  0
   58.9481   33.2325   49.5608 H   0  0  0  0  0  0  0  0  0  0  0  0
   60.8040   31.1940   48.1070 C   0  0  0  0  0  0  0  0  0  0  0  0
   60.0997   31.9016   47.6452 H   0  0  0  0  0  0  0  0  0  0  0  0
   61.7880   31.6743   48.2125 H   0  0  0  0  0  0  0  0  0  0  0  0
   60.9330   29.9530   47.2240 C   0  0  0  0  0  0  0  0  0  0  0  0
   61.0861   30.2700   46.1819 H   0  0  0  0  0  0  0  0  0  0  0  0
   61.7882   29.3613   47.5826 H   0  0  0  0  0  0  0  0  0  0  0  0
  1  2  1  0
  2  3  1  0
  3  4  1  0
  4  5  2  0
  5  6  1  0
  6  7  2  0
  6  8  1  0
  8  9  1  0
  9 10  1  0
  9 11  1  0
  9 12  1  0
 12 13  1  0
 12 14  1  0
 12 15  1  0
 15 16  2  0
 16 17  1  0
 16 18  1  0
 18 19  1  0
 18 20  2  0
 20 21  1  0
 20 22  1  0
 22 23  1  0
 22 24  2  0
 24 25  1  0
  4 26  1  0
 26 27  1  0
 27 28  1  0
 28 29  2  0
 29 30  1  0
 29 31  1  0
 31 32  1  0
 31 33  2  0
 33 34  1  0
 33 35  1  0
 35 36  1  0
 35 37  2  0
 37 38  1  0
 38 39  2  0
 38 40  1  0
 40 41  1  0
 41 42  1  0
 41 43  1  0
 41 44  1  0
 44 45  1  0
 44 46  1  0
 44 47  1  0
 47 48  1  0
 48 49  1  0
 48 50  1  0
 50 51  1  0
 50 52  1  0
 50 53  1  0
 53 54  1  0
 53 55  1  0
 53 56  1  0
 56 57  1  0
 57 58  1  0
 57 59  1  0
 57 60  1  0
 60 61  1  0
 60 62  1  0
 47 63  1  0
 63 64  1  0
 63 65  1  0
 63 66  1  0
 66 67  1  0
 66 68  1  0
 27  2  2  0
 37 28  1  0
 66 40  1  0
 24 15  1  0
 60 48  1  0
M  CHG  2   8  -1  26  -1
M  END
>  <UniqueID>  (59) 
56

>  <SMILES>  (59) 
O=C(/N=c1\[n-]c(-c2ccccc2C(=O)N2CCN(C3CCOCC3)CC2)cs1)[N-]CCc1ccccc1

>  <Energy>  (59) 
129.18401463491244

>  <Genealogy>  (59) 
O=C(N=c1[n-]c(-c2ccccc2C(=O)N2CCN(C3CCOCC3)CC2)cs1)[N-]CCc1ccccc1 (protonated)
O=C(/N=c1\[n-]c(-c2ccccc2C(=O)N2CCN(C3CCOCC3)CC2)cs1)[N-]CCc1ccccc1 (cis-trans isomerization)
O=C(/N=c1\[n-]c(-c2ccccc2C(=O)N2CCN(C3CCOCC3)CC2)cs1)[N-]CCc1ccccc1 (3D coordinates assigned)
O=C(/N=c1\[n-]c(-c2ccccc2C(=O)N2CCN(C3CCOCC3)CC2)cs1)[N-]CCc1ccccc1 (nonaromatic ring conformer: 129.18401463491244 kcal/mol)

>  <smiles>  (59) 
O=C(N=c1[nH]c(-c2ccccc2C(=O)N2CCN(C3CCOCC3)CC2)cs1)NCCc1ccccc1

>  <score_type>  (59) 
oracle

>  <origin>  (59) 
adg

>  <m_score__min__energy>  (59) 
-13.01

>  <m_primary>  (59) 
energy

$$$$
59:0
     RDKit          3D

 64 68  0  0  0  0  0  0  0  0999 V2000
   53.1285   24.3198   44.7782 H   0  0  0  0  0  0  0  0  0  0  0  0
   52.8230   23.7300   45.6550 C   0  0  0  0  0  0  0  0  0  0  0  0
   51.7553   23.5992   45.8850 H   0  0  0  0  0  0  0  0  0  0  0  0
   53.7480   23.1730   46.4400 C   0  0  0  0  0  0  0  0  0  0  0  0
   53.3560   22.2590   47.7960 S   0  0  0  0  0  0  0  0  0  0  0  0
   54.9520   21.9740   48.2340 C   0  0  0  0  0  0  0  0  0  0  0  0
   55.3030   21.2400   49.3010 C   0  0  0  0  0  0  0  0  0  0  0  0
   55.0073   20.1805   49.3089 H   0  0  0  0  0  0  0  0  0  0  0  0
   56.0560   21.7470   50.4650 C   0  0  0  0  0  0  0  0  0  0  0  0
   55.5090   21.6980   51.7580 C   0  0  0  0  0  0  0  0  0  0  0  0
   54.4892   21.3136   51.9073 H   0  0  0  0  0  0  0  0  0  0  0  0
   56.2560   22.1360   52.8560 C   0  0  0  0  0  0  0  0  0  0  0  0
   55.8173   22.1122   53.8645 H   0  0  0  0  0  0  0  0  0  0  0  0
   57.5600   22.6040   52.6720 C   0  0  0  0  0  0  0  0  0  0  0  0
   58.2860   23.0230   53.7400 F   0  0  0  0  0  0  0  0  0  0  0  0
   58.1210   22.6280   51.3920 C   0  0  0  0  0  0  0  0  0  0  0  0
   59.1492   22.9920   51.2495 H   0  0  0  0  0  0  0  0  0  0  0  0
   57.3770   22.1900   50.2930 C   0  0  0  0  0  0  0  0  0  0  0  0
   57.8280   22.1924   49.2897 H   0  0  0  0  0  0  0  0  0  0  0  0
   55.7680   22.5950   47.2760 C   0  0  0  0  0  0  0  0  0  0  0  0
   57.0280   22.5230   47.3000 O   0  0  0  0  0  0  0  0  0  0  0  0
   55.1030   23.2640   46.2830 N   0  0  0  0  0  0  0  0  0  0  0  0
   55.8020   23.9060   45.1540 C   0  0  0  0  0  0  0  0  0  0  0  0
   56.4150   23.1554   44.6336 H   0  0  0  0  0  0  0  0  0  0  0  0
   55.0546   24.3278   44.4659 H   0  0  0  0  0  0  0  0  0  0  0  0
   56.6950   25.0210   45.6500 C   0  0  0  0  0  0  0  0  0  0  0  0
   58.0820   24.8170   45.7280 C   0  0  0  0  0  0  0  0  0  0  0  0
   58.5116   23.8609   45.3943 H   0  0  0  0  0  0  0  0  0  0  0  0
   58.9210   25.8160   46.2250 C   0  0  0  0  0  0  0  0  0  0  0  0
   60.0061   25.6416   46.2712 H   0  0  0  0  0  0  0  0  0  0  0  0
   58.3950   27.0420   46.6670 C   0  0  0  0  0  0  0  0  0  0  0  0
   59.2630   28.0740   47.1890 N   0  0  0  0  0  0  0  0  0  0  0  0
   60.3280   27.7140   48.1400 C   0  0  0  0  0  0  0  0  0  0  0  0
   59.9747   26.8753   48.7578 H   0  0  0  0  0  0  0  0  0  0  0  0
   61.2161   27.4492   47.5474 H   0  0  0  0  0  0  0  0  0  0  0  0
   60.7350   28.8770   49.0780 C   0  0  0  0  0  0  0  0  0  0  0  0
   60.3474   28.6604   50.0844 H   0  0  0  0  0  0  0  0  0  0  0  0
   61.8329   28.9378   49.0483 H   0  0  0  0  0  0  0  0  0  0  0  0
   60.2230   30.2040   48.6580 N   0  0  0  0  0  0  0  0  0  0  0  0
   59.2240   30.2760   48.9710 H   0  0  0  0  0  0  0  0  0  0  0  0
   61.0020   31.2760   49.3240 C   0  0  0  0  0  0  0  0  0  0  0  0
   60.3169   31.8912   49.9257 H   0  0  0  0  0  0  0  0  0  0  0  0
   61.7664   30.7985   49.9546 H   0  0  0  0  0  0  0  0  0  0  0  0
   61.7090   32.1660   48.3270 C   0  0  0  0  0  0  0  0  0  0  0  0
   63.0670   31.9560   48.0340 C   0  0  0  0  0  0  0  0  0  0  0  0
   63.6120   31.1346   48.5223 H   0  0  0  0  0  0  0  0  0  0  0  0
   63.7290   32.7870   47.1240 C   0  0  0  0  0  0  0  0  0  0  0  0
   64.7912   32.6155   46.8954 H   0  0  0  0  0  0  0  0  0  0  0  0
   63.0420   33.8350   46.5050 C   0  0  0  0  0  0  0  0  0  0  0  0
   63.5653   34.4927   45.7953 H   0  0  0  0  0  0  0  0  0  0  0  0
   61.6900   34.0470   46.7880 C   0  0  0  0  0  0  0  0  0  0  0  0
   61.1493   34.8698   46.2975 H   0  0  0  0  0  0  0  0  0  0  0  0
   61.0230   33.2160   47.6930 C   0  0  0  0  0  0  0  0  0  0  0  0
   59.9578   33.3845   47.9095 H   0  0  0  0  0  0  0  0  0  0  0  0
   60.2800   30.3370   47.1890 C   0  0  0  0  0  0  0  0  0  0  0  0
   60.0503   31.3750   46.9065 H   0  0  0  0  0  0  0  0  0  0  0  0
   61.2886   30.0736   46.8379 H   0  0  0  0  0  0  0  0  0  0  0  0
   59.2580   29.3970   46.5470 C   0  0  0  0  0  0  0  0  0  0  0  0
   58.2553   29.8383   46.6460 H   0  0  0  0  0  0  0  0  0  0  0  0
   59.5267   29.2672   45.4882 H   0  0  0  0  0  0  0  0  0  0  0  0
   57.0060   27.2480   46.5840 C   0  0  0  0  0  0  0  0  0  0  0  0
   56.5770   28.2029   46.9218 H   0  0  0  0  0  0  0  0  0  0  0  0
   56.1640   26.2530   46.0770 C   0  0  0  0  0  0  0  0  0  0  0  0
   54.8000   26.5070   45.9970 O   0  0  0  0  0  0  0  0  0  0  0  0
  1  2  1  0
  2  3  1  0
  2  4  2  0
  4  5  1  0
  5  6  1  0
  6  7  2  0
  7  8  1  0
  7  9  1  0
  9 10  2  0
 10 11  1  0
 10 12  1  0
 12 13  1  0
 12 14  2  0
 14 15  1  0
 14 16  1  0
 16 17  1  0
 16 18  2  0
 18 19  1  0
  6 20  1  0
 20 21  2  0
 20 22  1  0
 22 23  1  0
 23 24  1  0
 23 25  1  0
 23 26  1  0
 26 27  2  0
 27 28  1  0
 27 29  1  0
 29 30  1  0
 29 31  2  0
 31 32  1  0
 32 33  1  0
 33 34  1  0
 33 35  1  0
 33 36  1  0
 36 37  1  0
 36 38  1  0
 36 39  1  0
 39 40  1  0
 39 41  1  0
 41 42  1  0
 41 43  1  0
 41 44  1  0
 44 45  2  0
 45 46  1  0
 45 47  1  0
 47 48  1  0
 47 49  2  0
 49 50  1  0
 49 51  1  0
 51 52  1  0
 51 53  2  0
 53 54  1  0
 39 55  1  0
 55 56  1  0
 55 57  1  0
 55 58  1  0
 58 59  1  0
 58 60  1  0
 31 61  1  0
 61 62  1  0
 61 63  2  0
 63 64  1  0
 22  4  1  0
 63 26  1  0
 18  9  1  0
 58 32  1  0
 53 44  1  0
M  CHG  2  39   1  64  -1
M  END
>  <UniqueID>  (60) 
57

>  <SMILES>  (60) 
C=c1s/c(=C/c2ccc(F)cc2)c(=O)n1Cc1ccc(N2CC[NH+](Cc3ccccc3)CC2)cc1[O-]

>  <Energy>  (60) 
122.67701141809177

>  <Genealogy>  (60) 
C=c1sc(=Cc2ccc(F)cc2)c(=O)n1Cc1ccc(N2CC[NH+](Cc3ccccc3)CC2)cc1[O-] (protonated)
C=c1s/c(=C/c2ccc(F)cc2)c(=O)n1Cc1ccc(N2CC[NH+](Cc3ccccc3)CC2)cc1[O-] (cis-trans isomerization)
C=c1s/c(=C/c2ccc(F)cc2)c(=O)n1Cc1ccc(N2CC[NH+](Cc3ccccc3)CC2)cc1[O-] (3D coordinates assigned)
C=c1s/c(=C/c2ccc(F)cc2)c(=O)n1Cc1ccc(N2CC[NH+](Cc3ccccc3)CC2)cc1[O-] (nonaromatic ring conformer: 122.67701141809177 kcal/mol)

>  <smiles>  (60) 
C=c1sc(=Cc2ccc(F)cc2)c(=O)n1Cc1ccc(N2CCN(Cc3ccccc3)CC2)cc1O

>  <score_type>  (60) 
oracle

>  <origin>  (60) 
adg

>  <m_score__min__energy>  (60) 
-9.8800000000000008

>  <m_primary>  (60) 
energy

$$$$
60:0
     RDKit          3D

 42 44  0  0  0  0  0  0  0  0999 V2000
   58.8068   31.7293   48.5169 H   0  0  0  0  0  0  0  0  0  0  0  0
   58.6760   32.4250   47.6750 C   0  0  0  0  0  0  0  0  0  0  0  0
   57.9750   32.0390   46.5760 N   0  0  0  0  0  0  0  0  0  0  0  0
   57.7930   32.8640   45.5060 C   0  0  0  0  0  0  0  0  0  0  0  0
   57.1030   32.4890   44.4650 N   0  0  0  0  0  0  0  0  0  0  0  0
   56.6340   31.1690   44.1400 C   0  0  0  0  0  0  0  0  0  0  0  0
   55.4640   30.8520   44.4860 O   0  0  0  0  0  0  0  0  0  0  0  0
   57.4880   30.1650   43.4020 C   0  0  0  0  0  0  0  0  0  0  0  0
   56.9021   29.7403   42.5735 H   0  0  0  0  0  0  0  0  0  0  0  0
   58.3818   30.6864   43.0288 H   0  0  0  0  0  0  0  0  0  0  0  0
   57.9420   29.0450   44.3020 C   0  0  0  0  0  0  0  0  0  0  0  0
   57.0030   28.2960   45.0270 C   0  0  0  0  0  0  0  0  0  0  0  0
   55.9298   28.5111   44.9180 H   0  0  0  0  0  0  0  0  0  0  0  0
   57.4240   27.2780   45.8870 C   0  0  0  0  0  0  0  0  0  0  0  0
   56.6802   26.6953   46.4502 H   0  0  0  0  0  0  0  0  0  0  0  0
   58.7910   26.9950   46.0360 C   0  0  0  0  0  0  0  0  0  0  0  0
   59.2480   25.9250   46.9930 C   0  0  0  0  0  0  0  0  0  0  0  0
   59.7643   25.1359   46.4267 H   0  0  0  0  0  0  0  0  0  0  0  0
   59.9240   26.3857   47.7283 H   0  0  0  0  0  0  0  0  0  0  0  0
   58.0660   25.3040   47.7490 C   0  0  0  0  0  0  0  0  0  0  0  0
   58.3689   25.1101   48.7885 H   0  0  0  0  0  0  0  0  0  0  0  0
   57.2234   26.0101   47.7116 H   0  0  0  0  0  0  0  0  0  0  0  0
   57.6380   24.0460   47.1360 N   0  0  0  0  0  0  0  0  0  0  0  0
   56.6770   23.9250   46.2670 C   0  0  0  0  0  0  0  0  0  0  0  0
   55.5440   24.6730   46.3710 N   0  0  0  0  0  0  0  0  0  0  0  0
   54.5470   24.5350   45.4620 C   0  0  0  0  0  0  0  0  0  0  0  0
   53.5030   25.2290   45.5640 O   0  0  0  0  0  0  0  0  0  0  0  0
   54.6770   23.6500   44.4450 N   0  0  0  0  0  0  0  0  0  0  0  0
   55.8020   22.9010   44.3330 C   0  0  0  0  0  0  0  0  0  0  0  0
   55.9160   22.0790   43.3860 O   0  0  0  0  0  0  0  0  0  0  0  0
   56.8030   23.0390   45.2430 N   0  0  0  0  0  0  0  0  0  0  0  0
   57.6700   22.4580   45.1550 H   0  0  0  0  0  0  0  0  0  0  0  0
   59.7320   27.7580   45.3260 C   0  0  0  0  0  0  0  0  0  0  0  0
   60.8060   27.5534   45.4473 H   0  0  0  0  0  0  0  0  0  0  0  0
   59.3110   28.7760   44.4660 C   0  0  0  0  0  0  0  0  0  0  0  0
   60.0553   29.3695   43.9148 H   0  0  0  0  0  0  0  0  0  0  0  0
   58.3270   34.1580   45.5390 C   0  0  0  0  0  0  0  0  0  0  0  0
   58.1774   34.8407   44.6895 H   0  0  0  0  0  0  0  0  0  0  0  0
   59.0510   34.5760   46.6580 C   0  0  0  0  0  0  0  0  0  0  0  0
   59.4791   35.5888   46.6908 H   0  0  0  0  0  0  0  0  0  0  0  0
   59.2300   33.7060   47.7340 C   0  0  0  0  0  0  0  0  0  0  0  0
   60.1350   34.2160   49.1480 Cl  0  0  0  0  0  0  0  0  0  0  0  0
  1  2  1  0
  2  3  1  0
  3  4  1  0
  4  5  2  3
  5  6  1  0
  6  7  2  0
  6  8  1  0
  8  9  1  0
  8 10  1  0
  8 11  1  0
 11 12  2  0
 12 13  1  0
 12 14  1  0
 14 15  1  0
 14 16  2  0
 16 17  1  0
 17 18  1  0
 17 19  1  0
 17 20  1  0
 20 21  1  0
 20 22  1  0
 20 23  1  0
 23 24  2  0
 24 25  1  0
 25 26  1  0
 26 27  2  0
 26 28  1  0
 28 29  1  0
 29 30  2  0
 29 31  1  0
 31 32  1  0
 16 33  1  0
 33 34  1  0
 33 35  2  0
 35 36  1  0
  4 37  1  0
 37 38  1  0
 37 39  2  0
 39 40  1  0
 39 41  1  0
 41 42  1  0
 41  2  2  0
 35 11  1  0
 31 24  1  0
M  CHG  3   3  -1  25  -1  28  -1
M  END
>  <UniqueID>  (61) 
58

>  <SMILES>  (61) 
O=C(Cc1ccc(CC/N=c2\[n-]c(=O)[n-]c(=O)[nH]2)cc1)N=c1ccc(Cl)c[n-]1

>  <Energy>  (61) 
47.64417171170152

>  <Genealogy>  (61) 
O=C(Cc1ccc(CCN=c2[n-]c(=O)[n-]c(=O)[nH]2)cc1)N=c1ccc(Cl)c[n-]1 (protonated)
O=C(Cc1ccc(CC/N=c2\[n-]c(=O)[n-]c(=O)[nH]2)cc1)N=c1ccc(Cl)c[n-]1 (cis-trans isomerization)
O=C(Cc1ccc(CC/N=c2\[n-]c(=O)[n-]c(=O)[nH]2)cc1)N=c1ccc(Cl)c[n-]1 (3D coordinates assigned)
O=C(Cc1ccc(CC/N=c2\[n-]c(=O)[n-]c(=O)[nH]2)cc1)N=c1ccc(Cl)c[n-]1 (optimized conformer: 47.64417171170152 kcal/mol)

>  <smiles>  (61) 
O=C(Cc1ccc(CCN=c2[nH]c(=O)[nH]c(=O)[nH]2)cc1)N=c1ccc(Cl)c[nH]1

>  <score_type>  (61) 
oracle

>  <origin>  (61) 
adg

>  <m_score__min__energy>  (61) 
-13.31

>  <m_primary>  (61) 
energy

$$$$
61:0
     RDKit          3D

 40 42  0  0  1  0  0  0  0  0999 V2000
   57.7100   28.6540   43.8550 N   0  0  0  0  0  0  0  0  0  0  0  0
   56.6910   30.0340   43.9860 S   0  0  0  0  0  0  0  0  0  0  0  0
   56.2660   30.5480   42.6250 O   0  0  0  0  0  0  0  0  0  0  0  0
   55.4340   29.7160   44.7660 O   0  0  0  0  0  0  0  0  0  0  0  0
   57.4900   31.3740   44.7860 C   0  0  0  0  0  0  0  0  0  0  0  0
   57.3970   32.6560   44.3340 C   0  0  0  0  0  0  0  0  0  0  0  0
   58.0400   33.6870   44.9890 C   0  0  0  0  0  0  0  0  0  0  0  0
   58.8070   33.4660   46.1340 C   0  0  0  0  0  0  0  0  0  0  0  0
   59.4980   34.5970   46.8340 C   0  0  0  0  0  0  0  0  0  0  0  0
   60.2990   34.1770   47.9310 N   0  0  0  0  0  0  0  0  0  0  0  0
   61.5360   33.8690   47.7870 C   0  0  0  0  0  0  0  0  0  0  0  0
   62.3090   33.2980   48.7730 C   0  0  0  0  0  0  0  0  0  0  0  0
   63.6350   32.9790   48.5850 C   0  0  0  0  0  0  0  0  0  0  0  0
   64.4610   32.3750   49.6240 C   0  0  0  0  0  0  0  0  0  0  0  0
   65.7850   32.7480   49.8320 C   0  0  0  0  0  0  0  0  0  0  0  0
   66.5660   32.1720   50.8190 C   0  0  0  0  0  0  0  0  0  0  0  0
   66.0710   31.2000   51.6470 C   0  0  0  0  0  0  0  0  0  0  0  0
   64.7610   30.8130   51.4610 C   0  0  0  0  0  0  0  0  0  0  0  0
   63.9770   31.3970   50.4640 C   0  0  0  0  0  0  0  0  0  0  0  0
   64.1420   33.2610   47.3600 N   0  0  0  0  0  0  0  0  0  0  0  0
   63.3800   33.8260   46.3840 C   0  0  0  0  0  0  0  0  0  0  0  0
   62.0870   34.1330   46.5790 N   0  0  0  0  0  0  0  0  0  0  0  0
   58.8820   32.1620   46.5650 C   0  0  0  0  0  0  0  0  0  0  0  0
   58.2420   31.1200   45.9150 C   0  0  0  0  0  0  0  0  0  0  0  0
   57.1030   27.8190   43.6610 H   0  0  0  0  0  0  0  0  0  0  0  0
   58.3300   28.7820   43.0070 H   0  0  0  0  0  0  0  0  0  0  0  0
   56.8014   32.8724   43.4349 H   0  0  0  0  0  0  0  0  0  0  0  0
   57.9453   34.7108   44.5979 H   0  0  0  0  0  0  0  0  0  0  0  0
   60.1436   35.1137   46.1085 H   0  0  0  0  0  0  0  0  0  0  0  0
   58.7151   35.2561   47.2372 H   0  0  0  0  0  0  0  0  0  0  0  0
   61.8488   33.0884   49.7498 H   0  0  0  0  0  0  0  0  0  0  0  0
   66.2256   33.5260   49.1912 H   0  0  0  0  0  0  0  0  0  0  0  0
   67.6080   32.5025   50.9411 H   0  0  0  0  0  0  0  0  0  0  0  0
   66.6949   30.7454   52.4306 H   0  0  0  0  0  0  0  0  0  0  0  0
   64.3279   30.0344   52.1061 H   0  0  0  0  0  0  0  0  0  0  0  0
   62.9354   31.0639   50.3453 H   0  0  0  0  0  0  0  0  0  0  0  0
   65.1260   33.0690   47.0960 H   0  0  0  0  0  0  0  0  0  0  0  0
   63.8368   34.0376   45.4060 H   0  0  0  0  0  0  0  0  0  0  0  0
   59.4752   31.9374   47.4637 H   0  0  0  0  0  0  0  0  0  0  0  0
   58.3328   30.0927   46.2975 H   0  0  0  0  0  0  0  0  0  0  0  0
  1  2  1  0
  2  3  2  0
  2  4  2  0
  2  5  1  0
  5  6  2  0
  6  7  1  0
  7  8  2  0
  8  9  1  0
  9 10  1  0
 10 11  2  0
 11 12  1  0
 12 13  2  0
 13 14  1  0
 14 15  2  0
 15 16  1  0
 16 17  2  0
 17 18  1  0
 18 19  2  0
 13 20  1  0
 20 21  1  0
 21 22  2  0
  8 23  1  0
 23 24  2  0
 24  5  1  0
 22 11  1  0
 19 14  1  0
  1 25  1  0
  1 26  1  0
  6 27  1  0
  7 28  1  0
  9 29  1  0
  9 30  1  0
 12 31  1  0
 15 32  1  0
 16 33  1  0
 17 34  1  0
 18 35  1  0
 19 36  1  0
 20 37  1  0
 21 38  1  0
 23 39  1  0
 24 40  1  0
M  END
>  <smiles>  (62) 
NS(=O)(=O)c1ccc(CN=c2cc(-c3ccccc3)[nH]cn2)cc1

>  <score_type>  (62) 
oracle

>  <origin>  (62) 
adg

>  <m_score__min__energy>  (62) 
-9.3800000000000008

>  <m_primary>  (62) 
energy

$$$$
62:0
     RDKit          3D

 53 56  0  0  0  0  0  0  0  0999 V2000
   61.4940   29.7770   50.3570 C   0  0  0  0  0  0  0  0  0  0  0  0
   61.1560   28.7170   49.4690 O   0  0  0  0  0  0  0  0  0  0  0  0
   60.1150   28.7680   48.5290 C   0  0  0  0  0  0  0  0  0  0  0  0
   59.7820   30.0070   47.9760 C   0  0  0  0  0  0  0  0  0  0  0  0
   58.7580   30.1260   47.0260 C   0  0  0  0  0  0  0  0  0  0  0  0
   58.4640   31.4270   46.4980 N   0  0  0  0  0  0  0  0  0  0  0  0
   58.0930   32.5130   47.4090 C   0  0  0  0  0  0  0  0  0  0  0  0
   58.6720   33.8380   46.8990 C   0  0  0  0  0  0  0  0  0  0  0  0
   58.2250   34.1510   45.5190 N   0  0  0  0  0  0  0  0  0  0  0  0
   59.1210   35.1460   44.9020 C   0  0  0  0  0  0  0  0  0  0  0  0
   58.0340   32.9670   44.6370 C   0  0  0  0  0  0  0  0  0  0  0  0
   58.8080   31.7280   45.1070 C   0  0  0  0  0  0  0  0  0  0  0  0
   58.0450   28.9720   46.6150 C   0  0  0  0  0  0  0  0  0  0  0  0
   57.0080   28.9870   45.6550 C   0  0  0  0  0  0  0  0  0  0  0  0
   56.6540   30.0540   45.0860 O   0  0  0  0  0  0  0  0  0  0  0  0
   56.3740   27.8320   45.3260 N   0  0  0  0  0  0  0  0  0  0  0  0
   56.7060   26.6430   45.8930 C   0  0  0  0  0  0  0  0  0  0  0  0
   55.9920   25.4000   45.5090 C   0  0  0  0  0  0  0  0  0  0  0  0
   54.5910   25.3150   45.6250 C   0  0  0  0  0  0  0  0  0  0  0  0
   53.9190   24.1410   45.2740 C   0  0  0  0  0  0  0  0  0  0  0  0
   54.6330   23.0390   44.7980 C   0  0  0  0  0  0  0  0  0  0  0  0
   56.0260   23.1070   44.6660 C   0  0  0  0  0  0  0  0  0  0  0  0
   56.9290   21.7120   44.0840 S   0  0  0  0  0  0  0  0  0  0  0  0
   56.9270   20.4480   45.3350 C   0  0  0  0  0  0  0  0  0  0  0  0
   58.3450   22.1140   43.7760 O   0  0  0  0  0  0  0  0  0  0  0  0
   56.2950   21.1790   42.8290 O   0  0  0  0  0  0  0  0  0  0  0  0
   56.7020   24.2820   45.0270 C   0  0  0  0  0  0  0  0  0  0  0  0
   57.7060   26.6020   46.8130 N   0  0  0  0  0  0  0  0  0  0  0  0
   58.3790   27.7220   47.1850 C   0  0  0  0  0  0  0  0  0  0  0  0
   59.4040   27.6240   48.1300 C   0  0  0  0  0  0  0  0  0  0  0  0
   61.3845   29.4337   51.3963 H   0  0  0  0  0  0  0  0  0  0  0  0
   62.5350   30.0854   50.1804 H   0  0  0  0  0  0  0  0  0  0  0  0
   60.8236   30.6311   50.1804 H   0  0  0  0  0  0  0  0  0  0  0  0
   60.3331   30.9051   48.2916 H   0  0  0  0  0  0  0  0  0  0  0  0
   56.9968   32.5888   47.4599 H   0  0  0  0  0  0  0  0  0  0  0  0
   58.4963   32.3014   48.4103 H   0  0  0  0  0  0  0  0  0  0  0  0
   58.3470   34.6477   47.5688 H   0  0  0  0  0  0  0  0  0  0  0  0
   59.7680   33.7448   46.8859 H   0  0  0  0  0  0  0  0  0  0  0  0
   59.6343   35.7160   45.6904 H   0  0  0  0  0  0  0  0  0  0  0  0
   59.8660   34.6312   44.2776 H   0  0  0  0  0  0  0  0  0  0  0  0
   58.5312   35.8332   44.2776 H   0  0  0  0  0  0  0  0  0  0  0  0
   56.9624   32.7201   44.6114 H   0  0  0  0  0  0  0  0  0  0  0  0
   58.4217   33.2354   43.6432 H   0  0  0  0  0  0  0  0  0  0  0  0
   58.5442   30.8697   44.4716 H   0  0  0  0  0  0  0  0  0  0  0  0
   59.8878   31.9248   45.0341 H   0  0  0  0  0  0  0  0  0  0  0  0
   54.0209   26.1799   45.9950 H   0  0  0  0  0  0  0  0  0  0  0  0
   52.8249   24.0847   45.3729 H   0  0  0  0  0  0  0  0  0  0  0  0
   54.1004   22.1157   44.5262 H   0  0  0  0  0  0  0  0  0  0  0  0
   56.9277   20.9169   46.3300 H   0  0  0  0  0  0  0  0  0  0  0  0
   56.0279   19.8240   45.2244 H   0  0  0  0  0  0  0  0  0  0  0  0
   57.8242   19.8212   45.2244 H   0  0  0  0  0  0  0  0  0  0  0  0
   57.7969   24.3312   44.9330 H   0  0  0  0  0  0  0  0  0  0  0  0
   59.6556   26.6451   48.5640 H   0  0  0  0  0  0  0  0  0  0  0  0
  1  2  1  0
  2  3  1  0
  3  4  2  0
  4  5  1  0
  5  6  1  0
  6  7  1  0
  7  8  1  0
  8  9  1  0
  9 10  1  0
  9 11  1  0
 11 12  1  0
  5 13  2  0
 13 14  1  0
 14 15  2  0
 14 16  1  0
 16 17  2  0
 17 18  1  0
 18 19  2  0
 19 20  1  0
 20 21  2  0
 21 22  1  0
 22 23  1  0
 23 24  1  0
 23 25  2  0
 23 26  2  0
 22 27  2  0
 17 28  1  0
 28 29  1  0
 29 30  2  0
 30  3  1  0
 12  6  1  0
 29 13  1  0
 27 18  1  0
  1 31  1  0
  1 32  1  0
  1 33  1  0
  4 34  1  0
  7 35  1  0
  7 36  1  0
  8 37  1  0
  8 38  1  0
 10 39  1  0
 10 40  1  0
 10 41  1  0
 11 42  1  0
 11 43  1  0
 12 44  1  0
 12 45  1  0
 19 46  1  0
 20 47  1  0
 21 48  1  0
 24 49  1  0
 24 50  1  0
 24 51  1  0
 27 52  1  0
 30 53  1  0
M  CHG  1  28  -1
M  END
>  <UniqueID>  (63) 
59

>  <SMILES>  (63) 
COc1cc(N2CCN(C)CC2)c2c(=O)nc(-c3cccc(S(C)(=O)=O)c3)[n-]c2c1

>  <Energy>  (63) 
73.04466898520707

>  <Genealogy>  (63) 
COc1cc(N2CCN(C)CC2)c2c(=O)nc(-c3cccc(S(C)(=O)=O)c3)[n-]c2c1 (protonated)
COc1cc(N2CCN(C)CC2)c2c(=O)nc(-c3cccc(S(C)(=O)=O)c3)[n-]c2c1 (3D coordinates assigned)
COc1cc(N2CCN(C)CC2)c2c(=O)nc(-c3cccc(S(C)(=O)=O)c3)[n-]c2c1 (nonaromatic ring conformer: 73.04466898520707 kcal/mol)

>  <smiles>  (63) 
COc1cc(N2CCN(C)CC2)c2c(=O)nc(-c3cccc(S(C)(=O)=O)c3)[nH]c2c1

>  <score_type>  (63) 
oracle

>  <origin>  (63) 
adg

>  <m_score__min__energy>  (63) 
-9.8399999999999999

>  <m_primary>  (63) 
energy

$$$$
63:0
     RDKit          3D

 57 60  0  0  0  0  0  0  0  0999 V2000
   64.1040   32.9400   48.4280 C   0  0  0  0  0  0  0  0  0  0  0  0
   63.2310   33.2820   49.5660 N   0  0  0  0  0  0  0  0  0  0  0  0
   62.3120   32.1730   49.9030 C   0  0  0  0  0  0  0  0  0  0  0  0
   61.2370   31.9680   48.8200 C   0  0  0  0  0  0  0  0  0  0  0  0
   60.7770   33.2580   48.2870 N   0  0  0  0  0  0  0  0  0  0  0  0
   60.3760   33.3820   46.9080 C   0  0  0  0  0  0  0  0  0  0  0  0
   60.8840   34.3030   46.2110 O   0  0  0  0  0  0  0  0  0  0  0  0
   59.3680   32.4700   46.3080 C   0  0  0  0  0  0  0  0  0  0  0  0
   57.9210   32.9830   45.6030 S   0  0  0  0  0  0  0  0  0  0  0  0
   57.4080   31.4350   45.2310 C   0  0  0  0  0  0  0  0  0  0  0  0
   56.3240   31.1700   44.6500 O   0  0  0  0  0  0  0  0  0  0  0  0
   58.3100   30.5010   45.6140 N   0  0  0  0  0  0  0  0  0  0  0  0
   58.1570   29.0980   45.3320 C   0  0  0  0  0  0  0  0  0  0  0  0
   57.0840   28.3790   45.8740 C   0  0  0  0  0  0  0  0  0  0  0  0
   56.9180   27.0230   45.5740 C   0  0  0  0  0  0  0  0  0  0  0  0
   57.8260   26.3650   44.7220 C   0  0  0  0  0  0  0  0  0  0  0  0
   57.6600   24.9320   44.3840 C   0  0  0  0  0  0  0  0  0  0  0  0
   58.3430   24.0690   45.0030 O   0  0  0  0  0  0  0  0  0  0  0  0
   56.7210   24.5100   43.3800 N   0  0  0  0  0  0  0  0  0  0  0  0
   56.5770   23.1090   42.9860 C   0  0  0  0  0  0  0  0  0  0  0  0
   56.2980   22.2510   44.1920 C   0  0  0  0  0  0  0  0  0  0  0  0
   56.9940   21.0450   44.3890 C   0  0  0  0  0  0  0  0  0  0  0  0
   56.7360   20.2600   45.5180 C   0  0  0  0  0  0  0  0  0  0  0  0
   55.7860   20.6720   46.4580 C   0  0  0  0  0  0  0  0  0  0  0  0
   55.5390   19.9080   47.5500 F   0  0  0  0  0  0  0  0  0  0  0  0
   55.0930   21.8740   46.2700 C   0  0  0  0  0  0  0  0  0  0  0  0
   55.3460   22.6610   45.1420 C   0  0  0  0  0  0  0  0  0  0  0  0
   58.8900   27.0960   44.1670 C   0  0  0  0  0  0  0  0  0  0  0  0
   59.0570   28.4490   44.4720 C   0  0  0  0  0  0  0  0  0  0  0  0
   59.4090   31.0610   46.2130 C   0  0  0  0  0  0  0  0  0  0  0  0
   60.4830   30.2530   46.7220 N   0  0  0  0  0  0  0  0  0  0  0  0
   61.0360   34.4610   49.0800 C   0  0  0  0  0  0  0  0  0  0  0  0
   62.5450   34.5870   49.3670 C   0  0  0  0  0  0  0  0  0  0  0  0
   65.0664   32.5630   48.8045 H   0  0  0  0  0  0  0  0  0  0  0  0
   63.6208   32.1647   47.8153 H   0  0  0  0  0  0  0  0  0  0  0  0
   64.2761   33.8372   47.8153 H   0  0  0  0  0  0  0  0  0  0  0  0
   62.8956   31.2461   50.0046 H   0  0  0  0  0  0  0  0  0  0  0  0
   61.8029   32.4267   50.8445 H   0  0  0  0  0  0  0  0  0  0  0  0
   61.6613   31.3702   47.9999 H   0  0  0  0  0  0  0  0  0  0  0  0
   60.3789   31.4477   49.2705 H   0  0  0  0  0  0  0  0  0  0  0  0
   56.3679   28.8836   46.5393 H   0  0  0  0  0  0  0  0  0  0  0  0
   56.0730   26.4670   46.0062 H   0  0  0  0  0  0  0  0  0  0  0  0
   56.0760   25.2060   42.9430 H   0  0  0  0  0  0  0  0  0  0  0  0
   55.7433   23.0164   42.2744 H   0  0  0  0  0  0  0  0  0  0  0  0
   57.5132   22.7720   42.5169 H   0  0  0  0  0  0  0  0  0  0  0  0
   57.7435   20.7179   43.6533 H   0  0  0  0  0  0  0  0  0  0  0  0
   57.2817   19.3165   45.6667 H   0  0  0  0  0  0  0  0  0  0  0  0
   54.3482   22.1999   47.0109 H   0  0  0  0  0  0  0  0  0  0  0  0
   54.7984   23.6040   44.9975 H   0  0  0  0  0  0  0  0  0  0  0  0
   59.5972   26.5988   43.4868 H   0  0  0  0  0  0  0  0  0  0  0  0
   59.8978   29.0086   44.0362 H   0  0  0  0  0  0  0  0  0  0  0  0
   60.2920   29.3180   47.1430 H   0  0  0  0  0  0  0  0  0  0  0  0
   61.4850   30.5160   46.5940 H   0  0  0  0  0  0  0  0  0  0  0  0
   60.6960   35.3457   48.5217 H   0  0  0  0  0  0  0  0  0  0  0  0
   60.4914   34.3900   50.0331 H   0  0  0  0  0  0  0  0  0  0  0  0
   63.0177   35.1008   48.5170 H   0  0  0  0  0  0  0  0  0  0  0  0
   62.6457   35.1478   50.3079 H   0  0  0  0  0  0  0  0  0  0  0  0
  1  2  1  0
  2  3  1  0
  3  4  1  0
  4  5  1  0
  5  6  1  0
  6  7  2  0
  6  8  1  0
  8  9  1  0
  9 10  1  0
 10 11  2  0
 10 12  1  0
 12 13  1  0
 13 14  2  0
 14 15  1  0
 15 16  2  0
 16 17  1  0
 17 18  2  0
 17 19  1  0
 19 20  1  0
 20 21  1  0
 21 22  2  0
 22 23  1  0
 23 24  2  0
 24 25  1  0
 24 26  1  0
 26 27  2  0
 16 28  1  0
 28 29  2  0
 12 30  1  0
 30 31  1  0
  5 32  1  0
 32 33  1  0
 33  2  1  0
 30  8  2  0
 29 13  1  0
 27 21  1  0
  1 34  1  0
  1 35  1  0
  1 36  1  0
  3 37  1  0
  3 38  1  0
  4 39  1  0
  4 40  1  0
 14 41  1  0
 15 42  1  0
 19 43  1  0
 20 44  1  0
 20 45  1  0
 22 46  1  0
 23 47  1  0
 26 48  1  0
 27 49  1  0
 28 50  1  0
 29 51  1  0
 31 52  1  0
 31 53  1  0
 32 54  1  0
 32 55  1  0
 33 56  1  0
 33 57  1  0
M  END
>  <UniqueID>  (64) 
60

>  <SMILES>  (64) 
CN1CCN(C(=O)c2sc(=O)n(-c3ccc(C(=O)NCc4ccc(F)cc4)cc3)c2N)CC1

>  <Energy>  (64) 
113.44356678192064

>  <Genealogy>  (64) 
CN1CCN(C(=O)c2sc(=O)n(-c3ccc(C(=O)NCc4ccc(F)cc4)cc3)c2N)CC1 (3D coordinates assigned)
CN1CCN(C(=O)c2sc(=O)n(-c3ccc(C(=O)NCc4ccc(F)cc4)cc3)c2N)CC1 (nonaromatic ring conformer: 113.44356678192064 kcal/mol)

>  <smiles>  (64) 
CN1CCN(C(=O)c2sc(=O)n(-c3ccc(C(=O)NCc4ccc(F)cc4)cc3)c2N)CC1

>  <score_type>  (64) 
oracle

>  <origin>  (64) 
adg

>  <m_score__min__energy>  (64) 
-7.4299999999999997

>  <m_primary>  (64) 
energy

$$$$
64:0
     RDKit          3D

 39 41  0  0  0  0  0  0  0  0999 V2000
   63.3730   32.3210   48.1060 C   0  0  0  0  0  0  0  0  0  0  0  0
   61.9020   33.1270   47.5100 S   0  0  0  0  0  0  0  0  0  0  0  0
   62.2210   33.8150   46.2140 O   0  0  0  0  0  0  0  0  0  0  0  0
   61.4300   34.1550   48.4990 O   0  0  0  0  0  0  0  0  0  0  0  0
   60.6540   31.9560   47.2270 N   0  0  0  0  0  0  0  0  0  0  0  0
   59.4060   32.2030   46.5650 C   0  0  0  0  0  0  0  0  0  0  0  0
   58.6210   33.3360   46.8390 C   0  0  0  0  0  0  0  0  0  0  0  0
   57.4100   33.5310   46.1700 C   0  0  0  0  0  0  0  0  0  0  0  0
   56.9720   32.6020   45.2240 C   0  0  0  0  0  0  0  0  0  0  0  0
   57.7480   31.4700   44.9330 C   0  0  0  0  0  0  0  0  0  0  0  0
   57.2620   30.4490   43.9380 C   0  0  0  0  0  0  0  0  0  0  0  0
   57.1700   29.0810   44.5810 C   0  0  0  0  0  0  0  0  0  0  0  0
   55.9470   28.6140   45.0990 C   0  0  0  0  0  0  0  0  0  0  0  0
   54.8090   29.4130   45.0680 O   0  0  0  0  0  0  0  0  0  0  0  0
   55.8630   27.3740   45.6440 N   0  0  0  0  0  0  0  0  0  0  0  0
   56.9300   26.5380   45.7100 C   0  0  0  0  0  0  0  0  0  0  0  0
   56.7860   25.2680   46.2800 C   0  0  0  0  0  0  0  0  0  0  0  0
   57.8780   24.4010   46.3500 C   0  0  0  0  0  0  0  0  0  0  0  0
   59.1270   24.7950   45.8490 C   0  0  0  0  0  0  0  0  0  0  0  0
   60.2420   23.9030   45.9220 N   0  0  0  0  0  0  0  0  0  0  0  0
   59.2770   26.0660   45.2760 C   0  0  0  0  0  0  0  0  0  0  0  0
   58.1820   26.9480   45.2020 C   0  0  0  0  0  0  0  0  0  0  0  0
   58.2950   28.2310   44.6330 C   0  0  0  0  0  0  0  0  0  0  0  0
   59.4030   28.6220   44.1700 O   0  0  0  0  0  0  0  0  0  0  0  0
   58.9630   31.2770   45.6110 C   0  0  0  0  0  0  0  0  0  0  0  0
   63.3715   32.3218   49.2060 H   0  0  0  0  0  0  0  0  0  0  0  0
   63.3967   31.2839   47.7401 H   0  0  0  0  0  0  0  0  0  0  0  0
   64.2598   32.8592   47.7401 H   0  0  0  0  0  0  0  0  0  0  0  0
   58.9611   34.0717   47.5826 H   0  0  0  0  0  0  0  0  0  0  0  0
   56.7995   34.4194   46.3893 H   0  0  0  0  0  0  0  0  0  0  0  0
   56.0148   32.7583   44.7049 H   0  0  0  0  0  0  0  0  0  0  0  0
   56.2673   30.7447   43.5730 H   0  0  0  0  0  0  0  0  0  0  0  0
   57.9750   30.4009   43.1017 H   0  0  0  0  0  0  0  0  0  0  0  0
   55.8090   24.9518   46.6743 H   0  0  0  0  0  0  0  0  0  0  0  0
   57.7581   23.4045   46.8001 H   0  0  0  0  0  0  0  0  0  0  0  0
   60.1470   22.9640   46.3680 H   0  0  0  0  0  0  0  0  0  0  0  0
   61.1720   24.1760   45.5330 H   0  0  0  0  0  0  0  0  0  0  0  0
   60.2561   26.3759   44.8819 H   0  0  0  0  0  0  0  0  0  0  0  0
   59.5736   30.3890   45.3906 H   0  0  0  0  0  0  0  0  0  0  0  0
  1  2  1  0
  2  3  2  0
  2  4  2  0
  2  5  1  0
  5  6  1  0
  6  7  2  0
  7  8  1  0
  8  9  2  0
  9 10  1  0
 10 11  1  0
 11 12  1  0
 12 13  2  0
 13 14  1  0
 13 15  1  0
 15 16  1  0
 16 17  2  0
 17 18  1  0
 18 19  2  0
 19 20  1  0
 19 21  1  0
 21 22  2  0
 22 23  1  0
 23 24  2  0
 10 25  2  0
 25  6  1  0
 23 12  1  0
 22 16  1  0
  1 26  1  0
  1 27  1  0
  1 28  1  0
  7 29  1  0
  8 30  1  0
  9 31  1  0
 11 32  1  0
 11 33  1  0
 17 34  1  0
 18 35  1  0
 20 36  1  0
 20 37  1  0
 21 38  1  0
 25 39  1  0
M  CHG  3   5  -1  14  -1  15  -1
M  END
>  <UniqueID>  (65) 
61

>  <SMILES>  (65) 
CS(=O)(=O)[N-]c1cccc(Cc2c([O-])[n-]c3ccc(N)cc3c2=O)c1

>  <Energy>  (65) 
44.81774505296019

>  <Genealogy>  (65) 
CS(=O)(=O)[N-]c1cccc(Cc2c([O-])[n-]c3ccc(N)cc3c2=O)c1 (protonated)
CS(=O)(=O)[N-]c1cccc(Cc2c([O-])[n-]c3ccc(N)cc3c2=O)c1 (3D coordinates assigned)
CS(=O)(=O)[N-]c1cccc(Cc2c([O-])[n-]c3ccc(N)cc3c2=O)c1 (optimized conformer: 44.81774505296019 kcal/mol)

>  <smiles>  (65) 
CS(=O)(=O)Nc1cccc(Cc2c(O)[nH]c3ccc(N)cc3c2=O)c1

>  <score_type>  (65) 
oracle

>  <origin>  (65) 
adg

>  <m_score__min__energy>  (65) 
-13.81

>  <m_primary>  (65) 
energy

$$$$
65:0
     RDKit          3D

 50 52  0  0  0  0  0  0  0  0999 V2000
   55.1180   24.8050   45.5390 C   0  0  0  0  0  0  0  0  0  0  0  0
   55.7450   25.7660   46.3830 O   0  0  0  0  0  0  0  0  0  0  0  0
   56.9280   26.4550   46.0640 C   0  0  0  0  0  0  0  0  0  0  0  0
   56.9420   27.8430   45.8340 C   0  0  0  0  0  0  0  0  0  0  0  0
   58.1480   28.4890   45.5160 C   0  0  0  0  0  0  0  0  0  0  0  0
   58.1790   29.9590   45.3070 C   0  0  0  0  0  0  0  0  0  0  0  0
   59.0640   30.6950   46.0350 N   0  0  0  0  0  0  0  0  0  0  0  0
   59.1920   32.0450   45.9190 C   0  0  0  0  0  0  0  0  0  0  0  0
   60.1500   32.7480   46.7420 N   0  0  0  0  0  0  0  0  0  0  0  0
   60.4530   32.2840   48.1080 C   0  0  0  0  0  0  0  0  0  0  0  0
   61.7690   32.8790   48.6310 C   0  0  0  0  0  0  0  0  0  0  0  0
   62.8150   32.8990   47.5050 C   0  0  0  0  0  0  0  0  0  0  0  0
   64.1260   33.3080   48.0530 N   0  0  0  0  0  0  0  0  0  0  0  0
   64.4310   32.5700   49.6010 S   0  0  0  0  0  0  0  0  0  0  0  0
   63.8520   33.5920   50.9400 C   0  0  0  0  0  0  0  0  0  0  0  0
   65.9120   32.3710   49.7590 O   0  0  0  0  0  0  0  0  0  0  0  0
   63.7500   31.2310   49.6680 O   0  0  0  0  0  0  0  0  0  0  0  0
   62.3510   33.8530   46.3690 C   0  0  0  0  0  0  0  0  0  0  0  0
   60.8190   33.9610   46.2410 C   0  0  0  0  0  0  0  0  0  0  0  0
   58.3750   32.7240   45.0010 C   0  0  0  0  0  0  0  0  0  0  0  0
   57.4500   32.0090   44.2440 C   0  0  0  0  0  0  0  0  0  0  0  0
   57.3360   30.6240   44.3870 C   0  0  0  0  0  0  0  0  0  0  0  0
   56.0880   29.8020   43.4530 Cl  0  0  0  0  0  0  0  0  0  0  0  0
   59.2950   27.7600   45.4550 N   0  0  0  0  0  0  0  0  0  0  0  0
   59.3150   26.4200   45.6710 C   0  0  0  0  0  0  0  0  0  0  0  0
   58.1310   25.7340   45.9750 C   0  0  0  0  0  0  0  0  0  0  0  0
   58.1530   24.2520   46.2220 C   0  0  0  0  0  0  0  0  0  0  0  0
   54.6208   24.0430   46.1572 H   0  0  0  0  0  0  0  0  0  0  0  0
   54.3723   25.3057   44.9040 H   0  0  0  0  0  0  0  0  0  0  0  0
   55.8767   24.3242   44.9040 H   0  0  0  0  0  0  0  0  0  0  0  0
   56.0092   28.4218   45.9032 H   0  0  0  0  0  0  0  0  0  0  0  0
   59.6341   32.5866   48.7772 H   0  0  0  0  0  0  0  0  0  0  0  0
   60.5575   31.1893   48.0831 H   0  0  0  0  0  0  0  0  0  0  0  0
   61.5912   33.9060   48.9826 H   0  0  0  0  0  0  0  0  0  0  0  0
   62.1416   32.2621   49.4620 H   0  0  0  0  0  0  0  0  0  0  0  0
   62.9212   31.8911   47.0773 H   0  0  0  0  0  0  0  0  0  0  0  0
   64.9010   32.9750   47.4340 H   0  0  0  0  0  0  0  0  0  0  0  0
   64.1171   33.1240   51.8996 H   0  0  0  0  0  0  0  0  0  0  0  0
   64.3221   34.5843   50.8737 H   0  0  0  0  0  0  0  0  0  0  0  0
   62.7592   33.6988   50.8737 H   0  0  0  0  0  0  0  0  0  0  0  0
   62.7546   34.8562   46.5708 H   0  0  0  0  0  0  0  0  0  0  0  0
   62.7249   33.4340   45.4232 H   0  0  0  0  0  0  0  0  0  0  0  0
   60.4716   34.8274   46.8230 H   0  0  0  0  0  0  0  0  0  0  0  0
   60.5685   34.0794   45.1765 H   0  0  0  0  0  0  0  0  0  0  0  0
   58.4649   33.8137   44.8804 H   0  0  0  0  0  0  0  0  0  0  0  0
   56.8044   32.5388   43.5282 H   0  0  0  0  0  0  0  0  0  0  0  0
   60.2653   25.8696   45.6071 H   0  0  0  0  0  0  0  0  0  0  0  0
   58.1558   24.0608   47.3053 H   0  0  0  0  0  0  0  0  0  0  0  0
   57.2616   23.7918   45.7708 H   0  0  0  0  0  0  0  0  0  0  0  0
   59.0577   23.8185   45.7708 H   0  0  0  0  0  0  0  0  0  0  0  0
  1  2  1  0
  2  3  1  0
  3  4  2  0
  4  5  1  0
  5  6  1  0
  6  7  2  0
  7  8  1  0
  8  9  1  0
  9 10  1  0
 10 11  1  0
 11 12  1  0
 12 13  1  0
 13 14  1  0
 14 15  1  0
 14 16  2  0
 14 17  2  0
 12 18  1  0
 18 19  1  0
  8 20  2  0
 20 21  1  0
 21 22  2  0
 22 23  1  0
  5 24  2  0
 24 25  1  0
 25 26  2  0
 26 27  1  0
 26  3  1  0
 22  6  1  0
 19  9  1  0
  1 28  1  0
  1 29  1  0
  1 30  1  0
  4 31  1  0
 10 32  1  0
 10 33  1  0
 11 34  1  0
 11 35  1  0
 12 36  1  0
 13 37  1  0
 15 38  1  0
 15 39  1  0
 15 40  1  0
 18 41  1  0
 18 42  1  0
 19 43  1  0
 19 44  1  0
 20 45  1  0
 21 46  1  0
 25 47  1  0
 27 48  1  0
 27 49  1  0
 27 50  1  0
M  END
>  <UniqueID>  (66) 
62

>  <SMILES>  (66) 
COc1cc(-c2nc(N3CCC(NS(C)(=O)=O)CC3)ccc2Cl)ncc1C

>  <Energy>  (66) 
57.53268923387795

>  <Genealogy>  (66) 
COc1cc(-c2nc(N3CCC(NS(C)(=O)=O)CC3)ccc2Cl)ncc1C (3D coordinates assigned)
COc1cc(-c2nc(N3CCC(NS(C)(=O)=O)CC3)ccc2Cl)ncc1C (nonaromatic ring conformer: 57.53268923387795 kcal/mol)

>  <smiles>  (66) 
COc1cc(-c2nc(N3CCC(NS(C)(=O)=O)CC3)ccc2Cl)ncc1C

>  <score_type>  (66) 
oracle

>  <origin>  (66) 
adg

>  <m_score__min__energy>  (66) 
-8.7699999999999996

>  <m_primary>  (66) 
energy

$$$$
66:0
     RDKit          3D

 69 73  0  0  0  0  0  0  0  0999 V2000
   60.3320   27.1440   45.9850 C   0  0  0  0  0  0  0  0  0  0  0  0
   59.5400   28.0950   45.4600 C   0  0  0  0  0  0  0  0  0  0  0  0
   58.2550   27.9020   44.9410 C   0  0  0  0  0  0  0  0  0  0  0  0
   57.5770   26.7720   44.6510 C   0  0  0  0  0  0  0  0  0  0  0  0
   57.0720   25.8000   45.6320 C   0  0  0  0  0  0  0  0  0  0  0  0
   57.8310   24.8340   46.1790 N   0  0  0  0  0  0  0  0  0  0  0  0
   57.0060   24.2670   47.0870 C   0  0  0  0  0  0  0  0  0  0  0  0
   57.3550   23.2960   47.8060 O   0  0  0  0  0  0  0  0  0  0  0  0
   55.7820   24.8310   47.1710 N   0  0  0  0  0  0  0  0  0  0  0  0
   55.8440   25.8070   46.2520 C   0  0  0  0  0  0  0  0  0  0  0  0
   54.8090   26.6980   46.0040 O   0  0  0  0  0  0  0  0  0  0  0  0
   57.7310   29.1590   44.7290 C   0  0  0  0  0  0  0  0  0  0  0  0
   58.7160   30.0790   45.0400 C   0  0  0  0  0  0  0  0  0  0  0  0
   58.5440   31.5600   44.9150 C   0  0  0  0  0  0  0  0  0  0  0  0
   58.4120   32.0790   43.7720 O   0  0  0  0  0  0  0  0  0  0  0  0
   58.6150   32.4230   46.0830 N   0  0  1  0  0  0  0  0  0  0  0  0
   59.6780   33.4190   45.9110 C   0  0  0  0  0  0  0  0  0  0  0  0
   59.0460   34.6400   45.2610 C   0  0  0  0  0  0  0  0  0  0  0  0
   57.5720   34.5740   45.6420 C   0  0  1  0  0  0  0  0  0  0  0  0
   56.7570   34.6960   44.5050 O   0  0  0  0  0  0  0  0  0  0  0  0
   57.3780   33.1990   46.2860 C   0  0  0  0  0  0  0  0  0  0  0  0
   59.8300   29.4270   45.4860 N   0  0  0  0  0  0  0  0  0  0  0  0
   61.0380   30.0430   46.0690 C   0  0  0  0  0  0  0  0  0  0  0  0
   60.6880   30.7440   47.3520 C   0  0  0  0  0  0  0  0  0  0  0  0
   59.5310   30.6050   47.8390 O   0  0  0  0  0  0  0  0  0  0  0  0
   61.6830   31.4620   48.0970 N   0  0  0  0  0  0  0  0  0  0  0  0
   61.9530   31.0530   49.4830 C   0  0  0  0  0  0  0  0  0  0  0  0
   62.5780   32.1870   50.3080 C   0  0  0  0  0  0  0  0  0  0  0  0
   63.7790   32.8880   49.6060 C   0  0  0  0  0  0  0  0  0  0  0  0
   65.1150   32.3800   50.0190 N   0  0  0  0  0  0  0  0  0  0  0  0
   65.0940   31.2630   50.9840 C   0  0  0  0  0  0  0  0  0  0  0  0
   66.5170   30.6800   51.1300 C   0  0  0  0  0  0  0  0  0  0  0  0
   67.5170   31.5360   50.5970 O   0  0  0  0  0  0  0  0  0  0  0  0
   67.3220   32.8600   51.0590 C   0  0  0  0  0  0  0  0  0  0  0  0
   66.0190   33.4510   50.4860 C   0  0  0  0  0  0  0  0  0  0  0  0
   63.6700   32.9100   48.0600 C   0  0  0  0  0  0  0  0  0  0  0  0
   62.2350   32.7140   47.5640 C   0  0  0  0  0  0  0  0  0  0  0  0
   61.3296   27.4077   46.3661 H   0  0  0  0  0  0  0  0  0  0  0  0
   59.9824   26.1021   46.0335 H   0  0  0  0  0  0  0  0  0  0  0  0
   57.3855   26.5596   43.5888 H   0  0  0  0  0  0  0  0  0  0  0  0
   56.7146   29.3888   44.3767 H   0  0  0  0  0  0  0  0  0  0  0  0
   58.7850   31.8550   46.9420 H   0  0  0  0  0  0  0  0  0  0  0  0
   60.1032   33.6897   46.8887 H   0  0  0  0  0  0  0  0  0  0  0  0
   60.4911   33.0200   45.2867 H   0  0  0  0  0  0  0  0  0  0  0  0
   59.5036   35.5631   45.6464 H   0  0  0  0  0  0  0  0  0  0  0  0
   59.1900   34.6475   44.1705 H   0  0  0  0  0  0  0  0  0  0  0  0
   57.2948   35.3924   46.3228 H   0  0  0  0  0  0  0  0  0  0  0  0
   56.9910   33.9380   43.9110 H   0  0  0  0  0  0  0  0  0  0  0  0
   57.1823   33.3150   47.3622 H   0  0  0  0  0  0  0  0  0  0  0  0
   56.5220   32.6803   45.8297 H   0  0  0  0  0  0  0  0  0  0  0  0
   61.7839   29.2607   46.2728 H   0  0  0  0  0  0  0  0  0  0  0  0
   61.4500   30.7743   45.3581 H   0  0  0  0  0  0  0  0  0  0  0  0
   61.0062   30.7513   49.9547 H   0  0  0  0  0  0  0  0  0  0  0  0
   62.6692   30.2185   49.4567 H   0  0  0  0  0  0  0  0  0  0  0  0
   61.8021   32.9418   50.5035 H   0  0  0  0  0  0  0  0  0  0  0  0
   62.9673   31.7338   51.2316 H   0  0  0  0  0  0  0  0  0  0  0  0
   63.7034   33.9250   49.9651 H   0  0  0  0  0  0  0  0  0  0  0  0
   64.7461   31.6294   51.9611 H   0  0  0  0  0  0  0  0  0  0  0  0
   64.4126   30.4791   50.6218 H   0  0  0  0  0  0  0  0  0  0  0  0
   66.7238   30.5198   52.1984 H   0  0  0  0  0  0  0  0  0  0  0  0
   66.5498   29.7376   50.5637 H   0  0  0  0  0  0  0  0  0  0  0  0
   67.2633   32.8541   52.1574 H   0  0  0  0  0  0  0  0  0  0  0  0
   68.1677   33.4791   50.7251 H   0  0  0  0  0  0  0  0  0  0  0  0
   65.5126   34.0335   51.2697 H   0  0  0  0  0  0  0  0  0  0  0  0
   66.2716   34.0954   49.6310 H   0  0  0  0  0  0  0  0  0  0  0  0
   64.0385   33.8802   47.6954 H   0  0  0  0  0  0  0  0  0  0  0  0
   64.2713   32.0739   47.6735 H   0  0  0  0  0  0  0  0  0  0  0  0
   61.6151   33.5576   47.9015 H   0  0  0  0  0  0  0  0  0  0  0  0
   62.2374   32.6671   46.4650 H   0  0  0  0  0  0  0  0  0  0  0  0
  1  2  2  0
  2  3  1  0
  3  4  2  3
  4  5  1  0
  5  6  1  0
  6  7  1  0
  7  8  2  0
  7  9  1  0
  9 10  1  0
 10 11  1  0
  3 12  1  0
 12 13  2  0
 13 14  1  0
 14 15  2  0
 14 16  1  0
 16 17  1  0
 17 18  1  0
 18 19  1  0
 19 20  1  0
 19 21  1  0
 13 22  1  0
 22 23  1  0
 23 24  1  0
 24 25  2  0
 24 26  1  0
 26 27  1  0
 27 28  1  0
 28 29  1  0
 29 30  1  0
 30 31  1  0
 31 32  1  0
 32 33  1  0
 33 34  1  0
 34 35  1  0
 29 36  1  0
 36 37  1  0
 22  2  1  0
 37 26  1  0
 10  5  2  0
 21 16  1  0
 35 30  1  0
  1 38  1  0
  1 39  1  0
  4 40  1  0
 12 41  1  0
 16 42  1  1
 17 43  1  0
 17 44  1  0
 18 45  1  0
 18 46  1  0
 19 47  1  1
 20 48  1  0
 21 49  1  0
 21 50  1  0
 23 51  1  0
 23 52  1  0
 27 53  1  0
 27 54  1  0
 28 55  1  0
 28 56  1  0
 29 57  1  0
 31 58  1  0
 31 59  1  0
 32 60  1  0
 32 61  1  0
 34 62  1  0
 34 63  1  0
 35 64  1  0
 35 65  1  0
 36 66  1  0
 36 67  1  0
 37 68  1  0
 37 69  1  0
M  CHG  4   6  -1   9  -1  11  -1  16   1
M  END
>  <UniqueID>  (67) 
63

>  <SMILES>  (67) 
C=c1c(=Cc2[n-]c(=O)[n-]c2[O-])cc(C(=O)[N@H+]2CC[C@@H](O)C2)n1CC(=O)N1CCC(N2CCOCC2)CC1

>  <Energy>  (67) 
170.69444684462383

>  <Genealogy>  (67) 
C=c1c(=Cc2[n-]c(=O)[n-]c2[O-])cc(C(=O)[NH+]2CCC(O)C2)n1CC(=O)N1CCC(N2CCOCC2)CC1 (protonated)
C=c1c(=Cc2[n-]c(=O)[n-]c2[O-])cc(C(=O)[N@H+]2CC[C@@H](O)C2)n1CC(=O)N1CCC(N2CCOCC2)CC1 (chirality)
C=c1c(=Cc2[n-]c(=O)[n-]c2[O-])cc(C(=O)[N@H+]2CC[C@@H](O)C2)n1CC(=O)N1CCC(N2CCOCC2)CC1 (3D coordinates assigned)
C=c1c(=Cc2[n-]c(=O)[n-]c2[O-])cc(C(=O)[N@H+]2CC[C@@H](O)C2)n1CC(=O)N1CCC(N2CCOCC2)CC1 (nonaromatic ring conformer: 170.69444684462383 kcal/mol)

>  <smiles>  (67) 
C=c1c(=Cc2[nH]c(=O)[nH]c2O)cc(C(=O)N2CCC(O)C2)n1CC(=O)N1CCC(N2CCOCC2)CC1

>  <score_type>  (67) 
oracle

>  <origin>  (67) 
adg

>  <m_score__min__energy>  (67) 
-15.01

>  <m_primary>  (67) 
energy

$$$$
67:0
     RDKit          3D

 58 61  0  0  0  0  0  0  0  0999 V2000
   60.3887   34.9583   48.8401 H   0  0  0  0  0  0  0  0  0  0  0  0
   59.7560   34.5350   48.0460 C   0  0  0  0  0  0  0  0  0  0  0  0
   59.7280   35.1320   46.7820 C   0  0  0  0  0  0  0  0  0  0  0  0
   60.3367   36.0264   46.5830 H   0  0  0  0  0  0  0  0  0  0  0  0
   58.9270   34.5930   45.7710 C   0  0  0  0  0  0  0  0  0  0  0  0
   58.9011   35.0699   44.7801 H   0  0  0  0  0  0  0  0  0  0  0  0
   58.1550   33.4450   46.0150 C   0  0  0  0  0  0  0  0  0  0  0  0
   57.2650   32.8870   44.9380 C   0  0  0  0  0  0  0  0  0  0  0  0
   57.2599   33.5754   44.0801 H   0  0  0  0  0  0  0  0  0  0  0  0
   56.2475   32.7746   45.3406 H   0  0  0  0  0  0  0  0  0  0  0  0
   57.7710   31.5140   44.4800 C   0  0  0  0  0  0  0  0  0  0  0  0
   58.7351   31.3040   44.9662 H   0  0  0  0  0  0  0  0  0  0  0  0
   57.8898   31.5278   43.3865 H   0  0  0  0  0  0  0  0  0  0  0  0
   56.8150   30.4650   44.8360 N   0  0  0  0  0  0  0  0  0  0  0  0
   57.1100   29.4000   45.5180 C   0  0  0  0  0  0  0  0  0  0  0  0
   56.7150   28.1840   45.0630 N   0  0  0  0  0  0  0  0  0  0  0  0
   57.0120   27.0530   45.7590 C   0  0  0  0  0  0  0  0  0  0  0  0
   56.5890   25.7620   45.2700 N   0  0  0  0  0  0  0  0  0  0  0  0
   55.5570   25.0090   45.9950 C   0  0  0  0  0  0  0  0  0  0  0  0
   56.0232   24.4713   46.8337 H   0  0  0  0  0  0  0  0  0  0  0  0
   54.8001   25.7134   46.3703 H   0  0  0  0  0  0  0  0  0  0  0  0
   54.8770   24.0000   45.0650 C   0  0  0  0  0  0  0  0  0  0  0  0
   54.2231   23.3455   45.6599 H   0  0  0  0  0  0  0  0  0  0  0  0
   54.2893   24.5518   44.3166 H   0  0  0  0  0  0  0  0  0  0  0  0
   55.8360   23.2090   44.3930 O   0  0  0  0  0  0  0  0  0  0  0  0
   56.5890   24.0250   43.5190 C   0  0  0  0  0  0  0  0  0  0  0  0
   57.2585   23.3898   42.9204 H   0  0  0  0  0  0  0  0  0  0  0  0
   55.8951   24.5744   42.8658 H   0  0  0  0  0  0  0  0  0  0  0  0
   57.4280   25.0380   44.3040 C   0  0  0  0  0  0  0  0  0  0  0  0
   58.2256   24.5066   44.8439 H   0  0  0  0  0  0  0  0  0  0  0  0
   57.8643   25.7611   43.5992 H   0  0  0  0  0  0  0  0  0  0  0  0
   57.7120   27.1530   46.9220 N   0  0  0  0  0  0  0  0  0  0  0  0
   58.1130   28.3640   47.3840 C   0  0  0  0  0  0  0  0  0  0  0  0
   58.7760   28.4360   48.4980 N   0  0  0  0  0  0  0  0  0  0  0  0
   60.2210   28.2490   48.5980 C   0  0  0  0  0  0  0  0  0  0  0  0
   60.5632   27.5898   47.7866 H   0  0  0  0  0  0  0  0  0  0  0  0
   60.4670   27.7917   49.5677 H   0  0  0  0  0  0  0  0  0  0  0  0
   60.9030   29.5810   48.4830 C   0  0  0  0  0  0  0  0  0  0  0  0
   61.4850   30.1780   49.6130 C   0  0  0  0  0  0  0  0  0  0  0  0
   61.4161   29.6813   50.5920 H   0  0  0  0  0  0  0  0  0  0  0  0
   62.1520   31.4020   49.4980 C   0  0  0  0  0  0  0  0  0  0  0  0
   62.6029   31.8659   50.3876 H   0  0  0  0  0  0  0  0  0  0  0  0
   62.2480   32.0390   48.2550 C   0  0  0  0  0  0  0  0  0  0  0  0
   63.1030   33.5720   48.1100 S   0  0  0  0  0  0  0  0  0  0  0  0
   62.8960   34.1430   46.7360 O   0  0  0  0  0  0  0  0  0  0  0  0
   62.5720   34.5470   49.1230 O   0  0  0  0  0  0  0  0  0  0  0  0
   64.7910   33.3150   48.3790 N   0  0  0  0  0  0  0  0  0  0  0  0
   65.2710   33.4490   47.4610 H   0  0  0  0  0  0  0  0  0  0  0  0
   64.9110   32.3100   48.6380 H   0  0  0  0  0  0  0  0  0  0  0  0
   61.6880   31.4340   47.1220 C   0  0  0  0  0  0  0  0  0  0  0  0
   61.7734   31.9237   46.1407 H   0  0  0  0  0  0  0  0  0  0  0  0
   61.0210   30.2100   47.2340 C   0  0  0  0  0  0  0  0  0  0  0  0
   60.5872   29.7385   46.3398 H   0  0  0  0  0  0  0  0  0  0  0  0
   57.8120   29.4850   46.6780 N   0  0  0  0  0  0  0  0  0  0  0  0
   58.1770   32.8590   47.2920 C   0  0  0  0  0  0  0  0  0  0  0  0
   57.5605   31.9717   47.4987 H   0  0  0  0  0  0  0  0  0  0  0  0
   58.9800   33.4000   48.3010 C   0  0  0  0  0  0  0  0  0  0  0  0
   59.0012   32.9322   49.2964 H   0  0  0  0  0  0  0  0  0  0  0  0
  1  2  1  0
  2  3  2  0
  3  4  1  0
  3  5  1  0
  5  6  1  0
  5  7  2  0
  7  8  1  0
  8  9  1  0
  8 10  1  0
  8 11  1  0
 11 12  1  0
 11 13  1  0
 11 14  1  0
 14 15  2  0
 15 16  1  0
 16 17  2  0
 17 18  1  0
 18 19  1  0
 19 20  1  0
 19 21  1  0
 19 22  1  0
 22 23  1  0
 22 24  1  0
 22 25  1  0
 25 26  1  0
 26 27  1  0
 26 28  1  0
 26 29  1  0
 29 30  1  0
 29 31  1  0
 17 32  1  0
 32 33  1  0
 33 34  2  3
 34 35  1  0
 35 36  1  0
 35 37  1  0
 35 38  1  0
 38 39  2  0
 39 40  1  0
 39 41  1  0
 41 42  1  0
 41 43  2  0
 43 44  1  0
 44 45  2  0
 44 46  2  0
 44 47  1  0
 47 48  1  0
 47 49  1  0
 43 50  1  0
 50 51  1  0
 50 52  2  0
 52 53  1  0
 33 54  1  0
  7 55  1  0
 55 56  1  0
 55 57  2  0
 57 58  1  0
 57  2  1  0
 54 15  1  0
 29 18  1  0
 52 38  1  0
M  CHG  2  32  -1  54  -1
M  END
>  <UniqueID>  (68) 
64

>  <SMILES>  (68) 
NS(=O)(=O)c1ccc(CN=c2[n-]c(N3CCOCC3)n/c(=N/CCc3ccccc3)[n-]2)cc1

>  <Energy>  (68) 
57.031779917486006

>  <Genealogy>  (68) 
NS(=O)(=O)c1ccc(CN=c2[n-]c(N3CCOCC3)nc(=NCCc3ccccc3)[n-]2)cc1 (protonated)
NS(=O)(=O)c1ccc(CN=c2[n-]c(N3CCOCC3)n/c(=N/CCc3ccccc3)[n-]2)cc1 (cis-trans isomerization)
NS(=O)(=O)c1ccc(CN=c2[n-]c(N3CCOCC3)n/c(=N/CCc3ccccc3)[n-]2)cc1 (3D coordinates assigned)
NS(=O)(=O)c1ccc(CN=c2[n-]c(N3CCOCC3)n/c(=N/CCc3ccccc3)[n-]2)cc1 (nonaromatic ring conformer: 57.031779917486006 kcal/mol)

>  <smiles>  (68) 
NS(=O)(=O)c1ccc(CN=c2[nH]c(N3CCOCC3)nc(=NCCc3ccccc3)[nH]2)cc1

>  <score_type>  (68) 
oracle

>  <origin>  (68) 
adg

>  <m_score__min__energy>  (68) 
-11.619999999999999

>  <m_primary>  (68) 
energy

$$$$
68:0
     RDKit          3D

 54 57  0  0  0  0  0  0  0  0999 V2000
   58.3300   29.3080   49.6300 O   0  0  0  0  0  0  0  0  0  0  0  0
   59.5470   29.3410   49.2950 C   0  0  0  0  0  0  0  0  0  0  0  0
   60.0460   28.3900   48.3420 N   0  0  0  0  0  0  0  0  0  0  0  0
   59.2040   27.6870   47.4120 C   0  0  0  0  0  0  0  0  0  0  0  0
   59.4150   26.3290   47.1240 C   0  0  0  0  0  0  0  0  0  0  0  0
   58.5780   25.6600   46.2280 C   0  0  0  0  0  0  0  0  0  0  0  0
   57.5220   26.3390   45.6150 C   0  0  0  0  0  0  0  0  0  0  0  0
   57.2850   27.6880   45.9030 C   0  0  0  0  0  0  0  0  0  0  0  0
   56.1890   28.3430   45.2510 N   0  0  0  0  0  0  0  0  0  0  0  0
   56.3170   29.3540   43.8470 S   0  0  0  0  0  0  0  0  0  0  0  0
   57.0300   28.6010   42.7570 O   0  0  0  0  0  0  0  0  0  0  0  0
   54.9410   29.7450   43.3880 O   0  0  0  0  0  0  0  0  0  0  0  0
   57.2230   30.8150   44.2350 C   0  0  0  0  0  0  0  0  0  0  0  0
   57.7020   31.0320   45.5380 C   0  0  0  0  0  0  0  0  0  0  0  0
   58.3920   32.2090   45.8500 C   0  0  0  0  0  0  0  0  0  0  0  0
   58.6080   33.1770   44.8650 C   0  0  0  0  0  0  0  0  0  0  0  0
   58.1400   32.9670   43.5660 C   0  0  0  0  0  0  0  0  0  0  0  0
   57.4470   31.7900   43.2480 C   0  0  0  0  0  0  0  0  0  0  0  0
   56.9870   31.6070   41.9820 F   0  0  0  0  0  0  0  0  0  0  0  0
   58.1240   28.3570   46.8140 C   0  0  0  0  0  0  0  0  0  0  0  0
   60.4530   30.3230   49.9350 C   0  0  0  0  0  0  0  0  0  0  0  0
   61.8110   30.0100   50.1290 C   0  0  0  0  0  0  0  0  0  0  0  0
   62.6710   30.9250   50.7390 C   0  0  0  0  0  0  0  0  0  0  0  0
   62.1870   32.1670   51.1770 C   0  0  0  0  0  0  0  0  0  0  0  0
   63.0990   33.1360   51.8800 C   0  0  0  0  0  0  0  0  0  0  0  0
   64.3460   33.8210   50.7280 S   0  0  0  0  0  0  0  0  0  0  0  0
   63.3510   33.5970   49.2480 C   0  0  0  0  0  0  0  0  0  0  0  0
   63.7380   32.6630   48.2770 C   0  0  0  0  0  0  0  0  0  0  0  0
   62.9660   32.4910   47.1240 C   0  0  0  0  0  0  0  0  0  0  0  0
   61.8120   33.2580   46.9320 C   0  0  0  0  0  0  0  0  0  0  0  0
   61.4300   34.1980   47.8950 C   0  0  0  0  0  0  0  0  0  0  0  0
   62.1990   34.3690   49.0510 C   0  0  0  0  0  0  0  0  0  0  0  0
   60.8310   32.4790   50.9990 C   0  0  0  0  0  0  0  0  0  0  0  0
   59.9720   31.5670   50.3800 C   0  0  0  0  0  0  0  0  0  0  0  0
   61.0510   28.1130   48.4040 H   0  0  0  0  0  0  0  0  0  0  0  0
   60.2434   25.7894   47.6063 H   0  0  0  0  0  0  0  0  0  0  0  0
   58.7505   24.5968   46.0046 H   0  0  0  0  0  0  0  0  0  0  0  0
   56.8728   25.8101   44.9016 H   0  0  0  0  0  0  0  0  0  0  0  0
   57.5339   30.2733   46.3165 H   0  0  0  0  0  0  0  0  0  0  0  0
   58.7649   32.3726   46.8719 H   0  0  0  0  0  0  0  0  0  0  0  0
   59.1463   34.1037   45.1129 H   0  0  0  0  0  0  0  0  0  0  0  0
   58.3154   33.7269   42.7902 H   0  0  0  0  0  0  0  0  0  0  0  0
   57.9325   29.4120   47.0593 H   0  0  0  0  0  0  0  0  0  0  0  0
   62.1985   29.0355   49.7970 H   0  0  0  0  0  0  0  0  0  0  0  0
   63.7324   30.6712   50.8768 H   0  0  0  0  0  0  0  0  0  0  0  0
   62.4985   33.9607   52.2914 H   0  0  0  0  0  0  0  0  0  0  0  0
   63.6237   32.6009   52.6852 H   0  0  0  0  0  0  0  0  0  0  0  0
   64.6497   32.0649   48.4222 H   0  0  0  0  0  0  0  0  0  0  0  0
   63.2665   31.7517   46.3670 H   0  0  0  0  0  0  0  0  0  0  0  0
   61.2054   33.1221   46.0245 H   0  0  0  0  0  0  0  0  0  0  0  0
   60.5241   34.8032   47.7431 H   0  0  0  0  0  0  0  0  0  0  0  0
   61.8987   35.1105   49.8060 H   0  0  0  0  0  0  0  0  0  0  0  0
   60.4418   33.4467   51.3485 H   0  0  0  0  0  0  0  0  0  0  0  0
   58.9117   31.8242   50.2399 H   0  0  0  0  0  0  0  0  0  0  0  0
  1  2  2  0
  2  3  1  0
  3  4  1  0
  4  5  2  0
  5  6  1  0
  6  7  2  0
  7  8  1  0
  8  9  1  0
  9 10  1  0
 10 11  2  0
 10 12  2  0
 10 13  1  0
 13 14  2  0
 14 15  1  0
 15 16  2  0
 16 17  1  0
 17 18  2  0
 18 19  1  0
  8 20  2  0
  2 21  1  0
 21 22  2  0
 22 23  1  0
 23 24  2  0
 24 25  1  0
 25 26  1  0
 26 27  1  0
 27 28  2  0
 28 29  1  0
 29 30  2  0
 30 31  1  0
 31 32  2  0
 24 33  1  0
 33 34  2  0
 20  4  1  0
 34 21  1  0
 18 13  1  0
 32 27  1  0
  3 35  1  0
  5 36  1  0
  6 37  1  0
  7 38  1  0
 14 39  1  0
 15 40  1  0
 16 41  1  0
 17 42  1  0
 20 43  1  0
 22 44  1  0
 23 45  1  0
 25 46  1  0
 25 47  1  0
 28 48  1  0
 29 49  1  0
 30 50  1  0
 31 51  1  0
 32 52  1  0
 33 53  1  0
 34 54  1  0
M  CHG  1   9  -1
M  END
>  <UniqueID>  (69) 
65

>  <SMILES>  (69) 
O=C(Nc1cccc([N-]S(=O)(=O)c2ccccc2F)c1)c1ccc(CSc2ccccc2)cc1

>  <Energy>  (69) 
63.924968862081776

>  <Genealogy>  (69) 
O=C(Nc1cccc([N-]S(=O)(=O)c2ccccc2F)c1)c1ccc(CSc2ccccc2)cc1 (protonated)
O=C(Nc1cccc([N-]S(=O)(=O)c2ccccc2F)c1)c1ccc(CSc2ccccc2)cc1 (3D coordinates assigned)
O=C(Nc1cccc([N-]S(=O)(=O)c2ccccc2F)c1)c1ccc(CSc2ccccc2)cc1 (optimized conformer: 63.924968862081776 kcal/mol)

>  <smiles>  (69) 
O=C(Nc1cccc(NS(=O)(=O)c2ccccc2F)c1)c1ccc(CSc2ccccc2)cc1

>  <score_type>  (69) 
oracle

>  <origin>  (69) 
adg

>  <m_score__min__energy>  (69) 
-11.970000000000001

>  <m_primary>  (69) 
energy

$$$$
69:0
     RDKit          3D

 37 40  0  0  0  0  0  0  0  0999 V2000
   57.2436   31.9050   42.4281 H   0  0  0  0  0  0  0  0  0  0  0  0
   57.0280   31.1960   43.2410 C   0  0  0  0  0  0  0  0  0  0  0  0
   56.2760   29.6980   43.0710 S   0  0  0  0  0  0  0  0  0  0  0  0
   56.3550   29.3590   44.7100 C   0  0  0  0  0  0  0  0  0  0  0  0
   55.9350   28.2470   45.2380 N   0  0  0  0  0  0  0  0  0  0  0  0
   56.6970   27.3200   46.0300 C   0  0  0  0  0  0  0  0  0  0  0  0
   56.1500   26.2390   46.3750 O   0  0  0  0  0  0  0  0  0  0  0  0
   58.1260   27.5930   46.4420 C   0  0  2  0  0  0  0  0  0  0  0  0
   58.5233   26.6922   46.9325 H   0  0  0  0  0  0  0  0  0  0  0  0
   58.1400   28.6920   47.3600 O   0  0  0  0  0  0  0  0  0  0  0  0
   59.2560   29.5110   47.5520 C   0  0  0  0  0  0  0  0  0  0  0  0
   59.3520   30.3070   48.6990 C   0  0  0  0  0  0  0  0  0  0  0  0
   58.5508   30.2854   49.4524 H   0  0  0  0  0  0  0  0  0  0  0  0
   60.4670   31.1300   48.8870 C   0  0  0  0  0  0  0  0  0  0  0  0
   60.5471   31.7481   49.7934 H   0  0  0  0  0  0  0  0  0  0  0  0
   61.4800   31.1680   47.9240 C   0  0  0  0  0  0  0  0  0  0  0  0
   62.3574   31.8140   48.0750 H   0  0  0  0  0  0  0  0  0  0  0  0
   61.3790   30.3850   46.7680 C   0  0  0  0  0  0  0  0  0  0  0  0
   62.1722   30.4228   46.0068 H   0  0  0  0  0  0  0  0  0  0  0  0
   60.2670   29.5530   46.5810 C   0  0  0  0  0  0  0  0  0  0  0  0
   60.1260   28.7690   45.3920 N   0  0  0  0  0  0  0  0  0  0  0  0
   60.8200   28.8600   44.6160 H   0  0  0  0  0  0  0  0  0  0  0  0
   59.0370   27.8500   45.2600 C   0  0  0  0  0  0  0  0  0  0  0  0
   58.9080   27.1840   44.1990 O   0  0  0  0  0  0  0  0  0  0  0  0
   56.9530   30.3530   45.3990 N   0  0  0  0  0  0  0  0  0  0  0  0
   57.3310   31.3830   44.5940 C   0  0  0  0  0  0  0  0  0  0  0  0
   58.0060   32.5850   45.1510 C   0  0  0  0  0  0  0  0  0  0  0  0
   58.0290   32.7890   46.5460 C   0  0  0  0  0  0  0  0  0  0  0  0
   57.5373   32.0641   47.2114 H   0  0  0  0  0  0  0  0  0  0  0  0
   58.6710   33.9040   47.0900 C   0  0  0  0  0  0  0  0  0  0  0  0
   58.6826   34.0529   48.1798 H   0  0  0  0  0  0  0  0  0  0  0  0
   59.2980   34.8300   46.2540 C   0  0  0  0  0  0  0  0  0  0  0  0
   59.8024   35.7075   46.6847 H   0  0  0  0  0  0  0  0  0  0  0  0
   59.2840   34.6410   44.8720 C   0  0  0  0  0  0  0  0  0  0  0  0
   59.7773   35.3715   44.2140 H   0  0  0  0  0  0  0  0  0  0  0  0
   58.6450   33.5260   44.3200 C   0  0  0  0  0  0  0  0  0  0  0  0
   58.6414   33.3829   43.2294 H   0  0  0  0  0  0  0  0  0  0  0  0
  1  2  1  0
  2  3  1  0
  3  4  1  0
  4  5  2  0
  5  6  1  0
  6  7  2  0
  6  8  1  0
  8  9  1  1
  8 10  1  0
 10 11  1  0
 11 12  2  0
 12 13  1  0
 12 14  1  0
 14 15  1  0
 14 16  2  0
 16 17  1  0
 16 18  1  0
 18 19  1  0
 18 20  2  0
 20 21  1  0
 21 22  1  0
 21 23  1  0
 23 24  2  0
  4 25  1  0
 25 26  1  0
 26 27  1  0
 27 28  2  0
 28 29  1  0
 28 30  1  0
 30 31  1  0
 30 32  2  0
 32 33  1  0
 32 34  1  0
 34 35  1  0
 34 36  2  0
 36 37  1  0
 26  2  2  0
 36 27  1  0
 23  8  1  0
 20 11  1  0
M  CHG  1  25  -1
M  END
>  <UniqueID>  (70) 
66

>  <SMILES>  (70) 
O=C(/N=c1\[n-]c(-c2ccccc2)cs1)[C@@H]1Oc2ccccc2NC1=O

>  <Energy>  (70) 
78.57719856022696

>  <Genealogy>  (70) 
O=C(N=c1[n-]c(-c2ccccc2)cs1)C1Oc2ccccc2NC1=O (protonated)
O=C(N=c1[n-]c(-c2ccccc2)cs1)[C@@H]1Oc2ccccc2NC1=O (chirality)
O=C(/N=c1\[n-]c(-c2ccccc2)cs1)[C@@H]1Oc2ccccc2NC1=O (cis-trans isomerization)
O=C(/N=c1\[n-]c(-c2ccccc2)cs1)[C@@H]1Oc2ccccc2NC1=O (3D coordinates assigned)
O=C(/N=c1\[n-]c(-c2ccccc2)cs1)[C@@H]1Oc2ccccc2NC1=O (nonaromatic ring conformer: 78.57719856022696 kcal/mol)

>  <smiles>  (70) 
O=C(N=c1[nH]c(-c2ccccc2)cs1)C1Oc2ccccc2NC1=O

>  <score_type>  (70) 
oracle

>  <origin>  (70) 
adg

>  <m_score__min__energy>  (70) 
-10.1

>  <m_primary>  (70) 
energy

$$$$
70:0
     RDKit          3D

 44 46  0  0  0  0  0  0  0  0999 V2000
   57.1640   20.7800   44.6580 C   0  0  0  0  0  0  0  0  0  0  0  0
   56.5810   22.0130   44.0370 C   0  0  0  0  0  0  0  0  0  0  0  0
   55.9140   21.8840   42.9740 O   0  0  0  0  0  0  0  0  0  0  0  0
   56.7700   23.3690   44.6220 C   0  0  0  0  0  0  0  0  0  0  0  0
   58.0760   23.8720   44.7790 C   0  0  0  0  0  0  0  0  0  0  0  0
   58.2940   25.1420   45.3180 C   0  0  0  0  0  0  0  0  0  0  0  0
   57.2120   25.9430   45.7040 C   0  0  0  0  0  0  0  0  0  0  0  0
   57.4490   27.2920   46.3190 C   0  0  0  0  0  0  0  0  0  0  0  0
   56.6400   28.2890   45.6210 N   0  0  0  0  0  0  0  0  0  0  0  0
   57.0240   29.4810   45.2630 C   0  0  0  0  0  0  0  0  0  0  0  0
   57.8380   30.2910   46.0840 C   0  0  0  0  0  0  0  0  0  0  0  0
   58.2210   31.5700   45.6440 C   0  0  0  0  0  0  0  0  0  0  0  0
   59.0760   32.4380   46.4940 C   0  0  0  0  0  0  0  0  0  0  0  0
   58.4960   33.3080   47.4320 C   0  0  0  0  0  0  0  0  0  0  0  0
   59.3000   34.1210   48.2320 C   0  0  0  0  0  0  0  0  0  0  0  0
   60.6900   34.0820   48.1050 C   0  0  0  0  0  0  0  0  0  0  0  0
   61.2950   33.2280   47.1670 C   0  0  0  0  0  0  0  0  0  0  0  0
   62.7700   33.1660   47.0250 C   0  0  0  0  0  0  0  0  0  0  0  0
   63.5170   32.0340   47.4770 N   0  0  0  0  0  0  0  0  0  0  0  0
   63.3890   34.1350   46.5080 O   0  0  0  0  0  0  0  0  0  0  0  0
   60.4770   32.4020   46.3720 C   0  0  0  0  0  0  0  0  0  0  0  0
   57.7820   32.0140   44.3870 C   0  0  0  0  0  0  0  0  0  0  0  0
   56.9790   31.1860   43.6040 C   0  0  0  0  0  0  0  0  0  0  0  0
   56.6230   29.9560   44.0550 N   0  0  0  0  0  0  0  0  0  0  0  0
   55.9090   25.4430   45.5760 C   0  0  0  0  0  0  0  0  0  0  0  0
   55.6830   24.1720   45.0370 C   0  0  0  0  0  0  0  0  0  0  0  0
   54.4040   23.7290   44.9640 F   0  0  0  0  0  0  0  0  0  0  0  0
   57.1229   20.8668   45.7538 H   0  0  0  0  0  0  0  0  0  0  0  0
   56.5865   19.9001   44.3380 H   0  0  0  0  0  0  0  0  0  0  0  0
   58.2105   20.6680   44.3380 H   0  0  0  0  0  0  0  0  0  0  0  0
   58.9352   23.2570   44.4733 H   0  0  0  0  0  0  0  0  0  0  0  0
   59.3215   25.5152   45.4400 H   0  0  0  0  0  0  0  0  0  0  0  0
   57.1651   27.2666   47.3814 H   0  0  0  0  0  0  0  0  0  0  0  0
   58.5136   27.5548   46.2327 H   0  0  0  0  0  0  0  0  0  0  0  0
   58.1716   29.9224   47.0652 H   0  0  0  0  0  0  0  0  0  0  0  0
   57.4017   33.3487   47.5365 H   0  0  0  0  0  0  0  0  0  0  0  0
   58.8364   34.7960   48.9664 H   0  0  0  0  0  0  0  0  0  0  0  0
   61.3154   34.7237   48.7431 H   0  0  0  0  0  0  0  0  0  0  0  0
   63.0810   31.2790   48.0510 H   0  0  0  0  0  0  0  0  0  0  0  0
   64.5480   31.9900   47.3120 H   0  0  0  0  0  0  0  0  0  0  0  0
   60.9403   31.7187   45.6451 H   0  0  0  0  0  0  0  0  0  0  0  0
   58.0702   33.0106   44.0214 H   0  0  0  0  0  0  0  0  0  0  0  0
   56.6330   31.5302   42.6182 H   0  0  0  0  0  0  0  0  0  0  0  0
   55.0559   26.0558   45.9025 H   0  0  0  0  0  0  0  0  0  0  0  0
  1  2  1  0
  2  3  2  0
  2  4  1  0
  4  5  2  0
  5  6  1  0
  6  7  2  0
  7  8  1  0
  8  9  1  0
  9 10  2  3
 10 11  1  0
 11 12  2  0
 12 13  1  0
 13 14  2  0
 14 15  1  0
 15 16  2  0
 16 17  1  0
 17 18  1  0
 18 19  1  0
 18 20  2  0
 17 21  2  0
 12 22  1  0
 22 23  2  0
 23 24  1  0
  7 25  1  0
 25 26  2  0
 26 27  1  0
 26  4  1  0
 24 10  1  0
 21 13  1  0
  1 28  1  0
  1 29  1  0
  1 30  1  0
  5 31  1  0
  6 32  1  0
  8 33  1  0
  8 34  1  0
 11 35  1  0
 14 36  1  0
 15 37  1  0
 16 38  1  0
 19 39  1  0
 19 40  1  0
 21 41  1  0
 22 42  1  0
 23 43  1  0
 25 44  1  0
M  CHG  1  24  -1
M  END
>  <UniqueID>  (71) 
67

>  <SMILES>  (71) 
CC(=O)c1ccc(CN=c2cc(-c3cccc(C(N)=O)c3)cc[n-]2)cc1F

>  <Energy>  (71) 
57.108783477599516

>  <Genealogy>  (71) 
CC(=O)c1ccc(CN=c2cc(-c3cccc(C(N)=O)c3)cc[n-]2)cc1F (protonated)
CC(=O)c1ccc(CN=c2cc(-c3cccc(C(N)=O)c3)cc[n-]2)cc1F (3D coordinates assigned)
CC(=O)c1ccc(CN=c2cc(-c3cccc(C(N)=O)c3)cc[n-]2)cc1F (optimized conformer: 57.108783477599516 kcal/mol)

>  <smiles>  (71) 
CC(=O)c1ccc(CN=c2cc(-c3cccc(C(N)=O)c3)cc[nH]2)cc1F

>  <score_type>  (71) 
oracle

>  <origin>  (71) 
adg

>  <m_score__min__energy>  (71) 
-10.15

>  <m_primary>  (71) 
energy

$$$$
71:0
     RDKit          3D

 41 43  0  0  0  0  0  0  0  0999 V2000
   56.7077   27.7557   45.5711 H   0  0  0  0  0  0  0  0  0  0  0  0
   57.2260   28.7180   45.4470 C   0  0  0  0  0  0  0  0  0  0  0  0
   56.5580   29.8820   45.2310 N   0  0  0  0  0  0  0  0  0  0  0  0
   57.4020   30.9280   45.1160 C   0  0  0  0  0  0  0  0  0  0  0  0
   56.9820   32.1270   44.8340 N   0  0  0  0  0  0  0  0  0  0  0  0
   57.3740   33.3350   45.5020 C   0  0  0  0  0  0  0  0  0  0  0  0
   56.8620   34.4230   45.1320 O   0  0  0  0  0  0  0  0  0  0  0  0
   58.3180   33.3310   46.6400 C   0  0  0  0  0  0  0  0  0  0  0  0
   59.4200   34.2010   46.6410 C   0  0  0  0  0  0  0  0  0  0  0  0
   59.5826   34.8794   45.7906 H   0  0  0  0  0  0  0  0  0  0  0  0
   60.3100   34.2090   47.7160 C   0  0  0  0  0  0  0  0  0  0  0  0
   61.1815   34.8801   47.7025 H   0  0  0  0  0  0  0  0  0  0  0  0
   60.0960   33.3670   48.8080 C   0  0  0  0  0  0  0  0  0  0  0  0
   60.8017   33.3764   49.6517 H   0  0  0  0  0  0  0  0  0  0  0  0
   58.9860   32.5080   48.8370 C   0  0  0  0  0  0  0  0  0  0  0  0
   58.7370   31.6580   50.0530 C   0  0  0  0  0  0  0  0  0  0  0  0
   59.4195   31.9691   50.8576 H   0  0  0  0  0  0  0  0  0  0  0  0
   58.9129   30.6042   49.7914 H   0  0  0  0  0  0  0  0  0  0  0  0
   57.3590   31.8060   50.5090 N   0  0  0  0  0  0  0  0  0  0  0  0
   56.8240   31.5790   51.8230 C   0  0  0  0  0  0  0  0  0  0  0  0
   57.4550   32.0540   52.8040 O   0  0  0  0  0  0  0  0  0  0  0  0
   55.5520   30.8630   52.0800 C   0  0  0  0  0  0  0  0  0  0  0  0
   54.3430   31.3140   51.6480 N   0  0  0  0  0  0  0  0  0  0  0  0
   53.3300   30.5180   52.0510 C   0  0  0  0  0  0  0  0  0  0  0  0
   51.9830   30.7240   51.7320 O   0  0  0  0  0  0  0  0  0  0  0  0
   51.4000   31.9790   51.5180 C   0  0  0  0  0  0  0  0  0  0  0  0
   50.8580   32.6150   52.4610 O   0  0  0  0  0  0  0  0  0  0  0  0
   51.3960   32.5410   50.2070 N   0  0  0  0  0  0  0  0  0  0  0  0
   50.3490   32.3470   49.3640 O   0  0  0  0  0  0  0  0  0  0  0  0
   50.6610   31.2080   48.6040 C   0  0  0  0  0  0  0  0  0  0  0  0
   50.8907   30.3693   49.2777 H   0  0  0  0  0  0  0  0  0  0  0  0
   49.8021   30.9440   47.9695 H   0  0  0  0  0  0  0  0  0  0  0  0
   51.5346   31.4185   47.9695 H   0  0  0  0  0  0  0  0  0  0  0  0
   53.8800   29.2310   52.9730 S   0  0  0  0  0  0  0  0  0  0  0  0
   55.4920   29.6950   52.8440 C   0  0  0  0  0  0  0  0  0  0  0  0
   56.3513   29.1689   53.2855 H   0  0  0  0  0  0  0  0  0  0  0  0
   58.1030   32.4880   47.7440 C   0  0  0  0  0  0  0  0  0  0  0  0
   57.2381   31.8084   47.7525 H   0  0  0  0  0  0  0  0  0  0  0  0
   59.0130   30.4460   45.2650 S   0  0  0  0  0  0  0  0  0  0  0  0
   58.6110   28.8300   45.5000 C   0  0  0  0  0  0  0  0  0  0  0  0
   59.3199   28.0056   45.6666 H   0  0  0  0  0  0  0  0  0  0  0  0
  1  2  1  0
  2  3  1  0
  3  4  1  0
  4  5  2  0
  5  6  1  0
  6  7  2  0
  6  8  1  0
  8  9  2  0
  9 10  1  0
  9 11  1  0
 11 12  1  0
 11 13  2  0
 13 14  1  0
 13 15  1  0
 15 16  1  0
 16 17  1  0
 16 18  1  0
 16 19  1  0
 19 20  1  0
 20 21  2  0
 20 22  1  0
 22 23  1  0
 23 24  2  0
 24 25  1  0
 25 26  1  0
 26 27  2  0
 26 28  1  0
 28 29  1  0
 29 30  1  0
 30 31  1  0
 30 32  1  0
 30 33  1  0
 24 34  1  0
 34 35  1  0
 35 36  1  0
 15 37  2  0
 37 38  1  0
  4 39  1  0
 39 40  1  0
 40 41  1  0
 40  2  2  0
 37  8  1  0
 35 22  2  0
M  CHG  3   3  -1  19  -1  28  -1
M  END
>  <UniqueID>  (72) 
68

>  <SMILES>  (72) 
CO[N-]C(=O)Oc1nc(C(=O)[N-]Cc2cccc(C(=O)/N=c3/[n-]ccs3)c2)cs1

>  <Energy>  (72) 
106.32275038899002

>  <Genealogy>  (72) 
CO[N-]C(=O)Oc1nc(C(=O)[N-]Cc2cccc(C(=O)N=c3[n-]ccs3)c2)cs1 (protonated)
CO[N-]C(=O)Oc1nc(C(=O)[N-]Cc2cccc(C(=O)/N=c3/[n-]ccs3)c2)cs1 (cis-trans isomerization)
CO[N-]C(=O)Oc1nc(C(=O)[N-]Cc2cccc(C(=O)/N=c3/[n-]ccs3)c2)cs1 (3D coordinates assigned)
CO[N-]C(=O)Oc1nc(C(=O)[N-]Cc2cccc(C(=O)/N=c3/[n-]ccs3)c2)cs1 (optimized conformer: 106.32275038899002 kcal/mol)

>  <smiles>  (72) 
CONC(=O)Oc1nc(C(=O)NCc2cccc(C(=O)N=c3[nH]ccs3)c2)cs1

>  <score_type>  (72) 
oracle

>  <origin>  (72) 
adg

>  <m_score__min__energy>  (72) 
-14.1

>  <m_primary>  (72) 
energy

$$$$
72:0
     RDKit          3D

 38 41  0  0  0  0  0  0  0  0999 V2000
   60.2930   26.9460   48.9380 C   0  0  0  0  0  0  0  0  0  0  0  0
   59.9920   28.2230   48.6930 C   0  0  0  0  0  0  0  0  0  0  0  0
   60.3210   29.1760   49.5360 O   0  0  0  0  0  0  0  0  0  0  0  0
   59.9980   30.3400   49.0260 C   0  0  0  0  0  0  0  0  0  0  0  0
   59.4140   30.1580   47.7900 C   0  0  0  0  0  0  0  0  0  0  0  0
   58.8900   31.2460   46.9440 C   0  0  0  0  0  0  0  0  0  0  0  0
   57.7390   31.1310   46.4440 O   0  0  0  0  0  0  0  0  0  0  0  0
   59.6960   32.3910   46.6260 N   0  0  0  0  0  0  0  0  0  0  0  0
   59.1490   33.7240   46.3550 C   0  0  0  0  0  0  0  0  0  0  0  0
   60.3450   34.7030   46.4180 C   0  0  0  0  0  0  0  0  0  0  0  0
   61.4960   33.8200   46.7480 C   0  0  0  0  0  0  0  0  0  0  0  0
   62.8350   34.1810   46.9150 C   0  0  0  0  0  0  0  0  0  0  0  0
   63.7690   33.1720   47.1980 C   0  0  0  0  0  0  0  0  0  0  0  0
   63.3550   31.8310   47.3020 C   0  0  0  0  0  0  0  0  0  0  0  0
   62.0040   31.4930   47.1270 C   0  0  0  0  0  0  0  0  0  0  0  0
   61.0900   32.5190   46.8630 C   0  0  0  0  0  0  0  0  0  0  0  0
   59.3860   28.7860   47.5570 C   0  0  0  0  0  0  0  0  0  0  0  0
   58.9180   28.2040   46.4330 C   0  0  0  0  0  0  0  0  0  0  0  0
   57.6200   27.5290   46.2960 C   0  0  0  0  0  0  0  0  0  0  0  0
   57.4120   26.2480   46.6450 N   0  0  0  0  0  0  0  0  0  0  0  0
   56.1430   26.0180   46.2440 C   0  0  0  0  0  0  0  0  0  0  0  0
   55.5680   24.9110   46.4160 O   0  0  0  0  0  0  0  0  0  0  0  0
   55.5420   27.0630   45.6360 N   0  0  0  0  0  0  0  0  0  0  0  0
   56.4940   28.0100   45.6610 C   0  0  0  0  0  0  0  0  0  0  0  0
   56.3340   29.2700   45.0920 O   0  0  0  0  0  0  0  0  0  0  0  0
   60.0073   26.1656   48.2174 H   0  0  0  0  0  0  0  0  0  0  0  0
   60.8268   26.6740   49.8605 H   0  0  0  0  0  0  0  0  0  0  0  0
   60.1671   31.3132   49.5101 H   0  0  0  0  0  0  0  0  0  0  0  0
   58.6867   33.7507   45.3572 H   0  0  0  0  0  0  0  0  0  0  0  0
   58.3715   33.9939   47.0849 H   0  0  0  0  0  0  0  0  0  0  0  0
   60.4967   35.2020   45.4495 H   0  0  0  0  0  0  0  0  0  0  0  0
   60.2002   35.5115   47.1497 H   0  0  0  0  0  0  0  0  0  0  0  0
   63.1501   35.2312   46.8268 H   0  0  0  0  0  0  0  0  0  0  0  0
   64.8288   33.4306   47.3391 H   0  0  0  0  0  0  0  0  0  0  0  0
   64.0927   31.0450   47.5212 H   0  0  0  0  0  0  0  0  0  0  0  0
   61.6717   30.4466   47.1957 H   0  0  0  0  0  0  0  0  0  0  0  0
   59.5636   28.2378   45.5430 H   0  0  0  0  0  0  0  0  0  0  0  0
   56.2270   30.0990   45.6640 H   0  0  0  0  0  0  0  0  0  0  0  0
  1  2  2  0
  2  3  1  0
  3  4  1  0
  4  5  2  0
  5  6  1  0
  6  7  2  0
  6  8  1  0
  8  9  1  0
  9 10  1  0
 10 11  1  0
 11 12  2  0
 12 13  1  0
 13 14  2  0
 14 15  1  0
 15 16  2  0
  5 17  1  0
 17 18  2  3
 18 19  1  0
 19 20  1  0
 20 21  1  0
 21 22  2  0
 21 23  1  0
 23 24  1  0
 24 25  1  0
 17  2  1  0
 24 19  2  0
 16  8  1  0
 16 11  1  0
  1 26  1  0
  1 27  1  0
  4 28  1  0
  9 29  1  0
  9 30  1  0
 10 31  1  0
 10 32  1  0
 12 33  1  0
 13 34  1  0
 14 35  1  0
 15 36  1  0
 18 37  1  0
 25 38  1  0
M  CHG  2  20  -1  23  -1
M  END
>  <UniqueID>  (73) 
69

>  <SMILES>  (73) 
C=c1occ(C(=O)N2CCc3ccccc32)c1=Cc1[n-]c(=O)[n-]c1O

>  <Energy>  (73) 
131.06351310982632

>  <Genealogy>  (73) 
C=c1occ(C(=O)N2CCc3ccccc32)c1=Cc1[n-]c(=O)[n-]c1O (protonated)
C=c1occ(C(=O)N2CCc3ccccc32)c1=Cc1[n-]c(=O)[n-]c1O (3D coordinates assigned)
C=c1occ(C(=O)N2CCc3ccccc32)c1=Cc1[n-]c(=O)[n-]c1O (nonaromatic ring conformer: 131.06351310982632 kcal/mol)

>  <smiles>  (73) 
C=c1occ(C(=O)N2CCc3ccccc32)c1=Cc1[nH]c(=O)[nH]c1O

>  <score_type>  (73) 
oracle

>  <origin>  (73) 
adg

>  <m_score__min__energy>  (73) 
-13.06

>  <m_primary>  (73) 
energy

$$$$
73:0
     RDKit          3D

 66 69  0  0  0  0  0  0  0  0999 V2000
   60.0450   31.4000   51.7330 C   0  0  0  0  0  0  0  0  0  0  0  0
   59.8060   32.8870   52.0040 C   0  0  0  0  0  0  0  0  0  0  0  0
   60.2100   33.7770   50.8220 C   0  0  0  0  0  0  0  0  0  0  0  0
   61.5390   33.3670   50.2450 C   0  0  0  0  0  0  0  0  0  0  0  0
   62.6280   33.1200   51.0020 N   0  0  0  0  0  0  0  0  0  0  0  0
   63.6190   32.8190   50.1820 N   0  0  0  0  0  0  0  0  0  0  0  0
   64.9290   32.4070   50.5960 C   0  0  0  0  0  0  0  0  0  0  0  0
   66.0500   33.0610   50.0600 C   0  0  0  0  0  0  0  0  0  0  0  0
   67.3340   32.7540   50.5160 C   0  0  0  0  0  0  0  0  0  0  0  0
   67.5100   31.7830   51.5010 C   0  0  0  0  0  0  0  0  0  0  0  0
   66.4060   31.1060   52.0250 C   0  0  0  0  0  0  0  0  0  0  0  0
   65.1090   31.3960   51.5670 C   0  0  0  0  0  0  0  0  0  0  0  0
   63.9660   30.6330   52.1080 C   0  0  0  0  0  0  0  0  0  0  0  0
   63.1390   31.2200   52.8540 O   0  0  0  0  0  0  0  0  0  0  0  0
   63.7960   29.2330   51.8190 N   0  0  0  0  0  0  0  0  0  0  0  0
   64.9700   28.3560   51.7350 C   0  0  0  0  0  0  0  0  0  0  0  0
   62.4450   28.6840   51.7330 C   0  0  0  0  0  0  0  0  0  0  0  0
   63.1210   32.8480   48.9310 C   0  0  0  0  0  0  0  0  0  0  0  0
   63.7820   32.5530   47.8990 O   0  0  0  0  0  0  0  0  0  0  0  0
   61.8140   33.1840   48.9280 N   0  0  0  0  0  0  0  0  0  0  0  0
   60.9070   33.2070   47.7760 C   0  0  0  0  0  0  0  0  0  0  0  0
   60.2960   31.8540   47.5400 C   0  0  0  0  0  0  0  0  0  0  0  0
   59.4030   31.3120   48.4790 C   0  0  0  0  0  0  0  0  0  0  0  0
   58.8070   30.0680   48.2510 C   0  0  0  0  0  0  0  0  0  0  0  0
   59.1100   29.3460   47.0850 C   0  0  0  0  0  0  0  0  0  0  0  0
   58.4350   28.0660   46.8110 C   0  0  0  0  0  0  0  0  0  0  0  0
   58.8530   26.9250   47.5170 C   0  0  0  0  0  0  0  0  0  0  0  0
   58.2180   25.6980   47.3190 C   0  0  0  0  0  0  0  0  0  0  0  0
   57.1610   25.5980   46.4130 C   0  0  0  0  0  0  0  0  0  0  0  0
   56.7400   26.7210   45.6970 C   0  0  0  0  0  0  0  0  0  0  0  0
   57.3710   27.9630   45.8810 C   0  0  0  0  0  0  0  0  0  0  0  0
   56.8490   29.3510   44.9150 S   0  0  0  0  0  0  0  0  0  0  0  0
   55.1400   29.3020   44.6500 N   0  0  0  0  0  0  0  0  0  0  0  0
   57.1960   30.6260   45.6290 O   0  0  0  0  0  0  0  0  0  0  0  0
   57.5390   29.3180   43.5820 O   0  0  0  0  0  0  0  0  0  0  0  0
   60.0010   29.8860   46.1470 C   0  0  0  0  0  0  0  0  0  0  0  0
   60.5870   31.1320   46.3720 C   0  0  0  0  0  0  0  0  0  0  0  0
   60.1314   30.8624   52.6888 H   0  0  0  0  0  0  0  0  0  0  0  0
   59.2009   30.9918   51.1577 H   0  0  0  0  0  0  0  0  0  0  0  0
   60.9745   31.2769   51.1577 H   0  0  0  0  0  0  0  0  0  0  0  0
   58.7363   33.0396   52.2098 H   0  0  0  0  0  0  0  0  0  0  0  0
   60.4306   33.1725   52.8633 H   0  0  0  0  0  0  0  0  0  0  0  0
   59.4419   33.6993   50.0384 H   0  0  0  0  0  0  0  0  0  0  0  0
   60.2985   34.8112   51.1860 H   0  0  0  0  0  0  0  0  0  0  0  0
   62.6950   33.1480   52.0450 H   0  0  0  0  0  0  0  0  0  0  0  0
   65.9160   33.8204   49.2755 H   0  0  0  0  0  0  0  0  0  0  0  0
   68.2062   33.2781   50.0981 H   0  0  0  0  0  0  0  0  0  0  0  0
   68.5209   31.5494   51.8665 H   0  0  0  0  0  0  0  0  0  0  0  0
   66.5527   30.3407   52.8014 H   0  0  0  0  0  0  0  0  0  0  0  0
   65.3108   28.1014   52.7494 H   0  0  0  0  0  0  0  0  0  0  0  0
   64.7020   27.4351   51.1963 H   0  0  0  0  0  0  0  0  0  0  0  0
   65.7770   28.8742   51.1963 H   0  0  0  0  0  0  0  0  0  0  0  0
   62.0493   28.5232   52.7467 H   0  0  0  0  0  0  0  0  0  0  0  0
   61.7961   29.3898   51.1938 H   0  0  0  0  0  0  0  0  0  0  0  0
   62.4723   27.7256   51.1938 H   0  0  0  0  0  0  0  0  0  0  0  0
   60.1046   33.9353   47.9652 H   0  0  0  0  0  0  0  0  0  0  0  0
   61.4840   33.4899   46.8832 H   0  0  0  0  0  0  0  0  0  0  0  0
   59.1713   31.8693   49.3987 H   0  0  0  0  0  0  0  0  0  0  0  0
   58.1002   29.6544   48.9854 H   0  0  0  0  0  0  0  0  0  0  0  0
   59.6866   26.9995   48.2308 H   0  0  0  0  0  0  0  0  0  0  0  0
   58.5504   24.8101   47.8768 H   0  0  0  0  0  0  0  0  0  0  0  0
   56.6578   24.6315   46.2623 H   0  0  0  0  0  0  0  0  0  0  0  0
   55.9077   26.6324   44.9833 H   0  0  0  0  0  0  0  0  0  0  0  0
   54.6820   29.3570   45.5870 H   0  0  0  0  0  0  0  0  0  0  0  0
   60.2388   29.3256   45.2308 H   0  0  0  0  0  0  0  0  0  0  0  0
   61.2816   31.5513   45.6292 H   0  0  0  0  0  0  0  0  0  0  0  0
  1  2  1  0
  2  3  1  0
  3  4  1  0
  4  5  2  0
  5  6  1  0
  6  7  1  0
  7  8  2  0
  8  9  1  0
  9 10  2  0
 10 11  1  0
 11 12  2  0
 12 13  1  0
 13 14  2  0
 13 15  1  0
 15 16  1  0
 15 17  1  0
  6 18  1  0
 18 19  2  0
 18 20  1  0
 20 21  1  0
 21 22  1  0
 22 23  2  0
 23 24  1  0
 24 25  2  0
 25 26  1  0
 26 27  2  0
 27 28  1  0
 28 29  2  0
 29 30  1  0
 30 31  2  0
 31 32  1  0
 32 33  1  0
 32 34  2  0
 32 35  2  0
 25 36  1  0
 36 37  2  0
 20  4  1  0
 37 22  1  0
 12  7  1  0
 31 26  1  0
  1 38  1  0
  1 39  1  0
  1 40  1  0
  2 41  1  0
  2 42  1  0
  3 43  1  0
  3 44  1  0
  5 45  1  0
  8 46  1  0
  9 47  1  0
 10 48  1  0
 11 49  1  0
 16 50  1  0
 16 51  1  0
 16 52  1  0
 17 53  1  0
 17 54  1  0
 17 55  1  0
 21 56  1  0
 21 57  1  0
 23 58  1  0
 24 59  1  0
 27 60  1  0
 28 61  1  0
 29 62  1  0
 30 63  1  0
 33 64  1  0
 36 65  1  0
 37 66  1  0
M  CHG  2   5   1  33  -1
M  END
>  <UniqueID>  (74) 
70

>  <SMILES>  (74) 
CCCc1[nH+]n(-c2ccccc2C(=O)N(C)C)c(=O)n1Cc1ccc(-c2ccccc2S([NH-])(=O)=O)cc1

>  <Energy>  (74) 
116.40716949399312

>  <Genealogy>  (74) 
CCCc1[nH+]n(-c2ccccc2C(=O)N(C)C)c(=O)n1Cc1ccc(-c2ccccc2S([NH-])(=O)=O)cc1 (protonated)
CCCc1[nH+]n(-c2ccccc2C(=O)N(C)C)c(=O)n1Cc1ccc(-c2ccccc2S([NH-])(=O)=O)cc1 (3D coordinates assigned)
CCCc1[nH+]n(-c2ccccc2C(=O)N(C)C)c(=O)n1Cc1ccc(-c2ccccc2S([NH-])(=O)=O)cc1 (optimized conformer: 116.40716949399312 kcal/mol)

>  <smiles>  (74) 
CCCc1nn(-c2ccccc2C(=O)N(C)C)c(=O)n1Cc1ccc(-c2ccccc2S(N)(=O)=O)cc1

>  <score_type>  (74) 
oracle

>  <origin>  (74) 
adg

>  <m_score__min__energy>  (74) 
-10.51

>  <m_primary>  (74) 
energy

$$$$
74:0
     RDKit          3D

 59 62  0  0  0  0  0  0  0  0999 V2000
   63.3850   33.9920   48.8780 C   0  0  0  0  0  0  0  0  0  0  0  0
   63.5300   33.5530   50.2770 N   0  0  0  0  0  0  0  0  0  0  0  0
   64.0490   32.1710   50.3670 C   0  0  0  0  0  0  0  0  0  0  0  0
   63.0020   31.1320   49.9290 C   0  0  0  0  0  0  0  0  0  0  0  0
   61.6690   31.4880   50.4270 N   0  0  0  0  0  0  0  0  0  0  0  0
   60.4840   31.0250   49.7520 C   0  0  0  0  0  0  0  0  0  0  0  0
   59.5290   31.8290   49.5650 O   0  0  0  0  0  0  0  0  0  0  0  0
   60.3530   29.6230   49.2900 C   0  0  0  0  0  0  0  0  0  0  0  0
   59.6550   29.3160   48.1100 C   0  0  0  0  0  0  0  0  0  0  0  0
   59.5190   27.9760   47.7100 C   0  0  0  0  0  0  0  0  0  0  0  0
   58.8010   27.6190   46.5200 N   0  0  0  0  0  0  0  0  0  0  0  0
   57.4960   28.0960   46.1620 C   0  0  0  0  0  0  0  0  0  0  0  0
   56.5200   27.3060   46.2570 O   0  0  0  0  0  0  0  0  0  0  0  0
   57.3010   29.4550   45.6070 C   0  0  0  0  0  0  0  0  0  0  0  0
   58.2660   30.3920   45.8190 N   0  0  0  0  0  0  0  0  0  0  0  0
   58.1820   31.6640   45.3430 C   0  0  0  0  0  0  0  0  0  0  0  0
   59.2330   32.6000   45.6460 N   0  0  0  0  0  0  0  0  0  0  0  0
   59.3080   33.9150   45.0040 C   0  0  0  0  0  0  0  0  0  0  0  0
   59.5930   34.9980   46.0570 C   0  0  0  0  0  0  0  0  0  0  0  0
   60.5680   34.5860   47.1040 N   0  0  0  0  0  0  0  0  0  0  0  0
   59.9500   34.5370   48.4390 C   0  0  0  0  0  0  0  0  0  0  0  0
   61.2990   33.3360   46.7970 C   0  0  0  0  0  0  0  0  0  0  0  0
   60.3450   32.1690   46.4980 C   0  0  0  0  0  0  0  0  0  0  0  0
   57.0500   32.0450   44.6090 C   0  0  0  0  0  0  0  0  0  0  0  0
   56.0460   31.1080   44.3620 C   0  0  0  0  0  0  0  0  0  0  0  0
   56.1620   29.8060   44.8570 C   0  0  0  0  0  0  0  0  0  0  0  0
   55.1440   28.8910   44.6150 O   0  0  0  0  0  0  0  0  0  0  0  0
   60.0500   26.9660   48.5150 C   0  0  0  0  0  0  0  0  0  0  0  0
   60.7410   27.3060   49.6800 C   0  0  0  0  0  0  0  0  0  0  0  0
   60.8710   28.6110   50.0370 N   0  0  0  0  0  0  0  0  0  0  0  0
   61.5700   32.4940   51.4880 C   0  0  0  0  0  0  0  0  0  0  0  0
   62.2880   33.7850   51.0620 C   0  0  0  0  0  0  0  0  0  0  0  0
   63.0401   35.0363   48.8553 H   0  0  0  0  0  0  0  0  0  0  0  0
   64.3562   33.9154   48.3671 H   0  0  0  0  0  0  0  0  0  0  0  0
   62.6505   33.3520   48.3671 H   0  0  0  0  0  0  0  0  0  0  0  0
   64.9323   32.0805   49.7177 H   0  0  0  0  0  0  0  0  0  0  0  0
   64.3055   31.9724   51.4181 H   0  0  0  0  0  0  0  0  0  0  0  0
   62.9759   31.0886   48.8302 H   0  0  0  0  0  0  0  0  0  0  0  0
   63.2827   30.1537   50.3464 H   0  0  0  0  0  0  0  0  0  0  0  0
   59.2169   30.1212   47.5019 H   0  0  0  0  0  0  0  0  0  0  0  0
   60.1162   33.9106   44.2578 H   0  0  0  0  0  0  0  0  0  0  0  0
   58.3482   34.1325   44.5127 H   0  0  0  0  0  0  0  0  0  0  0  0
   59.9929   35.8839   45.5420 H   0  0  0  0  0  0  0  0  0  0  0  0
   58.6415   35.1989   46.5710 H   0  0  0  0  0  0  0  0  0  0  0  0
   60.7337   34.5991   49.2084 H   0  0  0  0  0  0  0  0  0  0  0  0
   59.2562   35.3830   48.5532 H   0  0  0  0  0  0  0  0  0  0  0  0
   59.3982   33.5923   48.5532 H   0  0  0  0  0  0  0  0  0  0  0  0
   61.9388   33.5055   45.9184 H   0  0  0  0  0  0  0  0  0  0  0  0
   61.8977   33.0673   47.6798 H   0  0  0  0  0  0  0  0  0  0  0  0
   60.9027   31.3719   45.9846 H   0  0  0  0  0  0  0  0  0  0  0  0
   59.9334   31.8023   47.4499 H   0  0  0  0  0  0  0  0  0  0  0  0
   56.9541   33.0736   44.2311 H   0  0  0  0  0  0  0  0  0  0  0  0
   55.1605   31.3949   43.7759 H   0  0  0  0  0  0  0  0  0  0  0  0
   59.9249   25.9100   48.2335 H   0  0  0  0  0  0  0  0  0  0  0  0
   61.1802   26.5175   50.3088 H   0  0  0  0  0  0  0  0  0  0  0  0
   60.5100   32.7146   51.6822 H   0  0  0  0  0  0  0  0  0  0  0  0
   62.0446   32.1027   52.4000 H   0  0  0  0  0  0  0  0  0  0  0  0
   61.5959   34.3796   50.4476 H   0  0  0  0  0  0  0  0  0  0  0  0
   62.5859   34.3041   51.9849 H   0  0  0  0  0  0  0  0  0  0  0  0
  1  2  1  0
  2  3  1  0
  3  4  1  0
  4  5  1  0
  5  6  1  0
  6  7  2  0
  6  8  1  0
  8  9  2  0
  9 10  1  0
 10 11  1  0
 11 12  1  0
 12 13  2  0
 12 14  1  0
 14 15  2  0
 15 16  1  0
 16 17  1  0
 17 18  1  0
 18 19  1  0
 19 20  1  0
 20 21  1  0
 20 22  1  0
 22 23  1  0
 16 24  2  0
 24 25  1  0
 25 26  2  0
 26 27  1  0
 10 28  2  0
 28 29  1  0
 29 30  2  0
  5 31  1  0
 31 32  1  0
 32  2  1  0
 30  8  1  0
 26 14  1  0
 23 17  1  0
  1 33  1  0
  1 34  1  0
  1 35  1  0
  3 36  1  0
  3 37  1  0
  4 38  1  0
  4 39  1  0
  9 40  1  0
 18 41  1  0
 18 42  1  0
 19 43  1  0
 19 44  1  0
 21 45  1  0
 21 46  1  0
 21 47  1  0
 22 48  1  0
 22 49  1  0
 23 50  1  0
 23 51  1  0
 24 52  1  0
 25 53  1  0
 28 54  1  0
 29 55  1  0
 31 56  1  0
 31 57  1  0
 32 58  1  0
 32 59  1  0
M  CHG  2  11  -1  27  -1
M  END
>  <UniqueID>  (75) 
71

>  <SMILES>  (75) 
CN1CCN(C(=O)c2cc([N-]C(=O)c3nc(N4CCN(C)CC4)ccc3[O-])ccn2)CC1

>  <Energy>  (75) 
85.70367584133068

>  <Genealogy>  (75) 
CN1CCN(C(=O)c2cc([N-]C(=O)c3nc(N4CCN(C)CC4)ccc3[O-])ccn2)CC1 (protonated)
CN1CCN(C(=O)c2cc([N-]C(=O)c3nc(N4CCN(C)CC4)ccc3[O-])ccn2)CC1 (3D coordinates assigned)
CN1CCN(C(=O)c2cc([N-]C(=O)c3nc(N4CCN(C)CC4)ccc3[O-])ccn2)CC1 (nonaromatic ring conformer: 85.70367584133068 kcal/mol)

>  <smiles>  (75) 
CN1CCN(C(=O)c2cc(NC(=O)c3nc(N4CCN(C)CC4)ccc3O)ccn2)CC1

>  <score_type>  (75) 
oracle

>  <origin>  (75) 
adg

>  <m_score__min__energy>  (75) 
-11.789999999999999

>  <m_primary>  (75) 
energy

$$$$
75:0
     RDKit          3D

 48 50  0  0  0  0  0  0  0  0999 V2000
   55.3090   23.4670   45.7480 C   0  0  0  0  0  0  0  0  0  0  0  0
   55.8960   24.4750   45.1000 C   0  0  0  0  0  0  0  0  0  0  0  0
   56.7030   24.1960   43.8670 C   0  0  0  0  0  0  0  0  0  0  0  0
   55.9090   25.8330   45.6810 C   0  0  0  0  0  0  0  0  0  0  0  0
   54.8140   26.3470   46.0390 O   0  0  0  0  0  0  0  0  0  0  0  0
   57.1360   26.5630   45.8770 N   0  0  0  0  0  0  0  0  0  0  0  0
   57.8360   26.6620   47.1510 C   0  0  0  0  0  0  0  0  0  0  0  0
   58.9210   27.7120   46.9450 C   0  0  0  0  0  0  0  0  0  0  0  0
   59.0930   27.8300   45.4320 C   0  0  0  0  0  0  0  0  0  0  0  0
   57.7610   27.3740   44.8370 C   0  0  2  0  0  0  0  0  0  0  0  0
   56.9020   28.5600   44.4920 C   0  0  0  0  0  0  0  0  0  0  0  0
   55.9240   28.8710   45.2250 O   0  0  0  0  0  0  0  0  0  0  0  0
   57.2440   29.3670   43.3610 N   0  0  0  0  0  0  0  0  0  0  0  0
   56.8330   30.7590   43.2130 C   0  0  0  0  0  0  0  0  0  0  0  0
   57.4800   31.6050   44.2770 C   0  0  0  0  0  0  0  0  0  0  0  0
   57.7170   32.9530   44.0450 C   0  0  0  0  0  0  0  0  0  0  0  0
   58.3520   33.7160   45.0210 C   0  0  0  0  0  0  0  0  0  0  0  0
   58.5420   34.9350   44.7630 O   0  0  0  0  0  0  0  0  0  0  0  0
   58.7530   33.1470   46.2180 N   0  0  0  0  0  0  0  0  0  0  0  0
   59.3930   33.8660   47.2240 C   0  0  0  0  0  0  0  0  0  0  0  0
   59.7150   35.3410   47.1240 C   0  0  0  0  0  0  0  0  0  0  0  0
   59.7790   33.2230   48.4140 C   0  0  0  0  0  0  0  0  0  0  0  0
   59.5270   31.8740   48.5940 C   0  0  0  0  0  0  0  0  0  0  0  0
   58.8920   31.1570   47.5970 C   0  0  0  0  0  0  0  0  0  0  0  0
   58.5040   31.7940   46.4110 C   0  0  0  0  0  0  0  0  0  0  0  0
   57.8800   31.0540   45.4490 N   0  0  0  0  0  0  0  0  0  0  0  0
   54.7160   23.6660   46.6528 H   0  0  0  0  0  0  0  0  0  0  0  0
   55.4181   22.4371   45.3774 H   0  0  0  0  0  0  0  0  0  0  0  0
   57.7061   23.8492   44.1560 H   0  0  0  0  0  0  0  0  0  0  0  0
   56.2039   23.4182   43.2703 H   0  0  0  0  0  0  0  0  0  0  0  0
   56.7909   25.1159   43.2703 H   0  0  0  0  0  0  0  0  0  0  0  0
   57.1435   26.9768   47.9456 H   0  0  0  0  0  0  0  0  0  0  0  0
   58.2603   25.6945   47.4573 H   0  0  0  0  0  0  0  0  0  0  0  0
   58.6090   28.6762   47.3728 H   0  0  0  0  0  0  0  0  0  0  0  0
   59.8611   27.4301   47.4417 H   0  0  0  0  0  0  0  0  0  0  0  0
   59.3050   28.8715   45.1485 H   0  0  0  0  0  0  0  0  0  0  0  0
   59.9343   27.2227   45.0666 H   0  0  0  0  0  0  0  0  0  0  0  0
   57.8975   26.8066   43.9046 H   0  0  0  0  0  0  0  0  0  0  0  0
   57.1381   31.1251   42.2216 H   0  0  0  0  0  0  0  0  0  0  0  0
   55.7398   30.8247   43.3159 H   0  0  0  0  0  0  0  0  0  0  0  0
   57.4052   33.4150   43.0966 H   0  0  0  0  0  0  0  0  0  0  0  0
   59.8077   35.7654   48.1346 H   0  0  0  0  0  0  0  0  0  0  0  0
   60.6632   35.4734   46.5824 H   0  0  0  0  0  0  0  0  0  0  0  0
   58.9082   35.8565   46.5824 H   0  0  0  0  0  0  0  0  0  0  0  0
   60.2840   33.7955   49.2060 H   0  0  0  0  0  0  0  0  0  0  0  0
   59.8305   31.3747   49.5260 H   0  0  0  0  0  0  0  0  0  0  0  0
   58.6910   30.0844   47.7352 H   0  0  0  0  0  0  0  0  0  0  0  0
   57.7070   30.0350   45.6120 H   0  0  0  0  0  0  0  0  0  0  0  0
  1  2  2  0
  2  3  1  0
  2  4  1  0
  4  5  2  0
  4  6  1  0
  6  7  1  0
  7  8  1  0
  8  9  1  0
  9 10  1  0
 10 11  1  0
 11 12  2  0
 11 13  1  0
 13 14  1  0
 14 15  1  0
 15 16  2  0
 16 17  1  0
 17 18  2  0
 17 19  1  0
 19 20  1  0
 20 21  1  0
 20 22  2  0
 22 23  1  0
 23 24  2  0
 24 25  1  0
 25 26  2  0
 10  6  1  0
 26 15  1  0
 25 19  1  0
  1 27  1  0
  1 28  1  0
  3 29  1  0
  3 30  1  0
  3 31  1  0
  7 32  1  0
  7 33  1  0
  8 34  1  0
  8 35  1  0
  9 36  1  0
  9 37  1  0
 10 38  1  6
 14 39  1  0
 14 40  1  0
 16 41  1  0
 21 42  1  0
 21 43  1  0
 21 44  1  0
 22 45  1  0
 23 46  1  0
 24 47  1  0
 26 48  1  0
M  CHG  2  13  -1  26   1
M  END
>  <UniqueID>  (76) 
72

>  <SMILES>  (76) 
C=C(C)C(=O)N1CCC[C@@H]1C(=O)[N-]Cc1cc(=O)n2c(C)cccc2[nH+]1

>  <Energy>  (76) 
60.85656332577583

>  <Genealogy>  (76) 
C=C(C)C(=O)N1CCCC1C(=O)[N-]Cc1cc(=O)n2c(C)cccc2[nH+]1 (protonated)
C=C(C)C(=O)N1CCC[C@@H]1C(=O)[N-]Cc1cc(=O)n2c(C)cccc2[nH+]1 (chirality)
C=C(C)C(=O)N1CCC[C@@H]1C(=O)[N-]Cc1cc(=O)n2c(C)cccc2[nH+]1 (3D coordinates assigned)
C=C(C)C(=O)N1CCC[C@@H]1C(=O)[N-]Cc1cc(=O)n2c(C)cccc2[nH+]1 (nonaromatic ring conformer: 60.85656332577583 kcal/mol)

>  <smiles>  (76) 
C=C(C)C(=O)N1CCCC1C(=O)NCc1cc(=O)n2c(C)cccc2n1

>  <score_type>  (76) 
oracle

>  <origin>  (76) 
adg

>  <m_score__min__energy>  (76) 
-8.2400000000000002

>  <m_primary>  (76) 
energy

$$$$
76:0
     RDKit          3D

 38 39  0  0  0  0  0  0  0  0999 V2000
   56.6690   27.6350   43.5850 H   0  0  0  0  0  0  0  0  0  0  0  0
   57.6360   27.8400   43.4950 O   0  0  0  0  0  0  0  0  0  0  0  0
   57.8610   29.0440   44.1830 C   0  0  1  0  0  0  0  0  0  0  0  0
   58.4828   29.7014   43.5576 H   0  0  0  0  0  0  0  0  0  0  0  0
   56.5500   29.7260   44.4600 C   0  0  0  0  0  0  0  0  0  0  0  0
   55.5210   29.0240   44.6620 O   0  0  0  0  0  0  0  0  0  0  0  0
   56.4920   31.1620   44.5040 N   0  0  0  0  0  0  0  0  0  0  0  0
   57.3610   31.9640   45.0480 C   0  0  0  0  0  0  0  0  0  0  0  0
   57.5960   31.9550   46.3900 N   0  0  0  0  0  0  0  0  0  0  0  0
   58.5110   32.7860   46.9550 C   0  0  0  0  0  0  0  0  0  0  0  0
   58.6958   32.7512   48.0388 H   0  0  0  0  0  0  0  0  0  0  0  0
   59.2170   33.6870   46.1480 C   0  0  0  0  0  0  0  0  0  0  0  0
   60.2460   34.5630   46.7450 C   0  0  0  0  0  0  0  0  0  0  0  0
   60.2321   35.6258   46.4617 H   0  0  0  0  0  0  0  0  0  0  0  0
   61.1960   34.1660   47.6050 C   0  0  0  0  0  0  0  0  0  0  0  0
   61.0930   34.4786   48.6546 H   0  0  0  0  0  0  0  0  0  0  0  0
   62.3720   33.3400   47.2510 C   0  0  0  0  0  0  0  0  0  0  0  0
   63.2990   33.8410   46.4330 C   0  0  0  0  0  0  0  0  0  0  0  0
   63.2495   34.8962   46.1263 H   0  0  0  0  0  0  0  0  0  0  0  0
   64.1129   33.1989   46.0652 H   0  0  0  0  0  0  0  0  0  0  0  0
   62.4540   31.8950   47.6610 C   0  0  0  0  0  0  0  0  0  0  0  0
   62.4580   31.8250   48.7588 H   0  0  0  0  0  0  0  0  0  0  0  0
   61.5853   31.3508   47.2620 H   0  0  0  0  0  0  0  0  0  0  0  0
   63.3787   31.4526   47.2620 H   0  0  0  0  0  0  0  0  0  0  0  0
   58.9930   33.6810   44.8060 N   0  0  0  0  0  0  0  0  0  0  0  0
   58.0830   32.8470   44.2400 C   0  0  0  0  0  0  0  0  0  0  0  0
   57.9152   32.8662   43.1530 H   0  0  0  0  0  0  0  0  0  0  0  0
   58.5910   28.7770   45.4780 C   0  0  0  0  0  0  0  0  0  0  0  0
   59.7250   29.5370   45.8140 C   0  0  0  0  0  0  0  0  0  0  0  0
   60.0954   30.3029   45.1168 H   0  0  0  0  0  0  0  0  0  0  0  0
   60.3850   29.3260   47.0280 C   0  0  0  0  0  0  0  0  0  0  0  0
   61.2784   29.9174   47.2771 H   0  0  0  0  0  0  0  0  0  0  0  0
   59.9120   28.3650   47.9260 C   0  0  0  0  0  0  0  0  0  0  0  0
   60.7470   28.1040   49.4500 Cl  0  0  0  0  0  0  0  0  0  0  0  0
   58.7810   27.6090   47.6070 C   0  0  0  0  0  0  0  0  0  0  0  0
   58.4099   26.8517   48.3133 H   0  0  0  0  0  0  0  0  0  0  0  0
   58.1200   27.8130   46.3920 C   0  0  0  0  0  0  0  0  0  0  0  0
   57.2276   27.2180   46.1481 H   0  0  0  0  0  0  0  0  0  0  0  0
  1  2  1  0
  2  3  1  0
  3  4  1  6
  3  5  1  0
  5  6  2  0
  5  7  1  0
  7  8  2  3
  8  9  1  0
  9 10  1  0
 10 11  1  0
 10 12  2  0
 12 13  1  0
 13 14  1  0
 13 15  2  0
 15 16  1  0
 15 17  1  0
 17 18  2  0
 18 19  1  0
 18 20  1  0
 17 21  1  0
 21 22  1  0
 21 23  1  0
 21 24  1  0
 12 25  1  0
 25 26  2  0
 26 27  1  0
  3 28  1  0
 28 29  2  0
 29 30  1  0
 29 31  1  0
 31 32  1  0
 31 33  2  0
 33 34  1  0
 33 35  1  0
 35 36  1  0
 35 37  2  0
 37 38  1  0
 26  8  1  0
 37 28  1  0
M  CHG  1   9  -1
M  END
>  <UniqueID>  (77) 
73

>  <SMILES>  (77) 
C=C(C)/C=C\c1c[n-]c(=NC(=O)[C@H](O)c2ccc(Cl)cc2)cn1

>  <Energy>  (77) 
47.89207102051861

>  <Genealogy>  (77) 
C=C(C)C=Cc1c[n-]c(=NC(=O)C(O)c2ccc(Cl)cc2)cn1 (protonated)
C=C(C)C=Cc1c[n-]c(=NC(=O)[C@H](O)c2ccc(Cl)cc2)cn1 (chirality)
C=C(C)/C=C\c1c[n-]c(=NC(=O)[C@H](O)c2ccc(Cl)cc2)cn1 (cis-trans isomerization)
C=C(C)/C=C\c1c[n-]c(=NC(=O)[C@H](O)c2ccc(Cl)cc2)cn1 (3D coordinates assigned)
C=C(C)/C=C\c1c[n-]c(=NC(=O)[C@H](O)c2ccc(Cl)cc2)cn1 (optimized conformer: 47.89207102051861 kcal/mol)

>  <smiles>  (77) 
C=C(C)C=Cc1c[nH]c(=NC(=O)C(O)c2ccc(Cl)cc2)cn1

>  <score_type>  (77) 
oracle

>  <origin>  (77) 
adg

>  <m_score__min__energy>  (77) 
-9.6999999999999993

>  <m_primary>  (77) 
energy

$$$$
77:0
     RDKit          3D

 28 29  0  0  0  0  0  0  0  0999 V2000
   60.0910   30.7410   47.1020 C   0  0  0  0  0  0  0  0  0  0  0  0
   59.1230   30.2810   46.3050 C   0  0  0  0  0  0  0  0  0  0  0  0
   58.8650   28.9680   46.1450 N   0  0  0  0  0  0  0  0  0  0  0  0
   57.8110   28.8710   45.3030 C   0  0  0  0  0  0  0  0  0  0  0  0
   57.2590   27.7110   44.9060 C   0  0  0  0  0  0  0  0  0  0  0  0
   57.1830   26.5080   45.7620 C   0  0  0  0  0  0  0  0  0  0  0  0
   55.9590   26.0490   46.2840 C   0  0  0  0  0  0  0  0  0  0  0  0
   54.7710   26.7150   46.0020 O   0  0  0  0  0  0  0  0  0  0  0  0
   55.9330   24.9560   47.0880 N   0  0  0  0  0  0  0  0  0  0  0  0
   57.0730   24.2990   47.4180 C   0  0  0  0  0  0  0  0  0  0  0  0
   57.0230   23.2860   48.1610 O   0  0  0  0  0  0  0  0  0  0  0  0
   58.2710   24.7390   46.9510 N   0  0  0  0  0  0  0  0  0  0  0  0
   58.3500   25.8270   46.1410 C   0  0  0  0  0  0  0  0  0  0  0  0
   59.4790   26.2100   45.7300 O   0  0  0  0  0  0  0  0  0  0  0  0
   57.3720   30.1430   44.9440 C   0  0  0  0  0  0  0  0  0  0  0  0
   56.2300   30.4770   44.0250 C   0  0  0  0  0  0  0  0  0  0  0  0
   58.2400   31.0450   45.5510 C   0  0  0  0  0  0  0  0  0  0  0  0
   58.1680   32.5440   45.4760 C   0  0  0  0  0  0  0  0  0  0  0  0
   60.2582   31.8242   47.1954 H   0  0  0  0  0  0  0  0  0  0  0  0
   60.7211   30.0367   47.6650 H   0  0  0  0  0  0  0  0  0  0  0  0
   59.3730   28.1850   46.6150 H   0  0  0  0  0  0  0  0  0  0  0  0
   56.8416   27.6540   43.8899 H   0  0  0  0  0  0  0  0  0  0  0  0
   55.3430   30.7364   44.6216 H   0  0  0  0  0  0  0  0  0  0  0  0
   56.5078   31.3315   43.3905 H   0  0  0  0  0  0  0  0  0  0  0  0
   56.0036   29.6074   43.3905 H   0  0  0  0  0  0  0  0  0  0  0  0
   58.1479   32.9615   46.4935 H   0  0  0  0  0  0  0  0  0  0  0  0
   59.0488   32.9270   44.9398 H   0  0  0  0  0  0  0  0  0  0  0  0
   57.2546   32.8408   44.9398 H   0  0  0  0  0  0  0  0  0  0  0  0
  1  2  2  0
  2  3  1  0
  3  4  1  0
  4  5  2  3
  5  6  1  0
  6  7  2  0
  7  8  1  0
  7  9  1  0
  9 10  1  0
 10 11  2  0
 10 12  1  0
 12 13  1  0
 13 14  2  0
  4 15  1  0
 15 16  1  0
 15 17  2  0
 17 18  1  0
 17  2  1  0
 13  6  1  0
  1 19  1  0
  1 20  1  0
  3 21  1  0
  5 22  1  0
 16 23  1  0
 16 24  1  0
 16 25  1  0
 18 26  1  0
 18 27  1  0
 18 28  1  0
M  CHG  3   8  -1   9  -1  12  -1
M  END
>  <UniqueID>  (78) 
74

>  <SMILES>  (78) 
C=c1[nH]c(=Cc2c([O-])[n-]c(=O)[n-]c2=O)c(C)c1C

>  <Energy>  (78) 
64.20938095017729

>  <Genealogy>  (78) 
C=c1[nH]c(=Cc2c([O-])[n-]c(=O)[n-]c2=O)c(C)c1C (protonated)
C=c1[nH]c(=Cc2c([O-])[n-]c(=O)[n-]c2=O)c(C)c1C (3D coordinates assigned)
C=c1[nH]c(=Cc2c([O-])[n-]c(=O)[n-]c2=O)c(C)c1C (optimized conformer: 64.20938095017729 kcal/mol)

>  <smiles>  (78) 
C=c1[nH]c(=Cc2c(O)[nH]c(=O)[nH]c2=O)c(C)c1C

>  <score_type>  (78) 
oracle

>  <origin>  (78) 
adg

>  <m_score__min__energy>  (78) 
-14.529999999999999

>  <m_primary>  (78) 
energy

$$$$
78:0
     RDKit          3D

 63 66  0  0  0  0  0  0  0  0999 V2000
   61.5370   31.2650   47.4730 C   0  0  0  0  0  0  0  0  0  0  0  0
   61.6980   32.7950   47.5450 C   0  0  1  0  0  0  0  0  0  0  0  0
   60.9300   33.4950   46.3870 C   0  0  0  0  0  0  0  0  0  0  0  0
   59.6710   34.2610   46.8460 C   0  0  1  0  0  0  0  0  0  0  0  0
   58.7370   34.5440   45.6630 C   0  0  0  0  0  0  0  0  0  0  0  0
   58.9340   33.5040   47.9620 C   0  0  0  0  0  0  0  0  0  0  0  0
   59.8250   33.2820   49.1120 N   0  0  0  0  0  0  0  0  0  0  0  0
   59.2820   33.2910   50.4460 C   0  0  0  0  0  0  0  0  0  0  0  0
   59.2690   34.3660   51.1080 O   0  0  0  0  0  0  0  0  0  0  0  0
   58.7330   32.0660   51.0590 C   0  0  0  0  0  0  0  0  0  0  0  0
   57.4270   32.0530   51.5680 C   0  0  0  0  0  0  0  0  0  0  0  0
   56.8970   30.8810   52.1060 C   0  0  0  0  0  0  0  0  0  0  0  0
   57.6720   29.7190   52.1630 C   0  0  0  0  0  0  0  0  0  0  0  0
   58.9960   29.7230   51.6910 C   0  0  0  0  0  0  0  0  0  0  0  0
   59.8300   28.5540   51.7610 N   0  0  0  0  0  0  0  0  0  0  0  0
   61.0520   28.1450   50.5960 S   0  0  0  0  0  0  0  0  0  0  0  0
   61.9880   29.3110   50.4440 O   0  0  0  0  0  0  0  0  0  0  0  0
   61.8610   26.9660   51.0590 O   0  0  0  0  0  0  0  0  0  0  0  0
   60.2890   27.8030   49.0460 C   0  0  0  0  0  0  0  0  0  0  0  0
   59.1810   28.5530   48.6370 C   0  0  0  0  0  0  0  0  0  0  0  0
   58.5250   28.2490   47.4400 C   0  0  0  0  0  0  0  0  0  0  0  0
   58.9590   27.1690   46.6490 C   0  0  0  0  0  0  0  0  0  0  0  0
   58.2890   26.7880   45.4370 N   0  0  0  0  0  0  0  0  0  0  0  0
   58.1640   27.5670   44.2360 C   0  0  0  0  0  0  0  0  0  0  0  0
   58.3890   27.0390   43.1150 O   0  0  0  0  0  0  0  0  0  0  0  0
   57.8360   29.0110   44.3200 C   0  0  0  0  0  0  0  0  0  0  0  0
   56.5320   29.4570   44.0260 C   0  0  0  0  0  0  0  0  0  0  0  0
   56.2130   30.8170   44.0930 C   0  0  0  0  0  0  0  0  0  0  0  0
   57.1930   31.7500   44.4350 C   0  0  0  0  0  0  0  0  0  0  0  0
   58.4900   31.3240   44.7310 C   0  0  0  0  0  0  0  0  0  0  0  0
   58.8170   29.9640   44.6730 C   0  0  0  0  0  0  0  0  0  0  0  0
   60.0940   29.5940   44.9460 F   0  0  0  0  0  0  0  0  0  0  0  0
   60.1060   26.4630   47.0330 C   0  0  0  0  0  0  0  0  0  0  0  0
   60.7630   26.7710   48.2280 C   0  0  0  0  0  0  0  0  0  0  0  0
   59.5060   30.8940   51.1090 C   0  0  0  0  0  0  0  0  0  0  0  0
   61.2840   33.3220   48.9360 C   0  0  0  0  0  0  0  0  0  0  0  0
   61.4936   30.8525   48.4918 H   0  0  0  0  0  0  0  0  0  0  0  0
   60.6080   31.0188   46.9379 H   0  0  0  0  0  0  0  0  0  0  0  0
   62.3944   30.8309   46.9379 H   0  0  0  0  0  0  0  0  0  0  0  0
   62.7611   33.0431   47.4102 H   0  0  0  0  0  0  0  0  0  0  0  0
   60.6233   32.7277   45.6610 H   0  0  0  0  0  0  0  0  0  0  0  0
   61.6151   34.2375   45.9519 H   0  0  0  0  0  0  0  0  0  0  0  0
   59.9988   35.2270   47.2574 H   0  0  0  0  0  0  0  0  0  0  0  0
   57.7481   34.8436   46.0401 H   0  0  0  0  0  0  0  0  0  0  0  0
   59.1569   35.3552   45.0502 H   0  0  0  0  0  0  0  0  0  0  0  0
   58.6361   33.6361   45.0502 H   0  0  0  0  0  0  0  0  0  0  0  0
   58.5931   32.5321   47.5757 H   0  0  0  0  0  0  0  0  0  0  0  0
   58.0735   34.1054   48.2905 H   0  0  0  0  0  0  0  0  0  0  0  0
   56.8190   32.9694   51.5429 H   0  0  0  0  0  0  0  0  0  0  0  0
   55.8652   30.8707   52.4870 H   0  0  0  0  0  0  0  0  0  0  0  0
   57.2431   28.7958   52.5798 H   0  0  0  0  0  0  0  0  0  0  0  0
   59.6230   27.8350   52.4880 H   0  0  0  0  0  0  0  0  0  0  0  0
   58.8240   29.3861   49.2603 H   0  0  0  0  0  0  0  0  0  0  0  0
   57.6669   28.8561   47.1156 H   0  0  0  0  0  0  0  0  0  0  0  0
   55.7581   28.7290   43.7413 H   0  0  0  0  0  0  0  0  0  0  0  0
   55.1880   31.1519   43.8758 H   0  0  0  0  0  0  0  0  0  0  0  0
   56.9441   32.8208   44.4715 H   0  0  0  0  0  0  0  0  0  0  0  0
   59.2578   32.0604   45.0109 H   0  0  0  0  0  0  0  0  0  0  0  0
   60.4931   25.6596   46.3891 H   0  0  0  0  0  0  0  0  0  0  0  0
   61.6550   26.2006   48.5262 H   0  0  0  0  0  0  0  0  0  0  0  0
   60.5220   30.8940   50.6874 H   0  0  0  0  0  0  0  0  0  0  0  0
   61.7551   32.6982   49.7099 H   0  0  0  0  0  0  0  0  0  0  0  0
   61.6148   34.3675   49.0228 H   0  0  0  0  0  0  0  0  0  0  0  0
  1  2  1  0
  2  3  1  0
  3  4  1  0
  4  5  1  0
  4  6  1  0
  6  7  1  0
  7  8  1  0
  8  9  2  0
  8 10  1  0
 10 11  2  0
 11 12  1  0
 12 13  2  0
 13 14  1  0
 14 15  1  0
 15 16  1  0
 16 17  2  0
 16 18  2  0
 16 19  1  0
 19 20  2  0
 20 21  1  0
 21 22  2  0
 22 23  1  0
 23 24  1  0
 24 25  2  0
 24 26  1  0
 26 27  2  0
 27 28  1  0
 28 29  2  0
 29 30  1  0
 30 31  2  0
 31 32  1  0
 22 33  1  0
 33 34  2  0
 14 35  2  0
  7 36  1  0
 36  2  1  0
 35 10  1  0
 34 19  1  0
 31 26  1  0
  1 37  1  0
  1 38  1  0
  1 39  1  0
  2 40  1  6
  3 41  1  0
  3 42  1  0
  4 43  1  1
  5 44  1  0
  5 45  1  0
  5 46  1  0
  6 47  1  0
  6 48  1  0
 11 49  1  0
 12 50  1  0
 13 51  1  0
 15 52  1  0
 20 53  1  0
 21 54  1  0
 27 55  1  0
 28 56  1  0
 29 57  1  0
 30 58  1  0
 33 59  1  0
 34 60  1  0
 35 61  1  0
 36 62  1  0
 36 63  1  0
M  CHG  1  23  -1
M  END
>  <UniqueID>  (79) 
75

>  <SMILES>  (79) 
C[C@@H]1C[C@H](C)CN(C(=O)c2cccc(NS(=O)(=O)c3ccc([N-]C(=O)c4ccccc4F)cc3)c2)C1

>  <Energy>  (79) 
81.13161058142629

>  <Genealogy>  (79) 
CC1CC(C)CN(C(=O)c2cccc(NS(=O)(=O)c3ccc([N-]C(=O)c4ccccc4F)cc3)c2)C1 (protonated)
C[C@@H]1C[C@H](C)CN(C(=O)c2cccc(NS(=O)(=O)c3ccc([N-]C(=O)c4ccccc4F)cc3)c2)C1 (chirality)
C[C@@H]1C[C@H](C)CN(C(=O)c2cccc(NS(=O)(=O)c3ccc([N-]C(=O)c4ccccc4F)cc3)c2)C1 (3D coordinates assigned)
C[C@@H]1C[C@H](C)CN(C(=O)c2cccc(NS(=O)(=O)c3ccc([N-]C(=O)c4ccccc4F)cc3)c2)C1 (nonaromatic ring conformer: 81.13161058142629 kcal/mol)

>  <smiles>  (79) 
CC1CC(C)CN(C(=O)c2cccc(NS(=O)(=O)c3ccc(NC(=O)c4ccccc4F)cc3)c2)C1

>  <score_type>  (79) 
oracle

>  <origin>  (79) 
adg

>  <m_score__min__energy>  (79) 
-12.16

>  <m_primary>  (79) 
energy

$$$$
79:0
     RDKit          3D

 44 46  0  0  0  0  0  0  0  0999 V2000
   57.0530   23.0360   46.6490 C   0  0  0  0  0  0  0  0  0  0  0  0
   56.6080   24.4350   46.3880 C   0  0  0  0  0  0  0  0  0  0  0  0
   55.3180   24.8170   46.3820 N   0  0  0  0  0  0  0  0  0  0  0  0
   55.3470   26.0770   46.0750 O   0  0  0  0  0  0  0  0  0  0  0  0
   56.5890   26.4640   45.8930 C   0  0  0  0  0  0  0  0  0  0  0  0
   56.9900   27.8570   45.4560 C   0  0  0  0  0  0  0  0  0  0  0  0
   57.8780   28.5150   46.5280 C   0  0  0  0  0  0  0  0  0  0  0  0
   57.7710   27.7920   44.1340 C   0  0  0  0  0  0  0  0  0  0  0  0
   55.7900   28.6710   45.2420 N   0  0  0  0  0  0  0  0  0  0  0  0
   55.6770   29.6540   44.2080 C   0  0  0  0  0  0  0  0  0  0  0  0
   54.7730   29.5450   43.3370 O   0  0  0  0  0  0  0  0  0  0  0  0
   56.6080   30.7840   44.1600 C   0  0  0  0  0  0  0  0  0  0  0  0
   57.1750   31.3340   45.2500 N   0  0  0  0  0  0  0  0  0  0  0  0
   57.9560   32.2830   44.6950 C   0  0  0  0  0  0  0  0  0  0  0  0
   58.8330   33.1790   45.4770 C   0  0  0  0  0  0  0  0  0  0  0  0
   58.7890   34.5690   45.2800 C   0  0  0  0  0  0  0  0  0  0  0  0
   59.6450   35.4070   45.9970 C   0  0  0  0  0  0  0  0  0  0  0  0
   60.5460   34.8700   46.9180 C   0  0  0  0  0  0  0  0  0  0  0  0
   60.5970   33.4880   47.1380 C   0  0  0  0  0  0  0  0  0  0  0  0
   61.5320   32.9830   48.1010 N   0  0  0  0  0  0  0  0  0  0  0  0
   63.1030   33.6410   48.4360 S   0  0  0  0  0  0  0  0  0  0  0  0
   64.1730   32.3890   49.1130 C   0  0  0  0  0  0  0  0  0  0  0  0
   62.9820   34.7940   49.3930 O   0  0  0  0  0  0  0  0  0  0  0  0
   63.6980   34.1410   47.1510 O   0  0  0  0  0  0  0  0  0  0  0  0
   59.7360   32.6450   46.4130 C   0  0  0  0  0  0  0  0  0  0  0  0
   57.8580   32.3060   43.3490 N   0  0  0  0  0  0  0  0  0  0  0  0
   57.0130   31.3640   43.0590 O   0  0  0  0  0  0  0  0  0  0  0  0
   57.4500   25.4400   46.0680 N   0  0  0  0  0  0  0  0  0  0  0  0
   57.1074   22.8650   47.7343 H   0  0  0  0  0  0  0  0  0  0  0  0
   56.3341   22.3332   46.2026 H   0  0  0  0  0  0  0  0  0  0  0  0
   58.0458   22.8777   46.2026 H   0  0  0  0  0  0  0  0  0  0  0  0
   57.5093   28.2418   47.5277 H   0  0  0  0  0  0  0  0  0  0  0  0
   58.9143   28.1650   46.4111 H   0  0  0  0  0  0  0  0  0  0  0  0
   57.8448   29.6083   46.4111 H   0  0  0  0  0  0  0  0  0  0  0  0
   58.8464   27.7025   44.3474 H   0  0  0  0  0  0  0  0  0  0  0  0
   57.4383   26.9184   43.5542 H   0  0  0  0  0  0  0  0  0  0  0  0
   57.5873   28.7085   43.5542 H   0  0  0  0  0  0  0  0  0  0  0  0
   58.0781   34.9985   44.5588 H   0  0  0  0  0  0  0  0  0  0  0  0
   59.6093   36.4945   45.8355 H   0  0  0  0  0  0  0  0  0  0  0  0
   61.2206   35.5370   47.4748 H   0  0  0  0  0  0  0  0  0  0  0  0
   64.1372   32.4309   50.2116 H   0  0  0  0  0  0  0  0  0  0  0  0
   63.8386   31.3978   48.7728 H   0  0  0  0  0  0  0  0  0  0  0  0
   65.2042   32.5648   48.7728 H   0  0  0  0  0  0  0  0  0  0  0  0
   59.7693   31.5582   46.5797 H   0  0  0  0  0  0  0  0  0  0  0  0
  1  2  1  0
  2  3  2  0
  3  4  1  0
  4  5  1  0
  5  6  1  0
  6  7  1  0
  6  8  1  0
  6  9  1  0
  9 10  1  0
 10 11  2  0
 10 12  1  0
 12 13  2  0
 13 14  1  0
 14 15  1  0
 15 16  2  0
 16 17  1  0
 17 18  2  0
 18 19  1  0
 19 20  1  0
 20 21  1  0
 21 22  1  0
 21 23  2  0
 21 24  2  0
 19 25  2  0
 14 26  2  0
 26 27  1  0
  5 28  2  0
 28  2  1  0
 27 12  1  0
 25 15  1  0
  1 29  1  0
  1 30  1  0
  1 31  1  0
  7 32  1  0
  7 33  1  0
  7 34  1  0
  8 35  1  0
  8 36  1  0
  8 37  1  0
 16 38  1  0
 17 39  1  0
 18 40  1  0
 22 41  1  0
 22 42  1  0
 22 43  1  0
 25 44  1  0
M  CHG  2   9  -1  20  -1
M  END
>  <UniqueID>  (80) 
76

>  <SMILES>  (80) 
Cc1noc(C(C)(C)[N-]C(=O)c2nc(-c3cccc([N-]S(C)(=O)=O)c3)no2)n1

>  <Energy>  (80) 
108.94440056951281

>  <Genealogy>  (80) 
Cc1noc(C(C)(C)[N-]C(=O)c2nc(-c3cccc([N-]S(C)(=O)=O)c3)no2)n1 (protonated)
Cc1noc(C(C)(C)[N-]C(=O)c2nc(-c3cccc([N-]S(C)(=O)=O)c3)no2)n1 (3D coordinates assigned)
Cc1noc(C(C)(C)[N-]C(=O)c2nc(-c3cccc([N-]S(C)(=O)=O)c3)no2)n1 (optimized conformer: 108.94440056951281 kcal/mol)

>  <smiles>  (80) 
Cc1noc(C(C)(C)NC(=O)c2nc(-c3cccc(NS(C)(=O)=O)c3)no2)n1

>  <score_type>  (80) 
oracle

>  <origin>  (80) 
adg

>  <m_score__min__energy>  (80) 
-13.109999999999999

>  <m_primary>  (80) 
energy

$$$$
80:0
     RDKit          3D

 66 70  0  0  0  0  0  0  0  0999 V2000
   52.0820   21.1640   47.2650 C   0  0  0  0  0  0  0  0  0  0  0  0
   53.0280   22.1170   47.2250 C   0  0  0  0  0  0  0  0  0  0  0  0
   54.1910   22.1860   48.0150 C   0  0  0  0  0  0  0  0  0  0  0  0
   54.5780   21.4680   49.0880 C   0  0  0  0  0  0  0  0  0  0  0  0
   55.8430   21.6390   49.8100 C   0  0  0  0  0  0  0  0  0  0  0  0
   55.9510   21.8250   51.1400 N   0  0  0  0  0  0  0  0  0  0  0  0
   57.2800   21.9850   51.3230 C   0  0  0  0  0  0  0  0  0  0  0  0
   57.7910   22.1580   52.4600 O   0  0  0  0  0  0  0  0  0  0  0  0
   58.0210   21.9260   50.1950 N   0  0  0  0  0  0  0  0  0  0  0  0
   57.0950   21.7180   49.2460 C   0  0  0  0  0  0  0  0  0  0  0  0
   57.3860   21.6100   47.8930 O   0  0  0  0  0  0  0  0  0  0  0  0
   54.9740   23.1830   47.4570 C   0  0  0  0  0  0  0  0  0  0  0  0
   54.2680   23.7080   46.3930 C   0  0  0  0  0  0  0  0  0  0  0  0
   54.8140   24.7240   45.4680 C   0  0  0  0  0  0  0  0  0  0  0  0
   54.5860   25.9470   45.6630 O   0  0  0  0  0  0  0  0  0  0  0  0
   55.5640   24.3160   44.3220 N   0  0  0  0  0  0  0  0  0  0  0  0
   57.0250   24.2630   44.3080 C   0  0  0  0  0  0  0  0  0  0  0  0
   57.6390   25.6110   44.5800 C   0  0  0  0  0  0  0  0  0  0  0  0
   57.7890   26.5190   43.5180 C   0  0  0  0  0  0  0  0  0  0  0  0
   58.1880   27.8350   43.7610 C   0  0  0  0  0  0  0  0  0  0  0  0
   58.4290   28.2770   45.0740 C   0  0  0  0  0  0  0  0  0  0  0  0
   58.7470   29.6560   45.3350 N   0  0  0  0  0  0  0  0  0  0  0  0
   59.8850   29.9980   46.2010 C   0  0  0  0  0  0  0  0  0  0  0  0
   59.5830   31.2270   47.0900 C   0  0  0  0  0  0  0  0  0  0  0  0
   58.5850   32.1720   46.5200 N   0  0  0  0  0  0  0  0  0  0  0  0
   58.8620   33.5510   46.9770 C   0  0  0  0  0  0  0  0  0  0  0  0
   60.3110   33.7170   47.3650 C   0  0  0  0  0  0  0  0  0  0  0  0
   60.6610   33.9250   48.7090 C   0  0  0  0  0  0  0  0  0  0  0  0
   62.0000   34.0760   49.0730 C   0  0  0  0  0  0  0  0  0  0  0  0
   63.0000   34.0350   48.0980 C   0  0  0  0  0  0  0  0  0  0  0  0
   62.6610   33.8410   46.7570 C   0  0  0  0  0  0  0  0  0  0  0  0
   61.3210   33.6820   46.3880 C   0  0  0  0  0  0  0  0  0  0  0  0
   58.5250   32.0980   45.0460 C   0  0  0  0  0  0  0  0  0  0  0  0
   58.0160   30.7180   44.6300 C   0  0  0  0  0  0  0  0  0  0  0  0
   58.2970   27.3690   46.1350 C   0  0  0  0  0  0  0  0  0  0  0  0
   57.8980   26.0480   45.8950 C   0  0  0  0  0  0  0  0  0  0  0  0
   53.0670   23.0880   46.2750 N   0  0  0  0  0  0  0  0  0  0  0  0
   52.0400   23.3660   45.2600 C   0  0  0  0  0  0  0  0  0  0  0  0
   51.2139   21.2221   46.5919 H   0  0  0  0  0  0  0  0  0  0  0  0
   52.1755   20.3255   47.9709 H   0  0  0  0  0  0  0  0  0  0  0  0
   53.8894   20.6910   49.4515 H   0  0  0  0  0  0  0  0  0  0  0  0
   55.9715   23.4976   47.7977 H   0  0  0  0  0  0  0  0  0  0  0  0
   57.3625   23.5562   45.0803 H   0  0  0  0  0  0  0  0  0  0  0  0
   57.3446   23.9389   43.3066 H   0  0  0  0  0  0  0  0  0  0  0  0
   57.5906   26.1905   42.4871 H   0  0  0  0  0  0  0  0  0  0  0  0
   58.3147   28.5312   42.9189 H   0  0  0  0  0  0  0  0  0  0  0  0
   60.1108   29.1376   46.8481 H   0  0  0  0  0  0  0  0  0  0  0  0
   60.7419   30.2449   45.5570 H   0  0  0  0  0  0  0  0  0  0  0  0
   59.2012   30.8662   48.0565 H   0  0  0  0  0  0  0  0  0  0  0  0
   60.5260   31.7860   47.1809 H   0  0  0  0  0  0  0  0  0  0  0  0
   58.6258   34.2528   46.1635 H   0  0  0  0  0  0  0  0  0  0  0  0
   58.2393   33.7568   47.8601 H   0  0  0  0  0  0  0  0  0  0  0  0
   59.8762   33.9691   49.4785 H   0  0  0  0  0  0  0  0  0  0  0  0
   62.2684   34.2275   50.1290 H   0  0  0  0  0  0  0  0  0  0  0  0
   64.0546   34.1555   48.3866 H   0  0  0  0  0  0  0  0  0  0  0  0
   63.4489   33.8132   45.9899 H   0  0  0  0  0  0  0  0  0  0  0  0
   61.0572   33.5293   45.3311 H   0  0  0  0  0  0  0  0  0  0  0  0
   57.8411   32.8716   44.6667 H   0  0  0  0  0  0  0  0  0  0  0  0
   59.5290   32.2621   44.6275 H   0  0  0  0  0  0  0  0  0  0  0  0
   56.9458   30.6406   44.8722 H   0  0  0  0  0  0  0  0  0  0  0  0
   58.1745   30.5959   43.5484 H   0  0  0  0  0  0  0  0  0  0  0  0
   58.5085   27.6969   47.1635 H   0  0  0  0  0  0  0  0  0  0  0  0
   57.7862   25.3484   46.7364 H   0  0  0  0  0  0  0  0  0  0  0  0
   51.0929   23.6224   45.7573 H   0  0  0  0  0  0  0  0  0  0  0  0
   52.3641   24.2087   44.6317 H   0  0  0  0  0  0  0  0  0  0  0  0
   51.8947   22.4749   44.6317 H   0  0  0  0  0  0  0  0  0  0  0  0
  1  2  2  0
  2  3  1  0
  3  4  2  3
  4  5  1  0
  5  6  1  0
  6  7  1  0
  7  8  2  0
  7  9  1  0
  9 10  1  0
 10 11  1  0
  3 12  1  0
 12 13  2  0
 13 14  1  0
 14 15  2  0
 14 16  1  0
 16 17  1  0
 17 18  1  0
 18 19  2  0
 19 20  1  0
 20 21  2  0
 21 22  1  0
 22 23  1  0
 23 24  1  0
 24 25  1  0
 25 26  1  0
 26 27  1  0
 27 28  2  0
 28 29  1  0
 29 30  2  0
 30 31  1  0
 31 32  2  0
 25 33  1  0
 33 34  1  0
 21 35  1  0
 35 36  2  0
 13 37  1  0
 37 38  1  0
 37  2  1  0
 10  5  2  0
 36 18  1  0
 34 22  1  0
 32 27  1  0
  1 39  1  0
  1 40  1  0
  4 41  1  0
 12 42  1  0
 17 43  1  0
 17 44  1  0
 19 45  1  0
 20 46  1  0
 23 47  1  0
 23 48  1  0
 24 49  1  0
 24 50  1  0
 26 51  1  0
 26 52  1  0
 28 53  1  0
 29 54  1  0
 30 55  1  0
 31 56  1  0
 32 57  1  0
 33 58  1  0
 33 59  1  0
 34 60  1  0
 34 61  1  0
 35 62  1  0
 36 63  1  0
 38 64  1  0
 38 65  1  0
 38 66  1  0
M  CHG  4   6  -1   9  -1  11  -1  16  -1
M  END
>  <UniqueID>  (81) 
77

>  <SMILES>  (81) 
C=c1c(=Cc2[n-]c(=O)[n-]c2[O-])cc(C(=O)[N-]Cc2ccc(N3CCN(Cc4ccccc4)CC3)cc2)n1C

>  <Energy>  (81) 
155.2268433449276

>  <Genealogy>  (81) 
C=c1c(=Cc2[n-]c(=O)[n-]c2[O-])cc(C(=O)[N-]Cc2ccc(N3CCN(Cc4ccccc4)CC3)cc2)n1C (protonated)
C=c1c(=Cc2[n-]c(=O)[n-]c2[O-])cc(C(=O)[N-]Cc2ccc(N3CCN(Cc4ccccc4)CC3)cc2)n1C (3D coordinates assigned)
C=c1c(=Cc2[n-]c(=O)[n-]c2[O-])cc(C(=O)[N-]Cc2ccc(N3CCN(Cc4ccccc4)CC3)cc2)n1C (nonaromatic ring conformer: 155.2268433449276 kcal/mol)

>  <smiles>  (81) 
C=c1c(=Cc2[nH]c(=O)[nH]c2O)cc(C(=O)NCc2ccc(N3CCN(Cc4ccccc4)CC3)cc2)n1C

>  <score_type>  (81) 
oracle

>  <origin>  (81) 
adg

>  <m_score__min__energy>  (81) 
-19.649999999999999

>  <m_primary>  (81) 
energy

$$$$
81:0
     RDKit          3D

 46 49  0  0  0  0  0  0  0  0999 V2000
   59.8207   25.9379   47.0471 H   0  0  0  0  0  0  0  0  0  0  0  0
   59.5020   26.9640   47.2830 C   0  0  0  0  0  0  0  0  0  0  0  0
   58.5110   27.4890   46.5290 C   0  0  0  0  0  0  0  0  0  0  0  0
   57.2500   26.7710   46.2090 C   0  0  0  0  0  0  0  0  0  0  0  0
   57.1440   25.5270   46.3690 O   0  0  0  0  0  0  0  0  0  0  0  0
   56.1580   27.4820   45.6300 N   0  0  0  0  0  0  0  0  0  0  0  0
   56.2850   28.8440   45.2250 C   0  0  0  0  0  0  0  0  0  0  0  0
   55.2710   29.4480   44.7840 O   0  0  0  0  0  0  0  0  0  0  0  0
   57.5530   29.5150   45.3260 N   0  0  0  0  0  0  0  0  0  0  0  0
   57.6990   30.8610   44.8320 C   0  0  0  0  0  0  0  0  0  0  0  0
   57.6710   31.1180   43.4510 C   0  0  0  0  0  0  0  0  0  0  0  0
   57.5368   30.2879   42.7418 H   0  0  0  0  0  0  0  0  0  0  0  0
   57.8130   32.4240   42.9750 C   0  0  0  0  0  0  0  0  0  0  0  0
   57.7909   32.6191   41.8927 H   0  0  0  0  0  0  0  0  0  0  0  0
   57.9830   33.4830   43.8710 C   0  0  0  0  0  0  0  0  0  0  0  0
   58.0939   34.5104   43.4939 H   0  0  0  0  0  0  0  0  0  0  0  0
   58.0120   33.2360   45.2470 C   0  0  0  0  0  0  0  0  0  0  0  0
   58.1459   34.0695   45.9523 H   0  0  0  0  0  0  0  0  0  0  0  0
   57.8710   31.9310   45.7270 C   0  0  0  0  0  0  0  0  0  0  0  0
   57.8947   31.7404   46.8101 H   0  0  0  0  0  0  0  0  0  0  0  0
   58.6750   28.8410   45.9330 C   0  0  0  0  0  0  0  0  0  0  0  0
   59.8050   29.4050   45.9570 O   0  0  0  0  0  0  0  0  0  0  0  0
   60.1940   27.6430   48.3930 C   0  0  0  0  0  0  0  0  0  0  0  0
   60.5960   28.8920   48.3310 O   0  0  0  0  0  0  0  0  0  0  0  0
   61.1210   29.2160   49.4880 C   0  0  0  0  0  0  0  0  0  0  0  0
   61.6610   30.5160   49.7590 N   0  0  0  0  0  0  0  0  0  0  0  0
   62.0150   30.6930   50.7260 H   0  0  0  0  0  0  0  0  0  0  0  0
   61.9030   31.5140   48.7520 C   0  0  0  0  0  0  0  0  0  0  0  0
   60.8200   32.0440   48.0340 C   0  0  0  0  0  0  0  0  0  0  0  0
   59.8004   31.6871   48.2416 H   0  0  0  0  0  0  0  0  0  0  0  0
   61.0270   33.0220   47.0570 C   0  0  0  0  0  0  0  0  0  0  0  0
   60.1729   33.4256   46.4935 H   0  0  0  0  0  0  0  0  0  0  0  0
   62.3180   33.4870   46.7960 C   0  0  0  0  0  0  0  0  0  0  0  0
   62.4811   34.2531   46.0237 H   0  0  0  0  0  0  0  0  0  0  0  0
   63.4020   32.9790   47.5160 C   0  0  0  0  0  0  0  0  0  0  0  0
   64.4176   33.3494   47.3129 H   0  0  0  0  0  0  0  0  0  0  0  0
   63.1990   32.0010   48.4940 C   0  0  0  0  0  0  0  0  0  0  0  0
   64.0547   31.6104   49.0642 H   0  0  0  0  0  0  0  0  0  0  0  0
   61.0720   28.1340   50.3600 C   0  0  0  0  0  0  0  0  0  0  0  0
   61.6510   28.0220   51.7140 C   0  0  0  0  0  0  0  0  0  0  0  0
   62.3920   27.0460   52.0040 O   0  0  0  0  0  0  0  0  0  0  0  0
   61.3640   29.0000   52.7150 N   0  0  0  0  0  0  0  0  0  0  0  0
   60.7960   29.8490   52.5010 H   0  0  0  0  0  0  0  0  0  0  0  0
   61.7550   28.8940   53.6760 H   0  0  0  0  0  0  0  0  0  0  0  0
   60.4510   27.1210   49.6510 C   0  0  0  0  0  0  0  0  0  0  0  0
   60.2108   26.1099   50.0114 H   0  0  0  0  0  0  0  0  0  0  0  0
  1  2  1  0
  2  3  2  0
  3  4  1  0
  4  5  2  0
  4  6  1  0
  6  7  1  0
  7  8  2  0
  7  9  1  0
  9 10  1  0
 10 11  2  0
 11 12  1  0
 11 13  1  0
 13 14  1  0
 13 15  2  0
 15 16  1  0
 15 17  1  0
 17 18  1  0
 17 19  2  0
 19 20  1  0
  9 21  1  0
 21 22  2  0
  2 23  1  0
 23 24  1  0
 24 25  1  0
 25 26  1  0
 26 27  1  0
 26 28  1  0
 28 29  2  0
 29 30  1  0
 29 31  1  0
 31 32  1  0
 31 33  2  0
 33 34  1  0
 33 35  1  0
 35 36  1  0
 35 37  2  0
 37 38  1  0
 25 39  2  0
 39 40  1  0
 40 41  2  0
 40 42  1  0
 42 43  1  0
 42 44  1  0
 39 45  1  0
 45 46  1  0
 21  3  1  0
 45 23  2  0
 19 10  1  0
 37 28  1  0
M  CHG  1   6  -1
M  END
>  <UniqueID>  (82) 
78

>  <SMILES>  (82) 
NC(=O)c1cc(/C=C2\C(=O)[N-]C(=O)N(c3ccccc3)C2=O)oc1Nc1ccccc1

>  <Energy>  (82) 
98.9381734992119

>  <Genealogy>  (82) 
NC(=O)c1cc(C=C2C(=O)[N-]C(=O)N(c3ccccc3)C2=O)oc1Nc1ccccc1 (protonated)
NC(=O)c1cc(/C=C2\C(=O)[N-]C(=O)N(c3ccccc3)C2=O)oc1Nc1ccccc1 (cis-trans isomerization)
NC(=O)c1cc(/C=C2\C(=O)[N-]C(=O)N(c3ccccc3)C2=O)oc1Nc1ccccc1 (3D coordinates assigned)
NC(=O)c1cc(/C=C2\C(=O)[N-]C(=O)N(c3ccccc3)C2=O)oc1Nc1ccccc1 (nonaromatic ring conformer: 98.9381734992119 kcal/mol)

>  <smiles>  (82) 
NC(=O)c1cc(C=C2C(=O)NC(=O)N(c3ccccc3)C2=O)oc1Nc1ccccc1

>  <score_type>  (82) 
oracle

>  <origin>  (82) 
adg

>  <m_score__min__energy>  (82) 
-9.9499999999999993

>  <m_primary>  (82) 
energy

$$$$
82:0
     RDKit          3D

 55 57  0  0  0  0  0  0  0  0999 V2000
   58.9140   26.3950   48.1610 H   0  0  0  0  0  0  0  0  0  0  0  0
   58.3750   25.7330   47.6160 O   0  0  0  0  0  0  0  0  0  0  0  0
   57.2690   26.1520   46.8850 C   0  0  0  0  0  0  0  0  0  0  0  0
   56.1410   25.4340   46.7520 N   0  0  0  0  0  0  0  0  0  0  0  0
   55.3660   26.2390   45.9970 C   0  0  0  0  0  0  0  0  0  0  0  0
   54.1990   25.9240   45.6460 O   0  0  0  0  0  0  0  0  0  0  0  0
   55.9360   27.4140   45.6510 N   0  0  0  0  0  0  0  0  0  0  0  0
   57.1610   27.3420   46.2050 C   0  0  0  0  0  0  0  0  0  0  0  0
   58.1590   28.4350   46.2140 C   0  0  0  0  0  0  0  0  0  0  0  0
   59.1178   28.2338   46.7142 H   0  0  0  0  0  0  0  0  0  0  0  0
   57.9960   29.6680   45.6580 C   0  0  0  0  0  0  0  0  0  0  0  0
   57.5360   29.7770   44.3250 C   0  0  0  0  0  0  0  0  0  0  0  0
   57.2386   28.8656   43.7857 H   0  0  0  0  0  0  0  0  0  0  0  0
   57.4490   31.0090   43.6750 C   0  0  0  0  0  0  0  0  0  0  0  0
   56.9210   31.0950   42.2660 C   0  0  0  0  0  0  0  0  0  0  0  0
   55.8263   30.9882   42.2834 H   0  0  0  0  0  0  0  0  0  0  0  0
   57.3735   30.2896   41.6689 H   0  0  0  0  0  0  0  0  0  0  0  0
   57.2780   32.4160   41.6450 C   0  0  0  0  0  0  0  0  0  0  0  0
   56.5246   33.2171   41.6185 H   0  0  0  0  0  0  0  0  0  0  0  0
   58.4880   32.6420   41.1240 C   0  0  0  0  0  0  0  0  0  0  0  0
   58.7201   33.6195   40.6761 H   0  0  0  0  0  0  0  0  0  0  0  0
   59.2517   31.8505   41.1432 H   0  0  0  0  0  0  0  0  0  0  0  0
   57.8460   32.1670   44.3400 C   0  0  0  0  0  0  0  0  0  0  0  0
   57.7825   33.1367   43.8245 H   0  0  0  0  0  0  0  0  0  0  0  0
   58.3240   32.1150   45.6530 C   0  0  0  0  0  0  0  0  0  0  0  0
   58.7840   33.3930   46.2500 C   0  0  0  0  0  0  0  0  0  0  0  0
   58.0680   34.4210   46.1050 O   0  0  0  0  0  0  0  0  0  0  0  0
   60.0280   33.4870   46.9760 N   0  0  0  0  0  0  0  0  0  0  0  0
   60.2060   34.5870   47.9360 C   0  0  0  0  0  0  0  0  0  0  0  0
   60.2154   35.5406   47.3878 H   0  0  0  0  0  0  0  0  0  0  0  0
   59.3736   34.5536   48.6543 H   0  0  0  0  0  0  0  0  0  0  0  0
   61.5200   34.4500   48.7190 C   0  0  0  0  0  0  0  0  0  0  0  0
   62.3611   34.7462   48.0750 H   0  0  0  0  0  0  0  0  0  0  0  0
   61.4836   35.1008   49.6051 H   0  0  0  0  0  0  0  0  0  0  0  0
   61.7120   32.9810   49.1720 C   0  0  0  0  0  0  0  0  0  0  0  0
   60.8241   32.7574   49.7815 H   0  0  0  0  0  0  0  0  0  0  0  0
   62.8940   32.7680   50.0520 N   0  0  0  0  0  0  0  0  0  0  0  0
   64.1220   32.3800   49.3330 C   0  0  0  0  0  0  0  0  0  0  0  0
   64.9093   32.1312   50.0598 H   0  0  0  0  0  0  0  0  0  0  0  0
   63.9157   31.5033   48.7015 H   0  0  0  0  0  0  0  0  0  0  0  0
   64.4568   33.2161   48.7015 H   0  0  0  0  0  0  0  0  0  0  0  0
   63.1540   33.9300   50.9180 C   0  0  0  0  0  0  0  0  0  0  0  0
   63.0856   33.6241   51.9724 H   0  0  0  0  0  0  0  0  0  0  0  0
   64.1618   34.3209   50.7143 H   0  0  0  0  0  0  0  0  0  0  0  0
   62.4089   34.7131   50.7143 H   0  0  0  0  0  0  0  0  0  0  0  0
   61.7520   32.0030   47.9670 C   0  0  0  0  0  0  0  0  0  0  0  0
   62.8000   31.7289   47.7757 H   0  0  0  0  0  0  0  0  0  0  0  0
   61.1355   31.1326   48.2361 H   0  0  0  0  0  0  0  0  0  0  0  0
   61.1600   32.5950   46.6760 C   0  0  0  0  0  0  0  0  0  0  0  0
   61.9398   33.1670   46.1519 H   0  0  0  0  0  0  0  0  0  0  0  0
   60.7984   31.7695   46.0453 H   0  0  0  0  0  0  0  0  0  0  0  0
   58.3450   30.8750   46.3600 C   0  0  0  0  0  0  0  0  0  0  0  0
   58.6020   30.8800   47.6900 C   0  0  0  0  0  0  0  0  0  0  0  0
   58.6219   29.9334   48.2499 H   0  0  0  0  0  0  0  0  0  0  0  0
   58.7908   31.8307   48.2101 H   0  0  0  0  0  0  0  0  0  0  0  0
  1  2  1  0
  2  3  1  0
  3  4  1  0
  4  5  1  0
  5  6  2  0
  5  7  1  0
  7  8  1  0
  8  9  1  0
  9 10  1  0
  9 11  2  0
 11 12  1  0
 12 13  1  0
 12 14  2  0
 14 15  1  0
 15 16  1  0
 15 17  1  0
 15 18  1  0
 18 19  1  0
 18 20  2  0
 20 21  1  0
 20 22  1  0
 14 23  1  0
 23 24  1  0
 23 25  2  0
 25 26  1  0
 26 27  2  0
 26 28  1  0
 28 29  1  0
 29 30  1  0
 29 31  1  0
 29 32  1  0
 32 33  1  0
 32 34  1  0
 32 35  1  0
 35 36  1  0
 35 37  1  0
 37 38  1  0
 38 39  1  0
 38 40  1  0
 38 41  1  0
 37 42  1  0
 42 43  1  0
 42 44  1  0
 42 45  1  0
 35 46  1  0
 46 47  1  0
 46 48  1  0
 46 49  1  0
 49 50  1  0
 49 51  1  0
 25 52  1  0
 52 53  2  0
 53 54  1  0
 53 55  1  0
  8  3  2  0
 52 11  1  0
 49 28  1  0
M  CHG  2   4  -1   7  -1
M  END
>  <UniqueID>  (83) 
79

>  <SMILES>  (83) 
C=CCc1cc(C(=O)N2CCC(N(C)C)CC2)c(=C)/c(=C/c2[n-]c(=O)[n-]c2O)c1

>  <Energy>  (83) 
112.81214816592154

>  <Genealogy>  (83) 
C=CCc1cc(C(=O)N2CCC(N(C)C)CC2)c(=C)c(=Cc2[n-]c(=O)[n-]c2O)c1 (protonated)
C=CCc1cc(C(=O)N2CCC(N(C)C)CC2)c(=C)/c(=C/c2[n-]c(=O)[n-]c2O)c1 (cis-trans isomerization)
C=CCc1cc(C(=O)N2CCC(N(C)C)CC2)c(=C)/c(=C/c2[n-]c(=O)[n-]c2O)c1 (3D coordinates assigned)
C=CCc1cc(C(=O)N2CCC(N(C)C)CC2)c(=C)/c(=C/c2[n-]c(=O)[n-]c2O)c1 (nonaromatic ring conformer: 112.81214816592154 kcal/mol)

>  <smiles>  (83) 
C=CCc1cc(C(=O)N2CCC(N(C)C)CC2)c(=C)c(=Cc2[nH]c(=O)[nH]c2O)c1

>  <score_type>  (83) 
oracle

>  <origin>  (83) 
adg

>  <m_score__min__energy>  (83) 
-13.26

>  <m_primary>  (83) 
energy

$$$$
83:0
     RDKit          3D

 59 62  0  0  0  0  0  0  0  0999 V2000
   59.2770   32.9200   50.7390 C   0  0  0  0  0  0  0  0  0  0  0  0
   60.2740   32.1030   50.3640 C   0  0  0  0  0  0  0  0  0  0  0  0
   60.2370   31.1560   49.3250 C   0  0  0  0  0  0  0  0  0  0  0  0
   59.3500   30.9620   48.3300 C   0  0  0  0  0  0  0  0  0  0  0  0
   59.6330   30.3410   47.0250 C   0  0  0  0  0  0  0  0  0  0  0  0
   60.8250   30.0480   46.6050 N   0  0  0  0  0  0  0  0  0  0  0  0
   60.6400   29.3290   45.3840 C   0  0  0  0  0  0  0  0  0  0  0  0
   61.5950   28.8630   44.7080 O   0  0  0  0  0  0  0  0  0  0  0  0
   59.2700   29.1580   45.0320 N   0  0  0  0  0  0  0  0  0  0  0  0
   58.7090   28.1670   44.1170 C   0  0  0  0  0  0  0  0  0  0  0  0
   58.4040   26.8760   44.8230 C   0  0  0  0  0  0  0  0  0  0  0  0
   59.1860   26.4480   45.7150 O   0  0  0  0  0  0  0  0  0  0  0  0
   57.2100   26.1490   44.4890 N   0  0  0  0  0  0  0  0  0  0  0  0
   56.7150   25.0260   45.2420 C   0  0  0  0  0  0  0  0  0  0  0  0
   57.4320   23.8150   45.2980 C   0  0  0  0  0  0  0  0  0  0  0  0
   56.9510   22.7420   46.0540 C   0  0  0  0  0  0  0  0  0  0  0  0
   55.7610   22.8700   46.7730 C   0  0  0  0  0  0  0  0  0  0  0  0
   55.0540   24.0750   46.7450 C   0  0  0  0  0  0  0  0  0  0  0  0
   55.5280   25.1520   45.9890 C   0  0  0  0  0  0  0  0  0  0  0  0
   54.8100   26.3430   45.9740 O   0  0  0  0  0  0  0  0  0  0  0  0
   58.6260   29.7740   46.1340 C   0  0  0  0  0  0  0  0  0  0  0  0
   57.3800   29.7870   46.3170 O   0  0  0  0  0  0  0  0  0  0  0  0
   61.3700   30.3750   49.4740 C   0  0  0  0  0  0  0  0  0  0  0  0
   62.0870   30.9040   50.5260 C   0  0  0  0  0  0  0  0  0  0  0  0
   63.3760   30.3320   51.0390 C   0  0  0  0  0  0  0  0  0  0  0  0
   61.4350   31.9630   51.0600 N   0  0  0  0  0  0  0  0  0  0  0  0
   61.8780   32.7290   52.2370 C   0  0  0  0  0  0  0  0  0  0  0  0
   63.0220   33.6370   51.8720 C   0  0  0  0  0  0  0  0  0  0  0  0
   64.0960   33.5570   52.5240 O   0  0  0  0  0  0  0  0  0  0  0  0
   62.9700   34.5120   50.7380 N   0  0  0  0  0  0  0  0  0  0  0  0
   62.6660   34.1420   49.3870 C   0  0  0  0  0  0  0  0  0  0  0  0
   63.6450   33.4920   48.6270 C   0  0  0  0  0  0  0  0  0  0  0  0
   63.3870   33.1350   47.3030 C   0  0  0  0  0  0  0  0  0  0  0  0
   62.1550   33.4410   46.7200 C   0  0  0  0  0  0  0  0  0  0  0  0
   61.1700   34.1230   47.4560 C   0  0  0  0  0  0  0  0  0  0  0  0
   59.8670   34.4600   46.8410 C   0  0  0  0  0  0  0  0  0  0  0  0
   58.8390   33.7830   47.1060 O   0  0  0  0  0  0  0  0  0  0  0  0
   59.7580   35.5330   45.9630 O   0  0  0  0  0  0  0  0  0  0  0  0
   61.4410   34.4840   48.7890 C   0  0  0  0  0  0  0  0  0  0  0  0
   59.4258   33.6230   51.5718 H   0  0  0  0  0  0  0  0  0  0  0  0
   58.3112   32.8864   50.2135 H   0  0  0  0  0  0  0  0  0  0  0  0
   58.3182   31.2988   48.5089 H   0  0  0  0  0  0  0  0  0  0  0  0
   57.7797   28.5659   43.6841 H   0  0  0  0  0  0  0  0  0  0  0  0
   59.4513   27.9636   43.3311 H   0  0  0  0  0  0  0  0  0  0  0  0
   56.7180   26.4040   43.6020 H   0  0  0  0  0  0  0  0  0  0  0  0
   58.3764   23.7129   44.7434 H   0  0  0  0  0  0  0  0  0  0  0  0
   57.5108   21.7955   46.0825 H   0  0  0  0  0  0  0  0  0  0  0  0
   55.3800   22.0223   47.3615 H   0  0  0  0  0  0  0  0  0  0  0  0
   54.1215   24.1769   47.3195 H   0  0  0  0  0  0  0  0  0  0  0  0
   61.6458   29.4991   48.8684 H   0  0  0  0  0  0  0  0  0  0  0  0
   63.3669   30.3360   52.1390 H   0  0  0  0  0  0  0  0  0  0  0  0
   63.4887   29.2994   50.6770 H   0  0  0  0  0  0  0  0  0  0  0  0
   64.2173   30.9413   50.6770 H   0  0  0  0  0  0  0  0  0  0  0  0
   61.0398   33.3348   52.6117 H   0  0  0  0  0  0  0  0  0  0  0  0
   62.2138   32.0267   53.0141 H   0  0  0  0  0  0  0  0  0  0  0  0
   64.6226   33.2614   49.0755 H   0  0  0  0  0  0  0  0  0  0  0  0
   64.1561   32.6110   46.7165 H   0  0  0  0  0  0  0  0  0  0  0  0
   61.9543   33.1468   45.6793 H   0  0  0  0  0  0  0  0  0  0  0  0
   60.6876   35.0385   49.3677 H   0  0  0  0  0  0  0  0  0  0  0  0
  1  2  2  0
  2  3  1  0
  3  4  2  3
  4  5  1  0
  5  6  2  0
  6  7  1  0
  7  8  2  0
  7  9  1  0
  9 10  1  0
 10 11  1  0
 11 12  2  0
 11 13  1  0
 13 14  1  0
 14 15  2  0
 15 16  1  0
 16 17  2  0
 17 18  1  0
 18 19  2  0
 19 20  1  0
  9 21  1  0
 21 22  2  0
  3 23  1  0
 23 24  2  0
 24 25  1  0
 24 26  1  0
 26 27  1  0
 27 28  1  0
 28 29  2  0
 28 30  1  0
 30 31  1  0
 31 32  2  0
 32 33  1  0
 33 34  2  0
 34 35  1  0
 35 36  1  0
 36 37  2  0
 36 38  1  0
 35 39  2  0
 26  2  1  0
 39 31  1  0
 21  5  1  0
 19 14  1  0
  1 40  1  0
  1 41  1  0
  4 42  1  0
 10 43  1  0
 10 44  1  0
 13 45  1  0
 15 46  1  0
 16 47  1  0
 17 48  1  0
 18 49  1  0
 23 50  1  0
 25 51  1  0
 25 52  1  0
 25 53  1  0
 27 54  1  0
 27 55  1  0
 32 56  1  0
 33 57  1  0
 34 58  1  0
 39 59  1  0
M  CHG  3  20  -1  30  -1  38  -1
M  END
>  <UniqueID>  (84) 
80

>  <SMILES>  (84) 
C=c1c(=CC2=NC(=O)N(CC(=O)Nc3ccccc3[O-])C2=O)cc(C)n1CC(=O)[N-]c1cccc(C(=O)[O-])c1

>  <Energy>  (84) 
138.7848551692055

>  <Genealogy>  (84) 
C=c1c(=CC2=NC(=O)N(CC(=O)Nc3ccccc3[O-])C2=O)cc(C)n1CC(=O)[N-]c1cccc(C(=O)[O-])c1 (protonated)
C=c1c(=CC2=NC(=O)N(CC(=O)Nc3ccccc3[O-])C2=O)cc(C)n1CC(=O)[N-]c1cccc(C(=O)[O-])c1 (3D coordinates assigned)
C=c1c(=CC2=NC(=O)N(CC(=O)Nc3ccccc3[O-])C2=O)cc(C)n1CC(=O)[N-]c1cccc(C(=O)[O-])c1 (nonaromatic ring conformer: 138.7848551692055 kcal/mol)

>  <smiles>  (84) 
C=c1c(=CC2=NC(=O)N(CC(=O)Nc3ccccc3O)C2=O)cc(C)n1CC(=O)Nc1cccc(C(=O)O)c1

>  <score_type>  (84) 
oracle

>  <origin>  (84) 
adg

>  <m_score__min__energy>  (84) 
-19.489999999999998

>  <m_primary>  (84) 
energy

$$$$
84:0
     RDKit          3D

 60 63  0  0  0  0  0  0  0  0999 V2000
   55.5210   28.9880   44.8080 O   0  0  0  0  0  0  0  0  0  0  0  0
   56.6680   29.4810   44.6210 C   0  0  0  0  0  0  0  0  0  0  0  0
   56.8030   30.7490   43.8120 C   0  0  0  0  0  0  0  0  0  0  0  0
   57.5480   31.8220   44.5640 C   0  0  0  0  0  0  0  0  0  0  0  0
   58.0540   32.9390   43.8800 C   0  0  0  0  0  0  0  0  0  0  0  0
   58.7650   33.9270   44.5690 C   0  0  0  0  0  0  0  0  0  0  0  0
   58.9720   33.8140   45.9550 C   0  0  0  0  0  0  0  0  0  0  0  0
   59.7080   34.7990   46.6980 N   0  0  0  0  0  0  0  0  0  0  0  0
   60.4100   34.5900   47.9310 C   0  0  0  0  0  0  0  0  0  0  0  0
   59.8840   34.9160   49.0300 O   0  0  0  0  0  0  0  0  0  0  0  0
   61.6970   33.9570   47.9200 N   0  0  0  0  0  0  0  0  0  0  0  0
   62.3540   33.5020   46.7070 C   0  0  0  0  0  0  0  0  0  0  0  0
   63.6020   32.7650   47.1730 C   0  0  0  0  0  0  0  0  0  0  0  0
   63.8170   33.1720   48.6290 C   0  0  0  0  0  0  0  0  0  0  0  0
   62.4770   33.7070   49.1180 C   0  0  0  0  0  0  0  0  0  0  0  0
   58.5020   32.6790   46.6270 C   0  0  0  0  0  0  0  0  0  0  0  0
   57.7920   31.6910   45.9400 C   0  0  0  0  0  0  0  0  0  0  0  0
   57.8310   28.7980   45.1360 N   0  0  0  0  0  0  0  0  0  0  0  0
   59.1270   28.9370   44.4570 C   0  0  0  0  0  0  0  0  0  0  0  0
   60.2290   28.1790   45.2080 C   0  0  0  0  0  0  0  0  0  0  0  0
   60.0920   28.3240   46.6730 N   0  0  0  0  0  0  0  0  0  0  0  0
   60.2820   29.7140   47.1520 C   0  0  0  0  0  0  0  0  0  0  0  0
   60.0040   29.8310   48.6290 C   0  0  0  0  0  0  0  0  0  0  0  0
   59.0010   30.7000   49.0870 C   0  0  0  0  0  0  0  0  0  0  0  0
   58.7300   30.8020   50.4550 C   0  0  0  0  0  0  0  0  0  0  0  0
   59.4540   30.0370   51.3730 C   0  0  0  0  0  0  0  0  0  0  0  0
   60.4530   29.1650   50.9270 C   0  0  0  0  0  0  0  0  0  0  0  0
   61.1650   28.4060   51.8530 O   0  0  0  0  0  0  0  0  0  0  0  0
   60.7290   29.0620   49.5560 C   0  0  0  0  0  0  0  0  0  0  0  0
   58.8220   27.7380   47.1720 C   0  0  0  0  0  0  0  0  0  0  0  0
   57.6660   27.7420   46.1450 C   0  0  0  0  0  0  0  0  0  0  0  0
   57.3483   30.5219   42.8841 H   0  0  0  0  0  0  0  0  0  0  0  0
   55.7916   31.1244   43.5974 H   0  0  0  0  0  0  0  0  0  0  0  0
   57.8904   33.0376   42.7967 H   0  0  0  0  0  0  0  0  0  0  0  0
   59.1637   34.7956   44.0244 H   0  0  0  0  0  0  0  0  0  0  0  0
   61.6952   32.8247   46.1438 H   0  0  0  0  0  0  0  0  0  0  0  0
   62.6003   34.3392   46.0374 H   0  0  0  0  0  0  0  0  0  0  0  0
   63.4530   31.6777   47.0988 H   0  0  0  0  0  0  0  0  0  0  0  0
   64.4737   33.0196   46.5522 H   0  0  0  0  0  0  0  0  0  0  0  0
   64.1225   32.3015   49.2280 H   0  0  0  0  0  0  0  0  0  0  0  0
   64.6109   33.9276   48.7230 H   0  0  0  0  0  0  0  0  0  0  0  0
   61.9756   32.9631   49.7546 H   0  0  0  0  0  0  0  0  0  0  0  0
   62.5981   34.6178   49.7227 H   0  0  0  0  0  0  0  0  0  0  0  0
   58.6932   32.5643   47.7042 H   0  0  0  0  0  0  0  0  0  0  0  0
   57.4226   30.8066   46.4799 H   0  0  0  0  0  0  0  0  0  0  0  0
   59.0435   28.5323   43.4376 H   0  0  0  0  0  0  0  0  0  0  0  0
   59.3938   30.0038   44.4293 H   0  0  0  0  0  0  0  0  0  0  0  0
   60.1681   27.1119   44.9482 H   0  0  0  0  0  0  0  0  0  0  0  0
   61.1998   28.6024   44.9110 H   0  0  0  0  0  0  0  0  0  0  0  0
   61.3206   30.0203   46.9582 H   0  0  0  0  0  0  0  0  0  0  0  0
   59.5759   30.3643   46.6148 H   0  0  0  0  0  0  0  0  0  0  0  0
   58.4267   31.3023   48.3677 H   0  0  0  0  0  0  0  0  0  0  0  0
   57.9449   31.4862   50.8093 H   0  0  0  0  0  0  0  0  0  0  0  0
   59.2381   30.1205   52.4484 H   0  0  0  0  0  0  0  0  0  0  0  0
   61.9400   28.7970   52.3750 H   0  0  0  0  0  0  0  0  0  0  0  0
   61.5152   28.3774   49.2048 H   0  0  0  0  0  0  0  0  0  0  0  0
   59.0167   26.6960   47.4659 H   0  0  0  0  0  0  0  0  0  0  0  0
   58.4958   28.3685   48.0122 H   0  0  0  0  0  0  0  0  0  0  0  0
   57.6384   26.7666   45.6373 H   0  0  0  0  0  0  0  0  0  0  0  0
   56.7289   27.9338   46.6882 H   0  0  0  0  0  0  0  0  0  0  0  0
  1  2  2  0
  2  3  1  0
  3  4  1  0
  4  5  2  0
  5  6  1  0
  6  7  2  0
  7  8  1  0
  8  9  1  0
  9 10  2  0
  9 11  1  0
 11 12  1  0
 12 13  1  0
 13 14  1  0
 14 15  1  0
  7 16  1  0
 16 17  2  0
  2 18  1  0
 18 19  1  0
 19 20  1  0
 20 21  1  0
 21 22  1  0
 22 23  1  0
 23 24  2  0
 24 25  1  0
 25 26  2  0
 26 27  1  0
 27 28  1  0
 27 29  2  0
 21 30  1  0
 30 31  1  0
 17  4  1  0
 31 18  1  0
 15 11  1  0
 29 23  1  0
  3 32  1  0
  3 33  1  0
  5 34  1  0
  6 35  1  0
 12 36  1  0
 12 37  1  0
 13 38  1  0
 13 39  1  0
 14 40  1  0
 14 41  1  0
 15 42  1  0
 15 43  1  0
 16 44  1  0
 17 45  1  0
 19 46  1  0
 19 47  1  0
 20 48  1  0
 20 49  1  0
 22 50  1  0
 22 51  1  0
 24 52  1  0
 25 53  1  0
 26 54  1  0
 28 55  1  0
 29 56  1  0
 30 57  1  0
 30 58  1  0
 31 59  1  0
 31 60  1  0
M  CHG  1   8  -1
M  END
>  <UniqueID>  (85) 
81

>  <SMILES>  (85) 
O=C(Cc1ccc([N-]C(=O)N2CCCC2)cc1)N1CCN(Cc2cccc(O)c2)CC1

>  <Energy>  (85) 
72.58533993096223

>  <Genealogy>  (85) 
O=C(Cc1ccc([N-]C(=O)N2CCCC2)cc1)N1CCN(Cc2cccc(O)c2)CC1 (protonated)
O=C(Cc1ccc([N-]C(=O)N2CCCC2)cc1)N1CCN(Cc2cccc(O)c2)CC1 (3D coordinates assigned)
O=C(Cc1ccc([N-]C(=O)N2CCCC2)cc1)N1CCN(Cc2cccc(O)c2)CC1 (nonaromatic ring conformer: 72.58533993096223 kcal/mol)

>  <smiles>  (85) 
O=C(Cc1ccc(NC(=O)N2CCCC2)cc1)N1CCN(Cc2cccc(O)c2)CC1

>  <score_type>  (85) 
oracle

>  <origin>  (85) 
adg

>  <m_score__min__energy>  (85) 
-10.619999999999999

>  <m_primary>  (85) 
energy

$$$$
85:0
     RDKit          3D

 60 63  0  0  1  0  0  0  0  0999 V2000
   54.5450   24.0860   45.0550 C   0  0  0  0  0  0  0  0  0  0  0  0
   54.6710   25.1840   45.9450 O   0  0  0  0  0  0  0  0  0  0  0  0
   55.8900   25.8210   46.1570 C   0  0  0  0  0  0  0  0  0  0  0  0
   56.9120   25.1790   46.8290 C   0  0  0  0  0  0  0  0  0  0  0  0
   58.1440   25.7740   47.0660 C   0  0  0  0  0  0  0  0  0  0  0  0
   58.2900   27.0760   46.5750 C   0  0  0  0  0  0  0  0  0  0  0  0
   59.4370   27.6230   46.7970 N   0  0  0  0  0  0  0  0  0  0  0  0
   59.8160   27.8780   48.1240 C   0  0  0  0  0  0  0  0  0  0  0  0
   60.3020   26.8990   48.7830 O   0  0  0  0  0  0  0  0  0  0  0  0
   59.6750   29.1890   48.7600 C   0  0  0  0  0  0  0  0  0  0  0  0
   58.5400   29.5620   49.4520 C   0  0  0  0  0  0  0  0  0  0  0  0
   58.4770   30.8300   50.0290 C   0  0  0  0  0  0  0  0  0  0  0  0
   59.5230   31.7310   49.9300 C   0  0  0  0  0  0  0  0  0  0  0  0
   60.6580   31.3580   49.2380 C   0  0  0  0  0  0  0  0  0  0  0  0
   61.8390   32.2230   49.0570 C   0  0  1  0  0  0  0  0  0  0  0  0
   63.1370   31.4480   49.2260 C   0  0  0  0  0  0  0  0  0  0  0  0
   64.2600   32.2930   49.1950 N   0  0  0  0  0  0  0  0  0  0  0  0
   64.1700   33.5170   48.4900 C   0  0  0  0  0  0  0  0  0  0  0  0
   62.9550   33.8480   47.7370 C   0  0  0  0  0  0  0  0  0  0  0  0
   61.9540   32.7180   47.6010 C   0  0  2  0  0  0  0  0  0  0  0  0
   60.7110   33.1900   47.1080 N   0  0  0  0  0  0  0  0  0  0  0  0
   59.7410   32.4430   46.3920 C   0  0  0  0  0  0  0  0  0  0  0  0
   60.0010   31.1400   45.9950 C   0  0  0  0  0  0  0  0  0  0  0  0
   59.1080   30.3730   45.2860 C   0  0  0  0  0  0  0  0  0  0  0  0
   57.8950   30.9230   44.9510 C   0  0  0  0  0  0  0  0  0  0  0  0
   56.6950   30.0220   44.0480 S   0  0  0  0  0  0  0  0  0  0  0  0
   57.4240   28.5890   43.3730 N   0  0  0  0  0  0  0  0  0  0  0  0
   55.4820   29.6940   44.8670 O   0  0  0  0  0  0  0  0  0  0  0  0
   56.2080   30.8120   42.8500 O   0  0  0  0  0  0  0  0  0  0  0  0
   57.5750   32.2130   45.3140 C   0  0  0  0  0  0  0  0  0  0  0  0
   58.5070   32.9470   46.0290 C   0  0  0  0  0  0  0  0  0  0  0  0
   60.7100   30.0930   48.6660 C   0  0  0  0  0  0  0  0  0  0  0  0
   57.2870   27.6870   45.9230 N   0  0  0  0  0  0  0  0  0  0  0  0
   56.1360   27.0710   45.7280 N   0  0  0  0  0  0  0  0  0  0  0  0
   54.4383   23.1561   45.6328 H   0  0  0  0  0  0  0  0  0  0  0  0
   53.6572   24.2278   44.4212 H   0  0  0  0  0  0  0  0  0  0  0  0
   55.4418   24.0230   44.4212 H   0  0  0  0  0  0  0  0  0  0  0  0
   56.7429   24.1542   47.1913 H   0  0  0  0  0  0  0  0  0  0  0  0
   58.9516   25.2561   47.6041 H   0  0  0  0  0  0  0  0  0  0  0  0
   57.6937   28.8658   49.5473 H   0  0  0  0  0  0  0  0  0  0  0  0
   57.5701   31.1225   50.5785 H   0  0  0  0  0  0  0  0  0  0  0  0
   59.4514   32.7258   50.3940 H   0  0  0  0  0  0  0  0  0  0  0  0
   61.7069   33.0280   49.7949 H   0  0  0  0  0  0  0  0  0  0  0  0
   63.1141   30.9223   50.1920 H   0  0  0  0  0  0  0  0  0  0  0  0
   63.2214   30.7381   48.3900 H   0  0  0  0  0  0  0  0  0  0  0  0
   64.6370   32.3750   50.1690 H   0  0  0  0  0  0  0  0  0  0  0  0
   64.3126   34.3191   49.2291 H   0  0  0  0  0  0  0  0  0  0  0  0
   64.9308   33.4091   47.7029 H   0  0  0  0  0  0  0  0  0  0  0  0
   62.4561   34.6855   48.2465 H   0  0  0  0  0  0  0  0  0  0  0  0
   63.2843   34.0896   46.7156 H   0  0  0  0  0  0  0  0  0  0  0  0
   62.2550   31.9339   46.8906 H   0  0  0  0  0  0  0  0  0  0  0  0
   60.4750   34.2110   47.2910 H   0  0  0  0  0  0  0  0  0  0  0  0
   60.9722   30.6975   46.2614 H   0  0  0  0  0  0  0  0  0  0  0  0
   59.3589   29.3427   44.9936 H   0  0  0  0  0  0  0  0  0  0  0  0
   58.4630   28.6630   43.4800 H   0  0  0  0  0  0  0  0  0  0  0  0
   57.0540   27.7260   43.8590 H   0  0  0  0  0  0  0  0  0  0  0  0
   56.6026   32.6496   45.0425 H   0  0  0  0  0  0  0  0  0  0  0  0
   58.2533   33.9768   46.3207 H   0  0  0  0  0  0  0  0  0  0  0  0
   61.6160   29.8010   48.1147 H   0  0  0  0  0  0  0  0  0  0  0  0
   57.4150   28.6500   45.5670 H   0  0  0  0  0  0  0  0  0  0  0  0
  1  2  1  0
  2  3  1  0
  3  4  1  0
  4  5  2  0
  5  6  1  0
  6  7  2  0
  7  8  1  0
  8  9  2  0
  8 10  1  0
 10 11  2  0
 11 12  1  0
 12 13  2  0
 13 14  1  0
 14 15  1  0
 15 16  1  0
 16 17  1  0
 17 18  1  0
 18 19  1  0
 19 20  1  0
 20 21  1  0
 21 22  1  0
 22 23  2  0
 23 24  1  0
 24 25  2  0
 25 26  1  0
 26 27  1  0
 26 28  2  0
 26 29  2  0
 25 30  1  0
 30 31  2  0
 14 32  2  0
  6 33  1  0
 33 34  1  0
 34  3  2  0
 32 10  1  0
 20 15  1  0
 31 22  1  0
  1 35  1  0
  1 36  1  0
  1 37  1  0
  4 38  1  0
  5 39  1  0
 11 40  1  0
 12 41  1  0
 13 42  1  0
 15 43  1  1
 16 44  1  0
 16 45  1  0
 17 46  1  0
 18 47  1  0
 18 48  1  0
 19 49  1  0
 19 50  1  0
 20 51  1  6
 21 52  1  0
 23 53  1  0
 24 54  1  0
 27 55  1  0
 27 56  1  0
 30 57  1  0
 31 58  1  0
 32 59  1  0
 33 60  1  0
M  END
>  <smiles>  (86) 
COc1ccc(=NC(=O)c2cccc(C3CNCCC3Nc3ccc(S(N)(=O)=O)cc3)c2)[nH]n1

>  <score_type>  (86) 
oracle

>  <origin>  (86) 
adg

>  <m_score__min__energy>  (86) 
-11.039999999999999

>  <m_primary>  (86) 
energy

$$$$
