0:0
     RDKit          3D

 49 52  0  0  0  0  0  0  0  0999 V2000
   57.2480   32.8977   50.3431 H   0  0  0  0  0  0  0  0  0  0  0  0
   58.1930   32.3490   50.2170 C   0  0  0  0  0  0  0  0  0  0  0  0
   59.2360   32.9220   49.4890 C   0  0  0  0  0  0  0  0  0  0  0  0
   59.1094   33.9217   49.0479 H   0  0  0  0  0  0  0  0  0  0  0  0
   60.4420   32.2340   49.3160 C   0  0  0  0  0  0  0  0  0  0  0  0
   61.7610   33.0020   48.4390 S   0  0  0  0  0  0  0  0  0  0  0  0
   62.0820   34.3540   49.0120 O   0  0  0  0  0  0  0  0  0  0  0  0
   62.9870   32.1410   48.5510 O   0  0  0  0  0  0  0  0  0  0  0  0
   61.3240   33.1480   46.7690 N   0  0  0  0  0  0  0  0  0  0  0  0
   59.9880   33.2610   46.2590 C   0  0  0  0  0  0  0  0  0  0  0  0
   59.3930   34.5100   45.9770 C   0  0  0  0  0  0  0  0  0  0  0  0
   59.9496   35.4356   46.1854 H   0  0  0  0  0  0  0  0  0  0  0  0
   58.0930   34.5870   45.4310 C   0  0  0  0  0  0  0  0  0  0  0  0
   57.6549   35.5708   45.2070 H   0  0  0  0  0  0  0  0  0  0  0  0
   57.3540   33.4240   45.1710 C   0  0  0  0  0  0  0  0  0  0  0  0
   56.3350   33.4749   44.7598 H   0  0  0  0  0  0  0  0  0  0  0  0
   57.9590   32.2030   45.4530 C   0  0  0  0  0  0  0  0  0  0  0  0
   57.5400   30.9080   45.2760 C   0  0  0  0  0  0  0  0  0  0  0  0
   56.4350   30.5490   44.7910 O   0  0  0  0  0  0  0  0  0  0  0  0
   58.5160   30.0710   45.6900 N   0  0  0  0  0  0  0  0  0  0  0  0
   58.4500   28.6100   45.6770 C   0  0  0  0  0  0  0  0  0  0  0  0
   58.4330   28.2345   46.7108 H   0  0  0  0  0  0  0  0  0  0  0  0
   57.5364   28.2889   45.1552 H   0  0  0  0  0  0  0  0  0  0  0  0
   59.3309   28.2078   45.1552 H   0  0  0  0  0  0  0  0  0  0  0  0
   59.5470   30.8010   46.1310 N   0  0  0  0  0  0  0  0  0  0  0  0
   60.8010   30.2650   46.6660 C   0  0  0  0  0  0  0  0  0  0  0  0
   60.7666   30.2797   47.7654 H   0  0  0  0  0  0  0  0  0  0  0  0
   60.9360   29.2305   46.3172 H   0  0  0  0  0  0  0  0  0  0  0  0
   61.6420   30.8823   46.3172 H   0  0  0  0  0  0  0  0  0  0  0  0
   59.2270   32.1100   45.9810 C   0  0  0  0  0  0  0  0  0  0  0  0
   60.5990   30.9620   49.8760 C   0  0  0  0  0  0  0  0  0  0  0  0
   61.5429   30.4141   49.7387 H   0  0  0  0  0  0  0  0  0  0  0  0
   59.5580   30.3860   50.6100 C   0  0  0  0  0  0  0  0  0  0  0  0
   59.6889   29.3866   51.0505 H   0  0  0  0  0  0  0  0  0  0  0  0
   58.3430   31.0750   50.7900 C   0  0  0  0  0  0  0  0  0  0  0  0
   57.2490   30.4790   51.5870 C   0  0  0  0  0  0  0  0  0  0  0  0
   57.3470   29.2930   51.9980 O   0  0  0  0  0  0  0  0  0  0  0  0
   56.0430   31.2250   51.8170 N   0  0  0  0  0  0  0  0  0  0  0  0
   54.8350   30.7660   51.9740 C   0  0  0  0  0  0  0  0  0  0  0  0
   54.6260   29.7480   52.9150 C   0  0  0  0  0  0  0  0  0  0  0  0
   55.4635   29.3864   53.5297 H   0  0  0  0  0  0  0  0  0  0  0  0
   53.3580   29.1950   53.0710 C   0  0  0  0  0  0  0  0  0  0  0  0
   53.1917   28.3946   53.8070 H   0  0  0  0  0  0  0  0  0  0  0  0
   52.3020   29.6580   52.2930 C   0  0  0  0  0  0  0  0  0  0  0  0
   51.2957   29.2289   52.4083 H   0  0  0  0  0  0  0  0  0  0  0  0
   52.5350   30.6750   51.3630 C   0  0  0  0  0  0  0  0  0  0  0  0
   51.7055   31.0504   50.7457 H   0  0  0  0  0  0  0  0  0  0  0  0
   53.7810   31.2050   51.2150 N   0  0  0  0  0  0  0  0  0  0  0  0
   53.9030   31.9250   50.4730 H   0  0  0  0  0  0  0  0  0  0  0  0
  1  2  1  0
  2  3  2  0
  3  4  1  0
  3  5  1  0
  5  6  1  0
  6  7  2  0
  6  8  2  0
  6  9  1  0
  9 10  1  0
 10 11  2  0
 11 12  1  0
 11 13  1  0
 13 14  1  0
 13 15  2  0
 15 16  1  0
 15 17  1  0
 17 18  1  0
 18 19  2  0
 18 20  1  0
 20 21  1  0
 21 22  1  0
 21 23  1  0
 21 24  1  0
 20 25  1  0
 25 26  1  0
 26 27  1  0
 26 28  1  0
 26 29  1  0
 25 30  1  0
  5 31  2  0
 31 32  1  0
 31 33  1  0
 33 34  1  0
 33 35  2  0
 35 36  1  0
 36 37  2  0
 36 38  1  0
 38 39  2  0
 39 40  1  0
 40 41  1  0
 40 42  2  0
 42 43  1  0
 42 44  1  0
 44 45  1  0
 44 46  2  0
 46 47  1  0
 46 48  1  0
 48 49  1  0
 35  2  1  0
 48 39  1  0
 30 10  1  0
 30 17  2  0
M  CHG  1   9  -1
M  END
>  <UniqueID>  (1) 
1

>  <SMILES>  (1) 
Cn1c(=O)c2cccc([N-]S(=O)(=O)c3ccc(C(=O)/N=c4/cccc[nH]4)cc3)c2n1C

>  <Energy>  (1) 
109.5870098007475

>  <Genealogy>  (1) 
Cn1c(=O)c2cccc([N-]S(=O)(=O)c3ccc(C(=O)N=c4cccc[nH]4)cc3)c2n1C (protonated)
Cn1c(=O)c2cccc([N-]S(=O)(=O)c3ccc(C(=O)/N=c4/cccc[nH]4)cc3)c2n1C (cis-trans isomerization)
Cn1c(=O)c2cccc([N-]S(=O)(=O)c3ccc(C(=O)/N=c4/cccc[nH]4)cc3)c2n1C (3D coordinates assigned)
Cn1c(=O)c2cccc([N-]S(=O)(=O)c3ccc(C(=O)/N=c4/cccc[nH]4)cc3)c2n1C (optimized conformer: 109.5870098007475 kcal/mol)

>  <smiles>  (1) 
Cn1c(=O)c2cccc(NS(=O)(=O)c3ccc(C(=O)N=c4cccc[nH]4)cc3)c2n1C

>  <score_type>  (1) 
oracle

>  <origin>  (1) 
adg

>  <m_score__min__energy>  (1) 
-10.390000000000001

>  <m_primary>  (1) 
energy

$$$$
1:0
     RDKit          3D

 66 70  0  0  0  0  0  0  0  0999 V2000
   59.2810   34.0450   51.0630 O   0  0  0  0  0  0  0  0  0  0  0  0
   60.0580   33.0560   50.9530 C   0  0  0  0  0  0  0  0  0  0  0  0
   61.3960   33.0380   51.6500 C   0  0  0  0  0  0  0  0  0  0  0  0
   62.4780   33.8670   50.9410 C   0  0  0  0  0  0  0  0  0  0  0  0
   62.6330   33.4950   49.4830 C   0  0  0  0  0  0  0  0  0  0  0  0
   61.8650   34.1450   48.4970 C   0  0  0  0  0  0  0  0  0  0  0  0
   62.0370   33.8280   47.1460 C   0  0  0  0  0  0  0  0  0  0  0  0
   62.9630   32.8550   46.7690 C   0  0  0  0  0  0  0  0  0  0  0  0
   63.7230   32.1940   47.7420 C   0  0  0  0  0  0  0  0  0  0  0  0
   63.5640   32.5170   49.0960 C   0  0  0  0  0  0  0  0  0  0  0  0
   59.6620   31.9600   50.1270 N   0  0  0  0  0  0  0  0  0  0  0  0
   59.1990   32.0720   48.7740 C   0  0  0  0  0  0  0  0  0  0  0  0
   59.2930   30.9470   47.9180 C   0  0  0  0  0  0  0  0  0  0  0  0
   58.9060   31.0330   46.5690 C   0  0  0  0  0  0  0  0  0  0  0  0
   58.4510   32.2670   46.1060 C   0  0  0  0  0  0  0  0  0  0  0  0
   58.3740   33.3580   46.9170 C   0  0  0  0  0  0  0  0  0  0  0  0
   58.7460   33.3080   48.2580 C   0  0  0  0  0  0  0  0  0  0  0  0
   57.9120   34.4200   46.2360 N   0  0  0  0  0  0  0  0  0  0  0  0
   57.7090   33.9210   44.9880 C   0  0  0  0  0  0  0  0  0  0  0  0
   58.0380   32.6130   44.8750 N   0  0  0  0  0  0  0  0  0  0  0  0
   57.8930   31.7710   43.6890 C   0  0  0  0  0  0  0  0  0  0  0  0
   57.3000   30.4440   44.0630 C   0  0  0  0  0  0  0  0  0  0  0  0
   56.1560   30.4090   44.5880 O   0  0  0  0  0  0  0  0  0  0  0  0
   58.0060   29.2250   43.7700 N   0  0  0  0  0  0  0  0  0  0  0  0
   57.6930   27.9550   44.3710 C   0  0  0  0  0  0  0  0  0  0  0  0
   58.1170   26.7450   43.7940 C   0  0  0  0  0  0  0  0  0  0  0  0
   57.7850   25.5240   44.3870 C   0  0  0  0  0  0  0  0  0  0  0  0
   57.0040   25.4940   45.5500 C   0  0  0  0  0  0  0  0  0  0  0  0
   56.5880   23.9540   46.2970 S   0  0  0  0  0  0  0  0  0  0  0  0
   55.3420   24.1240   47.1230 O   0  0  0  0  0  0  0  0  0  0  0  0
   57.7050   23.5110   47.2040 O   0  0  0  0  0  0  0  0  0  0  0  0
   56.2950   22.7690   45.0470 N   0  0  0  0  0  0  0  0  0  0  0  0
   55.7020   23.3740   43.8490 C   0  0  0  0  0  0  0  0  0  0  0  0
   56.2020   22.5740   42.6510 C   0  0  0  0  0  0  0  0  0  0  0  0
   57.2860   21.6580   43.1920 C   0  0  0  0  0  0  0  0  0  0  0  0
   57.5450   22.1580   44.6000 C   0  0  0  0  0  0  0  0  0  0  0  0
   56.5620   26.6980   46.1170 C   0  0  0  0  0  0  0  0  0  0  0  0
   56.8980   27.9180   45.5260 C   0  0  0  0  0  0  0  0  0  0  0  0
   61.2629   33.4385   52.6658 H   0  0  0  0  0  0  0  0  0  0  0  0
   61.7422   31.9939   51.6499 H   0  0  0  0  0  0  0  0  0  0  0  0
   62.2061   34.9309   51.0063 H   0  0  0  0  0  0  0  0  0  0  0  0
   63.4361   33.6620   51.4410 H   0  0  0  0  0  0  0  0  0  0  0  0
   61.1266   34.9054   48.7912 H   0  0  0  0  0  0  0  0  0  0  0  0
   61.4417   34.3462   46.3798 H   0  0  0  0  0  0  0  0  0  0  0  0
   63.0964   32.6066   45.7057 H   0  0  0  0  0  0  0  0  0  0  0  0
   64.4455   31.4204   47.4429 H   0  0  0  0  0  0  0  0  0  0  0  0
   64.1695   32.0037   49.8575 H   0  0  0  0  0  0  0  0  0  0  0  0
   59.6737   29.9939   48.3139 H   0  0  0  0  0  0  0  0  0  0  0  0
   58.9602   30.1589   45.9034 H   0  0  0  0  0  0  0  0  0  0  0  0
   58.6892   34.2023   48.8960 H   0  0  0  0  0  0  0  0  0  0  0  0
   57.3165   34.5204   44.1533 H   0  0  0  0  0  0  0  0  0  0  0  0
   57.2331   32.2728   42.9660 H   0  0  0  0  0  0  0  0  0  0  0  0
   58.8849   31.6071   43.2425 H   0  0  0  0  0  0  0  0  0  0  0  0
   58.7480   29.2490   43.0300 H   0  0  0  0  0  0  0  0  0  0  0  0
   58.7138   26.7596   42.8701 H   0  0  0  0  0  0  0  0  0  0  0  0
   58.1379   24.5833   43.9393 H   0  0  0  0  0  0  0  0  0  0  0  0
   54.6045   23.3246   43.9047 H   0  0  0  0  0  0  0  0  0  0  0  0
   55.9884   24.4324   43.7612 H   0  0  0  0  0  0  0  0  0  0  0  0
   55.3827   21.9832   42.2154 H   0  0  0  0  0  0  0  0  0  0  0  0
   56.5848   23.2304   41.8556 H   0  0  0  0  0  0  0  0  0  0  0  0
   56.9392   20.6142   43.2086 H   0  0  0  0  0  0  0  0  0  0  0  0
   58.1936   21.6750   42.5707 H   0  0  0  0  0  0  0  0  0  0  0  0
   57.8180   21.3205   45.2588 H   0  0  0  0  0  0  0  0  0  0  0  0
   58.3767   22.8775   44.6253 H   0  0  0  0  0  0  0  0  0  0  0  0
   55.9488   26.6815   47.0301 H   0  0  0  0  0  0  0  0  0  0  0  0
   56.5363   28.8573   45.9698 H   0  0  0  0  0  0  0  0  0  0  0  0
  1  2  2  0
  2  3  1  0
  3  4  1  0
  4  5  1  0
  5  6  2  0
  6  7  1  0
  7  8  2  0
  8  9  1  0
  9 10  2  0
  2 11  1  0
 11 12  1  0
 12 13  2  0
 13 14  1  0
 14 15  2  0
 15 16  1  0
 16 17  2  0
 16 18  1  0
 18 19  2  0
 19 20  1  0
 20 21  1  0
 21 22  1  0
 22 23  2  0
 22 24  1  0
 24 25  1  0
 25 26  2  0
 26 27  1  0
 27 28  2  0
 28 29  1  0
 29 30  2  0
 29 31  2  0
 29 32  1  0
 32 33  1  0
 33 34  1  0
 34 35  1  0
 35 36  1  0
 28 37  1  0
 37 38  2  0
 10  5  1  0
 17 12  1  0
 38 25  1  0
 20 15  1  0
 36 32  1  0
  3 39  1  0
  3 40  1  0
  4 41  1  0
  4 42  1  0
  6 43  1  0
  7 44  1  0
  8 45  1  0
  9 46  1  0
 10 47  1  0
 13 48  1  0
 14 49  1  0
 17 50  1  0
 19 51  1  0
 21 52  1  0
 21 53  1  0
 24 54  1  0
 26 55  1  0
 27 56  1  0
 33 57  1  0
 33 58  1  0
 34 59  1  0
 34 60  1  0
 35 61  1  0
 35 62  1  0
 36 63  1  0
 36 64  1  0
 37 65  1  0
 38 66  1  0
M  CHG  1  11  -1
M  END
>  <UniqueID>  (2) 
2

>  <SMILES>  (2) 
O=C(CCc1ccccc1)[N-]c1ccc2c(c1)ncn2CC(=O)Nc1ccc(S(=O)(=O)N2CCCC2)cc1

>  <Energy>  (2) 
116.0373749085526

>  <Genealogy>  (2) 
O=C(CCc1ccccc1)[N-]c1ccc2c(c1)ncn2CC(=O)Nc1ccc(S(=O)(=O)N2CCCC2)cc1 (protonated)
O=C(CCc1ccccc1)[N-]c1ccc2c(c1)ncn2CC(=O)Nc1ccc(S(=O)(=O)N2CCCC2)cc1 (3D coordinates assigned)
O=C(CCc1ccccc1)[N-]c1ccc2c(c1)ncn2CC(=O)Nc1ccc(S(=O)(=O)N2CCCC2)cc1 (nonaromatic ring conformer: 116.0373749085526 kcal/mol)

>  <smiles>  (2) 
O=C(CCc1ccccc1)Nc1ccc2c(c1)ncn2CC(=O)Nc1ccc(S(=O)(=O)N2CCCC2)cc1

>  <score_type>  (2) 
oracle

>  <origin>  (2) 
adg

>  <m_score__min__energy>  (2) 
-11.75

>  <m_primary>  (2) 
energy

$$$$
2:0
     RDKit          3D

 57 61  0  0  0  0  0  0  0  0999 V2000
   57.1880   22.7280   47.6950 O   0  0  0  0  0  0  0  0  0  0  0  0
   56.8640   23.8300   47.1840 C   0  0  0  0  0  0  0  0  0  0  0  0
   55.6130   23.9870   46.6400 N   0  0  0  0  0  0  0  0  0  0  0  0
   55.2280   25.1720   46.0790 C   0  0  0  0  0  0  0  0  0  0  0  0
   54.0750   25.3040   45.5890 O   0  0  0  0  0  0  0  0  0  0  0  0
   56.1430   26.2170   46.0750 C   0  0  0  0  0  0  0  0  0  0  0  0
   56.0010   27.4670   45.6040 N   0  0  0  0  0  0  0  0  0  0  0  0
   57.1830   28.0880   45.8610 C   0  0  0  0  0  0  0  0  0  0  0  0
   57.4630   29.5090   45.5390 C   0  0  0  0  0  0  0  0  0  0  0  0
   56.8140   30.1410   44.4630 C   0  0  0  0  0  0  0  0  0  0  0  0
   57.0930   31.4750   44.1520 C   0  0  0  0  0  0  0  0  0  0  0  0
   58.0240   32.1930   44.9030 C   0  0  0  0  0  0  0  0  0  0  0  0
   58.6760   31.5830   45.9830 C   0  0  0  0  0  0  0  0  0  0  0  0
   59.8410   32.4950   46.9490 S   0  0  0  0  0  0  0  0  0  0  0  0
   60.9860   31.5960   47.3270 O   0  0  0  0  0  0  0  0  0  0  0  0
   60.3920   33.6250   46.1220 O   0  0  0  0  0  0  0  0  0  0  0  0
   59.1110   33.1420   48.3990 N   0  0  0  0  0  0  0  0  0  0  0  0
   60.0460   34.0470   49.0970 C   0  0  0  0  0  0  0  0  0  0  0  0
   59.6820   34.1800   50.5780 C   0  0  0  0  0  0  0  0  0  0  0  0
   59.8380   32.8840   51.2720 N   0  0  0  0  0  0  0  0  0  0  0  0
   59.1450   32.8920   52.5780 C   0  0  0  0  0  0  0  0  0  0  0  0
   57.6210   32.9460   52.3900 C   0  0  0  0  0  0  0  0  0  0  0  0
   56.9970   31.5880   52.5910 C   0  0  0  0  0  0  0  0  0  0  0  0
   55.6640   31.3590   52.2090 C   0  0  0  0  0  0  0  0  0  0  0  0
   55.0770   30.1070   52.4180 C   0  0  0  0  0  0  0  0  0  0  0  0
   55.8110   29.0780   53.0140 C   0  0  0  0  0  0  0  0  0  0  0  0
   57.1350   29.3000   53.4070 C   0  0  0  0  0  0  0  0  0  0  0  0
   57.7250   30.5520   53.2050 C   0  0  0  0  0  0  0  0  0  0  0  0
   59.4710   31.7100   50.4350 C   0  0  0  0  0  0  0  0  0  0  0  0
   58.5490   32.0750   49.2570 C   0  0  0  0  0  0  0  0  0  0  0  0
   58.3960   30.2430   46.2950 C   0  0  0  0  0  0  0  0  0  0  0  0
   58.0760   27.2140   46.4980 C   0  0  0  0  0  0  0  0  0  0  0  0
   57.3760   26.0370   46.6140 C   0  0  0  0  0  0  0  0  0  0  0  0
   57.7600   24.8640   47.1750 N   0  0  0  0  0  0  0  0  0  0  0  0
   55.1580   27.8590   45.1270 H   0  0  0  0  0  0  0  0  0  0  0  0
   56.0818   29.5817   43.8621 H   0  0  0  0  0  0  0  0  0  0  0  0
   56.5761   31.9608   43.3113 H   0  0  0  0  0  0  0  0  0  0  0  0
   58.2466   33.2394   44.6470 H   0  0  0  0  0  0  0  0  0  0  0  0
   61.0662   33.6444   49.0125 H   0  0  0  0  0  0  0  0  0  0  0  0
   59.9831   35.0415   48.6311 H   0  0  0  0  0  0  0  0  0  0  0  0
   60.3436   34.9230   51.0473 H   0  0  0  0  0  0  0  0  0  0  0  0
   58.6326   34.5000   50.6573 H   0  0  0  0  0  0  0  0  0  0  0  0
   59.4075   31.9778   53.1305 H   0  0  0  0  0  0  0  0  0  0  0  0
   59.4617   33.7840   53.1383 H   0  0  0  0  0  0  0  0  0  0  0  0
   57.1942   33.6485   53.1210 H   0  0  0  0  0  0  0  0  0  0  0  0
   57.4088   33.2776   51.3629 H   0  0  0  0  0  0  0  0  0  0  0  0
   55.0804   32.1673   51.7441 H   0  0  0  0  0  0  0  0  0  0  0  0
   54.0349   29.9318   52.1125 H   0  0  0  0  0  0  0  0  0  0  0  0
   55.3476   28.0933   53.1741 H   0  0  0  0  0  0  0  0  0  0  0  0
   57.7126   28.4894   53.8753 H   0  0  0  0  0  0  0  0  0  0  0  0
   58.7620   30.7275   53.5273 H   0  0  0  0  0  0  0  0  0  0  0  0
   60.3929   31.2641   50.0334 H   0  0  0  0  0  0  0  0  0  0  0  0
   58.9207   31.0071   51.0777 H   0  0  0  0  0  0  0  0  0  0  0  0
   58.3911   31.1764   48.6426 H   0  0  0  0  0  0  0  0  0  0  0  0
   57.6054   32.4514   49.6788 H   0  0  0  0  0  0  0  0  0  0  0  0
   58.9113   29.7617   47.1393 H   0  0  0  0  0  0  0  0  0  0  0  0
   59.1038   27.4232   46.8296 H   0  0  0  0  0  0  0  0  0  0  0  0
  1  2  2  0
  2  3  1  0
  3  4  1  0
  4  5  2  0
  4  6  1  0
  6  7  1  0
  7  8  1  0
  8  9  1  0
  9 10  2  0
 10 11  1  0
 11 12  2  0
 12 13  1  0
 13 14  1  0
 14 15  2  0
 14 16  2  0
 14 17  1  0
 17 18  1  0
 18 19  1  0
 19 20  1  0
 20 21  1  0
 21 22  1  0
 22 23  1  0
 23 24  2  0
 24 25  1  0
 25 26  2  0
 26 27  1  0
 27 28  2  0
 20 29  1  0
 29 30  1  0
 13 31  2  0
  8 32  2  0
 32 33  1  0
 33 34  1  0
 34  2  1  0
 33  6  2  0
 31  9  1  0
 30 17  1  0
 28 23  1  0
  7 35  1  0
 10 36  1  0
 11 37  1  0
 12 38  1  0
 18 39  1  0
 18 40  1  0
 19 41  1  0
 19 42  1  0
 21 43  1  0
 21 44  1  0
 22 45  1  0
 22 46  1  0
 24 47  1  0
 25 48  1  0
 26 49  1  0
 27 50  1  0
 28 51  1  0
 29 52  1  0
 29 53  1  0
 30 54  1  0
 30 55  1  0
 31 56  1  0
 32 57  1  0
M  CHG  2   3  -1  34  -1
M  END
>  <UniqueID>  (3) 
3

>  <SMILES>  (3) 
O=c1[n-]c(=O)c2[nH]c(-c3cccc(S(=O)(=O)N4CCN(CCc5ccccc5)CC4)c3)cc2[n-]1

>  <Energy>  (3) 
109.32376806121425

>  <Genealogy>  (3) 
O=c1[n-]c(=O)c2[nH]c(-c3cccc(S(=O)(=O)N4CCN(CCc5ccccc5)CC4)c3)cc2[n-]1 (protonated)
O=c1[n-]c(=O)c2[nH]c(-c3cccc(S(=O)(=O)N4CCN(CCc5ccccc5)CC4)c3)cc2[n-]1 (3D coordinates assigned)
O=c1[n-]c(=O)c2[nH]c(-c3cccc(S(=O)(=O)N4CCN(CCc5ccccc5)CC4)c3)cc2[n-]1 (nonaromatic ring conformer: 109.32376806121425 kcal/mol)

>  <smiles>  (3) 
O=c1[nH]c(=O)c2[nH]c(-c3cccc(S(=O)(=O)N4CCN(CCc5ccccc5)CC4)c3)cc2[nH]1

>  <score_type>  (3) 
oracle

>  <origin>  (3) 
adg

>  <m_score__min__energy>  (3) 
-14.25

>  <m_primary>  (3) 
energy

$$$$
3:0
     RDKit          3D

 54 57  0  0  0  0  0  0  0  0999 V2000
   59.6570   35.2020   45.6220 C   0  0  0  0  0  0  0  0  0  0  0  0
   58.9710   33.8610   45.6440 C   0  0  0  0  0  0  0  0  0  0  0  0
   58.3330   33.4070   44.4780 C   0  0  0  0  0  0  0  0  0  0  0  0
   57.7040   32.1630   44.4470 C   0  0  0  0  0  0  0  0  0  0  0  0
   57.6830   31.3560   45.5890 C   0  0  0  0  0  0  0  0  0  0  0  0
   57.0630   30.0620   45.5810 N   0  0  0  0  0  0  0  0  0  0  0  0
   56.3930   29.4300   44.4800 C   0  0  0  0  0  0  0  0  0  0  0  0
   55.1420   29.3150   44.5270 O   0  0  0  0  0  0  0  0  0  0  0  0
   57.1170   29.0100   43.2280 C   0  0  0  0  0  0  0  0  0  0  0  0
   58.0890   27.4790   43.4680 S   0  0  0  0  0  0  0  0  0  0  0  0
   59.1720   28.1490   44.7320 C   0  0  0  0  0  0  0  0  0  0  0  0
   60.0650   29.1310   44.5000 N   0  0  0  0  0  0  0  0  0  0  0  0
   60.6310   29.4170   45.6650 N   0  0  0  0  0  0  0  0  0  0  0  0
   60.0760   28.6010   46.5840 C   0  0  0  0  0  0  0  0  0  0  0  0
   60.3750   28.6650   48.0520 C   0  0  0  0  0  0  0  0  0  0  0  0
   59.4330   29.5260   48.8850 C   0  0  0  0  0  0  0  0  0  0  0  0
   60.8170   30.0460   48.5260 C   0  0  0  0  0  0  0  0  0  0  0  0
   59.1560   27.7890   46.0290 N   0  0  0  0  0  0  0  0  0  0  0  0
   58.2210   26.8880   46.7020 C   0  0  0  0  0  0  0  0  0  0  0  0
   58.3560   31.7760   46.7400 C   0  0  0  0  0  0  0  0  0  0  0  0
   59.0020   33.0230   46.7840 C   0  0  0  0  0  0  0  0  0  0  0  0
   59.8600   33.4910   48.2630 S   0  0  0  0  0  0  0  0  0  0  0  0
   59.2620   32.7900   49.4540 O   0  0  0  0  0  0  0  0  0  0  0  0
   59.7190   34.9750   48.4620 O   0  0  0  0  0  0  0  0  0  0  0  0
   61.5480   33.0660   48.1260 N   0  0  0  0  0  0  0  0  0  0  0  0
   62.3270   33.7470   49.1690 C   0  0  0  0  0  0  0  0  0  0  0  0
   63.8210   33.3730   49.0450 C   0  0  0  0  0  0  0  0  0  0  0  0
   64.0950   32.6370   47.8650 O   0  0  0  0  0  0  0  0  0  0  0  0
   63.5940   33.3320   46.7400 C   0  0  0  0  0  0  0  0  0  0  0  0
   62.0520   33.4240   46.7880 C   0  0  0  0  0  0  0  0  0  0  0  0
   59.8309   35.5419   46.6536 H   0  0  0  0  0  0  0  0  0  0  0  0
   60.6201   35.1126   45.0982 H   0  0  0  0  0  0  0  0  0  0  0  0
   59.0209   35.9307   45.0982 H   0  0  0  0  0  0  0  0  0  0  0  0
   58.3295   34.0403   43.5786 H   0  0  0  0  0  0  0  0  0  0  0  0
   57.2226   31.8151   43.5211 H   0  0  0  0  0  0  0  0  0  0  0  0
   56.3771   28.8381   42.4324 H   0  0  0  0  0  0  0  0  0  0  0  0
   57.8174   29.8143   42.9586 H   0  0  0  0  0  0  0  0  0  0  0  0
   60.7552   27.6365   48.1397 H   0  0  0  0  0  0  0  0  0  0  0  0
   58.5409   29.9718   48.4209 H   0  0  0  0  0  0  0  0  0  0  0  0
   58.8751   29.3842   49.8224 H   0  0  0  0  0  0  0  0  0  0  0  0
   60.9252   30.8673   47.8022 H   0  0  0  0  0  0  0  0  0  0  0  0
   61.6735   30.4353   49.0960 H   0  0  0  0  0  0  0  0  0  0  0  0
   58.3302   26.9933   47.7915 H   0  0  0  0  0  0  0  0  0  0  0  0
   57.1915   27.1433   46.4103 H   0  0  0  0  0  0  0  0  0  0  0  0
   58.4380   25.8498   46.4103 H   0  0  0  0  0  0  0  0  0  0  0  0
   58.3802   31.1212   47.6235 H   0  0  0  0  0  0  0  0  0  0  0  0
   62.2137   34.8353   49.0556 H   0  0  0  0  0  0  0  0  0  0  0  0
   61.9580   33.4333   50.1566 H   0  0  0  0  0  0  0  0  0  0  0  0
   64.4172   34.2973   49.0319 H   0  0  0  0  0  0  0  0  0  0  0  0
   64.0818   32.7390   49.9053 H   0  0  0  0  0  0  0  0  0  0  0  0
   64.0149   34.3482   46.7281 H   0  0  0  0  0  0  0  0  0  0  0  0
   63.8845   32.7842   45.8314 H   0  0  0  0  0  0  0  0  0  0  0  0
   61.7445   34.4530   46.5502 H   0  0  0  0  0  0  0  0  0  0  0  0
   61.6336   32.7201   46.0535 H   0  0  0  0  0  0  0  0  0  0  0  0
  1  2  1  0
  2  3  2  0
  3  4  1  0
  4  5  2  0
  5  6  1  0
  6  7  1  0
  7  8  2  0
  7  9  1  0
  9 10  1  0
 10 11  1  0
 11 12  2  0
 12 13  1  0
 13 14  2  0
 14 15  1  0
 15 16  1  0
 16 17  1  0
 14 18  1  0
 18 19  1  0
  5 20  1  0
 20 21  2  0
 21 22  1  0
 22 23  2  0
 22 24  2  0
 22 25  1  0
 25 26  1  0
 26 27  1  0
 27 28  1  0
 28 29  1  0
 29 30  1  0
 21  2  1  0
 30 25  1  0
 18 11  1  0
 17 15  1  0
  1 31  1  0
  1 32  1  0
  1 33  1  0
  3 34  1  0
  4 35  1  0
  9 36  1  0
  9 37  1  0
 15 38  1  0
 16 39  1  0
 16 40  1  0
 17 41  1  0
 17 42  1  0
 19 43  1  0
 19 44  1  0
 19 45  1  0
 20 46  1  0
 26 47  1  0
 26 48  1  0
 27 49  1  0
 27 50  1  0
 29 51  1  0
 29 52  1  0
 30 53  1  0
 30 54  1  0
M  CHG  1   6  -1
M  END
>  <UniqueID>  (4) 
4

>  <SMILES>  (4) 
Cc1ccc([N-]C(=O)CSc2nnc(C3CC3)n2C)cc1S(=O)(=O)N1CCOCC1

>  <Energy>  (4) 
362.52752472738933

>  <Genealogy>  (4) 
Cc1ccc([N-]C(=O)CSc2nnc(C3CC3)n2C)cc1S(=O)(=O)N1CCOCC1 (protonated)
Cc1ccc([N-]C(=O)CSc2nnc(C3CC3)n2C)cc1S(=O)(=O)N1CCOCC1 (3D coordinates assigned)
Cc1ccc([N-]C(=O)CSc2nnc(C3CC3)n2C)cc1S(=O)(=O)N1CCOCC1 (nonaromatic ring conformer: 362.52752472738933 kcal/mol)

>  <smiles>  (4) 
Cc1ccc(NC(=O)CSc2nnc(C3CC3)n2C)cc1S(=O)(=O)N1CCOCC1

>  <score_type>  (4) 
oracle

>  <origin>  (4) 
adg

>  <m_score__min__energy>  (4) 
-11.69

>  <m_primary>  (4) 
energy

$$$$
4:0
     RDKit          3D

 53 56  0  0  0  0  0  0  0  0999 V2000
   54.7590   28.9670   45.3860 H   0  0  0  0  0  0  0  0  0  0  0  0
   55.6960   28.6110   45.2400 O   0  0  0  0  0  0  0  0  0  0  0  0
   56.0480   27.3380   45.6810 C   0  0  0  0  0  0  0  0  0  0  0  0
   55.1560   26.3810   45.9880 N   0  0  0  0  0  0  0  0  0  0  0  0
   55.9430   25.3700   46.4130 C   0  0  0  0  0  0  0  0  0  0  0  0
   55.4770   24.2680   46.8030 O   0  0  0  0  0  0  0  0  0  0  0  0
   57.2670   25.6350   46.3950 N   0  0  0  0  0  0  0  0  0  0  0  0
   57.3290   26.8850   45.9050 C   0  0  0  0  0  0  0  0  0  0  0  0
   58.5880   27.6380   45.7630 C   0  0  0  0  0  0  0  0  0  0  0  0
   59.5141   27.0710   45.5873 H   0  0  0  0  0  0  0  0  0  0  0  0
   58.6700   28.9810   45.8360 C   0  0  0  0  0  0  0  0  0  0  0  0
   59.1300   29.7110   46.9190 C   0  0  0  0  0  0  0  0  0  0  0  0
   59.5255   29.3039   47.8612 H   0  0  0  0  0  0  0  0  0  0  0  0
   58.9990   31.0430   46.5940 C   0  0  0  0  0  0  0  0  0  0  0  0
   59.3620   32.1710   47.4770 C   0  0  0  0  0  0  0  0  0  0  0  0
   58.4520   32.7690   48.1090 O   0  0  0  0  0  0  0  0  0  0  0  0
   60.7030   32.6860   47.5350 N   0  0  0  0  0  0  0  0  0  0  0  0
   61.1050   33.8450   46.8320 C   0  0  0  0  0  0  0  0  0  0  0  0
   60.3050   34.7170   46.3990 O   0  0  0  0  0  0  0  0  0  0  0  0
   62.4620   33.9020   46.6320 O   0  0  0  0  0  0  0  0  0  0  0  0
   63.0630   32.7220   47.1480 C   0  0  0  0  0  0  0  0  0  0  0  0
   63.4461   32.0962   46.3285 H   0  0  0  0  0  0  0  0  0  0  0  0
   63.9166   32.9524   47.8025 H   0  0  0  0  0  0  0  0  0  0  0  0
   61.9310   31.9780   47.9170 C   0  0  1  0  0  0  0  0  0  0  0  0
   61.8850   30.9058   47.6755 H   0  0  0  0  0  0  0  0  0  0  0  0
   62.1690   32.0850   49.4410 C   0  0  0  0  0  0  0  0  0  0  0  0
   62.6445   31.1561   49.7888 H   0  0  0  0  0  0  0  0  0  0  0  0
   62.8105   32.9613   49.6159 H   0  0  0  0  0  0  0  0  0  0  0  0
   60.8950   32.2930   50.2160 C   0  0  0  0  0  0  0  0  0  0  0  0
   60.5090   33.5810   50.6230 C   0  0  0  0  0  0  0  0  0  0  0  0
   61.1560   34.4422   50.3999 H   0  0  0  0  0  0  0  0  0  0  0  0
   59.3070   33.7740   51.3100 C   0  0  0  0  0  0  0  0  0  0  0  0
   59.0074   34.7862   51.6194 H   0  0  0  0  0  0  0  0  0  0  0  0
   58.4860   32.6830   51.6040 C   0  0  0  0  0  0  0  0  0  0  0  0
   57.5382   32.8371   52.1405 H   0  0  0  0  0  0  0  0  0  0  0  0
   58.8680   31.3960   51.2170 C   0  0  0  0  0  0  0  0  0  0  0  0
   58.2241   30.5369   51.4565 H   0  0  0  0  0  0  0  0  0  0  0  0
   60.0670   31.1980   50.5260 C   0  0  0  0  0  0  0  0  0  0  0  0
   60.3643   30.1830   50.2236 H   0  0  0  0  0  0  0  0  0  0  0  0
   58.4580   31.1750   45.3570 N   0  0  0  0  0  0  0  0  0  0  0  0
   58.1720   32.4500   44.6770 C   0  0  0  0  0  0  0  0  0  0  0  0
   59.0523   33.1043   44.7606 H   0  0  0  0  0  0  0  0  0  0  0  0
   57.9416   32.2336   43.6234 H   0  0  0  0  0  0  0  0  0  0  0  0
   56.9620   33.1620   45.2960 C   0  0  0  0  0  0  0  0  0  0  0  0
   56.3668   33.6219   44.4933 H   0  0  0  0  0  0  0  0  0  0  0  0
   56.3641   32.4198   45.8451 H   0  0  0  0  0  0  0  0  0  0  0  0
   57.3830   34.2000   46.2310 N   0  0  0  0  0  0  0  0  0  0  0  0
   58.4110   34.0870   46.3900 H   0  0  0  0  0  0  0  0  0  0  0  0
   56.9270   34.0110   47.1540 H   0  0  0  0  0  0  0  0  0  0  0  0
   58.2580   29.9150   44.8820 C   0  0  0  0  0  0  0  0  0  0  0  0
   57.7600   29.6300   43.6670 C   0  0  0  0  0  0  0  0  0  0  0  0
   57.4644   30.4442   42.9889 H   0  0  0  0  0  0  0  0  0  0  0  0
   57.6479   28.5825   43.3504 H   0  0  0  0  0  0  0  0  0  0  0  0
  1  2  1  0
  2  3  1  0
  3  4  1  0
  4  5  1  0
  5  6  2  0
  5  7  1  0
  7  8  1  0
  8  9  1  0
  9 10  1  0
  9 11  2  0
 11 12  1  0
 12 13  1  0
 12 14  2  0
 14 15  1  0
 15 16  2  0
 15 17  1  0
 17 18  1  0
 18 19  2  0
 18 20  1  0
 20 21  1  0
 21 22  1  0
 21 23  1  0
 21 24  1  0
 24 25  1  6
 24 26  1  0
 26 27  1  0
 26 28  1  0
 26 29  1  0
 29 30  2  0
 30 31  1  0
 30 32  1  0
 32 33  1  0
 32 34  2  0
 34 35  1  0
 34 36  1  0
 36 37  1  0
 36 38  2  0
 38 39  1  0
 14 40  1  0
 40 41  1  0
 41 42  1  0
 41 43  1  0
 41 44  1  0
 44 45  1  0
 44 46  1  0
 44 47  1  0
 47 48  1  0
 47 49  1  0
 40 50  1  0
 50 51  2  0
 51 52  1  0
 51 53  1  0
  8  3  2  0
 50 11  1  0
 24 17  1  0
 38 29  1  0
M  CHG  2   4  -1   7  -1
M  END
>  <UniqueID>  (5) 
5

>  <SMILES>  (5) 
C=c1/c(=C/c2[n-]c(=O)[n-]c2O)cc(C(=O)N2C(=O)OC[C@H]2Cc2ccccc2)n1CCN

>  <Energy>  (5) 
139.049541512195

>  <Genealogy>  (5) 
C=c1c(=Cc2[n-]c(=O)[n-]c2O)cc(C(=O)N2C(=O)OCC2Cc2ccccc2)n1CCN (protonated)
C=c1c(=Cc2[n-]c(=O)[n-]c2O)cc(C(=O)N2C(=O)OC[C@H]2Cc2ccccc2)n1CCN (chirality)
C=c1/c(=C/c2[n-]c(=O)[n-]c2O)cc(C(=O)N2C(=O)OC[C@H]2Cc2ccccc2)n1CCN (cis-trans isomerization)
C=c1/c(=C/c2[n-]c(=O)[n-]c2O)cc(C(=O)N2C(=O)OC[C@H]2Cc2ccccc2)n1CCN (3D coordinates assigned)
C=c1/c(=C/c2[n-]c(=O)[n-]c2O)cc(C(=O)N2C(=O)OC[C@H]2Cc2ccccc2)n1CCN (nonaromatic ring conformer: 139.049541512195 kcal/mol)

>  <smiles>  (5) 
C=c1c(=Cc2[nH]c(=O)[nH]c2O)cc(C(=O)N2C(=O)OCC2Cc2ccccc2)n1CCN

>  <score_type>  (5) 
oracle

>  <origin>  (5) 
adg

>  <m_score__min__energy>  (5) 
-13.210000000000001

>  <m_primary>  (5) 
energy

$$$$
5:0
     RDKit          3D

 45 47  0  0  0  0  0  0  0  0999 V2000
   55.8650   30.1810   44.1020 C   0  0  0  0  0  0  0  0  0  0  0  0
   55.5440   28.9910   44.8740 N   0  0  0  0  0  0  0  0  0  0  0  0
   56.5390   28.0660   45.3260 C   0  0  0  0  0  0  0  0  0  0  0  0
   56.2110   26.8850   45.6110 O   0  0  0  0  0  0  0  0  0  0  0  0
   57.9500   28.4920   45.4430 C   0  0  0  0  0  0  0  0  0  0  0  0
   58.8830   28.1630   44.4400 C   0  0  0  0  0  0  0  0  0  0  0  0
   60.2170   28.5540   44.5590 C   0  0  0  0  0  0  0  0  0  0  0  0
   60.6360   29.2960   45.6650 C   0  0  0  0  0  0  0  0  0  0  0  0
   59.7140   29.6650   46.6590 C   0  0  0  0  0  0  0  0  0  0  0  0
   60.0960   30.4070   47.7850 O   0  0  0  0  0  0  0  0  0  0  0  0
   59.2560   30.7610   48.8520 C   0  0  0  0  0  0  0  0  0  0  0  0
   59.0460   29.8310   49.8760 C   0  0  0  0  0  0  0  0  0  0  0  0
   58.1980   30.1360   50.9440 C   0  0  0  0  0  0  0  0  0  0  0  0
   57.5280   31.3660   50.9910 C   0  0  0  0  0  0  0  0  0  0  0  0
   56.6360   31.6180   52.0860 N   0  0  0  0  0  0  0  0  0  0  0  0
   55.9180   30.4090   53.1030 S   0  0  0  0  0  0  0  0  0  0  0  0
   56.6490   29.1080   52.9230 O   0  0  0  0  0  0  0  0  0  0  0  0
   55.9800   30.8420   54.5420 O   0  0  0  0  0  0  0  0  0  0  0  0
   54.2250   30.2050   52.6560 C   0  0  0  0  0  0  0  0  0  0  0  0
   53.4940   31.2910   52.1460 C   0  0  0  0  0  0  0  0  0  0  0  0
   52.1430   31.1300   51.7720 C   0  0  0  0  0  0  0  0  0  0  0  0
   51.3900   32.2880   51.2330 C   0  0  0  0  0  0  0  0  0  0  0  0
   51.0300   33.2240   51.9980 O   0  0  0  0  0  0  0  0  0  0  0  0
   51.0580   32.3590   49.8900 O   0  0  0  0  0  0  0  0  0  0  0  0
   51.5340   29.8750   51.9230 C   0  0  0  0  0  0  0  0  0  0  0  0
   52.2620   28.7960   52.4300 C   0  0  0  0  0  0  0  0  0  0  0  0
   53.6030   28.9550   52.7950 C   0  0  0  0  0  0  0  0  0  0  0  0
   54.2950   27.8930   53.2740 F   0  0  0  0  0  0  0  0  0  0  0  0
   57.7380   32.3050   49.9660 C   0  0  0  0  0  0  0  0  0  0  0  0
   58.5890   31.9990   48.8970 C   0  0  0  0  0  0  0  0  0  0  0  0
   58.3830   29.2420   46.5520 C   0  0  0  0  0  0  0  0  0  0  0  0
   56.0893   31.0125   44.7863 H   0  0  0  0  0  0  0  0  0  0  0  0
   56.7414   29.9814   43.4679 H   0  0  0  0  0  0  0  0  0  0  0  0
   55.0071   30.4492   43.4679 H   0  0  0  0  0  0  0  0  0  0  0  0
   58.5574   27.5938   43.5568 H   0  0  0  0  0  0  0  0  0  0  0  0
   60.9411   28.2767   43.7788 H   0  0  0  0  0  0  0  0  0  0  0  0
   61.6911   29.5926   45.7585 H   0  0  0  0  0  0  0  0  0  0  0  0
   59.5511   28.8545   49.8402 H   0  0  0  0  0  0  0  0  0  0  0  0
   58.0553   29.4053   51.7538 H   0  0  0  0  0  0  0  0  0  0  0  0
   53.9779   32.2729   52.0376 H   0  0  0  0  0  0  0  0  0  0  0  0
   50.4793   29.7403   51.6411 H   0  0  0  0  0  0  0  0  0  0  0  0
   51.7776   27.8149   52.5430 H   0  0  0  0  0  0  0  0  0  0  0  0
   57.2330   33.2815   50.0039 H   0  0  0  0  0  0  0  0  0  0  0  0
   58.7368   32.7300   48.0885 H   0  0  0  0  0  0  0  0  0  0  0  0
   57.6664   29.4997   47.3458 H   0  0  0  0  0  0  0  0  0  0  0  0
  1  2  1  0
  2  3  1  0
  3  4  2  0
  3  5  1  0
  5  6  2  0
  6  7  1  0
  7  8  2  0
  8  9  1  0
  9 10  1  0
 10 11  1  0
 11 12  2  0
 12 13  1  0
 13 14  2  0
 14 15  1  0
 15 16  1  0
 16 17  2  0
 16 18  2  0
 16 19  1  0
 19 20  2  0
 20 21  1  0
 21 22  1  0
 22 23  2  0
 22 24  1  0
 21 25  2  0
 25 26  1  0
 26 27  2  0
 27 28  1  0
 14 29  1  0
 29 30  2  0
  9 31  2  0
 31  5  1  0
 30 11  1  0
 27 19  1  0
  1 32  1  0
  1 33  1  0
  1 34  1  0
  6 35  1  0
  7 36  1  0
  8 37  1  0
 12 38  1  0
 13 39  1  0
 20 40  1  0
 25 41  1  0
 26 42  1  0
 29 43  1  0
 30 44  1  0
 31 45  1  0
M  CHG  3   2  -1  15  -1  24  -1
M  END
>  <UniqueID>  (6) 
6

>  <SMILES>  (6) 
C[N-]C(=O)c1cccc(Oc2ccc([N-]S(=O)(=O)c3cc(C(=O)[O-])ccc3F)cc2)c1

>  <Energy>  (6) 
59.177320537035186

>  <Genealogy>  (6) 
C[N-]C(=O)c1cccc(Oc2ccc([N-]S(=O)(=O)c3cc(C(=O)[O-])ccc3F)cc2)c1 (protonated)
C[N-]C(=O)c1cccc(Oc2ccc([N-]S(=O)(=O)c3cc(C(=O)[O-])ccc3F)cc2)c1 (3D coordinates assigned)
C[N-]C(=O)c1cccc(Oc2ccc([N-]S(=O)(=O)c3cc(C(=O)[O-])ccc3F)cc2)c1 (optimized conformer: 59.177320537035186 kcal/mol)

>  <smiles>  (6) 
CNC(=O)c1cccc(Oc2ccc(NS(=O)(=O)c3cc(C(=O)O)ccc3F)cc2)c1

>  <score_type>  (6) 
oracle

>  <origin>  (6) 
adg

>  <m_score__min__energy>  (6) 
-15.16

>  <m_primary>  (6) 
energy

$$$$
6:0
     RDKit          3D

 50 52  0  0  0  0  0  0  0  0999 V2000
   54.7590   29.9390   45.3160 H   0  0  0  0  0  0  0  0  0  0  0  0
   55.6630   29.7050   44.8460 N   0  0  0  0  0  0  0  0  0  0  0  0
   56.5520   28.9550   45.4200 C   0  0  0  0  0  0  0  0  0  0  0  0
   56.2920   27.6320   45.6120 N   0  0  0  0  0  0  0  0  0  0  0  0
   57.1730   26.7940   46.2240 C   0  0  0  0  0  0  0  0  0  0  0  0
   56.8110   25.3330   46.3940 C   0  0  0  0  0  0  0  0  0  0  0  0
   56.5792   25.1542   47.4543 H   0  0  0  0  0  0  0  0  0  0  0  0
   55.5200   24.9700   45.6140 C   0  0  0  0  0  0  0  0  0  0  0  0
   54.8526   24.4074   46.2834 H   0  0  0  0  0  0  0  0  0  0  0  0
   55.0640   25.9123   45.2762 H   0  0  0  0  0  0  0  0  0  0  0  0
   55.7910   24.1220   44.3710 C   0  0  0  0  0  0  0  0  0  0  0  0
   54.8338   23.8291   43.9150 H   0  0  0  0  0  0  0  0  0  0  0  0
   56.3824   24.7121   43.6554 H   0  0  0  0  0  0  0  0  0  0  0  0
   56.5450   22.9140   44.7360 N   0  0  0  0  0  0  0  0  0  0  0  0
   56.3850   21.7150   43.9430 C   0  0  0  0  0  0  0  0  0  0  0  0
   55.9240   21.7910   42.7650 O   0  0  0  0  0  0  0  0  0  0  0  0
   56.7840   20.3750   44.4830 C   0  0  0  0  0  0  0  0  0  0  0  0
   56.7750   20.4053   45.5825 H   0  0  0  0  0  0  0  0  0  0  0  0
   56.0741   19.6118   44.1314 H   0  0  0  0  0  0  0  0  0  0  0  0
   57.7957   20.1244   44.1314 H   0  0  0  0  0  0  0  0  0  0  0  0
   57.5820   22.9750   45.7800 C   0  0  0  0  0  0  0  0  0  0  0  0
   57.1824   22.5416   46.7087 H   0  0  0  0  0  0  0  0  0  0  0  0
   58.4589   22.4082   45.4339 H   0  0  0  0  0  0  0  0  0  0  0  0
   58.0130   24.4210   46.0480 C   0  0  0  0  0  0  0  0  0  0  0  0
   58.7192   24.4300   46.8913 H   0  0  0  0  0  0  0  0  0  0  0  0
   58.4804   24.8102   45.1315 H   0  0  0  0  0  0  0  0  0  0  0  0
   58.4040   27.3010   46.6700 C   0  0  0  0  0  0  0  0  0  0  0  0
   59.1348   26.6344   47.1512 H   0  0  0  0  0  0  0  0  0  0  0  0
   58.6950   28.6520   46.5000 C   0  0  0  0  0  0  0  0  0  0  0  0
   59.6513   29.0561   46.8636 H   0  0  0  0  0  0  0  0  0  0  0  0
   57.7740   29.5000   45.8670 C   0  0  0  0  0  0  0  0  0  0  0  0
   58.1120   30.9310   45.6940 C   0  0  0  0  0  0  0  0  0  0  0  0
   57.6870   31.6330   44.5560 C   0  0  0  0  0  0  0  0  0  0  0  0
   57.0410   31.1372   43.8165 H   0  0  0  0  0  0  0  0  0  0  0  0
   58.0800   32.9570   44.3580 C   0  0  0  0  0  0  0  0  0  0  0  0
   57.7416   33.5018   43.4643 H   0  0  0  0  0  0  0  0  0  0  0  0
   58.9050   33.5950   45.2950 C   0  0  0  0  0  0  0  0  0  0  0  0
   59.3140   34.9570   45.0630 C   0  0  0  0  0  0  0  0  0  0  0  0
   59.6440   36.0480   44.8770 N   0  0  0  0  0  0  0  0  0  0  0  0
   59.3050   32.9130   46.4610 C   0  0  0  0  0  0  0  0  0  0  0  0
   60.1330   33.5760   47.4250 N   0  0  0  0  0  0  0  0  0  0  0  0
   61.8660   33.3930   47.5050 S   0  0  0  0  0  0  0  0  0  0  0  0
   62.1850   31.9370   47.3690 O   0  0  0  0  0  0  0  0  0  0  0  0
   62.4990   34.1290   46.3520 O   0  0  0  0  0  0  0  0  0  0  0  0
   62.5440   33.9860   49.0540 C   0  0  0  0  0  0  0  0  0  0  0  0
   62.0079   33.5171   49.8923 H   0  0  0  0  0  0  0  0  0  0  0  0
   63.6114   33.7264   49.1103 H   0  0  0  0  0  0  0  0  0  0  0  0
   62.4289   35.0785   49.1103 H   0  0  0  0  0  0  0  0  0  0  0  0
   58.9150   31.5780   46.6460 C   0  0  0  0  0  0  0  0  0  0  0  0
   59.2413   31.0340   47.5446 H   0  0  0  0  0  0  0  0  0  0  0  0
  1  2  1  0
  2  3  2  0
  3  4  1  0
  4  5  1  0
  5  6  1  0
  6  7  1  0
  6  8  1  0
  8  9  1  0
  8 10  1  0
  8 11  1  0
 11 12  1  0
 11 13  1  0
 11 14  1  0
 14 15  1  0
 15 16  2  0
 15 17  1  0
 17 18  1  0
 17 19  1  0
 17 20  1  0
 14 21  1  0
 21 22  1  0
 21 23  1  0
 21 24  1  0
 24 25  1  0
 24 26  1  0
  5 27  2  0
 27 28  1  0
 27 29  1  0
 29 30  1  0
 29 31  2  0
 31 32  1  0
 32 33  2  0
 33 34  1  0
 33 35  1  0
 35 36  1  0
 35 37  2  0
 37 38  1  0
 38 39  3  0
 37 40  1  0
 40 41  1  0
 41 42  1  0
 42 43  2  0
 42 44  2  0
 42 45  1  0
 45 46  1  0
 45 47  1  0
 45 48  1  0
 40 49  2  0
 49 50  1  0
 31  3  1  0
 49 32  1  0
 24  6  1  0
M  CHG  2   4  -1  41  -1
M  END
>  <UniqueID>  (7) 
7

>  <SMILES>  (7) 
[H]/N=c1\[n-]c(C2CCN(C(C)=O)CC2)ccc1-c1ccc(C#N)c([N-]S(C)(=O)=O)c1

>  <Energy>  (7) 
63.439122409546

>  <Genealogy>  (7) 
CC(=O)N1CCC(c2ccc(-c3ccc(C#N)c([N-]S(C)(=O)=O)c3)c(=N)[n-]2)CC1 (protonated)
[H]/N=c1\[n-]c(C2CCN(C(C)=O)CC2)ccc1-c1ccc(C#N)c([N-]S(C)(=O)=O)c1 (cis-trans isomerization)
[H]/N=c1\[n-]c(C2CCN(C(C)=O)CC2)ccc1-c1ccc(C#N)c([N-]S(C)(=O)=O)c1 (3D coordinates assigned)
[H]/N=c1\[n-]c(C2CCN(C(C)=O)CC2)ccc1-c1ccc(C#N)c([N-]S(C)(=O)=O)c1 (nonaromatic ring conformer: 63.439122409546 kcal/mol)

>  <smiles>  (7) 
CC(=O)N1CCC(c2ccc(-c3ccc(C#N)c(NS(C)(=O)=O)c3)c(=N)[nH]2)CC1

>  <score_type>  (7) 
oracle

>  <origin>  (7) 
adg

>  <m_score__min__energy>  (7) 
-12.33

>  <m_primary>  (7) 
energy

$$$$
7:0
     RDKit          3D

 37 39  0  0  1  0  0  0  0  0999 V2000
   59.7440   33.7970   50.2470 N   0  0  0  0  0  0  0  0  0  0  0  0
   59.4370   33.0890   49.2040 C   0  0  0  0  0  0  0  0  0  0  0  0
   59.2050   31.7690   49.3440 N   0  0  0  0  0  0  0  0  0  0  0  0
   58.8900   31.0690   48.2430 C   0  0  0  0  0  0  0  0  0  0  0  0
   58.7990   31.6320   47.0160 N   0  0  0  0  0  0  0  0  0  0  0  0
   59.0230   32.9350   46.8430 C   0  0  0  0  0  0  0  0  0  0  0  0
   59.3540   33.7100   47.9530 C   0  0  0  0  0  0  0  0  0  0  0  0
   59.5240   34.9620   47.5120 N   0  0  0  0  0  0  0  0  0  0  0  0
   59.3080   34.9520   46.1950 C   0  0  0  0  0  0  0  0  0  0  0  0
   58.9980   33.7210   45.7530 N   0  0  0  0  0  0  0  0  0  0  0  0
   58.7140   33.3970   44.3920 C   0  0  0  0  0  0  0  0  0  0  0  0
   57.3910   32.7290   44.1540 C   0  0  2  0  0  0  0  0  0  0  0  0
   56.7480   32.3580   45.3170 O   0  0  0  0  0  0  0  0  0  0  0  0
   57.5890   31.5560   43.2150 C   0  0  0  0  0  0  0  0  0  0  0  0
   56.8970   30.0660   43.9410 S   0  0  0  0  0  0  0  0  0  0  0  0
   55.5640   30.4640   44.4960 O   0  0  0  0  0  0  0  0  0  0  0  0
   56.7230   29.0480   42.8440 O   0  0  0  0  0  0  0  0  0  0  0  0
   57.9110   29.5370   45.1830 N   0  0  0  0  0  0  0  0  0  0  0  0
   57.8230   28.4090   45.7670 C   0  0  0  0  0  0  0  0  0  0  0  0
   58.2670   27.9280   46.9170 N   0  0  0  0  0  0  0  0  0  0  0  0
   57.8980   26.6300   47.0920 C   0  0  0  0  0  0  0  0  0  0  0  0
   57.1780   26.2970   45.9670 C   0  0  0  0  0  0  0  0  0  0  0  0
   57.1440   27.3690   45.1900 N   0  0  0  0  0  0  0  0  0  0  0  0
   59.8710   34.8120   50.2660 H   0  0  0  0  0  0  0  0  0  0  0  0
   59.2610   31.2800   50.2650 H   0  0  0  0  0  0  0  0  0  0  0  0
   58.6974   29.9906   48.3425 H   0  0  0  0  0  0  0  0  0  0  0  0
   59.3753   35.8412   45.5509 H   0  0  0  0  0  0  0  0  0  0  0  0
   58.7333   34.3299   43.8095 H   0  0  0  0  0  0  0  0  0  0  0  0
   59.4810   32.6703   44.0860 H   0  0  0  0  0  0  0  0  0  0  0  0
   56.7201   33.4636   43.6847 H   0  0  0  0  0  0  0  0  0  0  0  0
   57.1550   31.4990   45.6070 H   0  0  0  0  0  0  0  0  0  0  0  0
   57.0844   31.7644   42.2600 H   0  0  0  0  0  0  0  0  0  0  0  0
   58.6654   31.4082   43.0431 H   0  0  0  0  0  0  0  0  0  0  0  0
   58.8210   28.4300   47.6170 H   0  0  0  0  0  0  0  0  0  0  0  0
   58.1269   25.9829   47.9516 H   0  0  0  0  0  0  0  0  0  0  0  0
   56.7166   25.3216   45.7531 H   0  0  0  0  0  0  0  0  0  0  0  0
   56.6560   27.3900   44.2640 H   0  0  0  0  0  0  0  0  0  0  0  0
  1  2  2  3
  2  3  1  0
  3  4  1  0
  4  5  2  0
  5  6  1  0
  6  7  2  0
  7  8  1  0
  8  9  2  0
  9 10  1  0
 10 11  1  0
 11 12  1  0
 12 13  1  0
 12 14  1  0
 14 15  1  0
 15 16  2  0
 15 17  2  0
 15 18  1  0
 18 19  2  3
 19 20  1  0
 20 21  1  0
 21 22  2  0
 22 23  1  0
  7  2  1  0
 23 19  1  0
 10  6  1  0
  1 24  1  0
  3 25  1  0
  4 26  1  0
  9 27  1  0
 11 28  1  0
 11 29  1  0
 12 30  1  6
 13 31  1  0
 14 32  1  0
 14 33  1  0
 20 34  1  0
 21 35  1  0
 22 36  1  0
 23 37  1  0
M  END
>  <smiles>  (8) 
N=c1[nH]cnc2c1ncn2CC(O)CS(=O)(=O)N=c1[nH]cc[nH]1

>  <score_type>  (8) 
oracle

>  <origin>  (8) 
adg

>  <m_score__min__energy>  (8) 
-7.4100000000000001

>  <m_primary>  (8) 
energy

$$$$
8:0
     RDKit          3D

 40 42  0  0  0  0  0  0  0  0999 V2000
   56.2790   31.5880   51.6350 C   0  0  0  0  0  0  0  0  0  0  0  0
   55.7580   30.5970   52.3960 C   0  0  0  0  0  0  0  0  0  0  0  0
   54.3390   30.4070   52.4510 C   0  0  0  0  0  0  0  0  0  0  0  0
   53.4070   31.3600   52.1860 C   0  0  0  0  0  0  0  0  0  0  0  0
   52.4660   31.3640   51.0470 C   0  0  0  0  0  0  0  0  0  0  0  0
   52.4450   30.4060   50.1040 N   0  0  0  0  0  0  0  0  0  0  0  0
   51.3940   30.7510   49.3300 C   0  0  0  0  0  0  0  0  0  0  0  0
   51.0560   30.0900   48.3130 O   0  0  0  0  0  0  0  0  0  0  0  0
   50.7290   31.8540   49.7350 N   0  0  0  0  0  0  0  0  0  0  0  0
   51.4110   32.2240   50.8300 C   0  0  0  0  0  0  0  0  0  0  0  0
   51.0520   33.3010   51.6310 O   0  0  0  0  0  0  0  0  0  0  0  0
   53.8620   29.1460   52.8280 C   0  0  0  0  0  0  0  0  0  0  0  0
   54.7190   28.1800   53.3450 C   0  0  0  0  0  0  0  0  0  0  0  0
   54.1620   26.8370   53.7600 C   0  0  0  0  0  0  0  0  0  0  0  0
   52.6700   26.7540   53.4560 C   0  0  0  0  0  0  0  0  0  0  0  0
   56.0830   28.4760   53.4700 C   0  0  0  0  0  0  0  0  0  0  0  0
   56.8430   27.6130   53.9940 O   0  0  0  0  0  0  0  0  0  0  0  0
   56.5930   29.6750   53.0190 N   0  0  0  0  0  0  0  0  0  0  0  0
   58.0380   29.9610   53.2310 C   0  0  0  0  0  0  0  0  0  0  0  0
   58.8690   29.3790   52.1140 C   0  0  0  0  0  0  0  0  0  0  0  0
   58.7140   29.8490   50.8020 C   0  0  0  0  0  0  0  0  0  0  0  0
   59.4920   29.3030   49.7780 C   0  0  0  0  0  0  0  0  0  0  0  0
   60.4000   28.3310   50.0560 N   0  0  0  0  0  0  0  0  0  0  0  0
   60.5810   27.8660   51.3210 C   0  0  0  0  0  0  0  0  0  0  0  0
   59.8240   28.3850   52.3750 C   0  0  0  0  0  0  0  0  0  0  0  0
   57.3684   31.7340   51.5926 H   0  0  0  0  0  0  0  0  0  0  0  0
   55.6129   32.2472   51.0590 H   0  0  0  0  0  0  0  0  0  0  0  0
   53.3477   32.2075   52.8848 H   0  0  0  0  0  0  0  0  0  0  0  0
   52.7925   28.9154   52.7136 H   0  0  0  0  0  0  0  0  0  0  0  0
   54.6873   26.0427   53.2094 H   0  0  0  0  0  0  0  0  0  0  0  0
   54.3093   26.7129   54.8430 H   0  0  0  0  0  0  0  0  0  0  0  0
   52.1048   26.7226   54.3992 H   0  0  0  0  0  0  0  0  0  0  0  0
   52.3646   27.6365   52.8748 H   0  0  0  0  0  0  0  0  0  0  0  0
   52.4643   25.8430   52.8748 H   0  0  0  0  0  0  0  0  0  0  0  0
   58.1891   31.0501   53.2631 H   0  0  0  0  0  0  0  0  0  0  0  0
   58.3526   29.5026   54.1802 H   0  0  0  0  0  0  0  0  0  0  0  0
   57.9848   30.6422   50.5805 H   0  0  0  0  0  0  0  0  0  0  0  0
   59.3693   29.6606   48.7450 H   0  0  0  0  0  0  0  0  0  0  0  0
   61.3250   27.0794   51.5152 H   0  0  0  0  0  0  0  0  0  0  0  0
   59.9757   28.0172   53.4005 H   0  0  0  0  0  0  0  0  0  0  0  0
  1  2  2  0
  2  3  1  0
  3  4  2  3
  4  5  1  0
  5  6  1  0
  6  7  1  0
  7  8  2  0
  7  9  1  0
  9 10  1  0
 10 11  1  0
  3 12  1  0
 12 13  2  0
 13 14  1  0
 14 15  1  0
 13 16  1  0
 16 17  2  0
 16 18  1  0
 18 19  1  0
 19 20  1  0
 20 21  2  0
 21 22  1  0
 22 23  2  0
 23 24  1  0
 24 25  2  0
 18  2  1  0
 25 20  1  0
 10  5  2  0
  1 26  1  0
  1 27  1  0
  4 28  1  0
 12 29  1  0
 14 30  1  0
 14 31  1  0
 15 32  1  0
 15 33  1  0
 15 34  1  0
 19 35  1  0
 19 36  1  0
 21 37  1  0
 22 38  1  0
 24 39  1  0
 25 40  1  0
M  CHG  3   6  -1   9  -1  11  -1
M  END
>  <UniqueID>  (9) 
8

>  <SMILES>  (9) 
C=c1c(=Cc2[n-]c(=O)[n-]c2[O-])cc(CC)c(=O)n1Cc1ccncc1

>  <Energy>  (9) 
101.04264726429928

>  <Genealogy>  (9) 
C=c1c(=Cc2[n-]c(=O)[n-]c2[O-])cc(CC)c(=O)n1Cc1ccncc1 (protonated)
C=c1c(=Cc2[n-]c(=O)[n-]c2[O-])cc(CC)c(=O)n1Cc1ccncc1 (3D coordinates assigned)
C=c1c(=Cc2[n-]c(=O)[n-]c2[O-])cc(CC)c(=O)n1Cc1ccncc1 (optimized conformer: 101.04264726429928 kcal/mol)

>  <smiles>  (9) 
C=c1c(=Cc2[nH]c(=O)[nH]c2O)cc(CC)c(=O)n1Cc1ccncc1

>  <score_type>  (9) 
oracle

>  <origin>  (9) 
adg

>  <m_score__min__energy>  (9) 
-15.31

>  <m_primary>  (9) 
energy

$$$$
9:0
     RDKit          3D

 45 48  0  0  0  0  0  0  0  0999 V2000
   53.7160   28.0850   53.0590 C   0  0  0  0  0  0  0  0  0  0  0  0
   54.6220   29.0780   52.9840 C   0  0  0  0  0  0  0  0  0  0  0  0
   55.9310   28.7640   53.2340 N   0  0  0  0  0  0  0  0  0  0  0  0
   56.9600   29.6240   52.9780 C   0  0  0  0  0  0  0  0  0  0  0  0
   58.3840   29.1730   53.2090 C   0  0  0  0  0  0  0  0  0  0  0  0
   58.6190   28.2960   54.4370 C   0  0  0  0  0  0  0  0  0  0  0  0
   59.0420   29.7500   54.4560 C   0  0  0  0  0  0  0  0  0  0  0  0
   56.6880   30.8530   52.3480 C   0  0  0  0  0  0  0  0  0  0  0  0
   57.7600   31.7670   51.8970 C   0  0  0  0  0  0  0  0  0  0  0  0
   58.0590   32.7610   52.6130 O   0  0  0  0  0  0  0  0  0  0  0  0
   58.4410   31.5520   50.6430 N   0  0  0  0  0  0  0  0  0  0  0  0
   59.2420   32.6390   50.0560 C   0  0  0  0  0  0  0  0  0  0  0  0
   59.1790   32.6000   48.5230 C   0  0  0  0  0  0  0  0  0  0  0  0
   59.4310   31.2140   48.0040 C   0  0  0  0  0  0  0  0  0  0  0  0
   59.5770   31.0320   46.8050 O   0  0  0  0  0  0  0  0  0  0  0  0
   59.5300   30.0580   48.9570 C   0  0  0  0  0  0  0  0  0  0  0  0
   58.4750   30.1950   50.0610 C   0  0  0  0  0  0  0  0  0  0  0  0
   55.3590   31.2220   52.1330 C   0  0  0  0  0  0  0  0  0  0  0  0
   54.2950   30.3940   52.5300 C   0  0  0  0  0  0  0  0  0  0  0  0
   53.0450   30.9170   52.4570 C   0  0  0  0  0  0  0  0  0  0  0  0
   52.1910   30.9770   51.2570 C   0  0  0  0  0  0  0  0  0  0  0  0
   52.2560   30.0820   50.2560 N   0  0  0  0  0  0  0  0  0  0  0  0
   51.3940   30.5710   49.3390 C   0  0  0  0  0  0  0  0  0  0  0  0
   51.1660   29.9910   48.2470 O   0  0  0  0  0  0  0  0  0  0  0  0
   50.8040   31.7360   49.6810 N   0  0  0  0  0  0  0  0  0  0  0  0
   51.3280   31.9880   50.8910 C   0  0  0  0  0  0  0  0  0  0  0  0
   51.0490   33.1330   51.6270 O   0  0  0  0  0  0  0  0  0  0  0  0
   52.6535   28.2941   52.8655 H   0  0  0  0  0  0  0  0  0  0  0  0
   54.0382   27.0646   53.3138 H   0  0  0  0  0  0  0  0  0  0  0  0
   56.1700   27.8050   53.5780 H   0  0  0  0  0  0  0  0  0  0  0  0
   58.6426   29.0983   52.1424 H   0  0  0  0  0  0  0  0  0  0  0  0
   57.7658   27.9637   55.0466 H   0  0  0  0  0  0  0  0  0  0  0  0
   59.1250   27.3369   54.6217 H   0  0  0  0  0  0  0  0  0  0  0  0
   58.4961   30.4725   55.0805 H   0  0  0  0  0  0  0  0  0  0  0  0
   59.9830   30.2815   54.6612 H   0  0  0  0  0  0  0  0  0  0  0  0
   58.8509   33.6050   50.4080 H   0  0  0  0  0  0  0  0  0  0  0  0
   60.2891   32.5116   50.3679 H   0  0  0  0  0  0  0  0  0  0  0  0
   58.1816   32.9295   48.1965 H   0  0  0  0  0  0  0  0  0  0  0  0
   59.9577   33.2676   48.1255 H   0  0  0  0  0  0  0  0  0  0  0  0
   59.3634   29.1190   48.4088 H   0  0  0  0  0  0  0  0  0  0  0  0
   60.5308   30.0518   49.4135 H   0  0  0  0  0  0  0  0  0  0  0  0
   57.4865   29.9687   49.6348 H   0  0  0  0  0  0  0  0  0  0  0  0
   58.7382   29.4920   50.8651 H   0  0  0  0  0  0  0  0  0  0  0  0
   55.1397   32.1817   51.6422 H   0  0  0  0  0  0  0  0  0  0  0  0
   52.6282   31.3374   53.3841 H   0  0  0  0  0  0  0  0  0  0  0  0
  1  2  2  0
  2  3  1  0
  3  4  2  0
  4  5  1  0
  5  6  1  0
  6  7  1  0
  4  8  1  0
  8  9  1  0
  9 10  2  0
  9 11  1  0
 11 12  1  0
 12 13  1  0
 13 14  1  0
 14 15  2  0
 14 16  1  0
 16 17  1  0
  8 18  2  0
 18 19  1  0
 19 20  2  3
 20 21  1  0
 21 22  1  0
 22 23  1  0
 23 24  2  0
 23 25  1  0
 25 26  1  0
 26 27  1  0
 19  2  1  0
 26 21  2  0
  7  5  1  0
 17 11  1  0
  1 28  1  0
  1 29  1  0
  3 30  1  0
  5 31  1  0
  6 32  1  0
  6 33  1  0
  7 34  1  0
  7 35  1  0
 12 36  1  0
 12 37  1  0
 13 38  1  0
 13 39  1  0
 16 40  1  0
 16 41  1  0
 17 42  1  0
 17 43  1  0
 18 44  1  0
 20 45  1  0
M  CHG  4   3   1  22  -1  25  -1  27  -1
M  END
>  <UniqueID>  (10) 
9

>  <SMILES>  (10) 
C=c1[nH+]c(C2CC2)c(C(=O)N2CCC(=O)CC2)cc1=Cc1[n-]c(=O)[n-]c1[O-]

>  <Energy>  (10) 
368.15565873658716

>  <Genealogy>  (10) 
C=c1[nH+]c(C2CC2)c(C(=O)N2CCC(=O)CC2)cc1=Cc1[n-]c(=O)[n-]c1[O-] (protonated)
C=c1[nH+]c(C2CC2)c(C(=O)N2CCC(=O)CC2)cc1=Cc1[n-]c(=O)[n-]c1[O-] (3D coordinates assigned)
C=c1[nH+]c(C2CC2)c(C(=O)N2CCC(=O)CC2)cc1=Cc1[n-]c(=O)[n-]c1[O-] (nonaromatic ring conformer: 368.15565873658716 kcal/mol)

>  <smiles>  (10) 
C=c1nc(C2CC2)c(C(=O)N2CCC(=O)CC2)cc1=Cc1[nH]c(=O)[nH]c1O

>  <score_type>  (10) 
oracle

>  <origin>  (10) 
adg

>  <m_score__min__energy>  (10) 
-15.35

>  <m_primary>  (10) 
energy

$$$$
10:0
     RDKit          3D

 56 59  0  0  0  0  0  0  0  0999 V2000
   61.8200   33.4520   51.1980 N   0  0  0  0  0  0  0  0  0  0  0  0
   62.7640   33.0220   49.8150 S   0  0  0  0  0  0  0  0  0  0  0  0
   63.0050   34.2530   48.9880 O   0  0  0  0  0  0  0  0  0  0  0  0
   64.0890   32.4660   50.2590 O   0  0  0  0  0  0  0  0  0  0  0  0
   61.9070   31.8090   48.8690 C   0  0  0  0  0  0  0  0  0  0  0  0
   61.0110   30.9410   49.5020 C   0  0  0  0  0  0  0  0  0  0  0  0
   60.3250   29.9720   48.7640 C   0  0  0  0  0  0  0  0  0  0  0  0
   60.5280   29.8560   47.3770 C   0  0  0  0  0  0  0  0  0  0  0  0
   59.8040   28.8240   46.5910 C   0  0  0  0  0  0  0  0  0  0  0  0
   60.4970   27.7300   46.0420 C   0  0  0  0  0  0  0  0  0  0  0  0
   59.8150   26.7600   45.3040 C   0  0  0  0  0  0  0  0  0  0  0  0
   58.4400   26.8700   45.1000 C   0  0  0  0  0  0  0  0  0  0  0  0
   57.7290   27.9630   45.6220 C   0  0  0  0  0  0  0  0  0  0  0  0
   56.2680   28.0880   45.4090 C   0  0  0  0  0  0  0  0  0  0  0  0
   55.5210   27.1050   45.6600 O   0  0  0  0  0  0  0  0  0  0  0  0
   55.6750   29.2850   44.8860 N   0  0  0  0  0  0  0  0  0  0  0  0
   56.3580   30.3220   44.1660 C   0  0  0  0  0  0  0  0  0  0  0  0
   56.7010   30.1760   42.8110 C   0  0  0  0  0  0  0  0  0  0  0  0
   57.3680   31.2030   42.1410 C   0  0  0  0  0  0  0  0  0  0  0  0
   57.7180   32.3730   42.8190 C   0  0  0  0  0  0  0  0  0  0  0  0
   57.4210   32.5170   44.1840 C   0  0  0  0  0  0  0  0  0  0  0  0
   57.7810   33.7560   44.9110 C   0  0  0  0  0  0  0  0  0  0  0  0
   57.3300   34.8610   44.4980 O   0  0  0  0  0  0  0  0  0  0  0  0
   58.6410   33.7360   46.0680 N   0  0  0  0  0  0  0  0  0  0  0  0
   59.5200   34.8860   46.3220 C   0  0  0  0  0  0  0  0  0  0  0  0
   60.5180   34.5880   47.4450 C   0  0  0  0  0  0  0  0  0  0  0  0
   59.8100   34.1160   48.7250 C   0  0  0  0  0  0  0  0  0  0  0  0
   58.6000   33.1920   48.4660 C   0  0  0  0  0  0  0  0  0  0  0  0
   58.5740   32.6330   47.0400 C   0  0  0  0  0  0  0  0  0  0  0  0
   56.7330   31.4860   44.8490 C   0  0  0  0  0  0  0  0  0  0  0  0
   58.4170   28.9270   46.3800 C   0  0  0  0  0  0  0  0  0  0  0  0
   61.4300   30.7320   46.7460 C   0  0  0  0  0  0  0  0  0  0  0  0
   62.1140   31.7000   47.4870 C   0  0  0  0  0  0  0  0  0  0  0  0
   62.4780   33.5530   52.0010 H   0  0  0  0  0  0  0  0  0  0  0  0
   60.8453   31.0214   50.5865 H   0  0  0  0  0  0  0  0  0  0  0  0
   59.6216   29.2955   49.2715 H   0  0  0  0  0  0  0  0  0  0  0  0
   61.5824   27.6379   46.1948 H   0  0  0  0  0  0  0  0  0  0  0  0
   60.3648   25.9058   44.8820 H   0  0  0  0  0  0  0  0  0  0  0  0
   57.9088   26.0959   44.5267 H   0  0  0  0  0  0  0  0  0  0  0  0
   56.4431   29.2497   42.2768 H   0  0  0  0  0  0  0  0  0  0  0  0
   57.6187   31.0906   41.0759 H   0  0  0  0  0  0  0  0  0  0  0  0
   58.2287   33.1854   42.2812 H   0  0  0  0  0  0  0  0  0  0  0  0
   60.0756   35.1220   45.4024 H   0  0  0  0  0  0  0  0  0  0  0  0
   58.8960   35.7379   46.6299 H   0  0  0  0  0  0  0  0  0  0  0  0
   61.2084   33.8005   47.1085 H   0  0  0  0  0  0  0  0  0  0  0  0
   61.0610   35.5163   47.6762 H   0  0  0  0  0  0  0  0  0  0  0  0
   60.5380   33.5687   49.3418 H   0  0  0  0  0  0  0  0  0  0  0  0
   59.4235   35.0155   49.2265 H   0  0  0  0  0  0  0  0  0  0  0  0
   58.6431   32.3501   49.1727 H   0  0  0  0  0  0  0  0  0  0  0  0
   57.6891   33.7933   48.6025 H   0  0  0  0  0  0  0  0  0  0  0  0
   59.4361   31.9656   46.8942 H   0  0  0  0  0  0  0  0  0  0  0  0
   57.6398   32.0726   46.8878 H   0  0  0  0  0  0  0  0  0  0  0  0
   56.4871   31.5949   45.9156 H   0  0  0  0  0  0  0  0  0  0  0  0
   57.8634   29.7728   46.8137 H   0  0  0  0  0  0  0  0  0  0  0  0
   61.5982   30.6546   45.6617 H   0  0  0  0  0  0  0  0  0  0  0  0
   62.8177   32.3791   46.9834 H   0  0  0  0  0  0  0  0  0  0  0  0
  1  2  1  0
  2  3  2  0
  2  4  2  0
  2  5  1  0
  5  6  2  0
  6  7  1  0
  7  8  2  0
  8  9  1  0
  9 10  2  0
 10 11  1  0
 11 12  2  0
 12 13  1  0
 13 14  1  0
 14 15  2  0
 14 16  1  0
 16 17  1  0
 17 18  2  0
 18 19  1  0
 19 20  2  0
 20 21  1  0
 21 22  1  0
 22 23  2  0
 22 24  1  0
 24 25  1  0
 25 26  1  0
 26 27  1  0
 27 28  1  0
 28 29  1  0
 21 30  2  0
 13 31  2  0
  8 32  1  0
 32 33  2  0
 33  5  1  0
 31  9  1  0
 30 17  1  0
 29 24  1  0
  1 34  1  0
  6 35  1  0
  7 36  1  0
 10 37  1  0
 11 38  1  0
 12 39  1  0
 18 40  1  0
 19 41  1  0
 20 42  1  0
 25 43  1  0
 25 44  1  0
 26 45  1  0
 26 46  1  0
 27 47  1  0
 27 48  1  0
 28 49  1  0
 28 50  1  0
 29 51  1  0
 29 52  1  0
 30 53  1  0
 31 54  1  0
 32 55  1  0
 33 56  1  0
M  CHG  2   1  -1  16  -1
M  END
>  <UniqueID>  (11) 
10

>  <SMILES>  (11) 
[NH-]S(=O)(=O)c1ccc(-c2cccc(C(=O)[N-]c3cccc(C(=O)N4CCCCC4)c3)c2)cc1

>  <Energy>  (11) 
76.81289586571675

>  <Genealogy>  (11) 
[NH-]S(=O)(=O)c1ccc(-c2cccc(C(=O)[N-]c3cccc(C(=O)N4CCCCC4)c3)c2)cc1 (protonated)
[NH-]S(=O)(=O)c1ccc(-c2cccc(C(=O)[N-]c3cccc(C(=O)N4CCCCC4)c3)c2)cc1 (3D coordinates assigned)
[NH-]S(=O)(=O)c1ccc(-c2cccc(C(=O)[N-]c3cccc(C(=O)N4CCCCC4)c3)c2)cc1 (nonaromatic ring conformer: 76.81289586571675 kcal/mol)

>  <smiles>  (11) 
NS(=O)(=O)c1ccc(-c2cccc(C(=O)Nc3cccc(C(=O)N4CCCCC4)c3)c2)cc1

>  <score_type>  (11) 
oracle

>  <origin>  (11) 
adg

>  <m_score__min__energy>  (11) 
-13.27

>  <m_primary>  (11) 
energy

$$$$
11:0
     RDKit          3D

 31 32  0  0  0  0  0  0  0  0999 V2000
   57.6560   20.8100   44.2420 N   0  0  0  0  0  0  0  0  0  0  0  0
   57.0530   22.0790   43.9670 C   0  0  0  0  0  0  0  0  0  0  0  0
   56.1820   22.1530   43.0580 O   0  0  0  0  0  0  0  0  0  0  0  0
   57.4410   23.3000   44.7140 C   0  0  0  0  0  0  0  0  0  0  0  0
   58.7240   23.4380   45.2700 C   0  0  0  0  0  0  0  0  0  0  0  0
   59.0510   24.5980   45.9730 C   0  0  0  0  0  0  0  0  0  0  0  0
   58.1340   25.5900   46.1170 N   0  0  0  0  0  0  0  0  0  0  0  0
   56.8840   25.4990   45.5920 C   0  0  0  0  0  0  0  0  0  0  0  0
   55.9170   26.6010   45.7840 C   0  0  0  0  0  0  0  0  0  0  0  0
   54.7700   26.3380   46.2350 O   0  0  0  0  0  0  0  0  0  0  0  0
   56.2260   27.9660   45.4630 N   0  0  0  0  0  0  0  0  0  0  0  0
   57.4680   28.6710   45.7700 C   0  0  0  0  0  0  0  0  0  0  0  0
   57.5590   29.9640   45.0020 C   0  0  0  0  0  0  0  0  0  0  0  0
   57.2210   30.0110   43.6380 C   0  0  0  0  0  0  0  0  0  0  0  0
   57.2980   31.2150   42.9340 C   0  0  0  0  0  0  0  0  0  0  0  0
   57.7240   32.3790   43.5790 C   0  0  0  0  0  0  0  0  0  0  0  0
   58.0780   32.3400   44.9320 C   0  0  0  0  0  0  0  0  0  0  0  0
   58.6660   33.9300   45.8110 Br  0  0  0  0  0  0  0  0  0  0  0  0
   58.0010   31.1350   45.6400 C   0  0  0  0  0  0  0  0  0  0  0  0
   56.5120   24.3400   44.8950 C   0  0  0  0  0  0  0  0  0  0  0  0
   57.3230   19.9570   43.7410 H   0  0  0  0  0  0  0  0  0  0  0  0
   58.4860   20.7200   44.8680 H   0  0  0  0  0  0  0  0  0  0  0  0
   59.4669   22.6355   45.1516 H   0  0  0  0  0  0  0  0  0  0  0  0
   60.0536   24.7096   46.4116 H   0  0  0  0  0  0  0  0  0  0  0  0
   57.5006   28.8896   46.8476 H   0  0  0  0  0  0  0  0  0  0  0  0
   58.3148   28.0313   45.4807 H   0  0  0  0  0  0  0  0  0  0  0  0
   56.8945   29.0955   43.1230 H   0  0  0  0  0  0  0  0  0  0  0  0
   57.0227   31.2469   41.8695 H   0  0  0  0  0  0  0  0  0  0  0  0
   57.7811   33.3263   43.0228 H   0  0  0  0  0  0  0  0  0  0  0  0
   58.2881   31.1048   46.7015 H   0  0  0  0  0  0  0  0  0  0  0  0
   55.4937   24.2446   44.4900 H   0  0  0  0  0  0  0  0  0  0  0  0
  1  2  1  0
  2  3  2  0
  2  4  1  0
  4  5  2  0
  5  6  1  0
  6  7  2  0
  7  8  1  0
  8  9  1  0
  9 10  2  0
  9 11  1  0
 11 12  1  0
 12 13  1  0
 13 14  2  0
 14 15  1  0
 15 16  2  0
 16 17  1  0
 17 18  1  0
 17 19  2  0
  8 20  2  0
 20  4  1  0
 19 13  1  0
  1 21  1  0
  1 22  1  0
  5 23  1  0
  6 24  1  0
 12 25  1  0
 12 26  1  0
 14 27  1  0
 15 28  1  0
 16 29  1  0
 19 30  1  0
 20 31  1  0
M  CHG  1  11  -1
M  END
>  <UniqueID>  (12) 
11

>  <SMILES>  (12) 
NC(=O)c1ccnc(C(=O)[N-]Cc2cccc(Br)c2)c1

>  <Energy>  (12) 
34.03330224267109

>  <Genealogy>  (12) 
NC(=O)c1ccnc(C(=O)[N-]Cc2cccc(Br)c2)c1 (protonated)
NC(=O)c1ccnc(C(=O)[N-]Cc2cccc(Br)c2)c1 (3D coordinates assigned)
NC(=O)c1ccnc(C(=O)[N-]Cc2cccc(Br)c2)c1 (optimized conformer: 34.03330224267109 kcal/mol)

>  <smiles>  (12) 
NC(=O)c1ccnc(C(=O)NCc2cccc(Br)c2)c1

>  <score_type>  (12) 
oracle

>  <origin>  (12) 
adg

>  <m_score__min__energy>  (12) 
-10.42

>  <m_primary>  (12) 
energy

$$$$
12:0
     RDKit          3D

 38 40  0  0  0  0  0  0  0  0999 V2000
   60.1020   30.3710   48.3140 H   0  0  0  0  0  0  0  0  0  0  0  0
   59.1830   30.5100   47.8360 N   0  0  0  0  0  0  0  0  0  0  0  0
   58.7270   29.5930   46.8450 C   0  0  0  0  0  0  0  0  0  0  0  0
   59.3260   28.4960   46.6930 O   0  0  0  0  0  0  0  0  0  0  0  0
   57.6050   29.9370   45.9550 C   0  0  0  0  0  0  0  0  0  0  0  0
   56.6500   29.0500   45.6200 N   0  0  0  0  0  0  0  0  0  0  0  0
   55.8990   29.7150   44.7210 C   0  0  0  0  0  0  0  0  0  0  0  0
   54.8910   29.2040   44.1670 O   0  0  0  0  0  0  0  0  0  0  0  0
   56.3140   30.9700   44.4610 N   0  0  0  0  0  0  0  0  0  0  0  0
   57.3940   31.1150   45.2510 C   0  0  0  0  0  0  0  0  0  0  0  0
   58.1350   32.3840   45.3580 C   0  0  0  0  0  0  0  0  0  0  0  0
   57.9660   33.4270   44.4520 C   0  0  0  0  0  0  0  0  0  0  0  0
   57.3265   33.4093   43.5572 H   0  0  0  0  0  0  0  0  0  0  0  0
   58.9130   34.7210   44.9670 S   0  0  0  0  0  0  0  0  0  0  0  0
   59.4830   33.9120   46.3270 C   0  0  0  0  0  0  0  0  0  0  0  0
   60.3910   34.5040   47.3590 C   0  0  0  0  0  0  0  0  0  0  0  0
   59.9903   35.4781   47.6762 H   0  0  0  0  0  0  0  0  0  0  0  0
   61.3920   34.6271   46.9198 H   0  0  0  0  0  0  0  0  0  0  0  0
   60.4970   33.6010   48.5560 C   0  0  0  0  0  0  0  0  0  0  0  0
   59.7630   33.7310   49.7140 C   0  0  0  0  0  0  0  0  0  0  0  0
   59.0461   34.5383   49.9246 H   0  0  0  0  0  0  0  0  0  0  0  0
   60.0590   32.7170   50.5480 N   0  0  0  0  0  0  0  0  0  0  0  0
   60.9840   31.9940   49.8830 C   0  0  0  0  0  0  0  0  0  0  0  0
   61.5520   30.7550   50.4400 C   0  0  0  0  0  0  0  0  0  0  0  0
   61.9940   30.7779   51.4470 H   0  0  0  0  0  0  0  0  0  0  0  0
   61.5480   29.6380   49.7820 N   0  0  0  0  0  0  0  0  0  0  0  0
   60.3860   28.9480   49.5210 O   0  0  0  0  0  0  0  0  0  0  0  0
   59.8530   29.1500   48.6850 H   0  0  0  0  0  0  0  0  0  0  0  0
   61.2680   32.4960   48.6560 N   0  0  0  0  0  0  0  0  0  0  0  0
   62.0500   31.8550   47.5910 C   0  0  0  0  0  0  0  0  0  0  0  0
   61.4369   31.7932   46.6798 H   0  0  0  0  0  0  0  0  0  0  0  0
   62.3417   30.8477   47.9231 H   0  0  0  0  0  0  0  0  0  0  0  0
   63.3130   32.6590   47.2920 C   0  0  0  0  0  0  0  0  0  0  0  0
   63.7877   32.9612   48.2372 H   0  0  0  0  0  0  0  0  0  0  0  0
   64.0130   32.0399   46.7117 H   0  0  0  0  0  0  0  0  0  0  0  0
   63.0483   33.5552   46.7117 H   0  0  0  0  0  0  0  0  0  0  0  0
   58.9650   32.6670   46.4000 N   0  0  0  0  0  0  0  0  0  0  0  0
   59.1460   32.0140   47.1960 H   0  0  0  0  0  0  0  0  0  0  0  0
  1  2  1  0
  2  3  1  0
  3  4  2  0
  3  5  1  0
  5  6  1  0
  6  7  1  0
  7  8  2  0
  7  9  1  0
  9 10  1  0
 10 11  1  0
 11 12  2  0
 12 13  1  0
 12 14  1  0
 14 15  1  0
 15 16  1  0
 16 17  1  0
 16 18  1  0
 16 19  1  0
 19 20  2  0
 20 21  1  0
 20 22  1  0
 22 23  2  0
 23 24  1  0
 24 25  1  0
 24 26  2  0
 26 27  1  0
 27 28  1  0
 23 29  1  0
 29 30  1  0
 30 31  1  0
 30 32  1  0
 30 33  1  0
 33 34  1  0
 33 35  1  0
 33 36  1  0
 15 37  2  0
 37 38  1  0
 10  5  2  0
 37 11  1  0
 29 19  1  0
M  CHG  4   2  -1   6  -1   9  -1  37   1
M  END
>  <UniqueID>  (13) 
12

>  <SMILES>  (13) 
CCn1c(Cc2[nH+]c(-c3[n-]c(=O)[n-]c3C([NH-])=O)cs2)cnc1/C=N\O

>  <Energy>  (13) 
130.46809832441787

>  <Genealogy>  (13) 
CCn1c(Cc2[nH+]c(-c3[n-]c(=O)[n-]c3C([NH-])=O)cs2)cnc1C=NO (protonated)
CCn1c(Cc2[nH+]c(-c3[n-]c(=O)[n-]c3C([NH-])=O)cs2)cnc1/C=N\O (cis-trans isomerization)
CCn1c(Cc2[nH+]c(-c3[n-]c(=O)[n-]c3C([NH-])=O)cs2)cnc1/C=N\O (3D coordinates assigned)
CCn1c(Cc2[nH+]c(-c3[n-]c(=O)[n-]c3C([NH-])=O)cs2)cnc1/C=N\O (optimized conformer: 130.46809832441787 kcal/mol)

>  <smiles>  (13) 
CCn1c(Cc2nc(-c3[nH]c(=O)[nH]c3C(N)=O)cs2)cnc1C=NO

>  <score_type>  (13) 
oracle

>  <origin>  (13) 
adg

>  <m_score__min__energy>  (13) 
-10.51

>  <m_primary>  (13) 
energy

$$$$
13:0
     RDKit          3D

 39 40  0  0  0  0  0  0  0  0999 V2000
   56.2990   25.0930   47.1210 O   0  0  0  0  0  0  0  0  0  0  0  0
   56.0620   26.1250   46.4390 C   0  0  0  0  0  0  0  0  0  0  0  0
   54.7710   26.3720   45.9900 O   0  0  0  0  0  0  0  0  0  0  0  0
   57.1610   27.0970   46.1370 C   0  0  0  0  0  0  0  0  0  0  0  0
   56.6840   28.2490   45.2380 C   0  0  0  0  0  0  0  0  0  0  0  0
   57.6910   29.4070   45.1560 C   0  0  0  0  0  0  0  0  0  0  0  0
   57.1170   30.6370   45.6010 O   0  0  0  0  0  0  0  0  0  0  0  0
   57.7470   31.8920   45.5710 C   0  0  0  0  0  0  0  0  0  0  0  0
   57.6150   32.7870   44.4930 C   0  0  0  0  0  0  0  0  0  0  0  0
   58.2720   34.0190   44.5170 C   0  0  0  0  0  0  0  0  0  0  0  0
   59.0610   34.3730   45.6120 C   0  0  0  0  0  0  0  0  0  0  0  0
   59.1930   33.5000   46.7050 C   0  0  0  0  0  0  0  0  0  0  0  0
   60.0430   33.8640   47.8630 C   0  0  0  0  0  0  0  0  0  0  0  0
   59.5470   34.5290   48.8130 O   0  0  0  0  0  0  0  0  0  0  0  0
   61.4190   33.4520   47.9340 N   0  0  0  0  0  0  0  0  0  0  0  0
   62.3460   33.8290   46.8620 C   0  0  0  0  0  0  0  0  0  0  0  0
   63.5150   32.8410   46.8260 C   0  0  0  0  0  0  0  0  0  0  0  0
   64.1150   32.7270   48.1030 O   0  0  0  0  0  0  0  0  0  0  0  0
   63.1940   32.1610   49.0170 C   0  0  0  0  0  0  0  0  0  0  0  0
   61.9950   33.0890   49.2300 C   0  0  0  0  0  0  0  0  0  0  0  0
   58.5360   32.2580   46.6690 C   0  0  0  0  0  0  0  0  0  0  0  0
   57.5333   27.5165   47.0833 H   0  0  0  0  0  0  0  0  0  0  0  0
   57.9541   26.5553   45.6008 H   0  0  0  0  0  0  0  0  0  0  0  0
   56.5189   27.8562   44.2239 H   0  0  0  0  0  0  0  0  0  0  0  0
   55.7598   28.6490   45.6805 H   0  0  0  0  0  0  0  0  0  0  0  0
   58.5598   29.1697   45.7875 H   0  0  0  0  0  0  0  0  0  0  0  0
   57.9903   29.5282   44.1045 H   0  0  0  0  0  0  0  0  0  0  0  0
   56.9919   32.5151   43.6282 H   0  0  0  0  0  0  0  0  0  0  0  0
   58.1672   34.7127   43.6698 H   0  0  0  0  0  0  0  0  0  0  0  0
   59.5828   35.3413   45.6196 H   0  0  0  0  0  0  0  0  0  0  0  0
   61.8184   33.8079   45.8970 H   0  0  0  0  0  0  0  0  0  0  0  0
   62.7291   34.8431   47.0488 H   0  0  0  0  0  0  0  0  0  0  0  0
   63.1439   31.8542   46.5123 H   0  0  0  0  0  0  0  0  0  0  0  0
   64.2677   33.2105   46.1140 H   0  0  0  0  0  0  0  0  0  0  0  0
   62.8385   31.1985   48.6205 H   0  0  0  0  0  0  0  0  0  0  0  0
   63.7013   32.0152   49.9821 H   0  0  0  0  0  0  0  0  0  0  0  0
   61.2360   32.5732   49.8365 H   0  0  0  0  0  0  0  0  0  0  0  0
   62.3257   33.9997   49.7509 H   0  0  0  0  0  0  0  0  0  0  0  0
   58.6429   31.5634   47.5152 H   0  0  0  0  0  0  0  0  0  0  0  0
  1  2  2  0
  2  3  1  0
  2  4  1  0
  4  5  1  0
  5  6  1  0
  6  7  1  0
  7  8  1  0
  8  9  2  0
  9 10  1  0
 10 11  2  0
 11 12  1  0
 12 13  1  0
 13 14  2  0
 13 15  1  0
 15 16  1  0
 16 17  1  0
 17 18  1  0
 18 19  1  0
 19 20  1  0
 12 21  2  0
 21  8  1  0
 20 15  1  0
  4 22  1  0
  4 23  1  0
  5 24  1  0
  5 25  1  0
  6 26  1  0
  6 27  1  0
  9 28  1  0
 10 29  1  0
 11 30  1  0
 16 31  1  0
 16 32  1  0
 17 33  1  0
 17 34  1  0
 19 35  1  0
 19 36  1  0
 20 37  1  0
 20 38  1  0
 21 39  1  0
M  CHG  1   3  -1
M  END
>  <UniqueID>  (14) 
13

>  <SMILES>  (14) 
O=C([O-])CCCOc1cccc(C(=O)N2CCOCC2)c1

>  <Energy>  (14) 
39.663399373071314

>  <Genealogy>  (14) 
O=C([O-])CCCOc1cccc(C(=O)N2CCOCC2)c1 (protonated)
O=C([O-])CCCOc1cccc(C(=O)N2CCOCC2)c1 (3D coordinates assigned)
O=C([O-])CCCOc1cccc(C(=O)N2CCOCC2)c1 (nonaromatic ring conformer: 39.663399373071314 kcal/mol)

>  <smiles>  (14) 
O=C(O)CCCOc1cccc(C(=O)N2CCOCC2)c1

>  <score_type>  (14) 
oracle

>  <origin>  (14) 
adg

>  <m_score__min__energy>  (14) 
-10.220000000000001

>  <m_primary>  (14) 
energy

$$$$
14:0
     RDKit          3D

 26 27  0  0  0  0  0  0  0  0999 V2000
   55.6000   29.3080   44.8820 O   0  0  0  0  0  0  0  0  0  0  0  0
   56.8460   29.4540   44.7570 C   0  0  0  0  0  0  0  0  0  0  0  0
   57.7040   28.2160   44.7410 C   0  0  0  0  0  0  0  0  0  0  0  0
   57.7980   27.6090   46.1120 C   0  0  0  0  0  0  0  0  0  0  0  0
   58.3510   28.2640   47.0360 O   0  0  0  0  0  0  0  0  0  0  0  0
   57.2410   26.2710   46.4020 C   0  0  0  0  0  0  0  0  0  0  0  0
   57.9570   25.1960   46.7800 N   0  0  0  0  0  0  0  0  0  0  0  0
   57.0470   24.2140   46.9300 C   0  0  0  0  0  0  0  0  0  0  0  0
   57.3520   23.0450   47.2830 O   0  0  0  0  0  0  0  0  0  0  0  0
   55.7780   24.5940   46.6720 N   0  0  0  0  0  0  0  0  0  0  0  0
   55.9160   25.8930   46.3400 C   0  0  0  0  0  0  0  0  0  0  0  0
   54.8500   26.7110   45.9880 O   0  0  0  0  0  0  0  0  0  0  0  0
   57.4120   30.8290   44.6590 C   0  0  0  0  0  0  0  0  0  0  0  0
   57.5680   31.4800   43.4180 C   0  0  0  0  0  0  0  0  0  0  0  0
   58.1050   32.7690   43.3550 C   0  0  0  0  0  0  0  0  0  0  0  0
   58.4900   33.4280   44.5240 C   0  0  0  0  0  0  0  0  0  0  0  0
   59.0110   34.6790   44.4590 F   0  0  0  0  0  0  0  0  0  0  0  0
   58.3370   32.7980   45.7610 C   0  0  0  0  0  0  0  0  0  0  0  0
   57.8020   31.5100   45.8300 C   0  0  0  0  0  0  0  0  0  0  0  0
   57.2626   27.4812   44.0517 H   0  0  0  0  0  0  0  0  0  0  0  0
   58.7156   28.4947   44.4107 H   0  0  0  0  0  0  0  0  0  0  0  0
   58.9870   25.1260   46.9320 H   0  0  0  0  0  0  0  0  0  0  0  0
   57.2647   30.9694   42.4921 H   0  0  0  0  0  0  0  0  0  0  0  0
   58.2247   33.2659   42.3809 H   0  0  0  0  0  0  0  0  0  0  0  0
   58.6385   33.3173   46.6826 H   0  0  0  0  0  0  0  0  0  0  0  0
   57.6836   31.0216   46.8085 H   0  0  0  0  0  0  0  0  0  0  0  0
  1  2  2  0
  2  3  1  0
  3  4  1  0
  4  5  2  0
  4  6  1  0
  6  7  1  0
  7  8  1  0
  8  9  2  0
  8 10  1  0
 10 11  1  0
 11 12  1  0
  2 13  1  0
 13 14  2  0
 14 15  1  0
 15 16  2  0
 16 17  1  0
 16 18  1  0
 18 19  2  0
 11  6  2  0
 19 13  1  0
  3 20  1  0
  3 21  1  0
  7 22  1  0
 14 23  1  0
 15 24  1  0
 18 25  1  0
 19 26  1  0
M  CHG  2  10  -1  12  -1
M  END
>  <UniqueID>  (15) 
14

>  <SMILES>  (15) 
O=C(CC(=O)c1[nH]c(=O)[n-]c1[O-])c1ccc(F)cc1

>  <Energy>  (15) 
57.87609527208385

>  <Genealogy>  (15) 
O=C(CC(=O)c1[nH]c(=O)[n-]c1[O-])c1ccc(F)cc1 (protonated)
O=C(CC(=O)c1[nH]c(=O)[n-]c1[O-])c1ccc(F)cc1 (3D coordinates assigned)
O=C(CC(=O)c1[nH]c(=O)[n-]c1[O-])c1ccc(F)cc1 (optimized conformer: 57.87609527208385 kcal/mol)

>  <smiles>  (15) 
O=C(CC(=O)c1[nH]c(=O)[nH]c1O)c1ccc(F)cc1

>  <score_type>  (15) 
oracle

>  <origin>  (15) 
adg

>  <m_score__min__energy>  (15) 
-13.06

>  <m_primary>  (15) 
energy

$$$$
15:0
     RDKit          3D

 55 58  0  0  0  0  0  0  0  0999 V2000
   57.7930   29.8390   54.0600 C   0  0  0  0  0  0  0  0  0  0  0  0
   58.1790   30.8740   53.0850 N   0  0  0  0  0  0  0  0  0  0  0  0
   58.3020   30.5430   51.7560 C   0  0  0  0  0  0  0  0  0  0  0  0
   58.0760   29.3680   51.3580 O   0  0  0  0  0  0  0  0  0  0  0  0
   58.6700   31.5350   50.8530 C   0  0  0  0  0  0  0  0  0  0  0  0
   58.8770   31.5360   49.4780 C   0  0  0  0  0  0  0  0  0  0  0  0
   58.7400   30.3690   48.5310 C   0  0  0  0  0  0  0  0  0  0  0  0
   59.9280   30.2220   47.5690 C   0  0  0  0  0  0  0  0  0  0  0  0
   60.3640   28.8330   47.4580 N   0  0  0  0  0  0  0  0  0  0  0  0
   59.5040   27.7040   47.6570 C   0  0  0  0  0  0  0  0  0  0  0  0
   59.7120   26.9150   48.6170 O   0  0  0  0  0  0  0  0  0  0  0  0
   58.3230   27.4790   46.7970 C   0  0  0  0  0  0  0  0  0  0  0  0
   58.2480   27.7360   45.4810 C   0  0  0  0  0  0  0  0  0  0  0  0
   57.8600   29.0320   44.8890 C   0  0  0  0  0  0  0  0  0  0  0  0
   58.8610   29.9320   44.4960 C   0  0  0  0  0  0  0  0  0  0  0  0
   58.5170   31.1720   43.9460 C   0  0  0  0  0  0  0  0  0  0  0  0
   57.1730   31.5290   43.8100 C   0  0  0  0  0  0  0  0  0  0  0  0
   56.1700   30.6520   44.2320 C   0  0  0  0  0  0  0  0  0  0  0  0
   56.5070   29.4090   44.7800 C   0  0  0  0  0  0  0  0  0  0  0  0
   55.5220   28.5840   45.2130 F   0  0  0  0  0  0  0  0  0  0  0  0
   59.1460   32.8710   49.1530 C   0  0  0  0  0  0  0  0  0  0  0  0
   59.3050   33.4340   47.7990 C   0  0  0  0  0  0  0  0  0  0  0  0
   58.1890   33.6890   46.9860 C   0  0  0  0  0  0  0  0  0  0  0  0
   58.3600   34.2160   45.7020 C   0  0  0  0  0  0  0  0  0  0  0  0
   59.6440   34.4800   45.2170 C   0  0  0  0  0  0  0  0  0  0  0  0
   60.7590   34.2080   46.0130 C   0  0  0  0  0  0  0  0  0  0  0  0
   60.5920   33.6810   47.2970 C   0  0  0  0  0  0  0  0  0  0  0  0
   59.1140   33.6450   50.2620 N   0  0  0  0  0  0  0  0  0  0  0  0
   58.8390   32.8160   51.2870 C   0  0  0  0  0  0  0  0  0  0  0  0
   58.6850   33.1690   52.5940 N   0  0  0  0  0  0  0  0  0  0  0  0
   58.8550   34.5720   53.0000 C   0  0  0  0  0  0  0  0  0  0  0  0
   58.3420   32.1840   53.4970 C   0  0  0  0  0  0  0  0  0  0  0  0
   58.1650   32.4840   54.7110 O   0  0  0  0  0  0  0  0  0  0  0  0
   57.9368   30.2245   55.0802 H   0  0  0  0  0  0  0  0  0  0  0  0
   56.7355   29.5738   53.9139 H   0  0  0  0  0  0  0  0  0  0  0  0
   58.4186   28.9461   53.9139 H   0  0  0  0  0  0  0  0  0  0  0  0
   58.6554   29.4465   49.1242 H   0  0  0  0  0  0  0  0  0  0  0  0
   57.8456   30.5519   47.9173 H   0  0  0  0  0  0  0  0  0  0  0  0
   59.6276   30.5820   46.5739 H   0  0  0  0  0  0  0  0  0  0  0  0
   60.7660   30.8139   47.9658 H   0  0  0  0  0  0  0  0  0  0  0  0
   57.4251   27.0638   47.2781 H   0  0  0  0  0  0  0  0  0  0  0  0
   58.4950   26.9167   44.7898 H   0  0  0  0  0  0  0  0  0  0  0  0
   59.9202   29.6624   44.6205 H   0  0  0  0  0  0  0  0  0  0  0  0
   59.3056   31.8664   43.6204 H   0  0  0  0  0  0  0  0  0  0  0  0
   56.9042   32.5009   43.3705 H   0  0  0  0  0  0  0  0  0  0  0  0
   55.1128   30.9394   44.1332 H   0  0  0  0  0  0  0  0  0  0  0  0
   57.1773   33.4736   47.3601 H   0  0  0  0  0  0  0  0  0  0  0  0
   57.4821   34.4232   45.0724 H   0  0  0  0  0  0  0  0  0  0  0  0
   59.7762   34.9015   44.2096 H   0  0  0  0  0  0  0  0  0  0  0  0
   61.7701   34.4088   45.6290 H   0  0  0  0  0  0  0  0  0  0  0  0
   61.4733   33.4589   47.9166 H   0  0  0  0  0  0  0  0  0  0  0  0
   59.2510   34.6800   50.2990 H   0  0  0  0  0  0  0  0  0  0  0  0
   58.8629   34.6376   54.0980 H   0  0  0  0  0  0  0  0  0  0  0  0
   59.8062   34.9560   52.6029 H   0  0  0  0  0  0  0  0  0  0  0  0
   58.0230   35.1720   52.6029 H   0  0  0  0  0  0  0  0  0  0  0  0
  1  2  1  0
  2  3  1  0
  3  4  2  0
  3  5  1  0
  5  6  1  0
  6  7  1  0
  7  8  1  0
  8  9  1  0
  9 10  1  0
 10 11  2  0
 10 12  1  0
 12 13  2  3
 13 14  1  0
 14 15  2  0
 15 16  1  0
 16 17  2  0
 17 18  1  0
 18 19  2  0
 19 20  1  0
  6 21  2  0
 21 22  1  0
 22 23  2  0
 23 24  1  0
 24 25  2  0
 25 26  1  0
 26 27  2  0
 21 28  1  0
 28 29  1  0
 29 30  1  0
 30 31  1  0
 30 32  1  0
 32 33  2  0
 32  2  1  0
 29  5  2  0
 19 14  1  0
 27 22  1  0
  1 34  1  0
  1 35  1  0
  1 36  1  0
  7 37  1  0
  7 38  1  0
  8 39  1  0
  8 40  1  0
 12 41  1  0
 13 42  1  0
 15 43  1  0
 16 44  1  0
 17 45  1  0
 18 46  1  0
 23 47  1  0
 24 48  1  0
 25 49  1  0
 26 50  1  0
 27 51  1  0
 28 52  1  0
 31 53  1  0
 31 54  1  0
 31 55  1  0
M  CHG  1   9  -1
M  END
>  <UniqueID>  (16) 
15

>  <SMILES>  (16) 
Cn1c(=O)c2c(CC[N-]C(=O)C=Cc3ccccc3F)c(-c3ccccc3)[nH]c2n(C)c1=O

>  <Energy>  (16) 
108.9306727838154

>  <Genealogy>  (16) 
Cn1c(=O)c2c(CC[N-]C(=O)C=Cc3ccccc3F)c(-c3ccccc3)[nH]c2n(C)c1=O (protonated)
Cn1c(=O)c2c(CC[N-]C(=O)C=Cc3ccccc3F)c(-c3ccccc3)[nH]c2n(C)c1=O (3D coordinates assigned)
Cn1c(=O)c2c(CC[N-]C(=O)C=Cc3ccccc3F)c(-c3ccccc3)[nH]c2n(C)c1=O (optimized conformer: 108.9306727838154 kcal/mol)

>  <smiles>  (16) 
Cn1c(=O)c2c(CCNC(=O)C=Cc3ccccc3F)c(-c3ccccc3)[nH]c2n(C)c1=O

>  <score_type>  (16) 
oracle

>  <origin>  (16) 
adg

>  <m_score__min__energy>  (16) 
-9.5999999999999996

>  <m_primary>  (16) 
energy

$$$$
16:0
     RDKit          3D

 44 46  0  0  0  0  0  0  0  0999 V2000
   54.2300   29.2650   54.6180 C   0  0  0  0  0  0  0  0  0  0  0  0
   54.7790   29.7600   53.4980 C   0  0  0  0  0  0  0  0  0  0  0  0
   54.2140   30.7070   52.6310 C   0  0  0  0  0  0  0  0  0  0  0  0
   52.9590   31.1890   52.5410 C   0  0  0  0  0  0  0  0  0  0  0  0
   52.1280   31.1960   51.3250 C   0  0  0  0  0  0  0  0  0  0  0  0
   52.1970   30.2770   50.3440 N   0  0  0  0  0  0  0  0  0  0  0  0
   51.3690   30.7700   49.3970 C   0  0  0  0  0  0  0  0  0  0  0  0
   51.1510   30.1740   48.3110 O   0  0  0  0  0  0  0  0  0  0  0  0
   50.8020   31.9570   49.7020 N   0  0  0  0  0  0  0  0  0  0  0  0
   51.3050   32.2170   50.9190 C   0  0  0  0  0  0  0  0  0  0  0  0
   51.0220   33.3690   51.6430 O   0  0  0  0  0  0  0  0  0  0  0  0
   55.2300   31.1090   51.7830 C   0  0  0  0  0  0  0  0  0  0  0  0
   56.3470   30.3700   52.1130 C   0  0  0  0  0  0  0  0  0  0  0  0
   57.6550   30.5280   51.4380 C   0  0  0  0  0  0  0  0  0  0  0  0
   57.9610   29.7090   50.5280 O   0  0  0  0  0  0  0  0  0  0  0  0
   58.5040   31.6750   51.6960 N   0  0  2  0  0  0  0  0  0  0  0  0
   58.0810   32.3140   52.9580 C   0  0  0  0  0  0  0  0  0  0  0  0
   58.5550   32.5840   50.5110 C   0  0  0  0  0  0  0  0  0  0  0  0
   58.9790   31.8680   49.2220 C   0  0  0  0  0  0  0  0  0  0  0  0
   59.7400   32.8980   48.3860 C   0  0  0  0  0  0  0  0  0  0  0  0
   59.7660   34.1940   49.1890 C   0  0  0  0  0  0  0  0  0  0  0  0
   59.4940   33.7930   50.6280 C   0  0  0  0  0  0  0  0  0  0  0  0
   56.0660   29.5210   53.1320 N   0  0  0  0  0  0  0  0  0  0  0  0
   56.9770   28.5420   53.7340 C   0  0  0  0  0  0  0  0  0  0  0  0
   54.7770   28.5218   55.2166 H   0  0  0  0  0  0  0  0  0  0  0  0
   53.2330   29.6025   54.9374 H   0  0  0  0  0  0  0  0  0  0  0  0
   52.5170   31.6138   53.4543 H   0  0  0  0  0  0  0  0  0  0  0  0
   55.1605   31.8732   50.9948 H   0  0  0  0  0  0  0  0  0  0  0  0
   59.4760   31.3270   51.8620 H   0  0  0  0  0  0  0  0  0  0  0  0
   58.4653   31.7335   53.8097 H   0  0  0  0  0  0  0  0  0  0  0  0
   58.4802   33.3380   53.0023 H   0  0  0  0  0  0  0  0  0  0  0  0
   56.9824   32.3465   53.0023 H   0  0  0  0  0  0  0  0  0  0  0  0
   57.5130   32.9348   50.4756 H   0  0  0  0  0  0  0  0  0  0  0  0
   59.6303   31.0136   49.4581 H   0  0  0  0  0  0  0  0  0  0  0  0
   58.1066   31.4782   48.6770 H   0  0  0  0  0  0  0  0  0  0  0  0
   60.7663   32.5488   48.1993 H   0  0  0  0  0  0  0  0  0  0  0  0
   59.2522   33.0500   47.4119 H   0  0  0  0  0  0  0  0  0  0  0  0
   60.7507   34.6770   49.1053 H   0  0  0  0  0  0  0  0  0  0  0  0
   59.0203   34.9140   48.8209 H   0  0  0  0  0  0  0  0  0  0  0  0
   60.4276   33.5139   51.1383 H   0  0  0  0  0  0  0  0  0  0  0  0
   59.0556   34.6115   51.2178 H   0  0  0  0  0  0  0  0  0  0  0  0
   56.9148   28.6089   54.8302 H   0  0  0  0  0  0  0  0  0  0  0  0
   56.6923   27.5296   53.4117 H   0  0  0  0  0  0  0  0  0  0  0  0
   58.0073   28.7532   53.4117 H   0  0  0  0  0  0  0  0  0  0  0  0
  1  2  2  0
  2  3  1  0
  3  4  2  3
  4  5  1  0
  5  6  1  0
  6  7  1  0
  7  8  2  0
  7  9  1  0
  9 10  1  0
 10 11  1  0
  3 12  1  0
 12 13  2  0
 13 14  1  0
 14 15  2  0
 14 16  1  0
 16 17  1  0
 16 18  1  0
 18 19  1  0
 19 20  1  0
 20 21  1  0
 21 22  1  0
 13 23  1  0
 23 24  1  0
 23  2  1  0
 10  5  2  0
 22 18  1  0
  1 25  1  0
  1 26  1  0
  4 27  1  0
 12 28  1  0
 16 29  1  1
 17 30  1  0
 17 31  1  0
 17 32  1  0
 18 33  1  0
 19 34  1  0
 19 35  1  0
 20 36  1  0
 20 37  1  0
 21 38  1  0
 21 39  1  0
 22 40  1  0
 22 41  1  0
 24 42  1  0
 24 43  1  0
 24 44  1  0
M  CHG  4   6  -1   9  -1  11  -1  16   1
M  END
>  <UniqueID>  (17) 
16

>  <SMILES>  (17) 
C=c1c(=Cc2[n-]c(=O)[n-]c2[O-])cc(C(=O)[N@H+](C)C2CCCC2)n1C

>  <Energy>  (17) 
128.03824329095673

>  <Genealogy>  (17) 
C=c1c(=Cc2[n-]c(=O)[n-]c2[O-])cc(C(=O)[NH+](C)C2CCCC2)n1C (protonated)
C=c1c(=Cc2[n-]c(=O)[n-]c2[O-])cc(C(=O)[N@H+](C)C2CCCC2)n1C (chirality)
C=c1c(=Cc2[n-]c(=O)[n-]c2[O-])cc(C(=O)[N@H+](C)C2CCCC2)n1C (3D coordinates assigned)
C=c1c(=Cc2[n-]c(=O)[n-]c2[O-])cc(C(=O)[N@H+](C)C2CCCC2)n1C (nonaromatic ring conformer: 128.03824329095673 kcal/mol)

>  <smiles>  (17) 
C=c1c(=Cc2[nH]c(=O)[nH]c2O)cc(C(=O)N(C)C2CCCC2)n1C

>  <score_type>  (17) 
oracle

>  <origin>  (17) 
adg

>  <m_score__min__energy>  (17) 
-15.49

>  <m_primary>  (17) 
energy

$$$$
17:0
     RDKit          3D

 57 60  0  0  0  0  0  0  0  0999 V2000
   59.9360   27.9900   46.8890 C   0  0  0  0  0  0  0  0  0  0  0  0
   58.9720   28.7120   46.3010 C   0  0  0  0  0  0  0  0  0  0  0  0
   58.0870   28.2920   45.3010 C   0  0  0  0  0  0  0  0  0  0  0  0
   57.6500   27.0590   44.9610 C   0  0  0  0  0  0  0  0  0  0  0  0
   57.1610   26.0010   45.8760 C   0  0  0  0  0  0  0  0  0  0  0  0
   57.9010   25.0160   46.4140 N   0  0  0  0  0  0  0  0  0  0  0  0
   57.0130   24.3110   47.1460 C   0  0  0  0  0  0  0  0  0  0  0  0
   57.3220   23.2490   47.7470 O   0  0  0  0  0  0  0  0  0  0  0  0
   55.7560   24.8010   47.1350 N   0  0  0  0  0  0  0  0  0  0  0  0
   55.8700   25.8800   46.3430 C   0  0  0  0  0  0  0  0  0  0  0  0
   54.8090   26.7160   46.0240 O   0  0  0  0  0  0  0  0  0  0  0  0
   57.5530   29.4510   44.7580 C   0  0  0  0  0  0  0  0  0  0  0  0
   58.0490   30.5080   45.4950 C   0  0  0  0  0  0  0  0  0  0  0  0
   57.5930   31.9280   45.3560 C   0  0  0  0  0  0  0  0  0  0  0  0
   58.8930   30.0590   46.4500 N   0  0  0  0  0  0  0  0  0  0  0  0
   59.2950   30.7840   47.6220 C   0  0  0  0  0  0  0  0  0  0  0  0
   58.9340   30.3510   48.7560 O   0  0  0  0  0  0  0  0  0  0  0  0
   60.1710   31.9340   47.5240 N   0  0  0  0  0  0  0  0  0  0  0  0
   60.0610   32.7920   48.7400 C   0  0  0  0  0  0  0  0  0  0  0  0
   61.1420   32.4640   49.7940 C   0  0  0  0  0  0  0  0  0  0  0  0
   62.5250   32.5800   49.2500 N   0  0  0  0  0  0  0  0  0  0  0  0
   63.2070   33.8010   49.7170 C   0  0  0  0  0  0  0  0  0  0  0  0
   64.5690   33.4650   50.2700 C   0  0  0  0  0  0  0  0  0  0  0  0
   65.2670   32.3500   49.7840 C   0  0  0  0  0  0  0  0  0  0  0  0
   66.5250   32.0310   50.3030 C   0  0  0  0  0  0  0  0  0  0  0  0
   67.0930   32.8170   51.3100 C   0  0  0  0  0  0  0  0  0  0  0  0
   68.3140   32.4940   51.8010 F   0  0  0  0  0  0  0  0  0  0  0  0
   66.4030   33.9310   51.8120 C   0  0  0  0  0  0  0  0  0  0  0  0
   67.0060   34.6890   52.8270 O   0  0  0  0  0  0  0  0  0  0  0  0
   67.1740   36.1020   52.7800 C   0  0  0  0  0  0  0  0  0  0  0  0
   65.1370   34.2500   51.2840 C   0  0  0  0  0  0  0  0  0  0  0  0
   62.5900   32.4870   47.7730 C   0  0  0  0  0  0  0  0  0  0  0  0
   61.5590   31.4810   47.2480 C   0  0  0  0  0  0  0  0  0  0  0  0
   60.5664   28.4446   47.6674 H   0  0  0  0  0  0  0  0  0  0  0  0
   60.0968   26.9428   46.5932 H   0  0  0  0  0  0  0  0  0  0  0  0
   57.6583   26.8144   43.8886 H   0  0  0  0  0  0  0  0  0  0  0  0
   56.8648   29.5159   43.9024 H   0  0  0  0  0  0  0  0  0  0  0  0
   57.4520   32.3672   46.3546 H   0  0  0  0  0  0  0  0  0  0  0  0
   58.3512   32.5044   44.8057 H   0  0  0  0  0  0  0  0  0  0  0  0
   56.6410   31.9552   44.8057 H   0  0  0  0  0  0  0  0  0  0  0  0
   59.8600   32.5150   46.7050 H   0  0  0  0  0  0  0  0  0  0  0  0
   60.1685   33.8448   48.4400 H   0  0  0  0  0  0  0  0  0  0  0  0
   59.0789   32.6005   49.1970 H   0  0  0  0  0  0  0  0  0  0  0  0
   61.0352   33.1619   50.6375 H   0  0  0  0  0  0  0  0  0  0  0  0
   60.9942   31.4209   50.1103 H   0  0  0  0  0  0  0  0  0  0  0  0
   63.3204   34.4977   48.8734 H   0  0  0  0  0  0  0  0  0  0  0  0
   62.6040   34.2640   50.5120 H   0  0  0  0  0  0  0  0  0  0  0  0
   64.8241   31.7260   48.9938 H   0  0  0  0  0  0  0  0  0  0  0  0
   67.0707   31.1573   49.9173 H   0  0  0  0  0  0  0  0  0  0  0  0
   67.2213   36.4999   53.8044 H   0  0  0  0  0  0  0  0  0  0  0  0
   68.1071   36.3429   52.2496 H   0  0  0  0  0  0  0  0  0  0  0  0
   66.3234   36.5550   52.2496 H   0  0  0  0  0  0  0  0  0  0  0  0
   64.5890   35.1222   51.6701 H   0  0  0  0  0  0  0  0  0  0  0  0
   62.3826   33.4764   47.3393 H   0  0  0  0  0  0  0  0  0  0  0  0
   63.5953   32.1470   47.4837 H   0  0  0  0  0  0  0  0  0  0  0  0
   61.6895   31.3686   46.1616 H   0  0  0  0  0  0  0  0  0  0  0  0
   61.7188   30.5214   47.7614 H   0  0  0  0  0  0  0  0  0  0  0  0
  1  2  2  0
  2  3  1  0
  3  4  2  3
  4  5  1  0
  5  6  1  0
  6  7  1  0
  7  8  2  0
  7  9  1  0
  9 10  1  0
 10 11  1  0
  3 12  1  0
 12 13  2  0
 13 14  1  0
 13 15  1  0
 15 16  1  0
 16 17  2  0
 16 18  1  0
 18 19  1  0
 19 20  1  0
 20 21  1  0
 21 22  1  0
 22 23  1  0
 23 24  2  0
 24 25  1  0
 25 26  2  0
 26 27  1  0
 26 28  1  0
 28 29  1  0
 29 30  1  0
 28 31  2  0
 21 32  1  0
 32 33  1  0
 15  2  1  0
 33 18  1  0
 10  5  2  0
 31 23  1  0
  1 34  1  0
  1 35  1  0
  4 36  1  0
 12 37  1  0
 14 38  1  0
 14 39  1  0
 14 40  1  0
 18 41  1  0
 19 42  1  0
 19 43  1  0
 20 44  1  0
 20 45  1  0
 22 46  1  0
 22 47  1  0
 24 48  1  0
 25 49  1  0
 30 50  1  0
 30 51  1  0
 30 52  1  0
 31 53  1  0
 32 54  1  0
 32 55  1  0
 33 56  1  0
 33 57  1  0
M  CHG  4   6  -1   9  -1  11  -1  18   1
M  END
>  <UniqueID>  (18) 
17

>  <SMILES>  (18) 
C=c1c(=Cc2[n-]c(=O)[n-]c2[O-])cc(C)n1C(=O)[NH+]1CCN(Cc2ccc(F)c(OC)c2)CC1

>  <Energy>  (18) 
152.82848103957093

>  <Genealogy>  (18) 
C=c1c(=Cc2[n-]c(=O)[n-]c2[O-])cc(C)n1C(=O)[NH+]1CCN(Cc2ccc(F)c(OC)c2)CC1 (protonated)
C=c1c(=Cc2[n-]c(=O)[n-]c2[O-])cc(C)n1C(=O)[NH+]1CCN(Cc2ccc(F)c(OC)c2)CC1 (3D coordinates assigned)
C=c1c(=Cc2[n-]c(=O)[n-]c2[O-])cc(C)n1C(=O)[NH+]1CCN(Cc2ccc(F)c(OC)c2)CC1 (nonaromatic ring conformer: 152.82848103957093 kcal/mol)

>  <smiles>  (18) 
C=c1c(=Cc2[nH]c(=O)[nH]c2O)cc(C)n1C(=O)N1CCN(Cc2ccc(F)c(OC)c2)CC1

>  <score_type>  (18) 
oracle

>  <origin>  (18) 
adg

>  <m_score__min__energy>  (18) 
-16.559999999999999

>  <m_primary>  (18) 
energy

$$$$
18:0
     RDKit          3D

 62 65  0  0  0  0  0  0  0  0999 V2000
   59.5410   25.9330   47.4430 O   0  0  0  0  0  0  0  0  0  0  0  0
   59.6350   27.1870   47.4880 C   0  0  0  0  0  0  0  0  0  0  0  0
   60.2810   27.8320   48.6540 C   0  0  0  0  0  0  0  0  0  0  0  0
   60.7580   27.0640   49.7310 C   0  0  0  0  0  0  0  0  0  0  0  0
   61.3410   27.6860   50.8380 C   0  0  0  0  0  0  0  0  0  0  0  0
   61.4830   29.0710   50.8690 C   0  0  0  0  0  0  0  0  0  0  0  0
   61.0350   29.8420   49.7970 C   0  0  0  0  0  0  0  0  0  0  0  0
   60.4410   29.2270   48.6920 C   0  0  0  0  0  0  0  0  0  0  0  0
   59.1420   27.9650   46.3830 N   0  0  0  0  0  0  0  0  0  0  0  0
   60.0450   28.8190   45.6140 C   0  0  0  0  0  0  0  0  0  0  0  0
   59.2630   30.0360   45.1200 C   0  0  0  0  0  0  0  0  0  0  0  0
   58.1130   29.6640   44.2510 N   0  0  0  0  0  0  0  0  0  0  0  0
   57.1260   30.7380   44.2570 C   0  0  0  0  0  0  0  0  0  0  0  0
   55.9590   30.4530   44.4890 O   0  0  0  0  0  0  0  0  0  0  0  0
   57.4410   32.2050   44.0290 C   0  0  0  0  0  0  0  0  0  0  0  0
   58.5430   32.6710   44.8950 N   0  0  0  0  0  0  0  0  0  0  0  0
   59.0390   34.0160   44.4840 C   0  0  0  0  0  0  0  0  0  0  0  0
   59.2760   34.9880   45.6570 C   0  0  0  0  0  0  0  0  0  0  0  0
   59.9980   34.3030   46.8370 C   0  0  0  0  0  0  0  0  0  0  0  0
   61.5060   34.0670   46.5570 C   0  0  0  0  0  0  0  0  0  0  0  0
   62.2320   33.5050   47.7590 C   0  0  0  0  0  0  0  0  0  0  0  0
   62.0410   34.0700   49.0320 C   0  0  0  0  0  0  0  0  0  0  0  0
   62.7270   33.5570   50.1400 C   0  0  0  0  0  0  0  0  0  0  0  0
   63.6280   32.5000   49.9790 C   0  0  0  0  0  0  0  0  0  0  0  0
   64.3040   32.0130   51.0490 F   0  0  0  0  0  0  0  0  0  0  0  0
   63.8320   31.9420   48.7140 C   0  0  0  0  0  0  0  0  0  0  0  0
   63.1320   32.4380   47.6080 C   0  0  0  0  0  0  0  0  0  0  0  0
   59.2960   32.9740   47.2360 C   0  0  0  0  0  0  0  0  0  0  0  0
   58.1250   32.6100   46.3120 C   0  0  0  0  0  0  0  0  0  0  0  0
   57.5830   28.2850   44.4790 C   0  0  0  0  0  0  0  0  0  0  0  0
   57.7640   27.7670   45.9180 C   0  0  0  0  0  0  0  0  0  0  0  0
   60.6717   25.9678   49.7018 H   0  0  0  0  0  0  0  0  0  0  0  0
   61.6888   27.0799   51.6875 H   0  0  0  0  0  0  0  0  0  0  0  0
   61.9486   29.5568   51.7392 H   0  0  0  0  0  0  0  0  0  0  0  0
   61.1494   30.9358   49.8213 H   0  0  0  0  0  0  0  0  0  0  0  0
   60.0962   29.8395   47.8459 H   0  0  0  0  0  0  0  0  0  0  0  0
   60.8777   29.1480   46.2530 H   0  0  0  0  0  0  0  0  0  0  0  0
   60.4517   28.2609   44.7578 H   0  0  0  0  0  0  0  0  0  0  0  0
   58.8816   30.5873   45.9921 H   0  0  0  0  0  0  0  0  0  0  0  0
   59.9490   30.6511   44.5191 H   0  0  0  0  0  0  0  0  0  0  0  0
   58.4850   29.6480   43.2710 H   0  0  0  0  0  0  0  0  0  0  0  0
   57.7301   32.3477   42.9773 H   0  0  0  0  0  0  0  0  0  0  0  0
   56.5424   32.7897   44.2752 H   0  0  0  0  0  0  0  0  0  0  0  0
   59.9904   33.8838   43.9480 H   0  0  0  0  0  0  0  0  0  0  0  0
   58.2546   34.4638   43.8561 H   0  0  0  0  0  0  0  0  0  0  0  0
   59.8914   35.8284   45.3034 H   0  0  0  0  0  0  0  0  0  0  0  0
   58.2955   35.3363   46.0139 H   0  0  0  0  0  0  0  0  0  0  0  0
   59.9330   34.9982   47.6870 H   0  0  0  0  0  0  0  0  0  0  0  0
   61.6040   33.3584   45.7214 H   0  0  0  0  0  0  0  0  0  0  0  0
   61.9594   35.0394   46.3144 H   0  0  0  0  0  0  0  0  0  0  0  0
   61.3509   34.9173   49.1582 H   0  0  0  0  0  0  0  0  0  0  0  0
   62.5567   33.9863   51.1384 H   0  0  0  0  0  0  0  0  0  0  0  0
   64.5432   31.1124   48.5874 H   0  0  0  0  0  0  0  0  0  0  0  0
   63.2878   31.9896   46.6157 H   0  0  0  0  0  0  0  0  0  0  0  0
   60.0369   32.1618   47.1986 H   0  0  0  0  0  0  0  0  0  0  0  0
   58.8854   33.1109   48.2473 H   0  0  0  0  0  0  0  0  0  0  0  0
   57.7839   31.5905   46.5449 H   0  0  0  0  0  0  0  0  0  0  0  0
   57.3089   33.3298   46.4727 H   0  0  0  0  0  0  0  0  0  0  0  0
   56.5080   28.2860   44.2458 H   0  0  0  0  0  0  0  0  0  0  0  0
   58.1609   27.6134   43.8271 H   0  0  0  0  0  0  0  0  0  0  0  0
   57.0786   28.3113   46.5843 H   0  0  0  0  0  0  0  0  0  0  0  0
   57.5429   26.6895   45.9312 H   0  0  0  0  0  0  0  0  0  0  0  0
  1  2  2  0
  2  3  1  0
  3  4  2  0
  4  5  1  0
  5  6  2  0
  6  7  1  0
  7  8  2  0
  2  9  1  0
  9 10  1  0
 10 11  1  0
 11 12  1  0
 12 13  1  0
 13 14  2  0
 13 15  1  0
 15 16  1  0
 16 17  1  0
 17 18  1  0
 18 19  1  0
 19 20  1  0
 20 21  1  0
 21 22  2  0
 22 23  1  0
 23 24  2  0
 24 25  1  0
 24 26  1  0
 26 27  2  0
 19 28  1  0
 28 29  1  0
 12 30  1  0
 30 31  1  0
  8  3  1  0
 31  9  1  0
 29 16  1  0
 27 21  1  0
  4 32  1  0
  5 33  1  0
  6 34  1  0
  7 35  1  0
  8 36  1  0
 10 37  1  0
 10 38  1  0
 11 39  1  0
 11 40  1  0
 12 41  1  0
 15 42  1  0
 15 43  1  0
 17 44  1  0
 17 45  1  0
 18 46  1  0
 18 47  1  0
 19 48  1  0
 20 49  1  0
 20 50  1  0
 22 51  1  0
 23 52  1  0
 26 53  1  0
 27 54  1  0
 28 55  1  0
 28 56  1  0
 29 57  1  0
 29 58  1  0
 30 59  1  0
 30 60  1  0
 31 61  1  0
 31 62  1  0
M  CHG  1  12   1
M  END
>  <UniqueID>  (19) 
18

>  <SMILES>  (19) 
O=C(c1ccccc1)N1CC[NH+](C(=O)CN2CCC(Cc3ccc(F)cc3)CC2)CC1

>  <Energy>  (19) 
86.68555370333925

>  <Genealogy>  (19) 
O=C(c1ccccc1)N1CC[NH+](C(=O)CN2CCC(Cc3ccc(F)cc3)CC2)CC1 (protonated)
O=C(c1ccccc1)N1CC[NH+](C(=O)CN2CCC(Cc3ccc(F)cc3)CC2)CC1 (3D coordinates assigned)
O=C(c1ccccc1)N1CC[NH+](C(=O)CN2CCC(Cc3ccc(F)cc3)CC2)CC1 (nonaromatic ring conformer: 86.68555370333925 kcal/mol)

>  <smiles>  (19) 
O=C(CN1CCC(Cc2ccc(F)cc2)CC1)N1CCN(C(=O)c2ccccc2)CC1

>  <score_type>  (19) 
oracle

>  <origin>  (19) 
adg

>  <m_score__min__energy>  (19) 
-8.1999999999999993

>  <m_primary>  (19) 
energy

$$$$
19:0
     RDKit          3D

 41 43  0  0  0  0  0  0  0  0999 V2000
   61.3960   30.6380   46.8210 O   0  0  0  0  0  0  0  0  0  0  0  0
   61.3740   31.6720   47.5450 C   0  0  0  0  0  0  0  0  0  0  0  0
   60.2230   32.5310   47.5220 N   0  0  0  0  0  0  0  0  0  0  0  0
   59.2950   32.5820   46.4220 C   0  0  0  0  0  0  0  0  0  0  0  0
   58.7300   31.3980   45.9140 C   0  0  0  0  0  0  0  0  0  0  0  0
   57.8640   31.4340   44.8130 C   0  0  0  0  0  0  0  0  0  0  0  0
   57.1900   29.9370   44.1680 S   0  0  0  0  0  0  0  0  0  0  0  0
   56.0110   29.5360   45.0110 O   0  0  0  0  0  0  0  0  0  0  0  0
   56.6900   30.1820   42.7710 O   0  0  0  0  0  0  0  0  0  0  0  0
   58.3550   28.6280   44.1430 N   0  0  0  0  0  0  0  0  0  0  0  0
   57.7840   27.3610   43.6370 C   0  0  0  0  0  0  0  0  0  0  0  0
   57.4480   26.3640   44.7600 C   0  0  0  0  0  0  0  0  0  0  0  0
   57.1170   27.0510   45.9450 O   0  0  0  0  0  0  0  0  0  0  0  0
   58.2720   27.6720   46.4740 C   0  0  0  0  0  0  0  0  0  0  0  0
   59.0690   28.4820   45.4240 C   0  0  0  0  0  0  0  0  0  0  0  0
   57.5500   32.6630   44.2210 C   0  0  0  0  0  0  0  0  0  0  0  0
   58.1120   33.8420   44.7120 C   0  0  0  0  0  0  0  0  0  0  0  0
   58.9870   33.8100   45.8030 C   0  0  0  0  0  0  0  0  0  0  0  0
   59.6550   35.3290   46.3880 Cl  0  0  0  0  0  0  0  0  0  0  0  0
   62.5110   31.9500   48.4520 C   0  0  0  0  0  0  0  0  0  0  0  0
   62.6120   31.2650   49.6740 C   0  0  0  0  0  0  0  0  0  0  0  0
   63.6850   31.5290   50.5300 C   0  0  0  0  0  0  0  0  0  0  0  0
   64.6310   32.4370   50.1770 N   0  0  0  0  0  0  0  0  0  0  0  0
   64.5700   33.1070   48.9960 C   0  0  0  0  0  0  0  0  0  0  0  0
   63.5150   32.8760   48.1100 C   0  0  0  0  0  0  0  0  0  0  0  0
   63.5060   33.5190   46.9140 F   0  0  0  0  0  0  0  0  0  0  0  0
   60.0160   33.0930   48.3780 H   0  0  0  0  0  0  0  0  0  0  0  0
   58.9705   30.4340   46.3860 H   0  0  0  0  0  0  0  0  0  0  0  0
   56.8617   27.5886   43.0824 H   0  0  0  0  0  0  0  0  0  0  0  0
   58.5430   26.8906   42.9946 H   0  0  0  0  0  0  0  0  0  0  0  0
   56.5940   25.7437   44.4502 H   0  0  0  0  0  0  0  0  0  0  0  0
   58.3271   25.7304   44.9490 H   0  0  0  0  0  0  0  0  0  0  0  0
   57.9632   28.3542   47.2798 H   0  0  0  0  0  0  0  0  0  0  0  0
   58.9335   26.8719   46.8377 H   0  0  0  0  0  0  0  0  0  0  0  0
   59.2661   29.4847   45.8312 H   0  0  0  0  0  0  0  0  0  0  0  0
   59.9985   27.9302   45.2204 H   0  0  0  0  0  0  0  0  0  0  0  0
   56.8583   32.6994   43.3664 H   0  0  0  0  0  0  0  0  0  0  0  0
   57.8653   34.8034   44.2378 H   0  0  0  0  0  0  0  0  0  0  0  0
   61.8498   30.5238   49.9562 H   0  0  0  0  0  0  0  0  0  0  0  0
   63.7633   31.0002   51.4914 H   0  0  0  0  0  0  0  0  0  0  0  0
   65.3541   33.8337   48.7370 H   0  0  0  0  0  0  0  0  0  0  0  0
  1  2  2  0
  2  3  1  0
  3  4  1  0
  4  5  2  0
  5  6  1  0
  6  7  1  0
  7  8  2  0
  7  9  2  0
  7 10  1  0
 10 11  1  0
 11 12  1  0
 12 13  1  0
 13 14  1  0
 14 15  1  0
  6 16  2  0
 16 17  1  0
 17 18  2  0
 18 19  1  0
  2 20  1  0
 20 21  2  0
 21 22  1  0
 22 23  2  0
 23 24  1  0
 24 25  2  0
 25 26  1  0
 18  4  1  0
 25 20  1  0
 15 10  1  0
  3 27  1  0
  5 28  1  0
 11 29  1  0
 11 30  1  0
 12 31  1  0
 12 32  1  0
 14 33  1  0
 14 34  1  0
 15 35  1  0
 15 36  1  0
 16 37  1  0
 17 38  1  0
 21 39  1  0
 22 40  1  0
 24 41  1  0
M  END
>  <UniqueID>  (20) 
19

>  <SMILES>  (20) 
O=C(Nc1cc(S(=O)(=O)N2CCOCC2)ccc1Cl)c1ccncc1F

>  <Energy>  (20) 
61.65164396405703

>  <Genealogy>  (20) 
O=C(Nc1cc(S(=O)(=O)N2CCOCC2)ccc1Cl)c1ccncc1F (3D coordinates assigned)
O=C(Nc1cc(S(=O)(=O)N2CCOCC2)ccc1Cl)c1ccncc1F (nonaromatic ring conformer: 61.65164396405703 kcal/mol)

>  <smiles>  (20) 
O=C(Nc1cc(S(=O)(=O)N2CCOCC2)ccc1Cl)c1ccncc1F

>  <score_type>  (20) 
oracle

>  <origin>  (20) 
adg

>  <m_score__min__energy>  (20) 
-8.4800000000000004

>  <m_primary>  (20) 
energy

$$$$
20:0
     RDKit          3D

 70 73  0  0  0  0  0  0  0  0999 V2000
   62.3770   33.4371   51.7445 H   0  0  0  0  0  0  0  0  0  0  0  0
   62.0110   33.1900   50.7370 C   0  0  0  0  0  0  0  0  0  0  0  0
   62.4390   32.0360   50.1830 C   0  0  0  0  0  0  0  0  0  0  0  0
   62.0990   30.8030   50.7690 O   0  0  0  0  0  0  0  0  0  0  0  0
   60.8230   30.2120   50.7460 C   0  0  0  0  0  0  0  0  0  0  0  0
   60.0450   30.3260   51.7340 O   0  0  0  0  0  0  0  0  0  0  0  0
   60.3750   29.4390   49.5320 C   0  0  1  0  0  0  0  0  0  0  0  0
   60.9309   29.8088   48.6578 H   0  0  0  0  0  0  0  0  0  0  0  0
   60.6660   27.9630   49.7270 C   0  0  0  0  0  0  0  0  0  0  0  0
   61.6000   27.6160   50.4980 O   0  0  0  0  0  0  0  0  0  0  0  0
   60.0150   26.9560   48.9400 N   0  0  0  0  0  0  0  0  0  0  0  0
   59.5400   27.1340   47.6020 C   0  0  0  0  0  0  0  0  0  0  0  0
   60.4650   27.2730   46.5620 C   0  0  0  0  0  0  0  0  0  0  0  0
   61.5425   27.2105   46.7743 H   0  0  0  0  0  0  0  0  0  0  0  0
   60.0240   27.4910   45.2540 C   0  0  0  0  0  0  0  0  0  0  0  0
   60.7551   27.6109   44.4410 H   0  0  0  0  0  0  0  0  0  0  0  0
   58.6560   27.5570   44.9770 C   0  0  0  0  0  0  0  0  0  0  0  0
   58.3136   27.7465   43.9490 H   0  0  0  0  0  0  0  0  0  0  0  0
   57.7150   27.3820   46.0080 C   0  0  0  0  0  0  0  0  0  0  0  0
   56.2670   27.4570   45.7260 C   0  0  0  0  0  0  0  0  0  0  0  0
   55.5360   26.4570   45.9540 O   0  0  0  0  0  0  0  0  0  0  0  0
   55.6750   28.6350   45.1620 N   0  0  0  0  0  0  0  0  0  0  0  0
   56.3800   29.6560   44.4390 C   0  0  0  0  0  0  0  0  0  0  0  0
   57.3490   30.4160   45.1080 C   0  0  0  0  0  0  0  0  0  0  0  0
   57.5492   30.2317   46.1738 H   0  0  0  0  0  0  0  0  0  0  0  0
   58.0630   31.4080   44.4270 C   0  0  0  0  0  0  0  0  0  0  0  0
   58.8045   32.0182   44.9635 H   0  0  0  0  0  0  0  0  0  0  0  0
   57.8340   31.6240   43.0640 C   0  0  0  0  0  0  0  0  0  0  0  0
   58.4059   32.3950   42.5268 H   0  0  0  0  0  0  0  0  0  0  0  0
   56.8810   30.8630   42.3840 C   0  0  0  0  0  0  0  0  0  0  0  0
   56.6993   31.0374   41.3132 H   0  0  0  0  0  0  0  0  0  0  0  0
   56.1570   29.8780   43.0660 C   0  0  0  0  0  0  0  0  0  0  0  0
   55.4110   29.2750   42.5276 H   0  0  0  0  0  0  0  0  0  0  0  0
   58.1650   27.1470   47.3180 C   0  0  0  0  0  0  0  0  0  0  0  0
   57.4373   26.9725   48.1243 H   0  0  0  0  0  0  0  0  0  0  0  0
   58.9450   29.6380   49.2870 N   0  0  0  0  0  0  0  0  0  0  0  0
   58.5110   28.7060   49.0800 H   0  0  0  0  0  0  0  0  0  0  0  0
   58.5010   29.9650   50.1790 H   0  0  0  0  0  0  0  0  0  0  0  0
   63.3430   31.9650   49.0100 C   0  0  0  0  0  0  0  0  0  0  0  0
   64.5920   31.9800   49.2090 O   0  0  0  0  0  0  0  0  0  0  0  0
   62.8440   31.9200   47.6660 N   0  0  0  0  0  0  0  0  0  0  0  0
   62.4370   33.0980   46.9140 C   0  0  0  0  0  0  0  0  0  0  0  0
   62.8801   33.9952   47.3709 H   0  0  0  0  0  0  0  0  0  0  0  0
   62.7832   33.0054   45.8740 H   0  0  0  0  0  0  0  0  0  0  0  0
   60.9370   33.2150   46.9330 C   0  0  0  0  0  0  0  0  0  0  0  0
   60.1610   32.1280   47.3710 C   0  0  0  0  0  0  0  0  0  0  0  0
   60.6511   31.1880   47.6646 H   0  0  0  0  0  0  0  0  0  0  0  0
   58.7680   32.2370   47.4350 C   0  0  0  0  0  0  0  0  0  0  0  0
   58.1654   31.3823   47.7761 H   0  0  0  0  0  0  0  0  0  0  0  0
   58.1400   33.4310   47.0660 C   0  0  0  0  0  0  0  0  0  0  0  0
   57.0442   33.5143   47.1147 H   0  0  0  0  0  0  0  0  0  0  0  0
   58.9060   34.5190   46.6350 C   0  0  0  0  0  0  0  0  0  0  0  0
   58.4116   35.4583   46.3464 H   0  0  0  0  0  0  0  0  0  0  0  0
   60.3020   34.4150   46.5700 C   0  0  0  0  0  0  0  0  0  0  0  0
   60.9016   35.2739   46.2343 H   0  0  0  0  0  0  0  0  0  0  0  0
   61.0880   34.1460   50.0920 C   0  0  0  0  0  0  0  0  0  0  0  0
   61.5199   35.0120   49.5690 H   0  0  0  0  0  0  0  0  0  0  0  0
   59.7560   34.0180   50.1080 C   0  0  0  0  0  0  0  0  0  0  0  0
   59.1885   34.5304   49.3171 H   0  0  0  0  0  0  0  0  0  0  0  0
   58.9860   33.2420   51.1050 C   0  0  0  0  0  0  0  0  0  0  0  0
   59.1000   33.4910   52.4860 C   0  0  0  0  0  0  0  0  0  0  0  0
   59.8197   34.2393   52.8495 H   0  0  0  0  0  0  0  0  0  0  0  0
   58.3030   32.7920   53.3980 C   0  0  0  0  0  0  0  0  0  0  0  0
   58.4079   32.9812   54.4765 H   0  0  0  0  0  0  0  0  0  0  0  0
   57.3740   31.8540   52.9420 C   0  0  0  0  0  0  0  0  0  0  0  0
   56.7499   31.3030   53.6610 H   0  0  0  0  0  0  0  0  0  0  0  0
   57.2380   31.6160   51.5720 C   0  0  0  0  0  0  0  0  0  0  0  0
   56.5052   30.8784   51.2130 H   0  0  0  0  0  0  0  0  0  0  0  0
   58.0320   32.3140   50.6560 C   0  0  0  0  0  0  0  0  0  0  0  0
   57.9085   32.1351   49.5777 H   0  0  0  0  0  0  0  0  0  0  0  0
  1  2  1  0
  2  3  2  0
  3  4  1  0
  4  5  1  0
  5  6  2  0
  5  7  1  0
  7  8  1  6
  7  9  1  0
  9 10  2  0
  9 11  1  0
 11 12  1  0
 12 13  2  0
 13 14  1  0
 13 15  1  0
 15 16  1  0
 15 17  2  0
 17 18  1  0
 17 19  1  0
 19 20  1  0
 20 21  2  0
 20 22  1  0
 22 23  1  0
 23 24  2  0
 24 25  1  0
 24 26  1  0
 26 27  1  0
 26 28  2  0
 28 29  1  0
 28 30  1  0
 30 31  1  0
 30 32  2  0
 32 33  1  0
 19 34  2  0
 34 35  1  0
  7 36  1  0
 36 37  1  0
 36 38  1  0
  3 39  1  0
 39 40  2  0
 39 41  1  0
 41 42  1  0
 42 43  1  0
 42 44  1  0
 42 45  1  0
 45 46  2  0
 46 47  1  0
 46 48  1  0
 48 49  1  0
 48 50  2  0
 50 51  1  0
 50 52  1  0
 52 53  1  0
 52 54  2  0
 54 55  1  0
  2 56  1  0
 56 57  1  0
 56 58  2  0
 58 59  1  0
 58 60  1  0
 60 61  2  0
 61 62  1  0
 61 63  1  0
 63 64  1  0
 63 65  2  0
 65 66  1  0
 65 67  1  0
 67 68  1  0
 67 69  2  0
 69 70  1  0
 34 12  1  0
 54 45  1  0
 69 60  1  0
 32 23  1  0
M  CHG  3  11  -1  22  -1  41  -1
M  END
>  <UniqueID>  (21) 
20

>  <SMILES>  (21) 
N[C@H](C(=O)[N-]c1cccc(C(=O)[N-]c2ccccc2)c1)C(=O)OC(=C/C=C\c1ccccc1)C(=O)[N-]Cc1ccccc1

>  <Energy>  (21) 
98.36846352148156

>  <Genealogy>  (21) 
NC(C(=O)[N-]c1cccc(C(=O)[N-]c2ccccc2)c1)C(=O)OC(=CC=Cc1ccccc1)C(=O)[N-]Cc1ccccc1 (protonated)
N[C@H](C(=O)[N-]c1cccc(C(=O)[N-]c2ccccc2)c1)C(=O)OC(=CC=Cc1ccccc1)C(=O)[N-]Cc1ccccc1 (chirality)
N[C@H](C(=O)[N-]c1cccc(C(=O)[N-]c2ccccc2)c1)C(=O)OC(=C/C=C\c1ccccc1)C(=O)[N-]Cc1ccccc1 (cis-trans isomerization)
N[C@H](C(=O)[N-]c1cccc(C(=O)[N-]c2ccccc2)c1)C(=O)OC(=C/C=C\c1ccccc1)C(=O)[N-]Cc1ccccc1 (3D coordinates assigned)
N[C@H](C(=O)[N-]c1cccc(C(=O)[N-]c2ccccc2)c1)C(=O)OC(=C/C=C\c1ccccc1)C(=O)[N-]Cc1ccccc1 (optimized conformer: 98.36846352148156 kcal/mol)

>  <smiles>  (21) 
NC(C(=O)Nc1cccc(C(=O)Nc2ccccc2)c1)C(=O)OC(=CC=Cc1ccccc1)C(=O)NCc1ccccc1

>  <score_type>  (21) 
oracle

>  <origin>  (21) 
adg

>  <m_score__min__energy>  (21) 
-14.869999999999999

>  <m_primary>  (21) 
energy

$$$$
21:0
     RDKit          3D

 51 54  0  0  0  0  0  0  0  0999 V2000
   58.7070   30.7350   47.5250 C   0  0  0  0  0  0  0  0  0  0  0  0
   58.6130   30.8250   46.1870 C   0  0  0  0  0  0  0  0  0  0  0  0
   58.4810   29.7550   45.2870 C   0  0  0  0  0  0  0  0  0  0  0  0
   58.6170   28.4250   45.4660 C   0  0  0  0  0  0  0  0  0  0  0  0
   57.5160   27.4710   45.6770 C   0  0  0  0  0  0  0  0  0  0  0  0
   57.6950   26.2210   46.1360 N   0  0  0  0  0  0  0  0  0  0  0  0
   56.4330   25.7630   46.2900 C   0  0  0  0  0  0  0  0  0  0  0  0
   56.1810   24.5980   46.6960 O   0  0  0  0  0  0  0  0  0  0  0  0
   55.4650   26.6520   45.9850 N   0  0  0  0  0  0  0  0  0  0  0  0
   56.1660   27.7360   45.6130 C   0  0  0  0  0  0  0  0  0  0  0  0
   55.5890   28.9470   45.2470 O   0  0  0  0  0  0  0  0  0  0  0  0
   58.2030   30.3150   44.0550 C   0  0  0  0  0  0  0  0  0  0  0  0
   58.2420   31.6820   44.2190 C   0  0  0  0  0  0  0  0  0  0  0  0
   58.0850   32.6680   43.1000 C   0  0  0  0  0  0  0  0  0  0  0  0
   58.4960   32.0020   45.5100 N   0  0  0  0  0  0  0  0  0  0  0  0
   58.6790   33.3690   46.0260 C   0  0  0  0  0  0  0  0  0  0  0  0
   59.8790   33.4330   46.9340 C   0  0  0  0  0  0  0  0  0  0  0  0
   61.1630   33.1600   46.4390 C   0  0  0  0  0  0  0  0  0  0  0  0
   62.2710   33.1970   47.2880 C   0  0  0  0  0  0  0  0  0  0  0  0
   62.1190   33.5040   48.6520 C   0  0  0  0  0  0  0  0  0  0  0  0
   63.2660   33.5420   49.5290 N   0  0  0  0  0  0  0  0  0  0  0  0
   63.3510   34.5690   50.5820 C   0  0  0  0  0  0  0  0  0  0  0  0
   64.0830   34.0370   51.8200 C   0  0  0  0  0  0  0  0  0  0  0  0
   65.3690   33.3590   51.4420 C   0  0  0  0  0  0  0  0  0  0  0  0
   66.1720   33.0520   52.3090 O   0  0  0  0  0  0  0  0  0  0  0  0
   65.6760   33.0790   49.9990 C   0  0  0  0  0  0  0  0  0  0  0  0
   64.4030   32.6380   49.2680 C   0  0  0  0  0  0  0  0  0  0  0  0
   60.8310   33.7850   49.1420 C   0  0  0  0  0  0  0  0  0  0  0  0
   59.7230   33.7500   48.2930 C   0  0  0  0  0  0  0  0  0  0  0  0
   58.8076   31.6469   48.1319 H   0  0  0  0  0  0  0  0  0  0  0  0
   58.6833   29.7494   48.0130 H   0  0  0  0  0  0  0  0  0  0  0  0
   59.6389   28.0181   45.4532 H   0  0  0  0  0  0  0  0  0  0  0  0
   55.5380   29.7160   45.9050 H   0  0  0  0  0  0  0  0  0  0  0  0
   57.9911   29.7729   43.1216 H   0  0  0  0  0  0  0  0  0  0  0  0
   57.9249   33.6733   43.5169 H   0  0  0  0  0  0  0  0  0  0  0  0
   58.9944   32.6682   42.4812 H   0  0  0  0  0  0  0  0  0  0  0  0
   57.2205   32.3857   42.4812 H   0  0  0  0  0  0  0  0  0  0  0  0
   58.8268   34.0581   45.1814 H   0  0  0  0  0  0  0  0  0  0  0  0
   57.7842   33.6566   46.5975 H   0  0  0  0  0  0  0  0  0  0  0  0
   61.2978   32.9152   45.3751 H   0  0  0  0  0  0  0  0  0  0  0  0
   63.2725   32.9839   46.8860 H   0  0  0  0  0  0  0  0  0  0  0  0
   63.8963   35.4402   50.1899 H   0  0  0  0  0  0  0  0  0  0  0  0
   62.3292   34.8503   50.8765 H   0  0  0  0  0  0  0  0  0  0  0  0
   64.3053   34.8774   52.4940 H   0  0  0  0  0  0  0  0  0  0  0  0
   63.4348   33.3009   52.3180 H   0  0  0  0  0  0  0  0  0  0  0  0
   66.0698   33.9911   49.5268 H   0  0  0  0  0  0  0  0  0  0  0  0
   66.4240   32.2747   49.9385 H   0  0  0  0  0  0  0  0  0  0  0  0
   64.6029   32.6241   48.1864 H   0  0  0  0  0  0  0  0  0  0  0  0
   64.1308   31.6389   49.6389 H   0  0  0  0  0  0  0  0  0  0  0  0
   60.6951   34.0348   50.2046 H   0  0  0  0  0  0  0  0  0  0  0  0
   58.7219   33.9721   48.6912 H   0  0  0  0  0  0  0  0  0  0  0  0
  1  2  2  0
  2  3  1  0
  3  4  2  3
  4  5  1  0
  5  6  1  0
  6  7  1  0
  7  8  2  0
  7  9  1  0
  9 10  1  0
 10 11  1  0
  3 12  1  0
 12 13  2  0
 13 14  1  0
 13 15  1  0
 15 16  1  0
 16 17  1  0
 17 18  2  0
 18 19  1  0
 19 20  2  0
 20 21  1  0
 21 22  1  0
 22 23  1  0
 23 24  1  0
 24 25  2  0
 24 26  1  0
 26 27  1  0
 20 28  1  0
 28 29  2  0
 15  2  1  0
 29 17  1  0
 10  5  2  0
 27 21  1  0
  1 30  1  0
  1 31  1  0
  4 32  1  0
 11 33  1  0
 12 34  1  0
 14 35  1  0
 14 36  1  0
 14 37  1  0
 16 38  1  0
 16 39  1  0
 18 40  1  0
 19 41  1  0
 22 42  1  0
 22 43  1  0
 23 44  1  0
 23 45  1  0
 26 46  1  0
 26 47  1  0
 27 48  1  0
 27 49  1  0
 28 50  1  0
 29 51  1  0
M  CHG  2   6  -1   9  -1
M  END
>  <UniqueID>  (22) 
21

>  <SMILES>  (22) 
C=c1c(=Cc2[n-]c(=O)[n-]c2O)cc(C)n1Cc1ccc(N2CCC(=O)CC2)cc1

>  <Energy>  (22) 
124.44110655838259

>  <Genealogy>  (22) 
C=c1c(=Cc2[n-]c(=O)[n-]c2O)cc(C)n1Cc1ccc(N2CCC(=O)CC2)cc1 (protonated)
C=c1c(=Cc2[n-]c(=O)[n-]c2O)cc(C)n1Cc1ccc(N2CCC(=O)CC2)cc1 (3D coordinates assigned)
C=c1c(=Cc2[n-]c(=O)[n-]c2O)cc(C)n1Cc1ccc(N2CCC(=O)CC2)cc1 (nonaromatic ring conformer: 124.44110655838259 kcal/mol)

>  <smiles>  (22) 
C=c1c(=Cc2[nH]c(=O)[nH]c2O)cc(C)n1Cc1ccc(N2CCC(=O)CC2)cc1

>  <score_type>  (22) 
oracle

>  <origin>  (22) 
adg

>  <m_score__min__energy>  (22) 
-13.73

>  <m_primary>  (22) 
energy

$$$$
22:0
     RDKit          3D

 34 35  0  0  0  0  0  0  0  0999 V2000
   58.4809   30.4676   46.3919 H   0  0  0  0  0  0  0  0  0  0  0  0
   58.1370   31.4970   46.2130 C   0  0  0  0  0  0  0  0  0  0  0  0
   57.2140   31.6910   45.3130 N   0  0  0  0  0  0  0  0  0  0  0  0
   57.0100   30.9220   44.1170 C   0  0  0  0  0  0  0  0  0  0  0  0
   57.6680   31.2150   43.0850 O   0  0  0  0  0  0  0  0  0  0  0  0
   56.0200   29.8330   44.0550 C   0  0  0  0  0  0  0  0  0  0  0  0
   55.3980   29.6170   42.9800 O   0  0  0  0  0  0  0  0  0  0  0  0
   55.8380   28.9780   45.1930 N   0  0  0  0  0  0  0  0  0  0  0  0
   56.5830   27.9750   45.5700 C   0  0  0  0  0  0  0  0  0  0  0  0
   55.9650   26.8260   45.9610 N   0  0  0  0  0  0  0  0  0  0  0  0
   56.6540   25.7210   46.3540 C   0  0  0  0  0  0  0  0  0  0  0  0
   55.9130   24.4850   46.7550 C   0  0  0  0  0  0  0  0  0  0  0  0
   55.8743   24.4205   47.8524 H   0  0  0  0  0  0  0  0  0  0  0  0
   54.8896   24.5246   46.3537 H   0  0  0  0  0  0  0  0  0  0  0  0
   56.4302   23.6010   46.3537 H   0  0  0  0  0  0  0  0  0  0  0  0
   58.0520   25.7350   46.3420 C   0  0  0  0  0  0  0  0  0  0  0  0
   58.6196   24.8454   46.6526 H   0  0  0  0  0  0  0  0  0  0  0  0
   58.7190   26.8890   45.9320 C   0  0  0  0  0  0  0  0  0  0  0  0
   59.8187   26.9114   45.9156 H   0  0  0  0  0  0  0  0  0  0  0  0
   57.9940   28.0140   45.5430 C   0  0  0  0  0  0  0  0  0  0  0  0
   58.5171   28.9252   45.2175 H   0  0  0  0  0  0  0  0  0  0  0  0
   58.7480   32.5880   47.0080 C   0  0  0  0  0  0  0  0  0  0  0  0
   59.1490   32.3020   48.3260 C   0  0  0  0  0  0  0  0  0  0  0  0
   59.0108   31.2873   48.7276 H   0  0  0  0  0  0  0  0  0  0  0  0
   59.7190   33.2880   49.1290 C   0  0  0  0  0  0  0  0  0  0  0  0
   60.0213   33.0510   50.1598 H   0  0  0  0  0  0  0  0  0  0  0  0
   59.9060   34.5730   48.6270 C   0  0  0  0  0  0  0  0  0  0  0  0
   60.3528   35.3511   49.2633 H   0  0  0  0  0  0  0  0  0  0  0  0
   59.5280   34.8760   47.3190 C   0  0  0  0  0  0  0  0  0  0  0  0
   59.6832   35.8943   46.9331 H   0  0  0  0  0  0  0  0  0  0  0  0
   58.9500   33.8980   46.4830 C   0  0  0  0  0  0  0  0  0  0  0  0
   58.5350   34.2820   45.1520 N   0  0  0  0  0  0  0  0  0  0  0  0
   57.3520   34.5860   44.8970 O   0  0  0  0  0  0  0  0  0  0  0  0
   59.4440   34.2760   44.1190 O   0  0  0  0  0  0  0  0  0  0  0  0
  1  2  1  0
  2  3  2  0
  3  4  1  0
  4  5  2  0
  4  6  1  0
  6  7  2  0
  6  8  1  0
  8  9  2  3
  9 10  1  0
 10 11  1  0
 11 12  1  0
 12 13  1  0
 12 14  1  0
 12 15  1  0
 11 16  2  0
 16 17  1  0
 16 18  1  0
 18 19  1  0
 18 20  2  0
 20 21  1  0
  2 22  1  0
 22 23  2  0
 23 24  1  0
 23 25  1  0
 25 26  1  0
 25 27  2  0
 27 28  1  0
 27 29  1  0
 29 30  1  0
 29 31  2  0
 31 32  1  0
 32 33  2  0
 32 34  1  0
 20  9  1  0
 31 22  1  0
M  CHG  3  10  -1  32   1  34  -1
M  END
>  <UniqueID>  (23) 
22

>  <SMILES>  (23) 
Cc1cccc(=NC(=O)C(=O)/N=C\c2ccccc2[N+](=O)[O-])[n-]1

>  <Energy>  (23) 
56.35161849962352

>  <Genealogy>  (23) 
Cc1cccc(=NC(=O)C(=O)N=Cc2ccccc2[N+](=O)[O-])[n-]1 (protonated)
Cc1cccc(=NC(=O)C(=O)/N=C\c2ccccc2[N+](=O)[O-])[n-]1 (cis-trans isomerization)
Cc1cccc(=NC(=O)C(=O)/N=C\c2ccccc2[N+](=O)[O-])[n-]1 (3D coordinates assigned)
Cc1cccc(=NC(=O)C(=O)/N=C\c2ccccc2[N+](=O)[O-])[n-]1 (optimized conformer: 56.35161849962352 kcal/mol)

>  <smiles>  (23) 
Cc1cccc(=NC(=O)C(=O)N=Cc2ccccc2[N+](=O)[O-])[nH]1

>  <score_type>  (23) 
oracle

>  <origin>  (23) 
adg

>  <m_score__min__energy>  (23) 
-9.6400000000000006

>  <m_primary>  (23) 
energy

$$$$
23:0
     RDKit          3D

 64 65  0  0  0  0  0  0  0  0999 V2000
   56.9561   31.4409   52.5454 H   0  0  0  0  0  0  0  0  0  0  0  0
   57.4850   31.2140   51.6080 C   0  0  0  0  0  0  0  0  0  0  0  0
   57.6760   29.9790   51.2550 N   0  0  0  0  0  0  0  0  0  0  0  0
   58.9100   29.4620   50.7320 C   0  0  0  0  0  0  0  0  0  0  0  0
   59.6910   28.8500   51.5090 O   0  0  0  0  0  0  0  0  0  0  0  0
   59.3120   29.6680   49.3190 C   0  0  0  0  0  0  0  0  0  0  0  0
   58.6120   28.9670   48.3370 C   0  0  0  0  0  0  0  0  0  0  0  0
   57.7959   28.2897   48.6288 H   0  0  0  0  0  0  0  0  0  0  0  0
   58.9360   29.1160   46.9910 C   0  0  0  0  0  0  0  0  0  0  0  0
   58.1400   28.3820   45.9390 C   0  0  0  0  0  0  0  0  0  0  0  0
   58.8300   27.8421   45.2738 H   0  0  0  0  0  0  0  0  0  0  0  0
   57.4610   27.6734   46.4359 H   0  0  0  0  0  0  0  0  0  0  0  0
   57.3270   29.3470   45.1290 C   0  0  0  0  0  0  0  0  0  0  0  0
   56.0730   29.3540   45.2440 O   0  0  0  0  0  0  0  0  0  0  0  0
   57.9700   30.2530   44.2210 N   0  0  0  0  0  0  0  0  0  0  0  0
   59.0130   30.2390   44.1560 H   0  0  0  0  0  0  0  0  0  0  0  0
   57.1940   31.1580   43.3730 C   0  0  0  0  0  0  0  0  0  0  0  0
   57.1483   30.7421   42.3557 H   0  0  0  0  0  0  0  0  0  0  0  0
   56.1869   31.2539   43.8049 H   0  0  0  0  0  0  0  0  0  0  0  0
   57.8240   32.5570   43.3110 C   0  0  0  0  0  0  0  0  0  0  0  0
   58.7190   32.5087   42.6733 H   0  0  0  0  0  0  0  0  0  0  0  0
   57.0621   33.2393   42.9060 H   0  0  0  0  0  0  0  0  0  0  0  0
   58.2270   33.0900   44.6600 C   0  0  0  0  0  0  0  0  0  0  0  0
   57.4970   32.7460   46.1420 S   0  0  0  0  0  0  0  0  0  0  0  0
   58.4160   33.8190   47.0570 C   0  0  0  0  0  0  0  0  0  0  0  0
   58.3357   33.9724   48.1433 H   0  0  0  0  0  0  0  0  0  0  0  0
   59.2940   34.4780   46.2040 C   0  0  0  0  0  0  0  0  0  0  0  0
   60.0077   35.2414   46.5473 H   0  0  0  0  0  0  0  0  0  0  0  0
   59.1840   34.0780   44.8660 C   0  0  0  0  0  0  0  0  0  0  0  0
   59.7952   34.5040   44.0567 H   0  0  0  0  0  0  0  0  0  0  0  0
   59.9510   30.0170   46.6330 C   0  0  0  0  0  0  0  0  0  0  0  0
   60.2700   30.1220   45.4140 O   0  0  0  0  0  0  0  0  0  0  0  0
   60.5830   30.7860   47.5850 N   0  0  0  0  0  0  0  0  0  0  0  0
   61.5080   31.8490   47.1180 C   0  0  0  0  0  0  0  0  0  0  0  0
   61.4161   31.9402   46.0256 H   0  0  0  0  0  0  0  0  0  0  0  0
   61.2272   32.7813   47.6298 H   0  0  0  0  0  0  0  0  0  0  0  0
   62.9820   31.5530   47.4660 C   0  0  0  0  0  0  0  0  0  0  0  0
   63.0040   30.7372   48.2036 H   0  0  0  0  0  0  0  0  0  0  0  0
   63.4807   31.2912   46.5211 H   0  0  0  0  0  0  0  0  0  0  0  0
   63.7570   32.7600   48.0550 C   0  0  0  0  0  0  0  0  0  0  0  0
   64.5221   33.0481   47.3191 H   0  0  0  0  0  0  0  0  0  0  0  0
   62.7970   33.9340   48.3040 C   0  0  0  0  0  0  0  0  0  0  0  0
   62.6743   34.0840   49.3868 H   0  0  0  0  0  0  0  0  0  0  0  0
   63.2101   34.8477   47.8517 H   0  0  0  0  0  0  0  0  0  0  0  0
   61.8195   33.7106   47.8517 H   0  0  0  0  0  0  0  0  0  0  0  0
   64.4680   32.3980   49.3720 C   0  0  0  0  0  0  0  0  0  0  0  0
   63.8468   32.7143   50.2230 H   0  0  0  0  0  0  0  0  0  0  0  0
   64.6250   31.3102   49.4169 H   0  0  0  0  0  0  0  0  0  0  0  0
   65.4400   32.9109   49.4169 H   0  0  0  0  0  0  0  0  0  0  0  0
   60.3320   30.5750   48.9320 C   0  0  0  0  0  0  0  0  0  0  0  0
   61.1700   31.2610   49.9970 C   0  0  0  0  0  0  0  0  0  0  0  0
   60.8096   30.9660   50.9935 H   0  0  0  0  0  0  0  0  0  0  0  0
   62.2226   30.9619   49.8844 H   0  0  0  0  0  0  0  0  0  0  0  0
   61.0847   32.3519   49.8844 H   0  0  0  0  0  0  0  0  0  0  0  0
   57.9830   32.3310   50.7420 C   0  0  0  0  0  0  0  0  0  0  0  0
   57.1278   32.9507   50.4347 H   0  0  0  0  0  0  0  0  0  0  0  0
   58.4858   31.8873   49.8701 H   0  0  0  0  0  0  0  0  0  0  0  0
   58.9990   33.2170   51.4760 C   0  0  0  0  0  0  0  0  0  0  0  0
   59.3276   34.0171   50.7964 H   0  0  0  0  0  0  0  0  0  0  0  0
   59.8427   32.5812   51.7827 H   0  0  0  0  0  0  0  0  0  0  0  0
   58.4070   33.8520   52.7350 C   0  0  0  0  0  0  0  0  0  0  0  0
   58.8473   33.3798   53.6256 H   0  0  0  0  0  0  0  0  0  0  0  0
   58.6309   34.9289   52.7425 H   0  0  0  0  0  0  0  0  0  0  0  0
   57.3170   33.7040   52.7425 H   0  0  0  0  0  0  0  0  0  0  0  0
  1  2  1  0
  2  3  2  0
  3  4  1  0
  4  5  2  0
  4  6  1  0
  6  7  1  0
  7  8  1  0
  7  9  2  0
  9 10  1  0
 10 11  1  0
 10 12  1  0
 10 13  1  0
 13 14  2  0
 13 15  1  0
 15 16  1  0
 15 17  1  0
 17 18  1  0
 17 19  1  0
 17 20  1  0
 20 21  1  0
 20 22  1  0
 20 23  1  0
 23 24  1  0
 24 25  1  0
 25 26  1  0
 25 27  2  0
 27 28  1  0
 27 29  1  0
 29 30  1  0
  9 31  1  0
 31 32  2  0
 31 33  1  0
 33 34  1  0
 34 35  1  0
 34 36  1  0
 34 37  1  0
 37 38  1  0
 37 39  1  0
 37 40  1  0
 40 41  1  0
 40 42  1  0
 42 43  1  0
 42 44  1  0
 42 45  1  0
 40 46  1  0
 46 47  1  0
 46 48  1  0
 46 49  1  0
 33 50  1  0
 50 51  1  0
 51 52  1  0
 51 53  1  0
 51 54  1  0
  2 55  1  0
 55 56  1  0
 55 57  1  0
 55 58  1  0
 58 59  1  0
 58 60  1  0
 58 61  1  0
 61 62  1  0
 61 63  1  0
 61 64  1  0
 50  6  2  0
 29 23  2  0
M  END
>  <UniqueID>  (24) 
23

>  <SMILES>  (24) 
CCC/C=N/C(=O)c1cc(CC(=O)NCCc2cccs2)c(=O)n(CCC(C)C)c1C

>  <Energy>  (24) 
85.7308051679314

>  <Genealogy>  (24) 
CCC/C=N/C(=O)c1cc(CC(=O)NCCc2cccs2)c(=O)n(CCC(C)C)c1C (cis-trans isomerization)
CCC/C=N/C(=O)c1cc(CC(=O)NCCc2cccs2)c(=O)n(CCC(C)C)c1C (3D coordinates assigned)
CCC/C=N/C(=O)c1cc(CC(=O)NCCc2cccs2)c(=O)n(CCC(C)C)c1C (optimized conformer: 85.7308051679314 kcal/mol)

>  <smiles>  (24) 
CCCC=NC(=O)c1cc(CC(=O)NCCc2cccs2)c(=O)n(CCC(C)C)c1C

>  <score_type>  (24) 
oracle

>  <origin>  (24) 
adg

>  <m_score__min__energy>  (24) 
-7.9000000000000004

>  <m_primary>  (24) 
energy

$$$$
24:0
     RDKit          3D

 78 82  0  0  0  0  0  0  0  0999 V2000
   57.7790   27.7930   43.2580 C   0  0  0  0  0  0  0  0  0  0  0  0
   57.0660   29.0880   43.4890 C   0  0  0  0  0  0  0  0  0  0  0  0
   56.0970   29.3930   42.7430 O   0  0  0  0  0  0  0  0  0  0  0  0
   57.4870   29.9980   44.5780 C   0  0  0  0  0  0  0  0  0  0  0  0
   57.2610   31.3710   44.6340 C   0  0  0  0  0  0  0  0  0  0  0  0
   57.7920   31.8940   45.7640 N   0  0  0  0  0  0  0  0  0  0  0  0
   57.7740   33.3130   46.1280 C   0  0  0  0  0  0  0  0  0  0  0  0
   59.0940   33.9540   45.7910 C   0  0  0  0  0  0  0  0  0  0  0  0
   59.3270   34.2320   44.5840 O   0  0  0  0  0  0  0  0  0  0  0  0
   60.1160   34.1880   46.7800 N   0  0  0  0  0  0  0  0  0  0  0  0
   61.5280   34.1090   46.3640 C   0  0  0  0  0  0  0  0  0  0  0  0
   62.4800   34.1810   47.5670 C   0  0  0  0  0  0  0  0  0  0  0  0
   61.9500   33.3650   48.6680 N   0  0  0  0  0  0  0  0  0  0  0  0
   62.7760   32.3730   49.2900 C   0  0  0  0  0  0  0  0  0  0  0  0
   62.4000   31.1700   49.2780 O   0  0  0  0  0  0  0  0  0  0  0  0
   64.0470   32.7430   49.9600 C   0  0  0  0  0  0  0  0  0  0  0  0
   64.0960   33.8280   50.8460 C   0  0  0  0  0  0  0  0  0  0  0  0
   65.2860   34.1590   51.4970 C   0  0  0  0  0  0  0  0  0  0  0  0
   66.4700   33.4190   51.2800 C   0  0  0  0  0  0  0  0  0  0  0  0
   67.7560   33.8070   52.0350 C   0  0  0  0  0  0  0  0  0  0  0  0
   68.4760   32.5310   52.5250 C   0  0  0  0  0  0  0  0  0  0  0  0
   67.4920   34.6980   53.2720 C   0  0  0  0  0  0  0  0  0  0  0  0
   68.6870   34.5870   51.0840 C   0  0  0  0  0  0  0  0  0  0  0  0
   66.4040   32.3220   50.3910 C   0  0  0  0  0  0  0  0  0  0  0  0
   65.2100   31.9900   49.7450 C   0  0  0  0  0  0  0  0  0  0  0  0
   60.5470   33.4940   49.0830 C   0  0  0  0  0  0  0  0  0  0  0  0
   59.8070   34.4900   48.1860 C   0  0  0  0  0  0  0  0  0  0  0  0
   58.3590   30.8630   46.4310 C   0  0  0  0  0  0  0  0  0  0  0  0
   59.0380   30.8910   47.6560 C   0  0  0  0  0  0  0  0  0  0  0  0
   59.5410   29.6740   48.1730 C   0  0  0  0  0  0  0  0  0  0  0  0
   60.2110   29.6020   49.4030 O   0  0  0  0  0  0  0  0  0  0  0  0
   59.5660   29.4670   50.6660 C   0  0  0  0  0  0  0  0  0  0  0  0
   59.3060   30.8300   51.2330 C   0  0  0  0  0  0  0  0  0  0  0  0
   60.3520   31.5630   51.8170 C   0  0  0  0  0  0  0  0  0  0  0  0
   60.1210   32.8520   52.3040 C   0  0  0  0  0  0  0  0  0  0  0  0
   58.8490   33.4220   52.2040 C   0  0  0  0  0  0  0  0  0  0  0  0
   57.8060   32.7040   51.6120 C   0  0  0  0  0  0  0  0  0  0  0  0
   58.0340   31.4130   51.1220 C   0  0  0  0  0  0  0  0  0  0  0  0
   59.3680   28.4790   47.4410 C   0  0  0  0  0  0  0  0  0  0  0  0
   58.6880   28.4770   46.2130 C   0  0  0  0  0  0  0  0  0  0  0  0
   58.1880   29.6890   45.7340 C   0  0  0  0  0  0  0  0  0  0  0  0
   58.0309   27.3354   44.2260 H   0  0  0  0  0  0  0  0  0  0  0  0
   57.1283   27.1126   42.6891 H   0  0  0  0  0  0  0  0  0  0  0  0
   58.7019   27.9790   42.6891 H   0  0  0  0  0  0  0  0  0  0  0  0
   56.7256   31.9498   43.8669 H   0  0  0  0  0  0  0  0  0  0  0  0
   56.9716   33.8203   45.5724 H   0  0  0  0  0  0  0  0  0  0  0  0
   57.5974   33.4034   47.2100 H   0  0  0  0  0  0  0  0  0  0  0  0
   61.6915   33.1576   45.8366 H   0  0  0  0  0  0  0  0  0  0  0  0
   61.7402   34.9656   45.7073 H   0  0  0  0  0  0  0  0  0  0  0  0
   63.4695   33.8005   47.2735 H   0  0  0  0  0  0  0  0  0  0  0  0
   62.5693   35.2260   47.8986 H   0  0  0  0  0  0  0  0  0  0  0  0
   63.1896   34.4235   51.0299 H   0  0  0  0  0  0  0  0  0  0  0  0
   65.3021   35.0117   52.1917 H   0  0  0  0  0  0  0  0  0  0  0  0
   68.4852   32.5146   53.6248 H   0  0  0  0  0  0  0  0  0  0  0  0
   67.9455   31.6435   52.1495 H   0  0  0  0  0  0  0  0  0  0  0  0
   69.5099   32.5263   52.1495 H   0  0  0  0  0  0  0  0  0  0  0  0
   67.6650   34.1141   54.1881 H   0  0  0  0  0  0  0  0  0  0  0  0
   68.1728   35.5618   53.2537 H   0  0  0  0  0  0  0  0  0  0  0  0
   66.4505   35.0515   53.2537 H   0  0  0  0  0  0  0  0  0  0  0  0
   69.3984   35.1830   51.6745 H   0  0  0  0  0  0  0  0  0  0  0  0
   69.2400   33.8786   50.4497 H   0  0  0  0  0  0  0  0  0  0  0  0
   68.0865   35.2556   50.4497 H   0  0  0  0  0  0  0  0  0  0  0  0
   67.3060   31.7206   50.2048 H   0  0  0  0  0  0  0  0  0  0  0  0
   65.1824   31.1291   49.0608 H   0  0  0  0  0  0  0  0  0  0  0  0
   60.0576   32.5114   49.0121 H   0  0  0  0  0  0  0  0  0  0  0  0
   60.5170   33.8613   50.1194 H   0  0  0  0  0  0  0  0  0  0  0  0
   58.7233   34.4021   48.3527 H   0  0  0  0  0  0  0  0  0  0  0  0
   60.1267   35.5150   48.4253 H   0  0  0  0  0  0  0  0  0  0  0  0
   59.1766   31.8357   48.2023 H   0  0  0  0  0  0  0  0  0  0  0  0
   58.6126   28.9337   50.5374 H   0  0  0  0  0  0  0  0  0  0  0  0
   60.2104   28.8974   51.3518 H   0  0  0  0  0  0  0  0  0  0  0  0
   61.3565   31.1208   51.8912 H   0  0  0  0  0  0  0  0  0  0  0  0
   60.9419   33.4192   52.7670 H   0  0  0  0  0  0  0  0  0  0  0  0
   58.6685   34.4357   52.5911 H   0  0  0  0  0  0  0  0  0  0  0  0
   56.8055   33.1539   51.5312 H   0  0  0  0  0  0  0  0  0  0  0  0
   57.2138   30.8535   50.6484 H   0  0  0  0  0  0  0  0  0  0  0  0
   59.7718   27.5363   47.8387 H   0  0  0  0  0  0  0  0  0  0  0  0
   58.5528   27.5456   45.6436 H   0  0  0  0  0  0  0  0  0  0  0  0
  1  2  1  0
  2  3  2  0
  2  4  1  0
  4  5  2  0
  5  6  1  0
  6  7  1  0
  7  8  1  0
  8  9  2  0
  8 10  1  0
 10 11  1  0
 11 12  1  0
 12 13  1  0
 13 14  1  0
 14 15  2  0
 14 16  1  0
 16 17  2  0
 17 18  1  0
 18 19  2  0
 19 20  1  0
 20 21  1  0
 20 22  1  0
 20 23  1  0
 19 24  1  0
 24 25  2  0
 13 26  1  0
 26 27  1  0
  6 28  1  0
 28 29  2  0
 29 30  1  0
 30 31  1  0
 31 32  1  0
 32 33  1  0
 33 34  2  0
 34 35  1  0
 35 36  2  0
 36 37  1  0
 37 38  2  0
 30 39  2  0
 39 40  1  0
 40 41  2  0
 41  4  1  0
 27 10  1  0
 41 28  1  0
 25 16  1  0
 38 33  1  0
  1 42  1  0
  1 43  1  0
  1 44  1  0
  5 45  1  0
  7 46  1  0
  7 47  1  0
 11 48  1  0
 11 49  1  0
 12 50  1  0
 12 51  1  0
 17 52  1  0
 18 53  1  0
 21 54  1  0
 21 55  1  0
 21 56  1  0
 22 57  1  0
 22 58  1  0
 22 59  1  0
 23 60  1  0
 23 61  1  0
 23 62  1  0
 24 63  1  0
 25 64  1  0
 26 65  1  0
 26 66  1  0
 27 67  1  0
 27 68  1  0
 29 69  1  0
 32 70  1  0
 32 71  1  0
 34 72  1  0
 35 73  1  0
 36 74  1  0
 37 75  1  0
 38 76  1  0
 39 77  1  0
 40 78  1  0
M  END
>  <UniqueID>  (25) 
24

>  <SMILES>  (25) 
CC(=O)c1cn(CC(=O)N2CCN(C(=O)c3ccc(C(C)(C)C)cc3)CC2)c2cc(OCc3ccccc3)ccc12

>  <Energy>  (25) 
124.68673368020455

>  <Genealogy>  (25) 
CC(=O)c1cn(CC(=O)N2CCN(C(=O)c3ccc(C(C)(C)C)cc3)CC2)c2cc(OCc3ccccc3)ccc12 (3D coordinates assigned)
CC(=O)c1cn(CC(=O)N2CCN(C(=O)c3ccc(C(C)(C)C)cc3)CC2)c2cc(OCc3ccccc3)ccc12 (nonaromatic ring conformer: 124.68673368020455 kcal/mol)

>  <smiles>  (25) 
CC(=O)c1cn(CC(=O)N2CCN(C(=O)c3ccc(C(C)(C)C)cc3)CC2)c2cc(OCc3ccccc3)ccc12

>  <score_type>  (25) 
oracle

>  <origin>  (25) 
adg

>  <m_score__min__energy>  (25) 
-9.8399999999999999

>  <m_primary>  (25) 
energy

$$$$
25:0
     RDKit          3D

 43 46  0  0  0  0  0  0  0  0999 V2000
   60.6812   33.7269   47.6358 H   0  0  0  0  0  0  0  0  0  0  0  0
   60.0690   32.8280   47.4710 C   0  0  0  0  0  0  0  0  0  0  0  0
   59.1210   32.7530   46.4990 N   0  0  0  0  0  0  0  0  0  0  0  0
   58.4950   31.5550   46.5060 C   0  0  0  0  0  0  0  0  0  0  0  0
   57.5520   31.2630   45.6580 N   0  0  0  0  0  0  0  0  0  0  0  0
   57.5660   30.1520   44.7520 C   0  0  0  0  0  0  0  0  0  0  0  0
   57.8750   30.3530   43.5470 O   0  0  0  0  0  0  0  0  0  0  0  0
   57.1450   28.8040   45.1790 C   0  0  0  0  0  0  0  0  0  0  0  0
   55.8550   28.4110   45.2460 N   0  0  0  0  0  0  0  0  0  0  0  0
   55.9050   27.1320   45.6570 C   0  0  0  0  0  0  0  0  0  0  0  0
   54.7740   26.3520   45.8610 O   0  0  0  0  0  0  0  0  0  0  0  0
   57.1990   26.6980   45.8450 C   0  0  0  0  0  0  0  0  0  0  0  0
   57.5245   25.7009   46.1765 H   0  0  0  0  0  0  0  0  0  0  0  0
   58.0000   27.7740   45.5310 C   0  0  0  0  0  0  0  0  0  0  0  0
   59.0992   27.8078   45.5552 H   0  0  0  0  0  0  0  0  0  0  0  0
   59.1130   30.5250   47.6940 S   0  0  0  0  0  0  0  0  0  0  0  0
   60.2020   31.6800   48.2380 C   0  0  0  0  0  0  0  0  0  0  0  0
   61.2930   31.4730   49.6390 S   0  0  0  0  0  0  0  0  0  0  0  0
   60.0630   32.1050   50.7800 C   0  0  0  0  0  0  0  0  0  0  0  0
   59.8010   33.4780   50.8410 C   0  0  0  0  0  0  0  0  0  0  0  0
   60.3654   34.1745   50.2036 H   0  0  0  0  0  0  0  0  0  0  0  0
   58.8230   33.9640   51.7110 C   0  0  0  0  0  0  0  0  0  0  0  0
   58.6144   35.0432   51.7538 H   0  0  0  0  0  0  0  0  0  0  0  0
   58.1080   33.0830   52.5280 C   0  0  0  0  0  0  0  0  0  0  0  0
   57.3303   33.4704   53.2026 H   0  0  0  0  0  0  0  0  0  0  0  0
   58.3780   31.7090   52.4910 C   0  0  0  0  0  0  0  0  0  0  0  0
   57.6250   30.8310   53.3390 N   0  0  0  0  0  0  0  0  0  0  0  0
   56.5380   29.9870   52.9340 C   0  0  0  0  0  0  0  0  0  0  0  0
   56.7220   29.1620   52.0020 O   0  0  0  0  0  0  0  0  0  0  0  0
   55.2480   30.0520   53.5580 N   0  0  0  0  0  0  0  0  0  0  0  0
   54.0680   30.6400   52.9910 C   0  0  0  0  0  0  0  0  0  0  0  0
   52.9110   30.8610   53.7610 C   0  0  0  0  0  0  0  0  0  0  0  0
   52.9010   30.5895   54.8269 H   0  0  0  0  0  0  0  0  0  0  0  0
   51.7740   31.4250   53.1740 C   0  0  0  0  0  0  0  0  0  0  0  0
   50.8666   31.5833   53.7753 H   0  0  0  0  0  0  0  0  0  0  0  0
   51.7890   31.7880   51.8240 C   0  0  0  0  0  0  0  0  0  0  0  0
   50.6580   32.3450   51.2420 O   0  0  0  0  0  0  0  0  0  0  0  0
   52.9450   31.5930   51.0620 C   0  0  0  0  0  0  0  0  0  0  0  0
   52.9590   31.8839   50.0012 H   0  0  0  0  0  0  0  0  0  0  0  0
   54.0830   31.0290   51.6460 C   0  0  0  0  0  0  0  0  0  0  0  0
   54.9945   30.8901   51.0461 H   0  0  0  0  0  0  0  0  0  0  0  0
   59.3480   31.2210   51.5970 C   0  0  0  0  0  0  0  0  0  0  0  0
   59.5457   30.1404   51.5395 H   0  0  0  0  0  0  0  0  0  0  0  0
  1  2  1  0
  2  3  1  0
  3  4  1  0
  4  5  2  0
  5  6  1  0
  6  7  2  0
  6  8  1  0
  8  9  1  0
  9 10  1  0
 10 11  1  0
 10 12  2  0
 12 13  1  0
 12 14  1  0
 14 15  1  0
  4 16  1  0
 16 17  1  0
 17 18  1  0
 18 19  1  0
 19 20  2  0
 20 21  1  0
 20 22  1  0
 22 23  1  0
 22 24  2  0
 24 25  1  0
 24 26  1  0
 26 27  1  0
 27 28  1  0
 28 29  2  0
 28 30  1  0
 30 31  1  0
 31 32  2  0
 32 33  1  0
 32 34  1  0
 34 35  1  0
 34 36  2  0
 36 37  1  0
 36 38  1  0
 38 39  1  0
 38 40  2  0
 40 41  1  0
 26 42  2  0
 42 43  1  0
 17  2  2  0
 42 19  1  0
 14  8  2  0
 40 31  1  0
M  CHG  6   3  -1   9  -1  11  -1  27  -1  30  -1  37  -1
M  END
>  <UniqueID>  (26) 
25

>  <SMILES>  (26) 
O=C([N-]c1ccc([O-])cc1)[N-]c1cccc(Sc2c[n-]/c(=N/C(=O)c3ccc([O-])[n-]3)s2)c1

>  <Energy>  (26) 
111.4533288688025

>  <Genealogy>  (26) 
O=C([N-]c1ccc([O-])cc1)[N-]c1cccc(Sc2c[n-]c(=NC(=O)c3ccc([O-])[n-]3)s2)c1 (protonated)
O=C([N-]c1ccc([O-])cc1)[N-]c1cccc(Sc2c[n-]/c(=N/C(=O)c3ccc([O-])[n-]3)s2)c1 (cis-trans isomerization)
O=C([N-]c1ccc([O-])cc1)[N-]c1cccc(Sc2c[n-]/c(=N/C(=O)c3ccc([O-])[n-]3)s2)c1 (3D coordinates assigned)
O=C([N-]c1ccc([O-])cc1)[N-]c1cccc(Sc2c[n-]/c(=N/C(=O)c3ccc([O-])[n-]3)s2)c1 (optimized conformer: 111.4533288688025 kcal/mol)

>  <smiles>  (26) 
O=C(Nc1ccc(O)cc1)Nc1cccc(Sc2c[nH]c(=NC(=O)c3ccc(O)[nH]3)s2)c1

>  <score_type>  (26) 
oracle

>  <origin>  (26) 
adg

>  <m_score__min__energy>  (26) 
-22.129999999999999

>  <m_primary>  (26) 
energy

$$$$
26:0
     RDKit          3D

 32 34  0  0  0  0  0  0  0  0999 V2000
   60.1390   28.0100   45.8320 C   0  0  0  0  0  0  0  0  0  0  0  0
   59.0920   28.8130   45.6360 C   0  0  0  0  0  0  0  0  0  0  0  0
   59.1210   30.1280   45.9440 N   0  0  0  0  0  0  0  0  0  0  0  0
   57.9410   30.6450   45.6420 N   0  0  0  0  0  0  0  0  0  0  0  0
   57.6060   32.0330   45.8130 C   0  0  0  0  0  0  0  0  0  0  0  0
   56.6230   32.5210   45.1920 O   0  0  0  0  0  0  0  0  0  0  0  0
   58.4220   32.9170   46.6740 C   0  0  0  0  0  0  0  0  0  0  0  0
   58.7600   32.4970   47.9710 C   0  0  0  0  0  0  0  0  0  0  0  0
   59.5250   33.3160   48.8080 C   0  0  0  0  0  0  0  0  0  0  0  0
   59.8380   32.8840   50.0950 O   0  0  0  0  0  0  0  0  0  0  0  0
   59.9700   34.5610   48.3470 C   0  0  0  0  0  0  0  0  0  0  0  0
   59.6580   34.9800   47.0510 C   0  0  0  0  0  0  0  0  0  0  0  0
   58.8970   34.1610   46.2090 C   0  0  0  0  0  0  0  0  0  0  0  0
   58.6430   34.5810   44.9070 O   0  0  0  0  0  0  0  0  0  0  0  0
   57.1520   29.6780   45.1310 C   0  0  0  0  0  0  0  0  0  0  0  0
   55.9460   29.8540   44.8070 O   0  0  0  0  0  0  0  0  0  0  0  0
   57.8470   28.4770   45.0960 C   0  0  0  0  0  0  0  0  0  0  0  0
   57.4300   27.2580   44.6950 C   0  0  0  0  0  0  0  0  0  0  0  0
   57.1420   26.1290   45.5960 C   0  0  0  0  0  0  0  0  0  0  0  0
   58.2710   25.0440   46.2300 S   0  0  0  0  0  0  0  0  0  0  0  0
   57.1420   24.3290   47.2480 C   0  0  0  0  0  0  0  0  0  0  0  0
   57.3910   23.3720   48.0240 O   0  0  0  0  0  0  0  0  0  0  0  0
   55.9240   24.9040   47.1570 N   0  0  0  0  0  0  0  0  0  0  0  0
   55.9300   25.9170   46.2500 C   0  0  0  0  0  0  0  0  0  0  0  0
   54.7960   26.6810   46.0060 O   0  0  0  0  0  0  0  0  0  0  0  0
   60.0722   26.9445   45.5668 H   0  0  0  0  0  0  0  0  0  0  0  0
   61.0692   28.4133   46.2588 H   0  0  0  0  0  0  0  0  0  0  0  0
   58.4200   31.5151   48.3318 H   0  0  0  0  0  0  0  0  0  0  0  0
   59.9820   31.9030   50.3040 H   0  0  0  0  0  0  0  0  0  0  0  0
   60.5658   35.2099   49.0057 H   0  0  0  0  0  0  0  0  0  0  0  0
   60.0119   35.9574   46.6911 H   0  0  0  0  0  0  0  0  0  0  0  0
   57.2952   27.0954   43.6155 H   0  0  0  0  0  0  0  0  0  0  0  0
  1  2  2  0
  2  3  1  0
  3  4  1  0
  4  5  1  0
  5  6  2  0
  5  7  1  0
  7  8  2  0
  8  9  1  0
  9 10  1  0
  9 11  2  0
 11 12  1  0
 12 13  2  0
 13 14  1  0
  4 15  1  0
 15 16  2  0
 15 17  1  0
 17 18  2  3
 18 19  1  0
 19 20  1  0
 20 21  1  0
 21 22  2  0
 21 23  1  0
 23 24  1  0
 24 25  1  0
 17  2  1  0
 24 19  2  0
 13  7  1  0
  1 26  1  0
  1 27  1  0
  8 28  1  0
 10 29  1  0
 11 30  1  0
 12 31  1  0
 18 32  1  0
M  CHG  4   3  -1  14  -1  23  -1  25  -1
M  END
>  <UniqueID>  (27) 
26

>  <SMILES>  (27) 
C=c1[n-]n(C(=O)c2cc(O)ccc2[O-])c(=O)c1=Cc1sc(=O)[n-]c1[O-]

>  <Energy>  (27) 
113.88635563752705

>  <Genealogy>  (27) 
C=c1[n-]n(C(=O)c2cc(O)ccc2[O-])c(=O)c1=Cc1sc(=O)[n-]c1[O-] (protonated)
C=c1[n-]n(C(=O)c2cc(O)ccc2[O-])c(=O)c1=Cc1sc(=O)[n-]c1[O-] (3D coordinates assigned)
C=c1[n-]n(C(=O)c2cc(O)ccc2[O-])c(=O)c1=Cc1sc(=O)[n-]c1[O-] (optimized conformer: 113.88635563752705 kcal/mol)

>  <smiles>  (27) 
C=c1[nH]n(C(=O)c2cc(O)ccc2O)c(=O)c1=Cc1sc(=O)[nH]c1O

>  <score_type>  (27) 
oracle

>  <origin>  (27) 
adg

>  <m_score__min__energy>  (27) 
-16.199999999999999

>  <m_primary>  (27) 
energy

$$$$
27:0
     RDKit          3D

 56 59  0  0  0  0  0  0  0  0999 V2000
   60.1220   29.1330   44.6940 C   0  0  0  0  0  0  0  0  0  0  0  0
   59.5860   29.0360   45.9220 C   0  0  0  0  0  0  0  0  0  0  0  0
   58.7730   27.9990   46.4060 C   0  0  0  0  0  0  0  0  0  0  0  0
   58.1660   26.9780   45.7690 C   0  0  0  0  0  0  0  0  0  0  0  0
   57.4870   25.8450   46.4180 C   0  0  0  0  0  0  0  0  0  0  0  0
   58.1050   24.7170   46.8180 N   0  0  0  0  0  0  0  0  0  0  0  0
   57.0850   23.9250   47.2130 C   0  0  0  0  0  0  0  0  0  0  0  0
   57.2650   22.7690   47.6750 O   0  0  0  0  0  0  0  0  0  0  0  0
   55.8570   24.4670   47.0650 N   0  0  0  0  0  0  0  0  0  0  0  0
   56.1280   25.6770   46.5480 C   0  0  0  0  0  0  0  0  0  0  0  0
   55.1440   26.6010   46.2060 O   0  0  0  0  0  0  0  0  0  0  0  0
   58.6340   28.2170   47.7650 C   0  0  0  0  0  0  0  0  0  0  0  0
   59.2970   29.3920   48.0540 C   0  0  0  0  0  0  0  0  0  0  0  0
   59.3030   30.0430   49.3810 C   0  0  0  0  0  0  0  0  0  0  0  0
   59.3060   29.3270   50.4170 O   0  0  0  0  0  0  0  0  0  0  0  0
   59.2960   31.4670   49.5280 N   0  0  0  0  0  0  0  0  0  0  0  0
   58.1620   32.3280   49.2160 C   0  0  0  0  0  0  0  0  0  0  0  0
   58.4390   33.0710   47.9410 C   0  0  0  0  0  0  0  0  0  0  0  0
   57.8620   32.6440   46.7340 C   0  0  0  0  0  0  0  0  0  0  0  0
   58.1490   33.3160   45.5410 C   0  0  0  0  0  0  0  0  0  0  0  0
   59.0200   34.4090   45.5440 C   0  0  0  0  0  0  0  0  0  0  0  0
   59.6100   34.8290   46.7400 C   0  0  0  0  0  0  0  0  0  0  0  0
   59.3260   34.1590   47.9350 C   0  0  0  0  0  0  0  0  0  0  0  0
   59.8750   29.8960   46.9360 N   0  0  0  0  0  0  0  0  0  0  0  0
   60.6890   31.1190   46.8640 C   0  0  0  0  0  0  0  0  0  0  0  0
   62.1820   30.7650   46.8680 C   0  0  0  0  0  0  0  0  0  0  0  0
   62.9780   31.7840   47.5870 N   0  0  0  0  0  0  0  0  0  0  0  0
   62.9000   31.5940   49.0560 C   0  0  0  0  0  0  0  0  0  0  0  0
   61.8860   32.5550   49.7040 C   0  0  0  0  0  0  0  0  0  0  0  0
   62.1820   33.9290   49.4910 O   0  0  0  0  0  0  0  0  0  0  0  0
   62.9000   34.1770   48.2900 C   0  0  0  0  0  0  0  0  0  0  0  0
   62.6030   33.1590   47.1760 C   0  0  0  0  0  0  0  0  0  0  0  0
   60.7461   30.0005   44.4332 H   0  0  0  0  0  0  0  0  0  0  0  0
   59.9368   28.3449   43.9492 H   0  0  0  0  0  0  0  0  0  0  0  0
   58.1793   26.9929   44.6692 H   0  0  0  0  0  0  0  0  0  0  0  0
   54.3070   26.7120   46.7650 H   0  0  0  0  0  0  0  0  0  0  0  0
   58.0970   27.5756   48.4793 H   0  0  0  0  0  0  0  0  0  0  0  0
   57.2572   31.7143   49.0945 H   0  0  0  0  0  0  0  0  0  0  0  0
   58.0083   33.0461   50.0350 H   0  0  0  0  0  0  0  0  0  0  0  0
   57.1826   31.7789   46.7266 H   0  0  0  0  0  0  0  0  0  0  0  0
   57.6884   32.9836   44.5990 H   0  0  0  0  0  0  0  0  0  0  0  0
   59.2413   34.9387   44.6057 H   0  0  0  0  0  0  0  0  0  0  0  0
   60.2982   35.6871   46.7414 H   0  0  0  0  0  0  0  0  0  0  0  0
   59.7992   34.4858   48.8727 H   0  0  0  0  0  0  0  0  0  0  0  0
   60.4472   31.6621   45.9385 H   0  0  0  0  0  0  0  0  0  0  0  0
   60.4678   31.7485   47.7386 H   0  0  0  0  0  0  0  0  0  0  0  0
   62.3174   29.7915   47.3619 H   0  0  0  0  0  0  0  0  0  0  0  0
   62.5308   30.7265   45.8255 H   0  0  0  0  0  0  0  0  0  0  0  0
   62.5932   30.5586   49.2653 H   0  0  0  0  0  0  0  0  0  0  0  0
   63.8920   31.8061   49.4813 H   0  0  0  0  0  0  0  0  0  0  0  0
   60.8914   32.3451   49.2836 H   0  0  0  0  0  0  0  0  0  0  0  0
   61.9287   32.3822   50.7895 H   0  0  0  0  0  0  0  0  0  0  0  0
   62.6328   35.1798   47.9254 H   0  0  0  0  0  0  0  0  0  0  0  0
   63.9702   34.0914   48.5294 H   0  0  0  0  0  0  0  0  0  0  0  0
   61.5276   33.1833   46.9461 H   0  0  0  0  0  0  0  0  0  0  0  0
   63.1970   33.4305   46.2909 H   0  0  0  0  0  0  0  0  0  0  0  0
  1  2  2  0
  2  3  1  0
  3  4  2  3
  4  5  1  0
  5  6  1  0
  6  7  1  0
  7  8  2  0
  7  9  1  0
  9 10  1  0
 10 11  1  0
  3 12  1  0
 12 13  2  0
 13 14  1  0
 14 15  2  0
 14 16  1  0
 16 17  1  0
 17 18  1  0
 18 19  2  0
 19 20  1  0
 20 21  2  0
 21 22  1  0
 22 23  2  0
 13 24  1  0
 24 25  1  0
 25 26  1  0
 26 27  1  0
 27 28  1  0
 28 29  1  0
 29 30  1  0
 30 31  1  0
 31 32  1  0
 24  2  1  0
 32 27  1  0
 10  5  2  0
 23 18  1  0
  1 33  1  0
  1 34  1  0
  4 35  1  0
 11 36  1  0
 12 37  1  0
 17 38  1  0
 17 39  1  0
 19 40  1  0
 20 41  1  0
 21 42  1  0
 22 43  1  0
 23 44  1  0
 25 45  1  0
 25 46  1  0
 26 47  1  0
 26 48  1  0
 28 49  1  0
 28 50  1  0
 29 51  1  0
 29 52  1  0
 31 53  1  0
 31 54  1  0
 32 55  1  0
 32 56  1  0
M  CHG  3   6  -1   9  -1  16  -1
M  END
>  <UniqueID>  (28) 
27

>  <SMILES>  (28) 
C=c1c(=Cc2[n-]c(=O)[n-]c2O)cc(C(=O)[N-]Cc2ccccc2)n1CCN1CCOCC1

>  <Energy>  (28) 
143.44854347569378

>  <Genealogy>  (28) 
C=c1c(=Cc2[n-]c(=O)[n-]c2O)cc(C(=O)[N-]Cc2ccccc2)n1CCN1CCOCC1 (protonated)
C=c1c(=Cc2[n-]c(=O)[n-]c2O)cc(C(=O)[N-]Cc2ccccc2)n1CCN1CCOCC1 (3D coordinates assigned)
C=c1c(=Cc2[n-]c(=O)[n-]c2O)cc(C(=O)[N-]Cc2ccccc2)n1CCN1CCOCC1 (nonaromatic ring conformer: 143.44854347569378 kcal/mol)

>  <smiles>  (28) 
C=c1c(=Cc2[nH]c(=O)[nH]c2O)cc(C(=O)NCc2ccccc2)n1CCN1CCOCC1

>  <score_type>  (28) 
oracle

>  <origin>  (28) 
adg

>  <m_score__min__energy>  (28) 
-14.220000000000001

>  <m_primary>  (28) 
energy

$$$$
28:0
     RDKit          3D

 59 62  0  0  0  0  0  0  0  0999 V2000
   57.8300   22.0250   46.8070 H   0  0  0  0  0  0  0  0  0  0  0  0
   57.3580   22.1240   47.7360 N   0  0  0  0  0  0  0  0  0  0  0  0
   56.4150   23.1710   47.9580 C   0  0  0  0  0  0  0  0  0  0  0  0
   56.8120   24.3640   48.0260 O   0  0  0  0  0  0  0  0  0  0  0  0
   54.9540   22.8580   48.0730 C   0  0  0  0  0  0  0  0  0  0  0  0
   54.8271   21.9190   48.6317 H   0  0  0  0  0  0  0  0  0  0  0  0
   54.4524   23.6821   48.6014 H   0  0  0  0  0  0  0  0  0  0  0  0
   54.3300   22.7060   46.6800 C   0  0  0  0  0  0  0  0  0  0  0  0
   54.5887   21.7133   46.2830 H   0  0  0  0  0  0  0  0  0  0  0  0
   53.2415   22.8261   46.7841 H   0  0  0  0  0  0  0  0  0  0  0  0
   54.8310   23.7810   45.6930 C   0  0  1  0  0  0  0  0  0  0  0  0
   55.7989   24.1380   46.0747 H   0  0  0  0  0  0  0  0  0  0  0  0
   55.0200   23.1990   44.3650 N   0  0  0  0  0  0  0  0  0  0  0  0
   56.2460   22.6920   43.8280 C   0  0  0  0  0  0  0  0  0  0  0  0
   56.2430   21.9190   42.8350 O   0  0  0  0  0  0  0  0  0  0  0  0
   57.5120   23.0690   44.4690 C   0  0  0  0  0  0  0  0  0  0  0  0
   58.4780   22.2150   44.7240 O   0  0  0  0  0  0  0  0  0  0  0  0
   59.4670   22.8520   45.3190 C   0  0  0  0  0  0  0  0  0  0  0  0
   60.4110   22.3887   45.6419 H   0  0  0  0  0  0  0  0  0  0  0  0
   59.1450   24.1870   45.4780 C   0  0  0  0  0  0  0  0  0  0  0  0
   59.7568   24.9719   45.9466 H   0  0  0  0  0  0  0  0  0  0  0  0
   57.8910   24.3210   44.9220 C   0  0  0  0  0  0  0  0  0  0  0  0
   57.0400   25.4660   45.0450 N   0  0  0  0  0  0  0  0  0  0  0  0
   56.0280   25.3510   44.8000 H   0  0  0  0  0  0  0  0  0  0  0  0
   57.5260   26.7600   45.4450 C   0  0  0  0  0  0  0  0  0  0  0  0
   58.0900   26.9770   46.7310 C   0  0  0  0  0  0  0  0  0  0  0  0
   58.1674   26.1382   47.4384 H   0  0  0  0  0  0  0  0  0  0  0  0
   58.5490   28.2460   47.1100 C   0  0  0  0  0  0  0  0  0  0  0  0
   59.0068   28.4029   48.0978 H   0  0  0  0  0  0  0  0  0  0  0  0
   58.4160   29.3040   46.2160 C   0  0  0  0  0  0  0  0  0  0  0  0
   58.7760   30.5850   46.4910 N   0  0  0  0  0  0  0  0  0  0  0  0
   58.4950   31.4040   45.4500 C   0  0  0  0  0  0  0  0  0  0  0  0
   58.7430   32.6790   45.5030 N   0  0  0  0  0  0  0  0  0  0  0  0
   58.9600   33.4870   46.6690 C   0  0  0  0  0  0  0  0  0  0  0  0
   58.0600   34.2510   47.1090 O   0  0  0  0  0  0  0  0  0  0  0  0
   60.2870   33.3840   47.3760 C   0  0  0  0  0  0  0  0  0  0  0  0
   60.3147   32.3805   47.8257 H   0  0  0  0  0  0  0  0  0  0  0  0
   60.4050   34.4330   48.4940 C   0  0  0  0  0  0  0  0  0  0  0  0
   60.4899   35.4328   48.0433 H   0  0  0  0  0  0  0  0  0  0  0  0
   59.5086   34.3748   49.1289 H   0  0  0  0  0  0  0  0  0  0  0  0
   61.6530   34.1630   49.3700 C   0  0  0  0  0  0  0  0  0  0  0  0
   62.0141   35.1235   49.7662 H   0  0  0  0  0  0  0  0  0  0  0  0
   61.3437   33.4710   50.1672 H   0  0  0  0  0  0  0  0  0  0  0  0
   62.8110   33.4840   48.6050 C   0  0  0  0  0  0  0  0  0  0  0  0
   63.7655   33.7921   49.0567 H   0  0  0  0  0  0  0  0  0  0  0  0
   62.6749   32.3947   48.6743 H   0  0  0  0  0  0  0  0  0  0  0  0
   62.8160   33.8710   47.1210 C   0  0  0  0  0  0  0  0  0  0  0  0
   62.9504   34.9597   47.0392 H   0  0  0  0  0  0  0  0  0  0  0  0
   63.6391   33.3284   46.6331 H   0  0  0  0  0  0  0  0  0  0  0  0
   61.5010   33.4770   46.4110 C   0  0  0  0  0  0  0  0  0  0  0  0
   61.2792   34.2320   45.6423 H   0  0  0  0  0  0  0  0  0  0  0  0
   61.6509   32.4770   45.9779 H   0  0  0  0  0  0  0  0  0  0  0  0
   57.7810   30.5670   44.1530 S   0  0  0  0  0  0  0  0  0  0  0  0
   57.8520   29.1000   44.9690 C   0  0  0  0  0  0  0  0  0  0  0  0
   57.4030   27.8480   44.5550 C   0  0  0  0  0  0  0  0  0  0  0  0
   56.9624   27.7106   43.5565 H   0  0  0  0  0  0  0  0  0  0  0  0
   53.9370   24.9920   45.6290 C   0  0  0  0  0  0  0  0  0  0  0  0
   52.7270   24.8630   45.3040 O   0  0  0  0  0  0  0  0  0  0  0  0
   54.4210   26.2530   45.9630 O   0  0  0  0  0  0  0  0  0  0  0  0
  1  2  1  0
  2  3  1  0
  3  4  2  0
  3  5  1  0
  5  6  1  0
  5  7  1  0
  5  8  1  0
  8  9  1  0
  8 10  1  0
  8 11  1  0
 11 12  1  1
 11 13  1  0
 13 14  1  0
 14 15  2  0
 14 16  1  0
 16 17  1  0
 17 18  1  0
 18 19  1  0
 18 20  2  0
 20 21  1  0
 20 22  1  0
 22 23  1  0
 23 24  1  0
 23 25  1  0
 25 26  2  0
 26 27  1  0
 26 28  1  0
 28 29  1  0
 28 30  2  0
 30 31  1  0
 31 32  1  0
 32 33  2  0
 33 34  1  0
 34 35  2  0
 34 36  1  0
 36 37  1  0
 36 38  1  0
 38 39  1  0
 38 40  1  0
 38 41  1  0
 41 42  1  0
 41 43  1  0
 41 44  1  0
 44 45  1  0
 44 46  1  0
 44 47  1  0
 47 48  1  0
 47 49  1  0
 47 50  1  0
 50 51  1  0
 50 52  1  0
 32 53  1  0
 53 54  1  0
 54 55  2  0
 55 56  1  0
 11 57  1  0
 57 58  2  0
 57 59  1  0
 22 16  2  0
 55 25  1  0
 54 30  1  0
 50 36  1  0
M  CHG  4   2  -1  13  -1  31  -1  59  -1
M  END
>  <UniqueID>  (29) 
28

>  <SMILES>  (29) 
[NH-]C(=O)CC[C@@H]([N-]C(=O)c1occc1Nc1ccc2[n-]/c(=N/C(=O)C3CCCCC3)sc2c1)C(=O)[O-]

>  <Energy>  (29) 
133.31250195104835

>  <Genealogy>  (29) 
[NH-]C(=O)CCC([N-]C(=O)c1occc1Nc1ccc2[n-]c(=NC(=O)C3CCCCC3)sc2c1)C(=O)[O-] (protonated)
[NH-]C(=O)CC[C@@H]([N-]C(=O)c1occc1Nc1ccc2[n-]c(=NC(=O)C3CCCCC3)sc2c1)C(=O)[O-] (chirality)
[NH-]C(=O)CC[C@@H]([N-]C(=O)c1occc1Nc1ccc2[n-]/c(=N/C(=O)C3CCCCC3)sc2c1)C(=O)[O-] (cis-trans isomerization)
[NH-]C(=O)CC[C@@H]([N-]C(=O)c1occc1Nc1ccc2[n-]/c(=N/C(=O)C3CCCCC3)sc2c1)C(=O)[O-] (3D coordinates assigned)
[NH-]C(=O)CC[C@@H]([N-]C(=O)c1occc1Nc1ccc2[n-]/c(=N/C(=O)C3CCCCC3)sc2c1)C(=O)[O-] (nonaromatic ring conformer: 133.31250195104835 kcal/mol)

>  <smiles>  (29) 
NC(=O)CCC(NC(=O)c1occc1Nc1ccc2[nH]c(=NC(=O)C3CCCCC3)sc2c1)C(=O)O

>  <score_type>  (29) 
oracle

>  <origin>  (29) 
adg

>  <m_score__min__energy>  (29) 
-16.109999999999999

>  <m_primary>  (29) 
energy

$$$$
29:0
     RDKit          3D

 40 42  0  0  0  0  0  0  0  0999 V2000
   55.1220   29.3070   44.8040 N   0  0  0  0  0  0  0  0  0  0  0  0
   56.3100   29.7110   44.1250 C   0  0  0  0  0  0  0  0  0  0  0  0
   56.4740   29.3860   42.9200 O   0  0  0  0  0  0  0  0  0  0  0  0
   57.3180   30.5270   44.8290 C   0  0  0  0  0  0  0  0  0  0  0  0
   57.3460   31.9100   44.8450 C   0  0  0  0  0  0  0  0  0  0  0  0
   58.4740   32.2560   45.5540 C   0  0  0  0  0  0  0  0  0  0  0  0
   58.8730   33.5630   45.8120 O   0  0  0  0  0  0  0  0  0  0  0  0
   59.1420   31.1640   45.9760 N   0  0  0  0  0  0  0  0  0  0  0  0
   60.3630   31.1620   46.7890 C   0  0  0  0  0  0  0  0  0  0  0  0
   60.2230   32.0830   47.9740 C   0  0  0  0  0  0  0  0  0  0  0  0
   59.2730   31.8150   48.9760 C   0  0  0  0  0  0  0  0  0  0  0  0
   59.1340   32.6800   50.0660 C   0  0  0  0  0  0  0  0  0  0  0  0
   59.9290   33.8240   50.1600 C   0  0  0  0  0  0  0  0  0  0  0  0
   60.8650   34.1080   49.1610 C   0  0  0  0  0  0  0  0  0  0  0  0
   61.0080   33.2450   48.0690 C   0  0  0  0  0  0  0  0  0  0  0  0
   58.4360   30.0930   45.5410 C   0  0  0  0  0  0  0  0  0  0  0  0
   58.7730   28.6890   45.8640 C   0  0  0  0  0  0  0  0  0  0  0  0
   59.9100   28.2450   45.5630 O   0  0  0  0  0  0  0  0  0  0  0  0
   57.8220   27.8050   46.4700 N   0  0  0  0  0  0  0  0  0  0  0  0
   57.6530   26.4110   46.1740 C   0  0  0  0  0  0  0  0  0  0  0  0
   58.7620   25.5480   46.0820 C   0  0  0  0  0  0  0  0  0  0  0  0
   58.5810   24.1960   45.7820 C   0  0  0  0  0  0  0  0  0  0  0  0
   57.2980   23.6950   45.5550 C   0  0  0  0  0  0  0  0  0  0  0  0
   56.1940   24.5470   45.6180 C   0  0  0  0  0  0  0  0  0  0  0  0
   56.3630   25.9040   45.9200 C   0  0  0  0  0  0  0  0  0  0  0  0
   55.2370   26.7250   45.9730 O   0  0  0  0  0  0  0  0  0  0  0  0
   55.1740   28.7870   45.7080 H   0  0  0  0  0  0  0  0  0  0  0  0
   56.6165   32.5931   44.3854 H   0  0  0  0  0  0  0  0  0  0  0  0
   60.5547   30.1401   47.1481 H   0  0  0  0  0  0  0  0  0  0  0  0
   61.1992   31.5146   46.1673 H   0  0  0  0  0  0  0  0  0  0  0  0
   58.6365   30.9209   48.9019 H   0  0  0  0  0  0  0  0  0  0  0  0
   58.3964   32.4586   50.8514 H   0  0  0  0  0  0  0  0  0  0  0  0
   59.8189   34.5015   51.0196 H   0  0  0  0  0  0  0  0  0  0  0  0
   61.4895   35.0106   49.2336 H   0  0  0  0  0  0  0  0  0  0  0  0
   61.7389   33.4772   47.2804 H   0  0  0  0  0  0  0  0  0  0  0  0
   59.7761   25.9408   46.2473 H   0  0  0  0  0  0  0  0  0  0  0  0
   59.4507   23.5250   45.7245 H   0  0  0  0  0  0  0  0  0  0  0  0
   57.1569   22.6283   45.3264 H   0  0  0  0  0  0  0  0  0  0  0  0
   55.1855   24.1502   45.4294 H   0  0  0  0  0  0  0  0  0  0  0  0
   55.1420   27.5520   45.3940 H   0  0  0  0  0  0  0  0  0  0  0  0
  1  2  1  0
  2  3  2  0
  2  4  1  0
  4  5  1  0
  5  6  2  0
  6  7  1  0
  6  8  1  0
  8  9  1  0
  9 10  1  0
 10 11  2  0
 11 12  1  0
 12 13  2  0
 13 14  1  0
 14 15  2  0
  8 16  1  0
 16 17  1  0
 17 18  2  0
 17 19  1  0
 19 20  1  0
 20 21  2  0
 21 22  1  0
 22 23  2  0
 23 24  1  0
 24 25  2  0
 25 26  1  0
 16  4  2  0
 25 20  1  0
 15 10  1  0
  1 27  1  0
  5 28  1  0
  9 29  1  0
  9 30  1  0
 11 31  1  0
 12 32  1  0
 13 33  1  0
 14 34  1  0
 15 35  1  0
 21 36  1  0
 22 37  1  0
 23 38  1  0
 24 39  1  0
 26 40  1  0
M  CHG  3   1  -1   7  -1  19  -1
M  END
>  <UniqueID>  (30) 
29

>  <SMILES>  (30) 
[NH-]C(=O)c1cc([O-])n(Cc2ccccc2)c1C(=O)[N-]c1ccccc1O

>  <Energy>  (30) 
77.59552054288392

>  <Genealogy>  (30) 
[NH-]C(=O)c1cc([O-])n(Cc2ccccc2)c1C(=O)[N-]c1ccccc1O (protonated)
[NH-]C(=O)c1cc([O-])n(Cc2ccccc2)c1C(=O)[N-]c1ccccc1O (3D coordinates assigned)
[NH-]C(=O)c1cc([O-])n(Cc2ccccc2)c1C(=O)[N-]c1ccccc1O (optimized conformer: 77.59552054288392 kcal/mol)

>  <smiles>  (30) 
NC(=O)c1cc(O)n(Cc2ccccc2)c1C(=O)Nc1ccccc1O

>  <score_type>  (30) 
oracle

>  <origin>  (30) 
adg

>  <m_score__min__energy>  (30) 
-13.57

>  <m_primary>  (30) 
energy

$$$$
30:0
     RDKit          3D

 50 53  0  0  0  0  0  0  0  0999 V2000
   54.5072   29.9013   56.3287 H   0  0  0  0  0  0  0  0  0  0  0  0
   53.9030   30.1960   55.4580 C   0  0  0  0  0  0  0  0  0  0  0  0
   52.8454   30.4686   55.5892 H   0  0  0  0  0  0  0  0  0  0  0  0
   54.4560   30.2230   54.2360 C   0  0  0  0  0  0  0  0  0  0  0  0
   53.8150   30.5760   53.0380 C   0  0  0  0  0  0  0  0  0  0  0  0
   52.5110   30.7730   52.7530 C   0  0  0  0  0  0  0  0  0  0  0  0
   51.8009   30.6843   53.5884 H   0  0  0  0  0  0  0  0  0  0  0  0
   51.9470   31.0950   51.4330 C   0  0  0  0  0  0  0  0  0  0  0  0
   52.0540   30.2810   50.3690 N   0  0  0  0  0  0  0  0  0  0  0  0
   51.2620   30.8680   49.4430 C   0  0  0  0  0  0  0  0  0  0  0  0
   51.1070   30.3980   48.2860 O   0  0  0  0  0  0  0  0  0  0  0  0
   50.6290   31.9860   49.8640 N   0  0  0  0  0  0  0  0  0  0  0  0
   51.0600   32.1070   51.1300 C   0  0  0  0  0  0  0  0  0  0  0  0
   50.6250   33.1010   51.9990 O   0  0  0  0  0  0  0  0  0  0  0  0
   54.8130   30.7300   52.0950 C   0  0  0  0  0  0  0  0  0  0  0  0
   54.6838   31.0583   51.0531 H   0  0  0  0  0  0  0  0  0  0  0  0
   56.0020   30.3940   52.7080 C   0  0  0  0  0  0  0  0  0  0  0  0
   57.3290   30.5320   52.0740 C   0  0  0  0  0  0  0  0  0  0  0  0
   57.6270   29.7350   51.1450 O   0  0  0  0  0  0  0  0  0  0  0  0
   58.2700   31.5450   52.5210 N   0  0  0  0  0  0  0  0  0  0  0  0
   58.0000   31.7930   53.5020 H   0  0  0  0  0  0  0  0  0  0  0  0
   59.6570   31.0320   52.5780 C   0  0  0  0  0  0  0  0  0  0  0  0
   60.2608   31.7101   53.1990 H   0  0  0  0  0  0  0  0  0  0  0  0
   59.6264   30.0194   53.0067 H   0  0  0  0  0  0  0  0  0  0  0  0
   60.2930   30.9370   51.1890 C   0  0  0  0  0  0  0  0  0  0  0  0
   61.3252   30.5684   51.2824 H   0  0  0  0  0  0  0  0  0  0  0  0
   59.7114   30.2421   50.5654 H   0  0  0  0  0  0  0  0  0  0  0  0
   60.3020   32.2610   50.5670 N   0  0  0  0  0  0  0  0  0  0  0  0
   60.7450   32.1710   49.6230 H   0  0  0  0  0  0  0  0  0  0  0  0
   58.9270   32.7340   50.3840 C   0  0  0  0  0  0  0  0  0  0  0  0
   58.9482   33.7374   49.9337 H   0  0  0  0  0  0  0  0  0  0  0  0
   58.3974   32.0289   49.7265 H   0  0  0  0  0  0  0  0  0  0  0  0
   58.1840   32.8020   51.7340 C   0  0  0  0  0  0  0  0  0  0  0  0
   58.6196   33.6170   52.3307 H   0  0  0  0  0  0  0  0  0  0  0  0
   57.1205   32.9718   51.5101 H   0  0  0  0  0  0  0  0  0  0  0  0
   55.7920   30.0790   54.0110 N   0  0  0  0  0  0  0  0  0  0  0  0
   56.8120   29.5740   54.9450 C   0  0  0  0  0  0  0  0  0  0  0  0
   57.7143   30.1986   54.8693 H   0  0  0  0  0  0  0  0  0  0  0  0
   56.4108   29.6137   55.9685 H   0  0  0  0  0  0  0  0  0  0  0  0
   57.1660   28.1460   54.6120 C   0  0  0  0  0  0  0  0  0  0  0  0
   56.1850   27.1350   54.6200 C   0  0  0  0  0  0  0  0  0  0  0  0
   55.1485   27.3803   54.8946 H   0  0  0  0  0  0  0  0  0  0  0  0
   56.5230   25.8190   54.2800 C   0  0  0  0  0  0  0  0  0  0  0  0
   55.7530   25.0335   54.2906 H   0  0  0  0  0  0  0  0  0  0  0  0
   57.8390   25.5030   53.9270 C   0  0  0  0  0  0  0  0  0  0  0  0
   58.1015   24.4709   53.6516 H   0  0  0  0  0  0  0  0  0  0  0  0
   58.8220   26.4990   53.9240 C   0  0  0  0  0  0  0  0  0  0  0  0
   59.8592   26.2466   53.6585 H   0  0  0  0  0  0  0  0  0  0  0  0
   58.4870   27.8140   54.2580 C   0  0  0  0  0  0  0  0  0  0  0  0
   59.2614   28.5951   54.2441 H   0  0  0  0  0  0  0  0  0  0  0  0
  1  2  1  0
  2  3  1  0
  2  4  2  0
  4  5  1  0
  5  6  2  0
  6  7  1  0
  6  8  1  0
  8  9  1  0
  9 10  1  0
 10 11  2  0
 10 12  1  0
 12 13  1  0
 13 14  1  0
  5 15  1  0
 15 16  1  0
 15 17  2  0
 17 18  1  0
 18 19  2  0
 18 20  1  0
 20 21  1  0
 20 22  1  0
 22 23  1  0
 22 24  1  0
 22 25  1  0
 25 26  1  0
 25 27  1  0
 25 28  1  0
 28 29  1  0
 28 30  1  0
 30 31  1  0
 30 32  1  0
 30 33  1  0
 33 34  1  0
 33 35  1  0
 17 36  1  0
 36 37  1  0
 37 38  1  0
 37 39  1  0
 37 40  1  0
 40 41  2  0
 41 42  1  0
 41 43  1  0
 43 44  1  0
 43 45  2  0
 45 46  1  0
 45 47  1  0
 47 48  1  0
 47 49  2  0
 49 50  1  0
 36  4  1  0
 49 40  1  0
 13  8  2  0
 33 20  1  0
M  CHG  4   9  -1  12  -1  14  -1  20   1
M  END
>  <UniqueID>  (31) 
30

>  <SMILES>  (31) 
C=c1/c(=C\c2[n-]c(=O)[n-]c2[O-])cc(C(=O)[NH+]2CCNCC2)n1Cc1ccccc1

>  <Energy>  (31) 
134.98627012862974

>  <Genealogy>  (31) 
C=c1c(=Cc2[n-]c(=O)[n-]c2[O-])cc(C(=O)[NH+]2CCNCC2)n1Cc1ccccc1 (protonated)
C=c1/c(=C\c2[n-]c(=O)[n-]c2[O-])cc(C(=O)[NH+]2CCNCC2)n1Cc1ccccc1 (cis-trans isomerization)
C=c1/c(=C\c2[n-]c(=O)[n-]c2[O-])cc(C(=O)[NH+]2CCNCC2)n1Cc1ccccc1 (3D coordinates assigned)
C=c1/c(=C\c2[n-]c(=O)[n-]c2[O-])cc(C(=O)[NH+]2CCNCC2)n1Cc1ccccc1 (nonaromatic ring conformer: 134.98627012862974 kcal/mol)

>  <smiles>  (31) 
C=c1c(=Cc2[nH]c(=O)[nH]c2O)cc(C(=O)N2CCNCC2)n1Cc1ccccc1

>  <score_type>  (31) 
oracle

>  <origin>  (31) 
adg

>  <m_score__min__energy>  (31) 
-15.17

>  <m_primary>  (31) 
energy

$$$$
31:0
     RDKit          3D

 53 56  0  0  0  0  0  0  0  0999 V2000
   57.8220   28.0830   43.7120 C   0  0  0  0  0  0  0  0  0  0  0  0
   56.7740   29.1860   43.6000 C   0  0  0  0  0  0  0  0  0  0  0  0
   57.3790   30.5000   43.8780 N   0  0  0  0  0  0  0  0  0  0  0  0
   57.4220   31.4280   42.8720 C   0  0  0  0  0  0  0  0  0  0  0  0
   57.9600   32.6950   43.0900 C   0  0  0  0  0  0  0  0  0  0  0  0
   58.4490   33.0250   44.3500 C   0  0  0  0  0  0  0  0  0  0  0  0
   58.9740   34.2590   44.5750 N   0  0  0  0  0  0  0  0  0  0  0  0
   59.4620   34.6330   45.7890 C   0  0  0  0  0  0  0  0  0  0  0  0
   60.0130   36.0180   45.9430 C   0  0  0  0  0  0  0  0  0  0  0  0
   59.4120   33.7260   46.8680 C   0  0  0  0  0  0  0  0  0  0  0  0
   59.9140   34.0750   48.2170 C   0  0  0  0  0  0  0  0  0  0  0  0
   59.2890   34.9600   48.8640 O   0  0  0  0  0  0  0  0  0  0  0  0
   61.1010   33.4760   48.8020 N   0  0  0  0  0  0  0  0  0  0  0  0
   61.4040   33.9890   50.1570 C   0  0  0  0  0  0  0  0  0  0  0  0
   62.5510   33.1870   50.7830 C   0  0  0  0  0  0  0  0  0  0  0  0
   63.6480   33.0090   49.8270 N   0  0  0  0  0  0  0  0  0  0  0  0
   64.8630   32.3720   50.2630 C   0  0  0  0  0  0  0  0  0  0  0  0
   66.0980   33.0210   50.0910 C   0  0  0  0  0  0  0  0  0  0  0  0
   67.2800   32.4100   50.5170 C   0  0  0  0  0  0  0  0  0  0  0  0
   67.2410   31.1480   51.1150 C   0  0  0  0  0  0  0  0  0  0  0  0
   66.0180   30.4900   51.2830 C   0  0  0  0  0  0  0  0  0  0  0  0
   65.9850   28.8960   52.0200 Cl  0  0  0  0  0  0  0  0  0  0  0  0
   64.8300   31.0980   50.8570 C   0  0  0  0  0  0  0  0  0  0  0  0
   63.6530   30.4360   50.9900 F   0  0  0  0  0  0  0  0  0  0  0  0
   63.6240   33.7390   48.5560 C   0  0  0  0  0  0  0  0  0  0  0  0
   62.2530   33.5990   47.8630 C   0  0  0  0  0  0  0  0  0  0  0  0
   58.8870   32.4440   46.6550 C   0  0  0  0  0  0  0  0  0  0  0  0
   58.3950   32.0810   45.3910 C   0  0  0  0  0  0  0  0  0  0  0  0
   57.8450   30.8090   45.1330 C   0  0  0  0  0  0  0  0  0  0  0  0
   57.7760   29.9550   46.0630 O   0  0  0  0  0  0  0  0  0  0  0  0
   58.0214   27.8731   44.7732 H   0  0  0  0  0  0  0  0  0  0  0  0
   57.4490   27.1717   43.2218 H   0  0  0  0  0  0  0  0  0  0  0  0
   58.7512   28.4089   43.2218 H   0  0  0  0  0  0  0  0  0  0  0  0
   56.3566   29.1873   42.5823 H   0  0  0  0  0  0  0  0  0  0  0  0
   55.9778   28.9973   44.3351 H   0  0  0  0  0  0  0  0  0  0  0  0
   57.0266   31.1700   41.8785 H   0  0  0  0  0  0  0  0  0  0  0  0
   57.9977   33.4290   42.2716 H   0  0  0  0  0  0  0  0  0  0  0  0
   60.1084   36.2579   47.0123 H   0  0  0  0  0  0  0  0  0  0  0  0
   61.0021   36.0744   45.4649 H   0  0  0  0  0  0  0  0  0  0  0  0
   59.3330   36.7384   45.4649 H   0  0  0  0  0  0  0  0  0  0  0  0
   60.8850   32.4560   48.9080 H   0  0  0  0  0  0  0  0  0  0  0  0
   61.6961   35.0473   50.0879 H   0  0  0  0  0  0  0  0  0  0  0  0
   60.5087   33.8867   50.7878 H   0  0  0  0  0  0  0  0  0  0  0  0
   62.9266   33.7249   51.6659 H   0  0  0  0  0  0  0  0  0  0  0  0
   62.1707   32.1955   51.0699 H   0  0  0  0  0  0  0  0  0  0  0  0
   66.1339   34.0140   49.6191 H   0  0  0  0  0  0  0  0  0  0  0  0
   68.2432   32.9236   50.3813 H   0  0  0  0  0  0  0  0  0  0  0  0
   68.1726   30.6714   51.4540 H   0  0  0  0  0  0  0  0  0  0  0  0
   63.8223   34.8036   48.7490 H   0  0  0  0  0  0  0  0  0  0  0  0
   64.3952   33.3166   47.8950 H   0  0  0  0  0  0  0  0  0  0  0  0
   62.0921   34.4875   47.2347 H   0  0  0  0  0  0  0  0  0  0  0  0
   62.2873   32.6655   47.2821 H   0  0  0  0  0  0  0  0  0  0  0  0
   58.8603   31.7190   47.4818 H   0  0  0  0  0  0  0  0  0  0  0  0
  1  2  1  0
  2  3  1  0
  3  4  1  0
  4  5  2  0
  5  6  1  0
  6  7  2  0
  7  8  1  0
  8  9  1  0
  8 10  2  0
 10 11  1  0
 11 12  2  0
 11 13  1  0
 13 14  1  0
 14 15  1  0
 15 16  1  0
 16 17  1  0
 17 18  2  0
 18 19  1  0
 19 20  2  0
 20 21  1  0
 21 22  1  0
 21 23  2  0
 23 24  1  0
 16 25  1  0
 25 26  1  0
 10 27  1  0
 27 28  2  0
 28 29  1  0
 29 30  2  0
 29  3  1  0
 28  6  1  0
 26 13  1  0
 23 17  1  0
  1 31  1  0
  1 32  1  0
  1 33  1  0
  2 34  1  0
  2 35  1  0
  4 36  1  0
  5 37  1  0
  9 38  1  0
  9 39  1  0
  9 40  1  0
 13 41  1  0
 14 42  1  0
 14 43  1  0
 15 44  1  0
 15 45  1  0
 18 46  1  0
 19 47  1  0
 20 48  1  0
 25 49  1  0
 25 50  1  0
 26 51  1  0
 26 52  1  0
 27 53  1  0
M  CHG  1  13   1
M  END
>  <UniqueID>  (32) 
31

>  <SMILES>  (32) 
CCn1ccc2nc(C)c(C(=O)[NH+]3CCN(c4cccc(Cl)c4F)CC3)cc2c1=O

>  <Energy>  (32) 
82.2390883842602

>  <Genealogy>  (32) 
CCn1ccc2nc(C)c(C(=O)[NH+]3CCN(c4cccc(Cl)c4F)CC3)cc2c1=O (protonated)
CCn1ccc2nc(C)c(C(=O)[NH+]3CCN(c4cccc(Cl)c4F)CC3)cc2c1=O (3D coordinates assigned)
CCn1ccc2nc(C)c(C(=O)[NH+]3CCN(c4cccc(Cl)c4F)CC3)cc2c1=O (nonaromatic ring conformer: 82.2390883842602 kcal/mol)

>  <smiles>  (32) 
CCn1ccc2nc(C)c(C(=O)N3CCN(c4cccc(Cl)c4F)CC3)cc2c1=O

>  <score_type>  (32) 
oracle

>  <origin>  (32) 
adg

>  <m_score__min__energy>  (32) 
-7.1100000000000003

>  <m_primary>  (32) 
energy

$$$$
32:0
     RDKit          3D

 74 79  0  0  0  0  0  0  0  0999 V2000
   61.2550   33.5570   46.5870 C   0  0  0  0  0  0  0  0  0  0  0  0
   59.8680   33.4450   46.0140 C   0  0  0  0  0  0  0  0  0  0  0  0
   59.2970   34.5850   45.4240 C   0  0  0  0  0  0  0  0  0  0  0  0
   58.0040   34.5410   44.8990 C   0  0  0  0  0  0  0  0  0  0  0  0
   57.2680   33.3580   44.9500 C   0  0  0  0  0  0  0  0  0  0  0  0
   57.8290   32.2090   45.5130 C   0  0  0  0  0  0  0  0  0  0  0  0
   59.1340   32.2320   46.0310 C   0  0  0  0  0  0  0  0  0  0  0  0
   59.6740   30.9860   46.6130 C   0  0  0  0  0  0  0  0  0  0  0  0
   60.0240   30.8250   47.9370 C   0  0  0  0  0  0  0  0  0  0  0  0
   60.3500   29.4860   48.0430 C   0  0  0  0  0  0  0  0  0  0  0  0
   60.7660   28.7850   49.2650 C   0  0  0  0  0  0  0  0  0  0  0  0
   61.3080   29.3870   50.4000 C   0  0  0  0  0  0  0  0  0  0  0  0
   61.5180   28.3550   51.2920 C   0  0  0  0  0  0  0  0  0  0  0  0
   62.0210   28.3560   52.6010 C   0  0  0  0  0  0  0  0  0  0  0  0
   62.4670   29.6280   53.2860 C   0  0  0  0  0  0  0  0  0  0  0  0
   63.9460   29.7750   53.3210 N   0  0  0  0  0  0  0  0  0  0  0  0
   64.3730   31.1560   53.6540 C   0  0  0  0  0  0  0  0  0  0  0  0
   64.1930   32.1220   52.4710 C   0  0  0  0  0  0  0  0  0  0  0  0
   64.7760   31.6210   51.2020 N   0  0  0  0  0  0  0  0  0  0  0  0
   63.7950   31.6300   50.1050 C   0  0  0  0  0  0  0  0  0  0  0  0
   65.4410   30.3080   51.3300 C   0  0  0  0  0  0  0  0  0  0  0  0
   64.5560   29.2730   52.0530 C   0  0  0  0  0  0  0  0  0  0  0  0
   62.0970   27.1100   53.2650 C   0  0  0  0  0  0  0  0  0  0  0  0
   61.6790   25.9240   52.6240 C   0  0  0  0  0  0  0  0  0  0  0  0
   61.1760   25.9620   51.3130 C   0  0  0  0  0  0  0  0  0  0  0  0
   61.1090   27.1980   50.6750 C   0  0  0  0  0  0  0  0  0  0  0  0
   60.6480   27.4480   49.4380 N   0  0  0  0  0  0  0  0  0  0  0  0
   60.1840   28.8790   46.8520 N   0  0  0  0  0  0  0  0  0  0  0  0
   59.7820   29.7930   45.9810 N   0  0  0  0  0  0  0  0  0  0  0  0
   59.3810   29.4690   44.6080 C   0  0  0  0  0  0  0  0  0  0  0  0
   58.0180   28.7380   44.5750 C   0  0  2  0  0  0  0  0  0  0  0  0
   57.3930   28.7820   43.1590 C   0  0  0  0  0  0  0  0  0  0  0  0
   56.4660   29.9880   43.0040 C   0  0  0  0  0  0  0  0  0  0  0  0
   55.3980   30.0050   44.1220 C   0  0  0  0  0  0  0  0  0  0  0  0
   55.6940   29.1290   45.1990 O   0  0  0  0  0  0  0  0  0  0  0  0
   57.0300   29.3110   45.6220 C   0  0  0  0  0  0  0  0  0  0  0  0
   61.1993   33.5525   47.6856 H   0  0  0  0  0  0  0  0  0  0  0  0
   61.8620   32.7049   46.2471 H   0  0  0  0  0  0  0  0  0  0  0  0
   61.7175   34.4954   46.2471 H   0  0  0  0  0  0  0  0  0  0  0  0
   59.8737   35.5205   45.3752 H   0  0  0  0  0  0  0  0  0  0  0  0
   57.5652   35.4414   44.4443 H   0  0  0  0  0  0  0  0  0  0  0  0
   56.2450   33.3293   44.5467 H   0  0  0  0  0  0  0  0  0  0  0  0
   57.2435   31.2785   45.5508 H   0  0  0  0  0  0  0  0  0  0  0  0
   60.0401   31.5885   48.7287 H   0  0  0  0  0  0  0  0  0  0  0  0
   61.5222   30.4552   50.5518 H   0  0  0  0  0  0  0  0  0  0  0  0
   62.0411   30.4862   52.7455 H   0  0  0  0  0  0  0  0  0  0  0  0
   62.1136   29.5853   54.3268 H   0  0  0  0  0  0  0  0  0  0  0  0
   64.3000   29.1630   54.0940 H   0  0  0  0  0  0  0  0  0  0  0  0
   63.7719   31.5179   54.5012 H   0  0  0  0  0  0  0  0  0  0  0  0
   65.4435   31.1266   53.9055 H   0  0  0  0  0  0  0  0  0  0  0  0
   63.1164   32.2876   52.3178 H   0  0  0  0  0  0  0  0  0  0  0  0
   64.7262   33.0494   52.7274 H   0  0  0  0  0  0  0  0  0  0  0  0
   62.7776   31.6393   50.5230 H   0  0  0  0  0  0  0  0  0  0  0  0
   63.9453   32.5268   49.4860 H   0  0  0  0  0  0  0  0  0  0  0  0
   63.9289   30.7306   49.4860 H   0  0  0  0  0  0  0  0  0  0  0  0
   65.6765   29.9310   50.3238 H   0  0  0  0  0  0  0  0  0  0  0  0
   66.3526   30.4490   51.9292 H   0  0  0  0  0  0  0  0  0  0  0  0
   63.7443   28.9764   51.3724 H   0  0  0  0  0  0  0  0  0  0  0  0
   65.2092   28.4310   52.3257 H   0  0  0  0  0  0  0  0  0  0  0  0
   62.4863   27.0644   54.2928 H   0  0  0  0  0  0  0  0  0  0  0  0
   61.7476   24.9630   53.1549 H   0  0  0  0  0  0  0  0  0  0  0  0
   60.8452   25.0436   50.8059 H   0  0  0  0  0  0  0  0  0  0  0  0
   60.2700   26.7530   48.7560 H   0  0  0  0  0  0  0  0  0  0  0  0
   59.3012   30.4010   44.0292 H   0  0  0  0  0  0  0  0  0  0  0  0
   60.1412   28.8032   44.1736 H   0  0  0  0  0  0  0  0  0  0  0  0
   58.2113   27.6874   44.8373 H   0  0  0  0  0  0  0  0  0  0  0  0
   58.1983   28.8496   42.4127 H   0  0  0  0  0  0  0  0  0  0  0  0
   56.8028   27.8660   43.0089 H   0  0  0  0  0  0  0  0  0  0  0  0
   57.0620   30.9109   43.0601 H   0  0  0  0  0  0  0  0  0  0  0  0
   55.9576   29.9200   42.0309 H   0  0  0  0  0  0  0  0  0  0  0  0
   55.3226   31.0291   44.5164 H   0  0  0  0  0  0  0  0  0  0  0  0
   54.4541   29.6608   43.6741 H   0  0  0  0  0  0  0  0  0  0  0  0
   57.2245   30.3858   45.7519 H   0  0  0  0  0  0  0  0  0  0  0  0
   57.1754   28.7794   46.5740 H   0  0  0  0  0  0  0  0  0  0  0  0
  1  2  1  0
  2  3  2  0
  3  4  1  0
  4  5  2  0
  5  6  1  0
  6  7  2  0
  7  8  1  0
  8  9  2  0
  9 10  1  0
 10 11  1  0
 11 12  2  0
 12 13  1  0
 13 14  2  0
 14 15  1  0
 15 16  1  0
 16 17  1  0
 17 18  1  0
 18 19  1  0
 19 20  1  0
 19 21  1  0
 21 22  1  0
 14 23  1  0
 23 24  2  0
 24 25  1  0
 25 26  2  0
 26 27  1  0
 10 28  2  0
 28 29  1  0
 29 30  1  0
 30 31  1  0
 31 32  1  0
 32 33  1  0
 33 34  1  0
 34 35  1  0
 35 36  1  0
  7  2  1  0
 29  8  1  0
 36 31  1  0
 27 11  1  0
 26 13  1  0
 22 16  1  0
  1 37  1  0
  1 38  1  0
  1 39  1  0
  3 40  1  0
  4 41  1  0
  5 42  1  0
  6 43  1  0
  9 44  1  0
 12 45  1  0
 15 46  1  0
 15 47  1  0
 16 48  1  0
 17 49  1  0
 17 50  1  0
 18 51  1  0
 18 52  1  0
 20 53  1  0
 20 54  1  0
 20 55  1  0
 21 56  1  0
 21 57  1  0
 22 58  1  0
 22 59  1  0
 23 60  1  0
 24 61  1  0
 25 62  1  0
 27 63  1  0
 30 64  1  0
 30 65  1  0
 31 66  1  1
 32 67  1  0
 32 68  1  0
 33 69  1  0
 33 70  1  0
 34 71  1  0
 34 72  1  0
 36 73  1  0
 36 74  1  0
M  CHG  1  16   1
M  END
>  <UniqueID>  (33) 
32

>  <SMILES>  (33) 
Cc1ccccc1-c1cc(-c2cc3c(C[NH+]4CCN(C)CC4)cccc3[nH]2)nn1C[C@@H]1CCCOC1

>  <Energy>  (33) 
169.67217364588618

>  <Genealogy>  (33) 
Cc1ccccc1-c1cc(-c2cc3c(C[NH+]4CCN(C)CC4)cccc3[nH]2)nn1CC1CCCOC1 (protonated)
Cc1ccccc1-c1cc(-c2cc3c(C[NH+]4CCN(C)CC4)cccc3[nH]2)nn1C[C@@H]1CCCOC1 (chirality)
Cc1ccccc1-c1cc(-c2cc3c(C[NH+]4CCN(C)CC4)cccc3[nH]2)nn1C[C@@H]1CCCOC1 (3D coordinates assigned)
Cc1ccccc1-c1cc(-c2cc3c(C[NH+]4CCN(C)CC4)cccc3[nH]2)nn1C[C@@H]1CCCOC1 (nonaromatic ring conformer: 169.67217364588618 kcal/mol)

>  <smiles>  (33) 
Cc1ccccc1-c1cc(-c2cc3c(CN4CCN(C)CC4)cccc3[nH]2)nn1CC1CCCOC1

>  <score_type>  (33) 
oracle

>  <origin>  (33) 
adg

>  <m_score__min__energy>  (33) 
-8.2100000000000009

>  <m_primary>  (33) 
energy

$$$$
33:0
     RDKit          3D

 61 63  0  0  0  0  0  0  0  0999 V2000
   55.1750   21.3410   45.6380 C   0  0  0  0  0  0  0  0  0  0  0  0
   56.1360   20.3650   44.9390 C   0  0  0  0  0  0  0  0  0  0  0  0
   57.2940   20.0340   45.9010 C   0  0  0  0  0  0  0  0  0  0  0  0
   55.3610   19.0890   44.5620 C   0  0  0  0  0  0  0  0  0  0  0  0
   56.6280   21.0240   43.7630 O   0  0  0  0  0  0  0  0  0  0  0  0
   56.4380   22.3730   43.4190 C   0  0  0  0  0  0  0  0  0  0  0  0
   55.5640   22.6970   42.5700 O   0  0  0  0  0  0  0  0  0  0  0  0
   57.2400   23.3910   44.0520 N   0  0  0  0  0  0  0  0  0  0  0  0
   57.0610   24.8140   43.7330 C   0  0  0  0  0  0  0  0  0  0  0  0
   57.0180   25.6340   45.0230 C   0  0  0  0  0  0  0  0  0  0  0  0
   58.1400   25.2680   45.8980 N   0  0  0  0  0  0  0  0  0  0  0  0
   58.7490   26.2740   46.7290 C   0  0  0  0  0  0  0  0  0  0  0  0
   57.9730   27.3150   47.2630 C   0  0  0  0  0  0  0  0  0  0  0  0
   58.5610   28.2940   48.0700 C   0  0  0  0  0  0  0  0  0  0  0  0
   59.9350   28.2540   48.3460 C   0  0  0  0  0  0  0  0  0  0  0  0
   60.5620   29.2810   49.2420 C   0  0  0  0  0  0  0  0  0  0  0  0
   60.5120   30.5850   48.5890 N   0  0  0  0  0  0  0  0  0  0  0  0
   60.5950   30.7980   47.1750 C   0  0  0  0  0  0  0  0  0  0  0  0
   61.6730   30.5220   46.5850 O   0  0  0  0  0  0  0  0  0  0  0  0
   59.4480   31.2820   46.3820 C   0  0  0  0  0  0  0  0  0  0  0  0
   59.1280   32.6480   46.3360 C   0  0  0  0  0  0  0  0  0  0  0  0
   58.0370   33.0890   45.5850 C   0  0  0  0  0  0  0  0  0  0  0  0
   57.2650   32.1750   44.8640 C   0  0  0  0  0  0  0  0  0  0  0  0
   57.5910   30.8120   44.8790 C   0  0  0  0  0  0  0  0  0  0  0  0
   56.6070   29.6590   43.9820 S   0  0  0  0  0  0  0  0  0  0  0  0
   55.1280   29.3830   44.8300 N   0  0  0  0  0  0  0  0  0  0  0  0
   56.3070   30.2040   42.6150 O   0  0  0  0  0  0  0  0  0  0  0  0
   57.3490   28.3610   43.8310 O   0  0  0  0  0  0  0  0  0  0  0  0
   58.6830   30.3690   45.6370 C   0  0  0  0  0  0  0  0  0  0  0  0
   60.7110   27.2050   47.8250 C   0  0  0  0  0  0  0  0  0  0  0  0
   60.1240   26.2280   47.0180 C   0  0  0  0  0  0  0  0  0  0  0  0
   58.3430   23.8450   46.1970 C   0  0  0  0  0  0  0  0  0  0  0  0
   58.3800   23.0310   44.9030 C   0  0  0  0  0  0  0  0  0  0  0  0
   55.2766   21.2378   46.7284 H   0  0  0  0  0  0  0  0  0  0  0  0
   55.4205   22.3718   45.3428 H   0  0  0  0  0  0  0  0  0  0  0  0
   54.1405   21.1115   45.3428 H   0  0  0  0  0  0  0  0  0  0  0  0
   56.9471   20.1331   46.9402 H   0  0  0  0  0  0  0  0  0  0  0  0
   57.6338   19.0028   45.7247 H   0  0  0  0  0  0  0  0  0  0  0  0
   58.1275   20.7299   45.7247 H   0  0  0  0  0  0  0  0  0  0  0  0
   55.0446   18.5681   45.4778 H   0  0  0  0  0  0  0  0  0  0  0  0
   54.4747   19.3599   43.9695 H   0  0  0  0  0  0  0  0  0  0  0  0
   56.0100   18.4274   43.9695 H   0  0  0  0  0  0  0  0  0  0  0  0
   57.9006   25.1569   43.1105 H   0  0  0  0  0  0  0  0  0  0  0  0
   56.1154   24.9471   43.1870 H   0  0  0  0  0  0  0  0  0  0  0  0
   57.0850   26.7037   44.7753 H   0  0  0  0  0  0  0  0  0  0  0  0
   56.0734   25.4268   45.5471 H   0  0  0  0  0  0  0  0  0  0  0  0
   56.8957   27.3608   47.0452 H   0  0  0  0  0  0  0  0  0  0  0  0
   57.9420   29.1001   48.4907 H   0  0  0  0  0  0  0  0  0  0  0  0
   60.0108   29.3248   50.1929 H   0  0  0  0  0  0  0  0  0  0  0  0
   61.6090   29.0077   49.4400 H   0  0  0  0  0  0  0  0  0  0  0  0
   59.7389   33.3733   46.8935 H   0  0  0  0  0  0  0  0  0  0  0  0
   57.7845   34.1594   45.5609 H   0  0  0  0  0  0  0  0  0  0  0  0
   56.3992   32.5258   44.2831 H   0  0  0  0  0  0  0  0  0  0  0  0
   55.3440   28.7280   45.6140 H   0  0  0  0  0  0  0  0  0  0  0  0
   58.9428   29.3002   45.6488 H   0  0  0  0  0  0  0  0  0  0  0  0
   61.7857   27.1530   48.0538 H   0  0  0  0  0  0  0  0  0  0  0  0
   60.7419   25.4168   46.6056 H   0  0  0  0  0  0  0  0  0  0  0  0
   59.2956   23.7190   46.7324 H   0  0  0  0  0  0  0  0  0  0  0  0
   57.5102   23.4880   46.8207 H   0  0  0  0  0  0  0  0  0  0  0  0
   59.3166   23.2423   44.3662 H   0  0  0  0  0  0  0  0  0  0  0  0
   58.3244   21.9600   45.1479 H   0  0  0  0  0  0  0  0  0  0  0  0
  1  2  1  0
  2  3  1  0
  2  4  1  0
  2  5  1  0
  5  6  1  0
  6  7  2  0
  6  8  1  0
  8  9  1  0
  9 10  1  0
 10 11  1  0
 11 12  1  0
 12 13  2  0
 13 14  1  0
 14 15  2  0
 15 16  1  0
 16 17  1  0
 17 18  1  0
 18 19  2  0
 18 20  1  0
 20 21  2  0
 21 22  1  0
 22 23  2  0
 23 24  1  0
 24 25  1  0
 25 26  1  0
 25 27  2  0
 25 28  2  0
 24 29  2  0
 15 30  1  0
 30 31  2  0
 11 32  1  0
 32 33  1  0
 33  8  1  0
 31 12  1  0
 29 20  1  0
  1 34  1  0
  1 35  1  0
  1 36  1  0
  3 37  1  0
  3 38  1  0
  3 39  1  0
  4 40  1  0
  4 41  1  0
  4 42  1  0
  9 43  1  0
  9 44  1  0
 10 45  1  0
 10 46  1  0
 13 47  1  0
 14 48  1  0
 16 49  1  0
 16 50  1  0
 21 51  1  0
 22 52  1  0
 23 53  1  0
 26 54  1  0
 29 55  1  0
 30 56  1  0
 31 57  1  0
 32 58  1  0
 32 59  1  0
 33 60  1  0
 33 61  1  0
M  CHG  2  17  -1  26  -1
M  END
>  <UniqueID>  (34) 
33

>  <SMILES>  (34) 
CC(C)(C)OC(=O)N1CCN(c2ccc(C[N-]C(=O)c3cccc(S([NH-])(=O)=O)c3)cc2)CC1

>  <Energy>  (34) 
63.868375908097114

>  <Genealogy>  (34) 
CC(C)(C)OC(=O)N1CCN(c2ccc(C[N-]C(=O)c3cccc(S([NH-])(=O)=O)c3)cc2)CC1 (protonated)
CC(C)(C)OC(=O)N1CCN(c2ccc(C[N-]C(=O)c3cccc(S([NH-])(=O)=O)c3)cc2)CC1 (3D coordinates assigned)
CC(C)(C)OC(=O)N1CCN(c2ccc(C[N-]C(=O)c3cccc(S([NH-])(=O)=O)c3)cc2)CC1 (nonaromatic ring conformer: 63.868375908097114 kcal/mol)

>  <smiles>  (34) 
CC(C)(C)OC(=O)N1CCN(c2ccc(CNC(=O)c3cccc(S(N)(=O)=O)c3)cc2)CC1

>  <score_type>  (34) 
oracle

>  <origin>  (34) 
adg

>  <m_score__min__energy>  (34) 
-13.859999999999999

>  <m_primary>  (34) 
energy

$$$$
34:0
     RDKit          3D

 52 55  0  0  0  0  0  0  0  0999 V2000
   55.7350   23.3740   44.6250 C   0  0  0  0  0  0  0  0  0  0  0  0
   56.5650   24.4360   45.1970 N   0  0  0  0  0  0  0  0  0  0  0  0
   58.0140   24.4210   44.9550 C   0  0  0  0  0  0  0  0  0  0  0  0
   58.7530   25.3550   45.9140 C   0  0  0  0  0  0  0  0  0  0  0  0
   58.1090   26.6810   45.8990 N   0  0  0  0  0  0  0  0  0  0  0  0
   58.9520   27.7390   46.5000 C   0  0  0  0  0  0  0  0  0  0  0  0
   58.7900   29.0870   45.8400 C   0  0  0  0  0  0  0  0  0  0  0  0
   58.1480   29.2140   44.6030 C   0  0  0  0  0  0  0  0  0  0  0  0
   57.9760   30.4810   44.0480 C   0  0  0  0  0  0  0  0  0  0  0  0
   58.4370   31.6200   44.7260 C   0  0  0  0  0  0  0  0  0  0  0  0
   59.1040   31.4530   45.9600 C   0  0  0  0  0  0  0  0  0  0  0  0
   59.2500   30.1990   46.4710 N   0  0  0  0  0  0  0  0  0  0  0  0
   59.6030   32.5740   46.7260 N   0  0  0  0  0  0  0  0  0  0  0  0
   61.0120   32.6110   47.0210 C   0  0  0  0  0  0  0  0  0  0  0  0
   61.6240   33.8250   47.3660 C   0  0  0  0  0  0  0  0  0  0  0  0
   62.9810   33.8460   47.6880 C   0  0  0  0  0  0  0  0  0  0  0  0
   63.7170   32.6630   47.6620 C   0  0  0  0  0  0  0  0  0  0  0  0
   63.0800   31.4690   47.3170 C   0  0  0  0  0  0  0  0  0  0  0  0
   61.7540   31.4630   47.0090 N   0  0  0  0  0  0  0  0  0  0  0  0
   58.7430   33.6470   47.2660 C   0  0  0  0  0  0  0  0  0  0  0  0
   58.1920   34.5870   46.1810 C   0  0  0  0  0  0  0  0  0  0  0  0
   57.3620   33.8640   45.1100 C   0  0  0  0  0  0  0  0  0  0  0  0
   58.1840   32.9890   44.1550 C   0  0  0  0  0  0  0  0  0  0  0  0
   56.7680   26.6180   46.5080 C   0  0  0  0  0  0  0  0  0  0  0  0
   55.9360   25.5670   45.8310 C   0  0  0  0  0  0  0  0  0  0  0  0
   54.6780   25.6510   45.8840 O   0  0  0  0  0  0  0  0  0  0  0  0
   55.2777   22.7888   45.4364 H   0  0  0  0  0  0  0  0  0  0  0  0
   54.9442   23.8207   44.0044 H   0  0  0  0  0  0  0  0  0  0  0  0
   56.3596   22.7146   44.0044 H   0  0  0  0  0  0  0  0  0  0  0  0
   58.3889   23.3963   45.0945 H   0  0  0  0  0  0  0  0  0  0  0  0
   58.1954   24.7684   43.9272 H   0  0  0  0  0  0  0  0  0  0  0  0
   58.7155   24.9402   46.9321 H   0  0  0  0  0  0  0  0  0  0  0  0
   59.8019   25.4522   45.5972 H   0  0  0  0  0  0  0  0  0  0  0  0
   58.6829   27.8370   47.5621 H   0  0  0  0  0  0  0  0  0  0  0  0
   60.0000   27.4350   46.3609 H   0  0  0  0  0  0  0  0  0  0  0  0
   57.7824   28.3219   44.0734 H   0  0  0  0  0  0  0  0  0  0  0  0
   57.4765   30.5886   43.0739 H   0  0  0  0  0  0  0  0  0  0  0  0
   61.0371   34.7552   47.3825 H   0  0  0  0  0  0  0  0  0  0  0  0
   63.4686   34.7933   47.9616 H   0  0  0  0  0  0  0  0  0  0  0  0
   64.7885   32.6695   47.9106 H   0  0  0  0  0  0  0  0  0  0  0  0
   63.6520   30.5297   47.2941 H   0  0  0  0  0  0  0  0  0  0  0  0
   61.3010   30.5490   46.7920 H   0  0  0  0  0  0  0  0  0  0  0  0
   57.8944   33.1838   47.7908 H   0  0  0  0  0  0  0  0  0  0  0  0
   59.3643   34.2552   47.9399 H   0  0  0  0  0  0  0  0  0  0  0  0
   57.5548   35.3420   46.6648 H   0  0  0  0  0  0  0  0  0  0  0  0
   59.0572   35.0367   45.6718 H   0  0  0  0  0  0  0  0  0  0  0  0
   56.6279   33.2221   45.6189 H   0  0  0  0  0  0  0  0  0  0  0  0
   56.8938   34.6463   44.4945 H   0  0  0  0  0  0  0  0  0  0  0  0
   57.6348   32.8833   43.2078 H   0  0  0  0  0  0  0  0  0  0  0  0
   59.1568   33.4776   43.9969 H   0  0  0  0  0  0  0  0  0  0  0  0
   56.8657   26.3713   47.5755 H   0  0  0  0  0  0  0  0  0  0  0  0
   56.2756   27.5945   46.3900 H   0  0  0  0  0  0  0  0  0  0  0  0
  1  2  1  0
  2  3  1  0
  3  4  1  0
  4  5  1  0
  5  6  1  0
  6  7  1  0
  7  8  2  0
  8  9  1  0
  9 10  2  0
 10 11  1  0
 11 12  2  0
 11 13  1  0
 13 14  1  0
 14 15  2  0
 15 16  1  0
 16 17  2  0
 17 18  1  0
 18 19  2  0
 13 20  1  0
 20 21  1  0
 21 22  1  0
 22 23  1  0
  5 24  1  0
 24 25  1  0
 25 26  2  0
 25  2  1  0
 12  7  1  0
 19 14  1  0
 23 10  1  0
  1 27  1  0
  1 28  1  0
  1 29  1  0
  3 30  1  0
  3 31  1  0
  4 32  1  0
  4 33  1  0
  6 34  1  0
  6 35  1  0
  8 36  1  0
  9 37  1  0
 15 38  1  0
 16 39  1  0
 17 40  1  0
 18 41  1  0
 19 42  1  0
 20 43  1  0
 20 44  1  0
 21 45  1  0
 21 46  1  0
 22 47  1  0
 22 48  1  0
 23 49  1  0
 23 50  1  0
 24 51  1  0
 24 52  1  0
M  CHG  1  19   1
M  END
>  <UniqueID>  (35) 
34

>  <SMILES>  (35) 
CN1CCN(Cc2ccc3c(n2)N(c2cccc[nH+]2)CCCC3)CC1=O

>  <Energy>  (35) 
67.19238038527904

>  <Genealogy>  (35) 
CN1CCN(Cc2ccc3c(n2)N(c2cccc[nH+]2)CCCC3)CC1=O (protonated)
CN1CCN(Cc2ccc3c(n2)N(c2cccc[nH+]2)CCCC3)CC1=O (3D coordinates assigned)
CN1CCN(Cc2ccc3c(n2)N(c2cccc[nH+]2)CCCC3)CC1=O (nonaromatic ring conformer: 67.19238038527904 kcal/mol)

>  <smiles>  (35) 
CN1CCN(Cc2ccc3c(n2)N(c2ccccn2)CCCC3)CC1=O

>  <score_type>  (35) 
oracle

>  <origin>  (35) 
adg

>  <m_score__min__energy>  (35) 
-4.7699999999999996

>  <m_primary>  (35) 
energy

$$$$
35:0
     RDKit          3D

 48 51  0  0  0  0  0  0  0  0999 V2000
   60.8780   29.7800   49.0330 C   0  0  0  0  0  0  0  0  0  0  0  0
   60.0290   30.2390   47.8570 C   0  0  0  0  0  0  0  0  0  0  0  0
   60.3030   31.4990   47.2690 C   0  0  0  0  0  0  0  0  0  0  0  0
   61.4680   32.3180   47.6890 C   0  0  0  0  0  0  0  0  0  0  0  0
   62.7290   32.1060   47.1080 C   0  0  0  0  0  0  0  0  0  0  0  0
   63.8260   32.8760   47.5080 C   0  0  0  0  0  0  0  0  0  0  0  0
   63.6710   33.8590   48.4900 C   0  0  0  0  0  0  0  0  0  0  0  0
   62.4200   34.0720   49.0750 C   0  0  0  0  0  0  0  0  0  0  0  0
   61.3210   33.3040   48.6790 C   0  0  0  0  0  0  0  0  0  0  0  0
   59.4740   31.9800   46.2500 C   0  0  0  0  0  0  0  0  0  0  0  0
   59.7160   33.1020   45.7220 O   0  0  0  0  0  0  0  0  0  0  0  0
   58.3850   31.2190   45.8130 C   0  0  0  0  0  0  0  0  0  0  0  0
   57.5220   31.7150   44.8140 C   0  0  0  0  0  0  0  0  0  0  0  0
   56.4360   30.9620   44.3770 C   0  0  0  0  0  0  0  0  0  0  0  0
   56.1890   29.7110   44.9290 C   0  0  0  0  0  0  0  0  0  0  0  0
   55.0970   28.9670   44.4990 O   0  0  0  0  0  0  0  0  0  0  0  0
   57.0340   29.1990   45.9160 C   0  0  0  0  0  0  0  0  0  0  0  0
   58.1590   29.9350   46.3760 C   0  0  0  0  0  0  0  0  0  0  0  0
   59.0180   29.4390   47.3470 N   0  0  0  0  0  0  0  0  0  0  0  0
   58.8610   28.0460   47.8340 C   0  0  0  0  0  0  0  0  0  0  0  0
   59.5800   27.0730   46.9310 C   0  0  0  0  0  0  0  0  0  0  0  0
   60.6870   26.5950   47.2930 O   0  0  0  0  0  0  0  0  0  0  0  0
   59.0200   26.6420   45.6840 N   0  0  0  0  0  0  0  0  0  0  0  0
   58.2020   25.4810   45.4930 C   0  0  0  0  0  0  0  0  0  0  0  0
   56.8340   25.6510   45.2410 C   0  0  0  0  0  0  0  0  0  0  0  0
   56.0080   24.5400   45.0510 C   0  0  0  0  0  0  0  0  0  0  0  0
   56.5400   23.2500   45.1280 C   0  0  0  0  0  0  0  0  0  0  0  0
   57.8970   23.0700   45.4100 C   0  0  0  0  0  0  0  0  0  0  0  0
   58.7320   24.1800   45.6080 C   0  0  0  0  0  0  0  0  0  0  0  0
   60.0730   23.9940   45.9420 O   0  0  0  0  0  0  0  0  0  0  0  0
   60.3774   30.0506   49.9744 H   0  0  0  0  0  0  0  0  0  0  0  0
   61.0081   28.6887   48.9875 H   0  0  0  0  0  0  0  0  0  0  0  0
   61.8624   30.2688   48.9875 H   0  0  0  0  0  0  0  0  0  0  0  0
   62.8542   31.3322   46.3362 H   0  0  0  0  0  0  0  0  0  0  0  0
   64.8117   32.7080   47.0495 H   0  0  0  0  0  0  0  0  0  0  0  0
   64.5343   34.4650   48.8023 H   0  0  0  0  0  0  0  0  0  0  0  0
   62.2998   34.8451   49.8482 H   0  0  0  0  0  0  0  0  0  0  0  0
   60.3383   33.4722   49.1439 H   0  0  0  0  0  0  0  0  0  0  0  0
   57.7089   32.7065   44.3759 H   0  0  0  0  0  0  0  0  0  0  0  0
   55.7726   31.3577   43.5938 H   0  0  0  0  0  0  0  0  0  0  0  0
   56.8248   28.2080   46.3451 H   0  0  0  0  0  0  0  0  0  0  0  0
   59.2783   27.9706   48.8490 H   0  0  0  0  0  0  0  0  0  0  0  0
   57.7901   27.7947   47.8380 H   0  0  0  0  0  0  0  0  0  0  0  0
   56.4083   26.6641   45.1925 H   0  0  0  0  0  0  0  0  0  0  0  0
   54.9376   24.6810   44.8405 H   0  0  0  0  0  0  0  0  0  0  0  0
   55.8910   22.3766   44.9667 H   0  0  0  0  0  0  0  0  0  0  0  0
   58.3122   22.0536   45.4770 H   0  0  0  0  0  0  0  0  0  0  0  0
   60.6870   24.7770   46.1300 H   0  0  0  0  0  0  0  0  0  0  0  0
  1  2  1  0
  2  3  2  0
  3  4  1  0
  4  5  2  0
  5  6  1  0
  6  7  2  0
  7  8  1  0
  8  9  2  0
  3 10  1  0
 10 11  2  0
 10 12  1  0
 12 13  2  0
 13 14  1  0
 14 15  2  0
 15 16  1  0
 15 17  1  0
 17 18  2  0
 18 19  1  0
 19 20  1  0
 20 21  1  0
 21 22  2  0
 21 23  1  0
 23 24  1  0
 24 25  2  0
 25 26  1  0
 26 27  2  0
 27 28  1  0
 28 29  2  0
 29 30  1  0
 19  2  1  0
 29 24  1  0
  9  4  1  0
 18 12  1  0
  1 31  1  0
  1 32  1  0
  1 33  1  0
  5 34  1  0
  6 35  1  0
  7 36  1  0
  8 37  1  0
  9 38  1  0
 13 39  1  0
 14 40  1  0
 17 41  1  0
 20 42  1  0
 20 43  1  0
 25 44  1  0
 26 45  1  0
 27 46  1  0
 28 47  1  0
 30 48  1  0
M  CHG  2  16  -1  23  -1
M  END
>  <UniqueID>  (36) 
35

>  <SMILES>  (36) 
Cc1c(-c2ccccc2)c(=O)c2ccc([O-])cc2n1CC(=O)[N-]c1ccccc1O

>  <Energy>  (36) 
82.33415776920594

>  <Genealogy>  (36) 
Cc1c(-c2ccccc2)c(=O)c2ccc([O-])cc2n1CC(=O)[N-]c1ccccc1O (protonated)
Cc1c(-c2ccccc2)c(=O)c2ccc([O-])cc2n1CC(=O)[N-]c1ccccc1O (3D coordinates assigned)
Cc1c(-c2ccccc2)c(=O)c2ccc([O-])cc2n1CC(=O)[N-]c1ccccc1O (optimized conformer: 82.33415776920594 kcal/mol)

>  <smiles>  (36) 
Cc1c(-c2ccccc2)c(=O)c2ccc(O)cc2n1CC(=O)Nc1ccccc1O

>  <score_type>  (36) 
oracle

>  <origin>  (36) 
adg

>  <m_score__min__energy>  (36) 
-13.74

>  <m_primary>  (36) 
energy

$$$$
36:0
     RDKit          3D

 55 58  0  0  0  0  0  0  0  0999 V2000
   55.5580   26.4160   46.0070 O   0  0  0  0  0  0  0  0  0  0  0  0
   56.7260   26.8130   45.7460 C   0  0  0  0  0  0  0  0  0  0  0  0
   57.8690   25.8340   45.7990 C   0  0  0  0  0  0  0  0  0  0  0  0
   57.3740   24.4250   45.6500 C   0  0  0  0  0  0  0  0  0  0  0  0
   56.7870   23.9960   44.4540 C   0  0  0  0  0  0  0  0  0  0  0  0
   56.3240   22.6810   44.3740 C   0  0  0  0  0  0  0  0  0  0  0  0
   55.7990   22.2570   43.3100 O   0  0  0  0  0  0  0  0  0  0  0  0
   56.4420   21.8550   45.4450 N   0  0  0  0  0  0  0  0  0  0  0  0
   57.0050   22.2890   46.6030 C   0  0  0  0  0  0  0  0  0  0  0  0
   57.1010   21.5100   47.5860 O   0  0  0  0  0  0  0  0  0  0  0  0
   57.4630   23.5650   46.7000 N   0  0  0  0  0  0  0  0  0  0  0  0
   56.9560   28.1980   45.4300 N   0  0  0  0  0  0  0  0  0  0  0  0
   58.0240   28.9470   46.1020 C   0  0  0  0  0  0  0  0  0  0  0  0
   58.6740   29.9140   45.1160 C   0  0  0  0  0  0  0  0  0  0  0  0
   57.6430   30.6940   44.4210 N   0  0  0  0  0  0  0  0  0  0  0  0
   57.9390   32.0370   44.0020 C   0  0  0  0  0  0  0  0  0  0  0  0
   57.8160   32.3480   42.7860 O   0  0  0  0  0  0  0  0  0  0  0  0
   58.3810   33.0610   44.9770 C   0  0  0  0  0  0  0  0  0  0  0  0
   58.8770   34.3000   44.5380 C   0  0  0  0  0  0  0  0  0  0  0  0
   59.3120   35.2530   45.4620 C   0  0  0  0  0  0  0  0  0  0  0  0
   59.2480   34.9850   46.8300 C   0  0  0  0  0  0  0  0  0  0  0  0
   58.7280   33.7650   47.2850 C   0  0  0  0  0  0  0  0  0  0  0  0
   58.6500   33.4680   48.6810 N   0  0  0  0  0  0  0  0  0  0  0  0
   60.0120   32.9790   49.6400 S   0  0  0  0  0  0  0  0  0  0  0  0
   60.2150   33.9750   50.7480 O   0  0  0  0  0  0  0  0  0  0  0  0
   59.7180   31.6380   50.2540 O   0  0  0  0  0  0  0  0  0  0  0  0
   61.4890   32.8630   48.6850 C   0  0  0  0  0  0  0  0  0  0  0  0
   62.3890   33.9390   48.6540 C   0  0  0  0  0  0  0  0  0  0  0  0
   63.5470   33.8640   47.8740 C   0  0  0  0  0  0  0  0  0  0  0  0
   63.8110   32.7160   47.1220 C   0  0  0  0  0  0  0  0  0  0  0  0
   62.9170   31.6420   47.1490 C   0  0  0  0  0  0  0  0  0  0  0  0
   61.7580   31.7140   47.9280 C   0  0  0  0  0  0  0  0  0  0  0  0
   58.3290   32.7940   46.3570 C   0  0  0  0  0  0  0  0  0  0  0  0
   56.5550   29.9610   43.7650 C   0  0  0  0  0  0  0  0  0  0  0  0
   55.9150   28.9680   44.7410 C   0  0  0  0  0  0  0  0  0  0  0  0
   58.5724   26.0569   44.9832 H   0  0  0  0  0  0  0  0  0  0  0  0
   58.3691   25.9298   46.7740 H   0  0  0  0  0  0  0  0  0  0  0  0
   56.6926   24.6789   43.5969 H   0  0  0  0  0  0  0  0  0  0  0  0
   57.5992   29.5138   46.9436 H   0  0  0  0  0  0  0  0  0  0  0  0
   58.7826   28.2434   46.4755 H   0  0  0  0  0  0  0  0  0  0  0  0
   59.3407   30.5973   45.6624 H   0  0  0  0  0  0  0  0  0  0  0  0
   59.2513   29.3401   44.3762 H   0  0  0  0  0  0  0  0  0  0  0  0
   58.9230   34.5207   43.4613 H   0  0  0  0  0  0  0  0  0  0  0  0
   59.7063   36.2178   45.1102 H   0  0  0  0  0  0  0  0  0  0  0  0
   59.6063   35.7326   47.5530 H   0  0  0  0  0  0  0  0  0  0  0  0
   62.1830   34.8438   49.2448 H   0  0  0  0  0  0  0  0  0  0  0  0
   64.2507   34.7092   47.8522 H   0  0  0  0  0  0  0  0  0  0  0  0
   64.7224   32.6577   46.5089 H   0  0  0  0  0  0  0  0  0  0  0  0
   63.1254   30.7389   46.5566 H   0  0  0  0  0  0  0  0  0  0  0  0
   61.0559   30.8674   47.9469 H   0  0  0  0  0  0  0  0  0  0  0  0
   57.9723   31.8153   46.7104 H   0  0  0  0  0  0  0  0  0  0  0  0
   55.7919   30.6753   43.4223 H   0  0  0  0  0  0  0  0  0  0  0  0
   56.9648   29.4055   42.9085 H   0  0  0  0  0  0  0  0  0  0  0  0
   55.3191   29.5196   45.4830 H   0  0  0  0  0  0  0  0  0  0  0  0
   55.2677   28.2777   44.1802 H   0  0  0  0  0  0  0  0  0  0  0  0
  1  2  2  0
  2  3  1  0
  3  4  1  0
  4  5  2  0
  5  6  1  0
  6  7  2  0
  6  8  1  0
  8  9  1  0
  9 10  2  0
  9 11  1  0
  2 12  1  0
 12 13  1  0
 13 14  1  0
 14 15  1  0
 15 16  1  0
 16 17  2  0
 16 18  1  0
 18 19  2  0
 19 20  1  0
 20 21  2  0
 21 22  1  0
 22 23  1  0
 23 24  1  0
 24 25  2  0
 24 26  2  0
 24 27  1  0
 27 28  2  0
 28 29  1  0
 29 30  2  0
 30 31  1  0
 31 32  2  0
 22 33  2  0
 15 34  1  0
 34 35  1  0
 11  4  1  0
 35 12  1  0
 33 18  1  0
 32 27  1  0
  3 36  1  0
  3 37  1  0
  5 38  1  0
 13 39  1  0
 13 40  1  0
 14 41  1  0
 14 42  1  0
 19 43  1  0
 20 44  1  0
 21 45  1  0
 28 46  1  0
 29 47  1  0
 30 48  1  0
 31 49  1  0
 32 50  1  0
 33 51  1  0
 34 52  1  0
 34 53  1  0
 35 54  1  0
 35 55  1  0
M  CHG  3   8  -1  11  -1  23  -1
M  END
>  <UniqueID>  (37) 
36

>  <SMILES>  (37) 
O=C(Cc1cc(=O)[n-]c(=O)[n-]1)N1CCN(C(=O)c2cccc([N-]S(=O)(=O)c3ccccc3)c2)CC1

>  <Energy>  (37) 
73.13838436357564

>  <Genealogy>  (37) 
O=C(Cc1cc(=O)[n-]c(=O)[n-]1)N1CCN(C(=O)c2cccc([N-]S(=O)(=O)c3ccccc3)c2)CC1 (protonated)
O=C(Cc1cc(=O)[n-]c(=O)[n-]1)N1CCN(C(=O)c2cccc([N-]S(=O)(=O)c3ccccc3)c2)CC1 (3D coordinates assigned)
O=C(Cc1cc(=O)[n-]c(=O)[n-]1)N1CCN(C(=O)c2cccc([N-]S(=O)(=O)c3ccccc3)c2)CC1 (nonaromatic ring conformer: 73.13838436357564 kcal/mol)

>  <smiles>  (37) 
O=C(Cc1cc(=O)[nH]c(=O)[nH]1)N1CCN(C(=O)c2cccc(NS(=O)(=O)c3ccccc3)c2)CC1

>  <score_type>  (37) 
oracle

>  <origin>  (37) 
adg

>  <m_score__min__energy>  (37) 
-16.050000000000001

>  <m_primary>  (37) 
energy

$$$$
37:0
     RDKit          3D

 67 71  0  0  0  0  0  0  0  0999 V2000
   59.9720   29.1120   44.4800 C   0  0  0  0  0  0  0  0  0  0  0  0
   59.4390   28.3050   45.6310 C   0  0  0  0  0  0  0  0  0  0  0  0
   60.2490   28.0880   46.7560 C   0  0  0  0  0  0  0  0  0  0  0  0
   59.7310   27.4690   47.9050 C   0  0  0  0  0  0  0  0  0  0  0  0
   60.5570   27.3900   49.1760 C   0  0  0  0  0  0  0  0  0  0  0  0
   60.7390   28.6960   49.8740 N   0  0  0  0  0  0  0  0  0  0  0  0
   59.6760   28.9590   50.8830 C   0  0  0  0  0  0  0  0  0  0  0  0
   59.5660   30.4520   51.2220 C   0  0  0  0  0  0  0  0  0  0  0  0
   59.2260   31.2470   50.0250 N   0  0  0  0  0  0  0  0  0  0  0  0
   59.4350   32.7020   50.1990 C   0  0  0  0  0  0  0  0  0  0  0  0
   60.8890   33.1170   50.1520 C   0  0  0  0  0  0  0  0  0  0  0  0
   61.6660   33.5550   51.2230 C   0  0  0  0  0  0  0  0  0  0  0  0
   62.9170   33.8580   50.8100 N   0  0  0  0  0  0  0  0  0  0  0  0
   62.9360   33.6350   49.4850 C   0  0  0  0  0  0  0  0  0  0  0  0
   64.0030   33.8420   48.6110 C   0  0  0  0  0  0  0  0  0  0  0  0
   63.7960   33.5820   47.2430 C   0  0  0  0  0  0  0  0  0  0  0  0
   62.5380   33.1370   46.7840 C   0  0  0  0  0  0  0  0  0  0  0  0
   61.4780   32.9400   47.6890 C   0  0  0  0  0  0  0  0  0  0  0  0
   61.7170   33.1910   49.0430 C   0  0  0  0  0  0  0  0  0  0  0  0
   59.7300   30.6970   48.7450 C   0  0  0  0  0  0  0  0  0  0  0  0
   60.9860   29.8370   48.9530 C   0  0  0  0  0  0  0  0  0  0  0  0
   58.4260   26.9600   47.8700 C   0  0  0  0  0  0  0  0  0  0  0  0
   57.6060   27.1850   46.7630 C   0  0  0  0  0  0  0  0  0  0  0  0
   58.0960   27.8810   45.6430 C   0  0  0  0  0  0  0  0  0  0  0  0
   57.2320   28.2780   44.5680 N   0  0  0  0  0  0  0  0  0  0  0  0
   56.3990   29.4450   44.5120 C   0  0  0  0  0  0  0  0  0  0  0  0
   55.1450   29.3420   44.5420 O   0  0  0  0  0  0  0  0  0  0  0  0
   57.0230   30.7980   44.3540 C   0  0  0  0  0  0  0  0  0  0  0  0
   57.4530   31.3260   45.6140 O   0  0  0  0  0  0  0  0  0  0  0  0
   58.0680   32.5790   45.8070 C   0  0  0  0  0  0  0  0  0  0  0  0
   58.1100   33.2220   47.0620 C   0  0  0  0  0  0  0  0  0  0  0  0
   58.7440   34.4640   47.1990 C   0  0  0  0  0  0  0  0  0  0  0  0
   59.3360   35.0740   46.0880 C   0  0  0  0  0  0  0  0  0  0  0  0
   59.2980   34.4380   44.8400 C   0  0  0  0  0  0  0  0  0  0  0  0
   58.6670   33.1980   44.7020 C   0  0  0  0  0  0  0  0  0  0  0  0
   60.5396   29.9714   44.8664 H   0  0  0  0  0  0  0  0  0  0  0  0
   60.6326   28.4826   43.8657 H   0  0  0  0  0  0  0  0  0  0  0  0
   59.1338   29.4725   43.8657 H   0  0  0  0  0  0  0  0  0  0  0  0
   61.3017   28.4064   46.7376 H   0  0  0  0  0  0  0  0  0  0  0  0
   60.0577   26.6963   49.8684 H   0  0  0  0  0  0  0  0  0  0  0  0
   61.5600   27.0503   48.8784 H   0  0  0  0  0  0  0  0  0  0  0  0
   61.6260   28.5810   50.4210 H   0  0  0  0  0  0  0  0  0  0  0  0
   58.7117   28.6133   50.4822 H   0  0  0  0  0  0  0  0  0  0  0  0
   59.9390   28.4185   51.8043 H   0  0  0  0  0  0  0  0  0  0  0  0
   58.7812   30.5911   51.9801 H   0  0  0  0  0  0  0  0  0  0  0  0
   60.5388   30.7954   51.6038 H   0  0  0  0  0  0  0  0  0  0  0  0
   58.8974   33.2285   49.3967 H   0  0  0  0  0  0  0  0  0  0  0  0
   59.0579   32.9638   51.1986 H   0  0  0  0  0  0  0  0  0  0  0  0
   61.3106   33.6420   52.2604 H   0  0  0  0  0  0  0  0  0  0  0  0
   63.6980   34.2200   51.4000 H   0  0  0  0  0  0  0  0  0  0  0  0
   64.9766   34.1976   48.9794 H   0  0  0  0  0  0  0  0  0  0  0  0
   64.6194   33.7265   46.5280 H   0  0  0  0  0  0  0  0  0  0  0  0
   62.3847   32.9428   45.7122 H   0  0  0  0  0  0  0  0  0  0  0  0
   60.4917   32.5989   47.3412 H   0  0  0  0  0  0  0  0  0  0  0  0
   58.9443   30.0765   48.2893 H   0  0  0  0  0  0  0  0  0  0  0  0
   59.9954   31.5398   48.0898 H   0  0  0  0  0  0  0  0  0  0  0  0
   61.3104   29.4422   47.9789 H   0  0  0  0  0  0  0  0  0  0  0  0
   61.7606   30.4741   49.4047 H   0  0  0  0  0  0  0  0  0  0  0  0
   58.0445   26.3782   48.7220 H   0  0  0  0  0  0  0  0  0  0  0  0
   56.5699   26.8157   46.7665 H   0  0  0  0  0  0  0  0  0  0  0  0
   57.8925   30.7152   43.6853 H   0  0  0  0  0  0  0  0  0  0  0  0
   56.2695   31.4794   43.9323 H   0  0  0  0  0  0  0  0  0  0  0  0
   57.6429   32.7462   47.9369 H   0  0  0  0  0  0  0  0  0  0  0  0
   58.7762   34.9595   48.1805 H   0  0  0  0  0  0  0  0  0  0  0  0
   59.8303   36.0509   46.1939 H   0  0  0  0  0  0  0  0  0  0  0  0
   59.7659   34.9156   43.9665 H   0  0  0  0  0  0  0  0  0  0  0  0
   58.6407   32.7050   43.7190 H   0  0  0  0  0  0  0  0  0  0  0  0
  1  2  1  0
  2  3  2  0
  3  4  1  0
  4  5  1  0
  5  6  1  0
  6  7  1  0
  7  8  1  0
  8  9  1  0
  9 10  1  0
 10 11  1  0
 11 12  2  0
 12 13  1  0
 13 14  1  0
 14 15  2  0
 15 16  1  0
 16 17  2  0
 17 18  1  0
 18 19  2  0
  9 20  1  0
 20 21  1  0
  4 22  2  0
 22 23  1  0
 23 24  2  0
 24 25  1  0
 25 26  1  0
 26 27  2  0
 26 28  1  0
 28 29  1  0
 29 30  1  0
 30 31  2  0
 31 32  1  0
 32 33  2  0
 33 34  1  0
 34 35  2  0
 24  2  1  0
 35 30  1  0
 21  6  1  0
 19 11  1  0
 19 14  1  0
  1 36  1  0
  1 37  1  0
  1 38  1  0
  3 39  1  0
  5 40  1  0
  5 41  1  0
  6 42  1  0
  7 43  1  0
  7 44  1  0
  8 45  1  0
  8 46  1  0
 10 47  1  0
 10 48  1  0
 12 49  1  0
 13 50  1  0
 15 51  1  0
 16 52  1  0
 17 53  1  0
 18 54  1  0
 20 55  1  0
 20 56  1  0
 21 57  1  0
 21 58  1  0
 22 59  1  0
 23 60  1  0
 28 61  1  0
 28 62  1  0
 31 63  1  0
 32 64  1  0
 33 65  1  0
 34 66  1  0
 35 67  1  0
M  CHG  2   6   1  25  -1
M  END
>  <UniqueID>  (38) 
37

>  <SMILES>  (38) 
Cc1cc(C[NH+]2CCN(Cc3c[nH]c4ccccc34)CC2)ccc1[N-]C(=O)COc1ccccc1

>  <Energy>  (38) 
124.77702055704479

>  <Genealogy>  (38) 
Cc1cc(C[NH+]2CCN(Cc3c[nH]c4ccccc34)CC2)ccc1[N-]C(=O)COc1ccccc1 (protonated)
Cc1cc(C[NH+]2CCN(Cc3c[nH]c4ccccc34)CC2)ccc1[N-]C(=O)COc1ccccc1 (3D coordinates assigned)
Cc1cc(C[NH+]2CCN(Cc3c[nH]c4ccccc34)CC2)ccc1[N-]C(=O)COc1ccccc1 (nonaromatic ring conformer: 124.77702055704479 kcal/mol)

>  <smiles>  (38) 
Cc1cc(CN2CCN(Cc3c[nH]c4ccccc34)CC2)ccc1NC(=O)COc1ccccc1

>  <score_type>  (38) 
oracle

>  <origin>  (38) 
adg

>  <m_score__min__energy>  (38) 
-10.49

>  <m_primary>  (38) 
energy

$$$$
38:0
     RDKit          3D

 56 59  0  0  0  0  0  0  0  0999 V2000
   56.5580   30.4990   43.6130 C   0  0  0  0  0  0  0  0  0  0  0  0
   56.5010   31.3030   44.7880 O   0  0  0  0  0  0  0  0  0  0  0  0
   57.4300   32.3040   45.1180 C   0  0  0  0  0  0  0  0  0  0  0  0
   57.3330   33.6050   44.5870 C   0  0  0  0  0  0  0  0  0  0  0  0
   58.3040   34.5600   44.8790 C   0  0  0  0  0  0  0  0  0  0  0  0
   59.3850   34.2340   45.6960 C   0  0  0  0  0  0  0  0  0  0  0  0
   59.5030   32.9460   46.2440 C   0  0  0  0  0  0  0  0  0  0  0  0
   60.6550   32.6380   47.1290 C   0  0  0  0  0  0  0  0  0  0  0  0
   61.5200   31.8000   46.7610 O   0  0  0  0  0  0  0  0  0  0  0  0
   60.7710   33.2090   48.4380 N   0  0  0  0  0  0  0  0  0  0  0  0
   61.8500   33.0020   49.3610 C   0  0  0  0  0  0  0  0  0  0  0  0
   62.9130   33.9180   49.4590 C   0  0  0  0  0  0  0  0  0  0  0  0
   63.9690   33.6790   50.3430 C   0  0  0  0  0  0  0  0  0  0  0  0
   63.9770   32.5250   51.1320 C   0  0  0  0  0  0  0  0  0  0  0  0
   62.9310   31.6030   51.0340 C   0  0  0  0  0  0  0  0  0  0  0  0
   61.8710   31.8320   50.1450 C   0  0  0  0  0  0  0  0  0  0  0  0
   60.7950   30.8880   50.0660 N   0  0  0  0  0  0  0  0  0  0  0  0
   59.5430   31.2220   50.7580 C   0  0  0  0  0  0  0  0  0  0  0  0
   58.4960   30.1140   50.6240 C   0  0  0  0  0  0  0  0  0  0  0  0
   58.5100   29.5660   49.3260 O   0  0  0  0  0  0  0  0  0  0  0  0
   59.7050   28.8380   49.1530 C   0  0  0  0  0  0  0  0  0  0  0  0
   60.9220   29.7660   49.1270 C   0  0  0  0  0  0  0  0  0  0  0  0
   58.5000   31.9860   45.9780 C   0  0  0  0  0  0  0  0  0  0  0  0
   58.6240   30.6620   46.5120 N   0  0  0  0  0  0  0  0  0  0  0  0
   59.3220   29.3430   45.6300 S   0  0  0  0  0  0  0  0  0  0  0  0
   60.7530   29.1720   46.0510 O   0  0  0  0  0  0  0  0  0  0  0  0
   59.2910   29.6080   44.1500 O   0  0  0  0  0  0  0  0  0  0  0  0
   58.4060   27.8800   45.9660 C   0  0  0  0  0  0  0  0  0  0  0  0
   59.0820   26.7090   46.3440 C   0  0  0  0  0  0  0  0  0  0  0  0
   58.3660   25.5370   46.6060 C   0  0  0  0  0  0  0  0  0  0  0  0
   56.9730   25.5300   46.4880 C   0  0  0  0  0  0  0  0  0  0  0  0
   56.2940   26.6930   46.1020 C   0  0  0  0  0  0  0  0  0  0  0  0
   54.9090   26.6890   45.9950 O   0  0  0  0  0  0  0  0  0  0  0  0
   57.0090   27.8650   45.8340 C   0  0  0  0  0  0  0  0  0  0  0  0
   56.6331   29.4390   43.8973 H   0  0  0  0  0  0  0  0  0  0  0  0
   55.6465   30.6551   43.0173 H   0  0  0  0  0  0  0  0  0  0  0  0
   57.4383   30.7822   43.0173 H   0  0  0  0  0  0  0  0  0  0  0  0
   56.4851   33.8685   43.9376 H   0  0  0  0  0  0  0  0  0  0  0  0
   58.2173   35.5748   44.4634 H   0  0  0  0  0  0  0  0  0  0  0  0
   60.1522   34.9917   45.9135 H   0  0  0  0  0  0  0  0  0  0  0  0
   62.9132   34.8257   48.8377 H   0  0  0  0  0  0  0  0  0  0  0  0
   64.7958   34.4007   50.4180 H   0  0  0  0  0  0  0  0  0  0  0  0
   64.8070   32.3424   51.8304 H   0  0  0  0  0  0  0  0  0  0  0  0
   62.9394   30.6956   51.6557 H   0  0  0  0  0  0  0  0  0  0  0  0
   59.7588   31.3785   51.8252 H   0  0  0  0  0  0  0  0  0  0  0  0
   59.1333   32.1319   50.2952 H   0  0  0  0  0  0  0  0  0  0  0  0
   58.7159   29.3201   51.3529 H   0  0  0  0  0  0  0  0  0  0  0  0
   57.5016   30.5440   50.8142 H   0  0  0  0  0  0  0  0  0  0  0  0
   59.8147   28.1262   49.9845 H   0  0  0  0  0  0  0  0  0  0  0  0
   59.6523   28.3071   48.1911 H   0  0  0  0  0  0  0  0  0  0  0  0
   61.8158   29.1828   49.3933 H   0  0  0  0  0  0  0  0  0  0  0  0
   60.9998   30.1862   48.1134 H   0  0  0  0  0  0  0  0  0  0  0  0
   60.1783   26.7136   46.4343 H   0  0  0  0  0  0  0  0  0  0  0  0
   58.8980   24.6217   46.9046 H   0  0  0  0  0  0  0  0  0  0  0  0
   56.4089   24.6094   46.6987 H   0  0  0  0  0  0  0  0  0  0  0  0
   56.4763   28.7747   45.5198 H   0  0  0  0  0  0  0  0  0  0  0  0
  1  2  1  0
  2  3  1  0
  3  4  2  0
  4  5  1  0
  5  6  2  0
  6  7  1  0
  7  8  1  0
  8  9  2  0
  8 10  1  0
 10 11  1  0
 11 12  2  0
 12 13  1  0
 13 14  2  0
 14 15  1  0
 15 16  2  0
 16 17  1  0
 17 18  1  0
 18 19  1  0
 19 20  1  0
 20 21  1  0
 21 22  1  0
  7 23  2  0
 23 24  1  0
 24 25  1  0
 25 26  2  0
 25 27  2  0
 25 28  1  0
 28 29  2  0
 29 30  1  0
 30 31  2  0
 31 32  1  0
 32 33  1  0
 32 34  2  0
 23  3  1  0
 34 28  1  0
 16 11  1  0
 22 17  1  0
  1 35  1  0
  1 36  1  0
  1 37  1  0
  4 38  1  0
  5 39  1  0
  6 40  1  0
 12 41  1  0
 13 42  1  0
 14 43  1  0
 15 44  1  0
 18 45  1  0
 18 46  1  0
 19 47  1  0
 19 48  1  0
 21 49  1  0
 21 50  1  0
 22 51  1  0
 22 52  1  0
 29 53  1  0
 30 54  1  0
 31 55  1  0
 34 56  1  0
M  CHG  3  10  -1  24  -1  33  -1
M  END
>  <UniqueID>  (39) 
38

>  <SMILES>  (39) 
COc1cccc(C(=O)[N-]c2ccccc2N2CCOCC2)c1[N-]S(=O)(=O)c1cccc([O-])c1

>  <Energy>  (39) 
84.64260248177787

>  <Genealogy>  (39) 
COc1cccc(C(=O)[N-]c2ccccc2N2CCOCC2)c1[N-]S(=O)(=O)c1cccc([O-])c1 (protonated)
COc1cccc(C(=O)[N-]c2ccccc2N2CCOCC2)c1[N-]S(=O)(=O)c1cccc([O-])c1 (3D coordinates assigned)
COc1cccc(C(=O)[N-]c2ccccc2N2CCOCC2)c1[N-]S(=O)(=O)c1cccc([O-])c1 (nonaromatic ring conformer: 84.64260248177787 kcal/mol)

>  <smiles>  (39) 
COc1cccc(C(=O)Nc2ccccc2N2CCOCC2)c1NS(=O)(=O)c1cccc(O)c1

>  <score_type>  (39) 
oracle

>  <origin>  (39) 
adg

>  <m_score__min__energy>  (39) 
-14.449999999999999

>  <m_primary>  (39) 
energy

$$$$
39:0
     RDKit          3D

 41 43  0  0  0  0  0  0  0  0999 V2000
   56.6450   29.4750   42.8200 C   0  0  0  0  0  0  0  0  0  0  0  0
   56.4420   30.4510   43.9310 C   0  0  0  0  0  0  0  0  0  0  0  0
   55.6210   30.1860   44.8510 O   0  0  0  0  0  0  0  0  0  0  0  0
   57.2000   31.6670   43.9620 N   0  0  0  0  0  0  0  0  0  0  0  0
   57.0250   32.6760   45.0050 C   0  0  0  0  0  0  0  0  0  0  0  0
   58.3380   32.9600   45.6820 C   0  0  0  0  0  0  0  0  0  0  0  0
   58.7930   34.2790   45.8340 C   0  0  0  0  0  0  0  0  0  0  0  0
   60.0240   34.5320   46.4430 C   0  0  0  0  0  0  0  0  0  0  0  0
   60.8110   33.4750   46.9050 C   0  0  0  0  0  0  0  0  0  0  0  0
   60.3650   32.1500   46.7670 C   0  0  0  0  0  0  0  0  0  0  0  0
   61.2140   31.0040   47.2500 C   0  0  0  0  0  0  0  0  0  0  0  0
   61.1470   29.9030   46.3420 O   0  0  0  0  0  0  0  0  0  0  0  0
   60.0610   29.0220   46.2140 C   0  0  0  0  0  0  0  0  0  0  0  0
   59.6470   28.4990   44.9750 C   0  0  0  0  0  0  0  0  0  0  0  0
   58.5630   27.6200   44.9060 C   0  0  0  0  0  0  0  0  0  0  0  0
   57.8700   27.2490   46.0720 C   0  0  0  0  0  0  0  0  0  0  0  0
   56.7230   26.3190   45.9980 C   0  0  0  0  0  0  0  0  0  0  0  0
   55.4320   26.7140   46.0340 N   0  0  0  0  0  0  0  0  0  0  0  0
   54.7410   25.6190   45.9460 O   0  0  0  0  0  0  0  0  0  0  0  0
   55.5590   24.6030   45.8600 C   0  0  0  0  0  0  0  0  0  0  0  0
   55.1820   23.4050   45.7640 O   0  0  0  0  0  0  0  0  0  0  0  0
   56.8500   24.9770   45.8880 N   0  0  0  0  0  0  0  0  0  0  0  0
   58.2820   27.7790   47.3060 C   0  0  0  0  0  0  0  0  0  0  0  0
   59.3670   28.6560   47.3730 C   0  0  0  0  0  0  0  0  0  0  0  0
   59.1330   31.8980   46.1420 C   0  0  0  0  0  0  0  0  0  0  0  0
   56.8521   28.4795   43.2397 H   0  0  0  0  0  0  0  0  0  0  0  0
   55.7369   29.4302   42.2008 H   0  0  0  0  0  0  0  0  0  0  0  0
   57.4956   29.7960   42.2008 H   0  0  0  0  0  0  0  0  0  0  0  0
   57.9110   31.8400   43.2160 H   0  0  0  0  0  0  0  0  0  0  0  0
   56.6419   33.6027   44.5528 H   0  0  0  0  0  0  0  0  0  0  0  0
   56.3114   32.2984   45.7521 H   0  0  0  0  0  0  0  0  0  0  0  0
   58.1780   35.1162   45.4723 H   0  0  0  0  0  0  0  0  0  0  0  0
   60.3751   35.5680   46.5592 H   0  0  0  0  0  0  0  0  0  0  0  0
   61.7826   33.6804   47.3782 H   0  0  0  0  0  0  0  0  0  0  0  0
   62.2583   31.3393   47.3333 H   0  0  0  0  0  0  0  0  0  0  0  0
   60.8372   30.6755   48.2298 H   0  0  0  0  0  0  0  0  0  0  0  0
   60.1797   28.7837   44.0557 H   0  0  0  0  0  0  0  0  0  0  0  0
   58.2494   27.2153   43.9324 H   0  0  0  0  0  0  0  0  0  0  0  0
   57.7464   27.5014   48.2258 H   0  0  0  0  0  0  0  0  0  0  0  0
   59.6791   29.0630   48.3461 H   0  0  0  0  0  0  0  0  0  0  0  0
   58.7884   30.8615   46.0119 H   0  0  0  0  0  0  0  0  0  0  0  0
  1  2  1  0
  2  3  2  0
  2  4  1  0
  4  5  1  0
  5  6  1  0
  6  7  2  0
  7  8  1  0
  8  9  2  0
  9 10  1  0
 10 11  1  0
 11 12  1  0
 12 13  1  0
 13 14  2  0
 14 15  1  0
 15 16  2  0
 16 17  1  0
 17 18  2  0
 18 19  1  0
 19 20  1  0
 20 21  2  0
 20 22  1  0
 16 23  1  0
 23 24  2  0
 10 25  2  0
 25  6  1  0
 24 13  1  0
 22 17  1  0
  1 26  1  0
  1 27  1  0
  1 28  1  0
  4 29  1  0
  5 30  1  0
  5 31  1  0
  7 32  1  0
  8 33  1  0
  9 34  1  0
 11 35  1  0
 11 36  1  0
 14 37  1  0
 15 38  1  0
 23 39  1  0
 24 40  1  0
 25 41  1  0
M  CHG  1  22  -1
M  END
>  <UniqueID>  (40) 
39

>  <SMILES>  (40) 
CC(=O)NCc1cccc(COc2ccc(-c3noc(=O)[n-]3)cc2)c1

>  <Energy>  (40) 
73.0085403645177

>  <Genealogy>  (40) 
CC(=O)NCc1cccc(COc2ccc(-c3noc(=O)[n-]3)cc2)c1 (protonated)
CC(=O)NCc1cccc(COc2ccc(-c3noc(=O)[n-]3)cc2)c1 (3D coordinates assigned)
CC(=O)NCc1cccc(COc2ccc(-c3noc(=O)[n-]3)cc2)c1 (optimized conformer: 73.0085403645177 kcal/mol)

>  <smiles>  (40) 
CC(=O)NCc1cccc(COc2ccc(-c3noc(=O)[nH]3)cc2)c1

>  <score_type>  (40) 
oracle

>  <origin>  (40) 
adg

>  <m_score__min__energy>  (40) 
-10.630000000000001

>  <m_primary>  (40) 
energy

$$$$
40:0
     RDKit          3D

 38 41  0  0  0  0  0  0  0  0999 V2000
   58.1570   22.6330   45.3290 C   0  0  0  0  0  0  0  0  0  0  0  0
   57.4680   23.3880   46.1870 C   0  0  0  0  0  0  0  0  0  0  0  0
   57.1720   24.8270   45.9860 C   0  0  0  0  0  0  0  0  0  0  0  0
   55.8970   25.3910   46.1720 C   0  0  0  0  0  0  0  0  0  0  0  0
   55.7000   26.7170   45.9590 N   0  0  0  0  0  0  0  0  0  0  0  0
   56.7130   27.5260   45.5550 C   0  0  0  0  0  0  0  0  0  0  0  0
   56.4830   28.7960   45.3910 N   0  0  0  0  0  0  0  0  0  0  0  0
   57.3940   29.8690   45.6700 C   0  0  0  0  0  0  0  0  0  0  0  0
   57.0530   31.0750   45.3360 N   0  0  0  0  0  0  0  0  0  0  0  0
   57.8750   32.2780   45.5290 C   0  0  0  0  0  0  0  0  0  0  0  0
   57.0420   33.3890   46.1780 C   0  0  0  0  0  0  0  0  0  0  0  0
   57.1020   34.1880   44.8800 C   0  0  0  0  0  0  0  0  0  0  0  0
   57.9430   33.0940   44.2340 C   0  0  0  0  0  0  0  0  0  0  0  0
   59.2310   32.0150   46.1930 C   0  0  0  0  0  0  0  0  0  0  0  0
   60.1500   33.0530   46.4790 C   0  0  0  0  0  0  0  0  0  0  0  0
   59.8710   34.3470   46.1810 F   0  0  0  0  0  0  0  0  0  0  0  0
   61.3810   32.7650   47.0750 C   0  0  0  0  0  0  0  0  0  0  0  0
   61.7200   31.4500   47.3890 C   0  0  0  0  0  0  0  0  0  0  0  0
   60.8280   30.4150   47.1080 C   0  0  0  0  0  0  0  0  0  0  0  0
   59.5880   30.6890   46.5140 C   0  0  0  0  0  0  0  0  0  0  0  0
   58.6900   29.6140   46.2250 N   0  0  0  0  0  0  0  0  0  0  0  0
   57.9550   27.0030   45.3720 N   0  0  0  0  0  0  0  0  0  0  0  0
   58.2000   25.6830   45.5690 C   0  0  0  0  0  0  0  0  0  0  0  0
   58.3347   21.5704   45.5512 H   0  0  0  0  0  0  0  0  0  0  0  0
   58.5472   23.0732   44.3995 H   0  0  0  0  0  0  0  0  0  0  0  0
   57.0946   22.9108   47.1050 H   0  0  0  0  0  0  0  0  0  0  0  0
   55.0574   24.7559   46.4909 H   0  0  0  0  0  0  0  0  0  0  0  0
   56.0274   33.0788   46.4684 H   0  0  0  0  0  0  0  0  0  0  0  0
   57.3612   33.8430   47.1277 H   0  0  0  0  0  0  0  0  0  0  0  0
   56.1228   34.3406   44.4026 H   0  0  0  0  0  0  0  0  0  0  0  0
   57.4582   35.2287   44.8867 H   0  0  0  0  0  0  0  0  0  0  0  0
   57.4629   32.6086   43.3715 H   0  0  0  0  0  0  0  0  0  0  0  0
   58.9145   33.3346   43.7777 H   0  0  0  0  0  0  0  0  0  0  0  0
   62.0856   33.5800   47.2973 H   0  0  0  0  0  0  0  0  0  0  0  0
   62.6901   31.2286   47.8580 H   0  0  0  0  0  0  0  0  0  0  0  0
   61.0991   29.3777   47.3539 H   0  0  0  0  0  0  0  0  0  0  0  0
   59.0180   28.6310   46.3520 H   0  0  0  0  0  0  0  0  0  0  0  0
   59.2107   25.2829   45.4005 H   0  0  0  0  0  0  0  0  0  0  0  0
  1  2  2  0
  2  3  1  0
  3  4  1  0
  4  5  2  0
  5  6  1  0
  6  7  2  3
  7  8  1  0
  8  9  2  0
  9 10  1  0
 10 11  1  0
 11 12  1  0
 12 13  1  0
 10 14  1  0
 14 15  2  0
 15 16  1  0
 15 17  1  0
 17 18  2  0
 18 19  1  0
 19 20  2  0
 20 21  1  0
  6 22  1  0
 22 23  1  0
 23  3  2  0
 21  8  1  0
 13 10  1  0
 20 14  1  0
  1 24  1  0
  1 25  1  0
  2 26  1  0
  4 27  1  0
 11 28  1  0
 11 29  1  0
 12 30  1  0
 12 31  1  0
 13 32  1  0
 13 33  1  0
 17 34  1  0
 18 35  1  0
 19 36  1  0
 21 37  1  0
 23 38  1  0
M  CHG  1  22  -1
M  END
>  <UniqueID>  (41) 
40

>  <SMILES>  (41) 
C=Cc1cnc(=NC2=NC3(CCC3)c3c(F)cccc3N2)[n-]c1

>  <Energy>  (41) 
115.39028630005377

>  <Genealogy>  (41) 
C=Cc1cnc(=NC2=NC3(CCC3)c3c(F)cccc3N2)[n-]c1 (protonated)
C=Cc1cnc(=NC2=NC3(CCC3)c3c(F)cccc3N2)[n-]c1 (3D coordinates assigned)
C=Cc1cnc(=NC2=NC3(CCC3)c3c(F)cccc3N2)[n-]c1 (nonaromatic ring conformer: 115.39028630005377 kcal/mol)

>  <smiles>  (41) 
C=Cc1cnc(=NC2=NC3(CCC3)c3c(F)cccc3N2)[nH]c1

>  <score_type>  (41) 
oracle

>  <origin>  (41) 
adg

>  <m_score__min__energy>  (41) 
-9.1500000000000004

>  <m_primary>  (41) 
energy

$$$$
41:0
     RDKit          3D

 41 43  0  0  0  0  0  0  0  0999 V2000
   57.0800   22.7600   48.2610 O   0  0  0  0  0  0  0  0  0  0  0  0
   57.3790   23.0890   47.0950 N   0  0  0  0  0  0  0  0  0  0  0  0
   58.0500   22.1860   46.3030 O   0  0  0  0  0  0  0  0  0  0  0  0
   57.0330   24.3910   46.5870 C   0  0  0  0  0  0  0  0  0  0  0  0
   55.7050   24.6930   46.2320 C   0  0  0  0  0  0  0  0  0  0  0  0
   55.3710   25.9640   45.7580 C   0  0  0  0  0  0  0  0  0  0  0  0
   56.3460   26.9590   45.6430 C   0  0  0  0  0  0  0  0  0  0  0  0
   55.9400   28.2760   45.2470 N   0  0  0  0  0  0  0  0  0  0  0  0
   56.6830   29.1460   43.9420 S   0  0  0  0  0  0  0  0  0  0  0  0
   55.6250   29.6070   42.9800 O   0  0  0  0  0  0  0  0  0  0  0  0
   57.6480   28.2460   43.2230 O   0  0  0  0  0  0  0  0  0  0  0  0
   57.5090   30.5580   44.5970 C   0  0  0  0  0  0  0  0  0  0  0  0
   57.5170   31.7490   43.8590 C   0  0  0  0  0  0  0  0  0  0  0  0
   58.0020   32.9260   44.4310 C   0  0  0  0  0  0  0  0  0  0  0  0
   58.4930   32.9250   45.7450 C   0  0  0  0  0  0  0  0  0  0  0  0
   58.8530   34.2200   46.4170 C   0  0  0  0  0  0  0  0  0  0  0  0
   60.1860   34.0780   47.1020 C   0  0  0  0  0  0  0  0  0  0  0  0
   61.3480   33.8410   46.3500 C   0  0  0  0  0  0  0  0  0  0  0  0
   62.5850   33.7850   46.9950 C   0  0  0  0  0  0  0  0  0  0  0  0
   62.6620   33.9650   48.3400 N   0  0  0  0  0  0  0  0  0  0  0  0
   61.5550   34.2050   49.0910 C   0  0  0  0  0  0  0  0  0  0  0  0
   60.2980   34.2720   48.4860 C   0  0  0  0  0  0  0  0  0  0  0  0
   58.5210   31.7210   46.4690 C   0  0  0  0  0  0  0  0  0  0  0  0
   58.0380   30.5430   45.8940 C   0  0  0  0  0  0  0  0  0  0  0  0
   57.6870   26.6530   45.9480 C   0  0  0  0  0  0  0  0  0  0  0  0
   58.6900   27.6010   45.7530 O   0  0  0  0  0  0  0  0  0  0  0  0
   58.0190   25.3790   46.4320 C   0  0  0  0  0  0  0  0  0  0  0  0
   54.9251   23.9233   46.3284 H   0  0  0  0  0  0  0  0  0  0  0  0
   54.3316   26.1837   45.4728 H   0  0  0  0  0  0  0  0  0  0  0  0
   57.1399   31.7564   42.8257 H   0  0  0  0  0  0  0  0  0  0  0  0
   57.9992   33.8591   43.8485 H   0  0  0  0  0  0  0  0  0  0  0  0
   58.9114   35.0197   45.6640 H   0  0  0  0  0  0  0  0  0  0  0  0
   58.0838   34.4721   47.1618 H   0  0  0  0  0  0  0  0  0  0  0  0
   61.2841   33.7005   45.2609 H   0  0  0  0  0  0  0  0  0  0  0  0
   63.4991   33.5948   46.4135 H   0  0  0  0  0  0  0  0  0  0  0  0
   61.6493   34.3468   50.1777 H   0  0  0  0  0  0  0  0  0  0  0  0
   59.4022   34.4755   49.0911 H   0  0  0  0  0  0  0  0  0  0  0  0
   58.9247   31.7060   47.4921 H   0  0  0  0  0  0  0  0  0  0  0  0
   58.0732   29.6012   46.4612 H   0  0  0  0  0  0  0  0  0  0  0  0
   58.5450   28.4170   45.1710 H   0  0  0  0  0  0  0  0  0  0  0  0
   59.0630   25.1513   46.6930 H   0  0  0  0  0  0  0  0  0  0  0  0
  1  2  2  0
  2  3  1  0
  2  4  1  0
  4  5  2  0
  5  6  1  0
  6  7  2  0
  7  8  1  0
  8  9  1  0
  9 10  2  0
  9 11  2  0
  9 12  1  0
 12 13  2  0
 13 14  1  0
 14 15  2  0
 15 16  1  0
 16 17  1  0
 17 18  2  0
 18 19  1  0
 19 20  2  0
 20 21  1  0
 21 22  2  0
 15 23  1  0
 23 24  2  0
  7 25  1  0
 25 26  1  0
 25 27  2  0
 27  4  1  0
 24 12  1  0
 22 17  1  0
  5 28  1  0
  6 29  1  0
 13 30  1  0
 14 31  1  0
 16 32  1  0
 16 33  1  0
 18 34  1  0
 19 35  1  0
 21 36  1  0
 22 37  1  0
 23 38  1  0
 24 39  1  0
 26 40  1  0
 27 41  1  0
M  CHG  3   2   1   3  -1   8  -1
M  END
>  <UniqueID>  (42) 
41

>  <SMILES>  (42) 
O=[N+]([O-])c1ccc([N-]S(=O)(=O)c2ccc(Cc3ccncc3)cc2)c(O)c1

>  <Energy>  (42) 
49.65600851114159

>  <Genealogy>  (42) 
O=[N+]([O-])c1ccc([N-]S(=O)(=O)c2ccc(Cc3ccncc3)cc2)c(O)c1 (protonated)
O=[N+]([O-])c1ccc([N-]S(=O)(=O)c2ccc(Cc3ccncc3)cc2)c(O)c1 (3D coordinates assigned)
O=[N+]([O-])c1ccc([N-]S(=O)(=O)c2ccc(Cc3ccncc3)cc2)c(O)c1 (optimized conformer: 49.65600851114159 kcal/mol)

>  <smiles>  (42) 
O=[N+]([O-])c1ccc(NS(=O)(=O)c2ccc(Cc3ccncc3)cc2)c(O)c1

>  <score_type>  (42) 
oracle

>  <origin>  (42) 
adg

>  <m_score__min__energy>  (42) 
-12.15

>  <m_primary>  (42) 
energy

$$$$
42:0
     RDKit          3D

 41 43  0  0  0  0  0  0  0  0999 V2000
   57.1530   23.2400   43.8190 C   0  0  0  0  0  0  0  0  0  0  0  0
   57.9680   24.1780   44.5150 O   0  0  0  0  0  0  0  0  0  0  0  0
   57.7770   25.5670   44.4830 C   0  0  0  0  0  0  0  0  0  0  0  0
   57.2140   26.1870   45.6040 C   0  0  0  0  0  0  0  0  0  0  0  0
   57.0100   27.5700   45.6260 C   0  0  0  0  0  0  0  0  0  0  0  0
   57.3690   28.3580   44.5210 C   0  0  0  0  0  0  0  0  0  0  0  0
   57.1830   29.8230   44.5520 C   0  0  0  0  0  0  0  0  0  0  0  0
   56.0190   30.4260   44.8680 N   0  0  0  0  0  0  0  0  0  0  0  0
   56.2670   31.6970   44.7890 O   0  0  0  0  0  0  0  0  0  0  0  0
   57.5180   31.8790   44.4460 C   0  0  0  0  0  0  0  0  0  0  0  0
   58.1610   33.2220   44.2770 C   0  0  0  0  0  0  0  0  0  0  0  0
   58.1840   34.0080   45.5920 C   0  0  0  0  0  0  0  0  0  0  0  0
   58.8690   33.2370   46.6830 C   0  0  0  0  0  0  0  0  0  0  0  0
   59.8030   33.7790   47.3330 O   0  0  0  0  0  0  0  0  0  0  0  0
   58.4880   31.8800   46.9520 N   0  0  0  0  0  0  0  0  0  0  0  0
   59.2050   31.0340   47.9030 C   0  0  0  0  0  0  0  0  0  0  0  0
   59.7340   29.8220   47.2080 C   0  0  0  0  0  0  0  0  0  0  0  0
   60.4090   29.8070   45.9950 C   0  0  0  0  0  0  0  0  0  0  0  0
   60.7540   28.5170   45.5740 C   0  0  0  0  0  0  0  0  0  0  0  0
   60.3400   27.5170   46.4450 C   0  0  0  0  0  0  0  0  0  0  0  0
   59.5360   28.2370   47.7350 S   0  0  0  0  0  0  0  0  0  0  0  0
   58.1630   30.7110   44.2770 N   0  0  0  0  0  0  0  0  0  0  0  0
   57.9270   27.7360   43.3910 C   0  0  0  0  0  0  0  0  0  0  0  0
   58.1320   26.3540   43.3710 C   0  0  0  0  0  0  0  0  0  0  0  0
   56.6108   22.6159   44.5446 H   0  0  0  0  0  0  0  0  0  0  0  0
   56.4314   23.7789   43.1874 H   0  0  0  0  0  0  0  0  0  0  0  0
   57.7874   22.6007   43.1874 H   0  0  0  0  0  0  0  0  0  0  0  0
   56.9292   25.5805   46.4763 H   0  0  0  0  0  0  0  0  0  0  0  0
   56.5657   28.0433   46.5141 H   0  0  0  0  0  0  0  0  0  0  0  0
   59.1945   33.0811   43.9276 H   0  0  0  0  0  0  0  0  0  0  0  0
   57.5724   33.7947   43.5451 H   0  0  0  0  0  0  0  0  0  0  0  0
   58.7204   34.9550   45.4328 H   0  0  0  0  0  0  0  0  0  0  0  0
   57.1447   34.1933   45.9011 H   0  0  0  0  0  0  0  0  0  0  0  0
   57.7390   31.4390   46.3730 H   0  0  0  0  0  0  0  0  0  0  0  0
   60.0425   31.6008   48.3359 H   0  0  0  0  0  0  0  0  0  0  0  0
   58.5153   30.7215   48.7009 H   0  0  0  0  0  0  0  0  0  0  0  0
   60.6483   30.7157   45.4231 H   0  0  0  0  0  0  0  0  0  0  0  0
   61.3012   28.3144   44.6415 H   0  0  0  0  0  0  0  0  0  0  0  0
   60.5092   26.4381   46.3134 H   0  0  0  0  0  0  0  0  0  0  0  0
   58.2044   28.3417   42.5157 H   0  0  0  0  0  0  0  0  0  0  0  0
   58.5728   25.8787   42.4823 H   0  0  0  0  0  0  0  0  0  0  0  0
  1  2  1  0
  2  3  1  0
  3  4  2  0
  4  5  1  0
  5  6  2  0
  6  7  1  0
  7  8  2  0
  8  9  1  0
  9 10  1  0
 10 11  1  0
 11 12  1  0
 12 13  1  0
 13 14  2  0
 13 15  1  0
 15 16  1  0
 16 17  1  0
 17 18  2  0
 18 19  1  0
 19 20  2  0
 20 21  1  0
 10 22  2  0
  6 23  1  0
 23 24  2  0
 24  3  1  0
 22  7  1  0
 21 17  1  0
  1 25  1  0
  1 26  1  0
  1 27  1  0
  4 28  1  0
  5 29  1  0
 11 30  1  0
 11 31  1  0
 12 32  1  0
 12 33  1  0
 15 34  1  0
 16 35  1  0
 16 36  1  0
 18 37  1  0
 19 38  1  0
 20 39  1  0
 23 40  1  0
 24 41  1  0
M  END
>  <UniqueID>  (43) 
42

>  <SMILES>  (43) 
COc1ccc(-c2noc(CCC(=O)NCc3cccs3)n2)cc1

>  <Energy>  (43) 
89.20758972908303

>  <Genealogy>  (43) 
COc1ccc(-c2noc(CCC(=O)NCc3cccs3)n2)cc1 (3D coordinates assigned)
COc1ccc(-c2noc(CCC(=O)NCc3cccs3)n2)cc1 (optimized conformer: 89.20758972908303 kcal/mol)

>  <smiles>  (43) 
COc1ccc(-c2noc(CCC(=O)NCc3cccs3)n2)cc1

>  <score_type>  (43) 
oracle

>  <origin>  (43) 
adg

>  <m_score__min__energy>  (43) 
-7.5

>  <m_primary>  (43) 
energy

$$$$
43:0
     RDKit          3D

 42 44  0  0  0  0  0  0  0  0999 V2000
   56.3460   32.0690   44.8790 O   0  0  0  0  0  0  0  0  0  0  0  0
   57.4020   31.9090   45.5500 C   0  0  0  0  0  0  0  0  0  0  0  0
   57.7680   30.5960   46.0130 N   0  0  0  0  0  0  0  0  0  0  0  0
   57.1310   29.3840   45.5690 C   0  0  0  0  0  0  0  0  0  0  0  0
   56.0550   29.4390   44.9130 O   0  0  0  0  0  0  0  0  0  0  0  0
   57.7290   28.0590   45.8810 C   0  0  0  0  0  0  0  0  0  0  0  0
   59.1210   27.9310   45.9900 C   0  0  0  0  0  0  0  0  0  0  0  0
   59.6930   26.6910   46.2520 C   0  0  0  0  0  0  0  0  0  0  0  0
   58.8750   25.5750   46.4070 C   0  0  0  0  0  0  0  0  0  0  0  0
   57.5140   25.6860   46.3070 N   0  0  0  0  0  0  0  0  0  0  0  0
   56.6930   24.4710   46.4370 C   0  0  0  0  0  0  0  0  0  0  0  0
   57.1060   23.4490   45.4100 C   0  0  0  0  0  0  0  0  0  0  0  0
   58.2900   22.7110   45.5730 C   0  0  0  0  0  0  0  0  0  0  0  0
   58.6540   21.7450   44.6300 C   0  0  0  0  0  0  0  0  0  0  0  0
   57.8350   21.5030   43.5230 C   0  0  0  0  0  0  0  0  0  0  0  0
   56.6470   22.2280   43.3550 C   0  0  0  0  0  0  0  0  0  0  0  0
   55.8180   21.9920   42.2590 O   0  0  0  0  0  0  0  0  0  0  0  0
   56.2860   23.1980   44.2970 C   0  0  0  0  0  0  0  0  0  0  0  0
   56.9320   26.9030   46.0420 C   0  0  0  0  0  0  0  0  0  0  0  0
   55.6740   26.9930   45.9520 O   0  0  0  0  0  0  0  0  0  0  0  0
   58.2450   33.0890   45.8630 C   0  0  0  0  0  0  0  0  0  0  0  0
   58.4570   34.0810   44.8850 C   0  0  0  0  0  0  0  0  0  0  0  0
   59.2560   35.1950   45.1680 C   0  0  0  0  0  0  0  0  0  0  0  0
   59.8540   35.3280   46.4220 C   0  0  0  0  0  0  0  0  0  0  0  0
   59.6600   34.3470   47.3970 C   0  0  0  0  0  0  0  0  0  0  0  0
   58.8620   33.2310   47.1210 C   0  0  0  0  0  0  0  0  0  0  0  0
   58.5100   30.5180   46.7440 H   0  0  0  0  0  0  0  0  0  0  0  0
   59.7634   28.8155   45.8677 H   0  0  0  0  0  0  0  0  0  0  0  0
   60.7853   26.5923   46.3363 H   0  0  0  0  0  0  0  0  0  0  0  0
   59.3271   24.5934   46.6120 H   0  0  0  0  0  0  0  0  0  0  0  0
   56.8269   24.0485   47.4437 H   0  0  0  0  0  0  0  0  0  0  0  0
   55.6370   24.7336   46.2762 H   0  0  0  0  0  0  0  0  0  0  0  0
   58.9335   22.8938   46.4462 H   0  0  0  0  0  0  0  0  0  0  0  0
   59.5858   21.1748   44.7592 H   0  0  0  0  0  0  0  0  0  0  0  0
   58.1234   20.7424   42.7825 H   0  0  0  0  0  0  0  0  0  0  0  0
   56.1220   22.1940   41.3140 H   0  0  0  0  0  0  0  0  0  0  0  0
   55.3542   23.7676   44.1652 H   0  0  0  0  0  0  0  0  0  0  0  0
   57.9919   33.9794   43.8933 H   0  0  0  0  0  0  0  0  0  0  0  0
   59.4129   35.9672   44.4004 H   0  0  0  0  0  0  0  0  0  0  0  0
   60.4786   36.2062   46.6426 H   0  0  0  0  0  0  0  0  0  0  0  0
   60.1352   34.4517   48.3835 H   0  0  0  0  0  0  0  0  0  0  0  0
   58.7157   32.4598   47.8916 H   0  0  0  0  0  0  0  0  0  0  0  0
  1  2  2  0
  2  3  1  0
  3  4  1  0
  4  5  2  0
  4  6  1  0
  6  7  2  0
  7  8  1  0
  8  9  2  0
  9 10  1  0
 10 11  1  0
 11 12  1  0
 12 13  2  0
 13 14  1  0
 14 15  2  0
 15 16  1  0
 16 17  1  0
 16 18  2  0
 10 19  1  0
 19 20  2  0
  2 21  1  0
 21 22  2  0
 22 23  1  0
 23 24  2  0
 24 25  1  0
 25 26  2  0
 19  6  1  0
 26 21  1  0
 18 12  1  0
  3 27  1  0
  7 28  1  0
  8 29  1  0
  9 30  1  0
 11 31  1  0
 11 32  1  0
 13 33  1  0
 14 34  1  0
 15 35  1  0
 17 36  1  0
 18 37  1  0
 22 38  1  0
 23 39  1  0
 24 40  1  0
 25 41  1  0
 26 42  1  0
M  END
>  <UniqueID>  (44) 
43

>  <SMILES>  (44) 
O=C(NC(=O)c1cccn(Cc2cccc(O)c2)c1=O)c1ccccc1

>  <Energy>  (44) 
53.448916218783346

>  <Genealogy>  (44) 
O=C(NC(=O)c1cccn(Cc2cccc(O)c2)c1=O)c1ccccc1 (3D coordinates assigned)
O=C(NC(=O)c1cccn(Cc2cccc(O)c2)c1=O)c1ccccc1 (optimized conformer: 53.448916218783346 kcal/mol)

>  <smiles>  (44) 
O=C(NC(=O)c1cccn(Cc2cccc(O)c2)c1=O)c1ccccc1

>  <score_type>  (44) 
oracle

>  <origin>  (44) 
adg

>  <m_score__min__energy>  (44) 
-9.6400000000000006

>  <m_primary>  (44) 
energy

$$$$
44:0
     RDKit          3D

 52 55  0  0  0  0  0  0  0  0999 V2000
   57.8117   34.3367   47.3316 H   0  0  0  0  0  0  0  0  0  0  0  0
   57.8760   33.8250   46.3600 C   0  0  0  0  0  0  0  0  0  0  0  0
   57.0350   32.7940   46.0780 N   0  0  0  0  0  0  0  0  0  0  0  0
   57.0770   32.1230   44.8940 C   0  0  0  0  0  0  0  0  0  0  0  0
   56.2390   31.1420   44.7090 N   0  0  0  0  0  0  0  0  0  0  0  0
   56.5000   29.7340   44.8270 C   0  0  0  0  0  0  0  0  0  0  0  0
   55.5290   28.9370   44.8830 O   0  0  0  0  0  0  0  0  0  0  0  0
   57.8330   29.2110   44.9190 N   0  0  0  0  0  0  0  0  0  0  0  0
   58.6750   29.2260   46.0820 C   0  0  0  0  0  0  0  0  0  0  0  0
   58.6110   28.1510   46.9750 C   0  0  0  0  0  0  0  0  0  0  0  0
   57.9141   27.3218   46.7831 H   0  0  0  0  0  0  0  0  0  0  0  0
   59.4260   28.1240   48.1080 C   0  0  0  0  0  0  0  0  0  0  0  0
   59.3736   27.2721   48.8019 H   0  0  0  0  0  0  0  0  0  0  0  0
   60.3080   29.1770   48.3620 C   0  0  0  0  0  0  0  0  0  0  0  0
   60.9544   29.1467   49.2515 H   0  0  0  0  0  0  0  0  0  0  0  0
   60.3740   30.2740   47.4880 C   0  0  0  0  0  0  0  0  0  0  0  0
   61.2680   31.3700   47.7590 N   0  0  0  0  0  0  0  0  0  0  0  0
   62.0550   31.4200   48.9950 C   0  0  0  0  0  0  0  0  0  0  0  0
   61.7561   30.5869   49.6481 H   0  0  0  0  0  0  0  0  0  0  0  0
   63.1220   31.3390   48.7402 H   0  0  0  0  0  0  0  0  0  0  0  0
   61.8190   32.7540   49.7340 C   0  0  0  0  0  0  0  0  0  0  0  0
   61.0253   32.6005   50.4800 H   0  0  0  0  0  0  0  0  0  0  0  0
   62.7787   33.0398   50.1894 H   0  0  0  0  0  0  0  0  0  0  0  0
   61.4140   33.8750   48.8440 N   0  0  0  0  0  0  0  0  0  0  0  0
   59.9510   34.1030   48.8750 C   0  0  0  0  0  0  0  0  0  0  0  0
   59.7591   35.1818   48.9719 H   0  0  0  0  0  0  0  0  0  0  0  0
   59.5204   33.7116   47.9415 H   0  0  0  0  0  0  0  0  0  0  0  0
   59.3050   33.3840   50.0330 C   0  0  0  0  0  0  0  0  0  0  0  0
   59.4960   33.8410   51.3470 C   0  0  0  0  0  0  0  0  0  0  0  0
   60.1072   34.7367   51.5318 H   0  0  0  0  0  0  0  0  0  0  0  0
   58.9130   33.1630   52.4210 C   0  0  0  0  0  0  0  0  0  0  0  0
   59.0660   33.5266   53.4478 H   0  0  0  0  0  0  0  0  0  0  0  0
   58.1360   32.0240   52.1930 C   0  0  0  0  0  0  0  0  0  0  0  0
   57.5710   31.3680   53.2360 F   0  0  0  0  0  0  0  0  0  0  0  0
   57.9410   31.5610   50.8880 C   0  0  0  0  0  0  0  0  0  0  0  0
   57.3286   30.6648   50.7094 H   0  0  0  0  0  0  0  0  0  0  0  0
   58.5230   32.2350   49.8090 C   0  0  0  0  0  0  0  0  0  0  0  0
   58.3280   31.7690   48.5500 F   0  0  0  0  0  0  0  0  0  0  0  0
   61.9550   33.7240   47.4720 C   0  0  0  0  0  0  0  0  0  0  0  0
   61.6591   34.5993   46.8751 H   0  0  0  0  0  0  0  0  0  0  0  0
   63.0497   33.6443   47.5449 H   0  0  0  0  0  0  0  0  0  0  0  0
   61.4310   32.4540   46.7840 C   0  0  0  0  0  0  0  0  0  0  0  0
   60.4586   32.6703   46.3175 H   0  0  0  0  0  0  0  0  0  0  0  0
   62.1569   32.1385   46.0201 H   0  0  0  0  0  0  0  0  0  0  0  0
   59.5360   30.3020   46.3600 C   0  0  0  0  0  0  0  0  0  0  0  0
   59.5540   31.1734   45.6889 H   0  0  0  0  0  0  0  0  0  0  0  0
   58.0040   32.5300   43.9110 C   0  0  0  0  0  0  0  0  0  0  0  0
   58.0371   32.0219   42.9359 H   0  0  0  0  0  0  0  0  0  0  0  0
   58.8790   33.5830   44.1860 C   0  0  0  0  0  0  0  0  0  0  0  0
   59.6144   33.8988   43.4314 H   0  0  0  0  0  0  0  0  0  0  0  0
   58.8200   34.2340   45.4180 C   0  0  0  0  0  0  0  0  0  0  0  0
   59.5099   35.0604   45.6442 H   0  0  0  0  0  0  0  0  0  0  0  0
  1  2  1  0
  2  3  1  0
  3  4  1  0
  4  5  2  0
  5  6  1  0
  6  7  2  0
  6  8  1  0
  8  9  1  0
  9 10  2  0
 10 11  1  0
 10 12  1  0
 12 13  1  0
 12 14  2  0
 14 15  1  0
 14 16  1  0
 16 17  1  0
 17 18  1  0
 18 19  1  0
 18 20  1  0
 18 21  1  0
 21 22  1  0
 21 23  1  0
 21 24  1  0
 24 25  1  0
 25 26  1  0
 25 27  1  0
 25 28  1  0
 28 29  2  0
 29 30  1  0
 29 31  1  0
 31 32  1  0
 31 33  2  0
 33 34  1  0
 33 35  1  0
 35 36  1  0
 35 37  2  0
 37 38  1  0
 24 39  1  0
 39 40  1  0
 39 41  1  0
 39 42  1  0
 42 43  1  0
 42 44  1  0
 16 45  2  0
 45 46  1  0
  4 47  1  0
 47 48  1  0
 47 49  2  0
 49 50  1  0
 49 51  1  0
 51 52  1  0
 51  2  2  0
 45  9  1  0
 42 17  1  0
 37 28  1  0
M  CHG  2   3  -1   8  -1
M  END
>  <UniqueID>  (45) 
44

>  <SMILES>  (45) 
O=C(/N=c1\cccc[n-]1)[N-]c1cccc(N2CCN(Cc3ccc(F)cc3F)CC2)c1

>  <Energy>  (45) 
79.92600072591941

>  <Genealogy>  (45) 
O=C(N=c1cccc[n-]1)[N-]c1cccc(N2CCN(Cc3ccc(F)cc3F)CC2)c1 (protonated)
O=C(/N=c1\cccc[n-]1)[N-]c1cccc(N2CCN(Cc3ccc(F)cc3F)CC2)c1 (cis-trans isomerization)
O=C(/N=c1\cccc[n-]1)[N-]c1cccc(N2CCN(Cc3ccc(F)cc3F)CC2)c1 (3D coordinates assigned)
O=C(/N=c1\cccc[n-]1)[N-]c1cccc(N2CCN(Cc3ccc(F)cc3F)CC2)c1 (nonaromatic ring conformer: 79.92600072591941 kcal/mol)

>  <smiles>  (45) 
O=C(N=c1cccc[nH]1)Nc1cccc(N2CCN(Cc3ccc(F)cc3F)CC2)c1

>  <score_type>  (45) 
oracle

>  <origin>  (45) 
adg

>  <m_score__min__energy>  (45) 
-11.83

>  <m_primary>  (45) 
energy

$$$$
45:0
     RDKit          3D

 59 61  0  0  0  0  0  0  0  0999 V2000
   57.1270   30.5230   51.2790 O   0  0  0  0  0  0  0  0  0  0  0  0
   58.1820   31.1380   50.9730 C   0  0  0  0  0  0  0  0  0  0  0  0
   58.9320   31.8820   52.0410 C   0  0  0  0  0  0  0  0  0  0  0  0
   58.1210   33.4250   52.4120 Cl  0  0  0  0  0  0  0  0  0  0  0  0
   58.6120   31.1380   49.6060 N   0  0  0  0  0  0  0  0  0  0  0  0
   58.7420   32.2840   48.7530 C   0  0  0  0  0  0  0  0  0  0  0  0
   59.5080   33.4000   49.1310 C   0  0  0  0  0  0  0  0  0  0  0  0
   59.6450   34.4850   48.2620 C   0  0  0  0  0  0  0  0  0  0  0  0
   59.0330   34.4600   47.0070 C   0  0  0  0  0  0  0  0  0  0  0  0
   58.2850   33.3440   46.6110 C   0  0  0  0  0  0  0  0  0  0  0  0
   57.5480   33.3100   45.0110 S   0  0  0  0  0  0  0  0  0  0  0  0
   56.7720   34.5750   44.7670 O   0  0  0  0  0  0  0  0  0  0  0  0
   58.6320   33.2080   43.9760 O   0  0  0  0  0  0  0  0  0  0  0  0
   56.4930   31.9370   44.8700 N   0  0  0  0  0  0  0  0  0  0  0  0
   57.0660   30.9650   43.9430 C   0  0  0  0  0  0  0  0  0  0  0  0
   57.7950   29.9120   44.7250 C   0  0  0  0  0  0  0  0  0  0  0  0
   59.1830   29.7550   44.5810 C   0  0  0  0  0  0  0  0  0  0  0  0
   59.8560   28.7520   45.2830 C   0  0  0  0  0  0  0  0  0  0  0  0
   59.1490   27.8840   46.1240 C   0  0  0  0  0  0  0  0  0  0  0  0
   60.0060   26.6300   47.0150 S   0  0  0  0  0  0  0  0  0  0  0  0
   59.2380   25.3390   46.9860 O   0  0  0  0  0  0  0  0  0  0  0  0
   61.3480   26.3980   46.3780 O   0  0  0  0  0  0  0  0  0  0  0  0
   60.2360   27.1330   48.6560 N   0  0  0  0  0  0  0  0  0  0  0  0
   60.4890   28.4920   49.0150 C   0  0  0  0  0  0  0  0  0  0  0  0
   60.1880   28.9100   50.1660 O   0  0  0  0  0  0  0  0  0  0  0  0
   61.0920   29.3710   48.0560 N   0  0  0  0  0  0  0  0  0  0  0  0
   61.4910   30.7440   48.3810 C   0  0  0  0  0  0  0  0  0  0  0  0
   62.4050   30.7430   49.6160 C   0  0  0  0  0  0  0  0  0  0  0  0
   62.7840   32.1740   50.0480 C   0  0  0  0  0  0  0  0  0  0  0  0
   62.7990   33.1840   48.8840 C   0  0  0  0  0  0  0  0  0  0  0  0
   63.1850   32.5160   47.5620 C   0  0  0  0  0  0  0  0  0  0  0  0
   62.1930   31.4010   47.1670 C   0  0  0  0  0  0  0  0  0  0  0  0
   57.7620   28.0310   46.2630 C   0  0  0  0  0  0  0  0  0  0  0  0
   57.0870   29.0350   45.5620 C   0  0  0  0  0  0  0  0  0  0  0  0
   58.1540   32.2530   47.4820 C   0  0  0  0  0  0  0  0  0  0  0  0
   58.9722   31.2659   52.9514 H   0  0  0  0  0  0  0  0  0  0  0  0
   59.9498   32.0922   51.6807 H   0  0  0  0  0  0  0  0  0  0  0  0
   60.0011   33.4191   50.1141 H   0  0  0  0  0  0  0  0  0  0  0  0
   60.2363   35.3611   48.5669 H   0  0  0  0  0  0  0  0  0  0  0  0
   59.1386   35.3188   46.3278 H   0  0  0  0  0  0  0  0  0  0  0  0
   56.2619   30.4973   43.3559 H   0  0  0  0  0  0  0  0  0  0  0  0
   57.7651   31.4707   43.2608 H   0  0  0  0  0  0  0  0  0  0  0  0
   59.7431   30.4250   43.9122 H   0  0  0  0  0  0  0  0  0  0  0  0
   60.9453   28.6438   45.1747 H   0  0  0  0  0  0  0  0  0  0  0  0
   61.4070   28.9570   47.1510 H   0  0  0  0  0  0  0  0  0  0  0  0
   60.5941   31.3366   48.6142 H   0  0  0  0  0  0  0  0  0  0  0  0
   61.8811   30.2472   50.4465 H   0  0  0  0  0  0  0  0  0  0  0  0
   63.3301   30.2074   49.3567 H   0  0  0  0  0  0  0  0  0  0  0  0
   62.0544   32.5164   50.7967 H   0  0  0  0  0  0  0  0  0  0  0  0
   63.8064   32.1301   50.4514 H   0  0  0  0  0  0  0  0  0  0  0  0
   61.7966   33.6252   48.7815 H   0  0  0  0  0  0  0  0  0  0  0  0
   63.5479   33.9574   49.1097 H   0  0  0  0  0  0  0  0  0  0  0  0
   63.1969   33.2782   46.7690 H   0  0  0  0  0  0  0  0  0  0  0  0
   64.1774   32.0589   47.6890 H   0  0  0  0  0  0  0  0  0  0  0  0
   61.4232   31.8351   46.5120 H   0  0  0  0  0  0  0  0  0  0  0  0
   62.7729   30.6142   46.6623 H   0  0  0  0  0  0  0  0  0  0  0  0
   57.2027   27.3543   46.9257 H   0  0  0  0  0  0  0  0  0  0  0  0
   55.9969   29.1381   45.6667 H   0  0  0  0  0  0  0  0  0  0  0  0
   57.5854   31.3664   47.1649 H   0  0  0  0  0  0  0  0  0  0  0  0
  1  2  2  0
  2  3  1  0
  3  4  1  0
  2  5  1  0
  5  6  1  0
  6  7  2  0
  7  8  1  0
  8  9  2  0
  9 10  1  0
 10 11  1  0
 11 12  2  0
 11 13  2  0
 11 14  1  0
 14 15  1  0
 15 16  1  0
 16 17  2  0
 17 18  1  0
 18 19  2  0
 19 20  1  0
 20 21  2  0
 20 22  2  0
 20 23  1  0
 23 24  1  0
 24 25  2  0
 24 26  1  0
 26 27  1  0
 27 28  1  0
 28 29  1  0
 29 30  1  0
 30 31  1  0
 31 32  1  0
 19 33  1  0
 33 34  2  0
 10 35  2  0
 35  6  1  0
 34 16  1  0
 32 27  1  0
  3 36  1  0
  3 37  1  0
  7 38  1  0
  8 39  1  0
  9 40  1  0
 15 41  1  0
 15 42  1  0
 17 43  1  0
 18 44  1  0
 26 45  1  0
 27 46  1  0
 28 47  1  0
 28 48  1  0
 29 49  1  0
 29 50  1  0
 30 51  1  0
 30 52  1  0
 31 53  1  0
 31 54  1  0
 32 55  1  0
 32 56  1  0
 33 57  1  0
 34 58  1  0
 35 59  1  0
M  CHG  3   5  -1  14  -1  23  -1
M  END
>  <UniqueID>  (46) 
45

>  <SMILES>  (46) 
O=C(CCl)[N-]c1cccc(S(=O)(=O)[N-]Cc2ccc(S(=O)(=O)[N-]C(=O)NC3CCCCC3)cc2)c1

>  <Energy>  (46) 
63.288849882834405

>  <Genealogy>  (46) 
O=C(CCl)[N-]c1cccc(S(=O)(=O)[N-]Cc2ccc(S(=O)(=O)[N-]C(=O)NC3CCCCC3)cc2)c1 (protonated)
O=C(CCl)[N-]c1cccc(S(=O)(=O)[N-]Cc2ccc(S(=O)(=O)[N-]C(=O)NC3CCCCC3)cc2)c1 (3D coordinates assigned)
O=C(CCl)[N-]c1cccc(S(=O)(=O)[N-]Cc2ccc(S(=O)(=O)[N-]C(=O)NC3CCCCC3)cc2)c1 (nonaromatic ring conformer: 63.288849882834405 kcal/mol)

>  <smiles>  (46) 
O=C(CCl)Nc1cccc(S(=O)(=O)NCc2ccc(S(=O)(=O)NC(=O)NC3CCCCC3)cc2)c1

>  <score_type>  (46) 
oracle

>  <origin>  (46) 
adg

>  <m_score__min__energy>  (46) 
-14.27

>  <m_primary>  (46) 
energy

$$$$
46:0
     RDKit          3D

 57 60  0  0  0  0  0  0  0  0999 V2000
   57.0240   31.5660   42.5700 O   0  0  0  0  0  0  0  0  0  0  0  0
   57.0370   31.5290   43.8300 C   0  0  0  0  0  0  0  0  0  0  0  0
   56.6120   30.3370   44.4960 N   0  0  0  0  0  0  0  0  0  0  0  0
   57.4570   29.5790   45.3680 C   0  0  0  0  0  0  0  0  0  0  0  0
   58.2610   30.0720   46.3790 C   0  0  0  0  0  0  0  0  0  0  0  0
   58.9170   28.9760   46.9010 C   0  0  0  0  0  0  0  0  0  0  0  0
   58.5510   27.8540   46.2390 N   0  0  0  0  0  0  0  0  0  0  0  0
   59.0130   26.5150   46.4800 C   0  0  0  0  0  0  0  0  0  0  0  0
   60.0930   26.1210   45.9610 O   0  0  0  0  0  0  0  0  0  0  0  0
   58.2180   25.5490   47.3130 C   0  0  0  0  0  0  0  0  0  0  0  0
   56.7390   25.5800   46.9240 C   0  0  0  0  0  0  0  0  0  0  0  0
   56.4900   24.6240   45.8310 N   0  0  0  0  0  0  0  0  0  0  0  0
   57.5260   23.8570   45.3680 C   0  0  0  0  0  0  0  0  0  0  0  0
   57.3410   22.9890   44.2920 C   0  0  0  0  0  0  0  0  0  0  0  0
   56.0820   22.9280   43.6970 C   0  0  0  0  0  0  0  0  0  0  0  0
   55.8810   22.1630   42.7160 O   0  0  0  0  0  0  0  0  0  0  0  0
   55.0720   23.6990   44.1710 N   0  0  0  0  0  0  0  0  0  0  0  0
   55.2610   24.5420   45.2250 C   0  0  0  0  0  0  0  0  0  0  0  0
   54.2950   25.2440   45.6260 O   0  0  0  0  0  0  0  0  0  0  0  0
   57.6640   28.2210   45.2890 C   0  0  0  0  0  0  0  0  0  0  0  0
   57.4640   32.6790   44.5770 N   0  0  0  0  0  0  0  0  0  0  0  0
   56.6480   33.1820   45.6920 C   0  0  0  0  0  0  0  0  0  0  0  0
   57.5310   33.4910   46.9110 C   0  0  0  0  0  0  0  0  0  0  0  0
   58.8520   33.9970   46.5100 N   0  0  0  0  0  0  0  0  0  0  0  0
   59.9640   33.8870   47.4230 C   0  0  0  0  0  0  0  0  0  0  0  0
   59.8260   34.2710   48.7630 C   0  0  0  0  0  0  0  0  0  0  0  0
   60.9240   34.2290   49.6260 C   0  0  0  0  0  0  0  0  0  0  0  0
   62.1710   33.8050   49.1600 C   0  0  0  0  0  0  0  0  0  0  0  0
   62.3300   33.4060   47.8240 C   0  0  0  0  0  0  0  0  0  0  0  0
   63.6920   33.0170   47.3080 C   0  0  0  0  0  0  0  0  0  0  0  0
   64.6750   33.3730   48.2140 F   0  0  0  0  0  0  0  0  0  0  0  0
   63.7690   31.6500   47.1050 F   0  0  0  0  0  0  0  0  0  0  0  0
   63.9280   33.6670   46.1100 F   0  0  0  0  0  0  0  0  0  0  0  0
   61.2250   33.4760   46.9560 C   0  0  0  0  0  0  0  0  0  0  0  0
   59.0350   34.5110   45.1450 C   0  0  0  0  0  0  0  0  0  0  0  0
   58.6530   33.4240   44.1330 C   0  0  0  0  0  0  0  0  0  0  0  0
   58.3576   31.1196   46.7003 H   0  0  0  0  0  0  0  0  0  0  0  0
   59.6338   29.0095   47.7347 H   0  0  0  0  0  0  0  0  0  0  0  0
   58.6098   24.5329   47.1580 H   0  0  0  0  0  0  0  0  0  0  0  0
   58.3091   25.8394   48.3701 H   0  0  0  0  0  0  0  0  0  0  0  0
   56.1264   25.3058   47.7955 H   0  0  0  0  0  0  0  0  0  0  0  0
   56.4732   26.5931   46.5879 H   0  0  0  0  0  0  0  0  0  0  0  0
   58.5128   23.9262   45.8491 H   0  0  0  0  0  0  0  0  0  0  0  0
   58.1693   22.3671   43.9216 H   0  0  0  0  0  0  0  0  0  0  0  0
   57.1841   27.5431   44.5678 H   0  0  0  0  0  0  0  0  0  0  0  0
   56.1322   34.1010   45.3768 H   0  0  0  0  0  0  0  0  0  0  0  0
   55.9147   32.4111   45.9712 H   0  0  0  0  0  0  0  0  0  0  0  0
   57.0311   34.2504   47.5302 H   0  0  0  0  0  0  0  0  0  0  0  0
   57.6773   32.5577   47.4744 H   0  0  0  0  0  0  0  0  0  0  0  0
   58.8481   34.6074   49.1378 H   0  0  0  0  0  0  0  0  0  0  0  0
   60.8061   34.5311   50.6771 H   0  0  0  0  0  0  0  0  0  0  0  0
   63.0325   33.7838   49.8437 H   0  0  0  0  0  0  0  0  0  0  0  0
   61.3493   33.2054   45.8971 H   0  0  0  0  0  0  0  0  0  0  0  0
   58.3935   35.3921   44.9961 H   0  0  0  0  0  0  0  0  0  0  0  0
   60.0877   34.7943   44.9984 H   0  0  0  0  0  0  0  0  0  0  0  0
   58.4392   33.8960   43.1627 H   0  0  0  0  0  0  0  0  0  0  0  0
   59.4930   32.7194   44.0443 H   0  0  0  0  0  0  0  0  0  0  0  0
  1  2  2  0
  2  3  1  0
  3  4  1  0
  4  5  1  0
  5  6  2  0
  6  7  1  0
  7  8  1  0
  8  9  2  0
  8 10  1  0
 10 11  1  0
 11 12  1  0
 12 13  1  0
 13 14  2  0
 14 15  1  0
 15 16  2  0
 15 17  1  0
 17 18  1  0
 18 19  2  0
  7 20  1  0
  2 21  1  0
 21 22  1  0
 22 23  1  0
 23 24  1  0
 24 25  1  0
 25 26  2  0
 26 27  1  0
 27 28  2  0
 28 29  1  0
 29 30  1  0
 30 31  1  0
 30 32  1  0
 30 33  1  0
 29 34  2  0
 24 35  1  0
 35 36  1  0
 20  4  2  0
 36 21  1  0
 18 12  1  0
 34 25  1  0
  5 37  1  0
  6 38  1  0
 10 39  1  0
 10 40  1  0
 11 41  1  0
 11 42  1  0
 13 43  1  0
 14 44  1  0
 20 45  1  0
 22 46  1  0
 22 47  1  0
 23 48  1  0
 23 49  1  0
 26 50  1  0
 27 51  1  0
 28 52  1  0
 34 53  1  0
 35 54  1  0
 35 55  1  0
 36 56  1  0
 36 57  1  0
M  CHG  2   3  -1  17  -1
M  END
>  <UniqueID>  (47) 
46

>  <SMILES>  (47) 
O=C([N-]c1ccn(C(=O)CCn2ccc(=O)[n-]c2=O)c1)N1CCN(c2cccc(C(F)(F)F)c2)CC1

>  <Energy>  (47) 
94.84503005939162

>  <Genealogy>  (47) 
O=C([N-]c1ccn(C(=O)CCn2ccc(=O)[n-]c2=O)c1)N1CCN(c2cccc(C(F)(F)F)c2)CC1 (protonated)
O=C([N-]c1ccn(C(=O)CCn2ccc(=O)[n-]c2=O)c1)N1CCN(c2cccc(C(F)(F)F)c2)CC1 (3D coordinates assigned)
O=C([N-]c1ccn(C(=O)CCn2ccc(=O)[n-]c2=O)c1)N1CCN(c2cccc(C(F)(F)F)c2)CC1 (nonaromatic ring conformer: 94.84503005939162 kcal/mol)

>  <smiles>  (47) 
O=C(Nc1ccn(C(=O)CCn2ccc(=O)[nH]c2=O)c1)N1CCN(c2cccc(C(F)(F)F)c2)CC1

>  <score_type>  (47) 
oracle

>  <origin>  (47) 
adg

>  <m_score__min__energy>  (47) 
-13.02

>  <m_primary>  (47) 
energy

$$$$
47:0
     RDKit          3D

 46 48  0  0  0  0  0  0  0  0999 V2000
   58.5100   31.5370   49.8190 C   0  0  0  0  0  0  0  0  0  0  0  0
   59.1590   30.4180   49.0780 C   0  0  0  0  0  0  0  0  0  0  0  0
   60.4740   30.3350   48.8090 N   0  0  0  0  0  0  0  0  0  0  0  0
   60.6780   29.1940   48.1730 N   0  0  0  0  0  0  0  0  0  0  0  0
   59.4620   28.6160   48.0760 C   0  0  0  0  0  0  0  0  0  0  0  0
   59.2090   27.2820   47.4370 C   0  0  0  0  0  0  0  0  0  0  0  0
   59.3700   27.3010   45.9670 N   0  0  0  0  0  0  0  0  0  0  0  0
   60.4930   28.1330   45.4750 C   0  0  0  0  0  0  0  0  0  0  0  0
   60.0950   29.6020   45.2290 C   0  0  0  0  0  0  0  0  0  0  0  0
   58.7080   29.7150   44.7550 N   0  0  0  0  0  0  0  0  0  0  0  0
   57.8910   30.8530   45.1120 C   0  0  0  0  0  0  0  0  0  0  0  0
   56.6450   30.7050   45.2450 O   0  0  0  0  0  0  0  0  0  0  0  0
   58.4770   32.1890   45.3650 C   0  0  0  0  0  0  0  0  0  0  0  0
   57.9770   33.3130   44.6880 C   0  0  0  0  0  0  0  0  0  0  0  0
   58.5270   34.5770   44.9140 C   0  0  0  0  0  0  0  0  0  0  0  0
   59.5840   34.7320   45.8130 C   0  0  0  0  0  0  0  0  0  0  0  0
   60.0990   33.6220   46.4980 C   0  0  0  0  0  0  0  0  0  0  0  0
   61.2100   33.7970   47.3920 N   0  0  0  0  0  0  0  0  0  0  0  0
   62.3300   32.9020   47.4560 C   0  0  0  0  0  0  0  0  0  0  0  0
   62.1810   31.5150   47.1370 N   0  0  0  0  0  0  0  0  0  0  0  0
   63.7510   33.4370   48.0670 S   0  0  0  0  0  0  0  0  0  0  0  0
   59.5590   32.3480   46.2470 C   0  0  0  0  0  0  0  0  0  0  0  0
   58.0990   28.5200   44.1670 C   0  0  0  0  0  0  0  0  0  0  0  0
   58.0990   27.3920   45.2040 C   0  0  0  0  0  0  0  0  0  0  0  0
   58.5280   29.3620   48.6240 O   0  0  0  0  0  0  0  0  0  0  0  0
   58.6090   31.3663   50.9012 H   0  0  0  0  0  0  0  0  0  0  0  0
   58.9980   32.4858   49.5513 H   0  0  0  0  0  0  0  0  0  0  0  0
   57.4441   31.5846   49.5513 H   0  0  0  0  0  0  0  0  0  0  0  0
   61.2180   31.0240   49.0530 H   0  0  0  0  0  0  0  0  0  0  0  0
   59.9176   26.5530   47.8570 H   0  0  0  0  0  0  0  0  0  0  0  0
   58.1641   27.0109   47.6482 H   0  0  0  0  0  0  0  0  0  0  0  0
   61.2998   28.1094   46.2223 H   0  0  0  0  0  0  0  0  0  0  0  0
   60.8132   27.7139   44.5097 H   0  0  0  0  0  0  0  0  0  0  0  0
   60.1973   30.1619   46.1703 H   0  0  0  0  0  0  0  0  0  0  0  0
   60.7581   30.0128   44.4534 H   0  0  0  0  0  0  0  0  0  0  0  0
   57.1471   33.1974   43.9753 H   0  0  0  0  0  0  0  0  0  0  0  0
   58.1263   35.4526   44.3823 H   0  0  0  0  0  0  0  0  0  0  0  0
   60.0148   35.7295   45.9847 H   0  0  0  0  0  0  0  0  0  0  0  0
   61.1930   34.6130   48.0450 H   0  0  0  0  0  0  0  0  0  0  0  0
   61.2440   31.1110   46.9260 H   0  0  0  0  0  0  0  0  0  0  0  0
   63.0020   30.8720   47.1720 H   0  0  0  0  0  0  0  0  0  0  0  0
   59.9882   31.4669   46.7464 H   0  0  0  0  0  0  0  0  0  0  0  0
   57.0647   28.7439   43.8670 H   0  0  0  0  0  0  0  0  0  0  0  0
   58.6747   28.2090   43.2828 H   0  0  0  0  0  0  0  0  0  0  0  0
   57.2770   27.5687   45.9132 H   0  0  0  0  0  0  0  0  0  0  0  0
   57.9761   26.4450   44.6580 H   0  0  0  0  0  0  0  0  0  0  0  0
  1  2  1  0
  2  3  2  0
  3  4  1  0
  4  5  2  0
  5  6  1  0
  6  7  1  0
  7  8  1  0
  8  9  1  0
  9 10  1  0
 10 11  1  0
 11 12  2  0
 11 13  1  0
 13 14  2  0
 14 15  1  0
 15 16  2  0
 16 17  1  0
 17 18  1  0
 18 19  1  0
 19 20  1  0
 19 21  2  0
 17 22  2  0
 10 23  1  0
 23 24  1  0
  5 25  1  0
 25  2  1  0
 24  7  1  0
 22 13  1  0
  1 26  1  0
  1 27  1  0
  1 28  1  0
  3 29  1  0
  6 30  1  0
  6 31  1  0
  8 32  1  0
  8 33  1  0
  9 34  1  0
  9 35  1  0
 14 36  1  0
 15 37  1  0
 16 38  1  0
 18 39  1  0
 20 40  1  0
 20 41  1  0
 22 42  1  0
 23 43  1  0
 23 44  1  0
 24 45  1  0
 24 46  1  0
M  CHG  1   3   1
M  END
>  <UniqueID>  (48) 
47

>  <SMILES>  (48) 
Cc1[nH+]nc(CN2CCN(C(=O)c3cccc(NC(N)=S)c3)CC2)o1

>  <Energy>  (48) 
95.19022047588753

>  <Genealogy>  (48) 
Cc1[nH+]nc(CN2CCN(C(=O)c3cccc(NC(N)=S)c3)CC2)o1 (protonated)
Cc1[nH+]nc(CN2CCN(C(=O)c3cccc(NC(N)=S)c3)CC2)o1 (3D coordinates assigned)
Cc1[nH+]nc(CN2CCN(C(=O)c3cccc(NC(N)=S)c3)CC2)o1 (nonaromatic ring conformer: 95.19022047588753 kcal/mol)

>  <smiles>  (48) 
Cc1nnc(CN2CCN(C(=O)c3cccc(NC(N)=S)c3)CC2)o1

>  <score_type>  (48) 
oracle

>  <origin>  (48) 
adg

>  <m_score__min__energy>  (48) 
-7.0700000000000003

>  <m_primary>  (48) 
energy

$$$$
48:0
     RDKit          3D

 46 49  0  0  0  0  0  0  0  0999 V2000
   57.7560   25.5980   47.4990 C   0  0  0  0  0  0  0  0  0  0  0  0
   58.1760   26.9090   46.9840 N   0  0  0  0  0  0  0  0  0  0  0  0
   57.6060   27.4690   45.8590 C   0  0  0  0  0  0  0  0  0  0  0  0
   56.6970   26.8460   45.2420 O   0  0  0  0  0  0  0  0  0  0  0  0
   58.0250   28.7060   45.3920 N   0  0  0  0  0  0  0  0  0  0  0  0
   57.4190   29.2810   44.1760 C   0  0  0  0  0  0  0  0  0  0  0  0
   56.2120   30.0860   44.5380 C   0  0  0  0  0  0  0  0  0  0  0  0
   55.1540   29.5000   44.8960 O   0  0  0  0  0  0  0  0  0  0  0  0
   56.2740   31.5160   44.4750 N   0  0  0  0  0  0  0  0  0  0  0  0
   57.3030   32.3490   45.0290 C   0  0  0  0  0  0  0  0  0  0  0  0
   58.2190   33.0420   44.2190 C   0  0  0  0  0  0  0  0  0  0  0  0
   59.2240   33.8210   44.8000 C   0  0  0  0  0  0  0  0  0  0  0  0
   59.3310   33.9200   46.1920 C   0  0  0  0  0  0  0  0  0  0  0  0
   60.3620   34.7020   46.7350 O   0  0  0  0  0  0  0  0  0  0  0  0
   61.5000   34.2060   47.3870 C   0  0  0  0  0  0  0  0  0  0  0  0
   62.5750   33.7510   46.6130 C   0  0  0  0  0  0  0  0  0  0  0  0
   63.7320   33.2610   47.2270 C   0  0  0  0  0  0  0  0  0  0  0  0
   63.8280   33.2360   48.6210 C   0  0  0  0  0  0  0  0  0  0  0  0
   62.7690   33.7080   49.4020 C   0  0  0  0  0  0  0  0  0  0  0  0
   61.6100   34.1970   48.7910 C   0  0  0  0  0  0  0  0  0  0  0  0
   58.4410   33.1930   47.0020 C   0  0  0  0  0  0  0  0  0  0  0  0
   57.4370   32.4130   46.4220 C   0  0  0  0  0  0  0  0  0  0  0  0
   59.0500   29.3730   46.0250 C   0  0  0  0  0  0  0  0  0  0  0  0
   59.4730   30.4840   45.6030 O   0  0  0  0  0  0  0  0  0  0  0  0
   59.6240   28.7930   47.1440 C   0  0  0  0  0  0  0  0  0  0  0  0
   60.6520   29.2010   47.9660 C   0  0  0  0  0  0  0  0  0  0  0  0
   60.7850   28.1840   48.9050 C   0  0  0  0  0  0  0  0  0  0  0  0
   59.8880   27.1980   48.6750 N   0  0  0  0  0  0  0  0  0  0  0  0
   59.1840   27.5900   47.5960 C   0  0  0  0  0  0  0  0  0  0  0  0
   57.7621   25.6170   48.5988 H   0  0  0  0  0  0  0  0  0  0  0  0
   56.7405   25.3719   47.1418 H   0  0  0  0  0  0  0  0  0  0  0  0
   58.4511   24.8239   47.1418 H   0  0  0  0  0  0  0  0  0  0  0  0
   58.1527   29.9296   43.6751 H   0  0  0  0  0  0  0  0  0  0  0  0
   57.1201   28.4654   43.5011 H   0  0  0  0  0  0  0  0  0  0  0  0
   58.1449   32.9712   43.1238 H   0  0  0  0  0  0  0  0  0  0  0  0
   59.9362   34.3603   44.1582 H   0  0  0  0  0  0  0  0  0  0  0  0
   62.5088   33.7792   45.5154 H   0  0  0  0  0  0  0  0  0  0  0  0
   64.5674   32.8949   46.6121 H   0  0  0  0  0  0  0  0  0  0  0  0
   64.7361   32.8452   49.1033 H   0  0  0  0  0  0  0  0  0  0  0  0
   62.8475   33.6947   50.4991 H   0  0  0  0  0  0  0  0  0  0  0  0
   60.7822   34.5756   49.4086 H   0  0  0  0  0  0  0  0  0  0  0  0
   58.5354   33.2384   48.0970 H   0  0  0  0  0  0  0  0  0  0  0  0
   56.7471   31.8453   47.0637 H   0  0  0  0  0  0  0  0  0  0  0  0
   61.2391   30.1285   47.8949 H   0  0  0  0  0  0  0  0  0  0  0  0
   61.5198   28.1817   49.7236 H   0  0  0  0  0  0  0  0  0  0  0  0
   59.7830   26.3180   49.2260 H   0  0  0  0  0  0  0  0  0  0  0  0
  1  2  1  0
  2  3  1  0
  3  4  2  0
  3  5  1  0
  5  6  1  0
  6  7  1  0
  7  8  2  0
  7  9  1  0
  9 10  1  0
 10 11  2  0
 11 12  1  0
 12 13  2  0
 13 14  1  0
 14 15  1  0
 15 16  2  0
 16 17  1  0
 17 18  2  0
 18 19  1  0
 19 20  2  0
 13 21  1  0
 21 22  2  0
  5 23  1  0
 23 24  2  0
 23 25  1  0
 25 26  1  0
 26 27  2  0
 27 28  1  0
 28 29  1  0
 29  2  1  0
 22 10  1  0
 29 25  2  0
 20 15  1  0
  1 30  1  0
  1 31  1  0
  1 32  1  0
  6 33  1  0
  6 34  1  0
 11 35  1  0
 12 36  1  0
 16 37  1  0
 17 38  1  0
 18 39  1  0
 19 40  1  0
 20 41  1  0
 21 42  1  0
 22 43  1  0
 26 44  1  0
 27 45  1  0
 28 46  1  0
M  CHG  1   9  -1
M  END
>  <UniqueID>  (49) 
48

>  <SMILES>  (49) 
Cn1c(=O)n(CC(=O)[N-]c2ccc(Oc3ccccc3)cc2)c(=O)c2cc[nH]c21

>  <Energy>  (49) 
99.88061554420739

>  <Genealogy>  (49) 
Cn1c(=O)n(CC(=O)[N-]c2ccc(Oc3ccccc3)cc2)c(=O)c2cc[nH]c21 (protonated)
Cn1c(=O)n(CC(=O)[N-]c2ccc(Oc3ccccc3)cc2)c(=O)c2cc[nH]c21 (3D coordinates assigned)
Cn1c(=O)n(CC(=O)[N-]c2ccc(Oc3ccccc3)cc2)c(=O)c2cc[nH]c21 (optimized conformer: 99.88061554420739 kcal/mol)

>  <smiles>  (49) 
Cn1c(=O)n(CC(=O)Nc2ccc(Oc3ccccc3)cc2)c(=O)c2cc[nH]c21

>  <score_type>  (49) 
oracle

>  <origin>  (49) 
adg

>  <m_score__min__energy>  (49) 
-9.7699999999999996

>  <m_primary>  (49) 
energy

$$$$
49:0
     RDKit          3D

 57 60  0  0  0  0  0  0  0  0999 V2000
   63.2680   31.5720   47.5410 C   0  0  0  0  0  0  0  0  0  0  0  0
   62.1030   32.4710   47.8580 C   0  0  0  0  0  0  0  0  0  0  0  0
   61.6830   33.3770   46.9230 N   0  0  0  0  0  0  0  0  0  0  0  0
   60.6360   34.2290   47.1600 C   0  0  0  0  0  0  0  0  0  0  0  0
   60.2350   35.1080   46.2820 N   0  0  0  0  0  0  0  0  0  0  0  0
   59.2480   34.9560   45.2500 C   0  0  0  0  0  0  0  0  0  0  0  0
   58.9470   35.9310   44.5080 O   0  0  0  0  0  0  0  0  0  0  0  0
   58.6530   33.6240   44.9890 C   0  0  0  0  0  0  0  0  0  0  0  0
   58.3370   32.7590   46.0530 C   0  0  0  0  0  0  0  0  0  0  0  0
   57.7730   31.5040   45.8050 C   0  0  0  0  0  0  0  0  0  0  0  0
   57.5220   31.0910   44.4910 C   0  0  0  0  0  0  0  0  0  0  0  0
   56.8130   29.5120   44.1590 S   0  0  0  0  0  0  0  0  0  0  0  0
   55.4900   29.4280   44.8670 O   0  0  0  0  0  0  0  0  0  0  0  0
   56.5880   29.3460   42.6810 O   0  0  0  0  0  0  0  0  0  0  0  0
   57.8740   28.2480   44.7350 N   0  0  0  0  0  0  0  0  0  0  0  0
   57.5690   27.9380   46.1500 C   0  0  0  0  0  0  0  0  0  0  0  0
   58.7170   27.1780   46.8180 C   0  0  0  0  0  0  0  0  0  0  0  0
   60.0040   28.0200   46.8380 C   0  0  0  0  0  0  0  0  0  0  0  0
   60.0410   29.0760   45.7200 C   0  0  0  0  0  0  0  0  0  0  0  0
   59.2960   28.5840   44.4700 C   0  0  0  0  0  0  0  0  0  0  0  0
   57.8420   31.9410   43.4270 C   0  0  0  0  0  0  0  0  0  0  0  0
   58.4010   33.1990   43.6720 C   0  0  0  0  0  0  0  0  0  0  0  0
   59.9910   34.1950   48.3990 C   0  0  0  0  0  0  0  0  0  0  0  0
   60.3830   33.2680   49.3600 C   0  0  0  0  0  0  0  0  0  0  0  0
   61.4340   32.3840   49.0970 C   0  0  0  0  0  0  0  0  0  0  0  0
   61.8110   31.4130   50.0860 N   0  0  0  0  0  0  0  0  0  0  0  0
   63.0450   31.4900   50.8510 C   0  0  0  0  0  0  0  0  0  0  0  0
   63.1860   30.1370   51.5750 C   0  0  0  0  0  0  0  0  0  0  0  0
   62.1310   29.1930   50.9830 C   0  0  0  0  0  0  0  0  0  0  0  0
   61.3240   30.0840   50.1260 C   0  0  0  0  0  0  0  0  0  0  0  0
   60.3070   29.7050   49.4870 O   0  0  0  0  0  0  0  0  0  0  0  0
   63.7247   31.2196   48.4776 H   0  0  0  0  0  0  0  0  0  0  0  0
   62.9166   30.7087   46.9569 H   0  0  0  0  0  0  0  0  0  0  0  0
   64.0140   32.1308   46.9569 H   0  0  0  0  0  0  0  0  0  0  0  0
   62.2200   33.4310   46.0320 H   0  0  0  0  0  0  0  0  0  0  0  0
   58.5354   33.0729   47.0884 H   0  0  0  0  0  0  0  0  0  0  0  0
   57.5256   30.8387   46.6453 H   0  0  0  0  0  0  0  0  0  0  0  0
   57.3994   28.8792   46.6935 H   0  0  0  0  0  0  0  0  0  0  0  0
   56.6718   27.3022   46.1782 H   0  0  0  0  0  0  0  0  0  0  0  0
   58.4319   26.9337   47.8519 H   0  0  0  0  0  0  0  0  0  0  0  0
   58.9096   26.2610   46.2418 H   0  0  0  0  0  0  0  0  0  0  0  0
   60.0738   28.5328   47.8087 H   0  0  0  0  0  0  0  0  0  0  0  0
   60.8505   27.3363   46.6768 H   0  0  0  0  0  0  0  0  0  0  0  0
   59.5649   29.9992   46.0819 H   0  0  0  0  0  0  0  0  0  0  0  0
   61.0909   29.2627   45.4502 H   0  0  0  0  0  0  0  0  0  0  0  0
   59.3326   29.3750   43.7064 H   0  0  0  0  0  0  0  0  0  0  0  0
   59.7937   27.6629   44.1324 H   0  0  0  0  0  0  0  0  0  0  0  0
   57.6529   31.6181   42.3926 H   0  0  0  0  0  0  0  0  0  0  0  0
   58.6455   33.8613   42.8285 H   0  0  0  0  0  0  0  0  0  0  0  0
   59.1745   34.9000   48.6145 H   0  0  0  0  0  0  0  0  0  0  0  0
   59.8645   33.2306   50.3294 H   0  0  0  0  0  0  0  0  0  0  0  0
   63.9006   31.6543   50.1794 H   0  0  0  0  0  0  0  0  0  0  0  0
   63.0230   32.3266   51.5648 H   0  0  0  0  0  0  0  0  0  0  0  0
   64.1932   29.7258   51.4124 H   0  0  0  0  0  0  0  0  0  0  0  0
   63.0385   30.2569   52.6585 H   0  0  0  0  0  0  0  0  0  0  0  0
   62.6032   28.3963   50.3895 H   0  0  0  0  0  0  0  0  0  0  0  0
   61.5353   28.6765   51.7501 H   0  0  0  0  0  0  0  0  0  0  0  0
  1  2  1  0
  2  3  1  0
  3  4  1  0
  4  5  2  3
  5  6  1  0
  6  7  2  0
  6  8  1  0
  8  9  2  0
  9 10  1  0
 10 11  2  0
 11 12  1  0
 12 13  2  0
 12 14  2  0
 12 15  1  0
 15 16  1  0
 16 17  1  0
 17 18  1  0
 18 19  1  0
 19 20  1  0
 11 21  1  0
 21 22  2  0
  4 23  1  0
 23 24  2  0
 24 25  1  0
 25 26  1  0
 26 27  1  0
 27 28  1  0
 28 29  1  0
 29 30  1  0
 30 31  2  0
 25  2  2  0
 30 26  1  0
 22  8  1  0
 20 15  1  0
  1 32  1  0
  1 33  1  0
  1 34  1  0
  3 35  1  0
  9 36  1  0
 10 37  1  0
 16 38  1  0
 16 39  1  0
 17 40  1  0
 17 41  1  0
 18 42  1  0
 18 43  1  0
 19 44  1  0
 19 45  1  0
 20 46  1  0
 20 47  1  0
 21 48  1  0
 22 49  1  0
 23 50  1  0
 24 51  1  0
 27 52  1  0
 27 53  1  0
 28 54  1  0
 28 55  1  0
 29 56  1  0
 29 57  1  0
M  END
>  <UniqueID>  (50) 
49

>  <SMILES>  (50) 
Cc1[nH]c(=NC(=O)c2ccc(S(=O)(=O)N3CCCCC3)cc2)ccc1N1CCCC1=O

>  <Energy>  (50) 
85.2011187481159

>  <Genealogy>  (50) 
Cc1[nH]c(=NC(=O)c2ccc(S(=O)(=O)N3CCCCC3)cc2)ccc1N1CCCC1=O (3D coordinates assigned)
Cc1[nH]c(=NC(=O)c2ccc(S(=O)(=O)N3CCCCC3)cc2)ccc1N1CCCC1=O (nonaromatic ring conformer: 85.2011187481159 kcal/mol)

>  <smiles>  (50) 
Cc1[nH]c(=NC(=O)c2ccc(S(=O)(=O)N3CCCCC3)cc2)ccc1N1CCCC1=O

>  <score_type>  (50) 
oracle

>  <origin>  (50) 
adg

>  <m_score__min__energy>  (50) 
-10.1

>  <m_primary>  (50) 
energy

$$$$
50:0
     RDKit          3D

 52 55  0  0  0  0  0  0  0  0999 V2000
   63.3270   33.7720   46.2920 O   0  0  0  0  0  0  0  0  0  0  0  0
   62.5680   33.1440   47.0770 C   0  0  0  0  0  0  0  0  0  0  0  0
   61.5500   33.8800   47.9150 C   0  0  0  0  0  0  0  0  0  0  0  0
   60.2100   34.0040   47.2230 C   0  0  0  0  0  0  0  0  0  0  0  0
   60.1660   34.4340   45.8860 C   0  0  0  0  0  0  0  0  0  0  0  0
   58.9830   34.4980   45.2210 N   0  0  0  0  0  0  0  0  0  0  0  0
   57.8130   34.1410   45.8090 C   0  0  0  0  0  0  0  0  0  0  0  0
   57.8010   33.6940   47.1290 C   0  0  0  0  0  0  0  0  0  0  0  0
   59.0000   33.6240   47.8510 C   0  0  0  0  0  0  0  0  0  0  0  0
   58.9610   33.1440   49.2460 C   0  0  0  0  0  0  0  0  0  0  0  0
   58.2570   31.9730   49.5730 C   0  0  0  0  0  0  0  0  0  0  0  0
   58.2340   31.5130   50.8930 C   0  0  0  0  0  0  0  0  0  0  0  0
   58.9170   32.2150   51.8910 C   0  0  0  0  0  0  0  0  0  0  0  0
   59.6240   33.3780   51.5700 C   0  0  0  0  0  0  0  0  0  0  0  0
   59.6520   33.8400   50.2500 C   0  0  0  0  0  0  0  0  0  0  0  0
   62.6970   31.7210   47.1660 N   0  0  0  0  0  0  0  0  0  0  0  0
   61.6940   30.8720   47.7310 C   0  0  0  0  0  0  0  0  0  0  0  0
   60.7010   30.3410   46.9000 C   0  0  0  0  0  0  0  0  0  0  0  0
   59.7020   29.5030   47.4260 C   0  0  0  0  0  0  0  0  0  0  0  0
   58.6620   28.9190   46.5470 C   0  0  0  0  0  0  0  0  0  0  0  0
   58.0990   27.8460   46.8990 O   0  0  0  0  0  0  0  0  0  0  0  0
   58.2730   29.5450   45.3080 N   0  0  0  0  0  0  0  0  0  0  0  0
   57.9260   28.7330   44.1380 C   0  0  0  0  0  0  0  0  0  0  0  0
   56.7010   29.3360   43.4450 C   0  0  0  0  0  0  0  0  0  0  0  0
   56.9030   30.7100   43.1680 O   0  0  0  0  0  0  0  0  0  0  0  0
   57.0200   31.4310   44.3800 C   0  0  0  0  0  0  0  0  0  0  0  0
   58.2730   31.0030   45.1480 C   0  0  0  0  0  0  0  0  0  0  0  0
   59.7270   29.1870   48.7950 C   0  0  0  0  0  0  0  0  0  0  0  0
   60.7090   29.7260   49.6280 C   0  0  0  0  0  0  0  0  0  0  0  0
   61.6900   30.5750   49.1050 C   0  0  0  0  0  0  0  0  0  0  0  0
   62.8870   31.2720   50.1880 Cl  0  0  0  0  0  0  0  0  0  0  0  0
   61.4099   33.3342   48.8597 H   0  0  0  0  0  0  0  0  0  0  0  0
   61.9320   34.8969   48.0880 H   0  0  0  0  0  0  0  0  0  0  0  0
   61.0963   34.7209   45.3739 H   0  0  0  0  0  0  0  0  0  0  0  0
   56.8722   34.2046   45.2425 H   0  0  0  0  0  0  0  0  0  0  0  0
   56.8535   33.3971   47.6025 H   0  0  0  0  0  0  0  0  0  0  0  0
   57.7227   31.4168   48.7887 H   0  0  0  0  0  0  0  0  0  0  0  0
   57.6783   30.5982   51.1467 H   0  0  0  0  0  0  0  0  0  0  0  0
   58.8981   31.8522   52.9293 H   0  0  0  0  0  0  0  0  0  0  0  0
   60.1589   33.9303   52.3567 H   0  0  0  0  0  0  0  0  0  0  0  0
   60.2164   34.7501   49.9985 H   0  0  0  0  0  0  0  0  0  0  0  0
   60.7021   30.5812   45.8265 H   0  0  0  0  0  0  0  0  0  0  0  0
   58.7737   28.7182   43.4372 H   0  0  0  0  0  0  0  0  0  0  0  0
   57.6980   27.7057   44.4585 H   0  0  0  0  0  0  0  0  0  0  0  0
   56.5214   28.8008   42.5009 H   0  0  0  0  0  0  0  0  0  0  0  0
   55.8337   29.2360   44.1141 H   0  0  0  0  0  0  0  0  0  0  0  0
   57.0842   32.5059   44.1555 H   0  0  0  0  0  0  0  0  0  0  0  0
   56.1368   31.2219   45.0015 H   0  0  0  0  0  0  0  0  0  0  0  0
   59.1689   31.3107   44.5889 H   0  0  0  0  0  0  0  0  0  0  0  0
   58.2775   31.4810   46.1387 H   0  0  0  0  0  0  0  0  0  0  0  0
   58.9674   28.5101   49.2132 H   0  0  0  0  0  0  0  0  0  0  0  0
   60.7114   29.4820   50.7006 H   0  0  0  0  0  0  0  0  0  0  0  0
  1  2  2  0
  2  3  1  0
  3  4  1  0
  4  5  2  0
  5  6  1  0
  6  7  2  0
  7  8  1  0
  8  9  2  0
  9 10  1  0
 10 11  2  0
 11 12  1  0
 12 13  2  0
 13 14  1  0
 14 15  2  0
  2 16  1  0
 16 17  1  0
 17 18  2  0
 18 19  1  0
 19 20  1  0
 20 21  2  0
 20 22  1  0
 22 23  1  0
 23 24  1  0
 24 25  1  0
 25 26  1  0
 26 27  1  0
 19 28  2  0
 28 29  1  0
 29 30  2  0
 30 31  1  0
  9  4  1  0
 15 10  1  0
 30 17  1  0
 27 22  1  0
  3 32  1  0
  3 33  1  0
  5 34  1  0
  7 35  1  0
  8 36  1  0
 11 37  1  0
 12 38  1  0
 13 39  1  0
 14 40  1  0
 15 41  1  0
 18 42  1  0
 23 43  1  0
 23 44  1  0
 24 45  1  0
 24 46  1  0
 26 47  1  0
 26 48  1  0
 27 49  1  0
 27 50  1  0
 28 51  1  0
 29 52  1  0
M  CHG  1  16  -1
M  END
>  <UniqueID>  (51) 
50

>  <SMILES>  (51) 
O=C(Cc1cnccc1-c1ccccc1)[N-]c1cc(C(=O)N2CCOCC2)ccc1Cl

>  <Energy>  (51) 
77.54270927432478

>  <Genealogy>  (51) 
O=C(Cc1cnccc1-c1ccccc1)[N-]c1cc(C(=O)N2CCOCC2)ccc1Cl (protonated)
O=C(Cc1cnccc1-c1ccccc1)[N-]c1cc(C(=O)N2CCOCC2)ccc1Cl (3D coordinates assigned)
O=C(Cc1cnccc1-c1ccccc1)[N-]c1cc(C(=O)N2CCOCC2)ccc1Cl (nonaromatic ring conformer: 77.54270927432478 kcal/mol)

>  <smiles>  (51) 
O=C(Cc1cnccc1-c1ccccc1)Nc1cc(C(=O)N2CCOCC2)ccc1Cl

>  <score_type>  (51) 
oracle

>  <origin>  (51) 
adg

>  <m_score__min__energy>  (51) 
-11

>  <m_primary>  (51) 
energy

$$$$
51:0
     RDKit          3D

 44 46  0  0  0  0  0  0  0  0999 V2000
   54.9160   29.1130   44.3000 O   0  0  0  0  0  0  0  0  0  0  0  0
   56.0150   29.5060   44.7740 C   0  0  0  0  0  0  0  0  0  0  0  0
   56.2690   30.9170   44.8540 N   0  0  0  0  0  0  0  0  0  0  0  0
   57.4490   31.6010   44.3280 C   0  0  0  0  0  0  0  0  0  0  0  0
   57.7550   32.8670   45.0920 C   0  0  0  0  0  0  0  0  0  0  0  0
   56.9660   33.8480   44.9920 O   0  0  0  0  0  0  0  0  0  0  0  0
   58.9250   32.9780   45.9380 N   0  0  0  0  0  0  0  0  0  0  0  0
   59.8370   31.8390   46.1430 C   0  0  0  0  0  0  0  0  0  0  0  0
   60.3800   31.8300   47.5740 C   0  0  0  0  0  0  0  0  0  0  0  0
   60.8600   33.1660   47.9430 N   0  0  0  0  0  0  0  0  0  0  0  0
   62.0350   33.3230   48.7600 C   0  0  0  0  0  0  0  0  0  0  0  0
   63.2930   32.9420   48.2650 C   0  0  0  0  0  0  0  0  0  0  0  0
   64.4380   33.0920   49.0550 C   0  0  0  0  0  0  0  0  0  0  0  0
   64.3350   33.6230   50.3430 C   0  0  0  0  0  0  0  0  0  0  0  0
   63.0870   34.0040   50.8440 C   0  0  0  0  0  0  0  0  0  0  0  0
   61.9410   33.8540   50.0590 C   0  0  0  0  0  0  0  0  0  0  0  0
   59.9380   34.2900   47.7610 C   0  0  0  0  0  0  0  0  0  0  0  0
   59.4190   34.3090   46.3240 C   0  0  0  0  0  0  0  0  0  0  0  0
   56.9920   28.5060   45.2490 C   0  0  0  0  0  0  0  0  0  0  0  0
   58.3690   28.7300   45.0830 C   0  0  0  0  0  0  0  0  0  0  0  0
   59.2960   27.7830   45.5260 C   0  0  0  0  0  0  0  0  0  0  0  0
   58.8560   26.5980   46.1220 C   0  0  0  0  0  0  0  0  0  0  0  0
   57.4880   26.3560   46.2720 C   0  0  0  0  0  0  0  0  0  0  0  0
   56.5540   27.3030   45.8360 C   0  0  0  0  0  0  0  0  0  0  0  0
   55.1970   27.0460   45.9970 O   0  0  0  0  0  0  0  0  0  0  0  0
   58.3135   30.9246   44.4002 H   0  0  0  0  0  0  0  0  0  0  0  0
   57.2454   31.8753   43.2824 H   0  0  0  0  0  0  0  0  0  0  0  0
   59.2913   30.9019   45.9582 H   0  0  0  0  0  0  0  0  0  0  0  0
   60.6821   31.9332   45.4452 H   0  0  0  0  0  0  0  0  0  0  0  0
   59.5787   31.5284   48.2646 H   0  0  0  0  0  0  0  0  0  0  0  0
   61.2168   31.1187   47.6355 H   0  0  0  0  0  0  0  0  0  0  0  0
   63.3785   32.5236   47.2513 H   0  0  0  0  0  0  0  0  0  0  0  0
   65.4203   32.7915   48.6615 H   0  0  0  0  0  0  0  0  0  0  0  0
   65.2360   33.7413   50.9629 H   0  0  0  0  0  0  0  0  0  0  0  0
   63.0070   34.4227   51.8581 H   0  0  0  0  0  0  0  0  0  0  0  0
   60.9607   34.1526   50.4587 H   0  0  0  0  0  0  0  0  0  0  0  0
   59.0903   34.1823   48.4536 H   0  0  0  0  0  0  0  0  0  0  0  0
   60.4689   35.2311   47.9669 H   0  0  0  0  0  0  0  0  0  0  0  0
   58.5981   35.0369   46.2450 H   0  0  0  0  0  0  0  0  0  0  0  0
   60.2423   34.5922   45.6517 H   0  0  0  0  0  0  0  0  0  0  0  0
   58.7190   29.6553   44.6020 H   0  0  0  0  0  0  0  0  0  0  0  0
   60.3732   27.9704   45.4055 H   0  0  0  0  0  0  0  0  0  0  0  0
   59.5872   25.8551   46.4733 H   0  0  0  0  0  0  0  0  0  0  0  0
   57.1442   25.4188   46.7339 H   0  0  0  0  0  0  0  0  0  0  0  0
  1  2  2  0
  2  3  1  0
  3  4  1  0
  4  5  1  0
  5  6  2  0
  5  7  1  0
  7  8  1  0
  8  9  1  0
  9 10  1  0
 10 11  1  0
 11 12  2  0
 12 13  1  0
 13 14  2  0
 14 15  1  0
 15 16  2  0
 10 17  1  0
 17 18  1  0
  2 19  1  0
 19 20  2  0
 20 21  1  0
 21 22  2  0
 22 23  1  0
 23 24  2  0
 24 25  1  0
 18  7  1  0
 24 19  1  0
 16 11  1  0
  4 26  1  0
  4 27  1  0
  8 28  1  0
  8 29  1  0
  9 30  1  0
  9 31  1  0
 12 32  1  0
 13 33  1  0
 14 34  1  0
 15 35  1  0
 16 36  1  0
 17 37  1  0
 17 38  1  0
 18 39  1  0
 18 40  1  0
 20 41  1  0
 21 42  1  0
 22 43  1  0
 23 44  1  0
M  CHG  2   3  -1  25  -1
M  END
>  <UniqueID>  (52) 
51

>  <SMILES>  (52) 
O=C([N-]CC(=O)N1CCN(c2ccccc2)CC1)c1ccccc1[O-]

>  <Energy>  (52) 
55.74433365452392

>  <Genealogy>  (52) 
O=C([N-]CC(=O)N1CCN(c2ccccc2)CC1)c1ccccc1[O-] (protonated)
O=C([N-]CC(=O)N1CCN(c2ccccc2)CC1)c1ccccc1[O-] (3D coordinates assigned)
O=C([N-]CC(=O)N1CCN(c2ccccc2)CC1)c1ccccc1[O-] (nonaromatic ring conformer: 55.74433365452392 kcal/mol)

>  <smiles>  (52) 
O=C(NCC(=O)N1CCN(c2ccccc2)CC1)c1ccccc1O

>  <score_type>  (52) 
oracle

>  <origin>  (52) 
adg

>  <m_score__min__energy>  (52) 
-14.23

>  <m_primary>  (52) 
energy

$$$$
52:0
     RDKit          3D

 51 54  0  0  0  0  0  0  0  0999 V2000
   61.5192   30.7861   46.5708 H   0  0  0  0  0  0  0  0  0  0  0  0
   60.6750   30.0850   46.6470 C   0  0  0  0  0  0  0  0  0  0  0  0
   59.7530   30.0220   45.6520 N   0  0  0  0  0  0  0  0  0  0  0  0
   58.6960   29.1600   45.6980 C   0  0  0  0  0  0  0  0  0  0  0  0
   57.8010   29.1520   44.7530 N   0  0  0  0  0  0  0  0  0  0  0  0
   56.5450   29.8500   44.7690 C   0  0  0  0  0  0  0  0  0  0  0  0
   55.4880   29.2610   45.1200 O   0  0  0  0  0  0  0  0  0  0  0  0
   56.4980   31.2460   44.4660 N   0  0  0  0  0  0  0  0  0  0  0  0
   57.3990   32.2320   44.9920 C   0  0  0  0  0  0  0  0  0  0  0  0
   57.9500   33.1760   44.1210 C   0  0  0  0  0  0  0  0  0  0  0  0
   57.6682   33.1706   43.0577 H   0  0  0  0  0  0  0  0  0  0  0  0
   58.8560   34.1250   44.5950 C   0  0  0  0  0  0  0  0  0  0  0  0
   59.2665   34.8803   43.9087 H   0  0  0  0  0  0  0  0  0  0  0  0
   59.2440   34.1210   45.9350 C   0  0  0  0  0  0  0  0  0  0  0  0
   59.9547   34.8781   46.2979 H   0  0  0  0  0  0  0  0  0  0  0  0
   58.7350   33.1570   46.8290 C   0  0  0  0  0  0  0  0  0  0  0  0
   59.1910   33.1530   48.2500 C   0  0  0  0  0  0  0  0  0  0  0  0
   58.5100   32.4040   49.1620 N   0  0  0  0  0  0  0  0  0  0  0  0
   58.8680   32.3650   50.4720 C   0  0  0  0  0  0  0  0  0  0  0  0
   58.0980   31.5140   51.4290 C   0  0  0  0  0  0  0  0  0  0  0  0
   58.3547   31.7977   52.4603 H   0  0  0  0  0  0  0  0  0  0  0  0
   57.0203   31.6615   51.2656 H   0  0  0  0  0  0  0  0  0  0  0  0
   58.3522   30.4563   51.2656 H   0  0  0  0  0  0  0  0  0  0  0  0
   59.9360   33.0910   50.9050 N   0  0  0  0  0  0  0  0  0  0  0  0
   60.2180   33.0620   51.9100 H   0  0  0  0  0  0  0  0  0  0  0  0
   60.6440   33.8620   50.0400 C   0  0  0  0  0  0  0  0  0  0  0  0
   61.5034   34.4451   50.4025 H   0  0  0  0  0  0  0  0  0  0  0  0
   60.2850   33.9170   48.6930 C   0  0  0  0  0  0  0  0  0  0  0  0
   60.8484   34.5475   47.9894 H   0  0  0  0  0  0  0  0  0  0  0  0
   57.7980   32.2200   46.3420 C   0  0  0  0  0  0  0  0  0  0  0  0
   57.3740   31.4706   47.0265 H   0  0  0  0  0  0  0  0  0  0  0  0
   58.5390   28.3040   46.8010 C   0  0  0  0  0  0  0  0  0  0  0  0
   57.4640   27.3960   46.8020 O   0  0  0  0  0  0  0  0  0  0  0  0
   57.5100   26.0350   47.2260 C   0  0  0  0  0  0  0  0  0  0  0  0
   58.5159   25.8072   47.6084 H   0  0  0  0  0  0  0  0  0  0  0  0
   56.7633   25.8803   48.0188 H   0  0  0  0  0  0  0  0  0  0  0  0
   57.1980   25.1210   46.0720 C   0  0  0  0  0  0  0  0  0  0  0  0
   58.2090   24.2870   45.5660 C   0  0  0  0  0  0  0  0  0  0  0  0
   59.2204   24.3307   45.9962 H   0  0  0  0  0  0  0  0  0  0  0  0
   57.9370   23.4030   44.5200 C   0  0  0  0  0  0  0  0  0  0  0  0
   58.7274   22.7363   44.1448 H   0  0  0  0  0  0  0  0  0  0  0  0
   56.6620   23.3640   43.9490 C   0  0  0  0  0  0  0  0  0  0  0  0
   56.4521   22.6733   43.1190 H   0  0  0  0  0  0  0  0  0  0  0  0
   55.6540   24.2020   44.4320 C   0  0  0  0  0  0  0  0  0  0  0  0
   54.6534   24.1758   43.9758 H   0  0  0  0  0  0  0  0  0  0  0  0
   55.9140   25.0750   45.4950 C   0  0  0  0  0  0  0  0  0  0  0  0
   54.9080   25.8530   45.9670 F   0  0  0  0  0  0  0  0  0  0  0  0
   59.4820   28.3700   47.8430 C   0  0  0  0  0  0  0  0  0  0  0  0
   59.3755   27.7170   48.7218 H   0  0  0  0  0  0  0  0  0  0  0  0
   60.5520   29.2620   47.7640 C   0  0  0  0  0  0  0  0  0  0  0  0
   61.2917   29.3148   48.5764 H   0  0  0  0  0  0  0  0  0  0  0  0
  1  2  1  0
  2  3  1  0
  3  4  1  0
  4  5  2  0
  5  6  1  0
  6  7  2  0
  6  8  1  0
  8  9  1  0
  9 10  2  0
 10 11  1  0
 10 12  1  0
 12 13  1  0
 12 14  2  0
 14 15  1  0
 14 16  1  0
 16 17  1  0
 17 18  2  0
 18 19  1  0
 19 20  1  0
 20 21  1  0
 20 22  1  0
 20 23  1  0
 19 24  2  0
 24 25  1  0
 24 26  1  0
 26 27  1  0
 26 28  2  0
 28 29  1  0
 16 30  2  0
 30 31  1  0
  4 32  1  0
 32 33  1  0
 33 34  1  0
 34 35  1  0
 34 36  1  0
 34 37  1  0
 37 38  2  0
 38 39  1  0
 38 40  1  0
 40 41  1  0
 40 42  2  0
 42 43  1  0
 42 44  1  0
 44 45  1  0
 44 46  2  0
 46 47  1  0
 32 48  2  0
 48 49  1  0
 48 50  1  0
 50 51  1  0
 50  2  2  0
 30  9  1  0
 46 37  1  0
 28 17  1  0
M  CHG  3   3  -1   8  -1  24   1
M  END
>  <UniqueID>  (53) 
52

>  <SMILES>  (53) 
Cc1nc(-c2cccc([N-]C(=O)/N=c3\[n-]cccc3OCc3ccccc3F)c2)cc[nH+]1

>  <Energy>  (53) 
63.930549007417994

>  <Genealogy>  (53) 
Cc1nc(-c2cccc([N-]C(=O)N=c3[n-]cccc3OCc3ccccc3F)c2)cc[nH+]1 (protonated)
Cc1nc(-c2cccc([N-]C(=O)/N=c3\[n-]cccc3OCc3ccccc3F)c2)cc[nH+]1 (cis-trans isomerization)
Cc1nc(-c2cccc([N-]C(=O)/N=c3\[n-]cccc3OCc3ccccc3F)c2)cc[nH+]1 (3D coordinates assigned)
Cc1nc(-c2cccc([N-]C(=O)/N=c3\[n-]cccc3OCc3ccccc3F)c2)cc[nH+]1 (optimized conformer: 63.930549007417994 kcal/mol)

>  <smiles>  (53) 
Cc1nccc(-c2cccc(NC(=O)N=c3[nH]cccc3OCc3ccccc3F)c2)n1

>  <score_type>  (53) 
oracle

>  <origin>  (53) 
adg

>  <m_score__min__energy>  (53) 
-10.449999999999999

>  <m_primary>  (53) 
energy

$$$$
53:0
     RDKit          3D

 60 63  0  0  0  0  0  0  0  0999 V2000
   60.4060   29.5900   47.9890 C   0  0  0  0  0  0  0  0  0  0  0  0
   59.2960   29.5920   47.0960 O   0  0  0  0  0  0  0  0  0  0  0  0
   58.5620   28.4530   46.7230 C   0  0  0  0  0  0  0  0  0  0  0  0
   58.8410   27.1910   47.2820 C   0  0  0  0  0  0  0  0  0  0  0  0
   58.0900   26.0710   46.9250 C   0  0  0  0  0  0  0  0  0  0  0  0
   57.0400   26.1840   46.0060 C   0  0  0  0  0  0  0  0  0  0  0  0
   56.2650   24.9890   45.6020 C   0  0  0  0  0  0  0  0  0  0  0  0
   55.0930   24.8310   46.0420 O   0  0  0  0  0  0  0  0  0  0  0  0
   56.8150   24.0050   44.7110 N   0  0  0  0  0  0  0  0  0  0  0  0
   56.0940   23.6350   43.4920 C   0  0  0  0  0  0  0  0  0  0  0  0
   56.3150   22.1480   43.1990 C   0  0  0  0  0  0  0  0  0  0  0  0
   57.6960   21.8340   43.1970 O   0  0  0  0  0  0  0  0  0  0  0  0
   58.2340   22.0210   44.4940 C   0  0  0  0  0  0  0  0  0  0  0  0
   58.1790   23.5000   44.8960 C   0  0  0  0  0  0  0  0  0  0  0  0
   56.7640   27.4350   45.4320 C   0  0  0  0  0  0  0  0  0  0  0  0
   57.5170   28.5760   45.7760 C   0  0  0  0  0  0  0  0  0  0  0  0
   57.2060   29.8730   45.1200 C   0  0  0  0  0  0  0  0  0  0  0  0
   56.0090   30.1610   44.8450 O   0  0  0  0  0  0  0  0  0  0  0  0
   58.2640   30.7560   44.7220 N   0  0  0  0  0  0  0  0  0  0  0  0
   58.4900   32.0950   45.1800 C   0  0  0  0  0  0  0  0  0  0  0  0
   58.1090   33.2210   44.4240 C   0  0  0  0  0  0  0  0  0  0  0  0
   58.3160   34.5080   44.9290 C   0  0  0  0  0  0  0  0  0  0  0  0
   58.8880   34.6840   46.1920 C   0  0  0  0  0  0  0  0  0  0  0  0
   59.2500   33.5710   46.9600 C   0  0  0  0  0  0  0  0  0  0  0  0
   59.9520   33.7990   48.5600 S   0  0  0  0  0  0  0  0  0  0  0  0
   59.2800   34.9720   49.2170 O   0  0  0  0  0  0  0  0  0  0  0  0
   59.7280   32.5690   49.3960 O   0  0  0  0  0  0  0  0  0  0  0  0
   61.6670   34.0970   48.4110 N   0  0  0  0  0  0  0  0  0  0  0  0
   62.1700   33.6620   47.0870 C   0  0  0  0  0  0  0  0  0  0  0  0
   63.0220   32.3850   47.1800 C   0  0  0  0  0  0  0  0  0  0  0  0
   64.1440   32.5360   48.0330 O   0  0  0  0  0  0  0  0  0  0  0  0
   63.8740   33.2990   49.2040 C   0  0  0  0  0  0  0  0  0  0  0  0
   62.3800   33.4650   49.5350 C   0  0  0  0  0  0  0  0  0  0  0  0
   59.0400   32.2800   46.4550 C   0  0  0  0  0  0  0  0  0  0  0  0
   60.0416   29.5907   49.0269 H   0  0  0  0  0  0  0  0  0  0  0  0
   61.0151   28.6908   47.8148 H   0  0  0  0  0  0  0  0  0  0  0  0
   61.0183   30.4870   47.8148 H   0  0  0  0  0  0  0  0  0  0  0  0
   59.6605   27.0872   48.0084 H   0  0  0  0  0  0  0  0  0  0  0  0
   58.3245   25.0921   47.3687 H   0  0  0  0  0  0  0  0  0  0  0  0
   55.0194   23.8258   43.6295 H   0  0  0  0  0  0  0  0  0  0  0  0
   56.4681   24.2342   42.6488 H   0  0  0  0  0  0  0  0  0  0  0  0
   55.8105   21.5496   43.9719 H   0  0  0  0  0  0  0  0  0  0  0  0
   55.9008   21.9197   42.2058 H   0  0  0  0  0  0  0  0  0  0  0  0
   57.6516   21.4289   45.2153 H   0  0  0  0  0  0  0  0  0  0  0  0
   59.2843   21.6942   44.4915 H   0  0  0  0  0  0  0  0  0  0  0  0
   58.4688   23.6042   45.9520 H   0  0  0  0  0  0  0  0  0  0  0  0
   58.8728   24.0775   44.2674 H   0  0  0  0  0  0  0  0  0  0  0  0
   55.9466   27.5265   44.7016 H   0  0  0  0  0  0  0  0  0  0  0  0
   57.6477   33.0873   43.4344 H   0  0  0  0  0  0  0  0  0  0  0  0
   58.0278   35.3848   44.3305 H   0  0  0  0  0  0  0  0  0  0  0  0
   59.0540   35.6986   46.5832 H   0  0  0  0  0  0  0  0  0  0  0  0
   61.3109   33.4674   46.4282 H   0  0  0  0  0  0  0  0  0  0  0  0
   62.8072   34.4647   46.6875 H   0  0  0  0  0  0  0  0  0  0  0  0
   62.3930   31.5699   47.5671 H   0  0  0  0  0  0  0  0  0  0  0  0
   63.3997   32.1638   46.1708 H   0  0  0  0  0  0  0  0  0  0  0  0
   64.3603   32.8018   50.0562 H   0  0  0  0  0  0  0  0  0  0  0  0
   64.2632   34.3098   49.0120 H   0  0  0  0  0  0  0  0  0  0  0  0
   61.9410   32.4756   49.7311 H   0  0  0  0  0  0  0  0  0  0  0  0
   62.2826   34.1072   50.4228 H   0  0  0  0  0  0  0  0  0  0  0  0
   59.3094   31.4052   47.0650 H   0  0  0  0  0  0  0  0  0  0  0  0
  1  2  1  0
  2  3  1  0
  3  4  2  0
  4  5  1  0
  5  6  2  0
  6  7  1  0
  7  8  2  0
  7  9  1  0
  9 10  1  0
 10 11  1  0
 11 12  1  0
 12 13  1  0
 13 14  1  0
  6 15  1  0
 15 16  2  0
 16 17  1  0
 17 18  2  0
 17 19  1  0
 19 20  1  0
 20 21  2  0
 21 22  1  0
 22 23  2  0
 23 24  1  0
 24 25  1  0
 25 26  2  0
 25 27  2  0
 25 28  1  0
 28 29  1  0
 29 30  1  0
 30 31  1  0
 31 32  1  0
 32 33  1  0
 24 34  2  0
 16  3  1  0
 34 20  1  0
 14  9  1  0
 33 28  1  0
  1 35  1  0
  1 36  1  0
  1 37  1  0
  4 38  1  0
  5 39  1  0
 10 40  1  0
 10 41  1  0
 11 42  1  0
 11 43  1  0
 13 44  1  0
 13 45  1  0
 14 46  1  0
 14 47  1  0
 15 48  1  0
 21 49  1  0
 22 50  1  0
 23 51  1  0
 29 52  1  0
 29 53  1  0
 30 54  1  0
 30 55  1  0
 32 56  1  0
 32 57  1  0
 33 58  1  0
 33 59  1  0
 34 60  1  0
M  CHG  1  19  -1
M  END
>  <UniqueID>  (54) 
53

>  <SMILES>  (54) 
COc1ccc(C(=O)N2CCOCC2)cc1C(=O)[N-]c1cccc(S(=O)(=O)N2CCOCC2)c1

>  <Energy>  (54) 
87.57265450848614

>  <Genealogy>  (54) 
COc1ccc(C(=O)N2CCOCC2)cc1C(=O)[N-]c1cccc(S(=O)(=O)N2CCOCC2)c1 (protonated)
COc1ccc(C(=O)N2CCOCC2)cc1C(=O)[N-]c1cccc(S(=O)(=O)N2CCOCC2)c1 (3D coordinates assigned)
COc1ccc(C(=O)N2CCOCC2)cc1C(=O)[N-]c1cccc(S(=O)(=O)N2CCOCC2)c1 (nonaromatic ring conformer: 87.57265450848614 kcal/mol)

>  <smiles>  (54) 
COc1ccc(C(=O)N2CCOCC2)cc1C(=O)Nc1cccc(S(=O)(=O)N2CCOCC2)c1

>  <score_type>  (54) 
oracle

>  <origin>  (54) 
adg

>  <m_score__min__energy>  (54) 
-11.98

>  <m_primary>  (54) 
energy

$$$$
54:0
     RDKit          3D

 28 28  0  0  0  0  0  0  0  0999 V2000
   57.0390   32.6130   40.5040 C   0  0  0  0  0  0  0  0  0  0  0  0
   58.3770   32.7060   41.7330 S   0  0  0  0  0  0  0  0  0  0  0  0
   57.6810   31.4130   42.7640 C   0  0  0  0  0  0  0  0  0  0  0  0
   58.1770   31.2000   44.0530 C   0  0  0  0  0  0  0  0  0  0  0  0
   57.6370   30.1910   44.8540 C   0  0  0  0  0  0  0  0  0  0  0  0
   56.5930   29.3830   44.3820 C   0  0  0  0  0  0  0  0  0  0  0  0
   56.1000   28.3880   45.2480 O   0  0  0  0  0  0  0  0  0  0  0  0
   56.7840   27.2310   45.7560 C   0  0  0  0  0  0  0  0  0  0  0  0
   57.6270   26.6610   44.6070 C   0  0  0  0  0  0  0  0  0  0  0  0
   57.7310   27.6370   46.9040 C   0  0  0  0  0  0  0  0  0  0  0  0
   55.8040   26.1640   46.1850 C   0  0  0  0  0  0  0  0  0  0  0  0
   56.2110   25.1420   46.8000 O   0  0  0  0  0  0  0  0  0  0  0  0
   54.4390   26.3290   45.9750 O   0  0  0  0  0  0  0  0  0  0  0  0
   56.1040   29.5970   43.0770 C   0  0  0  0  0  0  0  0  0  0  0  0
   56.6470   30.6070   42.2760 C   0  0  0  0  0  0  0  0  0  0  0  0
   56.0704   32.5457   41.0209 H   0  0  0  0  0  0  0  0  0  0  0  0
   57.0565   33.5145   39.8740 H   0  0  0  0  0  0  0  0  0  0  0  0
   57.1811   31.7226   39.8740 H   0  0  0  0  0  0  0  0  0  0  0  0
   58.9941   31.8280   44.4376 H   0  0  0  0  0  0  0  0  0  0  0  0
   58.0353   30.0286   45.8664 H   0  0  0  0  0  0  0  0  0  0  0  0
   58.4715   26.0900   45.0201 H   0  0  0  0  0  0  0  0  0  0  0  0
   57.0037   25.9982   43.9887 H   0  0  0  0  0  0  0  0  0  0  0  0
   58.0099   27.4863   43.9887 H   0  0  0  0  0  0  0  0  0  0  0  0
   57.2467   27.4294   47.8696 H   0  0  0  0  0  0  0  0  0  0  0  0
   58.6647   27.0601   46.8305 H   0  0  0  0  0  0  0  0  0  0  0  0
   57.9569   28.7110   46.8305 H   0  0  0  0  0  0  0  0  0  0  0  0
   55.2914   28.9665   42.6868 H   0  0  0  0  0  0  0  0  0  0  0  0
   56.2597   30.7680   41.2591 H   0  0  0  0  0  0  0  0  0  0  0  0
  1  2  1  0
  2  3  1  0
  3  4  2  0
  4  5  1  0
  5  6  2  0
  6  7  1  0
  7  8  1  0
  8  9  1  0
  8 10  1  0
  8 11  1  0
 11 12  2  0
 11 13  1  0
  6 14  1  0
 14 15  2  0
 15  3  1  0
  1 16  1  0
  1 17  1  0
  1 18  1  0
  4 19  1  0
  5 20  1  0
  9 21  1  0
  9 22  1  0
  9 23  1  0
 10 24  1  0
 10 25  1  0
 10 26  1  0
 14 27  1  0
 15 28  1  0
M  CHG  1  13  -1
M  END
>  <UniqueID>  (55) 
54

>  <SMILES>  (55) 
CSc1ccc(OC(C)(C)C(=O)[O-])cc1

>  <Energy>  (55) 
22.319202003993272

>  <Genealogy>  (55) 
CSc1ccc(OC(C)(C)C(=O)[O-])cc1 (protonated)
CSc1ccc(OC(C)(C)C(=O)[O-])cc1 (3D coordinates assigned)
CSc1ccc(OC(C)(C)C(=O)[O-])cc1 (optimized conformer: 22.319202003993272 kcal/mol)

>  <smiles>  (55) 
CSc1ccc(OC(C)(C)C(=O)O)cc1

>  <score_type>  (55) 
oracle

>  <origin>  (55) 
adg

>  <m_score__min__energy>  (55) 
-8.9800000000000004

>  <m_primary>  (55) 
energy

$$$$
55:0
     RDKit          3D

 32 33  0  0  0  0  0  0  0  0999 V2000
   57.3810   33.8330   45.1910 C   0  0  0  0  0  0  0  0  0  0  0  0
   58.2340   33.3500   44.2830 C   0  0  0  0  0  0  0  0  0  0  0  0
   57.7620   32.5030   43.1350 C   0  0  0  0  0  0  0  0  0  0  0  0
   58.0510   31.0880   43.3720 N   0  0  0  0  0  0  0  0  0  0  0  0
   57.2540   30.3050   44.2700 C   0  0  0  0  0  0  0  0  0  0  0  0
   56.2760   30.8280   44.8700 O   0  0  0  0  0  0  0  0  0  0  0  0
   57.5710   28.8870   44.4930 C   0  0  0  0  0  0  0  0  0  0  0  0
   58.7940   28.2830   44.2730 C   0  0  0  0  0  0  0  0  0  0  0  0
   58.6250   26.9580   44.6170 C   0  0  0  0  0  0  0  0  0  0  0  0
   57.3100   26.8390   45.0290 C   0  0  0  0  0  0  0  0  0  0  0  0
   56.6580   25.5950   45.4800 C   0  0  0  0  0  0  0  0  0  0  0  0
   55.8030   25.6580   46.4050 O   0  0  0  0  0  0  0  0  0  0  0  0
   57.0010   24.2730   44.9020 C   0  0  0  0  0  0  0  0  0  0  0  0
   58.0600   23.5010   45.4170 C   0  0  0  0  0  0  0  0  0  0  0  0
   58.3710   22.2610   44.8520 C   0  0  0  0  0  0  0  0  0  0  0  0
   57.6400   21.7830   43.7640 C   0  0  0  0  0  0  0  0  0  0  0  0
   56.5980   22.5470   43.2330 C   0  0  0  0  0  0  0  0  0  0  0  0
   56.2820   23.7880   43.7940 C   0  0  0  0  0  0  0  0  0  0  0  0
   56.7080   28.0040   44.9400 O   0  0  0  0  0  0  0  0  0  0  0  0
   57.7534   34.4506   46.0217 H   0  0  0  0  0  0  0  0  0  0  0  0
   56.3064   33.6131   45.1079 H   0  0  0  0  0  0  0  0  0  0  0  0
   59.3060   33.5775   44.3780 H   0  0  0  0  0  0  0  0  0  0  0  0
   56.6763   32.6330   43.0149 H   0  0  0  0  0  0  0  0  0  0  0  0
   58.2918   32.8206   42.2248 H   0  0  0  0  0  0  0  0  0  0  0  0
   58.8490   30.6300   42.8750 H   0  0  0  0  0  0  0  0  0  0  0  0
   59.7125   28.7601   43.9005 H   0  0  0  0  0  0  0  0  0  0  0  0
   59.3807   26.1599   44.5728 H   0  0  0  0  0  0  0  0  0  0  0  0
   58.6460   23.8760   46.2690 H   0  0  0  0  0  0  0  0  0  0  0  0
   59.1942   21.6604   45.2662 H   0  0  0  0  0  0  0  0  0  0  0  0
   57.8841   20.8047   43.3244 H   0  0  0  0  0  0  0  0  0  0  0  0
   56.0252   22.1716   42.3722 H   0  0  0  0  0  0  0  0  0  0  0  0
   55.4660   24.3891   43.3664 H   0  0  0  0  0  0  0  0  0  0  0  0
  1  2  2  0
  2  3  1  0
  3  4  1  0
  4  5  1  0
  5  6  2  0
  5  7  1  0
  7  8  2  0
  8  9  1  0
  9 10  2  0
 10 11  1  0
 11 12  2  0
 11 13  1  0
 13 14  2  0
 14 15  1  0
 15 16  2  0
 16 17  1  0
 17 18  2  0
 10 19  1  0
 19  7  1  0
 18 13  1  0
  1 20  1  0
  1 21  1  0
  2 22  1  0
  3 23  1  0
  3 24  1  0
  4 25  1  0
  8 26  1  0
  9 27  1  0
 14 28  1  0
 15 29  1  0
 16 30  1  0
 17 31  1  0
 18 32  1  0
M  END
>  <UniqueID>  (56) 
55

>  <SMILES>  (56) 
C=CCNC(=O)c1ccc(C(=O)c2ccccc2)o1

>  <Energy>  (56) 
55.43638433170918

>  <Genealogy>  (56) 
C=CCNC(=O)c1ccc(C(=O)c2ccccc2)o1 (3D coordinates assigned)
C=CCNC(=O)c1ccc(C(=O)c2ccccc2)o1 (optimized conformer: 55.43638433170918 kcal/mol)

>  <smiles>  (56) 
C=CCNC(=O)c1ccc(C(=O)c2ccccc2)o1

>  <score_type>  (56) 
oracle

>  <origin>  (56) 
adg

>  <m_score__min__energy>  (56) 
-7.3499999999999996

>  <m_primary>  (56) 
energy

$$$$
56:0
     RDKit          3D

 49 52  0  0  0  0  0  0  0  0999 V2000
   61.9480   28.5240   43.9330 H   0  0  0  0  0  0  0  0  0  0  0  0
   61.1900   28.3660   44.5850 O   0  0  0  0  0  0  0  0  0  0  0  0
   60.9660   29.2500   45.6350 C   0  0  0  0  0  0  0  0  0  0  0  0
   61.8650   30.1020   46.0680 O   0  0  0  0  0  0  0  0  0  0  0  0
   61.3540   30.7650   47.0810 C   0  0  0  0  0  0  0  0  0  0  0  0
   62.1010   31.8080   47.8080 C   0  0  0  0  0  0  0  0  0  0  0  0
   63.0368   31.5268   48.3132 H   0  0  0  0  0  0  0  0  0  0  0  0
   61.6930   33.0830   47.8820 C   0  0  0  0  0  0  0  0  0  0  0  0
   62.3201   33.7977   48.4351 H   0  0  0  0  0  0  0  0  0  0  0  0
   60.4420   33.5840   47.2590 C   0  0  0  0  0  0  0  0  0  0  0  0
   60.5300   34.2920   46.0470 C   0  0  0  0  0  0  0  0  0  0  0  0
   61.5142   34.4687   45.5887 H   0  0  0  0  0  0  0  0  0  0  0  0
   59.3770   34.7730   45.4200 C   0  0  0  0  0  0  0  0  0  0  0  0
   59.4579   35.3320   44.4761 H   0  0  0  0  0  0  0  0  0  0  0  0
   58.1220   34.5450   45.9900 C   0  0  0  0  0  0  0  0  0  0  0  0
   57.2161   34.9296   45.4987 H   0  0  0  0  0  0  0  0  0  0  0  0
   58.0190   33.8290   47.1830 C   0  0  0  0  0  0  0  0  0  0  0  0
   57.0299   33.6443   47.6276 H   0  0  0  0  0  0  0  0  0  0  0  0
   59.1690   33.3450   47.8160 C   0  0  0  0  0  0  0  0  0  0  0  0
   59.0796   32.7753   48.7527 H   0  0  0  0  0  0  0  0  0  0  0  0
   60.0590   30.3250   47.3270 C   0  0  0  0  0  0  0  0  0  0  0  0
   59.3754   30.6816   48.1116 H   0  0  0  0  0  0  0  0  0  0  0  0
   59.8060   29.3460   46.3820 C   0  0  0  0  0  0  0  0  0  0  0  0
   58.5500   28.5730   46.2300 C   0  0  0  0  0  0  0  0  0  0  0  0
   57.4230   29.1440   45.6200 C   0  0  0  0  0  0  0  0  0  0  0  0
   57.4686   30.1774   45.2457 H   0  0  0  0  0  0  0  0  0  0  0  0
   56.2430   28.4080   45.4850 C   0  0  0  0  0  0  0  0  0  0  0  0
   55.1420   28.9830   44.8620 O   0  0  0  0  0  0  0  0  0  0  0  0
   56.1660   27.1010   45.9770 C   0  0  0  0  0  0  0  0  0  0  0  0
   54.9890   26.3790   45.8010 O   0  0  0  0  0  0  0  0  0  0  0  0
   57.2750   26.5240   46.6320 C   0  0  0  0  0  0  0  0  0  0  0  0
   57.2050   25.1180   47.2120 C   0  0  0  0  0  0  0  0  0  0  0  0
   57.8893   25.0681   48.0718 H   0  0  0  0  0  0  0  0  0  0  0  0
   56.1529   24.9474   47.4840 H   0  0  0  0  0  0  0  0  0  0  0  0
   57.5730   24.0340   46.2650 N   0  0  0  0  0  0  0  0  0  0  0  0
   58.1040   24.5050   44.9810 C   0  0  0  0  0  0  0  0  0  0  0  0
   58.4588   25.5415   45.0796 H   0  0  0  0  0  0  0  0  0  0  0  0
   58.9503   23.8795   44.6608 H   0  0  0  0  0  0  0  0  0  0  0  0
   56.9760   24.4380   43.9630 C   0  0  0  0  0  0  0  0  0  0  0  0
   56.5226   25.4308   43.8257 H   0  0  0  0  0  0  0  0  0  0  0  0
   57.3358   24.1107   42.9764 H   0  0  0  0  0  0  0  0  0  0  0  0
   55.9630   23.4680   44.5430 C   0  0  0  0  0  0  0  0  0  0  0  0
   54.9713   23.9402   44.6023 H   0  0  0  0  0  0  0  0  0  0  0  0
   55.8581   22.5702   43.9162 H   0  0  0  0  0  0  0  0  0  0  0  0
   56.4700   23.1210   45.9390 C   0  0  0  0  0  0  0  0  0  0  0  0
   55.6578   23.2414   46.6710 H   0  0  0  0  0  0  0  0  0  0  0  0
   56.8178   22.0779   45.9692 H   0  0  0  0  0  0  0  0  0  0  0  0
   58.4700   27.2600   46.7200 C   0  0  0  0  0  0  0  0  0  0  0  0
   59.3565   26.7993   47.1803 H   0  0  0  0  0  0  0  0  0  0  0  0
  1  2  1  0
  2  3  1  0
  3  4  1  0
  4  5  1  0
  5  6  1  0
  6  7  1  0
  6  8  2  0
  8  9  1  0
  8 10  1  0
 10 11  2  0
 11 12  1  0
 11 13  1  0
 13 14  1  0
 13 15  2  0
 15 16  1  0
 15 17  1  0
 17 18  1  0
 17 19  2  0
 19 20  1  0
  5 21  2  0
 21 22  1  0
 21 23  1  0
 23 24  1  0
 24 25  2  0
 25 26  1  0
 25 27  1  0
 27 28  1  0
 27 29  2  0
 29 30  1  0
 29 31  1  0
 31 32  1  0
 32 33  1  0
 32 34  1  0
 32 35  1  0
 35 36  1  0
 36 37  1  0
 36 38  1  0
 36 39  1  0
 39 40  1  0
 39 41  1  0
 39 42  1  0
 42 43  1  0
 42 44  1  0
 42 45  1  0
 45 46  1  0
 45 47  1  0
 31 48  2  0
 48 49  1  0
 23  3  2  0
 48 24  1  0
 19 10  1  0
 45 35  1  0
M  CHG  2  28  -1  30  -1
M  END
>  <UniqueID>  (57) 
56

>  <SMILES>  (57) 
[O-]c1cc(-c2cc(/C=C/c3ccccc3)oc2O)cc(CN2CCCC2)c1[O-]

>  <Energy>  (57) 
91.51329596940248

>  <Genealogy>  (57) 
[O-]c1cc(-c2cc(C=Cc3ccccc3)oc2O)cc(CN2CCCC2)c1[O-] (protonated)
[O-]c1cc(-c2cc(/C=C/c3ccccc3)oc2O)cc(CN2CCCC2)c1[O-] (cis-trans isomerization)
[O-]c1cc(-c2cc(/C=C/c3ccccc3)oc2O)cc(CN2CCCC2)c1[O-] (3D coordinates assigned)
[O-]c1cc(-c2cc(/C=C/c3ccccc3)oc2O)cc(CN2CCCC2)c1[O-] (nonaromatic ring conformer: 91.51329596940248 kcal/mol)

>  <smiles>  (57) 
Oc1cc(-c2cc(C=Cc3ccccc3)oc2O)cc(CN2CCCC2)c1O

>  <score_type>  (57) 
oracle

>  <origin>  (57) 
adg

>  <m_score__min__energy>  (57) 
-14.390000000000001

>  <m_primary>  (57) 
energy

$$$$
57:0
     RDKit          3D

 50 52  0  0  0  0  0  0  0  0999 V2000
   56.1862   31.7059   51.7327 H   0  0  0  0  0  0  0  0  0  0  0  0
   55.1400   31.5070   52.0080 C   0  0  0  0  0  0  0  0  0  0  0  0
   54.3610   32.2499   51.7817 H   0  0  0  0  0  0  0  0  0  0  0  0
   54.8140   30.3580   52.6200 C   0  0  0  0  0  0  0  0  0  0  0  0
   53.5310   29.9770   53.0240 C   0  0  0  0  0  0  0  0  0  0  0  0
   52.3730   30.6220   52.7830 C   0  0  0  0  0  0  0  0  0  0  0  0
   51.8018   30.9965   53.6453 H   0  0  0  0  0  0  0  0  0  0  0  0
   51.8240   30.8570   51.4350 C   0  0  0  0  0  0  0  0  0  0  0  0
   51.9420   29.9750   50.4270 N   0  0  0  0  0  0  0  0  0  0  0  0
   51.3870   30.6190   49.3780 C   0  0  0  0  0  0  0  0  0  0  0  0
   51.2960   30.1020   48.2350 O   0  0  0  0  0  0  0  0  0  0  0  0
   50.9450   31.8660   49.6490 N   0  0  0  0  0  0  0  0  0  0  0  0
   51.2410   32.0070   50.9510 C   0  0  0  0  0  0  0  0  0  0  0  0
   51.0250   33.1800   51.6640 O   0  0  0  0  0  0  0  0  0  0  0  0
   53.6750   28.7690   53.6920 C   0  0  0  0  0  0  0  0  0  0  0  0
   52.8725   28.1710   54.1486 H   0  0  0  0  0  0  0  0  0  0  0  0
   55.0210   28.4640   53.6720 C   0  0  0  0  0  0  0  0  0  0  0  0
   55.6220   27.2350   54.2850 C   0  0  0  0  0  0  0  0  0  0  0  0
   55.5827   27.3154   55.3814 H   0  0  0  0  0  0  0  0  0  0  0  0
   55.0553   26.3494   53.9617 H   0  0  0  0  0  0  0  0  0  0  0  0
   56.6690   27.1385   53.9617 H   0  0  0  0  0  0  0  0  0  0  0  0
   55.7140   29.4190   53.0100 N   0  0  0  0  0  0  0  0  0  0  0  0
   57.1350   29.3960   52.7680 C   0  0  0  0  0  0  0  0  0  0  0  0
   57.5530   29.3320   51.5800 O   0  0  0  0  0  0  0  0  0  0  0  0
   58.0720   29.5970   53.8580 N   0  0  0  0  0  0  0  0  0  0  0  0
   58.0490   28.7390   54.4600 H   0  0  0  0  0  0  0  0  0  0  0  0
   59.4670   29.7380   53.3490 C   0  0  0  0  0  0  0  0  0  0  0  0
   59.9312   28.7414   53.3133 H   0  0  0  0  0  0  0  0  0  0  0  0
   59.4122   30.1966   52.3506 H   0  0  0  0  0  0  0  0  0  0  0  0
   60.3280   30.6490   54.2310 C   0  0  0  0  0  0  0  0  0  0  0  0
   60.4178   30.2088   55.2351 H   0  0  0  0  0  0  0  0  0  0  0  0
   61.3281   30.7522   53.7848 H   0  0  0  0  0  0  0  0  0  0  0  0
   59.6990   31.9700   54.3310 N   0  0  0  0  0  0  0  0  0  0  0  0
   60.4890   33.1740   54.2860 C   0  0  0  0  0  0  0  0  0  0  0  0
   60.0220   34.1990   53.7190 O   0  0  0  0  0  0  0  0  0  0  0  0
   61.8030   33.2280   54.8730 N   0  0  0  0  0  0  0  0  0  0  0  0
   62.1270   32.4600   56.0770 C   0  0  0  0  0  0  0  0  0  0  0  0
   61.8767   33.0533   56.9688 H   0  0  0  0  0  0  0  0  0  0  0  0
   61.5463   31.5258   56.0833 H   0  0  0  0  0  0  0  0  0  0  0  0
   63.2014   32.2240   56.0833 H   0  0  0  0  0  0  0  0  0  0  0  0
   62.8290   34.0700   54.2580 C   0  0  0  0  0  0  0  0  0  0  0  0
   63.4232   34.5577   55.0448 H   0  0  0  0  0  0  0  0  0  0  0  0
   63.4874   33.4485   53.6334 H   0  0  0  0  0  0  0  0  0  0  0  0
   62.3479   34.8370   53.6334 H   0  0  0  0  0  0  0  0  0  0  0  0
   58.2360   32.0660   54.3300 C   0  0  0  0  0  0  0  0  0  0  0  0
   57.9224   32.8341   55.0523 H   0  0  0  0  0  0  0  0  0  0  0  0
   57.8961   32.3373   53.3196 H   0  0  0  0  0  0  0  0  0  0  0  0
   57.6130   30.7190   54.7210 C   0  0  0  0  0  0  0  0  0  0  0  0
   57.8861   30.4951   55.7628 H   0  0  0  0  0  0  0  0  0  0  0  0
   56.5241   30.8094   54.5939 H   0  0  0  0  0  0  0  0  0  0  0  0
  1  2  1  0
  2  3  1  0
  2  4  2  0
  4  5  1  0
  5  6  2  0
  6  7  1  0
  6  8  1  0
  8  9  1  0
  9 10  1  0
 10 11  2  0
 10 12  1  0
 12 13  1  0
 13 14  1  0
  5 15  1  0
 15 16  1  0
 15 17  2  0
 17 18  1  0
 18 19  1  0
 18 20  1  0
 18 21  1  0
 17 22  1  0
 22 23  1  0
 23 24  2  0
 23 25  1  0
 25 26  1  0
 25 27  1  0
 27 28  1  0
 27 29  1  0
 27 30  1  0
 30 31  1  0
 30 32  1  0
 30 33  1  0
 33 34  1  0
 34 35  2  0
 34 36  1  0
 36 37  1  0
 37 38  1  0
 37 39  1  0
 37 40  1  0
 36 41  1  0
 41 42  1  0
 41 43  1  0
 41 44  1  0
 33 45  1  0
 45 46  1  0
 45 47  1  0
 45 48  1  0
 48 49  1  0
 48 50  1  0
 22  4  1  0
 48 25  1  0
 13  8  2  0
M  CHG  4   9  -1  12  -1  14  -1  25   1
M  END
>  <UniqueID>  (58) 
57

>  <SMILES>  (58) 
C=c1/c(=C/c2[n-]c(=O)[n-]c2[O-])cc(C)n1C(=O)[NH+]1CCN(C(=O)N(C)C)CC1

>  <Energy>  (58) 
131.2816814714933

>  <Genealogy>  (58) 
C=c1c(=Cc2[n-]c(=O)[n-]c2[O-])cc(C)n1C(=O)[NH+]1CCN(C(=O)N(C)C)CC1 (protonated)
C=c1/c(=C/c2[n-]c(=O)[n-]c2[O-])cc(C)n1C(=O)[NH+]1CCN(C(=O)N(C)C)CC1 (cis-trans isomerization)
C=c1/c(=C/c2[n-]c(=O)[n-]c2[O-])cc(C)n1C(=O)[NH+]1CCN(C(=O)N(C)C)CC1 (3D coordinates assigned)
C=c1/c(=C/c2[n-]c(=O)[n-]c2[O-])cc(C)n1C(=O)[NH+]1CCN(C(=O)N(C)C)CC1 (nonaromatic ring conformer: 131.2816814714933 kcal/mol)

>  <smiles>  (58) 
C=c1c(=Cc2[nH]c(=O)[nH]c2O)cc(C)n1C(=O)N1CCN(C(=O)N(C)C)CC1

>  <score_type>  (58) 
oracle

>  <origin>  (58) 
adg

>  <m_score__min__energy>  (58) 
-15.119999999999999

>  <m_primary>  (58) 
energy

$$$$
58:0
     RDKit          3D

 68 71  0  0  1  0  0  0  0  0999 V2000
   59.3120   22.3710   44.8690 C   0  0  0  0  0  0  0  0  0  0  0  0
   58.0020   22.2640   45.5740 C   0  0  0  0  0  0  0  0  0  0  0  0
   57.4310   23.5090   46.1190 C   0  0  0  0  0  0  0  0  0  0  0  0
   57.8700   24.7670   45.6710 N   0  0  0  0  0  0  0  0  0  0  0  0
   58.4590   25.6880   46.5340 C   0  0  0  0  0  0  0  0  0  0  0  0
   58.0940   27.1070   46.2770 C   0  0  0  0  0  0  0  0  0  0  0  0
   57.8960   27.4510   44.8890 N   0  0  0  0  0  0  0  0  0  0  0  0
   57.4890   28.7650   44.5130 C   0  0  0  0  0  0  0  0  0  0  0  0
   57.4360   29.7950   45.3590 N   0  0  0  0  0  0  0  0  0  0  0  0
   57.0170   30.9920   44.8770 C   0  0  0  0  0  0  0  0  0  0  0  0
   56.9470   32.0500   45.5830 N   0  0  0  0  0  0  0  0  0  0  0  0
   57.9470   33.0470   45.6170 C   0  0  0  0  0  0  0  0  0  0  0  0
   57.9700   34.1510   44.7940 C   0  0  0  0  0  0  0  0  0  0  0  0
   59.0000   35.0750   44.9050 C   0  0  0  0  0  0  0  0  0  0  0  0
   60.0210   34.9140   45.8370 C   0  0  0  0  0  0  0  0  0  0  0  0
   60.0000   33.8090   46.6610 C   0  0  0  0  0  0  0  0  0  0  0  0
   61.0180   33.5280   47.6640 C   0  0  0  0  0  0  0  0  0  0  0  0
   60.8230   33.9050   48.8570 O   0  0  0  0  0  0  0  0  0  0  0  0
   62.2280   32.8440   47.3700 N   0  0  0  0  0  0  0  0  0  0  0  0
   63.1240   32.6260   48.4530 C   0  0  0  0  0  0  0  0  0  0  0  0
   64.2600   33.3580   48.6580 C   0  0  0  0  0  0  0  0  0  0  0  0
   65.0500   33.0370   49.7650 C   0  0  0  0  0  0  0  0  0  0  0  0
   64.6780   32.0140   50.6090 C   0  0  0  0  0  0  0  0  0  0  0  0
   63.5380   31.2680   50.4190 C   0  0  0  0  0  0  0  0  0  0  0  0
   63.0430   29.9670   51.4800 S   0  0  0  0  0  0  0  0  0  0  0  0
   61.5490   29.1750   50.8740 C   0  0  0  0  0  0  0  0  0  0  0  0
   62.6880   30.5640   52.8270 O   0  0  0  0  0  0  0  0  0  0  0  0
   64.1160   28.9350   51.6600 O   0  0  0  0  0  0  0  0  0  0  0  0
   62.7640   31.5950   49.3230 C   0  0  0  0  0  0  0  0  0  0  0  0
   58.9690   32.9190   46.5230 C   0  0  0  0  0  0  0  0  0  0  0  0
   58.9590   31.7390   47.4350 C   0  0  0  0  0  0  0  0  0  0  0  0
   56.6500   31.1360   43.5280 C   0  0  0  0  0  0  0  0  0  0  0  0
   56.7160   30.0540   42.6810 C   0  0  0  0  0  0  0  0  0  0  0  0
   57.1360   28.8880   43.1950 N   0  0  0  0  0  0  0  0  0  0  0  0
   58.1340   26.3870   43.9250 C   0  0  0  0  0  0  0  0  0  0  0  0
   57.3250   25.2030   44.4400 C   0  0  0  0  0  0  0  0  0  0  0  0
   60.1226   22.4372   45.6096 H   0  0  0  0  0  0  0  0  0  0  0  0
   59.4629   21.4822   44.2387 H   0  0  0  0  0  0  0  0  0  0  0  0
   59.3166   23.2725   44.2387 H   0  0  0  0  0  0  0  0  0  0  0  0
   57.2743   21.8497   44.8607 H   0  0  0  0  0  0  0  0  0  0  0  0
   58.2015   21.6330   46.4526 H   0  0  0  0  0  0  0  0  0  0  0  0
   56.3493   23.4681   45.9234 H   0  0  0  0  0  0  0  0  0  0  0  0
   57.7733   23.4931   47.1643 H   0  0  0  0  0  0  0  0  0  0  0  0
   58.1550   25.4373   47.5610 H   0  0  0  0  0  0  0  0  0  0  0  0
   59.5444   25.6136   46.3717 H   0  0  0  0  0  0  0  0  0  0  0  0
   57.1597   27.3208   46.8168 H   0  0  0  0  0  0  0  0  0  0  0  0
   58.9487   27.7082   46.6206 H   0  0  0  0  0  0  0  0  0  0  0  0
   57.1736   34.3003   44.0500 H   0  0  0  0  0  0  0  0  0  0  0  0
   59.0094   35.9530   44.2424 H   0  0  0  0  0  0  0  0  0  0  0  0
   60.8301   35.6551   45.9147 H   0  0  0  0  0  0  0  0  0  0  0  0
   62.4090   32.5360   46.3900 H   0  0  0  0  0  0  0  0  0  0  0  0
   64.5428   34.1723   47.9746 H   0  0  0  0  0  0  0  0  0  0  0  0
   65.9721   33.6032   49.9631 H   0  0  0  0  0  0  0  0  0  0  0  0
   65.3201   31.7837   51.4720 H   0  0  0  0  0  0  0  0  0  0  0  0
   60.9349   28.8495   51.7266 H   0  0  0  0  0  0  0  0  0  0  0  0
   60.9779   29.8888   50.2622 H   0  0  0  0  0  0  0  0  0  0  0  0
   61.8193   28.3017   50.2622 H   0  0  0  0  0  0  0  0  0  0  0  0
   61.8406   31.0290   49.1306 H   0  0  0  0  0  0  0  0  0  0  0  0
   58.9619   32.0831   48.4798 H   0  0  0  0  0  0  0  0  0  0  0  0
   58.0557   31.1394   47.2489 H   0  0  0  0  0  0  0  0  0  0  0  0
   59.8520   31.1242   47.2489 H   0  0  0  0  0  0  0  0  0  0  0  0
   56.3107   32.1118   43.1502 H   0  0  0  0  0  0  0  0  0  0  0  0
   56.4347   30.1416   41.6212 H   0  0  0  0  0  0  0  0  0  0  0  0
   57.1820   28.0780   42.5400 H   0  0  0  0  0  0  0  0  0  0  0  0
   57.7878   26.6865   42.9248 H   0  0  0  0  0  0  0  0  0  0  0  0
   59.2032   26.1473   43.8285 H   0  0  0  0  0  0  0  0  0  0  0  0
   56.2789   25.5090   44.5886 H   0  0  0  0  0  0  0  0  0  0  0  0
   57.3633   24.3829   43.7079 H   0  0  0  0  0  0  0  0  0  0  0  0
  1  2  1  0
  2  3  1  0
  3  4  1  0
  4  5  1  0
  5  6  1  0
  6  7  1  0
  7  8  1  0
  8  9  2  0
  9 10  1  0
 10 11  2  0
 11 12  1  0
 12 13  2  0
 13 14  1  0
 14 15  2  0
 15 16  1  0
 16 17  1  0
 17 18  2  0
 17 19  1  0
 19 20  1  0
 20 21  2  0
 21 22  1  0
 22 23  2  0
 23 24  1  0
 24 25  1  0
 25 26  1  0
 25 27  2  0
 25 28  2  0
 24 29  2  0
 16 30  2  0
 30 31  1  0
 10 32  1  0
 32 33  2  0
 33 34  1  0
  7 35  1  0
 35 36  1  0
 36  4  1  0
 34  8  1  0
 30 12  1  0
 29 20  1  0
  1 37  1  0
  1 38  1  0
  1 39  1  0
  2 40  1  0
  2 41  1  0
  3 42  1  0
  3 43  1  0
  5 44  1  0
  5 45  1  0
  6 46  1  0
  6 47  1  0
 13 48  1  0
 14 49  1  0
 15 50  1  0
 19 51  1  0
 21 52  1  0
 22 53  1  0
 23 54  1  0
 26 55  1  0
 26 56  1  0
 26 57  1  0
 29 58  1  0
 31 59  1  0
 31 60  1  0
 31 61  1  0
 32 62  1  0
 33 63  1  0
 34 64  1  0
 35 65  1  0
 35 66  1  0
 36 67  1  0
 36 68  1  0
M  END
>  <smiles>  (59) 
CCCN1CCN(c2nc(=Nc3cccc(C(=O)Nc4cccc(S(C)(=O)=O)c4)c3C)cc[nH]2)CC1

>  <score_type>  (59) 
oracle

>  <origin>  (59) 
adg

>  <m_score__min__energy>  (59) 
-10.74

>  <m_primary>  (59) 
energy

$$$$
59:0
     RDKit          3D

 37 38  0  0  0  0  0  0  0  0999 V2000
   57.1710   30.8980   42.7020 O   0  0  0  0  0  0  0  0  0  0  0  0
   56.6030   30.7260   43.8140 C   0  0  0  0  0  0  0  0  0  0  0  0
   55.5220   29.7010   43.9470 C   0  0  0  0  0  0  0  0  0  0  0  0
   55.6230   29.0280   45.2400 N   0  0  0  0  0  0  0  0  0  0  0  0
   56.2910   27.7880   45.5010 C   0  0  0  0  0  0  0  0  0  0  0  0
   55.6280   26.8390   45.9970 O   0  0  0  0  0  0  0  0  0  0  0  0
   57.7450   27.5680   45.1850 C   0  0  0  0  0  0  0  0  0  0  0  0
   58.6300   28.4830   45.9890 C   0  0  0  0  0  0  0  0  0  0  0  0
   58.5360   28.5040   47.3910 C   0  0  0  0  0  0  0  0  0  0  0  0
   59.3920   29.3150   48.1430 C   0  0  0  0  0  0  0  0  0  0  0  0
   60.3430   30.1130   47.5020 C   0  0  0  0  0  0  0  0  0  0  0  0
   60.4410   30.1020   46.1090 C   0  0  0  0  0  0  0  0  0  0  0  0
   59.5940   29.2840   45.3540 C   0  0  0  0  0  0  0  0  0  0  0  0
   56.9250   31.5620   44.9300 N   0  0  0  0  0  0  0  0  0  0  0  0
   57.3220   32.9590   44.8040 C   0  0  0  0  0  0  0  0  0  0  0  0
   58.2120   33.3620   45.9480 C   0  0  0  0  0  0  0  0  0  0  0  0
   59.1570   34.3900   45.7900 C   0  0  0  0  0  0  0  0  0  0  0  0
   59.9500   34.7870   46.8700 C   0  0  0  0  0  0  0  0  0  0  0  0
   59.8120   34.1570   48.1110 C   0  0  0  0  0  0  0  0  0  0  0  0
   60.5880   34.5440   49.1540 F   0  0  0  0  0  0  0  0  0  0  0  0
   58.8860   33.1230   48.2700 C   0  0  0  0  0  0  0  0  0  0  0  0
   58.7600   32.5020   49.4690 F   0  0  0  0  0  0  0  0  0  0  0  0
   58.0890   32.7250   47.1930 C   0  0  0  0  0  0  0  0  0  0  0  0
   54.5418   30.1941   43.8693 H   0  0  0  0  0  0  0  0  0  0  0  0
   55.6317   28.9566   43.1446 H   0  0  0  0  0  0  0  0  0  0  0  0
   58.0067   26.5247   45.4152 H   0  0  0  0  0  0  0  0  0  0  0  0
   57.9027   27.7856   44.1183 H   0  0  0  0  0  0  0  0  0  0  0  0
   57.7860   27.8800   47.8991 H   0  0  0  0  0  0  0  0  0  0  0  0
   59.3165   29.3246   49.2404 H   0  0  0  0  0  0  0  0  0  0  0  0
   61.0151   30.7505   48.0951 H   0  0  0  0  0  0  0  0  0  0  0  0
   61.1847   30.7369   45.6052 H   0  0  0  0  0  0  0  0  0  0  0  0
   59.6831   29.2677   44.2577 H   0  0  0  0  0  0  0  0  0  0  0  0
   57.8654   33.0964   43.8575 H   0  0  0  0  0  0  0  0  0  0  0  0
   56.4190   33.5869   44.8191 H   0  0  0  0  0  0  0  0  0  0  0  0
   59.2728   34.8834   44.8137 H   0  0  0  0  0  0  0  0  0  0  0  0
   60.6841   35.5965   46.7438 H   0  0  0  0  0  0  0  0  0  0  0  0
   57.3623   31.9092   47.3214 H   0  0  0  0  0  0  0  0  0  0  0  0
  1  2  2  0
  2  3  1  0
  3  4  1  0
  4  5  1  0
  5  6  2  0
  5  7  1  0
  7  8  1  0
  8  9  2  0
  9 10  1  0
 10 11  2  0
 11 12  1  0
 12 13  2  0
  2 14  1  0
 14 15  1  0
 15 16  1  0
 16 17  2  0
 17 18  1  0
 18 19  2  0
 19 20  1  0
 19 21  1  0
 21 22  1  0
 21 23  2  0
 13  8  1  0
 23 16  1  0
  3 24  1  0
  3 25  1  0
  7 26  1  0
  7 27  1  0
  9 28  1  0
 10 29  1  0
 11 30  1  0
 12 31  1  0
 13 32  1  0
 15 33  1  0
 15 34  1  0
 17 35  1  0
 18 36  1  0
 23 37  1  0
M  CHG  2   4  -1  14  -1
M  END
>  <UniqueID>  (60) 
58

>  <SMILES>  (60) 
O=C(C[N-]C(=O)Cc1ccccc1)[N-]Cc1ccc(F)c(F)c1

>  <Energy>  (60) 
28.305189691570476

>  <Genealogy>  (60) 
O=C(C[N-]C(=O)Cc1ccccc1)[N-]Cc1ccc(F)c(F)c1 (protonated)
O=C(C[N-]C(=O)Cc1ccccc1)[N-]Cc1ccc(F)c(F)c1 (3D coordinates assigned)
O=C(C[N-]C(=O)Cc1ccccc1)[N-]Cc1ccc(F)c(F)c1 (optimized conformer: 28.305189691570476 kcal/mol)

>  <smiles>  (60) 
O=C(CNC(=O)Cc1ccccc1)NCc1ccc(F)c(F)c1

>  <score_type>  (60) 
oracle

>  <origin>  (60) 
adg

>  <m_score__min__energy>  (60) 
-11.91

>  <m_primary>  (60) 
energy

$$$$
60:0
     RDKit          3D

 37 39  0  0  0  0  0  0  0  0999 V2000
   55.5100   25.8750   45.9780 C   0  0  0  0  0  0  0  0  0  0  0  0
   56.4300   27.0490   45.9810 C   0  0  0  0  0  0  0  0  0  0  0  0
   57.6430   27.1220   46.6420 C   0  0  0  0  0  0  0  0  0  0  0  0
   58.1280   28.3570   46.2790 C   0  0  0  0  0  0  0  0  0  0  0  0
   59.2250   28.8470   46.6610 O   0  0  0  0  0  0  0  0  0  0  0  0
   57.2590   28.9690   45.4490 N   0  0  0  0  0  0  0  0  0  0  0  0
   57.3870   30.2620   44.8410 C   0  0  0  0  0  0  0  0  0  0  0  0
   57.4290   30.3740   43.4860 N   0  0  0  0  0  0  0  0  0  0  0  0
   57.5390   31.5870   42.8850 C   0  0  0  0  0  0  0  0  0  0  0  0
   57.6120   32.7430   43.6590 C   0  0  0  0  0  0  0  0  0  0  0  0
   57.5820   32.6170   45.0520 C   0  0  0  0  0  0  0  0  0  0  0  0
   57.6110   33.8290   45.9350 C   0  0  0  0  0  0  0  0  0  0  0  0
   58.9660   33.9780   46.5510 C   0  0  0  0  0  0  0  0  0  0  0  0
   59.2410   34.1190   47.8990 C   0  0  0  0  0  0  0  0  0  0  0  0
   60.6190   34.1170   48.0080 C   0  0  0  0  0  0  0  0  0  0  0  0
   61.3820   34.1930   49.2940 C   0  0  0  0  0  0  0  0  0  0  0  0
   61.1820   33.9680   46.7890 N   0  0  0  0  0  0  0  0  0  0  0  0
   62.6060   33.8390   46.4930 C   0  0  0  0  0  0  0  0  0  0  0  0
   60.1780   33.8700   45.8960 C   0  0  0  0  0  0  0  0  0  0  0  0
   57.4600   31.3840   45.6100 N   0  0  0  0  0  0  0  0  0  0  0  0
   56.2200   28.1700   45.2560 N   0  0  0  0  0  0  0  0  0  0  0  0
   55.2825   25.5848   47.0144 H   0  0  0  0  0  0  0  0  0  0  0  0
   54.5775   26.1412   45.4587 H   0  0  0  0  0  0  0  0  0  0  0  0
   55.9914   25.0332   45.4587 H   0  0  0  0  0  0  0  0  0  0  0  0
   58.1079   26.3727   47.2997 H   0  0  0  0  0  0  0  0  0  0  0  0
   57.5704   31.6566   41.7877 H   0  0  0  0  0  0  0  0  0  0  0  0
   57.6914   33.7327   43.1855 H   0  0  0  0  0  0  0  0  0  0  0  0
   57.3827   34.7226   45.3355 H   0  0  0  0  0  0  0  0  0  0  0  0
   56.8615   33.7144   46.7320 H   0  0  0  0  0  0  0  0  0  0  0  0
   58.5120   34.2135   48.7173 H   0  0  0  0  0  0  0  0  0  0  0  0
   60.6825   34.1233   50.1400 H   0  0  0  0  0  0  0  0  0  0  0  0
   62.1011   33.3620   49.3434 H   0  0  0  0  0  0  0  0  0  0  0  0
   61.9230   35.1495   49.3434 H   0  0  0  0  0  0  0  0  0  0  0  0
   63.1730   33.7876   47.4342 H   0  0  0  0  0  0  0  0  0  0  0  0
   62.7779   32.9216   45.9109 H   0  0  0  0  0  0  0  0  0  0  0  0
   62.9399   34.7106   45.9109 H   0  0  0  0  0  0  0  0  0  0  0  0
   60.3036   33.7262   44.8127 H   0  0  0  0  0  0  0  0  0  0  0  0
  1  2  1  0
  2  3  2  0
  3  4  1  0
  4  5  2  0
  4  6  1  0
  6  7  1  0
  7  8  2  0
  8  9  1  0
  9 10  2  0
 10 11  1  0
 11 12  1  0
 12 13  1  0
 13 14  1  0
 14 15  2  0
 15 16  1  0
 15 17  1  0
 17 18  1  0
 17 19  1  0
 11 20  2  0
  6 21  1  0
 21  2  1  0
 20  7  1  0
 19 13  2  0
  1 22  1  0
  1 23  1  0
  1 24  1  0
  3 25  1  0
  9 26  1  0
 10 27  1  0
 12 28  1  0
 12 29  1  0
 14 30  1  0
 16 31  1  0
 16 32  1  0
 16 33  1  0
 18 34  1  0
 18 35  1  0
 18 36  1  0
 19 37  1  0
M  CHG  1  21  -1
M  END
>  <UniqueID>  (61) 
59

>  <SMILES>  (61) 
Cc1cc(=O)n(-c2nccc(Cc3cc(C)n(C)c3)n2)[n-]1

>  <Energy>  (61) 
92.5453283406595

>  <Genealogy>  (61) 
Cc1cc(=O)n(-c2nccc(Cc3cc(C)n(C)c3)n2)[n-]1 (protonated)
Cc1cc(=O)n(-c2nccc(Cc3cc(C)n(C)c3)n2)[n-]1 (3D coordinates assigned)
Cc1cc(=O)n(-c2nccc(Cc3cc(C)n(C)c3)n2)[n-]1 (optimized conformer: 92.5453283406595 kcal/mol)

>  <smiles>  (61) 
Cc1cc(=O)n(-c2nccc(Cc3cc(C)n(C)c3)n2)[nH]1

>  <score_type>  (61) 
oracle

>  <origin>  (61) 
adg

>  <m_score__min__energy>  (61) 
-8.8100000000000005

>  <m_primary>  (61) 
energy

$$$$
61:0
     RDKit          3D

 37 39  0  0  0  0  0  0  0  0999 V2000
   54.7610   28.9610   45.4660 H   0  0  0  0  0  0  0  0  0  0  0  0
   55.6410   28.5460   45.1840 O   0  0  0  0  0  0  0  0  0  0  0  0
   56.0370   27.2920   45.6420 C   0  0  0  0  0  0  0  0  0  0  0  0
   55.1690   26.3130   45.9440 N   0  0  0  0  0  0  0  0  0  0  0  0
   55.9730   25.3300   46.4030 C   0  0  0  0  0  0  0  0  0  0  0  0
   55.5300   24.2210   46.8020 O   0  0  0  0  0  0  0  0  0  0  0  0
   57.2890   25.6300   46.4070 N   0  0  0  0  0  0  0  0  0  0  0  0
   57.3270   26.8740   45.9000 C   0  0  0  0  0  0  0  0  0  0  0  0
   58.5730   27.6470   45.7500 C   0  0  0  0  0  0  0  0  0  0  0  0
   59.3984   27.1966   45.1791 H   0  0  0  0  0  0  0  0  0  0  0  0
   58.7570   28.8760   46.2740 C   0  0  0  0  0  0  0  0  0  0  0  0
   59.2520   29.1480   47.5310 C   0  0  0  0  0  0  0  0  0  0  0  0
   59.5787   28.4134   48.2817 H   0  0  0  0  0  0  0  0  0  0  0  0
   59.2580   30.5170   47.6640 C   0  0  0  0  0  0  0  0  0  0  0  0
   59.8530   31.2030   48.8620 C   0  0  0  0  0  0  0  0  0  0  0  0
   59.4566   30.7460   49.7807 H   0  0  0  0  0  0  0  0  0  0  0  0
   60.9474   31.0940   48.8410 H   0  0  0  0  0  0  0  0  0  0  0  0
   59.5904   32.2710   48.8410 H   0  0  0  0  0  0  0  0  0  0  0  0
   58.7070   31.1310   46.5770 N   0  0  0  0  0  0  0  0  0  0  0  0
   58.4760   32.6060   46.4860 C   0  0  0  0  0  0  0  0  0  0  0  0
   58.4089   32.8768   47.5500 H   0  0  0  0  0  0  0  0  0  0  0  0
   57.2190   32.9390   45.6520 C   0  0  0  0  0  0  0  0  0  0  0  0
   56.9969   32.1096   44.9645 H   0  0  0  0  0  0  0  0  0  0  0  0
   56.3516   33.0880   46.3118 H   0  0  0  0  0  0  0  0  0  0  0  0
   57.5030   34.2090   44.8560 C   0  0  0  0  0  0  0  0  0  0  0  0
   57.4720   33.9973   43.7770 H   0  0  0  0  0  0  0  0  0  0  0  0
   56.7517   34.9860   45.0607 H   0  0  0  0  0  0  0  0  0  0  0  0
   58.8900   34.6630   45.2620 C   0  0  0  0  0  0  0  0  0  0  0  0
   59.4369   35.0555   44.3920 H   0  0  0  0  0  0  0  0  0  0  0  0
   58.8548   35.4712   46.0074 H   0  0  0  0  0  0  0  0  0  0  0  0
   59.5740   33.4250   45.8040 C   0  0  0  0  0  0  0  0  0  0  0  0
   60.0284   32.8488   44.9846 H   0  0  0  0  0  0  0  0  0  0  0  0
   60.3811   33.6830   46.5055 H   0  0  0  0  0  0  0  0  0  0  0  0
   58.4830   30.1140   45.6770 C   0  0  0  0  0  0  0  0  0  0  0  0
   58.2020   30.2560   44.3700 C   0  0  0  0  0  0  0  0  0  0  0  0
   57.9949   31.2544   43.9573 H   0  0  0  0  0  0  0  0  0  0  0  0
   58.1792   29.3738   43.7133 H   0  0  0  0  0  0  0  0  0  0  0  0
  1  2  1  0
  2  3  1  0
  3  4  1  0
  4  5  1  0
  5  6  2  0
  5  7  1  0
  7  8  1  0
  8  9  1  0
  9 10  1  0
  9 11  2  0
 11 12  1  0
 12 13  1  0
 12 14  2  0
 14 15  1  0
 15 16  1  0
 15 17  1  0
 15 18  1  0
 14 19  1  0
 19 20  1  0
 20 21  1  0
 20 22  1  0
 22 23  1  0
 22 24  1  0
 22 25  1  0
 25 26  1  0
 25 27  1  0
 25 28  1  0
 28 29  1  0
 28 30  1  0
 28 31  1  0
 31 32  1  0
 31 33  1  0
 19 34  1  0
 34 35  2  0
 35 36  1  0
 35 37  1  0
  8  3  2  0
 34 11  1  0
 31 20  1  0
M  CHG  2   4  -1   7  -1
M  END
>  <UniqueID>  (62) 
60

>  <SMILES>  (62) 
C=c1/c(=C/c2[n-]c(=O)[n-]c2O)cc(C)n1C1CCCC1

>  <Energy>  (62) 
117.31020887898204

>  <Genealogy>  (62) 
C=c1c(=Cc2[n-]c(=O)[n-]c2O)cc(C)n1C1CCCC1 (protonated)
C=c1/c(=C/c2[n-]c(=O)[n-]c2O)cc(C)n1C1CCCC1 (cis-trans isomerization)
C=c1/c(=C/c2[n-]c(=O)[n-]c2O)cc(C)n1C1CCCC1 (3D coordinates assigned)
C=c1/c(=C/c2[n-]c(=O)[n-]c2O)cc(C)n1C1CCCC1 (nonaromatic ring conformer: 117.31020887898204 kcal/mol)

>  <smiles>  (62) 
C=c1c(=Cc2[nH]c(=O)[nH]c2O)cc(C)n1C1CCCC1

>  <score_type>  (62) 
oracle

>  <origin>  (62) 
adg

>  <m_score__min__energy>  (62) 
-12.17

>  <m_primary>  (62) 
energy

$$$$
62:0
     RDKit          3D

 68 72  0  0  0  0  0  0  0  0999 V2000
   56.9770   24.8270   43.6200 C   0  0  0  0  0  0  0  0  0  0  0  0
   57.7030   25.3240   44.8120 C   0  0  0  0  0  0  0  0  0  0  0  0
   57.8640   24.5190   45.9320 C   0  0  0  0  0  0  0  0  0  0  0  0
   58.5370   24.9620   47.0560 C   0  0  0  0  0  0  0  0  0  0  0  0
   59.0470   26.2440   47.0200 C   0  0  0  0  0  0  0  0  0  0  0  0
   59.7640   26.8260   48.1080 N   0  0  0  0  0  0  0  0  0  0  0  0
   59.6070   28.1510   48.5440 C   0  0  0  0  0  0  0  0  0  0  0  0
   58.7610   28.8670   47.9120 O   0  0  0  0  0  0  0  0  0  0  0  0
   60.3580   28.7130   49.6610 C   0  0  0  0  0  0  0  0  0  0  0  0
   60.7350   27.9760   50.7640 C   0  0  0  0  0  0  0  0  0  0  0  0
   61.4460   28.5020   51.8210 C   0  0  0  0  0  0  0  0  0  0  0  0
   61.7830   29.8370   51.7440 C   0  0  0  0  0  0  0  0  0  0  0  0
   61.4230   30.6280   50.6450 C   0  0  0  0  0  0  0  0  0  0  0  0
   61.8640   32.0390   50.6970 C   0  0  0  0  0  0  0  0  0  0  0  0
   62.1420   32.5650   49.3400 C   0  0  0  0  0  0  0  0  0  0  0  0
   63.4130   32.4210   48.8880 N   0  0  0  0  0  0  0  0  0  0  0  0
   63.8320   32.8530   47.7120 N   0  0  0  0  0  0  0  0  0  0  0  0
   62.9930   33.4840   46.8610 C   0  0  0  0  0  0  0  0  0  0  0  0
   63.3710   33.9030   45.7370 O   0  0  0  0  0  0  0  0  0  0  0  0
   61.6770   33.6470   47.2990 C   0  0  0  0  0  0  0  0  0  0  0  0
   61.2550   33.1890   48.5300 C   0  0  0  0  0  0  0  0  0  0  0  0
   59.8440   33.3610   48.9550 C   0  0  0  0  0  0  0  0  0  0  0  0
   58.9820   33.1210   47.7240 C   0  0  0  0  0  0  0  0  0  0  0  0
   59.3120   33.9930   46.5640 C   0  0  0  0  0  0  0  0  0  0  0  0
   60.7520   34.3320   46.3930 C   0  0  0  0  0  0  0  0  0  0  0  0
   60.7160   30.0580   49.6180 C   0  0  0  0  0  0  0  0  0  0  0  0
   58.8810   27.0380   45.9020 C   0  0  0  0  0  0  0  0  0  0  0  0
   58.2090   26.6010   44.7730 C   0  0  0  0  0  0  0  0  0  0  0  0
   58.0750   27.5080   43.6100 C   0  0  0  0  0  0  0  0  0  0  0  0
   57.4910   28.7850   43.9900 N   0  0  0  0  0  0  0  0  0  0  0  0
   56.7890   29.3930   42.8740 C   0  0  0  0  0  0  0  0  0  0  0  0
   56.5640   30.8530   43.1030 C   0  0  0  0  0  0  0  0  0  0  0  0
   56.6420   31.1920   44.5080 N   0  0  0  0  0  0  0  0  0  0  0  0
   57.9060   30.8790   45.1040 C   0  0  0  0  0  0  0  0  0  0  0  0
   58.5220   29.7010   44.3920 C   0  0  0  0  0  0  0  0  0  0  0  0
   56.1088   24.2326   43.9409 H   0  0  0  0  0  0  0  0  0  0  0  0
   56.6342   25.6808   43.0170 H   0  0  0  0  0  0  0  0  0  0  0  0
   57.6489   24.1986   43.0170 H   0  0  0  0  0  0  0  0  0  0  0  0
   57.4451   23.5019   45.9250 H   0  0  0  0  0  0  0  0  0  0  0  0
   58.6605   24.3202   47.9408 H   0  0  0  0  0  0  0  0  0  0  0  0
   60.4480   26.1720   48.5850 H   0  0  0  0  0  0  0  0  0  0  0  0
   60.4537   26.9133   50.8021 H   0  0  0  0  0  0  0  0  0  0  0  0
   61.7315   27.8854   52.6861 H   0  0  0  0  0  0  0  0  0  0  0  0
   62.3503   30.2936   52.5684 H   0  0  0  0  0  0  0  0  0  0  0  0
   61.0723   32.6453   51.1613 H   0  0  0  0  0  0  0  0  0  0  0  0
   62.7907   32.0923   51.2873 H   0  0  0  0  0  0  0  0  0  0  0  0
   64.8290   32.7080   47.4270 H   0  0  0  0  0  0  0  0  0  0  0  0
   59.5936   32.6328   49.7405 H   0  0  0  0  0  0  0  0  0  0  0  0
   59.6751   34.3676   49.3652 H   0  0  0  0  0  0  0  0  0  0  0  0
   59.1087   32.0732   47.4140 H   0  0  0  0  0  0  0  0  0  0  0  0
   57.9479   33.3601   48.0129 H   0  0  0  0  0  0  0  0  0  0  0  0
   58.9759   33.4802   45.6507 H   0  0  0  0  0  0  0  0  0  0  0  0
   58.8023   34.9487   46.7560 H   0  0  0  0  0  0  0  0  0  0  0  0
   61.0389   34.0785   45.3618 H   0  0  0  0  0  0  0  0  0  0  0  0
   60.8384   35.4029   46.6292 H   0  0  0  0  0  0  0  0  0  0  0  0
   60.4283   30.6699   48.7504 H   0  0  0  0  0  0  0  0  0  0  0  0
   59.2983   28.0557   45.9088 H   0  0  0  0  0  0  0  0  0  0  0  0
   59.0715   27.6855   43.1793 H   0  0  0  0  0  0  0  0  0  0  0  0
   57.4088   27.0302   42.8766 H   0  0  0  0  0  0  0  0  0  0  0  0
   57.3873   29.2618   41.9603 H   0  0  0  0  0  0  0  0  0  0  0  0
   55.8095   28.9030   42.7721 H   0  0  0  0  0  0  0  0  0  0  0  0
   57.3300   31.4220   42.5558 H   0  0  0  0  0  0  0  0  0  0  0  0
   55.5551   31.1052   42.7445 H   0  0  0  0  0  0  0  0  0  0  0  0
   56.3460   32.1860   44.6240 H   0  0  0  0  0  0  0  0  0  0  0  0
   58.5753   31.7480   45.0210 H   0  0  0  0  0  0  0  0  0  0  0  0
   57.7582   30.6287   46.1649 H   0  0  0  0  0  0  0  0  0  0  0  0
   59.0645   30.0542   43.5026 H   0  0  0  0  0  0  0  0  0  0  0  0
   59.2196   29.1890   45.0711 H   0  0  0  0  0  0  0  0  0  0  0  0
  1  2  1  0
  2  3  2  0
  3  4  1  0
  4  5  2  0
  5  6  1  0
  6  7  1  0
  7  8  2  0
  7  9  1  0
  9 10  2  0
 10 11  1  0
 11 12  2  0
 12 13  1  0
 13 14  1  0
 14 15  1  0
 15 16  2  0
 16 17  1  0
 17 18  1  0
 18 19  2  0
 18 20  1  0
 20 21  2  0
 21 22  1  0
 22 23  1  0
 23 24  1  0
 24 25  1  0
 13 26  2  0
  5 27  1  0
 27 28  2  0
 28 29  1  0
 29 30  1  0
 30 31  1  0
 31 32  1  0
 32 33  1  0
 33 34  1  0
 34 35  1  0
 28  2  1  0
 35 30  1  0
 26  9  1  0
 21 15  1  0
 25 20  1  0
  1 36  1  0
  1 37  1  0
  1 38  1  0
  3 39  1  0
  4 40  1  0
  6 41  1  0
 10 42  1  0
 11 43  1  0
 12 44  1  0
 14 45  1  0
 14 46  1  0
 17 47  1  0
 22 48  1  0
 22 49  1  0
 23 50  1  0
 23 51  1  0
 24 52  1  0
 24 53  1  0
 25 54  1  0
 25 55  1  0
 26 56  1  0
 27 57  1  0
 29 58  1  0
 29 59  1  0
 31 60  1  0
 31 61  1  0
 32 62  1  0
 32 63  1  0
 33 64  1  0
 34 65  1  0
 34 66  1  0
 35 67  1  0
 35 68  1  0
M  END
>  <smiles>  (63) 
Cc1ccc(NC(=O)c2cccc(Cc3n[nH]c(=O)c4c3CCCC4)c2)cc1CN1CCNCC1

>  <score_type>  (63) 
oracle

>  <origin>  (63) 
adg

>  <m_score__min__energy>  (63) 
-11.19

>  <m_primary>  (63) 
energy

$$$$
63:0
     RDKit          3D

 48 50  0  0  0  0  0  0  0  0999 V2000
   58.0070   25.7010   45.6850 C   0  0  0  0  0  0  0  0  0  0  0  0
   57.1670   26.8490   46.1500 C   0  0  0  0  0  0  0  0  0  0  0  0
   55.9210   26.8140   45.9670 O   0  0  0  0  0  0  0  0  0  0  0  0
   57.7750   28.0430   46.7690 C   0  0  0  0  0  0  0  0  0  0  0  0
   58.4360   27.8810   47.9970 C   0  0  0  0  0  0  0  0  0  0  0  0
   58.9860   28.9820   48.6680 C   0  0  0  0  0  0  0  0  0  0  0  0
   59.6070   28.8180   50.0290 C   0  0  0  0  0  0  0  0  0  0  0  0
   61.0300   28.8750   49.9310 O   0  0  0  0  0  0  0  0  0  0  0  0
   61.7210   30.0150   49.5060 C   0  0  0  0  0  0  0  0  0  0  0  0
   62.3100   30.7540   50.3420 O   0  0  0  0  0  0  0  0  0  0  0  0
   61.7710   30.3250   48.1090 N   0  0  0  0  0  0  0  0  0  0  0  0
   62.0690   31.6350   47.6000 C   0  0  0  0  0  0  0  0  0  0  0  0
   63.3710   31.9320   47.1710 C   0  0  0  0  0  0  0  0  0  0  0  0
   63.6780   33.2010   46.6740 C   0  0  0  0  0  0  0  0  0  0  0  0
   62.6850   34.1800   46.5830 C   0  0  0  0  0  0  0  0  0  0  0  0
   61.3680   33.8860   46.9700 C   0  0  0  0  0  0  0  0  0  0  0  0
   60.2930   34.9330   46.8840 C   0  0  0  0  0  0  0  0  0  0  0  0
   59.1310   34.3960   46.1850 N   0  0  0  0  0  0  0  0  0  0  0  0
   58.0600   33.8050   46.7390 C   0  0  0  0  0  0  0  0  0  0  0  0
   57.2120   33.3550   45.7940 N   0  0  0  0  0  0  0  0  0  0  0  0
   57.8400   33.7020   44.6490 C   0  0  0  0  0  0  0  0  0  0  0  0
   59.0130   34.3280   44.8720 N   0  0  0  0  0  0  0  0  0  0  0  0
   61.0650   32.6140   47.4780 C   0  0  0  0  0  0  0  0  0  0  0  0
   58.8790   30.2560   48.1000 C   0  0  0  0  0  0  0  0  0  0  0  0
   58.2500   30.4260   46.8660 C   0  0  0  0  0  0  0  0  0  0  0  0
   57.7010   29.3310   46.1810 C   0  0  0  0  0  0  0  0  0  0  0  0
   56.9740   29.6000   44.5880 S   0  0  0  0  0  0  0  0  0  0  0  0
   55.2720   29.2950   44.6400 N   0  0  0  0  0  0  0  0  0  0  0  0
   57.6070   28.6850   43.5790 O   0  0  0  0  0  0  0  0  0  0  0  0
   57.1760   31.0290   44.1700 O   0  0  0  0  0  0  0  0  0  0  0  0
   58.4031   25.1597   46.5568 H   0  0  0  0  0  0  0  0  0  0  0  0
   57.3928   25.0194   45.0782 H   0  0  0  0  0  0  0  0  0  0  0  0
   58.8425   26.0801   45.0782 H   0  0  0  0  0  0  0  0  0  0  0  0
   58.5234   26.8772   48.4383 H   0  0  0  0  0  0  0  0  0  0  0  0
   59.2555   29.6251   50.6886 H   0  0  0  0  0  0  0  0  0  0  0  0
   59.3142   27.8415   50.4421 H   0  0  0  0  0  0  0  0  0  0  0  0
   61.6120   29.5460   47.4310 H   0  0  0  0  0  0  0  0  0  0  0  0
   64.1544   31.1617   47.2262 H   0  0  0  0  0  0  0  0  0  0  0  0
   64.7049   33.4304   46.3532 H   0  0  0  0  0  0  0  0  0  0  0  0
   62.9358   35.1830   46.2074 H   0  0  0  0  0  0  0  0  0  0  0  0
   59.9990   35.2380   47.8992 H   0  0  0  0  0  0  0  0  0  0  0  0
   60.6781   35.8025   46.3310 H   0  0  0  0  0  0  0  0  0  0  0  0
   57.8967   33.7019   47.8219 H   0  0  0  0  0  0  0  0  0  0  0  0
   57.4385   33.4964   43.6457 H   0  0  0  0  0  0  0  0  0  0  0  0
   60.0345   32.3797   47.7835 H   0  0  0  0  0  0  0  0  0  0  0  0
   59.2925   31.1276   48.6285 H   0  0  0  0  0  0  0  0  0  0  0  0
   58.1836   31.4313   46.4244 H   0  0  0  0  0  0  0  0  0  0  0  0
   55.1390   28.2650   44.5190 H   0  0  0  0  0  0  0  0  0  0  0  0
  1  2  1  0
  2  3  2  0
  2  4  1  0
  4  5  2  0
  5  6  1  0
  6  7  1  0
  7  8  1  0
  8  9  1  0
  9 10  2  0
  9 11  1  0
 11 12  1  0
 12 13  2  0
 13 14  1  0
 14 15  2  0
 15 16  1  0
 16 17  1  0
 17 18  1  0
 18 19  1  0
 19 20  2  0
 20 21  1  0
 21 22  2  0
 16 23  2  0
  6 24  2  0
 24 25  1  0
 25 26  2  0
 26 27  1  0
 27 28  1  0
 27 29  2  0
 27 30  2  0
 26  4  1  0
 23 12  1  0
 22 18  1  0
  1 31  1  0
  1 32  1  0
  1 33  1  0
  5 34  1  0
  7 35  1  0
  7 36  1  0
 11 37  1  0
 13 38  1  0
 14 39  1  0
 15 40  1  0
 17 41  1  0
 17 42  1  0
 19 43  1  0
 21 44  1  0
 23 45  1  0
 24 46  1  0
 25 47  1  0
 28 48  1  0
M  CHG  1  28  -1
M  END
>  <UniqueID>  (64) 
61

>  <SMILES>  (64) 
CC(=O)c1cc(COC(=O)Nc2cccc(Cn3cncn3)c2)ccc1S([NH-])(=O)=O

>  <Energy>  (64) 
87.98146198323799

>  <Genealogy>  (64) 
CC(=O)c1cc(COC(=O)Nc2cccc(Cn3cncn3)c2)ccc1S([NH-])(=O)=O (protonated)
CC(=O)c1cc(COC(=O)Nc2cccc(Cn3cncn3)c2)ccc1S([NH-])(=O)=O (3D coordinates assigned)
CC(=O)c1cc(COC(=O)Nc2cccc(Cn3cncn3)c2)ccc1S([NH-])(=O)=O (optimized conformer: 87.98146198323799 kcal/mol)

>  <smiles>  (64) 
CC(=O)c1cc(COC(=O)Nc2cccc(Cn3cncn3)c2)ccc1S(N)(=O)=O

>  <score_type>  (64) 
oracle

>  <origin>  (64) 
adg

>  <m_score__min__energy>  (64) 
-11.48

>  <m_primary>  (64) 
energy

$$$$
64:0
     RDKit          3D

 64 66  0  0  0  0  0  0  0  0999 V2000
   62.0180   34.5480   48.9030 O   0  0  0  0  0  0  0  0  0  0  0  0
   60.9070   34.2630   48.3850 C   0  0  0  0  0  0  0  0  0  0  0  0
   59.6860   34.1290   49.2630 C   0  0  0  0  0  0  0  0  0  0  0  0
   59.2020   32.6660   49.3880 C   0  0  0  0  0  0  0  0  0  0  0  0
   60.3410   31.6680   49.6540 C   0  0  0  0  0  0  0  0  0  0  0  0
   59.9560   30.2240   49.2930 C   0  0  0  0  0  0  0  0  0  0  0  0
   58.5490   29.8420   49.7850 C   0  0  0  0  0  0  0  0  0  0  0  0
   58.2830   30.1980   51.2520 C   0  0  0  0  0  0  0  0  0  0  0  0
   56.9100   29.8600   51.6190 N   0  0  0  0  0  0  0  0  0  0  0  0
   55.9560   30.7870   52.1500 C   0  0  0  0  0  0  0  0  0  0  0  0
   56.3740   31.8470   52.6840 O   0  0  0  0  0  0  0  0  0  0  0  0
   54.5030   30.5220   52.1210 C   0  0  0  0  0  0  0  0  0  0  0  0
   54.0080   29.3080   52.6200 C   0  0  0  0  0  0  0  0  0  0  0  0
   52.6350   29.0550   52.6110 C   0  0  0  0  0  0  0  0  0  0  0  0
   51.7450   30.0120   52.1180 C   0  0  0  0  0  0  0  0  0  0  0  0
   52.2210   31.2420   51.6330 C   0  0  0  0  0  0  0  0  0  0  0  0
   51.2750   32.2590   51.1230 C   0  0  0  0  0  0  0  0  0  0  0  0
   51.0210   32.3380   49.8920 O   0  0  0  0  0  0  0  0  0  0  0  0
   50.6560   33.1460   51.9970 O   0  0  0  0  0  0  0  0  0  0  0  0
   53.6060   31.4920   51.6450 C   0  0  0  0  0  0  0  0  0  0  0  0
   60.8460   34.0440   46.9690 N   0  0  0  0  0  0  0  0  0  0  0  0
   59.6960   33.6310   46.2190 C   0  0  0  0  0  0  0  0  0  0  0  0
   58.9120   34.6040   45.5870 C   0  0  0  0  0  0  0  0  0  0  0  0
   57.7720   34.2340   44.8680 C   0  0  0  0  0  0  0  0  0  0  0  0
   57.3990   32.8890   44.7870 C   0  0  0  0  0  0  0  0  0  0  0  0
   58.1620   31.9080   45.4360 C   0  0  0  0  0  0  0  0  0  0  0  0
   57.6880   30.2130   45.3740 S   0  0  0  0  0  0  0  0  0  0  0  0
   57.7230   29.6220   46.7560 O   0  0  0  0  0  0  0  0  0  0  0  0
   56.2790   30.1330   44.8550 O   0  0  0  0  0  0  0  0  0  0  0  0
   58.7790   29.3550   44.3050 N   0  0  0  0  0  0  0  0  0  0  0  0
   58.2180   28.0630   43.8750 C   0  0  0  0  0  0  0  0  0  0  0  0
   58.2470   27.0060   45.0060 C   0  0  0  0  0  0  0  0  0  0  0  0
   59.1370   27.3300   46.0610 O   0  0  0  0  0  0  0  0  0  0  0  0
   60.3490   27.8280   45.5410 C   0  0  0  0  0  0  0  0  0  0  0  0
   60.1280   29.2100   44.8960 C   0  0  0  0  0  0  0  0  0  0  0  0
   59.2980   32.2840   46.1650 C   0  0  0  0  0  0  0  0  0  0  0  0
   59.9307   34.5062   50.2669 H   0  0  0  0  0  0  0  0  0  0  0  0
   58.8757   34.7097   48.7981 H   0  0  0  0  0  0  0  0  0  0  0  0
   58.4841   32.6058   50.2193 H   0  0  0  0  0  0  0  0  0  0  0  0
   58.7465   32.3907   48.4254 H   0  0  0  0  0  0  0  0  0  0  0  0
   61.2142   31.9610   49.0525 H   0  0  0  0  0  0  0  0  0  0  0  0
   60.5637   31.6949   50.7309 H   0  0  0  0  0  0  0  0  0  0  0  0
   59.9876   30.1148   48.1989 H   0  0  0  0  0  0  0  0  0  0  0  0
   60.6740   29.5553   49.7904 H   0  0  0  0  0  0  0  0  0  0  0  0
   57.8103   30.3677   49.1622 H   0  0  0  0  0  0  0  0  0  0  0  0
   58.4699   28.7479   49.7039 H   0  0  0  0  0  0  0  0  0  0  0  0
   58.9780   29.6356   51.8929 H   0  0  0  0  0  0  0  0  0  0  0  0
   58.4322   31.2792   51.3887 H   0  0  0  0  0  0  0  0  0  0  0  0
   54.7027   28.5542   53.0190 H   0  0  0  0  0  0  0  0  0  0  0  0
   52.2523   28.0975   52.9940 H   0  0  0  0  0  0  0  0  0  0  0  0
   50.6653   29.8016   52.1094 H   0  0  0  0  0  0  0  0  0  0  0  0
   53.9892   32.4557   51.2783 H   0  0  0  0  0  0  0  0  0  0  0  0
   59.1947   35.6648   45.6568 H   0  0  0  0  0  0  0  0  0  0  0  0
   57.1670   35.0026   44.3648 H   0  0  0  0  0  0  0  0  0  0  0  0
   56.5059   32.6001   44.2134 H   0  0  0  0  0  0  0  0  0  0  0  0
   57.1751   28.2168   43.5609 H   0  0  0  0  0  0  0  0  0  0  0  0
   58.8351   27.6866   43.0458 H   0  0  0  0  0  0  0  0  0  0  0  0
   57.2329   26.9136   45.4221 H   0  0  0  0  0  0  0  0  0  0  0  0
   58.6028   26.0654   44.5603 H   0  0  0  0  0  0  0  0  0  0  0  0
   61.0821   27.9211   46.3558 H   0  0  0  0  0  0  0  0  0  0  0  0
   60.7221   27.1319   44.7753 H   0  0  0  0  0  0  0  0  0  0  0  0
   60.2594   29.9834   45.6671 H   0  0  0  0  0  0  0  0  0  0  0  0
   60.8606   29.3181   44.0826 H   0  0  0  0  0  0  0  0  0  0  0  0
   59.8823   31.5199   46.6986 H   0  0  0  0  0  0  0  0  0  0  0  0
  1  2  2  0
  2  3  1  0
  3  4  1  0
  4  5  1  0
  5  6  1  0
  6  7  1  0
  7  8  1  0
  8  9  1  0
  9 10  1  0
 10 11  2  0
 10 12  1  0
 12 13  2  0
 13 14  1  0
 14 15  2  0
 15 16  1  0
 16 17  1  0
 17 18  2  0
 17 19  1  0
 16 20  2  0
  2 21  1  0
 21 22  1  0
 22 23  2  0
 23 24  1  0
 24 25  2  0
 25 26  1  0
 26 27  1  0
 27 28  2  0
 27 29  2  0
 27 30  1  0
 30 31  1  0
 31 32  1  0
 32 33  1  0
 33 34  1  0
 34 35  1  0
 26 36  2  0
 20 12  1  0
 36 22  1  0
 35 30  1  0
  3 37  1  0
  3 38  1  0
  4 39  1  0
  4 40  1  0
  5 41  1  0
  5 42  1  0
  6 43  1  0
  6 44  1  0
  7 45  1  0
  7 46  1  0
  8 47  1  0
  8 48  1  0
 13 49  1  0
 14 50  1  0
 15 51  1  0
 20 52  1  0
 23 53  1  0
 24 54  1  0
 25 55  1  0
 31 56  1  0
 31 57  1  0
 32 58  1  0
 32 59  1  0
 34 60  1  0
 34 61  1  0
 35 62  1  0
 35 63  1  0
 36 64  1  0
M  CHG  3   9  -1  19  -1  21  -1
M  END
>  <UniqueID>  (65) 
62

>  <SMILES>  (65) 
O=C(CCCCCC[N-]C(=O)c1cccc(C(=O)[O-])c1)[N-]c1cccc(S(=O)(=O)N2CCOCC2)c1

>  <Energy>  (65) 
79.70354184400877

>  <Genealogy>  (65) 
O=C(CCCCCC[N-]C(=O)c1cccc(C(=O)[O-])c1)[N-]c1cccc(S(=O)(=O)N2CCOCC2)c1 (protonated)
O=C(CCCCCC[N-]C(=O)c1cccc(C(=O)[O-])c1)[N-]c1cccc(S(=O)(=O)N2CCOCC2)c1 (3D coordinates assigned)
O=C(CCCCCC[N-]C(=O)c1cccc(C(=O)[O-])c1)[N-]c1cccc(S(=O)(=O)N2CCOCC2)c1 (nonaromatic ring conformer: 79.70354184400877 kcal/mol)

>  <smiles>  (65) 
O=C(CCCCCCNC(=O)c1cccc(C(=O)O)c1)Nc1cccc(S(=O)(=O)N2CCOCC2)c1

>  <score_type>  (65) 
oracle

>  <origin>  (65) 
adg

>  <m_score__min__energy>  (65) 
-17.84

>  <m_primary>  (65) 
energy

$$$$
65:0
     RDKit          3D

 56 59  0  0  0  0  0  0  0  0999 V2000
   60.3110   26.4300   48.0400 O   0  0  0  0  0  0  0  0  0  0  0  0
   59.6920   27.3100   47.3790 C   0  0  0  0  0  0  0  0  0  0  0  0
   59.0560   26.9760   46.1360 N   0  0  0  0  0  0  0  0  0  0  0  0
   57.6670   27.2000   45.7120 C   0  0  1  0  0  0  0  0  0  0  0  0
   57.5290   28.2030   44.5440 C   0  0  0  0  0  0  0  0  0  0  0  0
   56.5350   29.3280   44.8670 C   0  0  0  0  0  0  0  0  0  0  0  0
   57.1610   30.6710   44.6020 C   0  0  0  0  0  0  0  0  0  0  0  0
   57.2020   31.1840   43.2930 C   0  0  0  0  0  0  0  0  0  0  0  0
   57.8220   32.4100   43.0380 C   0  0  0  0  0  0  0  0  0  0  0  0
   58.4160   33.1280   44.0820 C   0  0  0  0  0  0  0  0  0  0  0  0
   58.3900   32.6180   45.3830 C   0  0  0  0  0  0  0  0  0  0  0  0
   57.7690   31.3920   45.6440 C   0  0  0  0  0  0  0  0  0  0  0  0
   56.9810   25.8710   45.4330 C   0  0  0  0  0  0  0  0  0  0  0  0
   57.7530   24.7860   44.9740 C   0  0  0  0  0  0  0  0  0  0  0  0
   57.1570   23.5550   44.6920 C   0  0  0  0  0  0  0  0  0  0  0  0
   55.7830   23.3850   44.8700 C   0  0  0  0  0  0  0  0  0  0  0  0
   55.1910   22.1600   44.5860 O   0  0  0  0  0  0  0  0  0  0  0  0
   55.0020   24.4470   45.3280 C   0  0  0  0  0  0  0  0  0  0  0  0
   55.5900   25.6850   45.6110 C   0  0  0  0  0  0  0  0  0  0  0  0
   54.7780   26.7160   46.0670 O   0  0  0  0  0  0  0  0  0  0  0  0
   59.6380   28.7030   47.8790 C   0  0  0  0  0  0  0  0  0  0  0  0
   58.6160   29.1020   48.7560 C   0  0  0  0  0  0  0  0  0  0  0  0
   58.5910   30.4000   49.2640 C   0  0  0  0  0  0  0  0  0  0  0  0
   59.5820   31.3150   48.9060 C   0  0  0  0  0  0  0  0  0  0  0  0
   60.6190   30.9440   48.0310 C   0  0  0  0  0  0  0  0  0  0  0  0
   61.6460   31.8910   47.6570 N   0  0  0  0  0  0  0  0  0  0  0  0
   63.0120   31.5260   47.2910 C   0  0  0  0  0  0  0  0  0  0  0  0
   63.7600   32.7950   46.8220 C   0  0  0  0  0  0  0  0  0  0  0  0
   63.1510   34.0400   47.4770 C   0  0  0  0  0  0  0  0  0  0  0  0
   61.4810   33.5960   47.8030 S   0  0  0  0  0  0  0  0  0  0  0  0
   61.0680   33.9930   49.1920 O   0  0  0  0  0  0  0  0  0  0  0  0
   60.5460   34.1520   46.7650 O   0  0  0  0  0  0  0  0  0  0  0  0
   60.6300   29.6320   47.5180 C   0  0  0  0  0  0  0  0  0  0  0  0
   57.1453   27.6857   46.5498 H   0  0  0  0  0  0  0  0  0  0  0  0
   58.5142   28.6474   44.3391 H   0  0  0  0  0  0  0  0  0  0  0  0
   57.1500   27.6554   43.6685 H   0  0  0  0  0  0  0  0  0  0  0  0
   55.6407   29.2139   44.2368 H   0  0  0  0  0  0  0  0  0  0  0  0
   56.2579   29.2661   45.9297 H   0  0  0  0  0  0  0  0  0  0  0  0
   56.7447   30.6185   42.4677 H   0  0  0  0  0  0  0  0  0  0  0  0
   57.8432   32.8117   42.0142 H   0  0  0  0  0  0  0  0  0  0  0  0
   58.9031   34.0931   43.8788 H   0  0  0  0  0  0  0  0  0  0  0  0
   58.8587   33.1817   46.2031 H   0  0  0  0  0  0  0  0  0  0  0  0
   57.7565   30.9909   46.6682 H   0  0  0  0  0  0  0  0  0  0  0  0
   58.8373   24.9097   44.8362 H   0  0  0  0  0  0  0  0  0  0  0  0
   57.7713   22.7179   44.3290 H   0  0  0  0  0  0  0  0  0  0  0  0
   53.9194   24.3104   45.4672 H   0  0  0  0  0  0  0  0  0  0  0  0
   57.8314   28.3867   49.0435 H   0  0  0  0  0  0  0  0  0  0  0  0
   57.7867   30.7042   49.9500 H   0  0  0  0  0  0  0  0  0  0  0  0
   59.5519   32.3368   49.3122 H   0  0  0  0  0  0  0  0  0  0  0  0
   63.5257   31.0956   48.1633 H   0  0  0  0  0  0  0  0  0  0  0  0
   62.9950   30.7822   46.4808 H   0  0  0  0  0  0  0  0  0  0  0  0
   64.8202   32.7173   47.1047 H   0  0  0  0  0  0  0  0  0  0  0  0
   63.6685   32.8828   45.7293 H   0  0  0  0  0  0  0  0  0  0  0  0
   63.6775   34.2844   48.4114 H   0  0  0  0  0  0  0  0  0  0  0  0
   63.2289   34.9300   46.8352 H   0  0  0  0  0  0  0  0  0  0  0  0
   61.4277   29.3293   46.8237 H   0  0  0  0  0  0  0  0  0  0  0  0
  1  2  2  0
  2  3  1  0
  3  4  1  0
  4  5  1  0
  5  6  1  0
  6  7  1  0
  7  8  2  0
  8  9  1  0
  9 10  2  0
 10 11  1  0
 11 12  2  0
  4 13  1  0
 13 14  2  0
 14 15  1  0
 15 16  2  0
 16 17  1  0
 16 18  1  0
 18 19  2  0
 19 20  1  0
  2 21  1  0
 21 22  2  0
 22 23  1  0
 23 24  2  0
 24 25  1  0
 25 26  1  0
 26 27  1  0
 27 28  1  0
 28 29  1  0
 29 30  1  0
 30 31  2  0
 30 32  2  0
 25 33  2  0
 12  7  1  0
 19 13  1  0
 33 21  1  0
 30 26  1  0
  4 34  1  1
  5 35  1  0
  5 36  1  0
  6 37  1  0
  6 38  1  0
  8 39  1  0
  9 40  1  0
 10 41  1  0
 11 42  1  0
 12 43  1  0
 14 44  1  0
 15 45  1  0
 18 46  1  0
 22 47  1  0
 23 48  1  0
 24 49  1  0
 27 50  1  0
 27 51  1  0
 28 52  1  0
 28 53  1  0
 29 54  1  0
 29 55  1  0
 33 56  1  0
M  CHG  3   3  -1  17  -1  20  -1
M  END
>  <UniqueID>  (66) 
63

>  <SMILES>  (66) 
O=C([N-][C@@H](CCc1ccccc1)c1ccc([O-])cc1[O-])c1cccc(N2CCCS2(=O)=O)c1

>  <Energy>  (66) 
70.00869252355457

>  <Genealogy>  (66) 
O=C([N-]C(CCc1ccccc1)c1ccc([O-])cc1[O-])c1cccc(N2CCCS2(=O)=O)c1 (protonated)
O=C([N-][C@@H](CCc1ccccc1)c1ccc([O-])cc1[O-])c1cccc(N2CCCS2(=O)=O)c1 (chirality)
O=C([N-][C@@H](CCc1ccccc1)c1ccc([O-])cc1[O-])c1cccc(N2CCCS2(=O)=O)c1 (3D coordinates assigned)
O=C([N-][C@@H](CCc1ccccc1)c1ccc([O-])cc1[O-])c1cccc(N2CCCS2(=O)=O)c1 (nonaromatic ring conformer: 70.00869252355457 kcal/mol)

>  <smiles>  (66) 
O=C(NC(CCc1ccccc1)c1ccc(O)cc1O)c1cccc(N2CCCS2(=O)=O)c1

>  <score_type>  (66) 
oracle

>  <origin>  (66) 
adg

>  <m_score__min__energy>  (66) 
-17.859999999999999

>  <m_primary>  (66) 
energy

$$$$
66:0
     RDKit          3D

 70 73  0  0  0  0  0  0  0  0999 V2000
   56.9520   21.4090   43.0100 C   0  0  0  0  0  0  0  0  0  0  0  0
   56.3980   22.8260   43.1470 C   0  0  0  0  0  0  0  0  0  0  0  0
   57.3990   23.7180   43.7710 N   0  0  0  0  0  0  0  0  0  0  0  0
   57.2330   25.1060   43.2830 C   0  0  0  0  0  0  0  0  0  0  0  0
   58.1480   26.0750   44.0370 C   0  0  0  0  0  0  0  0  0  0  0  0
   57.9190   25.9760   45.4810 N   0  0  0  0  0  0  0  0  0  0  0  0
   58.4160   27.0020   46.3590 C   0  0  0  0  0  0  0  0  0  0  0  0
   59.1080   26.6440   47.5230 C   0  0  0  0  0  0  0  0  0  0  0  0
   59.5600   27.6260   48.4090 C   0  0  0  0  0  0  0  0  0  0  0  0
   59.3530   28.9810   48.1250 C   0  0  0  0  0  0  0  0  0  0  0  0
   59.8790   30.2240   49.2640 S   0  0  0  0  0  0  0  0  0  0  0  0
   58.9340   31.3910   49.2050 O   0  0  0  0  0  0  0  0  0  0  0  0
   59.8410   29.6670   50.6600 O   0  0  0  0  0  0  0  0  0  0  0  0
   61.4970   30.7710   48.8960 N   0  0  0  0  0  0  0  0  0  0  0  0
   61.5720   31.2020   47.4870 C   0  0  0  0  0  0  0  0  0  0  0  0
   63.0060   31.6070   47.1330 C   0  0  0  0  0  0  0  0  0  0  0  0
   63.4880   32.7220   48.0660 C   0  0  0  0  0  0  0  0  0  0  0  0
   63.3120   32.3180   49.5330 C   0  0  0  0  0  0  0  0  0  0  0  0
   61.8680   31.8750   49.7990 C   0  0  0  0  0  0  0  0  0  0  0  0
   58.6950   29.3480   46.9440 C   0  0  0  0  0  0  0  0  0  0  0  0
   58.1990   28.3650   46.0690 C   0  0  0  0  0  0  0  0  0  0  0  0
   57.5540   28.7150   44.8370 N   0  0  0  0  0  0  0  0  0  0  0  0
   56.4310   29.5810   44.6310 C   0  0  0  0  0  0  0  0  0  0  0  0
   55.2570   29.1800   44.8480 O   0  0  0  0  0  0  0  0  0  0  0  0
   56.6490   30.9620   44.0890 C   0  0  0  0  0  0  0  0  0  0  0  0
   57.7970   31.6020   44.7340 N   0  0  0  0  0  0  0  0  0  0  0  0
   57.7510   32.9640   45.1870 C   0  0  0  0  0  0  0  0  0  0  0  0
   56.7800   33.6960   44.8490 O   0  0  0  0  0  0  0  0  0  0  0  0
   58.7670   33.5030   46.1180 C   0  0  0  0  0  0  0  0  0  0  0  0
   60.0040   33.9390   45.6050 C   0  0  0  0  0  0  0  0  0  0  0  0
   60.9840   34.4620   46.4550 C   0  0  0  0  0  0  0  0  0  0  0  0
   60.7450   34.5500   47.8270 C   0  0  0  0  0  0  0  0  0  0  0  0
   59.5270   34.1070   48.3530 C   0  0  0  0  0  0  0  0  0  0  0  0
   58.5410   33.5810   47.5090 C   0  0  0  0  0  0  0  0  0  0  0  0
   57.3970   33.0990   48.0630 F   0  0  0  0  0  0  0  0  0  0  0  0
   57.1010   24.8780   46.0070 C   0  0  0  0  0  0  0  0  0  0  0  0
   57.4260   23.5800   45.2550 C   0  0  0  0  0  0  0  0  0  0  0  0
   57.1188   20.9823   44.0100 H   0  0  0  0  0  0  0  0  0  0  0  0
   56.2316   20.7852   42.4607 H   0  0  0  0  0  0  0  0  0  0  0  0
   57.9045   21.4392   42.4607 H   0  0  0  0  0  0  0  0  0  0  0  0
   56.1418   23.2120   42.1493 H   0  0  0  0  0  0  0  0  0  0  0  0
   55.5025   22.7966   43.7851 H   0  0  0  0  0  0  0  0  0  0  0  0
   57.4796   25.1408   42.2116 H   0  0  0  0  0  0  0  0  0  0  0  0
   56.1898   25.4109   43.4528 H   0  0  0  0  0  0  0  0  0  0  0  0
   59.1971   25.8267   43.8187 H   0  0  0  0  0  0  0  0  0  0  0  0
   57.9263   27.1018   43.7105 H   0  0  0  0  0  0  0  0  0  0  0  0
   59.2971   25.5826   47.7414 H   0  0  0  0  0  0  0  0  0  0  0  0
   60.0803   27.3330   49.3328 H   0  0  0  0  0  0  0  0  0  0  0  0
   61.2575   30.3728   46.8362 H   0  0  0  0  0  0  0  0  0  0  0  0
   60.9084   32.0670   47.3406 H   0  0  0  0  0  0  0  0  0  0  0  0
   63.6666   30.7339   47.2392 H   0  0  0  0  0  0  0  0  0  0  0  0
   63.0293   31.9726   46.0958 H   0  0  0  0  0  0  0  0  0  0  0  0
   64.5525   32.9198   47.8717 H   0  0  0  0  0  0  0  0  0  0  0  0
   62.8895   33.6249   47.8748 H   0  0  0  0  0  0  0  0  0  0  0  0
   63.9940   31.4864   49.7637 H   0  0  0  0  0  0  0  0  0  0  0  0
   63.5412   33.1847   50.1705 H   0  0  0  0  0  0  0  0  0  0  0  0
   61.7786   31.5365   50.8418 H   0  0  0  0  0  0  0  0  0  0  0  0
   61.1940   32.7257   49.6198 H   0  0  0  0  0  0  0  0  0  0  0  0
   58.5653   30.4126   46.6993 H   0  0  0  0  0  0  0  0  0  0  0  0
   56.8333   30.8989   43.0064 H   0  0  0  0  0  0  0  0  0  0  0  0
   55.7513   31.5645   44.2918 H   0  0  0  0  0  0  0  0  0  0  0  0
   58.5770   30.9810   45.0380 H   0  0  0  0  0  0  0  0  0  0  0  0
   60.2014   33.8675   44.5252 H   0  0  0  0  0  0  0  0  0  0  0  0
   61.9441   34.8043   46.0415 H   0  0  0  0  0  0  0  0  0  0  0  0
   61.5136   34.9673   48.4941 H   0  0  0  0  0  0  0  0  0  0  0  0
   59.3426   34.1721   49.4355 H   0  0  0  0  0  0  0  0  0  0  0  0
   57.3156   24.7433   47.0774 H   0  0  0  0  0  0  0  0  0  0  0  0
   56.0368   25.1202   45.8696 H   0  0  0  0  0  0  0  0  0  0  0  0
   58.4317   23.2493   45.5537 H   0  0  0  0  0  0  0  0  0  0  0  0
   56.6452   22.8526   45.5220 H   0  0  0  0  0  0  0  0  0  0  0  0
  1  2  1  0
  2  3  1  0
  3  4  1  0
  4  5  1  0
  5  6  1  0
  6  7  1  0
  7  8  2  0
  8  9  1  0
  9 10  2  0
 10 11  1  0
 11 12  2  0
 11 13  2  0
 11 14  1  0
 14 15  1  0
 15 16  1  0
 16 17  1  0
 17 18  1  0
 18 19  1  0
 10 20  1  0
 20 21  2  0
 21 22  1  0
 22 23  1  0
 23 24  2  0
 23 25  1  0
 25 26  1  0
 26 27  1  0
 27 28  2  0
 27 29  1  0
 29 30  2  0
 30 31  1  0
 31 32  2  0
 32 33  1  0
 33 34  2  0
 34 35  1  0
  6 36  1  0
 36 37  1  0
 37  3  1  0
 21  7  1  0
 34 29  1  0
 19 14  1  0
  1 38  1  0
  1 39  1  0
  1 40  1  0
  2 41  1  0
  2 42  1  0
  4 43  1  0
  4 44  1  0
  5 45  1  0
  5 46  1  0
  8 47  1  0
  9 48  1  0
 15 49  1  0
 15 50  1  0
 16 51  1  0
 16 52  1  0
 17 53  1  0
 17 54  1  0
 18 55  1  0
 18 56  1  0
 19 57  1  0
 19 58  1  0
 20 59  1  0
 25 60  1  0
 25 61  1  0
 26 62  1  0
 30 63  1  0
 31 64  1  0
 32 65  1  0
 33 66  1  0
 36 67  1  0
 36 68  1  0
 37 69  1  0
 37 70  1  0
M  CHG  1  22  -1
M  END
>  <UniqueID>  (67) 
64

>  <SMILES>  (67) 
CCN1CCN(c2ccc(S(=O)(=O)N3CCCCC3)cc2[N-]C(=O)CNC(=O)c2ccccc2F)CC1

>  <Energy>  (67) 
76.75944735552343

>  <Genealogy>  (67) 
CCN1CCN(c2ccc(S(=O)(=O)N3CCCCC3)cc2[N-]C(=O)CNC(=O)c2ccccc2F)CC1 (protonated)
CCN1CCN(c2ccc(S(=O)(=O)N3CCCCC3)cc2[N-]C(=O)CNC(=O)c2ccccc2F)CC1 (3D coordinates assigned)
CCN1CCN(c2ccc(S(=O)(=O)N3CCCCC3)cc2[N-]C(=O)CNC(=O)c2ccccc2F)CC1 (nonaromatic ring conformer: 76.75944735552343 kcal/mol)

>  <smiles>  (67) 
CCN1CCN(c2ccc(S(=O)(=O)N3CCCCC3)cc2NC(=O)CNC(=O)c2ccccc2F)CC1

>  <score_type>  (67) 
oracle

>  <origin>  (67) 
adg

>  <m_score__min__energy>  (67) 
-11.65

>  <m_primary>  (67) 
energy

$$$$
67:0
     RDKit          3D

 45 48  0  0  0  0  0  0  0  0999 V2000
   57.0310   21.2490   48.0400 O   0  0  0  0  0  0  0  0  0  0  0  0
   56.6130   22.0130   47.1310 C   0  0  0  0  0  0  0  0  0  0  0  0
   56.0110   23.2620   47.4990 N   0  0  0  0  0  0  0  0  0  0  0  0
   56.3390   24.4260   47.0240 C   0  0  0  0  0  0  0  0  0  0  0  0
   55.4570   25.2110   46.3730 N   0  0  0  0  0  0  0  0  0  0  0  0
   56.0110   26.3950   45.9970 C   0  0  0  0  0  0  0  0  0  0  0  0
   57.3490   26.5660   46.3590 C   0  0  0  0  0  0  0  0  0  0  0  0
   58.2020   27.7490   46.0770 C   0  0  0  0  0  0  0  0  0  0  0  0
   59.6010   27.6170   46.0250 C   0  0  0  0  0  0  0  0  0  0  0  0
   60.4070   28.7270   45.7630 C   0  0  0  0  0  0  0  0  0  0  0  0
   59.8310   29.9790   45.5450 C   0  0  0  0  0  0  0  0  0  0  0  0
   58.4360   30.1330   45.5810 C   0  0  0  0  0  0  0  0  0  0  0  0
   57.8310   31.4670   45.3610 C   0  0  0  0  0  0  0  0  0  0  0  0
   56.6730   31.5380   44.8650 O   0  0  0  0  0  0  0  0  0  0  0  0
   58.5330   32.6810   45.6910 N   0  0  0  0  0  0  0  0  0  0  0  0
   59.4190   32.7470   46.8640 C   0  0  0  0  0  0  0  0  0  0  0  0
   59.2060   34.0700   47.6050 C   0  0  0  0  0  0  0  0  0  0  0  0
   59.4170   35.2970   46.6940 C   0  0  0  0  0  0  0  0  0  0  0  0
   59.3070   34.9820   45.1910 C   0  0  0  0  0  0  0  0  0  0  0  0
   58.2650   33.8950   44.9050 C   0  0  0  0  0  0  0  0  0  0  0  0
   57.6300   29.0170   45.8670 C   0  0  0  0  0  0  0  0  0  0  0  0
   57.8430   25.1750   47.1790 S   0  0  0  0  0  0  0  0  0  0  0  0
   56.6880   21.5710   45.7210 C   0  0  0  0  0  0  0  0  0  0  0  0
   57.4830   22.1990   44.7460 C   0  0  0  0  0  0  0  0  0  0  0  0
   57.3760   21.6250   43.4880 C   0  0  0  0  0  0  0  0  0  0  0  0
   56.2870   20.3500   43.5850 S   0  0  0  0  0  0  0  0  0  0  0  0
   55.9390   20.5090   45.2200 C   0  0  0  0  0  0  0  0  0  0  0  0
   55.4460   27.1624   45.4475 H   0  0  0  0  0  0  0  0  0  0  0  0
   60.0636   26.6330   46.1918 H   0  0  0  0  0  0  0  0  0  0  0  0
   61.5006   28.6138   45.7284 H   0  0  0  0  0  0  0  0  0  0  0  0
   60.4729   30.8494   45.3440 H   0  0  0  0  0  0  0  0  0  0  0  0
   59.1917   31.9097   47.5402 H   0  0  0  0  0  0  0  0  0  0  0  0
   60.4655   32.6830   46.5311 H   0  0  0  0  0  0  0  0  0  0  0  0
   58.1783   34.0937   47.9966 H   0  0  0  0  0  0  0  0  0  0  0  0
   59.9483   34.1231   48.4150 H   0  0  0  0  0  0  0  0  0  0  0  0
   58.6572   36.0512   46.9467 H   0  0  0  0  0  0  0  0  0  0  0  0
   60.4417   35.6553   46.8718 H   0  0  0  0  0  0  0  0  0  0  0  0
   59.0188   35.8992   44.6565 H   0  0  0  0  0  0  0  0  0  0  0  0
   60.2851   34.6121   44.8497 H   0  0  0  0  0  0  0  0  0  0  0  0
   57.2669   34.2775   45.1648 H   0  0  0  0  0  0  0  0  0  0  0  0
   58.3155   33.6366   43.8370 H   0  0  0  0  0  0  0  0  0  0  0  0
   56.5382   29.1369   45.9273 H   0  0  0  0  0  0  0  0  0  0  0  0
   58.1285   23.0634   44.9606 H   0  0  0  0  0  0  0  0  0  0  0  0
   57.9116   21.9487   42.5834 H   0  0  0  0  0  0  0  0  0  0  0  0
   55.2409   19.8832   45.7953 H   0  0  0  0  0  0  0  0  0  0  0  0
  1  2  2  0
  2  3  1  0
  3  4  2  3
  4  5  1  0
  5  6  1  0
  6  7  2  0
  7  8  1  0
  8  9  2  0
  9 10  1  0
 10 11  2  0
 11 12  1  0
 12 13  1  0
 13 14  2  0
 13 15  1  0
 15 16  1  0
 16 17  1  0
 17 18  1  0
 18 19  1  0
 19 20  1  0
 12 21  2  0
  7 22  1  0
  2 23  1  0
 23 24  1  0
 24 25  2  0
 25 26  1  0
 26 27  1  0
 22  4  1  0
 27 23  2  0
 21  8  1  0
 20 15  1  0
  6 28  1  0
  9 29  1  0
 10 30  1  0
 11 31  1  0
 16 32  1  0
 16 33  1  0
 17 34  1  0
 17 35  1  0
 18 36  1  0
 18 37  1  0
 19 38  1  0
 19 39  1  0
 20 40  1  0
 20 41  1  0
 21 42  1  0
 24 43  1  0
 25 44  1  0
 27 45  1  0
M  CHG  1   5  -1
M  END
>  <UniqueID>  (68) 
65

>  <SMILES>  (68) 
O=C(N=c1[n-]cc(-c2cccc(C(=O)N3CCCCC3)c2)s1)c1ccsc1

>  <Energy>  (68) 
119.0576527045194

>  <Genealogy>  (68) 
O=C(N=c1[n-]cc(-c2cccc(C(=O)N3CCCCC3)c2)s1)c1ccsc1 (protonated)
O=C(N=c1[n-]cc(-c2cccc(C(=O)N3CCCCC3)c2)s1)c1ccsc1 (3D coordinates assigned)
O=C(N=c1[n-]cc(-c2cccc(C(=O)N3CCCCC3)c2)s1)c1ccsc1 (nonaromatic ring conformer: 119.0576527045194 kcal/mol)

>  <smiles>  (68) 
O=C(N=c1[nH]cc(-c2cccc(C(=O)N3CCCCC3)c2)s1)c1ccsc1

>  <score_type>  (68) 
oracle

>  <origin>  (68) 
adg

>  <m_score__min__energy>  (68) 
-11.25

>  <m_primary>  (68) 
energy

$$$$
68:0
     RDKit          3D

 58 60  0  0  0  0  0  0  0  0999 V2000
   57.3512   27.7152   47.4819 H   0  0  0  0  0  0  0  0  0  0  0  0
   57.0760   26.9640   46.7270 C   0  0  0  0  0  0  0  0  0  0  0  0
   55.8680   26.3410   46.7180 N   0  0  0  0  0  0  0  0  0  0  0  0
   55.7710   25.4600   45.7000 C   0  0  0  0  0  0  0  0  0  0  0  0
   54.7330   24.7120   45.4770 N   0  0  0  0  0  0  0  0  0  0  0  0
   54.5430   23.3720   45.9470 C   0  0  0  0  0  0  0  0  0  0  0  0
   54.1890   23.1500   47.1340 O   0  0  0  0  0  0  0  0  0  0  0  0
   54.7620   22.3070   45.0670 O   0  0  0  0  0  0  0  0  0  0  0  0
   56.0300   21.6690   44.9220 C   0  0  0  0  0  0  0  0  0  0  0  0
   55.8399   20.5911   45.0312 H   0  0  0  0  0  0  0  0  0  0  0  0
   56.6510   22.0120   43.5810 C   0  0  0  0  0  0  0  0  0  0  0  0
   56.3005   21.3185   42.8024 H   0  0  0  0  0  0  0  0  0  0  0  0
   56.3796   23.0230   43.2430 H   0  0  0  0  0  0  0  0  0  0  0  0
   58.1470   21.8610   43.7990 C   0  0  0  0  0  0  0  0  0  0  0  0
   58.4652   20.8346   43.5642 H   0  0  0  0  0  0  0  0  0  0  0  0
   58.7183   22.5382   43.1471 H   0  0  0  0  0  0  0  0  0  0  0  0
   58.3930   22.1670   45.2710 C   0  0  0  0  0  0  0  0  0  0  0  0
   59.0410   21.3962   45.7137 H   0  0  0  0  0  0  0  0  0  0  0  0
   58.8935   23.1391   45.3910 H   0  0  0  0  0  0  0  0  0  0  0  0
   57.0310   22.1670   45.9620 C   0  0  0  0  0  0  0  0  0  0  0  0
   57.0442   21.4943   46.8323 H   0  0  0  0  0  0  0  0  0  0  0  0
   56.7655   23.1697   46.3282 H   0  0  0  0  0  0  0  0  0  0  0  0
   57.1650   25.4140   44.7590 S   0  0  0  0  0  0  0  0  0  0  0  0
   57.9360   26.5760   45.7060 C   0  0  0  0  0  0  0  0  0  0  0  0
   59.3320   27.0760   45.4960 C   0  0  0  0  0  0  0  0  0  0  0  0
   59.8291   26.4290   44.7583 H   0  0  0  0  0  0  0  0  0  0  0  0
   59.8409   27.0521   46.4709 H   0  0  0  0  0  0  0  0  0  0  0  0
   59.3790   28.5290   44.9860 C   0  0  0  0  0  0  0  0  0  0  0  0
   59.0382   28.5416   43.9402 H   0  0  0  0  0  0  0  0  0  0  0  0
   60.4180   28.8743   45.0919 H   0  0  0  0  0  0  0  0  0  0  0  0
   58.5340   29.4560   45.7630 N   0  0  0  0  0  0  0  0  0  0  0  0
   59.0240   30.0590   46.9770 C   0  0  0  0  0  0  0  0  0  0  0  0
   59.8490   29.4330   47.6990 O   0  0  0  0  0  0  0  0  0  0  0  0
   58.5300   31.3380   47.4040 N   0  0  0  0  0  0  0  0  0  0  0  0
   58.9120   32.6070   46.8540 C   0  0  0  0  0  0  0  0  0  0  0  0
   60.2210   33.1080   46.9850 C   0  0  0  0  0  0  0  0  0  0  0  0
   60.9749   32.5328   47.5425 H   0  0  0  0  0  0  0  0  0  0  0  0
   60.5660   34.3340   46.4090 C   0  0  0  0  0  0  0  0  0  0  0  0
   61.5874   34.7259   46.5237 H   0  0  0  0  0  0  0  0  0  0  0  0
   59.6170   35.0630   45.6880 C   0  0  0  0  0  0  0  0  0  0  0  0
   59.8882   36.0315   45.2425 H   0  0  0  0  0  0  0  0  0  0  0  0
   58.3240   34.5600   45.5340 C   0  0  0  0  0  0  0  0  0  0  0  0
   57.5790   35.1293   44.9589 H   0  0  0  0  0  0  0  0  0  0  0  0
   57.9730   33.3340   46.1090 C   0  0  0  0  0  0  0  0  0  0  0  0
   56.7140   32.8530   45.9480 F   0  0  0  0  0  0  0  0  0  0  0  0
   57.3010   29.9910   45.1610 C   0  0  0  0  0  0  0  0  0  0  0  0
   57.0669   30.9597   45.6267 H   0  0  0  0  0  0  0  0  0  0  0  0
   56.4905   29.2677   45.3336 H   0  0  0  0  0  0  0  0  0  0  0  0
   57.4560   30.1910   43.6370 C   0  0  0  0  0  0  0  0  0  0  0  0
   58.3099   29.5812   43.3068 H   0  0  0  0  0  0  0  0  0  0  0  0
   56.1960   29.7270   42.9010 C   0  0  0  0  0  0  0  0  0  0  0  0
   55.4265   29.4436   43.6342 H   0  0  0  0  0  0  0  0  0  0  0  0
   55.8178   30.5448   42.2700 H   0  0  0  0  0  0  0  0  0  0  0  0
   56.4385   28.8592   42.2700 H   0  0  0  0  0  0  0  0  0  0  0  0
   57.7470   31.6590   43.2960 C   0  0  0  0  0  0  0  0  0  0  0  0
   57.8613   32.2357   44.2257 H   0  0  0  0  0  0  0  0  0  0  0  0
   58.6751   31.7220   42.7090 H   0  0  0  0  0  0  0  0  0  0  0  0
   56.9131   32.0713   42.7090 H   0  0  0  0  0  0  0  0  0  0  0  0
  1  2  1  0
  2  3  1  0
  3  4  1  0
  4  5  2  0
  5  6  1  0
  6  7  2  0
  6  8  1  0
  8  9  1  0
  9 10  1  0
  9 11  1  0
 11 12  1  0
 11 13  1  0
 11 14  1  0
 14 15  1  0
 14 16  1  0
 14 17  1  0
 17 18  1  0
 17 19  1  0
 17 20  1  0
 20 21  1  0
 20 22  1  0
  4 23  1  0
 23 24  1  0
 24 25  1  0
 25 26  1  0
 25 27  1  0
 25 28  1  0
 28 29  1  0
 28 30  1  0
 28 31  1  0
 31 32  1  0
 32 33  2  0
 32 34  1  0
 34 35  1  0
 35 36  2  0
 36 37  1  0
 36 38  1  0
 38 39  1  0
 38 40  2  0
 40 41  1  0
 40 42  1  0
 42 43  1  0
 42 44  2  0
 44 45  1  0
 31 46  1  0
 46 47  1  0
 46 48  1  0
 46 49  1  0
 49 50  1  0
 49 51  1  0
 51 52  1  0
 51 53  1  0
 51 54  1  0
 49 55  1  0
 55 56  1  0
 55 57  1  0
 55 58  1  0
 24  2  2  0
 44 35  1  0
 20  9  1  0
M  CHG  2   3  -1  34  -1
M  END
>  <UniqueID>  (69) 
66

>  <SMILES>  (69) 
CC(C)CN(CCc1c[n-]/c(=N\C(=O)OC2CCCC2)s1)C(=O)[N-]c1ccccc1F

>  <Energy>  (69) 
83.60151652811669

>  <Genealogy>  (69) 
CC(C)CN(CCc1c[n-]c(=NC(=O)OC2CCCC2)s1)C(=O)[N-]c1ccccc1F (protonated)
CC(C)CN(CCc1c[n-]/c(=N\C(=O)OC2CCCC2)s1)C(=O)[N-]c1ccccc1F (cis-trans isomerization)
CC(C)CN(CCc1c[n-]/c(=N\C(=O)OC2CCCC2)s1)C(=O)[N-]c1ccccc1F (3D coordinates assigned)
CC(C)CN(CCc1c[n-]/c(=N\C(=O)OC2CCCC2)s1)C(=O)[N-]c1ccccc1F (nonaromatic ring conformer: 83.60151652811669 kcal/mol)

>  <smiles>  (69) 
CC(C)CN(CCc1c[nH]c(=NC(=O)OC2CCCC2)s1)C(=O)Nc1ccccc1F

>  <score_type>  (69) 
oracle

>  <origin>  (69) 
adg

>  <m_score__min__energy>  (69) 
-12.02

>  <m_primary>  (69) 
energy

$$$$
69:0
     RDKit          3D

 53 56  0  0  0  0  0  0  0  0999 V2000
   62.5180   31.2230   47.7120 C   0  0  0  0  0  0  0  0  0  0  0  0
   61.5230   30.4490   48.5080 C   0  0  0  0  0  0  0  0  0  0  0  0
   60.3470   30.3110   48.0760 O   0  0  0  0  0  0  0  0  0  0  0  0
   61.8990   29.9080   49.7780 N   0  0  0  0  0  0  0  0  0  0  0  0
   61.3760   28.6540   50.3110 C   0  0  0  0  0  0  0  0  0  0  0  0
   59.9600   28.8410   50.8650 C   0  0  0  0  0  0  0  0  0  0  0  0
   59.4690   30.1970   50.6210 N   0  0  0  0  0  0  0  0  0  0  0  0
   58.1640   30.6080   51.0510 C   0  0  0  0  0  0  0  0  0  0  0  0
   57.3980   29.7890   51.6280 O   0  0  0  0  0  0  0  0  0  0  0  0
   57.7030   32.0150   50.8150 C   0  0  0  0  0  0  0  0  0  0  0  0
   58.5160   32.6650   49.7240 C   0  0  0  0  0  0  0  0  0  0  0  0
   57.9680   32.7320   48.4840 N   0  0  0  0  0  0  0  0  0  0  0  0
   58.6020   33.2580   47.4340 N   0  0  0  0  0  0  0  0  0  0  0  0
   57.8920   33.3040   46.1520 C   0  0  0  0  0  0  0  0  0  0  0  0
   57.7800   31.9280   45.5790 C   0  0  0  0  0  0  0  0  0  0  0  0
   58.7900   31.0350   45.7570 N   0  0  0  0  0  0  0  0  0  0  0  0
   58.6980   29.7680   45.2780 C   0  0  0  0  0  0  0  0  0  0  0  0
   59.7520   28.8680   45.4710 C   0  0  0  0  0  0  0  0  0  0  0  0
   59.6560   27.5630   44.9780 C   0  0  0  0  0  0  0  0  0  0  0  0
   58.5090   27.1530   44.2930 C   0  0  0  0  0  0  0  0  0  0  0  0
   57.4480   28.0440   44.0970 C   0  0  0  0  0  0  0  0  0  0  0  0
   57.5360   29.3580   44.5890 C   0  0  0  0  0  0  0  0  0  0  0  0
   56.5030   30.2960   44.4260 C   0  0  0  0  0  0  0  0  0  0  0  0
   55.4390   29.9910   43.8220 O   0  0  0  0  0  0  0  0  0  0  0  0
   56.6480   31.5510   44.9260 N   0  0  0  0  0  0  0  0  0  0  0  0
   59.8600   33.7780   47.5700 C   0  0  0  0  0  0  0  0  0  0  0  0
   60.4450   34.2940   46.5740 O   0  0  0  0  0  0  0  0  0  0  0  0
   60.4990   33.7390   48.8210 C   0  0  0  0  0  0  0  0  0  0  0  0
   61.7980   34.2560   48.9940 C   0  0  0  0  0  0  0  0  0  0  0  0
   62.4200   34.2010   50.2420 C   0  0  0  0  0  0  0  0  0  0  0  0
   61.7580   33.6330   51.3280 C   0  0  0  0  0  0  0  0  0  0  0  0
   60.4690   33.1190   51.1760 C   0  0  0  0  0  0  0  0  0  0  0  0
   59.8210   33.1660   49.9240 C   0  0  0  0  0  0  0  0  0  0  0  0
   63.1998   31.7533   48.3931 H   0  0  0  0  0  0  0  0  0  0  0  0
   63.0956   30.5345   47.0778 H   0  0  0  0  0  0  0  0  0  0  0  0
   61.9927   31.9523   47.0778 H   0  0  0  0  0  0  0  0  0  0  0  0
   61.3515   27.9038   49.5069 H   0  0  0  0  0  0  0  0  0  0  0  0
   62.0312   28.3207   51.1293 H   0  0  0  0  0  0  0  0  0  0  0  0
   59.2860   28.1224   50.3759 H   0  0  0  0  0  0  0  0  0  0  0  0
   59.9869   28.6716   51.9515 H   0  0  0  0  0  0  0  0  0  0  0  0
   60.0740   30.8940   50.1310 H   0  0  0  0  0  0  0  0  0  0  0  0
   56.6439   32.0032   50.5181 H   0  0  0  0  0  0  0  0  0  0  0  0
   57.8321   32.5905   51.7435 H   0  0  0  0  0  0  0  0  0  0  0  0
   56.8843   33.7164   46.3085 H   0  0  0  0  0  0  0  0  0  0  0  0
   58.4520   33.9417   45.4522 H   0  0  0  0  0  0  0  0  0  0  0  0
   60.6560   29.1871   46.0105 H   0  0  0  0  0  0  0  0  0  0  0  0
   60.4858   26.8570   45.1298 H   0  0  0  0  0  0  0  0  0  0  0  0
   58.4399   26.1255   43.9063 H   0  0  0  0  0  0  0  0  0  0  0  0
   56.5463   27.7167   43.5587 H   0  0  0  0  0  0  0  0  0  0  0  0
   62.3254   34.7059   48.1399 H   0  0  0  0  0  0  0  0  0  0  0  0
   63.4346   34.6068   50.3683 H   0  0  0  0  0  0  0  0  0  0  0  0
   62.2529   33.5893   52.3094 H   0  0  0  0  0  0  0  0  0  0  0  0
   59.9542   32.6735   52.0400 H   0  0  0  0  0  0  0  0  0  0  0  0
  1  2  1  0
  2  3  2  0
  2  4  1  0
  4  5  1  0
  5  6  1  0
  6  7  1  0
  7  8  1  0
  8  9  2  0
  8 10  1  0
 10 11  1  0
 11 12  2  0
 12 13  1  0
 13 14  1  0
 14 15  1  0
 15 16  2  0
 16 17  1  0
 17 18  2  0
 18 19  1  0
 19 20  2  0
 20 21  1  0
 21 22  2  0
 22 23  1  0
 23 24  2  0
 23 25  1  0
 13 26  1  0
 26 27  2  0
 26 28  1  0
 28 29  2  0
 29 30  1  0
 30 31  2  0
 31 32  1  0
 32 33  2  0
 33 11  1  0
 25 15  1  0
 33 28  1  0
 22 17  1  0
  1 34  1  0
  1 35  1  0
  1 36  1  0
  5 37  1  0
  5 38  1  0
  6 39  1  0
  6 40  1  0
  7 41  1  0
 10 42  1  0
 10 43  1  0
 14 44  1  0
 14 45  1  0
 18 46  1  0
 19 47  1  0
 20 48  1  0
 21 49  1  0
 29 50  1  0
 30 51  1  0
 31 52  1  0
 32 53  1  0
M  CHG  2   4  -1  25  -1
M  END
>  <UniqueID>  (70) 
67

>  <SMILES>  (70) 
CC(=O)[N-]CCNC(=O)Cc1nn(Cc2nc3ccccc3c(=O)[n-]2)c(=O)c2ccccc12

>  <Energy>  (70) 
58.52878824769554

>  <Genealogy>  (70) 
CC(=O)[N-]CCNC(=O)Cc1nn(Cc2nc3ccccc3c(=O)[n-]2)c(=O)c2ccccc12 (protonated)
CC(=O)[N-]CCNC(=O)Cc1nn(Cc2nc3ccccc3c(=O)[n-]2)c(=O)c2ccccc12 (3D coordinates assigned)
CC(=O)[N-]CCNC(=O)Cc1nn(Cc2nc3ccccc3c(=O)[n-]2)c(=O)c2ccccc12 (optimized conformer: 58.52878824769554 kcal/mol)

>  <smiles>  (70) 
CC(=O)NCCNC(=O)Cc1nn(Cc2nc3ccccc3c(=O)[nH]2)c(=O)c2ccccc12

>  <score_type>  (70) 
oracle

>  <origin>  (70) 
adg

>  <m_score__min__energy>  (70) 
-12.99

>  <m_primary>  (70) 
energy

$$$$
70:0
     RDKit          3D

 55 58  0  0  0  0  0  0  0  0999 V2000
   56.5604   30.3254   42.3078 H   0  0  0  0  0  0  0  0  0  0  0  0
   56.9090   30.7540   43.2590 C   0  0  0  0  0  0  0  0  0  0  0  0
   56.7820   29.9190   44.4770 C   0  0  0  0  0  0  0  0  0  0  0  0
   55.6410   29.4930   44.8090 O   0  0  0  0  0  0  0  0  0  0  0  0
   57.9410   29.5550   45.2620 N   0  0  0  0  0  0  0  0  0  0  0  0
   57.7900   28.7560   46.4880 C   0  0  0  0  0  0  0  0  0  0  0  0
   58.1676   27.7385   46.3088 H   0  0  0  0  0  0  0  0  0  0  0  0
   56.7260   28.7152   46.7642 H   0  0  0  0  0  0  0  0  0  0  0  0
   58.5820   29.3970   47.6300 C   0  0  0  0  0  0  0  0  0  0  0  0
   58.6329   28.6884   48.4698 H   0  0  0  0  0  0  0  0  0  0  0  0
   58.0676   30.3234   47.9254 H   0  0  0  0  0  0  0  0  0  0  0  0
   59.9500   29.7450   47.2170 N   0  0  0  0  0  0  0  0  0  0  0  0
   60.8800   30.1980   48.2180 C   0  0  0  0  0  0  0  0  0  0  0  0
   60.8320   29.7970   49.5090 N   0  0  0  0  0  0  0  0  0  0  0  0
   61.7910   30.3340   50.2610 N   0  0  0  0  0  0  0  0  0  0  0  0
   61.8570   30.1400   51.2840 H   0  0  0  0  0  0  0  0  0  0  0  0
   62.6210   31.1660   49.5880 C   0  0  0  0  0  0  0  0  0  0  0  0
   63.7470   31.9050   50.2020 C   0  0  0  0  0  0  0  0  0  0  0  0
   64.8060   32.3400   49.3880 C   0  0  0  0  0  0  0  0  0  0  0  0
   64.8113   32.0854   48.3179 H   0  0  0  0  0  0  0  0  0  0  0  0
   65.8510   33.0920   49.9250 C   0  0  0  0  0  0  0  0  0  0  0  0
   66.6771   33.4225   49.2783 H   0  0  0  0  0  0  0  0  0  0  0  0
   65.8520   33.4260   51.2780 C   0  0  0  0  0  0  0  0  0  0  0  0
   66.6745   34.0273   51.6927 H   0  0  0  0  0  0  0  0  0  0  0  0
   64.8090   32.9990   52.1140 C   0  0  0  0  0  0  0  0  0  0  0  0
   64.8420   33.3280   53.5800 C   0  0  0  0  0  0  0  0  0  0  0  0
   64.7491   32.4016   54.1659 H   0  0  0  0  0  0  0  0  0  0  0  0
   65.7942   33.8219   53.8236 H   0  0  0  0  0  0  0  0  0  0  0  0
   64.0069   34.0012   53.8236 H   0  0  0  0  0  0  0  0  0  0  0  0
   63.7710   32.2070   51.5850 C   0  0  0  0  0  0  0  0  0  0  0  0
   62.7850   31.7160   52.4460 O   0  0  0  0  0  0  0  0  0  0  0  0
   61.6600   32.5020   52.8190 C   0  0  0  0  0  0  0  0  0  0  0  0
   61.5929   32.5489   53.9160 H   0  0  0  0  0  0  0  0  0  0  0  0
   61.7729   33.5188   52.4148 H   0  0  0  0  0  0  0  0  0  0  0  0
   60.7441   32.0463   52.4148 H   0  0  0  0  0  0  0  0  0  0  0  0
   62.1590   31.2730   47.9680 S   0  0  0  0  0  0  0  0  0  0  0  0
   60.3740   29.5200   45.8270 C   0  0  0  0  0  0  0  0  0  0  0  0
   60.5590   28.4465   45.6744 H   0  0  0  0  0  0  0  0  0  0  0  0
   61.2931   30.0941   45.6384 H   0  0  0  0  0  0  0  0  0  0  0  0
   59.2870   29.9890   44.8500 C   0  0  0  0  0  0  0  0  0  0  0  0
   59.5032   29.5743   43.8544 H   0  0  0  0  0  0  0  0  0  0  0  0
   59.2971   31.0889   44.8375 H   0  0  0  0  0  0  0  0  0  0  0  0
   57.4190   31.9960   43.2330 C   0  0  0  0  0  0  0  0  0  0  0  0
   57.5376   32.4737   42.2493 H   0  0  0  0  0  0  0  0  0  0  0  0
   57.8340   32.7730   44.4210 C   0  0  0  0  0  0  0  0  0  0  0  0
   58.9300   33.6550   44.3750 C   0  0  0  0  0  0  0  0  0  0  0  0
   59.5183   33.7500   43.4504 H   0  0  0  0  0  0  0  0  0  0  0  0
   59.2740   34.4110   45.5000 C   0  0  0  0  0  0  0  0  0  0  0  0
   60.1426   35.0850   45.4644 H   0  0  0  0  0  0  0  0  0  0  0  0
   58.5150   34.3110   46.6700 C   0  0  0  0  0  0  0  0  0  0  0  0
   58.7911   34.9000   47.5570 H   0  0  0  0  0  0  0  0  0  0  0  0
   57.4050   33.4620   46.7120 C   0  0  0  0  0  0  0  0  0  0  0  0
   56.8027   33.3907   47.6297 H   0  0  0  0  0  0  0  0  0  0  0  0
   57.0590   32.7030   45.5890 C   0  0  0  0  0  0  0  0  0  0  0  0
   56.1756   32.0484   45.6215 H   0  0  0  0  0  0  0  0  0  0  0  0
  1  2  1  0
  2  3  1  0
  3  4  2  0
  3  5  1  0
  5  6  1  0
  6  7  1  0
  6  8  1  0
  6  9  1  0
  9 10  1  0
  9 11  1  0
  9 12  1  0
 12 13  1  0
 13 14  2  0
 14 15  1  0
 15 16  1  0
 15 17  2  0
 17 18  1  0
 18 19  2  0
 19 20  1  0
 19 21  1  0
 21 22  1  0
 21 23  2  0
 23 24  1  0
 23 25  1  0
 25 26  1  0
 26 27  1  0
 26 28  1  0
 26 29  1  0
 25 30  2  0
 30 31  1  0
 31 32  1  0
 32 33  1  0
 32 34  1  0
 32 35  1  0
 17 36  1  0
 12 37  1  0
 37 38  1  0
 37 39  1  0
 37 40  1  0
 40 41  1  0
 40 42  1  0
  2 43  2  0
 43 44  1  0
 43 45  1  0
 45 46  2  0
 46 47  1  0
 46 48  1  0
 48 49  1  0
 48 50  2  0
 50 51  1  0
 50 52  1  0
 52 53  1  0
 52 54  2  0
 54 55  1  0
 40  5  1  0
 54 45  1  0
 36 13  1  0
 30 18  1  0
M  CHG  1  15   1
M  END
>  <UniqueID>  (71) 
68

>  <SMILES>  (71) 
COc1c(C)cccc1-c1[nH+]nc(N2CCN(C(=O)/C=C\c3ccccc3)CC2)s1

>  <Energy>  (71) 
110.35972154852715

>  <Genealogy>  (71) 
COc1c(C)cccc1-c1[nH+]nc(N2CCN(C(=O)C=Cc3ccccc3)CC2)s1 (protonated)
COc1c(C)cccc1-c1[nH+]nc(N2CCN(C(=O)/C=C\c3ccccc3)CC2)s1 (cis-trans isomerization)
COc1c(C)cccc1-c1[nH+]nc(N2CCN(C(=O)/C=C\c3ccccc3)CC2)s1 (3D coordinates assigned)
COc1c(C)cccc1-c1[nH+]nc(N2CCN(C(=O)/C=C\c3ccccc3)CC2)s1 (nonaromatic ring conformer: 110.35972154852715 kcal/mol)

>  <smiles>  (71) 
COc1c(C)cccc1-c1nnc(N2CCN(C(=O)C=Cc3ccccc3)CC2)s1

>  <score_type>  (71) 
oracle

>  <origin>  (71) 
adg

>  <m_score__min__energy>  (71) 
-7.3300000000000001

>  <m_primary>  (71) 
energy

$$$$
71:0
     RDKit          3D

 67 70  0  0  0  0  0  0  0  0999 V2000
   60.0810   26.5220   47.8210 C   0  0  0  0  0  0  0  0  0  0  0  0
   60.4040   27.5920   48.8140 C   0  0  0  0  0  0  0  0  0  0  0  0
   60.9730   27.3490   50.0120 N   0  0  0  0  0  0  0  0  0  0  0  0
   61.1870   28.5210   50.5880 N   0  0  0  0  0  0  0  0  0  0  0  0
   61.7890   28.6840   51.9030 C   0  0  0  0  0  0  0  0  0  0  0  0
   60.7710   29.5210   49.7870 C   0  0  0  0  0  0  0  0  0  0  0  0
   60.2540   28.9610   48.6340 C   0  0  0  0  0  0  0  0  0  0  0  0
   59.7850   29.6790   47.3960 C   0  0  0  0  0  0  0  0  0  0  0  0
   58.3250   29.3210   47.0790 C   0  0  0  0  0  0  0  0  0  0  0  0
   57.8090   30.1300   45.8660 C   0  0  0  0  0  0  0  0  0  0  0  0
   58.9120   30.7110   45.0590 N   0  0  0  0  0  0  0  0  0  0  0  0
   58.4240   31.2580   43.7740 C   0  0  0  0  0  0  0  0  0  0  0  0
   57.3820   32.3830   43.9700 C   0  0  0  0  0  0  0  0  0  0  0  0
   57.7930   33.5740   44.8780 C   0  0  1  0  0  0  0  0  0  0  0  0
   57.2890   33.4680   46.3440 C   0  0  0  0  0  0  0  0  0  0  0  0
   58.4090   33.0960   47.3250 C   0  0  0  0  0  0  0  0  0  0  0  0
   59.5740   34.1150   47.3040 C   0  0  1  0  0  0  0  0  0  0  0  0
   60.8180   33.4310   47.6740 N   0  0  0  0  0  0  0  0  0  0  0  0
   61.3110   33.4150   49.0230 C   0  0  0  0  0  0  0  0  0  0  0  0
   60.8490   34.2170   49.8820 O   0  0  0  0  0  0  0  0  0  0  0  0
   62.4040   32.4620   49.4150 C   0  0  0  0  0  0  0  0  0  0  0  0
   63.6020   32.5850   48.4590 C   0  0  0  0  0  0  0  0  0  0  0  0
   63.3870   31.9190   47.1190 C   0  0  0  0  0  0  0  0  0  0  0  0
   63.4170   33.1420   46.4270 O   0  0  0  0  0  0  0  0  0  0  0  0
   63.6170   33.8490   47.6280 C   0  0  0  0  0  0  0  0  0  0  0  0
   59.7360   34.8200   45.9330 C   0  0  0  0  0  0  0  0  0  0  0  0
   59.3030   33.9120   44.7780 C   0  0  0  0  0  0  0  0  0  0  0  0
   59.9790   29.7120   44.8450 C   0  0  0  0  0  0  0  0  0  0  0  0
   60.6810   29.3750   46.1760 C   0  0  0  0  0  0  0  0  0  0  0  0
   59.8027   25.6002   48.3528 H   0  0  0  0  0  0  0  0  0  0  0  0
   59.2415   26.8488   47.1898 H   0  0  0  0  0  0  0  0  0  0  0  0
   60.9611   26.3297   47.1898 H   0  0  0  0  0  0  0  0  0  0  0  0
   61.0362   28.4802   52.6787 H   0  0  0  0  0  0  0  0  0  0  0  0
   62.6276   27.9806   52.0121 H   0  0  0  0  0  0  0  0  0  0  0  0
   62.1582   29.7144   52.0121 H   0  0  0  0  0  0  0  0  0  0  0  0
   60.8321   30.5961   50.0115 H   0  0  0  0  0  0  0  0  0  0  0  0
   59.8546   30.7570   47.6035 H   0  0  0  0  0  0  0  0  0  0  0  0
   58.2591   28.2471   46.8500 H   0  0  0  0  0  0  0  0  0  0  0  0
   57.7052   29.5661   47.9541 H   0  0  0  0  0  0  0  0  0  0  0  0
   57.2156   29.4627   45.2236 H   0  0  0  0  0  0  0  0  0  0  0  0
   57.2035   30.9628   46.2529 H   0  0  0  0  0  0  0  0  0  0  0  0
   59.2802   31.6631   43.2146 H   0  0  0  0  0  0  0  0  0  0  0  0
   57.9348   30.4397   43.2254 H   0  0  0  0  0  0  0  0  0  0  0  0
   57.1424   32.7902   42.9766 H   0  0  0  0  0  0  0  0  0  0  0  0
   56.5393   31.9045   44.4904 H   0  0  0  0  0  0  0  0  0  0  0  0
   57.2535   34.4392   44.4654 H   0  0  0  0  0  0  0  0  0  0  0  0
   56.8663   34.4386   46.6428 H   0  0  0  0  0  0  0  0  0  0  0  0
   56.5335   32.6693   46.3808 H   0  0  0  0  0  0  0  0  0  0  0  0
   57.9904   33.0589   48.3416 H   0  0  0  0  0  0  0  0  0  0  0  0
   58.8121   32.1192   47.0193 H   0  0  0  0  0  0  0  0  0  0  0  0
   59.3385   34.9043   48.0331 H   0  0  0  0  0  0  0  0  0  0  0  0
   61.3290   32.8780   46.9520 H   0  0  0  0  0  0  0  0  0  0  0  0
   62.7340   32.6925   50.4387 H   0  0  0  0  0  0  0  0  0  0  0  0
   62.0134   31.4351   49.3617 H   0  0  0  0  0  0  0  0  0  0  0  0
   64.3965   32.3104   49.1685 H   0  0  0  0  0  0  0  0  0  0  0  0
   64.2003   31.2351   46.8346 H   0  0  0  0  0  0  0  0  0  0  0  0
   62.5187   31.2564   46.9887 H   0  0  0  0  0  0  0  0  0  0  0  0
   64.5758   34.3868   47.6655 H   0  0  0  0  0  0  0  0  0  0  0  0
   62.9256   34.6644   47.8870 H   0  0  0  0  0  0  0  0  0  0  0  0
   59.1170   35.7293   45.9237 H   0  0  0  0  0  0  0  0  0  0  0  0
   60.7991   35.0673   45.7965 H   0  0  0  0  0  0  0  0  0  0  0  0
   59.4950   34.4255   43.8244 H   0  0  0  0  0  0  0  0  0  0  0  0
   59.8777   32.9756   44.8318 H   0  0  0  0  0  0  0  0  0  0  0  0
   59.5376   28.7954   44.4268 H   0  0  0  0  0  0  0  0  0  0  0  0
   60.7209   30.1289   44.1481 H   0  0  0  0  0  0  0  0  0  0  0  0
   60.9372   28.3053   46.1814 H   0  0  0  0  0  0  0  0  0  0  0  0
   61.5825   30.0006   46.2524 H   0  0  0  0  0  0  0  0  0  0  0  0
  1  2  1  0
  2  3  2  0
  3  4  1  0
  4  5  1  0
  4  6  1  0
  6  7  2  0
  7  8  1  0
  8  9  1  0
  9 10  1  0
 10 11  1  0
 11 12  1  0
 12 13  1  0
 13 14  1  0
 14 15  1  0
 15 16  1  0
 16 17  1  0
 17 18  1  0
 18 19  1  0
 19 20  2  0
 19 21  1  0
 21 22  1  0
 22 23  1  0
 23 24  1  0
 24 25  1  0
 17 26  1  0
 26 27  1  0
 11 28  1  0
 28 29  1  0
  7  2  1  0
 29  8  1  0
 27 14  1  0
 25 22  1  0
  1 30  1  0
  1 31  1  0
  1 32  1  0
  5 33  1  0
  5 34  1  0
  5 35  1  0
  6 36  1  0
  8 37  1  0
  9 38  1  0
  9 39  1  0
 10 40  1  0
 10 41  1  0
 12 42  1  0
 12 43  1  0
 13 44  1  0
 13 45  1  0
 14 46  1  6
 15 47  1  0
 15 48  1  0
 16 49  1  0
 16 50  1  0
 17 51  1  1
 18 52  1  0
 21 53  1  0
 21 54  1  0
 22 55  1  0
 23 56  1  0
 23 57  1  0
 25 58  1  0
 25 59  1  0
 26 60  1  0
 26 61  1  0
 27 62  1  0
 27 63  1  0
 28 64  1  0
 28 65  1  0
 29 66  1  0
 29 67  1  0
M  END
>  <UniqueID>  (72) 
69

>  <SMILES>  (72) 
Cc1nn(C)cc1C1CCN(CCC2CCC(NC(=O)CC3COC3)CC2)CC1

>  <Energy>  (72) 
161.77835971548365

>  <Genealogy>  (72) 
Cc1nn(C)cc1C1CCN(CCC2CCC(NC(=O)CC3COC3)CC2)CC1 (3D coordinates assigned)
Cc1nn(C)cc1C1CCN(CCC2CCC(NC(=O)CC3COC3)CC2)CC1 (nonaromatic ring conformer: 161.77835971548365 kcal/mol)

>  <smiles>  (72) 
Cc1nn(C)cc1C1CCN(CCC2CCC(NC(=O)CC3COC3)CC2)CC1

>  <score_type>  (72) 
oracle

>  <origin>  (72) 
adg

>  <m_score__min__energy>  (72) 
-9.0700000000000003

>  <m_primary>  (72) 
energy

$$$$
72:0
     RDKit          3D

 41 44  0  0  0  0  0  0  0  0999 V2000
   56.0660   32.2670   52.3610 C   0  0  0  0  0  0  0  0  0  0  0  0
   55.6560   31.0370   52.7080 C   0  0  0  0  0  0  0  0  0  0  0  0
   54.3410   30.5460   52.6890 C   0  0  0  0  0  0  0  0  0  0  0  0
   53.1610   31.1760   52.5310 C   0  0  0  0  0  0  0  0  0  0  0  0
   52.2900   31.0840   51.3480 C   0  0  0  0  0  0  0  0  0  0  0  0
   52.3960   30.1460   50.3880 N   0  0  0  0  0  0  0  0  0  0  0  0
   51.4980   30.5460   49.4620 C   0  0  0  0  0  0  0  0  0  0  0  0
   51.2900   29.9050   48.3990 O   0  0  0  0  0  0  0  0  0  0  0  0
   50.8510   31.6940   49.7580 N   0  0  0  0  0  0  0  0  0  0  0  0
   51.3760   32.0270   50.9480 C   0  0  0  0  0  0  0  0  0  0  0  0
   51.0280   33.1730   51.6520 O   0  0  0  0  0  0  0  0  0  0  0  0
   54.4380   29.1800   52.8960 C   0  0  0  0  0  0  0  0  0  0  0  0
   55.7700   28.8960   53.0970 C   0  0  0  0  0  0  0  0  0  0  0  0
   56.5080   30.0190   52.9960 N   0  0  0  0  0  0  0  0  0  0  0  0
   57.9750   30.0510   53.0670 C   0  0  0  0  0  0  0  0  0  0  0  0
   58.5780   29.6950   51.7320 C   0  0  0  0  0  0  0  0  0  0  0  0
   59.6200   28.7590   51.6580 C   0  0  0  0  0  0  0  0  0  0  0  0
   60.1760   28.4160   50.4220 C   0  0  0  0  0  0  0  0  0  0  0  0
   59.6900   28.9940   49.2410 C   0  0  0  0  0  0  0  0  0  0  0  0
   60.3170   28.6330   47.9520 C   0  0  0  0  0  0  0  0  0  0  0  0
   59.7290   27.8740   47.0150 C   0  0  0  0  0  0  0  0  0  0  0  0
   58.0430   28.0990   46.4180 S   0  0  0  0  0  0  0  0  0  0  0  0
   58.2520   26.5860   45.4750 C   0  0  0  0  0  0  0  0  0  0  0  0
   57.3320   26.1160   44.7570 O   0  0  0  0  0  0  0  0  0  0  0  0
   59.5140   25.9410   45.5770 N   0  0  0  0  0  0  0  0  0  0  0  0
   60.3490   26.6740   46.4540 C   0  0  0  0  0  0  0  0  0  0  0  0
   61.5230   26.3030   46.7170 O   0  0  0  0  0  0  0  0  0  0  0  0
   58.6740   29.9610   49.3180 C   0  0  0  0  0  0  0  0  0  0  0  0
   58.1180   30.3040   50.5540 C   0  0  0  0  0  0  0  0  0  0  0  0
   57.1328   32.5286   52.4212 H   0  0  0  0  0  0  0  0  0  0  0  0
   55.3353   33.0135   52.0164 H   0  0  0  0  0  0  0  0  0  0  0  0
   52.8184   31.8150   53.3582 H   0  0  0  0  0  0  0  0  0  0  0  0
   53.6077   28.4584   52.8992 H   0  0  0  0  0  0  0  0  0  0  0  0
   56.1742   27.8953   53.3097 H   0  0  0  0  0  0  0  0  0  0  0  0
   58.3012   31.0618   53.3532 H   0  0  0  0  0  0  0  0  0  0  0  0
   58.3102   29.3173   53.8149 H   0  0  0  0  0  0  0  0  0  0  0  0
   60.0019   28.2921   52.5779 H   0  0  0  0  0  0  0  0  0  0  0  0
   60.9996   27.6883   50.3760 H   0  0  0  0  0  0  0  0  0  0  0  0
   61.3299   29.0106   47.7481 H   0  0  0  0  0  0  0  0  0  0  0  0
   58.3141   30.4508   48.4012 H   0  0  0  0  0  0  0  0  0  0  0  0
   57.3158   31.0551   50.6036 H   0  0  0  0  0  0  0  0  0  0  0  0
  1  2  2  0
  2  3  1  0
  3  4  2  3
  4  5  1  0
  5  6  1  0
  6  7  1  0
  7  8  2  0
  7  9  1  0
  9 10  1  0
 10 11  1  0
  3 12  1  0
 12 13  2  0
 13 14  1  0
 14 15  1  0
 15 16  1  0
 16 17  2  0
 17 18  1  0
 18 19  2  0
 19 20  1  0
 20 21  2  3
 21 22  1  0
 22 23  1  0
 23 24  2  0
 23 25  1  0
 25 26  1  0
 26 27  2  0
 19 28  1  0
 28 29  2  0
 14  2  1  0
 29 16  1  0
 10  5  2  0
 26 21  1  0
  1 30  1  0
  1 31  1  0
  4 32  1  0
 12 33  1  0
 13 34  1  0
 15 35  1  0
 15 36  1  0
 17 37  1  0
 18 38  1  0
 20 39  1  0
 28 40  1  0
 29 41  1  0
M  CHG  4   6  -1   9  -1  11  -1  25  -1
M  END
>  <UniqueID>  (73) 
70

>  <SMILES>  (73) 
C=c1c(=Cc2[n-]c(=O)[n-]c2[O-])ccn1Cc1ccc(C=C2SC(=O)[N-]C2=O)cc1

>  <Energy>  (73) 
137.4540461995693

>  <Genealogy>  (73) 
C=c1c(=Cc2[n-]c(=O)[n-]c2[O-])ccn1Cc1ccc(C=C2SC(=O)[N-]C2=O)cc1 (protonated)
C=c1c(=Cc2[n-]c(=O)[n-]c2[O-])ccn1Cc1ccc(C=C2SC(=O)[N-]C2=O)cc1 (3D coordinates assigned)
C=c1c(=Cc2[n-]c(=O)[n-]c2[O-])ccn1Cc1ccc(C=C2SC(=O)[N-]C2=O)cc1 (nonaromatic ring conformer: 137.4540461995693 kcal/mol)

>  <smiles>  (73) 
C=c1c(=Cc2[nH]c(=O)[nH]c2O)ccn1Cc1ccc(C=C2SC(=O)NC2=O)cc1

>  <score_type>  (73) 
oracle

>  <origin>  (73) 
adg

>  <m_score__min__energy>  (73) 
-18.379999999999999

>  <m_primary>  (73) 
energy

$$$$
73:0
     RDKit          3D

 52 54  0  0  0  0  0  0  0  0999 V2000
   63.0290   33.8120   46.7500 C   0  0  0  0  0  0  0  0  0  0  0  0
   62.2450   33.9550   47.9150 O   0  0  0  0  0  0  0  0  0  0  0  0
   62.7400   33.1210   48.9450 C   0  0  0  0  0  0  0  0  0  0  0  0
   62.1120   31.7420   48.9400 C   0  0  0  0  0  0  0  0  0  0  0  0
   62.5230   30.9280   49.7570 O   0  0  0  0  0  0  0  0  0  0  0  0
   61.0660   31.3560   48.0040 N   0  0  2  0  0  0  0  0  0  0  0  0
   60.1120   30.4510   48.6670 C   0  0  0  0  0  0  0  0  0  0  0  0
   58.9010   30.1840   47.7590 C   0  0  0  0  0  0  0  0  0  0  0  0
   59.2890   29.7190   46.3070 C   0  0  2  0  0  0  0  0  0  0  0  0
   58.7090   30.6840   45.2310 C   0  0  0  0  0  0  0  0  0  0  0  0
   58.7730   32.1110   45.5770 C   0  0  0  0  0  0  0  0  0  0  0  0
   58.8170   33.2330   45.8610 N   0  0  0  0  0  0  0  0  0  0  0  0
   58.6680   28.3950   46.0470 N   0  0  0  0  0  0  0  0  0  0  0  0
   57.3670   28.0560   46.2090 C   0  0  0  0  0  0  0  0  0  0  0  0
   57.2290   26.6910   46.0470 C   0  0  0  0  0  0  0  0  0  0  0  0
   56.0090   25.9410   46.3920 C   0  0  0  0  0  0  0  0  0  0  0  0
   54.7550   26.2790   45.8020 N   0  0  0  0  0  0  0  0  0  0  0  0
   56.0870   24.9460   47.1590 O   0  0  0  0  0  0  0  0  0  0  0  0
   58.5270   26.2510   45.7860 C   0  0  0  0  0  0  0  0  0  0  0  0
   58.9400   25.0450   45.5100 N   0  0  0  0  0  0  0  0  0  0  0  0
   58.2330   24.0140   44.8100 C   0  0  0  0  0  0  0  0  0  0  0  0
   57.2790   24.3270   43.8250 C   0  0  0  0  0  0  0  0  0  0  0  0
   56.6400   23.3060   43.1150 C   0  0  0  0  0  0  0  0  0  0  0  0
   56.9660   21.9700   43.3660 C   0  0  0  0  0  0  0  0  0  0  0  0
   56.3460   20.9810   42.6760 F   0  0  0  0  0  0  0  0  0  0  0  0
   57.9410   21.6550   44.3170 C   0  0  0  0  0  0  0  0  0  0  0  0
   58.5820   22.6750   45.0280 C   0  0  0  0  0  0  0  0  0  0  0  0
   59.3740   27.2940   45.8280 N   0  0  0  0  0  0  0  0  0  0  0  0
   60.8420   29.6000   46.1670 C   0  0  0  0  0  0  0  0  0  0  0  0
   61.6590   30.7640   46.7740 C   0  0  0  0  0  0  0  0  0  0  0  0
   64.0747   33.6213   47.0329 H   0  0  0  0  0  0  0  0  0  0  0  0
   62.6505   32.9681   46.1546 H   0  0  0  0  0  0  0  0  0  0  0  0
   62.9728   34.7352   46.1546 H   0  0  0  0  0  0  0  0  0  0  0  0
   63.8270   33.0121   48.8165 H   0  0  0  0  0  0  0  0  0  0  0  0
   62.4867   33.5956   49.9045 H   0  0  0  0  0  0  0  0  0  0  0  0
   60.5300   32.2040   47.7180 H   0  0  0  0  0  0  0  0  0  0  0  0
   59.7668   30.9126   49.6039 H   0  0  0  0  0  0  0  0  0  0  0  0
   60.6158   29.4960   48.8771 H   0  0  0  0  0  0  0  0  0  0  0  0
   58.3141   31.1111   47.6814 H   0  0  0  0  0  0  0  0  0  0  0  0
   58.3304   29.3629   48.2176 H   0  0  0  0  0  0  0  0  0  0  0  0
   59.2725   30.5334   44.2984 H   0  0  0  0  0  0  0  0  0  0  0  0
   57.6408   30.4373   45.1407 H   0  0  0  0  0  0  0  0  0  0  0  0
   56.5494   28.7567   46.4340 H   0  0  0  0  0  0  0  0  0  0  0  0
   53.9950   26.7140   46.3700 H   0  0  0  0  0  0  0  0  0  0  0  0
   57.0349   25.3783   43.6126 H   0  0  0  0  0  0  0  0  0  0  0  0
   55.8806   23.5540   42.3588 H   0  0  0  0  0  0  0  0  0  0  0  0
   58.2044   20.6039   44.5064 H   0  0  0  0  0  0  0  0  0  0  0  0
   59.3630   22.4247   45.7610 H   0  0  0  0  0  0  0  0  0  0  0  0
   61.0816   29.5414   45.0950 H   0  0  0  0  0  0  0  0  0  0  0  0
   61.1275   28.7032   46.7364 H   0  0  0  0  0  0  0  0  0  0  0  0
   61.7428   31.5572   46.0164 H   0  0  0  0  0  0  0  0  0  0  0  0
   62.6332   30.3448   47.0658 H   0  0  0  0  0  0  0  0  0  0  0  0
  1  2  1  0
  2  3  1  0
  3  4  1  0
  4  5  2  0
  4  6  1  0
  6  7  1  0
  7  8  1  0
  8  9  1  0
  9 10  1  6
 10 11  1  0
 11 12  3  0
  9 13  1  0
 13 14  1  0
 14 15  2  0
 15 16  1  0
 16 17  1  0
 16 18  2  0
 15 19  1  0
 19 20  2  3
 20 21  1  0
 21 22  2  0
 22 23  1  0
 23 24  2  0
 24 25  1  0
 24 26  1  0
 26 27  2  0
 19 28  1  0
  9 29  1  0
 29 30  1  0
 30  6  1  0
 28 13  1  0
 27 21  1  0
  1 31  1  0
  1 32  1  0
  1 33  1  0
  3 34  1  0
  3 35  1  0
  6 36  1  6
  7 37  1  0
  7 38  1  0
  8 39  1  0
  8 40  1  0
 10 41  1  0
 10 42  1  0
 14 43  1  0
 17 44  1  0
 22 45  1  0
 23 46  1  0
 26 47  1  0
 27 48  1  0
 29 49  1  0
 29 50  1  0
 30 51  1  0
 30 52  1  0
M  CHG  3   6   1  17  -1  28  -1
M  END
>  <UniqueID>  (74) 
71

>  <SMILES>  (74) 
COCC(=O)[NH+]1CCC(CC#N)(n2cc(C([NH-])=O)c(=Nc3ccc(F)cc3)[n-]2)CC1

>  <Energy>  (74) 
115.42680499530358

>  <Genealogy>  (74) 
COCC(=O)[NH+]1CCC(CC#N)(n2cc(C([NH-])=O)c(=Nc3ccc(F)cc3)[n-]2)CC1 (protonated)
COCC(=O)[NH+]1CCC(CC#N)(n2cc(C([NH-])=O)c(=Nc3ccc(F)cc3)[n-]2)CC1 (3D coordinates assigned)
COCC(=O)[NH+]1CCC(CC#N)(n2cc(C([NH-])=O)c(=Nc3ccc(F)cc3)[n-]2)CC1 (nonaromatic ring conformer: 115.42680499530358 kcal/mol)

>  <smiles>  (74) 
COCC(=O)N1CCC(CC#N)(n2cc(C(N)=O)c(=Nc3ccc(F)cc3)[nH]2)CC1

>  <score_type>  (74) 
oracle

>  <origin>  (74) 
adg

>  <m_score__min__energy>  (74) 
-10.619999999999999

>  <m_primary>  (74) 
energy

$$$$
74:0
     RDKit          3D

 50 53  0  0  0  0  0  0  0  0999 V2000
   66.0940   26.8780   51.7430 C   0  0  0  0  0  0  0  0  0  0  0  0
   65.8530   28.0320   52.5410 O   0  0  0  0  0  0  0  0  0  0  0  0
   66.2800   29.3260   52.2110 C   0  0  0  0  0  0  0  0  0  0  0  0
   67.4550   29.9010   52.7650 C   0  0  0  0  0  0  0  0  0  0  0  0
   67.8590   31.1950   52.4000 C   0  0  0  0  0  0  0  0  0  0  0  0
   67.0700   31.8990   51.4880 C   0  0  0  0  0  0  0  0  0  0  0  0
   65.9230   31.3590   50.9590 C   0  0  0  0  0  0  0  0  0  0  0  0
   65.5100   30.0660   51.2930 C   0  0  0  0  0  0  0  0  0  0  0  0
   65.3940   32.3040   50.0860 C   0  0  0  0  0  0  0  0  0  0  0  0
   64.1460   32.2380   49.2850 C   0  0  0  0  0  0  0  0  0  0  0  0
   64.1050   32.8070   48.0660 C   0  0  0  0  0  0  0  0  0  0  0  0
   62.8730   32.8090   47.1920 C   0  0  0  0  0  0  0  0  0  0  0  0
   61.6870   32.2520   47.8620 N   0  0  0  0  0  0  0  0  0  0  0  0
   60.4980   32.0080   47.0870 C   0  0  0  0  0  0  0  0  0  0  0  0
   59.6990   32.9570   46.8570 O   0  0  0  0  0  0  0  0  0  0  0  0
   60.2520   30.7140   46.5130 N   0  0  0  0  0  0  0  0  0  0  0  0
   58.9540   30.2600   46.0900 C   0  0  0  0  0  0  0  0  0  0  0  0
   58.4750   28.9820   46.4360 C   0  0  0  0  0  0  0  0  0  0  0  0
   57.2190   28.5550   45.9930 C   0  0  0  0  0  0  0  0  0  0  0  0
   56.4360   29.3920   45.1910 C   0  0  0  0  0  0  0  0  0  0  0  0
   55.1890   28.9660   44.7530 O   0  0  0  0  0  0  0  0  0  0  0  0
   56.9130   30.6550   44.8280 C   0  0  0  0  0  0  0  0  0  0  0  0
   58.1690   31.0840   45.2680 C   0  0  0  0  0  0  0  0  0  0  0  0
   61.6540   32.1900   49.3270 C   0  0  0  0  0  0  0  0  0  0  0  0
   62.9320   31.5300   49.8300 C   0  0  0  0  0  0  0  0  0  0  0  0
   66.2750   33.3860   50.1340 C   0  0  0  0  0  0  0  0  0  0  0  0
   67.2880   33.1320   50.9940 N   0  0  0  0  0  0  0  0  0  0  0  0
   68.4020   34.0230   51.3020 C   0  0  0  0  0  0  0  0  0  0  0  0
   66.2749   26.0117   52.3963 H   0  0  0  0  0  0  0  0  0  0  0  0
   65.2175   26.6817   51.1080 H   0  0  0  0  0  0  0  0  0  0  0  0
   66.9758   27.0489   51.1080 H   0  0  0  0  0  0  0  0  0  0  0  0
   68.0541   29.3267   53.4870 H   0  0  0  0  0  0  0  0  0  0  0  0
   68.7718   31.6419   52.8208 H   0  0  0  0  0  0  0  0  0  0  0  0
   64.6013   29.6349   50.8475 H   0  0  0  0  0  0  0  0  0  0  0  0
   65.0148   33.2954   47.6869 H   0  0  0  0  0  0  0  0  0  0  0  0
   62.6541   33.8463   46.8985 H   0  0  0  0  0  0  0  0  0  0  0  0
   63.0877   32.1705   46.3224 H   0  0  0  0  0  0  0  0  0  0  0  0
   61.0790   30.1200   46.2820 H   0  0  0  0  0  0  0  0  0  0  0  0
   59.0916   28.3162   47.0577 H   0  0  0  0  0  0  0  0  0  0  0  0
   56.8463   27.5594   46.2757 H   0  0  0  0  0  0  0  0  0  0  0  0
   56.2990   31.3126   44.1950 H   0  0  0  0  0  0  0  0  0  0  0  0
   58.5444   32.0735   44.9681 H   0  0  0  0  0  0  0  0  0  0  0  0
   61.5800   33.2082   49.7367 H   0  0  0  0  0  0  0  0  0  0  0  0
   60.7824   31.6030   49.6523 H   0  0  0  0  0  0  0  0  0  0  0  0
   62.9521   31.5723   50.9290 H   0  0  0  0  0  0  0  0  0  0  0  0
   62.9487   30.4845   49.4885 H   0  0  0  0  0  0  0  0  0  0  0  0
   66.1615   34.3140   49.5544 H   0  0  0  0  0  0  0  0  0  0  0  0
   68.5110   34.1101   52.3931 H   0  0  0  0  0  0  0  0  0  0  0  0
   69.3284   33.6138   50.8725 H   0  0  0  0  0  0  0  0  0  0  0  0
   68.2064   35.0166   50.8725 H   0  0  0  0  0  0  0  0  0  0  0  0
  1  2  1  0
  2  3  1  0
  3  4  2  0
  4  5  1  0
  5  6  2  0
  6  7  1  0
  7  8  2  0
  7  9  1  0
  9 10  1  0
 10 11  2  0
 11 12  1  0
 12 13  1  0
 13 14  1  0
 14 15  2  0
 14 16  1  0
 16 17  1  0
 17 18  2  0
 18 19  1  0
 19 20  2  0
 20 21  1  0
 20 22  1  0
 22 23  2  0
 13 24  1  0
 24 25  1  0
  9 26  2  0
 26 27  1  0
 27 28  1  0
  8  3  1  0
 25 10  1  0
 27  6  1  0
 23 17  1  0
  1 29  1  0
  1 30  1  0
  1 31  1  0
  4 32  1  0
  5 33  1  0
  8 34  1  0
 11 35  1  0
 12 36  1  0
 12 37  1  0
 16 38  1  0
 18 39  1  0
 19 40  1  0
 22 41  1  0
 23 42  1  0
 24 43  1  0
 24 44  1  0
 25 45  1  0
 25 46  1  0
 26 47  1  0
 28 48  1  0
 28 49  1  0
 28 50  1  0
M  CHG  1  21  -1
M  END
>  <UniqueID>  (75) 
72

>  <SMILES>  (75) 
COc1ccc2c(c1)c(C1=CCN(C(=O)Nc3ccc([O-])cc3)CC1)cn2C

>  <Energy>  (75) 
95.45475532115223

>  <Genealogy>  (75) 
COc1ccc2c(c1)c(C1=CCN(C(=O)Nc3ccc([O-])cc3)CC1)cn2C (protonated)
COc1ccc2c(c1)c(C1=CCN(C(=O)Nc3ccc([O-])cc3)CC1)cn2C (3D coordinates assigned)
COc1ccc2c(c1)c(C1=CCN(C(=O)Nc3ccc([O-])cc3)CC1)cn2C (nonaromatic ring conformer: 95.45475532115223 kcal/mol)

>  <smiles>  (75) 
COc1ccc2c(c1)c(C1=CCN(C(=O)Nc3ccc(O)cc3)CC1)cn2C

>  <score_type>  (75) 
oracle

>  <origin>  (75) 
adg

>  <m_score__min__energy>  (75) 
-10.140000000000001

>  <m_primary>  (75) 
energy

$$$$
75:0
     RDKit          3D

 51 53  0  0  0  0  0  0  0  0999 V2000
   59.7949   36.7428   45.3395 H   0  0  0  0  0  0  0  0  0  0  0  0
   59.6250   35.7130   45.6870 C   0  0  0  0  0  0  0  0  0  0  0  0
   59.9730   35.3580   46.9530 N   0  0  0  0  0  0  0  0  0  0  0  0
   59.7790   34.0960   47.4270 C   0  0  0  0  0  0  0  0  0  0  0  0
   60.1670   33.7780   48.8130 C   0  0  0  0  0  0  0  0  0  0  0  0
   59.2800   33.7250   49.7050 O   0  0  0  0  0  0  0  0  0  0  0  0
   61.5460   33.5360   49.1390 N   0  0  0  0  0  0  0  0  0  0  0  0
   62.4540   32.5850   48.4890 C   0  0  0  0  0  0  0  0  0  0  0  0
   63.0660   33.2110   47.2200 C   0  0  0  0  0  0  0  0  0  0  0  0
   63.8083   33.9703   47.5071 H   0  0  0  0  0  0  0  0  0  0  0  0
   63.5554   32.4268   46.6237 H   0  0  0  0  0  0  0  0  0  0  0  0
   62.2710   33.6825   46.6237 H   0  0  0  0  0  0  0  0  0  0  0  0
   63.5640   32.1530   49.4660 C   0  0  0  0  0  0  0  0  0  0  0  0
   63.2153   32.2887   50.5004 H   0  0  0  0  0  0  0  0  0  0  0  0
   63.8089   31.0939   49.2976 H   0  0  0  0  0  0  0  0  0  0  0  0
   64.4604   32.7679   49.2976 H   0  0  0  0  0  0  0  0  0  0  0  0
   61.6300   31.3510   48.0900 C   0  0  0  0  0  0  0  0  0  0  0  0
   61.2838   30.8326   48.9963 H   0  0  0  0  0  0  0  0  0  0  0  0
   60.7612   31.6673   47.4940 H   0  0  0  0  0  0  0  0  0  0  0  0
   62.2551   30.6697   47.4940 H   0  0  0  0  0  0  0  0  0  0  0  0
   59.1990   33.1270   46.5920 C   0  0  0  0  0  0  0  0  0  0  0  0
   59.0240   32.1078   46.9669 H   0  0  0  0  0  0  0  0  0  0  0  0
   58.8430   33.4660   45.2740 C   0  0  0  0  0  0  0  0  0  0  0  0
   58.2340   32.5480   44.4040 O   0  0  0  0  0  0  0  0  0  0  0  0
   57.9090   31.2190   44.7130 C   0  0  0  0  0  0  0  0  0  0  0  0
   58.8570   30.3230   45.2370 C   0  0  0  0  0  0  0  0  0  0  0  0
   59.8899   30.6588   45.4110 H   0  0  0  0  0  0  0  0  0  0  0  0
   58.4930   29.0070   45.5380 C   0  0  0  0  0  0  0  0  0  0  0  0
   59.2420   28.3113   45.9441 H   0  0  0  0  0  0  0  0  0  0  0  0
   57.1730   28.5680   45.3240 C   0  0  0  0  0  0  0  0  0  0  0  0
   56.7720   27.2170   45.6110 N   0  0  0  0  0  0  0  0  0  0  0  0
   55.9820   26.8120   45.0620 H   0  0  0  0  0  0  0  0  0  0  0  0
   57.2680   26.4420   46.7110 C   0  0  0  0  0  0  0  0  0  0  0  0
   58.0540   26.9590   47.5510 O   0  0  0  0  0  0  0  0  0  0  0  0
   56.8110   25.0890   46.8680 N   0  0  0  0  0  0  0  0  0  0  0  0
   55.7270   24.5660   46.3710 C   0  0  0  0  0  0  0  0  0  0  0  0
   54.6770   25.3420   45.9760 N   0  0  0  0  0  0  0  0  0  0  0  0
   53.5420   24.8060   45.4530 C   0  0  0  0  0  0  0  0  0  0  0  0
   52.7135   25.4629   45.1494 H   0  0  0  0  0  0  0  0  0  0  0  0
   53.4270   23.4240   45.3010 C   0  0  0  0  0  0  0  0  0  0  0  0
   52.5135   22.9851   44.8734 H   0  0  0  0  0  0  0  0  0  0  0  0
   54.4850   22.6050   45.6980 C   0  0  0  0  0  0  0  0  0  0  0  0
   54.4093   21.5134   45.5850 H   0  0  0  0  0  0  0  0  0  0  0  0
   55.6400   23.1740   46.2390 C   0  0  0  0  0  0  0  0  0  0  0  0
   56.4753   22.5339   46.5591 H   0  0  0  0  0  0  0  0  0  0  0  0
   56.2490   29.4480   44.7450 C   0  0  0  0  0  0  0  0  0  0  0  0
   55.2285   29.1013   44.5249 H   0  0  0  0  0  0  0  0  0  0  0  0
   56.6150   30.7640   44.4450 C   0  0  0  0  0  0  0  0  0  0  0  0
   55.8789   31.4461   43.9947 H   0  0  0  0  0  0  0  0  0  0  0  0
   59.0530   34.7740   44.8280 C   0  0  0  0  0  0  0  0  0  0  0  0
   58.7688   35.0616   43.8050 H   0  0  0  0  0  0  0  0  0  0  0  0
  1  2  1  0
  2  3  2  0
  3  4  1  0
  4  5  1  0
  5  6  2  0
  5  7  1  0
  7  8  1  0
  8  9  1  0
  9 10  1  0
  9 11  1  0
  9 12  1  0
  8 13  1  0
 13 14  1  0
 13 15  1  0
 13 16  1  0
  8 17  1  0
 17 18  1  0
 17 19  1  0
 17 20  1  0
  4 21  2  0
 21 22  1  0
 21 23  1  0
 23 24  1  0
 24 25  1  0
 25 26  2  0
 26 27  1  0
 26 28  1  0
 28 29  1  0
 28 30  2  0
 30 31  1  0
 31 32  1  0
 31 33  1  0
 33 34  2  0
 33 35  1  0
 35 36  2  0
 36 37  1  0
 37 38  1  0
 38 39  1  0
 38 40  2  0
 40 41  1  0
 40 42  1  0
 42 43  1  0
 42 44  2  0
 44 45  1  0
 30 46  1  0
 46 47  1  0
 46 48  2  0
 48 49  1  0
 23 50  2  0
 50 51  1  0
 50  2  1  0
 48 25  1  0
 44 36  1  0
M  CHG  2   7  -1  37  -1
M  END
>  <UniqueID>  (76) 
73

>  <SMILES>  (76) 
CC(C)(C)[N-]C(=O)c1cc(Oc2ccc(NC(=O)/N=c3/cccc[n-]3)cc2)ccn1

>  <Energy>  (76) 
61.13900294474419

>  <Genealogy>  (76) 
CC(C)(C)[N-]C(=O)c1cc(Oc2ccc(NC(=O)N=c3cccc[n-]3)cc2)ccn1 (protonated)
CC(C)(C)[N-]C(=O)c1cc(Oc2ccc(NC(=O)/N=c3/cccc[n-]3)cc2)ccn1 (cis-trans isomerization)
CC(C)(C)[N-]C(=O)c1cc(Oc2ccc(NC(=O)/N=c3/cccc[n-]3)cc2)ccn1 (3D coordinates assigned)
CC(C)(C)[N-]C(=O)c1cc(Oc2ccc(NC(=O)/N=c3/cccc[n-]3)cc2)ccn1 (optimized conformer: 61.13900294474419 kcal/mol)

>  <smiles>  (76) 
CC(C)(C)NC(=O)c1cc(Oc2ccc(NC(=O)N=c3cccc[nH]3)cc2)ccn1

>  <score_type>  (76) 
oracle

>  <origin>  (76) 
adg

>  <m_score__min__energy>  (76) 
-10.99

>  <m_primary>  (76) 
energy

$$$$
76:0
     RDKit          3D

 79 83  0  0  0  0  0  0  0  0999 V2000
   55.6709   30.4879   43.8377 H   0  0  0  0  0  0  0  0  0  0  0  0
   56.5620   30.4430   44.4810 C   0  0  0  0  0  0  0  0  0  0  0  0
   57.4450   31.6170   44.5630 C   0  0  0  0  0  0  0  0  0  0  0  0
   58.6920   31.4370   44.5240 O   0  0  0  0  0  0  0  0  0  0  0  0
   56.9470   32.9500   44.7470 N   0  0  0  0  0  0  0  0  0  0  0  0
   57.2410   33.8240   45.8790 C   0  0  0  0  0  0  0  0  0  0  0  0
   57.0841   34.8705   45.5785 H   0  0  0  0  0  0  0  0  0  0  0  0
   56.5716   33.5638   46.7122 H   0  0  0  0  0  0  0  0  0  0  0  0
   58.6670   33.6460   46.3270 C   0  0  0  0  0  0  0  0  0  0  0  0
   58.9440   33.0190   47.5500 C   0  0  0  0  0  0  0  0  0  0  0  0
   58.1175   32.6484   48.1741 H   0  0  0  0  0  0  0  0  0  0  0  0
   60.2650   32.8620   47.9810 C   0  0  0  0  0  0  0  0  0  0  0  0
   60.4737   32.3547   48.9345 H   0  0  0  0  0  0  0  0  0  0  0  0
   61.3250   33.3490   47.2020 C   0  0  0  0  0  0  0  0  0  0  0  0
   62.9940   33.1460   47.7490 S   0  0  0  0  0  0  0  0  0  0  0  0
   63.6690   32.1150   46.8880 O   0  0  0  0  0  0  0  0  0  0  0  0
   63.7290   34.4470   47.5770 O   0  0  0  0  0  0  0  0  0  0  0  0
   63.1030   32.6440   49.4230 N   0  0  0  0  0  0  0  0  0  0  0  0
   64.3170   31.8750   49.6800 C   0  0  0  0  0  0  0  0  0  0  0  0
   65.1314   32.2379   49.0357 H   0  0  0  0  0  0  0  0  0  0  0  0
   64.1462   30.8102   49.4632 H   0  0  0  0  0  0  0  0  0  0  0  0
   64.6830   32.0550   51.0970 N   0  0  0  0  0  0  0  0  0  0  0  0
   64.0090   31.1070   52.0360 C   0  0  0  0  0  0  0  0  0  0  0  0
   64.7608   30.8298   52.7896 H   0  0  0  0  0  0  0  0  0  0  0  0
   63.5070   29.8610   51.2600 C   0  0  0  0  0  0  0  0  0  0  0  0
   62.7070   30.1691   50.5708 H   0  0  0  0  0  0  0  0  0  0  0  0
   64.3589   29.4338   50.7106 H   0  0  0  0  0  0  0  0  0  0  0  0
   62.9580   28.7790   52.2100 C   0  0  0  0  0  0  0  0  0  0  0  0
   62.2125   28.1813   51.6650 H   0  0  0  0  0  0  0  0  0  0  0  0
   63.8132   28.1718   52.5418 H   0  0  0  0  0  0  0  0  0  0  0  0
   62.2930   29.3580   53.4710 C   0  0  0  0  0  0  0  0  0  0  0  0
   61.4893   28.6805   53.7951 H   0  0  0  0  0  0  0  0  0  0  0  0
   63.0600   29.4556   54.2534 H   0  0  0  0  0  0  0  0  0  0  0  0
   61.7000   30.7410   53.2030 C   0  0  0  0  0  0  0  0  0  0  0  0
   60.9542   30.6612   52.3984 H   0  0  0  0  0  0  0  0  0  0  0  0
   61.2345   31.1047   54.1309 H   0  0  0  0  0  0  0  0  0  0  0  0
   62.7910   31.7470   52.7790 C   0  0  0  0  0  0  0  0  0  0  0  0
   62.3321   32.4900   52.1101 H   0  0  0  0  0  0  0  0  0  0  0  0
   63.1864   32.1889   53.7055 H   0  0  0  0  0  0  0  0  0  0  0  0
   64.2660   33.4460   51.3470 C   0  0  0  0  0  0  0  0  0  0  0  0
   65.1186   34.1265   51.2057 H   0  0  0  0  0  0  0  0  0  0  0  0
   63.9035   33.5662   52.3786 H   0  0  0  0  0  0  0  0  0  0  0  0
   63.1660   33.7720   50.3450 C   0  0  0  0  0  0  0  0  0  0  0  0
   63.4092   34.6960   49.8000 H   0  0  0  0  0  0  0  0  0  0  0  0
   62.2011   33.9302   50.8488 H   0  0  0  0  0  0  0  0  0  0  0  0
   61.0490   33.9720   45.9750 C   0  0  0  0  0  0  0  0  0  0  0  0
   61.8758   34.3442   45.3523 H   0  0  0  0  0  0  0  0  0  0  0  0
   59.7290   34.1220   45.5400 C   0  0  0  0  0  0  0  0  0  0  0  0
   59.5212   34.6143   44.5785 H   0  0  0  0  0  0  0  0  0  0  0  0
   56.8130   29.3230   45.1670 C   0  0  0  0  0  0  0  0  0  0  0  0
   55.9780   28.6359   45.3686 H   0  0  0  0  0  0  0  0  0  0  0  0
   58.1580   28.9610   45.6690 C   0  0  0  0  0  0  0  0  0  0  0  0
   59.0300   28.2630   44.8170 C   0  0  0  0  0  0  0  0  0  0  0  0
   58.7157   28.0242   43.7903 H   0  0  0  0  0  0  0  0  0  0  0  0
   60.2940   27.8700   45.2650 C   0  0  0  0  0  0  0  0  0  0  0  0
   60.9695   27.3225   44.5913 H   0  0  0  0  0  0  0  0  0  0  0  0
   60.7010   28.1710   46.5660 C   0  0  0  0  0  0  0  0  0  0  0  0
   61.6909   27.8469   46.9197 H   0  0  0  0  0  0  0  0  0  0  0  0
   59.8520   28.8850   47.4230 C   0  0  0  0  0  0  0  0  0  0  0  0
   60.3530   29.2360   49.0800 S   0  0  0  0  0  0  0  0  0  0  0  0
   61.1430   28.0730   49.6140 O   0  0  0  0  0  0  0  0  0  0  0  0
   61.2490   30.4450   49.0760 O   0  0  0  0  0  0  0  0  0  0  0  0
   58.9780   29.5220   50.1230 N   0  0  0  0  0  0  0  0  0  0  0  0
   58.1620   29.0130   49.7050 H   0  0  0  0  0  0  0  0  0  0  0  0
   59.2300   28.9920   51.4790 C   0  0  0  0  0  0  0  0  0  0  0  0
   59.2022   27.8929   51.4452 H   0  0  0  0  0  0  0  0  0  0  0  0
   60.2167   29.3459   51.8126 H   0  0  0  0  0  0  0  0  0  0  0  0
   58.1690   29.4910   52.4810 C   0  0  0  0  0  0  0  0  0  0  0  0
   57.8310   28.6442   53.0963 H   0  0  0  0  0  0  0  0  0  0  0  0
   58.6242   30.2711   53.1089 H   0  0  0  0  0  0  0  0  0  0  0  0
   57.0550   30.0490   51.8140 O   0  0  0  0  0  0  0  0  0  0  0  0
   57.4500   31.2150   51.1120 C   0  0  0  0  0  0  0  0  0  0  0  0
   56.6022   31.5661   50.5054 H   0  0  0  0  0  0  0  0  0  0  0  0
   57.7532   31.9669   51.8554 H   0  0  0  0  0  0  0  0  0  0  0  0
   58.6580   30.9620   50.1780 C   0  0  0  0  0  0  0  0  0  0  0  0
   58.4134   31.3171   49.1660 H   0  0  0  0  0  0  0  0  0  0  0  0
   59.5304   31.5049   50.5707 H   0  0  0  0  0  0  0  0  0  0  0  0
   58.5900   29.2930   46.9660 C   0  0  0  0  0  0  0  0  0  0  0  0
   57.9330   29.8772   47.6271 H   0  0  0  0  0  0  0  0  0  0  0  0
  1  2  1  0
  2  3  1  0
  3  4  2  0
  3  5  1  0
  5  6  1  0
  6  7  1  0
  6  8  1  0
  6  9  1  0
  9 10  2  0
 10 11  1  0
 10 12  1  0
 12 13  1  0
 12 14  2  0
 14 15  1  0
 15 16  2  0
 15 17  2  0
 15 18  1  0
 18 19  1  0
 19 20  1  0
 19 21  1  0
 19 22  1  0
 22 23  1  0
 23 24  1  0
 23 25  1  0
 25 26  1  0
 25 27  1  0
 25 28  1  0
 28 29  1  0
 28 30  1  0
 28 31  1  0
 31 32  1  0
 31 33  1  0
 31 34  1  0
 34 35  1  0
 34 36  1  0
 34 37  1  0
 37 38  1  0
 37 39  1  0
 22 40  1  0
 40 41  1  0
 40 42  1  0
 40 43  1  0
 43 44  1  0
 43 45  1  0
 14 46  1  0
 46 47  1  0
 46 48  2  0
 48 49  1  0
  2 50  2  0
 50 51  1  0
 50 52  1  0
 52 53  2  0
 53 54  1  0
 53 55  1  0
 55 56  1  0
 55 57  2  0
 57 58  1  0
 57 59  1  0
 59 60  1  0
 60 61  2  0
 60 62  2  0
 60 63  1  0
 63 64  1  0
 63 65  1  0
 65 66  1  0
 65 67  1  0
 65 68  1  0
 68 69  1  0
 68 70  1  0
 68 71  1  0
 71 72  1  0
 72 73  1  0
 72 74  1  0
 72 75  1  0
 75 76  1  0
 75 77  1  0
 59 78  2  0
 78 79  1  0
 48  9  1  0
 78 52  1  0
 43 18  1  0
 75 63  1  0
 37 23  1  0
M  CHG  2   5  -1  63   1
M  END
>  <UniqueID>  (77) 
74

>  <SMILES>  (77) 
O=C(/C=C/c1cccc(S(=O)(=O)[NH+]2CCOCC2)c1)[N-]Cc1ccc(S(=O)(=O)N2CCN(C3CCCCC3)C2)cc1

>  <Energy>  (77) 
102.11555820915521

>  <Genealogy>  (77) 
O=C(C=Cc1cccc(S(=O)(=O)[NH+]2CCOCC2)c1)[N-]Cc1ccc(S(=O)(=O)N2CCN(C3CCCCC3)C2)cc1 (protonated)
O=C(/C=C/c1cccc(S(=O)(=O)[NH+]2CCOCC2)c1)[N-]Cc1ccc(S(=O)(=O)N2CCN(C3CCCCC3)C2)cc1 (cis-trans isomerization)
O=C(/C=C/c1cccc(S(=O)(=O)[NH+]2CCOCC2)c1)[N-]Cc1ccc(S(=O)(=O)N2CCN(C3CCCCC3)C2)cc1 (3D coordinates assigned)
O=C(/C=C/c1cccc(S(=O)(=O)[NH+]2CCOCC2)c1)[N-]Cc1ccc(S(=O)(=O)N2CCN(C3CCCCC3)C2)cc1 (nonaromatic ring conformer: 102.11555820915521 kcal/mol)

>  <smiles>  (77) 
O=C(C=Cc1cccc(S(=O)(=O)N2CCOCC2)c1)NCc1ccc(S(=O)(=O)N2CCN(C3CCCCC3)C2)cc1

>  <score_type>  (77) 
oracle

>  <origin>  (77) 
adg

>  <m_score__min__energy>  (77) 
-10.949999999999999

>  <m_primary>  (77) 
energy

$$$$
77:0
     RDKit          3D

 46 49  0  0  0  0  0  0  0  0999 V2000
   61.8910   28.6630   51.2000 C   0  0  0  0  0  0  0  0  0  0  0  0
   60.9090   28.9810   50.1130 C   0  0  0  0  0  0  0  0  0  0  0  0
   60.3080   30.2590   50.0330 C   0  0  0  0  0  0  0  0  0  0  0  0
   59.3740   30.5490   49.0240 C   0  0  0  0  0  0  0  0  0  0  0  0
   59.0400   29.5500   48.1120 C   0  0  0  0  0  0  0  0  0  0  0  0
   58.1390   29.7000   47.1100 N   0  0  0  0  0  0  0  0  0  0  0  0
   58.0360   28.5580   46.3830 C   0  0  0  0  0  0  0  0  0  0  0  0
   57.2240   28.4040   45.3770 N   0  0  0  0  0  0  0  0  0  0  0  0
   56.3970   29.4190   44.7860 C   0  0  0  0  0  0  0  0  0  0  0  0
   55.1460   29.3080   44.8670 O   0  0  0  0  0  0  0  0  0  0  0  0
   56.9630   30.5860   44.0860 C   0  0  0  0  0  0  0  0  0  0  0  0
   56.8180   30.7240   42.6990 C   0  0  0  0  0  0  0  0  0  0  0  0
   57.3970   31.8120   42.0400 C   0  0  0  0  0  0  0  0  0  0  0  0
   58.1460   32.7490   42.7570 C   0  0  0  0  0  0  0  0  0  0  0  0
   58.3220   32.6050   44.1400 C   0  0  0  0  0  0  0  0  0  0  0  0
   59.1800   33.5230   44.8290 N   0  0  0  0  0  0  0  0  0  0  0  0
   59.0320   33.9060   46.5150 S   0  0  0  0  0  0  0  0  0  0  0  0
   57.8070   33.2400   47.0750 O   0  0  0  0  0  0  0  0  0  0  0  0
   58.8930   35.3940   46.6770 O   0  0  0  0  0  0  0  0  0  0  0  0
   60.4840   33.3760   47.3620 C   0  0  0  0  0  0  0  0  0  0  0  0
   60.9120   34.0640   48.5030 C   0  0  0  0  0  0  0  0  0  0  0  0
   62.0970   33.6970   49.1470 C   0  0  0  0  0  0  0  0  0  0  0  0
   62.8850   32.6480   48.6450 C   0  0  0  0  0  0  0  0  0  0  0  0
   64.1240   32.2960   49.2880 N   0  0  0  0  0  0  0  0  0  0  0  0
   65.1500   32.9860   49.1120 O   0  0  0  0  0  0  0  0  0  0  0  0
   64.1950   31.2020   50.1190 O   0  0  0  0  0  0  0  0  0  0  0  0
   62.4460   31.9540   47.5020 C   0  0  0  0  0  0  0  0  0  0  0  0
   61.2510   32.3110   46.8710 C   0  0  0  0  0  0  0  0  0  0  0  0
   57.6910   31.5410   44.8070 C   0  0  0  0  0  0  0  0  0  0  0  0
   59.0320   27.3210   46.9640 S   0  0  0  0  0  0  0  0  0  0  0  0
   59.6320   28.2990   48.1910 C   0  0  0  0  0  0  0  0  0  0  0  0
   60.5640   27.9850   49.1770 C   0  0  0  0  0  0  0  0  0  0  0  0
   61.4157   28.8169   52.1800 H   0  0  0  0  0  0  0  0  0  0  0  0
   62.2122   27.6149   51.1088 H   0  0  0  0  0  0  0  0  0  0  0  0
   62.7656   29.3238   51.1088 H   0  0  0  0  0  0  0  0  0  0  0  0
   60.5743   31.0332   50.7677 H   0  0  0  0  0  0  0  0  0  0  0  0
   58.9150   31.5463   48.9554 H   0  0  0  0  0  0  0  0  0  0  0  0
   56.2482   29.9756   42.1287 H   0  0  0  0  0  0  0  0  0  0  0  0
   57.2629   31.9311   40.9547 H   0  0  0  0  0  0  0  0  0  0  0  0
   58.5995   33.6035   42.2335 H   0  0  0  0  0  0  0  0  0  0  0  0
   60.3123   34.8985   48.8953 H   0  0  0  0  0  0  0  0  0  0  0  0
   62.4148   34.2334   50.0533 H   0  0  0  0  0  0  0  0  0  0  0  0
   63.0478   31.1245   47.1023 H   0  0  0  0  0  0  0  0  0  0  0  0
   60.9113   31.7538   45.9855 H   0  0  0  0  0  0  0  0  0  0  0  0
   57.7693   31.4578   45.9011 H   0  0  0  0  0  0  0  0  0  0  0  0
   61.0195   26.9849   49.2242 H   0  0  0  0  0  0  0  0  0  0  0  0
  1  2  1  0
  2  3  2  0
  3  4  1  0
  4  5  2  0
  5  6  1  0
  6  7  1  0
  7  8  2  3
  8  9  1  0
  9 10  2  0
  9 11  1  0
 11 12  2  0
 12 13  1  0
 13 14  2  0
 14 15  1  0
 15 16  1  0
 16 17  1  0
 17 18  2  0
 17 19  2  0
 17 20  1  0
 20 21  2  0
 21 22  1  0
 22 23  2  0
 23 24  1  0
 24 25  2  0
 24 26  1  0
 23 27  1  0
 27 28  2  0
 15 29  2  0
  7 30  1  0
 30 31  1  0
 31 32  2  0
 32  2  1  0
 31  5  1  0
 29 11  1  0
 28 20  1  0
  1 33  1  0
  1 34  1  0
  1 35  1  0
  3 36  1  0
  4 37  1  0
 12 38  1  0
 13 39  1  0
 14 40  1  0
 21 41  1  0
 22 42  1  0
 27 43  1  0
 28 44  1  0
 29 45  1  0
 32 46  1  0
M  CHG  4   6  -1  16  -1  24   1  26  -1
M  END
>  <UniqueID>  (78) 
75

>  <SMILES>  (78) 
Cc1ccc2[n-]c(=NC(=O)c3cccc([N-]S(=O)(=O)c4ccc([N+](=O)[O-])cc4)c3)sc2c1

>  <Energy>  (78) 
93.53359183679697

>  <Genealogy>  (78) 
Cc1ccc2[n-]c(=NC(=O)c3cccc([N-]S(=O)(=O)c4ccc([N+](=O)[O-])cc4)c3)sc2c1 (protonated)
Cc1ccc2[n-]c(=NC(=O)c3cccc([N-]S(=O)(=O)c4ccc([N+](=O)[O-])cc4)c3)sc2c1 (3D coordinates assigned)
Cc1ccc2[n-]c(=NC(=O)c3cccc([N-]S(=O)(=O)c4ccc([N+](=O)[O-])cc4)c3)sc2c1 (optimized conformer: 93.53359183679697 kcal/mol)

>  <smiles>  (78) 
Cc1ccc2[nH]c(=NC(=O)c3cccc(NS(=O)(=O)c4ccc([N+](=O)[O-])cc4)c3)sc2c1

>  <score_type>  (78) 
oracle

>  <origin>  (78) 
adg

>  <m_score__min__energy>  (78) 
-11.51

>  <m_primary>  (78) 
energy

$$$$
78:0
     RDKit          3D

 73 77  0  0  0  0  0  0  0  0999 V2000
   58.8950   24.9330   45.8990 C   0  0  0  0  0  0  0  0  0  0  0  0
   57.6030   24.8980   45.0700 C   0  0  0  0  0  0  0  0  0  0  0  0
   57.7650   25.5530   43.6980 C   0  0  0  0  0  0  0  0  0  0  0  0
   58.0420   27.0570   43.7820 C   0  0  0  0  0  0  0  0  0  0  0  0
   57.3410   27.7380   44.8900 N   0  0  0  0  0  0  0  0  0  0  0  0
   57.5370   29.1570   45.0130 C   0  0  0  0  0  0  0  0  0  0  0  0
   57.2180   29.9980   43.9370 C   0  0  0  0  0  0  0  0  0  0  0  0
   57.3930   31.3780   44.0410 C   0  0  0  0  0  0  0  0  0  0  0  0
   57.9040   31.9350   45.2210 C   0  0  0  0  0  0  0  0  0  0  0  0
   58.1130   33.6840   45.3650 S   0  0  0  0  0  0  0  0  0  0  0  0
   56.7650   34.3230   45.5770 O   0  0  0  0  0  0  0  0  0  0  0  0
   58.6860   34.2170   44.0810 O   0  0  0  0  0  0  0  0  0  0  0  0
   59.1720   34.1060   46.6890 N   0  0  0  0  0  0  0  0  0  0  0  0
   60.5530   33.6940   46.3880 C   0  0  0  0  0  0  0  0  0  0  0  0
   61.4560   33.8350   47.6300 C   0  0  0  0  0  0  0  0  0  0  0  0
   60.8030   34.5610   48.6530 O   0  0  0  0  0  0  0  0  0  0  0  0
   59.6640   33.8430   49.0980 C   0  0  0  0  0  0  0  0  0  0  0  0
   58.7130   33.4750   47.9360 C   0  0  0  0  0  0  0  0  0  0  0  0
   58.2420   31.0960   46.2920 C   0  0  0  0  0  0  0  0  0  0  0  0
   58.0340   29.7080   46.2110 C   0  0  0  0  0  0  0  0  0  0  0  0
   58.3760   28.8390   47.3050 N   0  0  0  0  0  0  0  0  0  0  0  0
   59.7040   28.5840   47.7860 C   0  0  0  0  0  0  0  0  0  0  0  0
   60.3260   27.5530   47.4050 O   0  0  0  0  0  0  0  0  0  0  0  0
   60.3540   29.5410   48.7100 C   0  0  0  0  0  0  0  0  0  0  0  0
   61.4730   30.2870   48.2980 C   0  0  0  0  0  0  0  0  0  0  0  0
   62.0280   31.2600   49.1360 C   0  0  0  0  0  0  0  0  0  0  0  0
   61.4850   31.4920   50.4130 C   0  0  0  0  0  0  0  0  0  0  0  0
   61.9900   32.4700   51.2830 O   0  0  0  0  0  0  0  0  0  0  0  0
   63.0380   33.3890   50.9680 C   0  0  0  0  0  0  0  0  0  0  0  0
   64.3810   32.7010   50.9330 C   0  0  0  0  0  0  0  0  0  0  0  0
   65.4490   33.2650   50.2190 C   0  0  0  0  0  0  0  0  0  0  0  0
   66.6800   32.6020   50.1470 C   0  0  0  0  0  0  0  0  0  0  0  0
   66.8480   31.3660   50.7760 C   0  0  0  0  0  0  0  0  0  0  0  0
   65.7860   30.7920   51.4840 C   0  0  0  0  0  0  0  0  0  0  0  0
   64.5550   31.4530   51.5580 C   0  0  0  0  0  0  0  0  0  0  0  0
   60.3900   30.7290   50.8360 C   0  0  0  0  0  0  0  0  0  0  0  0
   59.8220   29.7700   49.9910 C   0  0  0  0  0  0  0  0  0  0  0  0
   56.6200   27.0620   45.9880 C   0  0  0  0  0  0  0  0  0  0  0  0
   56.4260   25.5550   45.7830 C   0  0  0  0  0  0  0  0  0  0  0  0
   58.6438   24.9262   46.9699 H   0  0  0  0  0  0  0  0  0  0  0  0
   59.5077   24.0511   45.6605 H   0  0  0  0  0  0  0  0  0  0  0  0
   59.4591   25.8468   45.6605 H   0  0  0  0  0  0  0  0  0  0  0  0
   57.3899   23.8272   44.9363 H   0  0  0  0  0  0  0  0  0  0  0  0
   58.6046   25.0705   43.1761 H   0  0  0  0  0  0  0  0  0  0  0  0
   56.8161   25.4228   43.1571 H   0  0  0  0  0  0  0  0  0  0  0  0
   59.1240   27.2021   43.9167 H   0  0  0  0  0  0  0  0  0  0  0  0
   57.6670   27.5015   42.8483 H   0  0  0  0  0  0  0  0  0  0  0  0
   56.8268   29.5662   43.0040 H   0  0  0  0  0  0  0  0  0  0  0  0
   57.1294   32.0301   43.1953 H   0  0  0  0  0  0  0  0  0  0  0  0
   60.5518   32.6435   46.0618 H   0  0  0  0  0  0  0  0  0  0  0  0
   60.9469   34.3444   45.5932 H   0  0  0  0  0  0  0  0  0  0  0  0
   61.7093   32.8328   48.0060 H   0  0  0  0  0  0  0  0  0  0  0  0
   62.3665   34.3802   47.3406 H   0  0  0  0  0  0  0  0  0  0  0  0
   59.9987   32.9169   49.5883 H   0  0  0  0  0  0  0  0  0  0  0  0
   59.1100   34.4885   49.7954 H   0  0  0  0  0  0  0  0  0  0  0  0
   58.7005   32.3825   47.8080 H   0  0  0  0  0  0  0  0  0  0  0  0
   57.7007   33.8355   48.1709 H   0  0  0  0  0  0  0  0  0  0  0  0
   58.6748   31.5286   47.2061 H   0  0  0  0  0  0  0  0  0  0  0  0
   61.9157   30.1037   47.3079 H   0  0  0  0  0  0  0  0  0  0  0  0
   62.8935   31.8468   48.7947 H   0  0  0  0  0  0  0  0  0  0  0  0
   62.8386   33.8353   49.9826 H   0  0  0  0  0  0  0  0  0  0  0  0
   63.0658   34.1635   51.7486 H   0  0  0  0  0  0  0  0  0  0  0  0
   65.3185   34.2331   49.7132 H   0  0  0  0  0  0  0  0  0  0  0  0
   67.5162   33.0550   49.5943 H   0  0  0  0  0  0  0  0  0  0  0  0
   67.8144   30.8442   50.7148 H   0  0  0  0  0  0  0  0  0  0  0  0
   65.9191   29.8206   51.9826 H   0  0  0  0  0  0  0  0  0  0  0  0
   63.7195   30.9946   52.1074 H   0  0  0  0  0  0  0  0  0  0  0  0
   59.9727   30.8851   51.8417 H   0  0  0  0  0  0  0  0  0  0  0  0
   58.9516   29.1900   50.3317 H   0  0  0  0  0  0  0  0  0  0  0  0
   57.1887   27.2127   46.9174 H   0  0  0  0  0  0  0  0  0  0  0  0
   55.6145   27.5065   46.0246 H   0  0  0  0  0  0  0  0  0  0  0  0
   56.3019   25.0798   46.7673 H   0  0  0  0  0  0  0  0  0  0  0  0
   55.5376   25.4193   45.1487 H   0  0  0  0  0  0  0  0  0  0  0  0
  1  2  1  0
  2  3  1  0
  3  4  1  0
  4  5  1  0
  5  6  1  0
  6  7  2  0
  7  8  1  0
  8  9  2  0
  9 10  1  0
 10 11  2  0
 10 12  2  0
 10 13  1  0
 13 14  1  0
 14 15  1  0
 15 16  1  0
 16 17  1  0
 17 18  1  0
  9 19  1  0
 19 20  2  0
 20 21  1  0
 21 22  1  0
 22 23  2  0
 22 24  1  0
 24 25  2  0
 25 26  1  0
 26 27  2  0
 27 28  1  0
 28 29  1  0
 29 30  1  0
 30 31  2  0
 31 32  1  0
 32 33  2  0
 33 34  1  0
 34 35  2  0
 27 36  1  0
 36 37  2  0
  5 38  1  0
 38 39  1  0
 39  2  1  0
 20  6  1  0
 37 24  1  0
 18 13  1  0
 35 30  1  0
  1 40  1  0
  1 41  1  0
  1 42  1  0
  2 43  1  0
  3 44  1  0
  3 45  1  0
  4 46  1  0
  4 47  1  0
  7 48  1  0
  8 49  1  0
 14 50  1  0
 14 51  1  0
 15 52  1  0
 15 53  1  0
 17 54  1  0
 17 55  1  0
 18 56  1  0
 18 57  1  0
 19 58  1  0
 25 59  1  0
 26 60  1  0
 29 61  1  0
 29 62  1  0
 31 63  1  0
 32 64  1  0
 33 65  1  0
 34 66  1  0
 35 67  1  0
 36 68  1  0
 37 69  1  0
 38 70  1  0
 38 71  1  0
 39 72  1  0
 39 73  1  0
M  CHG  1  21  -1
M  END
>  <UniqueID>  (79) 
76

>  <SMILES>  (79) 
CC1CCN(c2ccc(S(=O)(=O)N3CCOCC3)cc2[N-]C(=O)c2ccc(OCc3ccccc3)cc2)CC1

>  <Energy>  (79) 
93.09418049398732

>  <Genealogy>  (79) 
CC1CCN(c2ccc(S(=O)(=O)N3CCOCC3)cc2[N-]C(=O)c2ccc(OCc3ccccc3)cc2)CC1 (protonated)
CC1CCN(c2ccc(S(=O)(=O)N3CCOCC3)cc2[N-]C(=O)c2ccc(OCc3ccccc3)cc2)CC1 (3D coordinates assigned)
CC1CCN(c2ccc(S(=O)(=O)N3CCOCC3)cc2[N-]C(=O)c2ccc(OCc3ccccc3)cc2)CC1 (nonaromatic ring conformer: 93.09418049398732 kcal/mol)

>  <smiles>  (79) 
CC1CCN(c2ccc(S(=O)(=O)N3CCOCC3)cc2NC(=O)c2ccc(OCc3ccccc3)cc2)CC1

>  <score_type>  (79) 
oracle

>  <origin>  (79) 
adg

>  <m_score__min__energy>  (79) 
-11.789999999999999

>  <m_primary>  (79) 
energy

$$$$
79:0
     RDKit          3D

 59 63  0  0  0  0  0  0  0  0999 V2000
   54.4150   29.3560   45.6110 H   0  0  0  0  0  0  0  0  0  0  0  0
   55.1650   29.3380   44.8840 N   0  0  0  0  0  0  0  0  0  0  0  0
   56.5340   29.5310   45.2370 C   0  0  0  0  0  0  0  0  0  0  0  0
   57.1430   28.6160   45.8550 O   0  0  0  0  0  0  0  0  0  0  0  0
   57.2350   30.7880   44.8820 C   0  0  0  0  0  0  0  0  0  0  0  0
   57.0950   31.3420   43.5980 C   0  0  0  0  0  0  0  0  0  0  0  0
   56.4600   30.8404   42.8529 H   0  0  0  0  0  0  0  0  0  0  0  0
   57.7560   32.5240   43.2620 C   0  0  0  0  0  0  0  0  0  0  0  0
   57.6426   32.9468   42.2529 H   0  0  0  0  0  0  0  0  0  0  0  0
   58.5600   33.1720   44.2000 C   0  0  0  0  0  0  0  0  0  0  0  0
   59.0826   34.0993   43.9225 H   0  0  0  0  0  0  0  0  0  0  0  0
   58.7080   32.6500   45.4970 C   0  0  0  0  0  0  0  0  0  0  0  0
   59.6350   33.3520   46.4830 C   0  0  0  0  0  0  0  0  0  0  0  0
   59.8811   34.3322   46.0486 H   0  0  0  0  0  0  0  0  0  0  0  0
   60.9570   32.5700   46.6490 C   0  0  0  0  0  0  0  0  0  0  0  0
   61.3173   32.2679   45.6546 H   0  0  0  0  0  0  0  0  0  0  0  0
   61.6790   33.2296   47.1526 H   0  0  0  0  0  0  0  0  0  0  0  0
   60.7820   31.3130   47.5150 C   0  0  0  0  0  0  0  0  0  0  0  0
   60.3352   30.5172   46.9010 H   0  0  0  0  0  0  0  0  0  0  0  0
   61.7727   31.0153   47.8890 H   0  0  0  0  0  0  0  0  0  0  0  0
   59.9100   31.5650   48.6780 N   0  0  0  0  0  0  0  0  0  0  0  0
   59.1950   30.4720   49.2950 C   0  0  0  0  0  0  0  0  0  0  0  0
   58.0800   30.6830   49.8450 O   0  0  0  0  0  0  0  0  0  0  0  0
   59.7120   29.0890   49.2520 C   0  0  0  0  0  0  0  0  0  0  0  0
   60.6620   28.6520   50.1840 C   0  0  0  0  0  0  0  0  0  0  0  0
   61.0348   29.3374   50.9594 H   0  0  0  0  0  0  0  0  0  0  0  0
   61.1310   27.3400   50.1200 C   0  0  0  0  0  0  0  0  0  0  0  0
   61.8799   26.9895   50.8454 H   0  0  0  0  0  0  0  0  0  0  0  0
   60.6660   26.4940   49.1650 N   0  0  0  0  0  0  0  0  0  0  0  0
   59.7380   26.8750   48.2460 C   0  0  0  0  0  0  0  0  0  0  0  0
   59.3510   26.0050   47.3560 N   0  0  0  0  0  0  0  0  0  0  0  0
   58.0010   25.8460   46.8010 C   0  0  0  0  0  0  0  0  0  0  0  0
   57.3653   26.6153   47.2637 H   0  0  0  0  0  0  0  0  0  0  0  0
   57.4330   24.4360   47.1030 C   0  0  0  0  0  0  0  0  0  0  0  0
   58.1859   23.8111   47.6057 H   0  0  0  0  0  0  0  0  0  0  0  0
   56.5632   24.4663   47.7757 H   0  0  0  0  0  0  0  0  0  0  0  0
   57.1010   23.8880   45.7700 C   0  0  0  0  0  0  0  0  0  0  0  0
   56.5300   22.6400   45.5000 C   0  0  0  0  0  0  0  0  0  0  0  0
   56.2662   21.9552   46.3194 H   0  0  0  0  0  0  0  0  0  0  0  0
   56.3000   22.2780   44.1630 C   0  0  0  0  0  0  0  0  0  0  0  0
   55.8512   21.3017   43.9277 H   0  0  0  0  0  0  0  0  0  0  0  0
   56.6430   23.1630   43.1230 C   0  0  0  0  0  0  0  0  0  0  0  0
   56.4616   22.8768   42.0765 H   0  0  0  0  0  0  0  0  0  0  0  0
   57.2160   24.4100   43.4190 C   0  0  0  0  0  0  0  0  0  0  0  0
   57.4868   25.1074   42.6126 H   0  0  0  0  0  0  0  0  0  0  0  0
   57.4360   24.7490   44.7560 C   0  0  0  0  0  0  0  0  0  0  0  0
   58.0420   26.0010   45.2630 C   0  0  0  0  0  0  0  0  0  0  0  0
   59.0782   26.1043   44.9087 H   0  0  0  0  0  0  0  0  0  0  0  0
   57.5089   26.8982   44.9154 H   0  0  0  0  0  0  0  0  0  0  0  0
   59.2360   28.1930   48.2860 C   0  0  0  0  0  0  0  0  0  0  0  0
   58.4738   28.5158   47.5615 H   0  0  0  0  0  0  0  0  0  0  0  0
   59.5970   32.9550   49.0370 C   0  0  0  0  0  0  0  0  0  0  0  0
   58.8987   32.9619   49.8869 H   0  0  0  0  0  0  0  0  0  0  0  0
   60.5284   33.4724   49.3105 H   0  0  0  0  0  0  0  0  0  0  0  0
   58.9530   33.6810   47.8460 C   0  0  0  0  0  0  0  0  0  0  0  0
   57.8949   33.3859   47.7875 H   0  0  0  0  0  0  0  0  0  0  0  0
   59.0724   34.7608   48.0185 H   0  0  0  0  0  0  0  0  0  0  0  0
   58.0490   31.4470   45.8220 C   0  0  0  0  0  0  0  0  0  0  0  0
   58.1730   31.0164   46.8266 H   0  0  0  0  0  0  0  0  0  0  0  0
  1  2  1  0
  2  3  1  0
  3  4  2  0
  3  5  1  0
  5  6  2  0
  6  7  1  0
  6  8  1  0
  8  9  1  0
  8 10  2  0
 10 11  1  0
 10 12  1  0
 12 13  1  0
 13 14  1  0
 13 15  1  0
 15 16  1  0
 15 17  1  0
 15 18  1  0
 18 19  1  0
 18 20  1  0
 18 21  1  0
 21 22  1  0
 22 23  2  0
 22 24  1  0
 24 25  1  0
 25 26  1  0
 25 27  2  0
 27 28  1  0
 27 29  1  0
 29 30  1  0
 30 31  2  0
 31 32  1  0
 32 33  1  0
 32 34  1  0
 34 35  1  0
 34 36  1  0
 34 37  1  0
 37 38  2  0
 38 39  1  0
 38 40  1  0
 40 41  1  0
 40 42  2  0
 42 43  1  0
 42 44  1  0
 44 45  1  0
 44 46  2  0
 46 47  1  0
 47 48  1  0
 47 49  1  0
 30 50  1  0
 50 51  1  0
 21 52  1  0
 52 53  1  0
 52 54  1  0
 52 55  1  0
 55 56  1  0
 55 57  1  0
 12 58  2  0
 58 59  1  0
 58  5  1  0
 55 13  1  0
 50 24  2  0
 47 32  1  0
 46 37  1  0
M  CHG  2   2  -1  29  -1
M  END
>  <UniqueID>  (80) 
77

>  <SMILES>  (80) 
[NH-]C(=O)c1cccc(C2CCN(C(=O)c3cc[n-]/c(=N/C4Cc5ccccc5C4)c3)CC2)c1

>  <Energy>  (80) 
83.38775661243928

>  <Genealogy>  (80) 
[NH-]C(=O)c1cccc(C2CCN(C(=O)c3cc[n-]c(=NC4Cc5ccccc5C4)c3)CC2)c1 (protonated)
[NH-]C(=O)c1cccc(C2CCN(C(=O)c3cc[n-]/c(=N/C4Cc5ccccc5C4)c3)CC2)c1 (cis-trans isomerization)
[NH-]C(=O)c1cccc(C2CCN(C(=O)c3cc[n-]/c(=N/C4Cc5ccccc5C4)c3)CC2)c1 (3D coordinates assigned)
[NH-]C(=O)c1cccc(C2CCN(C(=O)c3cc[n-]/c(=N/C4Cc5ccccc5C4)c3)CC2)c1 (nonaromatic ring conformer: 83.38775661243928 kcal/mol)

>  <smiles>  (80) 
NC(=O)c1cccc(C2CCN(C(=O)c3cc[nH]c(=NC4Cc5ccccc5C4)c3)CC2)c1

>  <score_type>  (80) 
oracle

>  <origin>  (80) 
adg

>  <m_score__min__energy>  (80) 
-13.75

>  <m_primary>  (80) 
energy

$$$$
80:0
     RDKit          3D

 55 57  0  0  0  0  0  0  0  0999 V2000
   58.7380   22.4240   45.1980 C   0  0  0  0  0  0  0  0  0  0  0  0
   57.4450   22.2800   44.4040 C   0  0  0  0  0  0  0  0  0  0  0  0
   56.7650   23.6000   44.3170 N   0  0  0  0  0  0  0  0  0  0  0  0
   55.4540   23.5060   43.6390 C   0  0  0  0  0  0  0  0  0  0  0  0
   54.3130   23.7420   44.6300 C   0  0  0  0  0  0  0  0  0  0  0  0
   56.6250   24.2340   45.6470 C   0  0  0  0  0  0  0  0  0  0  0  0
   57.1140   25.6630   45.6060 C   0  0  0  0  0  0  0  0  0  0  0  0
   58.4800   25.9130   45.3930 C   0  0  0  0  0  0  0  0  0  0  0  0
   58.9700   27.2210   45.3940 C   0  0  0  0  0  0  0  0  0  0  0  0
   58.0980   28.3060   45.5750 C   0  0  0  0  0  0  0  0  0  0  0  0
   58.5750   29.6640   45.5790 N   0  0  0  0  0  0  0  0  0  0  0  0
   57.8120   30.9460   44.6900 S   0  0  0  0  0  0  0  0  0  0  0  0
   58.1370   30.7940   43.2310 O   0  0  0  0  0  0  0  0  0  0  0  0
   56.3220   30.8440   44.8700 O   0  0  0  0  0  0  0  0  0  0  0  0
   58.3940   32.5130   45.2440 C   0  0  0  0  0  0  0  0  0  0  0  0
   58.1880   33.6570   44.4630 C   0  0  0  0  0  0  0  0  0  0  0  0
   58.6520   34.8990   44.9020 C   0  0  0  0  0  0  0  0  0  0  0  0
   59.3390   35.0010   46.1170 C   0  0  0  0  0  0  0  0  0  0  0  0
   59.5760   33.8540   46.8940 C   0  0  0  0  0  0  0  0  0  0  0  0
   60.2540   33.9170   48.1190 O   0  0  0  0  0  0  0  0  0  0  0  0
   61.6160   33.6360   48.3130 C   0  0  0  0  0  0  0  0  0  0  0  0
   62.4080   33.3540   47.1950 C   0  0  0  0  0  0  0  0  0  0  0  0
   63.7740   33.0970   47.3430 C   0  0  0  0  0  0  0  0  0  0  0  0
   64.3580   33.1230   48.6120 C   0  0  0  0  0  0  0  0  0  0  0  0
   63.5790   33.4230   49.7330 C   0  0  0  0  0  0  0  0  0  0  0  0
   62.2130   33.6860   49.5880 C   0  0  0  0  0  0  0  0  0  0  0  0
   59.0840   32.6170   46.4590 C   0  0  0  0  0  0  0  0  0  0  0  0
   56.7290   28.0590   45.7570 C   0  0  0  0  0  0  0  0  0  0  0  0
   56.2360   26.7500   45.7770 C   0  0  0  0  0  0  0  0  0  0  0  0
   54.8750   26.5430   45.9670 O   0  0  0  0  0  0  0  0  0  0  0  0
   58.5121   22.3988   46.2743 H   0  0  0  0  0  0  0  0  0  0  0  0
   59.4169   21.5959   44.9464 H   0  0  0  0  0  0  0  0  0  0  0  0
   59.2181   23.3812   44.9464 H   0  0  0  0  0  0  0  0  0  0  0  0
   57.6755   21.9192   43.3908 H   0  0  0  0  0  0  0  0  0  0  0  0
   56.7838   21.5603   44.9088 H   0  0  0  0  0  0  0  0  0  0  0  0
   55.4039   24.2643   42.8438 H   0  0  0  0  0  0  0  0  0  0  0  0
   55.3485   22.4974   43.2128 H   0  0  0  0  0  0  0  0  0  0  0  0
   54.6975   23.6625   45.6575 H   0  0  0  0  0  0  0  0  0  0  0  0
   53.8924   24.7462   44.4726 H   0  0  0  0  0  0  0  0  0  0  0  0
   53.5286   22.9871   44.4726 H   0  0  0  0  0  0  0  0  0  0  0  0
   55.5659   24.2222   45.9440 H   0  0  0  0  0  0  0  0  0  0  0  0
   57.2291   23.6720   46.3745 H   0  0  0  0  0  0  0  0  0  0  0  0
   59.1689   25.0722   45.2242 H   0  0  0  0  0  0  0  0  0  0  0  0
   60.0457   27.4019   45.2521 H   0  0  0  0  0  0  0  0  0  0  0  0
   59.4940   29.8780   46.0260 H   0  0  0  0  0  0  0  0  0  0  0  0
   57.6595   33.5772   43.5016 H   0  0  0  0  0  0  0  0  0  0  0  0
   58.4773   35.7977   44.2923 H   0  0  0  0  0  0  0  0  0  0  0  0
   59.6947   35.9820   46.4650 H   0  0  0  0  0  0  0  0  0  0  0  0
   61.9532   33.3344   46.1936 H   0  0  0  0  0  0  0  0  0  0  0  0
   64.3899   32.8740   46.4593 H   0  0  0  0  0  0  0  0  0  0  0  0
   65.4303   32.9075   48.7288 H   0  0  0  0  0  0  0  0  0  0  0  0
   64.0410   33.4523   50.7309 H   0  0  0  0  0  0  0  0  0  0  0  0
   61.6042   33.9321   50.4705 H   0  0  0  0  0  0  0  0  0  0  0  0
   59.2405   31.7200   47.0761 H   0  0  0  0  0  0  0  0  0  0  0  0
   56.0360   28.9035   45.8853 H   0  0  0  0  0  0  0  0  0  0  0  0
  1  2  1  0
  2  3  1  0
  3  4  1  0
  4  5  1  0
  3  6  1  0
  6  7  1  0
  7  8  2  0
  8  9  1  0
  9 10  2  0
 10 11  1  0
 11 12  1  0
 12 13  2  0
 12 14  2  0
 12 15  1  0
 15 16  2  0
 16 17  1  0
 17 18  2  0
 18 19  1  0
 19 20  1  0
 20 21  1  0
 21 22  2  0
 22 23  1  0
 23 24  2  0
 24 25  1  0
 25 26  2  0
 19 27  2  0
 10 28  1  0
 28 29  2  0
 29 30  1  0
 29  7  1  0
 27 15  1  0
 26 21  1  0
  1 31  1  0
  1 32  1  0
  1 33  1  0
  2 34  1  0
  2 35  1  0
  4 36  1  0
  4 37  1  0
  5 38  1  0
  5 39  1  0
  5 40  1  0
  6 41  1  0
  6 42  1  0
  8 43  1  0
  9 44  1  0
 11 45  1  0
 16 46  1  0
 17 47  1  0
 18 48  1  0
 22 49  1  0
 23 50  1  0
 24 51  1  0
 25 52  1  0
 26 53  1  0
 27 54  1  0
 28 55  1  0
M  CHG  1  30  -1
M  END
>  <UniqueID>  (81) 
78

>  <SMILES>  (81) 
CCN(CC)Cc1ccc(NS(=O)(=O)c2cccc(Oc3ccccc3)c2)cc1[O-]

>  <Energy>  (81) 
66.41017133830408

>  <Genealogy>  (81) 
CCN(CC)Cc1ccc(NS(=O)(=O)c2cccc(Oc3ccccc3)c2)cc1[O-] (protonated)
CCN(CC)Cc1ccc(NS(=O)(=O)c2cccc(Oc3ccccc3)c2)cc1[O-] (3D coordinates assigned)
CCN(CC)Cc1ccc(NS(=O)(=O)c2cccc(Oc3ccccc3)c2)cc1[O-] (optimized conformer: 66.41017133830408 kcal/mol)

>  <smiles>  (81) 
CCN(CC)Cc1ccc(NS(=O)(=O)c2cccc(Oc3ccccc3)c2)cc1O

>  <score_type>  (81) 
oracle

>  <origin>  (81) 
adg

>  <m_score__min__energy>  (81) 
-13.44

>  <m_primary>  (81) 
energy

$$$$
81:0
     RDKit          3D

 58 62  0  0  0  0  0  0  0  0999 V2000
   57.7330   32.9720   47.7170 O   0  0  0  0  0  0  0  0  0  0  0  0
   58.5950   33.0970   46.8030 C   0  0  0  0  0  0  0  0  0  0  0  0
   58.2670   32.5920   45.4870 C   0  0  0  0  0  0  0  0  0  0  0  0
   58.4630   33.4510   44.4040 C   0  0  0  0  0  0  0  0  0  0  0  0
   58.1660   33.0280   43.1420 C   0  0  0  0  0  0  0  0  0  0  0  0
   57.6710   31.7540   42.9380 C   0  0  0  0  0  0  0  0  0  0  0  0
   57.4630   30.8790   43.9600 C   0  0  0  0  0  0  0  0  0  0  0  0
   56.9470   29.5090   43.8450 C   0  0  0  0  0  0  0  0  0  0  0  0
   57.7580   28.5770   44.6450 C   0  0  0  0  0  0  0  0  0  0  0  0
   59.1400   28.7250   44.6420 C   0  0  0  0  0  0  0  0  0  0  0  0
   59.9600   27.8580   45.3750 C   0  0  0  0  0  0  0  0  0  0  0  0
   59.3870   26.8270   46.1220 C   0  0  0  0  0  0  0  0  0  0  0  0
   60.1220   26.0380   46.7880 O   0  0  0  0  0  0  0  0  0  0  0  0
   58.0570   26.7040   46.1100 N   0  0  0  0  0  0  0  0  0  0  0  0
   57.2820   25.7910   46.7570 C   0  0  0  0  0  0  0  0  0  0  0  0
   57.6500   24.8520   47.5100 O   0  0  0  0  0  0  0  0  0  0  0  0
   56.0130   26.0870   46.4320 N   0  0  0  0  0  0  0  0  0  0  0  0
   56.0070   27.1280   45.6270 N   0  0  0  0  0  0  0  0  0  0  0  0
   57.2570   27.5440   45.3990 C   0  0  0  0  0  0  0  0  0  0  0  0
   57.7730   31.3300   45.2450 C   0  0  0  0  0  0  0  0  0  0  0  0
   59.8150   33.7210   47.1530 N   0  0  0  0  0  0  0  0  0  0  0  0
   59.9830   34.1660   48.5150 C   0  0  0  0  0  0  0  0  0  0  0  0
   61.3810   34.2190   48.9890 C   0  0  0  0  0  0  0  0  0  0  0  0
   62.3630   33.6080   48.1990 N   0  0  0  0  0  0  0  0  0  0  0  0
   63.7170   33.8580   48.5900 C   0  0  0  0  0  0  0  0  0  0  0  0
   64.1090   32.7480   49.5220 C   0  0  0  0  0  0  0  0  0  0  0  0
   65.4350   32.7190   49.9370 C   0  0  0  0  0  0  0  0  0  0  0  0
   65.8330   31.7140   50.7930 C   0  0  0  0  0  0  0  0  0  0  0  0
   64.9360   30.7470   51.2380 C   0  0  0  0  0  0  0  0  0  0  0  0
   63.6280   30.8070   50.8060 C   0  0  0  0  0  0  0  0  0  0  0  0
   63.1880   31.7990   49.9460 C   0  0  0  0  0  0  0  0  0  0  0  0
   62.1280   33.3380   46.8400 C   0  0  0  0  0  0  0  0  0  0  0  0
   60.9080   33.9450   46.2350 C   0  0  0  0  0  0  0  0  0  0  0  0
   58.8556   34.4654   44.5681 H   0  0  0  0  0  0  0  0  0  0  0  0
   58.3205   33.7013   42.2860 H   0  0  0  0  0  0  0  0  0  0  0  0
   57.4363   31.4351   41.9117 H   0  0  0  0  0  0  0  0  0  0  0  0
   55.9079   29.4835   44.2049 H   0  0  0  0  0  0  0  0  0  0  0  0
   56.9940   29.2016   42.7899 H   0  0  0  0  0  0  0  0  0  0  0  0
   59.5966   29.5355   44.0549 H   0  0  0  0  0  0  0  0  0  0  0  0
   61.0521   27.9889   45.3622 H   0  0  0  0  0  0  0  0  0  0  0  0
   55.1840   25.5580   46.7770 H   0  0  0  0  0  0  0  0  0  0  0  0
   55.1420   27.5500   45.2400 H   0  0  0  0  0  0  0  0  0  0  0  0
   57.6165   30.6510   46.0961 H   0  0  0  0  0  0  0  0  0  0  0  0
   59.5564   35.1765   48.5984 H   0  0  0  0  0  0  0  0  0  0  0  0
   59.4738   33.4221   49.1453 H   0  0  0  0  0  0  0  0  0  0  0  0
   61.6535   35.2801   49.0884 H   0  0  0  0  0  0  0  0  0  0  0  0
   61.3782   33.6395   49.9240 H   0  0  0  0  0  0  0  0  0  0  0  0
   64.3724   33.8605   47.7066 H   0  0  0  0  0  0  0  0  0  0  0  0
   63.8128   34.8383   49.0798 H   0  0  0  0  0  0  0  0  0  0  0  0
   66.1501   33.4798   49.5908 H   0  0  0  0  0  0  0  0  0  0  0  0
   66.8792   31.6756   51.1307 H   0  0  0  0  0  0  0  0  0  0  0  0
   65.2645   29.9501   51.9214 H   0  0  0  0  0  0  0  0  0  0  0  0
   62.9143   30.0458   51.1542 H   0  0  0  0  0  0  0  0  0  0  0  0
   62.1415   31.8343   49.6091 H   0  0  0  0  0  0  0  0  0  0  0  0
   62.9972   33.7028   46.2731 H   0  0  0  0  0  0  0  0  0  0  0  0
   61.9656   32.2514   46.7864 H   0  0  0  0  0  0  0  0  0  0  0  0
   61.0591   35.0244   46.0861 H   0  0  0  0  0  0  0  0  0  0  0  0
   60.6928   33.4920   45.2560 H   0  0  0  0  0  0  0  0  0  0  0  0
  1  2  2  0
  2  3  1  0
  3  4  2  0
  4  5  1  0
  5  6  2  0
  6  7  1  0
  7  8  1  0
  8  9  1  0
  9 10  1  0
 10 11  2  0
 11 12  1  0
 12 13  2  0
 12 14  1  0
 14 15  1  0
 15 16  2  0
 15 17  1  0
 17 18  1  0
 18 19  1  0
  7 20  2  0
  2 21  1  0
 21 22  1  0
 22 23  1  0
 23 24  1  0
 24 25  1  0
 25 26  1  0
 26 27  2  0
 27 28  1  0
 28 29  2  0
 29 30  1  0
 30 31  2  0
 24 32  1  0
 32 33  1  0
 20  3  1  0
 33 21  1  0
 19  9  2  0
 31 26  1  0
 19 14  1  0
  4 34  1  0
  5 35  1  0
  6 36  1  0
  8 37  1  0
  8 38  1  0
 10 39  1  0
 11 40  1  0
 17 41  1  0
 18 42  1  0
 20 43  1  0
 22 44  1  0
 22 45  1  0
 23 46  1  0
 23 47  1  0
 25 48  1  0
 25 49  1  0
 27 50  1  0
 28 51  1  0
 29 52  1  0
 30 53  1  0
 31 54  1  0
 32 55  1  0
 32 56  1  0
 33 57  1  0
 33 58  1  0
M  END
>  <smiles>  (82) 
O=C(c1cccc(Cc2ccc(=O)n3c(=O)[nH][nH]c23)c1)N1CCN(Cc2ccccc2)CC1

>  <score_type>  (82) 
oracle

>  <origin>  (82) 
adg

>  <m_score__min__energy>  (82) 
-10.890000000000001

>  <m_primary>  (82) 
energy

$$$$
82:0
     RDKit          3D

 45 47  0  0  0  0  0  0  0  0999 V2000
   59.3120   29.6150   47.6420 C   0  0  0  0  0  0  0  0  0  0  0  0
   58.1580   29.0990   46.9200 N   0  0  0  0  0  0  0  0  0  0  0  0
   58.1310   28.9810   45.4960 C   0  0  0  0  0  0  0  0  0  0  0  0
   59.2030   29.0600   44.8330 O   0  0  0  0  0  0  0  0  0  0  0  0
   56.8240   28.7030   44.8000 C   0  0  2  0  0  0  0  0  0  0  0  0
   56.0800   30.0150   44.4820 C   0  0  0  0  0  0  0  0  0  0  0  0
   57.0150   31.1180   44.0610 C   0  0  0  0  0  0  0  0  0  0  0  0
   57.3910   31.4240   42.7550 C   0  0  0  0  0  0  0  0  0  0  0  0
   58.1410   32.5480   42.7280 N   0  0  0  0  0  0  0  0  0  0  0  0
   58.2330   32.9620   44.0040 C   0  0  0  0  0  0  0  0  0  0  0  0
   58.8850   34.1000   44.4750 C   0  0  0  0  0  0  0  0  0  0  0  0
   58.8340   34.3590   45.8570 C   0  0  0  0  0  0  0  0  0  0  0  0
   58.1390   33.4890   46.7250 C   0  0  0  0  0  0  0  0  0  0  0  0
   57.4920   32.3480   46.2200 C   0  0  0  0  0  0  0  0  0  0  0  0
   57.5590   32.1150   44.8470 C   0  0  0  0  0  0  0  0  0  0  0  0
   55.9750   27.8400   45.6180 N   0  0  0  0  0  0  0  0  0  0  0  0
   56.1460   26.4260   45.7390 C   0  0  0  0  0  0  0  0  0  0  0  0
   55.2270   25.7070   46.2180 O   0  0  0  0  0  0  0  0  0  0  0  0
   57.3980   25.7970   45.2180 C   0  0  0  0  0  0  0  0  0  0  0  0
   57.0850   24.4130   44.7160 C   0  0  0  0  0  0  0  0  0  0  0  0
   56.2260   24.2360   43.6200 C   0  0  0  0  0  0  0  0  0  0  0  0
   55.9970   22.9560   43.1010 C   0  0  0  0  0  0  0  0  0  0  0  0
   56.6330   21.8450   43.6630 C   0  0  0  0  0  0  0  0  0  0  0  0
   56.3970   20.5770   43.1350 O   0  0  0  0  0  0  0  0  0  0  0  0
   57.5000   22.0170   44.7500 C   0  0  0  0  0  0  0  0  0  0  0  0
   57.7280   23.2940   45.2720 C   0  0  0  0  0  0  0  0  0  0  0  0
   59.1331   29.5350   48.7244 H   0  0  0  0  0  0  0  0  0  0  0  0
   60.2041   29.0300   47.3736 H   0  0  0  0  0  0  0  0  0  0  0  0
   59.4708   30.6699   47.3736 H   0  0  0  0  0  0  0  0  0  0  0  0
   57.0514   28.1875   43.8553 H   0  0  0  0  0  0  0  0  0  0  0  0
   55.3656   29.8273   43.6669 H   0  0  0  0  0  0  0  0  0  0  0  0
   55.5684   30.3411   45.3995 H   0  0  0  0  0  0  0  0  0  0  0  0
   57.1158   30.8330   41.8690 H   0  0  0  0  0  0  0  0  0  0  0  0
   58.5430   33.0120   41.8840 H   0  0  0  0  0  0  0  0  0  0  0  0
   59.4213   34.7729   43.7897 H   0  0  0  0  0  0  0  0  0  0  0  0
   59.3398   35.2467   46.2646 H   0  0  0  0  0  0  0  0  0  0  0  0
   58.1037   33.7054   47.8029 H   0  0  0  0  0  0  0  0  0  0  0  0
   56.9502   31.6609   46.8866 H   0  0  0  0  0  0  0  0  0  0  0  0
   57.7998   26.4050   44.3941 H   0  0  0  0  0  0  0  0  0  0  0  0
   58.1446   25.7377   46.0237 H   0  0  0  0  0  0  0  0  0  0  0  0
   55.7304   25.1072   43.1667 H   0  0  0  0  0  0  0  0  0  0  0  0
   55.3146   22.8240   42.2484 H   0  0  0  0  0  0  0  0  0  0  0  0
   56.9340   19.7740   43.4370 H   0  0  0  0  0  0  0  0  0  0  0  0
   58.0027   21.1451   45.1940 H   0  0  0  0  0  0  0  0  0  0  0  0
   58.4141   23.4233   46.1221 H   0  0  0  0  0  0  0  0  0  0  0  0
  1  2  1  0
  2  3  1  0
  3  4  2  0
  3  5  1  0
  5  6  1  0
  6  7  1  0
  7  8  2  0
  8  9  1  0
  9 10  1  0
 10 11  2  0
 11 12  1  0
 12 13  2  0
 13 14  1  0
 14 15  2  0
  5 16  1  0
 16 17  1  0
 17 18  2  0
 17 19  1  0
 19 20  1  0
 20 21  2  0
 21 22  1  0
 22 23  2  0
 23 24  1  0
 23 25  1  0
 25 26  2  0
 15  7  1  0
 26 20  1  0
 15 10  1  0
  1 27  1  0
  1 28  1  0
  1 29  1  0
  5 30  1  6
  6 31  1  0
  6 32  1  0
  8 33  1  0
  9 34  1  0
 11 35  1  0
 12 36  1  0
 13 37  1  0
 14 38  1  0
 19 39  1  0
 19 40  1  0
 21 41  1  0
 22 42  1  0
 24 43  1  0
 25 44  1  0
 26 45  1  0
M  CHG  2   2  -1  16  -1
M  END
>  <UniqueID>  (83) 
79

>  <SMILES>  (83) 
C[N-]C(=O)[C@H](Cc1c[nH]c2ccccc12)[N-]C(=O)Cc1ccc(O)cc1

>  <Energy>  (83) 
67.52652168875727

>  <Genealogy>  (83) 
C[N-]C(=O)C(Cc1c[nH]c2ccccc12)[N-]C(=O)Cc1ccc(O)cc1 (protonated)
C[N-]C(=O)[C@H](Cc1c[nH]c2ccccc12)[N-]C(=O)Cc1ccc(O)cc1 (chirality)
C[N-]C(=O)[C@H](Cc1c[nH]c2ccccc12)[N-]C(=O)Cc1ccc(O)cc1 (3D coordinates assigned)
C[N-]C(=O)[C@H](Cc1c[nH]c2ccccc12)[N-]C(=O)Cc1ccc(O)cc1 (optimized conformer: 67.52652168875727 kcal/mol)

>  <smiles>  (83) 
CNC(=O)C(Cc1c[nH]c2ccccc12)NC(=O)Cc1ccc(O)cc1

>  <score_type>  (83) 
oracle

>  <origin>  (83) 
adg

>  <m_score__min__energy>  (83) 
-12.039999999999999

>  <m_primary>  (83) 
energy

$$$$
83:0
     RDKit          3D

 62 66  0  0  0  0  0  0  0  0999 V2000
   52.4390   28.6090   52.7780 C   0  0  0  0  0  0  0  0  0  0  0  0
   53.3270   29.6030   52.0880 C   0  0  0  0  0  0  0  0  0  0  0  0
   52.8770   30.2200   51.0830 O   0  0  0  0  0  0  0  0  0  0  0  0
   54.6750   29.8460   52.5440 N   0  0  0  0  0  0  0  0  0  0  0  0
   55.3570   28.8900   53.4290 C   0  0  0  0  0  0  0  0  0  0  0  0
   56.8710   29.1480   53.4410 C   0  0  0  0  0  0  0  0  0  0  0  0
   57.1750   30.5530   53.8160 N   0  0  0  0  0  0  0  0  0  0  0  0
   58.5690   30.8760   53.5650 C   0  0  0  0  0  0  0  0  0  0  0  0
   59.4870   30.2920   54.2080 O   0  0  0  0  0  0  0  0  0  0  0  0
   58.9470   31.7250   52.4130 C   0  0  0  0  0  0  0  0  0  0  0  0
   59.5690   32.9710   52.5980 C   0  0  0  0  0  0  0  0  0  0  0  0
   59.8150   33.8060   51.5020 C   0  0  0  0  0  0  0  0  0  0  0  0
   59.4180   33.4130   50.2130 C   0  0  0  0  0  0  0  0  0  0  0  0
   59.6140   34.3350   49.0430 C   0  0  0  0  0  0  0  0  0  0  0  0
   59.7250   33.5680   47.7930 N   0  0  0  0  0  0  0  0  0  0  0  0
   58.5410   33.3930   46.9620 C   0  0  0  0  0  0  0  0  0  0  0  0
   57.5420   34.1420   47.1450 O   0  0  0  0  0  0  0  0  0  0  0  0
   58.4650   32.3940   45.8670 C   0  0  0  0  0  0  0  0  0  0  0  0
   57.7660   32.7220   44.6900 C   0  0  0  0  0  0  0  0  0  0  0  0
   57.6660   31.8020   43.6430 C   0  0  0  0  0  0  0  0  0  0  0  0
   58.2550   30.5430   43.7610 C   0  0  0  0  0  0  0  0  0  0  0  0
   58.9160   30.1850   44.9360 C   0  0  0  0  0  0  0  0  0  0  0  0
   59.0110   31.0960   46.0040 C   0  0  0  0  0  0  0  0  0  0  0  0
   59.7430   30.6980   47.2560 C   0  0  0  0  0  0  0  0  0  0  0  0
   61.0140   31.4890   47.3200 C   0  0  0  0  0  0  0  0  0  0  0  0
   62.2460   30.8470   47.1170 C   0  0  0  0  0  0  0  0  0  0  0  0
   63.4300   31.5830   47.1160 C   0  0  0  0  0  0  0  0  0  0  0  0
   63.3950   32.9640   47.3120 C   0  0  0  0  0  0  0  0  0  0  0  0
   62.1760   33.6130   47.5000 C   0  0  0  0  0  0  0  0  0  0  0  0
   60.9720   32.8880   47.5140 C   0  0  0  0  0  0  0  0  0  0  0  0
   58.8440   32.1480   50.0180 C   0  0  0  0  0  0  0  0  0  0  0  0
   58.6240   31.3060   51.1100 C   0  0  0  0  0  0  0  0  0  0  0  0
   56.2970   31.5710   53.1610 C   0  0  0  0  0  0  0  0  0  0  0  0
   55.4280   30.9960   52.0350 C   0  0  0  0  0  0  0  0  0  0  0  0
   52.5397   28.7217   53.8676 H   0  0  0  0  0  0  0  0  0  0  0  0
   51.3934   28.7868   52.4861 H   0  0  0  0  0  0  0  0  0  0  0  0
   52.7330   27.5900   52.4861 H   0  0  0  0  0  0  0  0  0  0  0  0
   54.9637   28.9993   54.4505 H   0  0  0  0  0  0  0  0  0  0  0  0
   55.1743   27.8709   53.0574 H   0  0  0  0  0  0  0  0  0  0  0  0
   57.3441   28.4723   54.1687 H   0  0  0  0  0  0  0  0  0  0  0  0
   57.2628   28.9655   52.4295 H   0  0  0  0  0  0  0  0  0  0  0  0
   57.0040   30.6170   54.8500 H   0  0  0  0  0  0  0  0  0  0  0  0
   59.8638   33.2916   53.6081 H   0  0  0  0  0  0  0  0  0  0  0  0
   60.3202   34.7718   51.6502 H   0  0  0  0  0  0  0  0  0  0  0  0
   58.7546   35.0181   48.9730 H   0  0  0  0  0  0  0  0  0  0  0  0
   60.5423   34.9058   49.1927 H   0  0  0  0  0  0  0  0  0  0  0  0
   57.2944   33.7111   44.5936 H   0  0  0  0  0  0  0  0  0  0  0  0
   57.1225   32.0707   42.7252 H   0  0  0  0  0  0  0  0  0  0  0  0
   58.1980   29.8304   42.9250 H   0  0  0  0  0  0  0  0  0  0  0  0
   59.3653   29.1852   45.0281 H   0  0  0  0  0  0  0  0  0  0  0  0
   59.1221   30.9171   48.1372 H   0  0  0  0  0  0  0  0  0  0  0  0
   59.9635   29.6204   47.2437 H   0  0  0  0  0  0  0  0  0  0  0  0
   62.2772   29.7590   46.9581 H   0  0  0  0  0  0  0  0  0  0  0  0
   64.3929   31.0744   46.9605 H   0  0  0  0  0  0  0  0  0  0  0  0
   64.3312   33.5416   47.3182 H   0  0  0  0  0  0  0  0  0  0  0  0
   62.1560   34.7040   47.6389 H   0  0  0  0  0  0  0  0  0  0  0  0
   58.5673   31.8195   49.0053 H   0  0  0  0  0  0  0  0  0  0  0  0
   58.1943   30.3062   50.9496 H   0  0  0  0  0  0  0  0  0  0  0  0
   55.6349   32.0033   53.9256 H   0  0  0  0  0  0  0  0  0  0  0  0
   56.9578   32.3242   52.7072 H   0  0  0  0  0  0  0  0  0  0  0  0
   54.7273   31.7667   51.6814 H   0  0  0  0  0  0  0  0  0  0  0  0
   56.0697   30.6765   51.2006 H   0  0  0  0  0  0  0  0  0  0  0  0
  1  2  1  0
  2  3  2  0
  2  4  1  0
  4  5  1  0
  5  6  1  0
  6  7  1  0
  7  8  1  0
  8  9  2  0
  8 10  1  0
 10 11  2  0
 11 12  1  0
 12 13  2  0
 13 14  1  0
 14 15  1  0
 15 16  1  0
 16 17  2  0
 16 18  1  0
 18 19  2  0
 19 20  1  0
 20 21  2  0
 21 22  1  0
 22 23  2  0
 23 24  1  0
 24 25  1  0
 25 26  2  0
 26 27  1  0
 27 28  2  0
 28 29  1  0
 29 30  2  0
 13 31  1  0
 31 32  2  0
  7 33  1  0
 33 34  1  0
 34  4  1  0
 32 10  1  0
 30 15  1  0
 23 18  1  0
 30 25  1  0
  1 35  1  0
  1 36  1  0
  1 37  1  0
  5 38  1  0
  5 39  1  0
  6 40  1  0
  6 41  1  0
  7 42  1  0
 11 43  1  0
 12 44  1  0
 14 45  1  0
 14 46  1  0
 19 47  1  0
 20 48  1  0
 21 49  1  0
 22 50  1  0
 24 51  1  0
 24 52  1  0
 26 53  1  0
 27 54  1  0
 28 55  1  0
 29 56  1  0
 31 57  1  0
 32 58  1  0
 33 59  1  0
 33 60  1  0
 34 61  1  0
 34 62  1  0
M  CHG  1   7   1
M  END
>  <UniqueID>  (84) 
80

>  <SMILES>  (84) 
CC(=O)N1CC[NH+](C(=O)c2ccc(CN3C(=O)c4ccccc4Cc4ccccc43)cc2)CC1

>  <Energy>  (84) 
94.44051736332835

>  <Genealogy>  (84) 
CC(=O)N1CC[NH+](C(=O)c2ccc(CN3C(=O)c4ccccc4Cc4ccccc43)cc2)CC1 (protonated)
CC(=O)N1CC[NH+](C(=O)c2ccc(CN3C(=O)c4ccccc4Cc4ccccc43)cc2)CC1 (3D coordinates assigned)
CC(=O)N1CC[NH+](C(=O)c2ccc(CN3C(=O)c4ccccc4Cc4ccccc43)cc2)CC1 (nonaromatic ring conformer: 94.44051736332835 kcal/mol)

>  <smiles>  (84) 
CC(=O)N1CCN(C(=O)c2ccc(CN3C(=O)c4ccccc4Cc4ccccc43)cc2)CC1

>  <score_type>  (84) 
oracle

>  <origin>  (84) 
adg

>  <m_score__min__energy>  (84) 
-7.7400000000000002

>  <m_primary>  (84) 
energy

$$$$
84:0
     RDKit          3D

 38 40  0  0  0  0  0  0  0  0999 V2000
   58.9304   33.4880   46.2609 H   0  0  0  0  0  0  0  0  0  0  0  0
   59.0220   33.3930   47.3530 C   0  0  0  0  0  0  0  0  0  0  0  0
   58.4400   32.3460   47.9950 N   0  0  0  0  0  0  0  0  0  0  0  0
   58.5340   32.1920   49.3430 C   0  0  0  0  0  0  0  0  0  0  0  0
   58.0476   31.3349   49.8317 H   0  0  0  0  0  0  0  0  0  0  0  0
   59.2490   33.1220   50.1130 C   0  0  0  0  0  0  0  0  0  0  0  0
   59.2800   33.0120   51.6130 C   0  0  0  0  0  0  0  0  0  0  0  0
   59.1050   34.0027   52.0578 H   0  0  0  0  0  0  0  0  0  0  0  0
   60.2625   32.6364   51.9347 H   0  0  0  0  0  0  0  0  0  0  0  0
   58.2120   32.0680   52.0610 C   0  0  0  0  0  0  0  0  0  0  0  0
   58.3640   30.3900   52.1110 S   0  0  0  0  0  0  0  0  0  0  0  0
   56.7180   30.1660   52.3510 C   0  0  0  0  0  0  0  0  0  0  0  0
   56.1510   28.9980   52.3900 N   0  0  0  0  0  0  0  0  0  0  0  0
   54.8300   28.7460   52.8940 C   0  0  0  0  0  0  0  0  0  0  0  0
   54.4600   27.5570   53.0690 O   0  0  0  0  0  0  0  0  0  0  0  0
   53.9100   29.8130   53.1770 N   0  0  0  0  0  0  0  0  0  0  0  0
   53.0680   30.4700   52.2170 C   0  0  0  0  0  0  0  0  0  0  0  0
   52.9970   29.9620   50.9150 C   0  0  0  0  0  0  0  0  0  0  0  0
   53.6354   29.1151   50.6232 H   0  0  0  0  0  0  0  0  0  0  0  0
   52.1200   30.5240   49.9830 C   0  0  0  0  0  0  0  0  0  0  0  0
   52.0646   30.1103   48.9653 H   0  0  0  0  0  0  0  0  0  0  0  0
   51.3070   31.6170   50.3400 C   0  0  0  0  0  0  0  0  0  0  0  0
   50.3920   32.1960   49.4470 O   0  0  0  0  0  0  0  0  0  0  0  0
   50.6160   32.3420   48.0480 C   0  0  0  0  0  0  0  0  0  0  0  0
   51.5271   32.9358   47.8825 H   0  0  0  0  0  0  0  0  0  0  0  0
   50.7374   31.3490   47.5905 H   0  0  0  0  0  0  0  0  0  0  0  0
   49.7566   32.8539   47.5905 H   0  0  0  0  0  0  0  0  0  0  0  0
   51.4110   32.1510   51.6320 C   0  0  0  0  0  0  0  0  0  0  0  0
   50.6270   33.2400   51.9990 O   0  0  0  0  0  0  0  0  0  0  0  0
   52.2950   31.5920   52.5600 C   0  0  0  0  0  0  0  0  0  0  0  0
   52.3857   32.0329   53.5637 H   0  0  0  0  0  0  0  0  0  0  0  0
   56.0440   31.3380   52.4060 N   0  0  0  0  0  0  0  0  0  0  0  0
   56.8730   32.3990   52.2410 C   0  0  0  0  0  0  0  0  0  0  0  0
   56.5147   33.4390   52.2489 H   0  0  0  0  0  0  0  0  0  0  0  0
   59.8440   34.2150   49.4640 C   0  0  0  0  0  0  0  0  0  0  0  0
   60.3956   34.9670   50.0472 H   0  0  0  0  0  0  0  0  0  0  0  0
   59.7360   34.3480   48.0790 C   0  0  0  0  0  0  0  0  0  0  0  0
   60.2090   35.1973   47.5642 H   0  0  0  0  0  0  0  0  0  0  0  0
  1  2  1  0
  2  3  2  0
  3  4  1  0
  4  5  1  0
  4  6  2  0
  6  7  1  0
  7  8  1  0
  7  9  1  0
  7 10  1  0
 10 11  1  0
 11 12  1  0
 12 13  2  0
 13 14  1  0
 14 15  2  0
 14 16  1  0
 16 17  1  0
 17 18  2  0
 18 19  1  0
 18 20  1  0
 20 21  1  0
 20 22  2  0
 22 23  1  0
 23 24  1  0
 24 25  1  0
 24 26  1  0
 24 27  1  0
 22 28  1  0
 28 29  1  0
 28 30  2  0
 30 31  1  0
 12 32  1  0
 32 33  1  0
 33 34  1  0
  6 35  1  0
 35 36  1  0
 35 37  2  0
 37 38  1  0
 37  2  1  0
 33 10  2  0
 30 17  1  0
M  CHG  3  16  -1  29  -1  32  -1
M  END
>  <UniqueID>  (85) 
81

>  <SMILES>  (85) 
COc1ccc([N-]C(=O)/N=c2\[n-]cc(Cc3cccnc3)s2)cc1[O-]

>  <Energy>  (85) 
75.33690900442485

>  <Genealogy>  (85) 
COc1ccc([N-]C(=O)N=c2[n-]cc(Cc3cccnc3)s2)cc1[O-] (protonated)
COc1ccc([N-]C(=O)/N=c2\[n-]cc(Cc3cccnc3)s2)cc1[O-] (cis-trans isomerization)
COc1ccc([N-]C(=O)/N=c2\[n-]cc(Cc3cccnc3)s2)cc1[O-] (3D coordinates assigned)
COc1ccc([N-]C(=O)/N=c2\[n-]cc(Cc3cccnc3)s2)cc1[O-] (optimized conformer: 75.33690900442485 kcal/mol)

>  <smiles>  (85) 
COc1ccc(NC(=O)N=c2[nH]cc(Cc3cccnc3)s2)cc1O

>  <score_type>  (85) 
oracle

>  <origin>  (85) 
adg

>  <m_score__min__energy>  (85) 
-13.4

>  <m_primary>  (85) 
energy

$$$$
85:0
     RDKit          3D

 57 59  0  0  0  0  0  0  0  0999 V2000
   54.3940   27.1130   46.3630 H   0  0  0  0  0  0  0  0  0  0  0  0
   55.3250   26.9750   45.9930 O   0  0  0  0  0  0  0  0  0  0  0  0
   56.1770   26.0290   46.5520 C   0  0  0  0  0  0  0  0  0  0  0  0
   55.8030   24.7800   46.8780 N   0  0  0  0  0  0  0  0  0  0  0  0
   56.9490   24.2410   47.3450 C   0  0  0  0  0  0  0  0  0  0  0  0
   57.0220   23.0540   47.7560 O   0  0  0  0  0  0  0  0  0  0  0  0
   58.0140   25.0720   47.3270 N   0  0  0  0  0  0  0  0  0  0  0  0
   57.5040   26.2200   46.8450 C   0  0  0  0  0  0  0  0  0  0  0  0
   58.2970   27.4160   46.5100 C   0  0  0  0  0  0  0  0  0  0  0  0
   58.3969   27.6700   45.4444 H   0  0  0  0  0  0  0  0  0  0  0  0
   58.9100   28.2250   47.3950 C   0  0  0  0  0  0  0  0  0  0  0  0
   58.5690   29.5560   47.5530 C   0  0  0  0  0  0  0  0  0  0  0  0
   57.7552   30.0899   47.0405 H   0  0  0  0  0  0  0  0  0  0  0  0
   59.4460   30.0850   48.4770 C   0  0  0  0  0  0  0  0  0  0  0  0
   59.3870   31.4700   48.9820 C   0  0  0  0  0  0  0  0  0  0  0  0
   58.7650   31.6890   50.0560 O   0  0  0  0  0  0  0  0  0  0  0  0
   59.9960   32.5600   48.2550 N   0  0  0  0  0  0  0  0  0  0  0  0
   59.9320   33.9380   48.7690 C   0  0  0  0  0  0  0  0  0  0  0  0
   59.4418   33.9326   49.7537 H   0  0  0  0  0  0  0  0  0  0  0  0
   60.9564   34.3300   48.8518 H   0  0  0  0  0  0  0  0  0  0  0  0
   59.1320   34.8470   47.8110 C   0  0  0  0  0  0  0  0  0  0  0  0
   58.0887   34.8876   48.1572 H   0  0  0  0  0  0  0  0  0  0  0  0
   59.6104   35.8374   47.8242 H   0  0  0  0  0  0  0  0  0  0  0  0
   59.1450   34.3500   46.3480 C   0  0  0  0  0  0  0  0  0  0  0  0
   59.0733   35.2095   45.6652 H   0  0  0  0  0  0  0  0  0  0  0  0
   57.9970   33.4650   46.1330 N   0  0  0  0  0  0  0  0  0  0  0  0
   57.6690   32.8470   44.8870 C   0  0  0  0  0  0  0  0  0  0  0  0
   58.0980   33.3330   43.8070 O   0  0  0  0  0  0  0  0  0  0  0  0
   56.8730   31.6930   44.8990 O   0  0  0  0  0  0  0  0  0  0  0  0
   57.0990   30.4990   44.1350 C   0  0  0  0  0  0  0  0  0  0  0  0
   56.9380   30.8660   42.6530 C   0  0  0  0  0  0  0  0  0  0  0  0
   56.4974   31.8704   42.5698 H   0  0  0  0  0  0  0  0  0  0  0  0
   57.9231   30.8561   42.1637 H   0  0  0  0  0  0  0  0  0  0  0  0
   56.2782   30.1344   42.1637 H   0  0  0  0  0  0  0  0  0  0  0  0
   58.5280   29.9660   44.3630 C   0  0  0  0  0  0  0  0  0  0  0  0
   58.7241   29.8929   45.4429 H   0  0  0  0  0  0  0  0  0  0  0  0
   58.6257   28.9710   43.9044 H   0  0  0  0  0  0  0  0  0  0  0  0
   59.2535   30.6540   43.9044 H   0  0  0  0  0  0  0  0  0  0  0  0
   56.0550   29.4250   44.4970 C   0  0  0  0  0  0  0  0  0  0  0  0
   55.9764   29.3441   45.5912 H   0  0  0  0  0  0  0  0  0  0  0  0
   55.0777   29.7081   44.0791 H   0  0  0  0  0  0  0  0  0  0  0  0
   56.3657   28.4561   44.0791 H   0  0  0  0  0  0  0  0  0  0  0  0
   60.4640   33.6100   46.0480 C   0  0  0  0  0  0  0  0  0  0  0  0
   60.4858   33.3234   44.9862 H   0  0  0  0  0  0  0  0  0  0  0  0
   61.3083   34.2773   46.2759 H   0  0  0  0  0  0  0  0  0  0  0  0
   60.5770   32.3460   46.9170 C   0  0  0  0  0  0  0  0  0  0  0  0
   60.0419   31.5222   46.4220 H   0  0  0  0  0  0  0  0  0  0  0  0
   61.6429   32.1023   47.0371 H   0  0  0  0  0  0  0  0  0  0  0  0
   60.3020   29.1360   48.9190 N   0  0  0  0  0  0  0  0  0  0  0  0
   61.2600   29.2870   50.0210 C   0  0  0  0  0  0  0  0  0  0  0  0
   60.7302   29.2035   50.9814 H   0  0  0  0  0  0  0  0  0  0  0  0
   62.0236   28.4981   49.9537 H   0  0  0  0  0  0  0  0  0  0  0  0
   61.7440   30.2725   49.9537 H   0  0  0  0  0  0  0  0  0  0  0  0
   59.9510   27.9760   48.3050 C   0  0  0  0  0  0  0  0  0  0  0  0
   60.4280   26.7760   48.6750 C   0  0  0  0  0  0  0  0  0  0  0  0
   61.2519   26.7117   49.4010 H   0  0  0  0  0  0  0  0  0  0  0  0
   59.9947   25.8577   48.2520 H   0  0  0  0  0  0  0  0  0  0  0  0
  1  2  1  0
  2  3  1  0
  3  4  1  0
  4  5  1  0
  5  6  2  0
  5  7  1  0
  7  8  1  0
  8  9  1  0
  9 10  1  0
  9 11  2  0
 11 12  1  0
 12 13  1  0
 12 14  2  0
 14 15  1  0
 15 16  2  0
 15 17  1  0
 17 18  1  0
 18 19  1  0
 18 20  1  0
 18 21  1  0
 21 22  1  0
 21 23  1  0
 21 24  1  0
 24 25  1  0
 24 26  1  0
 26 27  1  0
 27 28  2  0
 27 29  1  0
 29 30  1  0
 30 31  1  0
 31 32  1  0
 31 33  1  0
 31 34  1  0
 30 35  1  0
 35 36  1  0
 35 37  1  0
 35 38  1  0
 30 39  1  0
 39 40  1  0
 39 41  1  0
 39 42  1  0
 24 43  1  0
 43 44  1  0
 43 45  1  0
 43 46  1  0
 46 47  1  0
 46 48  1  0
 14 49  1  0
 49 50  1  0
 50 51  1  0
 50 52  1  0
 50 53  1  0
 49 54  1  0
 54 55  2  0
 55 56  1  0
 55 57  1  0
  8  3  2  0
 54 11  1  0
 46 17  1  0
M  CHG  3   4  -1   7  -1  26  -1
M  END
>  <UniqueID>  (86) 
82

>  <SMILES>  (86) 
C=c1/c(=C\c2[n-]c(=O)[n-]c2O)cc(C(=O)N2CCC([N-]C(=O)OC(C)(C)C)CC2)n1C

>  <Energy>  (86) 
127.42769886539742

>  <Genealogy>  (86) 
C=c1c(=Cc2[n-]c(=O)[n-]c2O)cc(C(=O)N2CCC([N-]C(=O)OC(C)(C)C)CC2)n1C (protonated)
C=c1/c(=C\c2[n-]c(=O)[n-]c2O)cc(C(=O)N2CCC([N-]C(=O)OC(C)(C)C)CC2)n1C (cis-trans isomerization)
C=c1/c(=C\c2[n-]c(=O)[n-]c2O)cc(C(=O)N2CCC([N-]C(=O)OC(C)(C)C)CC2)n1C (3D coordinates assigned)
C=c1/c(=C\c2[n-]c(=O)[n-]c2O)cc(C(=O)N2CCC([N-]C(=O)OC(C)(C)C)CC2)n1C (nonaromatic ring conformer: 127.42769886539742 kcal/mol)

>  <smiles>  (86) 
C=c1c(=Cc2[nH]c(=O)[nH]c2O)cc(C(=O)N2CCC(NC(=O)OC(C)(C)C)CC2)n1C

>  <score_type>  (86) 
oracle

>  <origin>  (86) 
adg

>  <m_score__min__energy>  (86) 
-14.460000000000001

>  <m_primary>  (86) 
energy

$$$$
86:0
     RDKit          3D

 68 71  0  0  0  0  0  0  0  0999 V2000
   59.7390   30.3520   53.7470 C   0  0  0  0  0  0  0  0  0  0  0  0
   58.2810   30.2000   53.6840 N   0  0  0  0  0  0  0  0  0  0  0  0
   57.4980   30.1040   54.9180 C   0  0  0  0  0  0  0  0  0  0  0  0
   57.6240   29.9920   52.4170 C   0  0  0  0  0  0  0  0  0  0  0  0
   56.5390   29.3490   52.3750 O   0  0  0  0  0  0  0  0  0  0  0  0
   58.1990   30.4940   51.1530 C   0  0  0  0  0  0  0  0  0  0  0  0
   57.7880   31.7230   50.6170 C   0  0  0  0  0  0  0  0  0  0  0  0
   58.3420   32.1930   49.4240 C   0  0  0  0  0  0  0  0  0  0  0  0
   59.3210   31.4510   48.7530 C   0  0  0  0  0  0  0  0  0  0  0  0
   59.8900   32.0030   47.5930 O   0  0  0  0  0  0  0  0  0  0  0  0
   60.8540   31.3690   46.7440 C   0  0  2  0  0  0  0  0  0  0  0  0
   60.5510   29.8660   46.5670 C   0  0  0  0  0  0  0  0  0  0  0  0
   59.1500   29.6160   46.0750 C   0  0  0  0  0  0  0  0  0  0  0  0
   58.4580   30.6140   45.3690 C   0  0  0  0  0  0  0  0  0  0  0  0
   57.1350   30.4060   44.9690 C   0  0  0  0  0  0  0  0  0  0  0  0
   56.4920   29.2010   45.2690 C   0  0  0  0  0  0  0  0  0  0  0  0
   55.1740   29.0000   44.8780 O   0  0  0  0  0  0  0  0  0  0  0  0
   57.1770   28.1990   45.9640 C   0  0  0  0  0  0  0  0  0  0  0  0
   58.5010   28.4040   46.3650 C   0  0  0  0  0  0  0  0  0  0  0  0
   62.2300   31.5620   47.3330 C   0  0  0  0  0  0  0  0  0  0  0  0
   63.2160   31.0350   46.7480 O   0  0  0  0  0  0  0  0  0  0  0  0
   62.4450   32.2800   48.5640 N   0  0  0  0  0  0  0  0  0  0  0  0
   61.9280   33.6370   48.7660 C   0  0  0  0  0  0  0  0  0  0  0  0
   61.3940   33.7810   50.1950 C   0  0  0  0  0  0  0  0  0  0  0  0
   62.3310   33.2730   51.2270 N   0  0  0  0  0  0  0  0  0  0  0  0
   61.6830   32.5990   52.3760 C   0  0  0  0  0  0  0  0  0  0  0  0
   60.7230   33.4870   53.1390 C   0  0  0  0  0  0  0  0  0  0  0  0
   59.4430   33.7720   52.6280 C   0  0  0  0  0  0  0  0  0  0  0  0
   58.5610   34.5860   53.3440 C   0  0  0  0  0  0  0  0  0  0  0  0
   58.9500   35.1380   54.5660 C   0  0  0  0  0  0  0  0  0  0  0  0
   60.2290   34.8860   55.0700 C   0  0  0  0  0  0  0  0  0  0  0  0
   61.1150   34.0720   54.3570 C   0  0  0  0  0  0  0  0  0  0  0  0
   63.5850   32.6550   50.7440 C   0  0  0  0  0  0  0  0  0  0  0  0
   63.3650   31.7090   49.5530 C   0  0  0  0  0  0  0  0  0  0  0  0
   59.6960   30.1930   49.2640 C   0  0  0  0  0  0  0  0  0  0  0  0
   59.1360   29.7200   50.4540 C   0  0  0  0  0  0  0  0  0  0  0  0
   60.0591   30.3854   54.7989 H   0  0  0  0  0  0  0  0  0  0  0  0
   60.2186   29.4990   53.2447 H   0  0  0  0  0  0  0  0  0  0  0  0
   60.0324   31.2856   53.2447 H   0  0  0  0  0  0  0  0  0  0  0  0
   58.1693   30.1863   55.7855 H   0  0  0  0  0  0  0  0  0  0  0  0
   56.7590   30.9183   54.9476 H   0  0  0  0  0  0  0  0  0  0  0  0
   56.9776   29.1353   54.9476 H   0  0  0  0  0  0  0  0  0  0  0  0
   57.0254   32.3199   51.1387 H   0  0  0  0  0  0  0  0  0  0  0  0
   58.0061   33.1544   49.0083 H   0  0  0  0  0  0  0  0  0  0  0  0
   60.8052   31.8320   45.7474 H   0  0  0  0  0  0  0  0  0  0  0  0
   61.2610   29.4460   45.8393 H   0  0  0  0  0  0  0  0  0  0  0  0
   60.6509   29.3859   47.5516 H   0  0  0  0  0  0  0  0  0  0  0  0
   58.9595   31.5634   45.1299 H   0  0  0  0  0  0  0  0  0  0  0  0
   56.5985   31.1918   44.4171 H   0  0  0  0  0  0  0  0  0  0  0  0
   56.6738   27.2486   46.1954 H   0  0  0  0  0  0  0  0  0  0  0  0
   59.0368   27.6128   46.9099 H   0  0  0  0  0  0  0  0  0  0  0  0
   62.7372   34.3642   48.6034 H   0  0  0  0  0  0  0  0  0  0  0  0
   61.1122   33.8251   48.0525 H   0  0  0  0  0  0  0  0  0  0  0  0
   61.2038   34.8466   50.3907 H   0  0  0  0  0  0  0  0  0  0  0  0
   60.4774   33.1765   50.2621 H   0  0  0  0  0  0  0  0  0  0  0  0
   61.1262   31.7284   51.9992 H   0  0  0  0  0  0  0  0  0  0  0  0
   62.4831   32.3144   53.0752 H   0  0  0  0  0  0  0  0  0  0  0  0
   59.1350   33.3516   51.6593 H   0  0  0  0  0  0  0  0  0  0  0  0
   57.5574   34.7924   52.9436 H   0  0  0  0  0  0  0  0  0  0  0  0
   58.2503   35.7708   55.1317 H   0  0  0  0  0  0  0  0  0  0  0  0
   60.5390   35.3283   56.0283 H   0  0  0  0  0  0  0  0  0  0  0  0
   62.1253   33.8879   54.7512 H   0  0  0  0  0  0  0  0  0  0  0  0
   64.2740   33.4547   50.4345 H   0  0  0  0  0  0  0  0  0  0  0  0
   63.9974   32.0563   51.5695 H   0  0  0  0  0  0  0  0  0  0  0  0
   64.3334   31.5163   49.0682 H   0  0  0  0  0  0  0  0  0  0  0  0
   62.9205   30.7780   49.9346 H   0  0  0  0  0  0  0  0  0  0  0  0
   60.4328   29.5802   48.7241 H   0  0  0  0  0  0  0  0  0  0  0  0
   59.4320   28.7351   50.8443 H   0  0  0  0  0  0  0  0  0  0  0  0
  1  2  1  0
  2  3  1  0
  2  4  1  0
  4  5  2  0
  4  6  1  0
  6  7  2  0
  7  8  1  0
  8  9  2  0
  9 10  1  0
 10 11  1  0
 11 12  1  0
 12 13  1  0
 13 14  2  0
 14 15  1  0
 15 16  2  0
 16 17  1  0
 16 18  1  0
 18 19  2  0
 11 20  1  0
 20 21  2  0
 20 22  1  0
 22 23  1  0
 23 24  1  0
 24 25  1  0
 25 26  1  0
 26 27  1  0
 27 28  2  0
 28 29  1  0
 29 30  2  0
 30 31  1  0
 31 32  2  0
 25 33  1  0
 33 34  1  0
  9 35  1  0
 35 36  2  0
 36  6  1  0
 19 13  1  0
 34 22  1  0
 32 27  1  0
  1 37  1  0
  1 38  1  0
  1 39  1  0
  3 40  1  0
  3 41  1  0
  3 42  1  0
  7 43  1  0
  8 44  1  0
 11 45  1  6
 12 46  1  0
 12 47  1  0
 14 48  1  0
 15 49  1  0
 18 50  1  0
 19 51  1  0
 23 52  1  0
 23 53  1  0
 24 54  1  0
 24 55  1  0
 26 56  1  0
 26 57  1  0
 28 58  1  0
 29 59  1  0
 30 60  1  0
 31 61  1  0
 32 62  1  0
 33 63  1  0
 33 64  1  0
 34 65  1  0
 34 66  1  0
 35 67  1  0
 36 68  1  0
M  CHG  1  17  -1
M  END
>  <UniqueID>  (87) 
83

>  <SMILES>  (87) 
CN(C)C(=O)c1ccc(O[C@H](Cc2ccc([O-])cc2)C(=O)N2CCN(Cc3ccccc3)CC2)cc1

>  <Energy>  (87) 
83.20717419120749

>  <Genealogy>  (87) 
CN(C)C(=O)c1ccc(OC(Cc2ccc([O-])cc2)C(=O)N2CCN(Cc3ccccc3)CC2)cc1 (protonated)
CN(C)C(=O)c1ccc(O[C@H](Cc2ccc([O-])cc2)C(=O)N2CCN(Cc3ccccc3)CC2)cc1 (chirality)
CN(C)C(=O)c1ccc(O[C@H](Cc2ccc([O-])cc2)C(=O)N2CCN(Cc3ccccc3)CC2)cc1 (3D coordinates assigned)
CN(C)C(=O)c1ccc(O[C@H](Cc2ccc([O-])cc2)C(=O)N2CCN(Cc3ccccc3)CC2)cc1 (nonaromatic ring conformer: 83.20717419120749 kcal/mol)

>  <smiles>  (87) 
CN(C)C(=O)c1ccc(OC(Cc2ccc(O)cc2)C(=O)N2CCN(Cc3ccccc3)CC2)cc1

>  <score_type>  (87) 
oracle

>  <origin>  (87) 
adg

>  <m_score__min__energy>  (87) 
-11.74

>  <m_primary>  (87) 
energy

$$$$
87:0
     RDKit          3D

 45 47  0  0  0  0  0  0  0  0999 V2000
   56.1630   30.5080   42.9320 O   0  0  0  0  0  0  0  0  0  0  0  0
   56.3650   30.3830   44.1680 C   0  0  0  0  0  0  0  0  0  0  0  0
   55.6990   29.3240   44.8710 N   0  0  0  0  0  0  0  0  0  0  0  0
   56.2840   28.0390   45.2540 C   0  0  0  0  0  0  0  0  0  0  0  0
   57.6120   27.7800   44.5330 C   0  0  0  0  0  0  0  0  0  0  0  0
   58.7800   28.2720   45.3350 C   0  0  0  0  0  0  0  0  0  0  0  0
   58.9340   28.0070   46.6940 C   0  0  0  0  0  0  0  0  0  0  0  0
   60.3890   28.6920   47.1800 S   0  0  0  0  0  0  0  0  0  0  0  0
   60.7630   29.2870   45.6540 C   0  0  0  0  0  0  0  0  0  0  0  0
   59.7960   28.9740   44.7640 N   0  0  0  0  0  0  0  0  0  0  0  0
   57.2520   31.3430   44.8480 C   0  0  0  0  0  0  0  0  0  0  0  0
   57.5920   32.5490   44.2140 C   0  0  0  0  0  0  0  0  0  0  0  0
   58.4220   33.4740   44.8550 C   0  0  0  0  0  0  0  0  0  0  0  0
   58.9360   33.1940   46.1280 C   0  0  0  0  0  0  0  0  0  0  0  0
   59.9530   34.3620   46.9680 S   0  0  0  0  0  0  0  0  0  0  0  0
   59.1910   34.9900   48.1040 O   0  0  0  0  0  0  0  0  0  0  0  0
   60.3470   35.4370   45.9960 O   0  0  0  0  0  0  0  0  0  0  0  0
   61.3790   33.5620   47.5800 N   0  0  0  0  0  0  0  0  0  0  0  0
   61.7340   34.1290   48.8940 C   0  0  0  0  0  0  0  0  0  0  0  0
   62.9550   33.4050   49.4730 C   0  0  0  0  0  0  0  0  0  0  0  0
   64.1390   33.4920   48.5060 C   0  0  0  0  0  0  0  0  0  0  0  0
   63.7350   32.9980   47.1130 C   0  0  0  0  0  0  0  0  0  0  0  0
   62.4850   33.7370   46.6230 C   0  0  0  0  0  0  0  0  0  0  0  0
   58.6190   31.9810   46.7510 C   0  0  0  0  0  0  0  0  0  0  0  0
   57.7890   31.0560   46.1130 C   0  0  0  0  0  0  0  0  0  0  0  0
   56.4622   28.0384   46.3395 H   0  0  0  0  0  0  0  0  0  0  0  0
   55.5794   27.2441   44.9684 H   0  0  0  0  0  0  0  0  0  0  0  0
   57.7231   26.6983   44.3669 H   0  0  0  0  0  0  0  0  0  0  0  0
   57.5968   28.3243   43.5772 H   0  0  0  0  0  0  0  0  0  0  0  0
   58.2314   27.4510   47.3321 H   0  0  0  0  0  0  0  0  0  0  0  0
   61.6732   29.8553   45.4120 H   0  0  0  0  0  0  0  0  0  0  0  0
   57.2035   32.7671   43.2083 H   0  0  0  0  0  0  0  0  0  0  0  0
   58.6719   34.4234   44.3588 H   0  0  0  0  0  0  0  0  0  0  0  0
   61.9673   35.1976   48.7772 H   0  0  0  0  0  0  0  0  0  0  0  0
   60.8838   34.0020   49.5803 H   0  0  0  0  0  0  0  0  0  0  0  0
   63.2334   33.8726   50.4290 H   0  0  0  0  0  0  0  0  0  0  0  0
   62.7000   32.3463   49.6285 H   0  0  0  0  0  0  0  0  0  0  0  0
   64.4725   34.5379   48.4360 H   0  0  0  0  0  0  0  0  0  0  0  0
   64.9537   32.8574   48.8849 H   0  0  0  0  0  0  0  0  0  0  0  0
   64.5617   33.1799   46.4106 H   0  0  0  0  0  0  0  0  0  0  0  0
   63.5136   31.9219   47.1676 H   0  0  0  0  0  0  0  0  0  0  0  0
   62.7127   34.8086   46.5237 H   0  0  0  0  0  0  0  0  0  0  0  0
   62.1840   33.3236   45.6491 H   0  0  0  0  0  0  0  0  0  0  0  0
   59.0255   31.7552   47.7479 H   0  0  0  0  0  0  0  0  0  0  0  0
   57.5554   30.0995   46.6035 H   0  0  0  0  0  0  0  0  0  0  0  0
  1  2  2  0
  2  3  1  0
  3  4  1  0
  4  5  1  0
  5  6  1  0
  6  7  2  0
  7  8  1  0
  8  9  1  0
  9 10  2  0
  2 11  1  0
 11 12  2  0
 12 13  1  0
 13 14  2  0
 14 15  1  0
 15 16  2  0
 15 17  2  0
 15 18  1  0
 18 19  1  0
 19 20  1  0
 20 21  1  0
 21 22  1  0
 22 23  1  0
 14 24  1  0
 24 25  2  0
 10  6  1  0
 25 11  1  0
 23 18  1  0
  4 26  1  0
  4 27  1  0
  5 28  1  0
  5 29  1  0
  7 30  1  0
  9 31  1  0
 12 32  1  0
 13 33  1  0
 19 34  1  0
 19 35  1  0
 20 36  1  0
 20 37  1  0
 21 38  1  0
 21 39  1  0
 22 40  1  0
 22 41  1  0
 23 42  1  0
 23 43  1  0
 24 44  1  0
 25 45  1  0
M  CHG  1   3  -1
M  END
>  <UniqueID>  (88) 
84

>  <SMILES>  (88) 
O=C([N-]CCc1cscn1)c1ccc(S(=O)(=O)N2CCCCC2)cc1

>  <Energy>  (88) 
69.76764650394347

>  <Genealogy>  (88) 
O=C([N-]CCc1cscn1)c1ccc(S(=O)(=O)N2CCCCC2)cc1 (protonated)
O=C([N-]CCc1cscn1)c1ccc(S(=O)(=O)N2CCCCC2)cc1 (3D coordinates assigned)
O=C([N-]CCc1cscn1)c1ccc(S(=O)(=O)N2CCCCC2)cc1 (nonaromatic ring conformer: 69.76764650394347 kcal/mol)

>  <smiles>  (88) 
O=C(NCCc1cscn1)c1ccc(S(=O)(=O)N2CCCCC2)cc1

>  <score_type>  (88) 
oracle

>  <origin>  (88) 
adg

>  <m_score__min__energy>  (88) 
-10.470000000000001

>  <m_primary>  (88) 
energy

$$$$
88:0
     RDKit          3D

 47 50  0  0  0  0  0  0  0  0999 V2000
   57.4420   25.3030   48.2020 O   0  0  0  0  0  0  0  0  0  0  0  0
   57.5220   25.7240   47.0140 C   0  0  0  0  0  0  0  0  0  0  0  0
   56.6880   25.0930   45.9780 C   0  0  0  0  0  0  0  0  0  0  0  0
   57.1340   24.4780   44.8210 C   0  0  0  0  0  0  0  0  0  0  0  0
   55.9980   24.0670   44.1560 C   0  0  0  0  0  0  0  0  0  0  0  0
   54.9320   24.4610   44.9410 C   0  0  0  0  0  0  0  0  0  0  0  0
   55.3740   25.0720   46.0170 O   0  0  0  0  0  0  0  0  0  0  0  0
   58.4100   26.8110   46.7020 N   0  0  0  0  0  0  0  0  0  0  0  0
   58.5250   27.9430   47.6260 C   0  0  0  0  0  0  0  0  0  0  0  0
   58.7300   29.2380   46.8270 C   0  0  0  0  0  0  0  0  0  0  0  0
   59.7520   29.1330   45.7470 N   0  0  0  0  0  0  0  0  0  0  0  0
   59.2140   29.5860   44.4430 C   0  0  0  0  0  0  0  0  0  0  0  0
   57.7470   29.9000   44.5330 C   0  0  0  0  0  0  0  0  0  0  0  0
   56.8010   28.9930   44.8440 N   0  0  0  0  0  0  0  0  0  0  0  0
   55.6580   29.6690   44.8360 N   0  0  0  0  0  0  0  0  0  0  0  0
   55.8840   30.9410   44.5330 N   0  0  0  0  0  0  0  0  0  0  0  0
   57.1800   31.1060   44.3350 N   0  0  0  0  0  0  0  0  0  0  0  0
   57.8150   32.3820   44.0060 C   0  0  0  0  0  0  0  0  0  0  0  0
   58.3010   33.0650   45.2570 C   0  0  0  0  0  0  0  0  0  0  0  0
   59.0730   34.2370   45.1770 C   0  0  0  0  0  0  0  0  0  0  0  0
   59.5330   34.8580   46.3430 C   0  0  0  0  0  0  0  0  0  0  0  0
   59.2220   34.3170   47.6000 C   0  0  0  0  0  0  0  0  0  0  0  0
   59.6770   34.9250   48.7680 O   0  0  0  0  0  0  0  0  0  0  0  0
   58.4460   33.1550   47.6840 C   0  0  0  0  0  0  0  0  0  0  0  0
   57.9840   32.5330   46.5200 C   0  0  0  0  0  0  0  0  0  0  0  0
   60.4250   27.8110   45.6650 C   0  0  0  0  0  0  0  0  0  0  0  0
   59.4220   26.6480   45.6490 C   0  0  0  0  0  0  0  0  0  0  0  0
   58.1774   24.3448   44.4990 H   0  0  0  0  0  0  0  0  0  0  0  0
   55.9504   23.5335   43.1952 H   0  0  0  0  0  0  0  0  0  0  0  0
   53.8723   24.2891   44.7014 H   0  0  0  0  0  0  0  0  0  0  0  0
   57.6052   28.0230   48.2240 H   0  0  0  0  0  0  0  0  0  0  0  0
   59.3845   27.7848   48.2941 H   0  0  0  0  0  0  0  0  0  0  0  0
   57.7698   29.5159   46.3678 H   0  0  0  0  0  0  0  0  0  0  0  0
   59.0966   29.9936   47.5374 H   0  0  0  0  0  0  0  0  0  0  0  0
   59.7547   30.4906   44.1278 H   0  0  0  0  0  0  0  0  0  0  0  0
   59.3497   28.7749   43.7125 H   0  0  0  0  0  0  0  0  0  0  0  0
   58.6693   32.1999   43.3374 H   0  0  0  0  0  0  0  0  0  0  0  0
   57.0775   33.0298   43.5095 H   0  0  0  0  0  0  0  0  0  0  0  0
   59.3162   34.6672   44.1943 H   0  0  0  0  0  0  0  0  0  0  0  0
   60.1401   35.7728   46.2744 H   0  0  0  0  0  0  0  0  0  0  0  0
   59.2060   35.7310   49.1620 H   0  0  0  0  0  0  0  0  0  0  0  0
   58.1990   32.7301   48.6681 H   0  0  0  0  0  0  0  0  0  0  0  0
   57.3698   31.6233   46.5923 H   0  0  0  0  0  0  0  0  0  0  0  0
   61.0235   27.7750   44.7428 H   0  0  0  0  0  0  0  0  0  0  0  0
   61.0573   27.6986   46.5580 H   0  0  0  0  0  0  0  0  0  0  0  0
   58.9211   26.6184   44.6701 H   0  0  0  0  0  0  0  0  0  0  0  0
   59.9689   25.7110   45.8305 H   0  0  0  0  0  0  0  0  0  0  0  0
  1  2  2  0
  2  3  1  0
  3  4  2  0
  4  5  1  0
  5  6  2  0
  6  7  1  0
  2  8  1  0
  8  9  1  0
  9 10  1  0
 10 11  1  0
 11 12  1  0
 12 13  1  0
 13 14  2  0
 14 15  1  0
 15 16  2  0
 16 17  1  0
 17 18  1  0
 18 19  1  0
 19 20  2  0
 20 21  1  0
 21 22  2  0
 22 23  1  0
 22 24  1  0
 24 25  2  0
 11 26  1  0
 26 27  1  0
  7  3  1  0
 27  8  1  0
 17 13  1  0
 25 19  1  0
  4 28  1  0
  5 29  1  0
  6 30  1  0
  9 31  1  0
  9 32  1  0
 10 33  1  0
 10 34  1  0
 12 35  1  0
 12 36  1  0
 18 37  1  0
 18 38  1  0
 20 39  1  0
 21 40  1  0
 23 41  1  0
 24 42  1  0
 25 43  1  0
 26 44  1  0
 26 45  1  0
 27 46  1  0
 27 47  1  0
M  END
>  <UniqueID>  (89) 
85

>  <SMILES>  (89) 
O=C(c1ccco1)N1CCN(Cc2nnnn2Cc2ccc(O)cc2)CC1

>  <Energy>  (89) 
124.66541272889118

>  <Genealogy>  (89) 
O=C(c1ccco1)N1CCN(Cc2nnnn2Cc2ccc(O)cc2)CC1 (3D coordinates assigned)
O=C(c1ccco1)N1CCN(Cc2nnnn2Cc2ccc(O)cc2)CC1 (nonaromatic ring conformer: 124.66541272889118 kcal/mol)

>  <smiles>  (89) 
O=C(c1ccco1)N1CCN(Cc2nnnn2Cc2ccc(O)cc2)CC1

>  <score_type>  (89) 
oracle

>  <origin>  (89) 
adg

>  <m_score__min__energy>  (89) 
-9.1699999999999999

>  <m_primary>  (89) 
energy

$$$$
89:0
     RDKit          3D

 47 49  0  0  0  0  0  0  0  0999 V2000
   61.3760   29.6630   49.1990 O   0  0  0  0  0  0  0  0  0  0  0  0
   60.5070   29.6500   48.2870 C   0  0  0  0  0  0  0  0  0  0  0  0
   59.3740   28.6670   48.3720 C   0  0  0  0  0  0  0  0  0  0  0  0
   58.3120   28.9940   47.4110 N   0  0  0  0  0  0  0  0  0  0  0  0
   58.6380   28.4970   46.0680 C   0  0  0  0  0  0  0  0  0  0  0  0
   57.9900   29.3660   45.0210 C   0  0  0  0  0  0  0  0  0  0  0  0
   58.7230   30.3900   44.3970 C   0  0  0  0  0  0  0  0  0  0  0  0
   58.1190   31.2030   43.4320 C   0  0  0  0  0  0  0  0  0  0  0  0
   56.7830   31.0000   43.0820 C   0  0  0  0  0  0  0  0  0  0  0  0
   56.0460   29.9830   43.6940 C   0  0  0  0  0  0  0  0  0  0  0  0
   56.6430   29.1670   44.6600 C   0  0  0  0  0  0  0  0  0  0  0  0
   55.9130   28.1780   45.2340 F   0  0  0  0  0  0  0  0  0  0  0  0
   60.5430   30.6250   47.2330 N   0  0  0  0  0  0  0  0  0  0  0  0
   61.4600   31.7300   47.2240 C   0  0  0  0  0  0  0  0  0  0  0  0
   62.7630   31.5230   47.7020 C   0  0  0  0  0  0  0  0  0  0  0  0
   63.7010   32.5580   47.6770 C   0  0  0  0  0  0  0  0  0  0  0  0
   63.3440   33.8130   47.1830 C   0  0  0  0  0  0  0  0  0  0  0  0
   62.0440   34.0420   46.7300 C   0  0  0  0  0  0  0  0  0  0  0  0
   61.0870   33.0130   46.7550 C   0  0  0  0  0  0  0  0  0  0  0  0
   59.7330   33.3030   46.3680 N   0  0  0  0  0  0  0  0  0  0  0  0
   59.4940   33.9340   45.0650 C   0  0  0  0  0  0  0  0  0  0  0  0
   58.0010   34.1630   44.8400 C   0  0  0  0  0  0  0  0  0  0  0  0
   57.4010   34.5630   46.0510 O   0  0  0  0  0  0  0  0  0  0  0  0
   57.2970   33.4550   46.9260 C   0  0  0  0  0  0  0  0  0  0  0  0
   58.6250   32.6790   47.1050 C   0  0  0  0  0  0  0  0  0  0  0  0
   59.7567   27.6590   48.1542 H   0  0  0  0  0  0  0  0  0  0  0  0
   58.9507   28.7111   49.3864 H   0  0  0  0  0  0  0  0  0  0  0  0
   57.4430   28.5000   47.7270 H   0  0  0  0  0  0  0  0  0  0  0  0
   59.7291   28.5131   45.9294 H   0  0  0  0  0  0  0  0  0  0  0  0
   58.2619   27.4685   45.9644 H   0  0  0  0  0  0  0  0  0  0  0  0
   59.7764   30.5529   44.6686 H   0  0  0  0  0  0  0  0  0  0  0  0
   58.6978   32.0036   42.9482 H   0  0  0  0  0  0  0  0  0  0  0  0
   56.3101   31.6413   42.3237 H   0  0  0  0  0  0  0  0  0  0  0  0
   54.9938   29.8238   43.4154 H   0  0  0  0  0  0  0  0  0  0  0  0
   59.7200   30.6740   46.5900 H   0  0  0  0  0  0  0  0  0  0  0  0
   63.0482   30.5378   48.0996 H   0  0  0  0  0  0  0  0  0  0  0  0
   64.7220   32.3833   48.0472 H   0  0  0  0  0  0  0  0  0  0  0  0
   64.0879   34.6227   47.1505 H   0  0  0  0  0  0  0  0  0  0  0  0
   61.7660   35.0362   46.3502 H   0  0  0  0  0  0  0  0  0  0  0  0
   60.0165   34.9014   45.0314 H   0  0  0  0  0  0  0  0  0  0  0  0
   59.8718   33.2676   44.2756 H   0  0  0  0  0  0  0  0  0  0  0  0
   57.8602   34.9490   44.0835 H   0  0  0  0  0  0  0  0  0  0  0  0
   57.5349   33.2303   44.4895 H   0  0  0  0  0  0  0  0  0  0  0  0
   56.9718   33.8196   47.9116 H   0  0  0  0  0  0  0  0  0  0  0  0
   56.5739   32.7574   46.4783 H   0  0  0  0  0  0  0  0  0  0  0  0
   58.8800   32.6541   48.1748 H   0  0  0  0  0  0  0  0  0  0  0  0
   58.4811   31.6642   46.7056 H   0  0  0  0  0  0  0  0  0  0  0  0
  1  2  2  0
  2  3  1  0
  3  4  1  0
  4  5  1  0
  5  6  1  0
  6  7  2  0
  7  8  1  0
  8  9  2  0
  9 10  1  0
 10 11  2  0
 11 12  1  0
  2 13  1  0
 13 14  1  0
 14 15  2  0
 15 16  1  0
 16 17  2  0
 17 18  1  0
 18 19  2  0
 19 20  1  0
 20 21  1  0
 21 22  1  0
 22 23  1  0
 23 24  1  0
 24 25  1  0
 11  6  1  0
 19 14  1  0
 25 20  1  0
  3 26  1  0
  3 27  1  0
  4 28  1  0
  5 29  1  0
  5 30  1  0
  7 31  1  0
  8 32  1  0
  9 33  1  0
 10 34  1  0
 13 35  1  0
 15 36  1  0
 16 37  1  0
 17 38  1  0
 18 39  1  0
 21 40  1  0
 21 41  1  0
 22 42  1  0
 22 43  1  0
 24 44  1  0
 24 45  1  0
 25 46  1  0
 25 47  1  0
M  END
>  <UniqueID>  (90) 
86

>  <SMILES>  (90) 
O=C(CNCc1ccccc1F)Nc1ccccc1N1CCOCC1

>  <Energy>  (90) 
59.988325840428246

>  <Genealogy>  (90) 
O=C(CNCc1ccccc1F)Nc1ccccc1N1CCOCC1 (3D coordinates assigned)
O=C(CNCc1ccccc1F)Nc1ccccc1N1CCOCC1 (nonaromatic ring conformer: 59.988325840428246 kcal/mol)

>  <smiles>  (90) 
O=C(CNCc1ccccc1F)Nc1ccccc1N1CCOCC1

>  <score_type>  (90) 
oracle

>  <origin>  (90) 
adg

>  <m_score__min__energy>  (90) 
-7.5899999999999999

>  <m_primary>  (90) 
energy

$$$$
90:0
     RDKit          3D

 57 59  0  0  0  0  0  0  0  0999 V2000
   61.1300   28.5860   49.7520 C   0  0  0  0  0  0  0  0  0  0  0  0
   60.0940   28.4130   48.6820 C   0  0  0  0  0  0  0  0  0  0  0  0
   59.7960   27.1320   48.1910 C   0  0  0  0  0  0  0  0  0  0  0  0
   58.8090   26.9640   47.2160 C   0  0  0  0  0  0  0  0  0  0  0  0
   58.1030   28.0700   46.7280 C   0  0  0  0  0  0  0  0  0  0  0  0
   56.8560   27.8370   45.5040 S   0  0  0  0  0  0  0  0  0  0  0  0
   55.9140   26.7660   45.9790 O   0  0  0  0  0  0  0  0  0  0  0  0
   57.4710   27.3900   44.2080 O   0  0  0  0  0  0  0  0  0  0  0  0
   55.9570   29.3070   45.2460 N   0  0  0  0  0  0  0  0  0  0  0  0
   56.3760   29.9810   44.0160 C   0  0  0  0  0  0  0  0  0  0  0  0
   57.4980   30.9400   44.2840 C   0  0  0  0  0  0  0  0  0  0  0  0
   58.3250   31.1930   43.3660 O   0  0  0  0  0  0  0  0  0  0  0  0
   57.6480   31.5280   45.5860 N   0  0  0  0  0  0  0  0  0  0  0  0
   58.5890   32.5760   45.8800 C   0  0  0  0  0  0  0  0  0  0  0  0
   59.8700   32.2590   46.3660 C   0  0  0  0  0  0  0  0  0  0  0  0
   60.8050   33.2660   46.6290 C   0  0  0  0  0  0  0  0  0  0  0  0
   62.4070   32.8360   47.2270 S   0  0  0  0  0  0  0  0  0  0  0  0
   63.4370   33.5090   46.3640 O   0  0  0  0  0  0  0  0  0  0  0  0
   62.6060   31.3480   47.1370 O   0  0  0  0  0  0  0  0  0  0  0  0
   62.5900   33.3660   48.8820 N   0  0  0  0  0  0  0  0  0  0  0  0
   61.2670   33.4090   49.5450 C   0  0  0  0  0  0  0  0  0  0  0  0
   61.4050   33.4220   51.0710 C   0  0  0  0  0  0  0  0  0  0  0  0
   62.0850   32.1380   51.5760 C   0  0  0  0  0  0  0  0  0  0  0  0
   62.9960   31.4920   50.5190 C   0  0  0  0  0  0  0  0  0  0  0  0
   63.6110   32.5510   49.5910 C   0  0  0  0  0  0  0  0  0  0  0  0
   60.4740   34.6020   46.3790 C   0  0  0  0  0  0  0  0  0  0  0  0
   59.2130   34.9300   45.8800 C   0  0  0  0  0  0  0  0  0  0  0  0
   58.2600   33.9290   45.6310 C   0  0  0  0  0  0  0  0  0  0  0  0
   56.9040   34.3130   45.1060 C   0  0  0  0  0  0  0  0  0  0  0  0
   58.3850   29.3490   47.2320 C   0  0  0  0  0  0  0  0  0  0  0  0
   59.3700   29.5180   48.2090 C   0  0  0  0  0  0  0  0  0  0  0  0
   60.6534   28.5064   50.7402 H   0  0  0  0  0  0  0  0  0  0  0  0
   61.8963   27.8034   49.6504 H   0  0  0  0  0  0  0  0  0  0  0  0
   61.6004   29.5751   49.6504 H   0  0  0  0  0  0  0  0  0  0  0  0
   60.3414   26.2573   48.5751 H   0  0  0  0  0  0  0  0  0  0  0  0
   58.5859   25.9583   46.8303 H   0  0  0  0  0  0  0  0  0  0  0  0
   56.7131   29.2269   43.2895 H   0  0  0  0  0  0  0  0  0  0  0  0
   55.5204   30.5454   43.6167 H   0  0  0  0  0  0  0  0  0  0  0  0
   57.0810   31.1320   46.3690 H   0  0  0  0  0  0  0  0  0  0  0  0
   60.1400   31.2072   46.5414 H   0  0  0  0  0  0  0  0  0  0  0  0
   60.7365   34.3184   49.2261 H   0  0  0  0  0  0  0  0  0  0  0  0
   60.7063   32.5077   49.2564 H   0  0  0  0  0  0  0  0  0  0  0  0
   62.0103   34.2905   51.3697 H   0  0  0  0  0  0  0  0  0  0  0  0
   60.3992   33.4818   51.5125 H   0  0  0  0  0  0  0  0  0  0  0  0
   62.6920   32.3856   52.4593 H   0  0  0  0  0  0  0  0  0  0  0  0
   61.2915   31.4151   51.8163 H   0  0  0  0  0  0  0  0  0  0  0  0
   63.8053   30.9476   51.0277 H   0  0  0  0  0  0  0  0  0  0  0  0
   62.3892   30.8061   49.9096 H   0  0  0  0  0  0  0  0  0  0  0  0
   64.2390   33.2232   50.1941 H   0  0  0  0  0  0  0  0  0  0  0  0
   64.1956   32.0185   48.8264 H   0  0  0  0  0  0  0  0  0  0  0  0
   61.2096   35.3957   46.5763 H   0  0  0  0  0  0  0  0  0  0  0  0
   58.9630   35.9823   45.6798 H   0  0  0  0  0  0  0  0  0  0  0  0
   56.2251   34.5053   45.9499 H   0  0  0  0  0  0  0  0  0  0  0  0
   56.9923   35.2215   44.4921 H   0  0  0  0  0  0  0  0  0  0  0  0
   56.5028   33.4931   44.4921 H   0  0  0  0  0  0  0  0  0  0  0  0
   57.8292   30.2210   46.8570 H   0  0  0  0  0  0  0  0  0  0  0  0
   59.5785   30.5213   48.6088 H   0  0  0  0  0  0  0  0  0  0  0  0
  1  2  1  0
  2  3  2  0
  3  4  1  0
  4  5  2  0
  5  6  1  0
  6  7  2  0
  6  8  2  0
  6  9  1  0
  9 10  1  0
 10 11  1  0
 11 12  2  0
 11 13  1  0
 13 14  1  0
 14 15  2  0
 15 16  1  0
 16 17  1  0
 17 18  2  0
 17 19  2  0
 17 20  1  0
 20 21  1  0
 21 22  1  0
 22 23  1  0
 23 24  1  0
 24 25  1  0
 16 26  2  0
 26 27  1  0
 27 28  2  0
 28 29  1  0
  5 30  1  0
 30 31  2  0
 31  2  1  0
 28 14  1  0
 25 20  1  0
  1 32  1  0
  1 33  1  0
  1 34  1  0
  3 35  1  0
  4 36  1  0
 10 37  1  0
 10 38  1  0
 13 39  1  0
 15 40  1  0
 21 41  1  0
 21 42  1  0
 22 43  1  0
 22 44  1  0
 23 45  1  0
 23 46  1  0
 24 47  1  0
 24 48  1  0
 25 49  1  0
 25 50  1  0
 26 51  1  0
 27 52  1  0
 29 53  1  0
 29 54  1  0
 29 55  1  0
 30 56  1  0
 31 57  1  0
M  CHG  1   9  -1
M  END
>  <UniqueID>  (91) 
87

>  <SMILES>  (91) 
Cc1ccc(S(=O)(=O)[N-]CC(=O)Nc2cc(S(=O)(=O)N3CCCCC3)ccc2C)cc1

>  <Energy>  (91) 
62.631895704014

>  <Genealogy>  (91) 
Cc1ccc(S(=O)(=O)[N-]CC(=O)Nc2cc(S(=O)(=O)N3CCCCC3)ccc2C)cc1 (protonated)
Cc1ccc(S(=O)(=O)[N-]CC(=O)Nc2cc(S(=O)(=O)N3CCCCC3)ccc2C)cc1 (3D coordinates assigned)
Cc1ccc(S(=O)(=O)[N-]CC(=O)Nc2cc(S(=O)(=O)N3CCCCC3)ccc2C)cc1 (nonaromatic ring conformer: 62.631895704014 kcal/mol)

>  <smiles>  (91) 
Cc1ccc(S(=O)(=O)NCC(=O)Nc2cc(S(=O)(=O)N3CCCCC3)ccc2C)cc1

>  <score_type>  (91) 
oracle

>  <origin>  (91) 
adg

>  <m_score__min__energy>  (91) 
-12.09

>  <m_primary>  (91) 
energy

$$$$
91:0
     RDKit          3D

 45 47  0  0  0  0  0  0  0  0999 V2000
   57.1508   25.0787   42.1095 H   0  0  0  0  0  0  0  0  0  0  0  0
   56.9670   24.7200   43.1330 C   0  0  0  0  0  0  0  0  0  0  0  0
   56.4013   23.7909   43.2969 H   0  0  0  0  0  0  0  0  0  0  0  0
   57.4330   25.4160   44.1820 C   0  0  0  0  0  0  0  0  0  0  0  0
   57.2870   25.0990   45.5420 C   0  0  0  0  0  0  0  0  0  0  0  0
   56.5300   24.1710   46.1580 C   0  0  0  0  0  0  0  0  0  0  0  0
   57.0340   23.5027   46.8717 H   0  0  0  0  0  0  0  0  0  0  0  0
   55.0870   23.9760   45.9570 C   0  0  0  0  0  0  0  0  0  0  0  0
   54.4990   22.7820   45.7580 N   0  0  0  0  0  0  0  0  0  0  0  0
   53.2170   23.1120   45.4870 C   0  0  0  0  0  0  0  0  0  0  0  0
   52.3290   22.2470   45.2650 O   0  0  0  0  0  0  0  0  0  0  0  0
   52.9600   24.4410   45.4750 N   0  0  0  0  0  0  0  0  0  0  0  0
   54.1580   24.9740   45.7610 C   0  0  0  0  0  0  0  0  0  0  0  0
   54.3970   26.3400   45.8430 O   0  0  0  0  0  0  0  0  0  0  0  0
   58.1080   25.9730   46.2320 C   0  0  0  0  0  0  0  0  0  0  0  0
   58.2724   25.9965   47.3194 H   0  0  0  0  0  0  0  0  0  0  0  0
   58.6810   26.8090   45.2970 C   0  0  0  0  0  0  0  0  0  0  0  0
   59.5970   27.9210   45.6140 C   0  0  0  0  0  0  0  0  0  0  0  0
   60.7400   27.6410   46.0680 O   0  0  0  0  0  0  0  0  0  0  0  0
   59.1950   29.3010   45.4620 N   0  0  0  0  0  0  0  0  0  0  0  0
   59.9850   30.3800   46.0700 C   0  0  0  0  0  0  0  0  0  0  0  0
   60.6955   29.9527   46.7929 H   0  0  0  0  0  0  0  0  0  0  0  0
   60.5403   30.9165   45.2866 H   0  0  0  0  0  0  0  0  0  0  0  0
   59.0420   31.3550   46.7920 C   0  0  0  0  0  0  0  0  0  0  0  0
   58.6346   30.8503   47.6804 H   0  0  0  0  0  0  0  0  0  0  0  0
   59.6355   32.2446   47.0496 H   0  0  0  0  0  0  0  0  0  0  0  0
   57.9060   31.8190   45.9540 N   0  0  0  0  0  0  0  0  0  0  0  0
   57.9140   33.5590   45.7670 S   0  0  0  0  0  0  0  0  0  0  0  0
   58.0180   34.2000   47.1250 O   0  0  0  0  0  0  0  0  0  0  0  0
   56.6280   34.0060   45.1210 O   0  0  0  0  0  0  0  0  0  0  0  0
   59.2780   34.1070   44.7520 C   0  0  0  0  0  0  0  0  0  0  0  0
   60.1048   34.4392   45.3971 H   0  0  0  0  0  0  0  0  0  0  0  0
   59.6194   33.2762   44.1170 H   0  0  0  0  0  0  0  0  0  0  0  0
   58.9498   34.9430   44.1170 H   0  0  0  0  0  0  0  0  0  0  0  0
   57.8080   31.1750   44.6290 C   0  0  0  0  0  0  0  0  0  0  0  0
   56.8266   31.4054   44.1889 H   0  0  0  0  0  0  0  0  0  0  0  0
   58.6169   31.5611   43.9913 H   0  0  0  0  0  0  0  0  0  0  0  0
   57.9610   29.6540   44.7440 C   0  0  0  0  0  0  0  0  0  0  0  0
   57.0978   29.2460   45.2902 H   0  0  0  0  0  0  0  0  0  0  0  0
   58.0117   29.2294   43.7305 H   0  0  0  0  0  0  0  0  0  0  0  0
   58.2580   26.4870   44.0550 N   0  0  0  0  0  0  0  0  0  0  0  0
   58.7060   27.1000   42.7980 C   0  0  0  0  0  0  0  0  0  0  0  0
   59.3417   27.9698   43.0204 H   0  0  0  0  0  0  0  0  0  0  0  0
   59.2811   26.3648   42.2160 H   0  0  0  0  0  0  0  0  0  0  0  0
   57.8308   27.4247   42.2160 H   0  0  0  0  0  0  0  0  0  0  0  0
  1  2  1  0
  2  3  1  0
  2  4  2  0
  4  5  1  0
  5  6  2  0
  6  7  1  0
  6  8  1  0
  8  9  1  0
  9 10  1  0
 10 11  2  0
 10 12  1  0
 12 13  1  0
 13 14  1  0
  5 15  1  0
 15 16  1  0
 15 17  2  0
 17 18  1  0
 18 19  2  0
 18 20  1  0
 20 21  1  0
 21 22  1  0
 21 23  1  0
 21 24  1  0
 24 25  1  0
 24 26  1  0
 24 27  1  0
 27 28  1  0
 28 29  2  0
 28 30  2  0
 28 31  1  0
 31 32  1  0
 31 33  1  0
 31 34  1  0
 27 35  1  0
 35 36  1  0
 35 37  1  0
 35 38  1  0
 38 39  1  0
 38 40  1  0
 17 41  1  0
 41 42  1  0
 42 43  1  0
 42 44  1  0
 42 45  1  0
 41  4  1  0
 13  8  2  0
 38 20  1  0
M  CHG  3   9  -1  12  -1  14  -1
M  END
>  <UniqueID>  (92) 
88

>  <SMILES>  (92) 
C=c1/c(=C\c2[n-]c(=O)[n-]c2[O-])cc(C(=O)N2CCN(S(C)(=O)=O)CC2)n1C

>  <Energy>  (92) 
123.3848982687148

>  <Genealogy>  (92) 
C=c1c(=Cc2[n-]c(=O)[n-]c2[O-])cc(C(=O)N2CCN(S(C)(=O)=O)CC2)n1C (protonated)
C=c1/c(=C\c2[n-]c(=O)[n-]c2[O-])cc(C(=O)N2CCN(S(C)(=O)=O)CC2)n1C (cis-trans isomerization)
C=c1/c(=C\c2[n-]c(=O)[n-]c2[O-])cc(C(=O)N2CCN(S(C)(=O)=O)CC2)n1C (3D coordinates assigned)
C=c1/c(=C\c2[n-]c(=O)[n-]c2[O-])cc(C(=O)N2CCN(S(C)(=O)=O)CC2)n1C (nonaromatic ring conformer: 123.3848982687148 kcal/mol)

>  <smiles>  (92) 
C=c1c(=Cc2[nH]c(=O)[nH]c2O)cc(C(=O)N2CCN(S(C)(=O)=O)CC2)n1C

>  <score_type>  (92) 
oracle

>  <origin>  (92) 
adg

>  <m_score__min__energy>  (92) 
-16.760000000000002

>  <m_primary>  (92) 
energy

$$$$
