0:0
     RDKit          3D

 61 65  0  0  0  0  0  0  0  0999 V2000
   58.2700   33.9912   50.8834 H   0  0  0  0  0  0  0  0  0  0  0  0
   59.3150   33.8080   50.5930 C   0  0  0  0  0  0  0  0  0  0  0  0
   60.2530   33.4070   51.5670 C   0  0  0  0  0  0  0  0  0  0  0  0
   59.9366   33.2892   52.6139 H   0  0  0  0  0  0  0  0  0  0  0  0
   61.5880   33.1570   51.2100 C   0  0  0  0  0  0  0  0  0  0  0  0
   62.3260   32.8537   51.9672 H   0  0  0  0  0  0  0  0  0  0  0  0
   61.9570   33.3030   49.8680 C   0  0  0  0  0  0  0  0  0  0  0  0
   61.0360   33.7180   48.9210 C   0  0  0  0  0  0  0  0  0  0  0  0
   59.7070   33.9750   49.2540 C   0  0  0  0  0  0  0  0  0  0  0  0
   58.9853   34.2995   48.4899 H   0  0  0  0  0  0  0  0  0  0  0  0
   61.7190   33.8370   47.6400 C   0  0  0  0  0  0  0  0  0  0  0  0
   61.1470   34.1140   46.5050 N   0  0  0  0  0  0  0  0  0  0  0  0
   59.8520   33.6700   46.0790 C   0  0  0  0  0  0  0  0  0  0  0  0
   58.9310   34.6110   45.6100 C   0  0  0  0  0  0  0  0  0  0  0  0
   59.1895   35.6802   45.6158 H   0  0  0  0  0  0  0  0  0  0  0  0
   57.6840   34.2000   45.1340 C   0  0  0  0  0  0  0  0  0  0  0  0
   56.9590   34.9470   44.7787 H   0  0  0  0  0  0  0  0  0  0  0  0
   57.3550   32.8420   45.1080 C   0  0  0  0  0  0  0  0  0  0  0  0
   56.3736   32.5238   44.7264 H   0  0  0  0  0  0  0  0  0  0  0  0
   58.2720   31.8810   45.5670 C   0  0  0  0  0  0  0  0  0  0  0  0
   57.9520   30.4100   45.4870 C   0  0  0  0  0  0  0  0  0  0  0  0
   58.0240   29.8580   46.7530 F   0  0  0  0  0  0  0  0  0  0  0  0
   58.8430   29.7510   44.6560 F   0  0  0  0  0  0  0  0  0  0  0  0
   56.6740   30.2240   44.9850 F   0  0  0  0  0  0  0  0  0  0  0  0
   59.5350   32.3030   46.0160 C   0  0  0  0  0  0  0  0  0  0  0  0
   60.2824   31.5558   46.3210 H   0  0  0  0  0  0  0  0  0  0  0  0
   63.1040   33.4270   47.9100 C   0  0  0  0  0  0  0  0  0  0  0  0
   64.0030   33.2400   47.0490 O   0  0  0  0  0  0  0  0  0  0  0  0
   63.2590   33.1180   49.2980 N   0  0  0  0  0  0  0  0  0  0  0  0
   64.4060   32.4980   49.8990 C   0  0  0  0  0  0  0  0  0  0  0  0
   65.6770   33.0810   49.7880 C   0  0  0  0  0  0  0  0  0  0  0  0
   65.8038   34.0158   49.2222 H   0  0  0  0  0  0  0  0  0  0  0  0
   66.7830   32.4780   50.3940 C   0  0  0  0  0  0  0  0  0  0  0  0
   67.7753   32.9436   50.3017 H   0  0  0  0  0  0  0  0  0  0  0  0
   66.6410   31.2880   51.1170 C   0  0  0  0  0  0  0  0  0  0  0  0
   67.7900   30.7280   51.6990 O   0  0  0  0  0  0  0  0  0  0  0  0
   67.8800   30.2010   53.0210 C   0  0  0  0  0  0  0  0  0  0  0  0
   68.7563   30.6426   53.5181 H   0  0  0  0  0  0  0  0  0  0  0  0
   66.9473   30.4541   53.5464 H   0  0  0  0  0  0  0  0  0  0  0  0
   68.0250   28.6620   53.0350 C   0  0  0  0  0  0  0  0  0  0  0  0
   69.0249   28.4242   53.4271 H   0  0  0  0  0  0  0  0  0  0  0  0
   67.1923   28.2971   53.6542 H   0  0  0  0  0  0  0  0  0  0  0  0
   67.8760   27.9690   51.7280 N   0  0  0  0  0  0  0  0  0  0  0  0
   67.5690   28.7190   51.0610 H   0  0  0  0  0  0  0  0  0  0  0  0
   66.8330   26.9220   51.7110 C   0  0  0  0  0  0  0  0  0  0  0  0
   67.0824   26.1525   52.4564 H   0  0  0  0  0  0  0  0  0  0  0  0
   65.8642   27.3858   51.9485 H   0  0  0  0  0  0  0  0  0  0  0  0
   66.7380   26.2630   50.3140 C   0  0  0  0  0  0  0  0  0  0  0  0
   67.0271   25.2051   50.3996 H   0  0  0  0  0  0  0  0  0  0  0  0
   65.7015   26.3640   49.9597 H   0  0  0  0  0  0  0  0  0  0  0  0
   67.5860   26.8940   49.3730 O   0  0  0  0  0  0  0  0  0  0  0  0
   68.9330   26.8030   49.8000 C   0  0  0  0  0  0  0  0  0  0  0  0
   69.2211   25.7421   49.8395 H   0  0  0  0  0  0  0  0  0  0  0  0
   69.5530   27.3600   49.0821 H   0  0  0  0  0  0  0  0  0  0  0  0
   69.1470   27.4300   51.1990 C   0  0  0  0  0  0  0  0  0  0  0  0
   69.5267   26.6595   51.8862 H   0  0  0  0  0  0  0  0  0  0  0  0
   69.8719   28.2528   51.1116 H   0  0  0  0  0  0  0  0  0  0  0  0
   65.3630   30.7090   51.2370 C   0  0  0  0  0  0  0  0  0  0  0  0
   65.2353   29.7768   51.8068 H   0  0  0  0  0  0  0  0  0  0  0  0
   64.2560   31.3140   50.6350 C   0  0  0  0  0  0  0  0  0  0  0  0
   63.2604   30.8581   50.7394 H   0  0  0  0  0  0  0  0  0  0  0  0
  1  2  1  0
  2  3  2  0
  3  4  1  0
  3  5  1  0
  5  6  1  0
  5  7  2  0
  7  8  1  0
  8  9  2  0
  9 10  1  0
  8 11  1  0
 11 12  2  0
 12 13  1  0
 13 14  2  0
 14 15  1  0
 14 16  1  0
 16 17  1  0
 16 18  2  0
 18 19  1  0
 18 20  1  0
 20 21  1  0
 21 22  1  0
 21 23  1  0
 21 24  1  0
 20 25  2  0
 25 26  1  0
 11 27  1  0
 27 28  2  0
 27 29  1  0
 29 30  1  0
 30 31  2  0
 31 32  1  0
 31 33  1  0
 33 34  1  0
 33 35  2  0
 35 36  1  0
 36 37  1  0
 37 38  1  0
 37 39  1  0
 37 40  1  0
 40 41  1  0
 40 42  1  0
 40 43  1  0
 43 44  1  0
 43 45  1  0
 45 46  1  0
 45 47  1  0
 45 48  1  0
 48 49  1  0
 48 50  1  0
 48 51  1  0
 51 52  1  0
 52 53  1  0
 52 54  1  0
 52 55  1  0
 55 56  1  0
 55 57  1  0
 35 58  1  0
 58 59  1  0
 58 60  2  0
 60 61  1  0
  9  2  1  0
 25 13  1  0
 60 30  1  0
 29  7  1  0
 55 43  1  0
M  CHG  1  43   1
M  END
>  <UniqueID>  (1) 
1

>  <SMILES>  (1) 
O=C1/C(=N\c2cccc(C(F)(F)F)c2)c2ccccc2N1c1ccc(OCC[NH+]2CCOCC2)cc1

>  <Energy>  (1) 
126.2197414654718

>  <Genealogy>  (1) 
O=C1C(=Nc2cccc(C(F)(F)F)c2)c2ccccc2N1c1ccc(OCC[NH+]2CCOCC2)cc1 (protonated)
O=C1/C(=N\c2cccc(C(F)(F)F)c2)c2ccccc2N1c1ccc(OCC[NH+]2CCOCC2)cc1 (cis-trans isomerization)
O=C1/C(=N\c2cccc(C(F)(F)F)c2)c2ccccc2N1c1ccc(OCC[NH+]2CCOCC2)cc1 (3D coordinates assigned)
O=C1/C(=N\c2cccc(C(F)(F)F)c2)c2ccccc2N1c1ccc(OCC[NH+]2CCOCC2)cc1 (nonaromatic ring conformer: 126.2197414654718 kcal/mol)

>  <smiles>  (1) 
O=C1C(=Nc2cccc(C(F)(F)F)c2)c2ccccc2N1c1ccc(OCCN2CCOCC2)cc1

>  <score_type>  (1) 
oracle

>  <origin>  (1) 
adg

>  <m_score__min__energy>  (1) 
-7.3899999999999997

>  <m_primary>  (1) 
energy

$$$$
1:0
     RDKit          3D

 47 50  0  0  1  0  0  0  0  0999 V2000
   57.2500   24.5950   46.0100 C   0  0  0  0  0  0  0  0  0  0  0  0
   57.6050   25.6720   46.9090 N   0  0  0  0  0  0  0  0  0  0  0  0
   58.0030   26.9640   46.4660 C   0  0  0  0  0  0  0  0  0  0  0  0
   59.3210   27.4040   46.5730 C   0  0  0  0  0  0  0  0  0  0  0  0
   59.7180   28.6540   46.1480 C   0  0  0  0  0  0  0  0  0  0  0  0
   58.7920   29.5080   45.5950 C   0  0  0  0  0  0  0  0  0  0  0  0
   59.2230   30.8100   45.1560 N   0  0  0  0  0  0  0  0  0  0  0  0
   59.0850   31.7860   46.0200 C   0  0  0  0  0  0  0  0  0  0  0  0
   60.1400   32.5140   46.4390 N   0  0  0  0  0  0  0  0  0  0  0  0
   59.9860   33.5170   47.3310 C   0  0  0  0  0  0  0  0  0  0  0  0
   61.1080   34.2950   47.7800 N   0  0  0  0  0  0  0  0  0  0  0  0
   62.2260   33.6620   47.9450 C   0  0  0  0  0  0  0  0  0  0  0  0
   63.1010   33.8500   48.9930 C   0  0  0  0  0  0  0  0  0  0  0  0
   64.1420   32.9850   48.7780 C   0  0  0  0  0  0  0  0  0  0  0  0
   65.3340   32.8250   49.6470 C   0  0  0  0  0  0  0  0  0  0  0  0
   65.3070   31.9560   50.8440 C   0  0  0  0  0  0  0  0  0  0  0  0
   65.3090   33.4570   51.0190 C   0  0  0  0  0  0  0  0  0  0  0  0
   63.8810   32.3140   47.6380 N   0  0  0  0  0  0  0  0  0  0  0  0
   62.7300   32.7130   47.1260 N   0  0  0  0  0  0  0  0  0  0  0  0
   58.7390   33.8240   47.8360 C   0  0  0  0  0  0  0  0  0  0  0  0
   57.6580   33.0760   47.4040 C   0  0  0  0  0  0  0  0  0  0  0  0
   57.8650   32.0860   46.5150 N   0  0  0  0  0  0  0  0  0  0  0  0
   57.4810   29.1150   45.4710 C   0  0  0  0  0  0  0  0  0  0  0  0
   56.5880   30.0150   44.9070 O   0  0  0  0  0  0  0  0  0  0  0  0
   56.4470   30.1950   43.5240 C   0  0  0  0  0  0  0  0  0  0  0  0
   57.1110   27.8550   45.9060 C   0  0  0  0  0  0  0  0  0  0  0  0
   56.9584   23.7102   46.5949 H   0  0  0  0  0  0  0  0  0  0  0  0
   56.4079   24.9092   45.3759 H   0  0  0  0  0  0  0  0  0  0  0  0
   58.1139   24.3469   45.3759 H   0  0  0  0  0  0  0  0  0  0  0  0
   57.5710   25.5070   47.9380 H   0  0  0  0  0  0  0  0  0  0  0  0
   60.0712   26.7300   47.0122 H   0  0  0  0  0  0  0  0  0  0  0  0
   60.7678   28.9663   46.2503 H   0  0  0  0  0  0  0  0  0  0  0  0
   62.9869   34.5521   49.8321 H   0  0  0  0  0  0  0  0  0  0  0  0
   65.9881   32.8728   48.7639 H   0  0  0  0  0  0  0  0  0  0  0  0
   64.4018   31.3777   51.0812 H   0  0  0  0  0  0  0  0  0  0  0  0
   65.9340   31.1326   51.2168 H   0  0  0  0  0  0  0  0  0  0  0  0
   64.4055   33.9743   51.3740 H   0  0  0  0  0  0  0  0  0  0  0  0
   65.9318   34.1842   51.5607 H   0  0  0  0  0  0  0  0  0  0  0  0
   64.5190   31.5750   47.2240 H   0  0  0  0  0  0  0  0  0  0  0  0
   62.3150   32.3280   46.2320 H   0  0  0  0  0  0  0  0  0  0  0  0
   58.6080   34.6404   48.5615 H   0  0  0  0  0  0  0  0  0  0  0  0
   56.6462   33.2866   47.7806 H   0  0  0  0  0  0  0  0  0  0  0  0
   57.0230   31.5370   46.2070 H   0  0  0  0  0  0  0  0  0  0  0  0
   55.7791   31.0476   43.3314 H   0  0  0  0  0  0  0  0  0  0  0  0
   57.4326   30.3932   43.0777 H   0  0  0  0  0  0  0  0  0  0  0  0
   56.0186   29.2855   43.0777 H   0  0  0  0  0  0  0  0  0  0  0  0
   56.0593   27.5502   45.8007 H   0  0  0  0  0  0  0  0  0  0  0  0
  1  2  1  0
  2  3  1  0
  3  4  2  0
  4  5  1  0
  5  6  2  0
  6  7  1  0
  7  8  2  0
  8  9  1  0
  9 10  2  0
 10 11  1  0
 11 12  2  0
 12 13  1  0
 13 14  2  0
 14 15  1  0
 15 16  1  0
 16 17  1  0
 14 18  1  0
 18 19  1  0
 10 20  1  0
 20 21  2  0
 21 22  1  0
  6 23  1  0
 23 24  1  0
 24 25  1  0
 23 26  2  0
 26  3  1  0
 22  8  1  0
 19 12  1  0
 17 15  1  0
  1 27  1  0
  1 28  1  0
  1 29  1  0
  2 30  1  0
  4 31  1  0
  5 32  1  0
 13 33  1  0
 15 34  1  0
 16 35  1  0
 16 36  1  0
 17 37  1  0
 17 38  1  0
 18 39  1  0
 19 40  1  0
 20 41  1  0
 21 42  1  0
 22 43  1  0
 25 44  1  0
 25 45  1  0
 25 46  1  0
 26 47  1  0
M  END
>  <smiles>  (2) 
CNc1ccc(N=c2nc(N=c3cc(C4CC4)[nH][nH]3)cc[nH]2)c(OC)c1

>  <score_type>  (2) 
oracle

>  <origin>  (2) 
adg

>  <m_score__min__energy>  (2) 
-8.3200000000000003

>  <m_primary>  (2) 
energy

$$$$
2:0
     RDKit          3D

 48 51  0  0  0  0  0  0  0  0999 V2000
   57.5940   34.2340   46.1080 O   0  0  0  0  0  0  0  0  0  0  0  0
   58.1010   33.2270   46.6740 C   0  0  0  0  0  0  0  0  0  0  0  0
   58.8530   33.4060   47.9610 C   0  0  0  0  0  0  0  0  0  0  0  0
   59.9320   32.3990   48.0760 N   0  0  0  0  0  0  0  0  0  0  0  0
   59.6280   31.1370   48.5430 C   0  0  0  0  0  0  0  0  0  0  0  0
   58.4490   30.8480   48.8900 O   0  0  0  0  0  0  0  0  0  0  0  0
   60.6240   30.1500   48.6230 C   0  0  0  0  0  0  0  0  0  0  0  0
   60.3170   28.7960   49.1420 C   0  0  0  0  0  0  0  0  0  0  0  0
   59.9080   27.7600   48.3940 C   0  0  0  0  0  0  0  0  0  0  0  0
   59.4640   27.8500   46.9860 C   0  0  0  0  0  0  0  0  0  0  0  0
   60.3340   28.3870   46.0240 C   0  0  0  0  0  0  0  0  0  0  0  0
   59.9440   28.4600   44.6830 C   0  0  0  0  0  0  0  0  0  0  0  0
   58.6910   27.9820   44.2900 C   0  0  0  0  0  0  0  0  0  0  0  0
   57.8310   27.4170   45.2350 C   0  0  0  0  0  0  0  0  0  0  0  0
   58.2180   27.3390   46.5770 C   0  0  0  0  0  0  0  0  0  0  0  0
   61.8930   30.4600   48.2600 N   0  0  0  0  0  0  0  0  0  0  0  0
   62.2220   31.6830   47.7880 C   0  0  0  0  0  0  0  0  0  0  0  0
   63.5410   31.9370   47.3980 C   0  0  0  0  0  0  0  0  0  0  0  0
   63.8940   33.1870   46.8920 C   0  0  0  0  0  0  0  0  0  0  0  0
   62.9310   34.1880   46.7730 C   0  0  0  0  0  0  0  0  0  0  0  0
   61.6090   33.9470   47.1610 C   0  0  0  0  0  0  0  0  0  0  0  0
   61.2280   32.6860   47.6810 C   0  0  0  0  0  0  0  0  0  0  0  0
   57.9070   31.9140   46.1290 N   0  0  0  0  0  0  0  0  0  0  0  0
   57.6160   31.6550   44.7450 C   0  0  0  0  0  0  0  0  0  0  0  0
   56.7590   30.6060   44.3600 C   0  0  0  0  0  0  0  0  0  0  0  0
   56.4690   30.3940   43.0080 C   0  0  0  0  0  0  0  0  0  0  0  0
   57.0190   31.2300   42.0340 C   0  0  0  0  0  0  0  0  0  0  0  0
   57.8530   32.2860   42.4090 C   0  0  0  0  0  0  0  0  0  0  0  0
   58.1450   32.5020   43.7600 C   0  0  0  0  0  0  0  0  0  0  0  0
   59.2941   34.4134   47.9853 H   0  0  0  0  0  0  0  0  0  0  0  0
   58.1552   33.2769   48.8014 H   0  0  0  0  0  0  0  0  0  0  0  0
   60.4334   28.6277   50.2228 H   0  0  0  0  0  0  0  0  0  0  0  0
   59.9024   26.7658   48.8647 H   0  0  0  0  0  0  0  0  0  0  0  0
   61.3267   28.7519   46.3263 H   0  0  0  0  0  0  0  0  0  0  0  0
   60.6248   28.8945   43.9362 H   0  0  0  0  0  0  0  0  0  0  0  0
   58.3818   28.0506   43.2366 H   0  0  0  0  0  0  0  0  0  0  0  0
   56.8484   27.0330   44.9234 H   0  0  0  0  0  0  0  0  0  0  0  0
   57.5462   26.8767   47.3152 H   0  0  0  0  0  0  0  0  0  0  0  0
   64.3019   31.1481   47.4908 H   0  0  0  0  0  0  0  0  0  0  0  0
   64.9323   33.3836   46.5866 H   0  0  0  0  0  0  0  0  0  0  0  0
   63.2124   35.1728   46.3717 H   0  0  0  0  0  0  0  0  0  0  0  0
   60.8580   34.7446   47.0613 H   0  0  0  0  0  0  0  0  0  0  0  0
   57.9520   31.1010   46.7850 H   0  0  0  0  0  0  0  0  0  0  0  0
   56.3161   29.9512   45.1249 H   0  0  0  0  0  0  0  0  0  0  0  0
   55.8066   29.5673   42.7116 H   0  0  0  0  0  0  0  0  0  0  0  0
   56.7954   31.0569   40.9710 H   0  0  0  0  0  0  0  0  0  0  0  0
   58.2804   32.9481   41.6416 H   0  0  0  0  0  0  0  0  0  0  0  0
   58.7935   33.3413   44.0516 H   0  0  0  0  0  0  0  0  0  0  0  0
  1  2  2  0
  2  3  1  0
  3  4  1  0
  4  5  1  0
  5  6  2  0
  5  7  1  0
  7  8  1  0
  8  9  2  3
  9 10  1  0
 10 11  2  0
 11 12  1  0
 12 13  2  0
 13 14  1  0
 14 15  2  0
  7 16  2  0
 16 17  1  0
 17 18  2  0
 18 19  1  0
 19 20  2  0
 20 21  1  0
 21 22  2  0
  2 23  1  0
 23 24  1  0
 24 25  2  0
 25 26  1  0
 26 27  2  0
 27 28  1  0
 28 29  2  0
 22  4  1  0
 29 24  1  0
 15 10  1  0
 22 17  1  0
  3 30  1  0
  3 31  1  0
  8 32  1  0
  9 33  1  0
 11 34  1  0
 12 35  1  0
 13 36  1  0
 14 37  1  0
 15 38  1  0
 18 39  1  0
 19 40  1  0
 20 41  1  0
 21 42  1  0
 23 43  1  0
 25 44  1  0
 26 45  1  0
 27 46  1  0
 28 47  1  0
 29 48  1  0
M  END
>  <UniqueID>  (3) 
2

>  <SMILES>  (3) 
O=C(Cn1c(=O)c(C=Cc2ccccc2)nc2ccccc21)Nc1ccccc1

>  <Energy>  (3) 
73.02036383459615

>  <Genealogy>  (3) 
O=C(Cn1c(=O)c(C=Cc2ccccc2)nc2ccccc21)Nc1ccccc1 (3D coordinates assigned)
O=C(Cn1c(=O)c(C=Cc2ccccc2)nc2ccccc21)Nc1ccccc1 (optimized conformer: 73.02036383459615 kcal/mol)

>  <smiles>  (3) 
O=C(Cn1c(=O)c(C=Cc2ccccc2)nc2ccccc21)Nc1ccccc1

>  <score_type>  (3) 
oracle

>  <origin>  (3) 
adg

>  <m_score__min__energy>  (3) 
-8.6099999999999994

>  <m_primary>  (3) 
energy

$$$$
3:0
     RDKit          3D

 52 54  0  0  0  0  0  0  0  0999 V2000
   59.6700   34.2880   47.9210 C   0  0  0  0  0  0  0  0  0  0  0  0
   58.3860   33.9010   47.4440 O   0  0  0  0  0  0  0  0  0  0  0  0
   58.1550   33.2670   46.2130 C   0  0  0  0  0  0  0  0  0  0  0  0
   58.3070   34.0150   45.0430 C   0  0  0  0  0  0  0  0  0  0  0  0
   58.0870   33.4330   43.7930 C   0  0  0  0  0  0  0  0  0  0  0  0
   57.7100   32.0810   43.6920 C   0  0  0  0  0  0  0  0  0  0  0  0
   57.4750   31.4680   42.4500 O   0  0  0  0  0  0  0  0  0  0  0  0
   57.4840   32.1480   41.1990 C   0  0  0  0  0  0  0  0  0  0  0  0
   57.5620   31.3190   44.8670 C   0  0  0  0  0  0  0  0  0  0  0  0
   57.0940   29.6200   44.7660 S   0  0  0  0  0  0  0  0  0  0  0  0
   57.2730   29.1490   43.3500 O   0  0  0  0  0  0  0  0  0  0  0  0
   55.6580   29.4530   45.1760 O   0  0  0  0  0  0  0  0  0  0  0  0
   58.1020   28.6960   45.8330 N   0  0  0  0  0  0  0  0  0  0  0  0
   59.0240   29.2460   46.7820 C   0  0  0  0  0  0  0  0  0  0  0  0
   58.7510   29.2740   48.1610 C   0  0  0  0  0  0  0  0  0  0  0  0
   59.6770   29.8230   49.0530 C   0  0  0  0  0  0  0  0  0  0  0  0
   60.8900   30.3600   48.5840 C   0  0  0  0  0  0  0  0  0  0  0  0
   61.8860   30.9440   49.5130 C   0  0  0  0  0  0  0  0  0  0  0  0
   62.3390   30.2290   50.4480 O   0  0  0  0  0  0  0  0  0  0  0  0
   62.3330   32.3050   49.3680 N   0  0  0  0  0  0  0  0  0  0  0  0
   63.3630   32.9010   50.1750 C   0  0  0  0  0  0  0  0  0  0  0  0
   63.0800   34.0720   50.8940 C   0  0  0  0  0  0  0  0  0  0  0  0
   64.0720   34.6870   51.6630 C   0  0  0  0  0  0  0  0  0  0  0  0
   65.3580   34.1460   51.7110 C   0  0  0  0  0  0  0  0  0  0  0  0
   65.6610   32.9870   50.9850 C   0  0  0  0  0  0  0  0  0  0  0  0
   67.2920   32.3250   51.0170 S   0  0  0  0  0  0  0  0  0  0  0  0
   67.8880   32.3320   52.6390 N   0  0  0  0  0  0  0  0  0  0  0  0
   67.2780   30.9150   50.4950 O   0  0  0  0  0  0  0  0  0  0  0  0
   68.1960   33.1520   50.1460 O   0  0  0  0  0  0  0  0  0  0  0  0
   64.6680   32.3760   50.2070 C   0  0  0  0  0  0  0  0  0  0  0  0
   61.1640   30.3140   47.2060 C   0  0  0  0  0  0  0  0  0  0  0  0
   60.2350   29.7670   46.3150 C   0  0  0  0  0  0  0  0  0  0  0  0
   57.7790   31.9130   46.1190 C   0  0  0  0  0  0  0  0  0  0  0  0
   59.6680   34.2874   49.0210 H   0  0  0  0  0  0  0  0  0  0  0  0
   60.4263   33.5779   47.5553 H   0  0  0  0  0  0  0  0  0  0  0  0
   59.9080   35.2978   47.5553 H   0  0  0  0  0  0  0  0  0  0  0  0
   58.6028   35.0725   45.1071 H   0  0  0  0  0  0  0  0  0  0  0  0
   58.2092   34.0355   42.8809 H   0  0  0  0  0  0  0  0  0  0  0  0
   57.4984   33.2342   41.3722 H   0  0  0  0  0  0  0  0  0  0  0  0
   58.3784   31.8557   40.6292 H   0  0  0  0  0  0  0  0  0  0  0  0
   56.5822   31.8795   40.6292 H   0  0  0  0  0  0  0  0  0  0  0  0
   57.8041   28.8619   48.5399 H   0  0  0  0  0  0  0  0  0  0  0  0
   59.4554   29.8352   50.1304 H   0  0  0  0  0  0  0  0  0  0  0  0
   61.8590   32.9260   48.6750 H   0  0  0  0  0  0  0  0  0  0  0  0
   62.0713   34.5088   50.8523 H   0  0  0  0  0  0  0  0  0  0  0  0
   63.8388   35.5993   52.2316 H   0  0  0  0  0  0  0  0  0  0  0  0
   66.1350   34.6309   52.3202 H   0  0  0  0  0  0  0  0  0  0  0  0
   67.3650   33.0750   53.1530 H   0  0  0  0  0  0  0  0  0  0  0  0
   64.9107   31.4797   49.6173 H   0  0  0  0  0  0  0  0  0  0  0  0
   62.1165   30.7113   46.8255 H   0  0  0  0  0  0  0  0  0  0  0  0
   60.4586   29.7464   45.2382 H   0  0  0  0  0  0  0  0  0  0  0  0
   57.6545   31.3165   47.0348 H   0  0  0  0  0  0  0  0  0  0  0  0
  1  2  1  0
  2  3  1  0
  3  4  2  0
  4  5  1  0
  5  6  2  0
  6  7  1  0
  7  8  1  0
  6  9  1  0
  9 10  1  0
 10 11  2  0
 10 12  2  0
 10 13  1  0
 13 14  1  0
 14 15  2  0
 15 16  1  0
 16 17  2  0
 17 18  1  0
 18 19  2  0
 18 20  1  0
 20 21  1  0
 21 22  2  0
 22 23  1  0
 23 24  2  0
 24 25  1  0
 25 26  1  0
 26 27  1  0
 26 28  2  0
 26 29  2  0
 25 30  2  0
 17 31  1  0
 31 32  2  0
  9 33  2  0
 33  3  1  0
 32 14  1  0
 30 21  1  0
  1 34  1  0
  1 35  1  0
  1 36  1  0
  4 37  1  0
  5 38  1  0
  8 39  1  0
  8 40  1  0
  8 41  1  0
 15 42  1  0
 16 43  1  0
 20 44  1  0
 22 45  1  0
 23 46  1  0
 24 47  1  0
 27 48  1  0
 30 49  1  0
 31 50  1  0
 32 51  1  0
 33 52  1  0
M  CHG  2  13  -1  27  -1
M  END
>  <UniqueID>  (4) 
3

>  <SMILES>  (4) 
COc1ccc(OC)c(S(=O)(=O)[N-]c2ccc(C(=O)Nc3cccc(S([NH-])(=O)=O)c3)cc2)c1

>  <Energy>  (4) 
64.47166758692005

>  <Genealogy>  (4) 
COc1ccc(OC)c(S(=O)(=O)[N-]c2ccc(C(=O)Nc3cccc(S([NH-])(=O)=O)c3)cc2)c1 (protonated)
COc1ccc(OC)c(S(=O)(=O)[N-]c2ccc(C(=O)Nc3cccc(S([NH-])(=O)=O)c3)cc2)c1 (3D coordinates assigned)
COc1ccc(OC)c(S(=O)(=O)[N-]c2ccc(C(=O)Nc3cccc(S([NH-])(=O)=O)c3)cc2)c1 (optimized conformer: 64.47166758692005 kcal/mol)

>  <smiles>  (4) 
COc1ccc(OC)c(S(=O)(=O)Nc2ccc(C(=O)Nc3cccc(S(N)(=O)=O)c3)cc2)c1

>  <score_type>  (4) 
oracle

>  <origin>  (4) 
adg

>  <m_score__min__energy>  (4) 
-10.69

>  <m_primary>  (4) 
energy

$$$$
4:0
     RDKit          3D

 54 56  0  0  0  0  0  0  0  0999 V2000
   59.2490   30.7430   50.5330 C   0  0  0  0  0  0  0  0  0  0  0  0
   60.3150   29.6910   50.8140 C   0  0  0  0  0  0  0  0  0  0  0  0
   60.7020   29.0330   49.6100 O   0  0  0  0  0  0  0  0  0  0  0  0
   60.7920   29.6770   48.3690 C   0  0  0  0  0  0  0  0  0  0  0  0
   61.7650   30.4460   48.1290 O   0  0  0  0  0  0  0  0  0  0  0  0
   59.7740   29.4640   47.3700 N   0  0  0  0  0  0  0  0  0  0  0  0
   58.5540   28.7200   47.7250 C   0  0  0  0  0  0  0  0  0  0  0  0
   58.0210   27.9450   46.5180 C   0  0  0  0  0  0  0  0  0  0  0  0
   57.9480   28.8420   45.3600 N   0  0  0  0  0  0  0  0  0  0  0  0
   56.6710   29.2440   44.8090 C   0  0  0  0  0  0  0  0  0  0  0  0
   55.6200   28.6420   45.1580 O   0  0  0  0  0  0  0  0  0  0  0  0
   56.5450   30.3720   43.8270 C   0  0  0  0  0  0  0  0  0  0  0  0
   56.2790   31.5820   44.5300 O   0  0  0  0  0  0  0  0  0  0  0  0
   57.2640   32.4600   45.0010 C   0  0  0  0  0  0  0  0  0  0  0  0
   57.4070   32.6160   46.3860 C   0  0  0  0  0  0  0  0  0  0  0  0
   58.3850   33.4680   46.9070 C   0  0  0  0  0  0  0  0  0  0  0  0
   59.2290   34.1860   46.0460 C   0  0  0  0  0  0  0  0  0  0  0  0
   60.3170   35.0610   46.6080 C   0  0  0  0  0  0  0  0  0  0  0  0
   61.3810   34.2130   47.2510 C   0  0  0  0  0  0  0  0  0  0  0  0
   61.3010   33.8940   48.6160 C   0  0  0  0  0  0  0  0  0  0  0  0
   62.3120   33.1410   49.2230 C   0  0  0  0  0  0  0  0  0  0  0  0
   63.4110   32.7100   48.4740 C   0  0  0  0  0  0  0  0  0  0  0  0
   63.5020   33.0340   47.1170 C   0  0  0  0  0  0  0  0  0  0  0  0
   62.4940   33.7870   46.5070 C   0  0  0  0  0  0  0  0  0  0  0  0
   59.0910   34.0300   44.6580 C   0  0  0  0  0  0  0  0  0  0  0  0
   58.1120   33.1780   44.1370 C   0  0  0  0  0  0  0  0  0  0  0  0
   59.2210   29.4600   44.9660 C   0  0  0  0  0  0  0  0  0  0  0  0
   59.7710   30.2730   46.1390 C   0  0  0  0  0  0  0  0  0  0  0  0
   58.8564   31.1305   51.4847 H   0  0  0  0  0  0  0  0  0  0  0  0
   59.6914   31.5682   49.9557 H   0  0  0  0  0  0  0  0  0  0  0  0
   58.4297   30.2897   49.9557 H   0  0  0  0  0  0  0  0  0  0  0  0
   61.1953   30.1784   51.2583 H   0  0  0  0  0  0  0  0  0  0  0  0
   59.9016   28.9446   51.5083 H   0  0  0  0  0  0  0  0  0  0  0  0
   58.7857   28.0123   48.5346 H   0  0  0  0  0  0  0  0  0  0  0  0
   57.7860   29.4365   48.0517 H   0  0  0  0  0  0  0  0  0  0  0  0
   58.6968   27.1071   46.2917 H   0  0  0  0  0  0  0  0  0  0  0  0
   57.0183   27.5536   46.7448 H   0  0  0  0  0  0  0  0  0  0  0  0
   57.4835   30.4740   43.2624 H   0  0  0  0  0  0  0  0  0  0  0  0
   55.7204   30.1626   43.1297 H   0  0  0  0  0  0  0  0  0  0  0  0
   56.7445   32.0637   47.0687 H   0  0  0  0  0  0  0  0  0  0  0  0
   58.4935   33.5761   47.9963 H   0  0  0  0  0  0  0  0  0  0  0  0
   60.7645   35.6524   45.7956 H   0  0  0  0  0  0  0  0  0  0  0  0
   59.8848   35.7322   47.3648 H   0  0  0  0  0  0  0  0  0  0  0  0
   60.4410   34.2371   49.2099 H   0  0  0  0  0  0  0  0  0  0  0  0
   62.2420   32.8877   50.2912 H   0  0  0  0  0  0  0  0  0  0  0  0
   64.2039   32.1161   48.9522 H   0  0  0  0  0  0  0  0  0  0  0  0
   64.3677   32.6961   46.5285 H   0  0  0  0  0  0  0  0  0  0  0  0
   62.5727   34.0467   45.4410 H   0  0  0  0  0  0  0  0  0  0  0  0
   59.7562   34.5806   43.9766 H   0  0  0  0  0  0  0  0  0  0  0  0
   58.0043   33.0686   43.0478 H   0  0  0  0  0  0  0  0  0  0  0  0
   59.9417   28.6752   44.6926 H   0  0  0  0  0  0  0  0  0  0  0  0
   59.0584   30.1216   44.1024 H   0  0  0  0  0  0  0  0  0  0  0  0
   60.7997   30.5883   45.9103 H   0  0  0  0  0  0  0  0  0  0  0  0
   59.1303   31.1538   46.2933 H   0  0  0  0  0  0  0  0  0  0  0  0
  1  2  1  0
  2  3  1  0
  3  4  1  0
  4  5  2  0
  4  6  1  0
  6  7  1  0
  7  8  1  0
  8  9  1  0
  9 10  1  0
 10 11  2  0
 10 12  1  0
 12 13  1  0
 13 14  1  0
 14 15  2  0
 15 16  1  0
 16 17  2  0
 17 18  1  0
 18 19  1  0
 19 20  2  0
 20 21  1  0
 21 22  2  0
 22 23  1  0
 23 24  2  0
 17 25  1  0
 25 26  2  0
  9 27  1  0
 27 28  1  0
 28  6  1  0
 26 14  1  0
 24 19  1  0
  1 29  1  0
  1 30  1  0
  1 31  1  0
  2 32  1  0
  2 33  1  0
  7 34  1  0
  7 35  1  0
  8 36  1  0
  8 37  1  0
 12 38  1  0
 12 39  1  0
 15 40  1  0
 16 41  1  0
 18 42  1  0
 18 43  1  0
 20 44  1  0
 21 45  1  0
 22 46  1  0
 23 47  1  0
 24 48  1  0
 25 49  1  0
 26 50  1  0
 27 51  1  0
 27 52  1  0
 28 53  1  0
 28 54  1  0
M  END
>  <UniqueID>  (5) 
4

>  <SMILES>  (5) 
CCOC(=O)N1CCN(C(=O)COc2ccc(Cc3ccccc3)cc2)CC1

>  <Energy>  (5) 
48.891121946726045

>  <Genealogy>  (5) 
CCOC(=O)N1CCN(C(=O)COc2ccc(Cc3ccccc3)cc2)CC1 (3D coordinates assigned)
CCOC(=O)N1CCN(C(=O)COc2ccc(Cc3ccccc3)cc2)CC1 (nonaromatic ring conformer: 48.891121946726045 kcal/mol)

>  <smiles>  (5) 
CCOC(=O)N1CCN(C(=O)COc2ccc(Cc3ccccc3)cc2)CC1

>  <score_type>  (5) 
oracle

>  <origin>  (5) 
adg

>  <m_score__min__energy>  (5) 
-8.1099999999999994

>  <m_primary>  (5) 
energy

$$$$
5:0
     RDKit          3D

 43 44  0  0  0  0  0  0  0  0999 V2000
   61.2070   33.3080   48.8150 C   0  0  0  0  0  0  0  0  0  0  0  0
   61.4960   32.0400   48.1360 N   0  0  0  0  0  0  0  0  0  0  0  0
   62.7710   31.8580   47.4340 C   0  0  0  0  0  0  0  0  0  0  0  0
   60.5060   30.9880   48.1660 C   0  0  0  0  0  0  0  0  0  0  0  0
   59.3960   31.1900   48.7330 O   0  0  0  0  0  0  0  0  0  0  0  0
   60.7680   29.6270   47.5900 C   0  0  0  0  0  0  0  0  0  0  0  0
   60.3320   29.6220   45.8210 S   0  0  0  0  0  0  0  0  0  0  0  0
   59.0540   28.3700   46.0140 C   0  0  0  0  0  0  0  0  0  0  0  0
   59.1160   27.5240   47.1290 C   0  0  0  0  0  0  0  0  0  0  0  0
   58.1400   26.5470   47.3300 C   0  0  0  0  0  0  0  0  0  0  0  0
   57.1010   26.4010   46.4130 C   0  0  0  0  0  0  0  0  0  0  0  0
   57.0290   27.2350   45.2950 C   0  0  0  0  0  0  0  0  0  0  0  0
   57.9980   28.2370   45.0840 C   0  0  0  0  0  0  0  0  0  0  0  0
   57.9230   29.0950   43.9330 N   0  0  0  0  0  0  0  0  0  0  0  0
   56.8730   30.4740   43.8460 S   0  0  0  0  0  0  0  0  0  0  0  0
   55.5610   30.1450   44.5010 O   0  0  0  0  0  0  0  0  0  0  0  0
   56.6200   30.8160   42.4050 O   0  0  0  0  0  0  0  0  0  0  0  0
   57.6350   31.8600   44.6260 C   0  0  0  0  0  0  0  0  0  0  0  0
   58.0980   32.9430   43.8690 C   0  0  0  0  0  0  0  0  0  0  0  0
   58.6730   34.0490   44.5030 C   0  0  0  0  0  0  0  0  0  0  0  0
   58.7950   34.0850   45.9040 C   0  0  0  0  0  0  0  0  0  0  0  0
   59.3850   35.2230   46.5610 N   0  0  0  0  0  0  0  0  0  0  0  0
   59.3500   35.3290   47.8050 O   0  0  0  0  0  0  0  0  0  0  0  0
   59.9970   36.2140   45.8280 O   0  0  0  0  0  0  0  0  0  0  0  0
   58.3320   32.9910   46.6550 C   0  0  0  0  0  0  0  0  0  0  0  0
   57.7570   31.8880   46.0190 C   0  0  0  0  0  0  0  0  0  0  0  0
   61.2414   33.1569   49.9040 H   0  0  0  0  0  0  0  0  0  0  0  0
   61.9571   34.0585   48.5250 H   0  0  0  0  0  0  0  0  0  0  0  0
   60.2058   33.6593   48.5250 H   0  0  0  0  0  0  0  0  0  0  0  0
   63.5811   31.7424   48.1691 H   0  0  0  0  0  0  0  0  0  0  0  0
   62.7171   30.9584   46.8032 H   0  0  0  0  0  0  0  0  0  0  0  0
   62.9710   32.7367   46.8032 H   0  0  0  0  0  0  0  0  0  0  0  0
   61.8333   29.3787   47.7058 H   0  0  0  0  0  0  0  0  0  0  0  0
   60.1579   28.8808   48.1201 H   0  0  0  0  0  0  0  0  0  0  0  0
   59.9393   27.6305   47.8507 H   0  0  0  0  0  0  0  0  0  0  0  0
   58.1909   25.8921   48.2124 H   0  0  0  0  0  0  0  0  0  0  0  0
   56.3355   25.6268   46.5701 H   0  0  0  0  0  0  0  0  0  0  0  0
   56.2090   27.1089   44.5727 H   0  0  0  0  0  0  0  0  0  0  0  0
   58.5870   28.9640   43.1390 H   0  0  0  0  0  0  0  0  0  0  0  0
   58.0093   32.9239   42.7728 H   0  0  0  0  0  0  0  0  0  0  0  0
   59.0325   34.8971   43.9017 H   0  0  0  0  0  0  0  0  0  0  0  0
   58.4230   33.0033   47.7512 H   0  0  0  0  0  0  0  0  0  0  0  0
   57.3984   31.0372   46.6169 H   0  0  0  0  0  0  0  0  0  0  0  0
  1  2  1  0
  2  3  1  0
  2  4  1  0
  4  5  2  0
  4  6  1  0
  6  7  1  0
  7  8  1  0
  8  9  2  0
  9 10  1  0
 10 11  2  0
 11 12  1  0
 12 13  2  0
 13 14  1  0
 14 15  1  0
 15 16  2  0
 15 17  2  0
 15 18  1  0
 18 19  2  0
 19 20  1  0
 20 21  2  0
 21 22  1  0
 22 23  2  0
 22 24  1  0
 21 25  1  0
 25 26  2  0
 13  8  1  0
 26 18  1  0
  1 27  1  0
  1 28  1  0
  1 29  1  0
  3 30  1  0
  3 31  1  0
  3 32  1  0
  6 33  1  0
  6 34  1  0
  9 35  1  0
 10 36  1  0
 11 37  1  0
 12 38  1  0
 14 39  1  0
 19 40  1  0
 20 41  1  0
 25 42  1  0
 26 43  1  0
M  CHG  2  22   1  24  -1
M  END
>  <UniqueID>  (6) 
5

>  <SMILES>  (6) 
CN(C)C(=O)CSc1ccccc1NS(=O)(=O)c1ccc([N+](=O)[O-])cc1

>  <Energy>  (6) 
39.25058193557431

>  <Genealogy>  (6) 
CN(C)C(=O)CSc1ccccc1NS(=O)(=O)c1ccc([N+](=O)[O-])cc1 (3D coordinates assigned)
CN(C)C(=O)CSc1ccccc1NS(=O)(=O)c1ccc([N+](=O)[O-])cc1 (optimized conformer: 39.25058193557431 kcal/mol)

>  <smiles>  (6) 
CN(C)C(=O)CSc1ccccc1NS(=O)(=O)c1ccc([N+](=O)[O-])cc1

>  <score_type>  (6) 
oracle

>  <origin>  (6) 
adg

>  <m_score__min__energy>  (6) 
-8.6500000000000004

>  <m_primary>  (6) 
energy

$$$$
6:0
     RDKit          3D

 41 42  0  0  0  0  0  0  0  0999 V2000
   56.9530   21.5270   42.9550 C   0  0  0  0  0  0  0  0  0  0  0  0
   56.7480   22.9180   43.5450 C   0  0  0  0  0  0  0  0  0  0  0  0
   56.3480   22.8410   45.0200 C   0  0  0  0  0  0  0  0  0  0  0  0
   55.6330   24.0550   45.4140 N   0  0  0  0  0  0  0  0  0  0  0  0
   56.1370   25.2380   45.8170 C   0  0  0  0  0  0  0  0  0  0  0  0
   57.8800   25.5740   46.0860 S   0  0  0  0  0  0  0  0  0  0  0  0
   58.1540   26.3270   44.4430 C   0  0  0  0  0  0  0  0  0  0  0  0
   58.1280   27.8290   44.5140 C   0  0  0  0  0  0  0  0  0  0  0  0
   59.2230   28.4480   44.5280 O   0  0  0  0  0  0  0  0  0  0  0  0
   56.9110   28.5920   44.5320 N   0  0  0  0  0  0  0  0  0  0  0  0
   56.7330   29.9850   44.2470 C   0  0  0  0  0  0  0  0  0  0  0  0
   55.6570   30.5740   44.5380 O   0  0  0  0  0  0  0  0  0  0  0  0
   57.8010   30.7100   43.6270 N   0  0  0  0  0  0  0  0  0  0  0  0
   57.7050   32.1310   43.3010 C   0  0  0  0  0  0  0  0  0  0  0  0
   58.0440   32.9660   44.5070 C   0  0  0  0  0  0  0  0  0  0  0  0
   57.4110   32.7340   45.7390 C   0  0  0  0  0  0  0  0  0  0  0  0
   57.7490   33.5010   46.8590 C   0  0  0  0  0  0  0  0  0  0  0  0
   58.7200   34.5010   46.7570 C   0  0  0  0  0  0  0  0  0  0  0  0
   59.3570   34.7340   45.5350 C   0  0  0  0  0  0  0  0  0  0  0  0
   59.0240   33.9690   44.4130 C   0  0  0  0  0  0  0  0  0  0  0  0
   55.1690   26.1660   45.9620 N   0  0  0  0  0  0  0  0  0  0  0  0
   54.0210   25.5830   45.6450 N   0  0  0  0  0  0  0  0  0  0  0  0
   54.3190   24.3150   45.3090 C   0  0  0  0  0  0  0  0  0  0  0  0
   53.4600   23.4770   44.9270 O   0  0  0  0  0  0  0  0  0  0  0  0
   57.0608   20.7955   43.7694 H   0  0  0  0  0  0  0  0  0  0  0  0
   56.0845   21.2601   42.3350 H   0  0  0  0  0  0  0  0  0  0  0  0
   57.8616   21.5220   42.3350 H   0  0  0  0  0  0  0  0  0  0  0  0
   57.6855   23.4867   43.4568 H   0  0  0  0  0  0  0  0  0  0  0  0
   55.9386   23.4153   42.9905 H   0  0  0  0  0  0  0  0  0  0  0  0
   55.6956   21.9689   45.1744 H   0  0  0  0  0  0  0  0  0  0  0  0
   57.2560   22.7444   45.6334 H   0  0  0  0  0  0  0  0  0  0  0  0
   59.1336   26.0041   44.0607 H   0  0  0  0  0  0  0  0  0  0  0  0
   57.3450   25.9990   43.7737 H   0  0  0  0  0  0  0  0  0  0  0  0
   58.6750   30.1960   43.3760 H   0  0  0  0  0  0  0  0  0  0  0  0
   58.4077   32.3654   42.4878 H   0  0  0  0  0  0  0  0  0  0  0  0
   56.6759   32.3578   42.9856 H   0  0  0  0  0  0  0  0  0  0  0  0
   56.6472   31.9469   45.8235 H   0  0  0  0  0  0  0  0  0  0  0  0
   57.2497   33.3167   47.8217 H   0  0  0  0  0  0  0  0  0  0  0  0
   58.9828   35.1045   47.6383 H   0  0  0  0  0  0  0  0  0  0  0  0
   60.1217   35.5207   45.4558 H   0  0  0  0  0  0  0  0  0  0  0  0
   59.5305   34.1527   43.4540 H   0  0  0  0  0  0  0  0  0  0  0  0
  1  2  1  0
  2  3  1  0
  3  4  1  0
  4  5  1  0
  5  6  1  0
  6  7  1  0
  7  8  1  0
  8  9  2  0
  8 10  1  0
 10 11  1  0
 11 12  2  0
 11 13  1  0
 13 14  1  0
 14 15  1  0
 15 16  2  0
 16 17  1  0
 17 18  2  0
 18 19  1  0
 19 20  2  0
  5 21  2  0
 21 22  1  0
 22 23  1  0
 23 24  2  0
 23  4  1  0
 20 15  1  0
  1 25  1  0
  1 26  1  0
  1 27  1  0
  2 28  1  0
  2 29  1  0
  3 30  1  0
  3 31  1  0
  7 32  1  0
  7 33  1  0
 13 34  1  0
 14 35  1  0
 14 36  1  0
 16 37  1  0
 17 38  1  0
 18 39  1  0
 19 40  1  0
 20 41  1  0
M  CHG  2  10  -1  22  -1
M  END
>  <UniqueID>  (7) 
6

>  <SMILES>  (7) 
CCCn1c(SCC(=O)[N-]C(=O)NCc2ccccc2)n[n-]c1=O

>  <Energy>  (7) 
65.10413435200188

>  <Genealogy>  (7) 
CCCn1c(SCC(=O)[N-]C(=O)NCc2ccccc2)n[n-]c1=O (protonated)
CCCn1c(SCC(=O)[N-]C(=O)NCc2ccccc2)n[n-]c1=O (3D coordinates assigned)
CCCn1c(SCC(=O)[N-]C(=O)NCc2ccccc2)n[n-]c1=O (optimized conformer: 65.10413435200188 kcal/mol)

>  <smiles>  (7) 
CCCn1c(SCC(=O)NC(=O)NCc2ccccc2)n[nH]c1=O

>  <score_type>  (7) 
oracle

>  <origin>  (7) 
adg

>  <m_score__min__energy>  (7) 
-11.85

>  <m_primary>  (7) 
energy

$$$$
7:0
     RDKit          3D

 66 70  0  0  0  0  0  0  0  0999 V2000
   59.3110   34.3720   44.5050 C   0  0  0  0  0  0  0  0  0  0  0  0
   58.8940   34.5930   45.8460 O   0  0  0  0  0  0  0  0  0  0  0  0
   57.8760   33.8450   46.4520 C   0  0  0  0  0  0  0  0  0  0  0  0
   56.7220   33.8050   45.9450 O   0  0  0  0  0  0  0  0  0  0  0  0
   58.1610   33.0870   47.7210 C   0  0  2  0  0  0  0  0  0  0  0  0
   59.2720   33.7640   48.5470 C   0  0  0  0  0  0  0  0  0  0  0  0
   60.6400   33.2700   48.1480 C   0  0  0  0  0  0  0  0  0  0  0  0
   61.3860   33.9530   47.1710 C   0  0  0  0  0  0  0  0  0  0  0  0
   62.6680   33.5140   46.8300 C   0  0  0  0  0  0  0  0  0  0  0  0
   63.2170   32.3960   47.4640 C   0  0  0  0  0  0  0  0  0  0  0  0
   62.4850   31.7160   48.4410 C   0  0  0  0  0  0  0  0  0  0  0  0
   61.2010   32.1510   48.7850 C   0  0  0  0  0  0  0  0  0  0  0  0
   58.5070   31.6990   47.4120 N   0  0  0  0  0  0  0  0  0  0  0  0
   59.1080   31.2960   46.1760 C   0  0  0  0  0  0  0  0  0  0  0  0
   60.3420   31.4820   46.0020 O   0  0  0  0  0  0  0  0  0  0  0  0
   58.3040   30.6550   45.1230 C   0  0  0  0  0  0  0  0  0  0  0  0
   57.3670   31.3970   44.3860 C   0  0  0  0  0  0  0  0  0  0  0  0
   56.6130   30.7790   43.3830 C   0  0  0  0  0  0  0  0  0  0  0  0
   56.7730   29.4150   43.1240 C   0  0  0  0  0  0  0  0  0  0  0  0
   57.6830   28.6610   43.8730 C   0  0  0  0  0  0  0  0  0  0  0  0
   57.8340   26.8970   43.5780 S   0  0  0  0  0  0  0  0  0  0  0  0
   58.4570   26.5700   45.2290 C   0  0  0  0  0  0  0  0  0  0  0  0
   59.7290   26.9440   45.5320 N   0  0  0  0  0  0  0  0  0  0  0  0
   60.2400   26.8120   46.7840 C   0  0  0  0  0  0  0  0  0  0  0  0
   59.4490   26.2950   47.8100 C   0  0  0  0  0  0  0  0  0  0  0  0
   58.1420   25.8970   47.5320 C   0  0  0  0  0  0  0  0  0  0  0  0
   57.6330   26.0100   46.2300 C   0  0  0  0  0  0  0  0  0  0  0  0
   56.2690   25.5140   45.9390 C   0  0  0  0  0  0  0  0  0  0  0  0
   55.2980   26.3160   46.0120 O   0  0  0  0  0  0  0  0  0  0  0  0
   56.0270   24.1210   45.6480 N   0  0  0  0  0  0  0  0  0  0  0  0
   55.5460   23.7420   44.3090 C   0  0  0  0  0  0  0  0  0  0  0  0
   56.1650   22.4530   43.8540 C   0  0  0  0  0  0  0  0  0  0  0  0
   56.2650   22.2030   42.6230 O   0  0  0  0  0  0  0  0  0  0  0  0
   56.5770   21.4770   44.8140 N   0  0  0  0  0  0  0  0  0  0  0  0
   56.5330   21.7750   46.2130 C   0  0  0  0  0  0  0  0  0  0  0  0
   56.7680   20.7640   47.1550 C   0  0  0  0  0  0  0  0  0  0  0  0
   56.7090   21.0490   48.5210 C   0  0  0  0  0  0  0  0  0  0  0  0
   56.4170   22.3440   48.9530 C   0  0  0  0  0  0  0  0  0  0  0  0
   56.1940   23.3610   48.0200 C   0  0  0  0  0  0  0  0  0  0  0  0
   56.2600   23.0900   46.6400 C   0  0  0  0  0  0  0  0  0  0  0  0
   58.4540   29.2840   44.8620 C   0  0  0  0  0  0  0  0  0  0  0  0
   60.2829   33.8569   44.5034 H   0  0  0  0  0  0  0  0  0  0  0  0
   58.5658   33.7505   43.9870 H   0  0  0  0  0  0  0  0  0  0  0  0
   59.4069   35.3376   43.9870 H   0  0  0  0  0  0  0  0  0  0  0  0
   57.2491   33.0937   48.3362 H   0  0  0  0  0  0  0  0  0  0  0  0
   59.2242   34.8511   48.3863 H   0  0  0  0  0  0  0  0  0  0  0  0
   59.1123   33.5161   49.6067 H   0  0  0  0  0  0  0  0  0  0  0  0
   60.9588   34.8361   46.6734 H   0  0  0  0  0  0  0  0  0  0  0  0
   63.2457   34.0489   46.0618 H   0  0  0  0  0  0  0  0  0  0  0  0
   64.2260   32.0511   47.1938 H   0  0  0  0  0  0  0  0  0  0  0  0
   62.9193   30.8373   48.9403 H   0  0  0  0  0  0  0  0  0  0  0  0
   60.6289   31.6152   49.5567 H   0  0  0  0  0  0  0  0  0  0  0  0
   57.2256   32.4671   44.5980 H   0  0  0  0  0  0  0  0  0  0  0  0
   55.8924   31.3680   42.7967 H   0  0  0  0  0  0  0  0  0  0  0  0
   56.1828   28.9336   42.3303 H   0  0  0  0  0  0  0  0  0  0  0  0
   61.2780   27.1130   46.9886 H   0  0  0  0  0  0  0  0  0  0  0  0
   59.8527   26.2022   48.8290 H   0  0  0  0  0  0  0  0  0  0  0  0
   57.5086   25.4934   48.3357 H   0  0  0  0  0  0  0  0  0  0  0  0
   54.4529   23.6234   44.3409 H   0  0  0  0  0  0  0  0  0  0  0  0
   55.8301   24.5337   43.6002 H   0  0  0  0  0  0  0  0  0  0  0  0
   56.9000   20.5390   44.4850 H   0  0  0  0  0  0  0  0  0  0  0  0
   56.9996   19.7430   46.8174 H   0  0  0  0  0  0  0  0  0  0  0  0
   56.8928   20.2525   49.2570 H   0  0  0  0  0  0  0  0  0  0  0  0
   56.3623   22.5646   50.0293 H   0  0  0  0  0  0  0  0  0  0  0  0
   55.9655   24.3797   48.3664 H   0  0  0  0  0  0  0  0  0  0  0  0
   59.1824   28.6948   45.4385 H   0  0  0  0  0  0  0  0  0  0  0  0
  1  2  1  0
  2  3  1  0
  3  4  2  0
  3  5  1  0
  5  6  1  0
  6  7  1  0
  7  8  2  0
  8  9  1  0
  9 10  2  0
 10 11  1  0
 11 12  2  0
  5 13  1  0
 13 14  1  0
 14 15  2  0
 14 16  1  0
 16 17  2  0
 17 18  1  0
 18 19  2  0
 19 20  1  0
 20 21  1  0
 21 22  1  0
 22 23  2  0
 23 24  1  0
 24 25  2  0
 25 26  1  0
 26 27  2  0
 27 28  1  0
 28 29  2  0
 28 30  1  0
 30 31  1  0
 31 32  1  0
 32 33  2  0
 32 34  1  0
 34 35  1  0
 35 36  2  0
 36 37  1  0
 37 38  2  0
 38 39  1  0
 39 40  2  0
 20 41  2  0
 12  7  1  0
 41 16  1  0
 27 22  1  0
 40 30  1  0
 40 35  1  0
  1 42  1  0
  1 43  1  0
  1 44  1  0
  5 45  1  1
  6 46  1  0
  6 47  1  0
  8 48  1  0
  9 49  1  0
 10 50  1  0
 11 51  1  0
 12 52  1  0
 17 53  1  0
 18 54  1  0
 19 55  1  0
 24 56  1  0
 25 57  1  0
 26 58  1  0
 31 59  1  0
 31 60  1  0
 34 61  1  0
 36 62  1  0
 37 63  1  0
 38 64  1  0
 39 65  1  0
 41 66  1  0
M  CHG  1  13  -1
M  END
>  <UniqueID>  (8) 
7

>  <SMILES>  (8) 
COC(=O)[C@H](Cc1ccccc1)[N-]C(=O)c1cccc(Sc2ncccc2C(=O)N2CC(=O)Nc3ccccc32)c1

>  <Energy>  (8) 
82.36077008239604

>  <Genealogy>  (8) 
COC(=O)C(Cc1ccccc1)[N-]C(=O)c1cccc(Sc2ncccc2C(=O)N2CC(=O)Nc3ccccc32)c1 (protonated)
COC(=O)[C@H](Cc1ccccc1)[N-]C(=O)c1cccc(Sc2ncccc2C(=O)N2CC(=O)Nc3ccccc32)c1 (chirality)
COC(=O)[C@H](Cc1ccccc1)[N-]C(=O)c1cccc(Sc2ncccc2C(=O)N2CC(=O)Nc3ccccc32)c1 (3D coordinates assigned)
COC(=O)[C@H](Cc1ccccc1)[N-]C(=O)c1cccc(Sc2ncccc2C(=O)N2CC(=O)Nc3ccccc32)c1 (nonaromatic ring conformer: 82.36077008239604 kcal/mol)

>  <smiles>  (8) 
COC(=O)C(Cc1ccccc1)NC(=O)c1cccc(Sc2ncccc2C(=O)N2CC(=O)Nc3ccccc32)c1

>  <score_type>  (8) 
oracle

>  <origin>  (8) 
adg

>  <m_score__min__energy>  (8) 
-12.470000000000001

>  <m_primary>  (8) 
energy

$$$$
8:0
     RDKit          3D

 35 36  0  0  0  0  0  0  0  0999 V2000
   58.9120   33.3620   46.5150 C   0  0  0  0  0  0  0  0  0  0  0  0
   58.3540   32.6780   45.2960 C   0  0  0  0  0  0  0  0  0  0  0  0
   58.4270   33.3170   44.0500 C   0  0  0  0  0  0  0  0  0  0  0  0
   57.9740   32.6750   42.9000 C   0  0  0  0  0  0  0  0  0  0  0  0
   57.4230   31.3970   42.9810 C   0  0  0  0  0  0  0  0  0  0  0  0
   57.3270   30.7350   44.2160 C   0  0  0  0  0  0  0  0  0  0  0  0
   56.6400   29.4230   44.2630 C   0  0  0  0  0  0  0  0  0  0  0  0
   55.3480   29.3000   44.8530 N   0  0  0  0  0  0  0  0  0  0  0  0
   57.1800   28.4100   43.7410 O   0  0  0  0  0  0  0  0  0  0  0  0
   57.8460   31.3630   45.3800 C   0  0  0  0  0  0  0  0  0  0  0  0
   57.9260   30.6720   46.6380 N   0  0  0  0  0  0  0  0  0  0  0  0
   59.0050   29.8250   47.0600 C   0  0  0  0  0  0  0  0  0  0  0  0
   59.9610   30.3380   47.6980 O   0  0  0  0  0  0  0  0  0  0  0  0
   59.0270   28.3730   46.7680 C   0  0  0  0  0  0  0  0  0  0  0  0
   60.2540   27.6990   46.6500 C   0  0  0  0  0  0  0  0  0  0  0  0
   60.2850   26.3250   46.4000 C   0  0  0  0  0  0  0  0  0  0  0  0
   59.0920   25.6110   46.2600 C   0  0  0  0  0  0  0  0  0  0  0  0
   57.8610   26.2700   46.3620 C   0  0  0  0  0  0  0  0  0  0  0  0
   56.3510   25.3840   46.1820 S   0  0  0  0  0  0  0  0  0  0  0  0
   55.0400   26.5000   46.0370 N   0  0  0  0  0  0  0  0  0  0  0  0
   56.4050   24.5170   44.9570 O   0  0  0  0  0  0  0  0  0  0  0  0
   56.1360   24.5070   47.3850 O   0  0  0  0  0  0  0  0  0  0  0  0
   57.8320   27.6510   46.5960 C   0  0  0  0  0  0  0  0  0  0  0  0
   58.5170   32.8778   47.4202 H   0  0  0  0  0  0  0  0  0  0  0  0
   60.0094   33.2863   46.5078 H   0  0  0  0  0  0  0  0  0  0  0  0
   58.6175   34.4218   46.5078 H   0  0  0  0  0  0  0  0  0  0  0  0
   58.8448   34.3322   43.9803 H   0  0  0  0  0  0  0  0  0  0  0  0
   58.0512   33.1780   41.9248 H   0  0  0  0  0  0  0  0  0  0  0  0
   57.0597   30.9020   42.0683 H   0  0  0  0  0  0  0  0  0  0  0  0
   55.1820   28.6480   45.6510 H   0  0  0  0  0  0  0  0  0  0  0  0
   61.1963   28.2568   46.7551 H   0  0  0  0  0  0  0  0  0  0  0  0
   61.2500   25.8043   46.3132 H   0  0  0  0  0  0  0  0  0  0  0  0
   59.1202   24.5281   46.0691 H   0  0  0  0  0  0  0  0  0  0  0  0
   55.2480   27.1090   45.2140 H   0  0  0  0  0  0  0  0  0  0  0  0
   56.8663   28.1754   46.6457 H   0  0  0  0  0  0  0  0  0  0  0  0
  1  2  1  0
  2  3  2  0
  3  4  1  0
  4  5  2  0
  5  6  1  0
  6  7  1  0
  7  8  1  0
  7  9  2  0
  6 10  2  0
 10 11  1  0
 11 12  1  0
 12 13  2  0
 12 14  1  0
 14 15  2  0
 15 16  1  0
 16 17  2  0
 17 18  1  0
 18 19  1  0
 19 20  1  0
 19 21  2  0
 19 22  2  0
 18 23  2  0
 10  2  1  0
 23 14  1  0
  1 24  1  0
  1 25  1  0
  1 26  1  0
  3 27  1  0
  4 28  1  0
  5 29  1  0
  8 30  1  0
 15 31  1  0
 16 32  1  0
 17 33  1  0
 20 34  1  0
 23 35  1  0
M  CHG  3   8  -1  11  -1  20  -1
M  END
>  <UniqueID>  (9) 
8

>  <SMILES>  (9) 
Cc1cccc(C([NH-])=O)c1[N-]C(=O)c1cccc(S([NH-])(=O)=O)c1

>  <Energy>  (9) 
46.99000324727504

>  <Genealogy>  (9) 
Cc1cccc(C([NH-])=O)c1[N-]C(=O)c1cccc(S([NH-])(=O)=O)c1 (protonated)
Cc1cccc(C([NH-])=O)c1[N-]C(=O)c1cccc(S([NH-])(=O)=O)c1 (3D coordinates assigned)
Cc1cccc(C([NH-])=O)c1[N-]C(=O)c1cccc(S([NH-])(=O)=O)c1 (optimized conformer: 46.99000324727504 kcal/mol)

>  <smiles>  (9) 
Cc1cccc(C(N)=O)c1NC(=O)c1cccc(S(N)(=O)=O)c1

>  <score_type>  (9) 
oracle

>  <origin>  (9) 
adg

>  <m_score__min__energy>  (9) 
-15.32

>  <m_primary>  (9) 
energy

$$$$
9:0
     RDKit          3D

 30 31  0  0  0  0  0  0  0  0999 V2000
   59.6732   27.3808   48.0646 H   0  0  0  0  0  0  0  0  0  0  0  0
   58.8500   27.3700   47.3350 C   0  0  0  0  0  0  0  0  0  0  0  0
   57.8280   26.4920   47.3330 N   0  0  0  0  0  0  0  0  0  0  0  0
   57.0290   26.7870   46.3190 N   0  0  0  0  0  0  0  0  0  0  0  0
   55.8800   25.9510   45.9790 C   0  0  0  0  0  0  0  0  0  0  0  0
   55.3965   25.5992   46.9023 H   0  0  0  0  0  0  0  0  0  0  0  0
   55.1608   26.5384   45.3894 H   0  0  0  0  0  0  0  0  0  0  0  0
   56.2176   25.0859   45.3894 H   0  0  0  0  0  0  0  0  0  0  0  0
   57.5350   27.8710   45.6740 C   0  0  0  0  0  0  0  0  0  0  0  0
   57.0590   28.4620   44.6130 N   0  0  0  0  0  0  0  0  0  0  0  0
   56.8730   29.8610   44.3790 C   0  0  0  0  0  0  0  0  0  0  0  0
   55.8620   30.4540   44.8440 O   0  0  0  0  0  0  0  0  0  0  0  0
   57.8980   30.6040   43.7120 N   0  0  0  0  0  0  0  0  0  0  0  0
   58.7480   30.0890   43.3840 H   0  0  0  0  0  0  0  0  0  0  0  0
   57.7660   32.0390   43.4650 C   0  0  0  0  0  0  0  0  0  0  0  0
   58.4071   32.3201   42.6164 H   0  0  0  0  0  0  0  0  0  0  0  0
   56.7134   32.2640   43.2382 H   0  0  0  0  0  0  0  0  0  0  0  0
   58.1790   32.8260   44.6780 C   0  0  0  0  0  0  0  0  0  0  0  0
   57.7970   32.4010   45.9620 C   0  0  0  0  0  0  0  0  0  0  0  0
   57.2182   31.4734   46.0828 H   0  0  0  0  0  0  0  0  0  0  0  0
   58.1500   33.1530   47.0860 C   0  0  0  0  0  0  0  0  0  0  0  0
   57.8566   32.8108   48.0894 H   0  0  0  0  0  0  0  0  0  0  0  0
   58.8750   34.3390   46.9380 C   0  0  0  0  0  0  0  0  0  0  0  0
   59.1550   34.9273   47.8243 H   0  0  0  0  0  0  0  0  0  0  0  0
   59.2440   34.7770   45.6620 C   0  0  0  0  0  0  0  0  0  0  0  0
   59.9390   35.9320   45.5180 F   0  0  0  0  0  0  0  0  0  0  0  0
   58.8930   34.0270   44.5350 C   0  0  0  0  0  0  0  0  0  0  0  0
   59.1773   34.3792   43.5324 H   0  0  0  0  0  0  0  0  0  0  0  0
   58.7090   28.2540   46.2840 C   0  0  0  0  0  0  0  0  0  0  0  0
   59.3811   29.0767   45.9988 H   0  0  0  0  0  0  0  0  0  0  0  0
  1  2  1  0
  2  3  1  0
  3  4  1  0
  4  5  1  0
  5  6  1  0
  5  7  1  0
  5  8  1  0
  4  9  1  0
  9 10  2  0
 10 11  1  0
 11 12  2  0
 11 13  1  0
 13 14  1  0
 13 15  1  0
 15 16  1  0
 15 17  1  0
 15 18  1  0
 18 19  2  0
 19 20  1  0
 19 21  1  0
 21 22  1  0
 21 23  2  0
 23 24  1  0
 23 25  1  0
 25 26  1  0
 25 27  2  0
 27 28  1  0
  9 29  1  0
 29 30  1  0
 29  2  2  0
 27 18  1  0
M  CHG  1   3  -1
M  END
>  <UniqueID>  (10) 
9

>  <SMILES>  (10) 
Cn1[n-]cc/c1=N/C(=O)NCc1cccc(F)c1

>  <Energy>  (10) 
69.52652115671924

>  <Genealogy>  (10) 
Cn1[n-]ccc1=NC(=O)NCc1cccc(F)c1 (protonated)
Cn1[n-]cc/c1=N/C(=O)NCc1cccc(F)c1 (cis-trans isomerization)
Cn1[n-]cc/c1=N/C(=O)NCc1cccc(F)c1 (3D coordinates assigned)
Cn1[n-]cc/c1=N/C(=O)NCc1cccc(F)c1 (optimized conformer: 69.52652115671924 kcal/mol)

>  <smiles>  (10) 
Cn1[nH]ccc1=NC(=O)NCc1cccc(F)c1

>  <score_type>  (10) 
oracle

>  <origin>  (10) 
adg

>  <m_score__min__energy>  (10) 
-8.3300000000000001

>  <m_primary>  (10) 
energy

$$$$
10:0
     RDKit          3D

 25 27  0  0  0  0  0  0  0  0999 V2000
   55.1700   25.6820   46.1640 O   0  0  0  0  0  0  0  0  0  0  0  0
   56.3800   25.9570   46.0350 N   0  0  0  0  0  0  0  0  0  0  0  0
   56.8210   27.2540   45.6230 C   0  0  0  0  0  0  0  0  0  0  0  0
   58.1820   27.5870   45.5940 C   0  0  0  0  0  0  0  0  0  0  0  0
   58.5660   28.8650   45.1870 C   0  0  0  0  0  0  0  0  0  0  0  0
   57.6000   29.8070   44.8030 C   0  0  0  0  0  0  0  0  0  0  0  0
   58.0100   31.1670   44.3870 C   0  0  0  0  0  0  0  0  0  0  0  0
   58.1860   31.5610   43.1030 N   0  0  0  0  0  0  0  0  0  0  0  0
   58.5190   32.8230   43.0920 O   0  0  0  0  0  0  0  0  0  0  0  0
   58.5740   33.2730   44.3210 C   0  0  0  0  0  0  0  0  0  0  0  0
   58.9020   34.5520   44.7600 C   0  0  0  0  0  0  0  0  0  0  0  0
   58.9130   34.7820   46.1490 C   0  0  0  0  0  0  0  0  0  0  0  0
   58.6040   33.7370   47.0520 C   0  0  0  0  0  0  0  0  0  0  0  0
   58.2760   32.4540   46.5750 C   0  0  0  0  0  0  0  0  0  0  0  0
   58.2580   32.2640   45.1920 C   0  0  0  0  0  0  0  0  0  0  0  0
   56.2430   29.4310   44.8500 C   0  0  0  0  0  0  0  0  0  0  0  0
   55.3390   30.2370   44.5050 O   0  0  0  0  0  0  0  0  0  0  0  0
   55.8970   28.1790   45.2520 N   0  0  0  0  0  0  0  0  0  0  0  0
   58.9407   26.8474   45.8895 H   0  0  0  0  0  0  0  0  0  0  0  0
   59.6320   29.1355   45.1671 H   0  0  0  0  0  0  0  0  0  0  0  0
   58.0560   30.9790   42.2460 H   0  0  0  0  0  0  0  0  0  0  0  0
   59.1440   35.3544   44.0476 H   0  0  0  0  0  0  0  0  0  0  0  0
   59.1636   35.7811   46.5351 H   0  0  0  0  0  0  0  0  0  0  0  0
   58.6203   33.9289   48.1350 H   0  0  0  0  0  0  0  0  0  0  0  0
   58.0424   31.6311   47.2666 H   0  0  0  0  0  0  0  0  0  0  0  0
  1  2  2  0
  2  3  1  0
  3  4  2  0
  4  5  1  0
  5  6  2  0
  6  7  1  0
  7  8  2  0
  8  9  1  0
  9 10  1  0
 10 11  2  0
 11 12  1  0
 12 13  2  0
 13 14  1  0
 14 15  2  0
  6 16  1  0
 16 17  2  0
 16 18  1  0
 18  3  1  0
 15  7  1  0
 15 10  1  0
  4 19  1  0
  5 20  1  0
  8 21  1  0
 11 22  1  0
 12 23  1  0
 13 24  1  0
 14 25  1  0
M  CHG  2   8   1  18  -1
M  END
>  <UniqueID>  (11) 
10

>  <SMILES>  (11) 
O=Nc1ccc(-c2[nH+]oc3ccccc23)c(=O)[n-]1

>  <Energy>  (11) 
74.89291409627307

>  <Genealogy>  (11) 
O=Nc1ccc(-c2[nH+]oc3ccccc23)c(=O)[n-]1 (protonated)
O=Nc1ccc(-c2[nH+]oc3ccccc23)c(=O)[n-]1 (3D coordinates assigned)
O=Nc1ccc(-c2[nH+]oc3ccccc23)c(=O)[n-]1 (optimized conformer: 74.89291409627307 kcal/mol)

>  <smiles>  (11) 
O=Nc1ccc(-c2noc3ccccc23)c(=O)[nH]1

>  <score_type>  (11) 
oracle

>  <origin>  (11) 
adg

>  <m_score__min__energy>  (11) 
-9.0299999999999994

>  <m_primary>  (11) 
energy

$$$$
11:0
     RDKit          3D

 51 53  0  0  0  0  0  0  0  0999 V2000
   51.4080   32.6430   50.3230 O   0  0  0  0  0  0  0  0  0  0  0  0
   51.2360   32.3500   51.5360 C   0  0  0  0  0  0  0  0  0  0  0  0
   50.2680   33.0140   52.2750 O   0  0  0  0  0  0  0  0  0  0  0  0
   52.1090   31.3290   52.1950 C   0  0  0  0  0  0  0  0  0  0  0  0
   53.5330   31.3440   51.6250 C   0  0  0  0  0  0  0  0  0  0  0  0
   54.5060   30.5410   52.4540 C   0  0  0  0  0  0  0  0  0  0  0  0
   54.0810   29.5630   53.1270 O   0  0  0  0  0  0  0  0  0  0  0  0
   55.8660   30.9580   52.6370 N   0  0  0  0  0  0  0  0  0  0  0  0
   56.9210   30.8670   51.6710 C   0  0  0  0  0  0  0  0  0  0  0  0
   57.1900   31.9700   50.8520 C   0  0  0  0  0  0  0  0  0  0  0  0
   58.2310   31.9200   49.9210 C   0  0  0  0  0  0  0  0  0  0  0  0
   59.0270   30.7720   49.8150 C   0  0  0  0  0  0  0  0  0  0  0  0
   60.2860   30.6870   48.5890 S   0  0  0  0  0  0  0  0  0  0  0  0
   61.1850   31.8890   48.6820 O   0  0  0  0  0  0  0  0  0  0  0  0
   61.1160   29.4500   48.7950 O   0  0  0  0  0  0  0  0  0  0  0  0
   59.5510   30.6240   47.0260 N   0  0  0  0  0  0  0  0  0  0  0  0
   58.8260   31.7460   46.5260 C   0  0  0  0  0  0  0  0  0  0  0  0
   59.1140   33.0280   47.0120 C   0  0  0  0  0  0  0  0  0  0  0  0
   58.3860   34.1300   46.5600 C   0  0  0  0  0  0  0  0  0  0  0  0
   57.3570   33.9540   45.6340 C   0  0  0  0  0  0  0  0  0  0  0  0
   57.0630   32.6780   45.1440 C   0  0  0  0  0  0  0  0  0  0  0  0
   57.8140   31.5650   45.5700 C   0  0  0  0  0  0  0  0  0  0  0  0
   57.5040   30.2370   45.1200 N   0  0  0  0  0  0  0  0  0  0  0  0
   56.1960   29.7090   44.8820 C   0  0  0  0  0  0  0  0  0  0  0  0
   55.3240   30.4550   44.3710 O   0  0  0  0  0  0  0  0  0  0  0  0
   55.8860   28.3530   45.2290 N   0  0  0  0  0  0  0  0  0  0  0  0
   56.7750   27.3860   45.8060 C   0  0  0  0  0  0  0  0  0  0  0  0
   57.8060   27.8390   46.6390 C   0  0  0  0  0  0  0  0  0  0  0  0
   58.6740   26.9300   47.2510 C   0  0  0  0  0  0  0  0  0  0  0  0
   58.5070   25.5590   47.0470 C   0  0  0  0  0  0  0  0  0  0  0  0
   57.4680   25.0960   46.2350 C   0  0  0  0  0  0  0  0  0  0  0  0
   56.5990   26.0040   45.6210 C   0  0  0  0  0  0  0  0  0  0  0  0
   58.7760   29.6760   50.6510 C   0  0  0  0  0  0  0  0  0  0  0  0
   57.7370   29.7280   51.5830 C   0  0  0  0  0  0  0  0  0  0  0  0
   52.1548   31.5422   53.2732 H   0  0  0  0  0  0  0  0  0  0  0  0
   51.6757   30.3357   52.0065 H   0  0  0  0  0  0  0  0  0  0  0  0
   53.5086   30.9247   50.6084 H   0  0  0  0  0  0  0  0  0  0  0  0
   53.8792   32.3881   51.6289 H   0  0  0  0  0  0  0  0  0  0  0  0
   56.5791   32.8803   50.9417 H   0  0  0  0  0  0  0  0  0  0  0  0
   58.4260   32.7846   49.2695 H   0  0  0  0  0  0  0  0  0  0  0  0
   59.9161   33.1666   47.7519 H   0  0  0  0  0  0  0  0  0  0  0  0
   58.6234   35.1370   46.9337 H   0  0  0  0  0  0  0  0  0  0  0  0
   56.7756   34.8216   45.2886 H   0  0  0  0  0  0  0  0  0  0  0  0
   56.2428   32.5428   44.4236 H   0  0  0  0  0  0  0  0  0  0  0  0
   57.9335   28.9177   46.8128 H   0  0  0  0  0  0  0  0  0  0  0  0
   59.4888   27.2951   47.8935 H   0  0  0  0  0  0  0  0  0  0  0  0
   59.1926   24.8438   47.5250 H   0  0  0  0  0  0  0  0  0  0  0  0
   57.3334   24.0156   46.0785 H   0  0  0  0  0  0  0  0  0  0  0  0
   55.7756   25.6353   44.9916 H   0  0  0  0  0  0  0  0  0  0  0  0
   59.3986   28.7725   50.5732 H   0  0  0  0  0  0  0  0  0  0  0  0
   57.5573   28.8727   52.2510 H   0  0  0  0  0  0  0  0  0  0  0  0
  1  2  2  0
  2  3  1  0
  2  4  1  0
  4  5  1  0
  5  6  1  0
  6  7  2  0
  6  8  1  0
  8  9  1  0
  9 10  2  0
 10 11  1  0
 11 12  2  0
 12 13  1  0
 13 14  2  0
 13 15  2  0
 13 16  1  0
 16 17  1  0
 17 18  2  0
 18 19  1  0
 19 20  2  0
 20 21  1  0
 21 22  2  0
 22 23  1  0
 23 24  1  0
 24 25  2  0
 24 26  1  0
 26 27  1  0
 27 28  2  0
 28 29  1  0
 29 30  2  0
 30 31  1  0
 31 32  2  0
 12 33  1  0
 33 34  2  0
 34  9  1  0
 22 17  1  0
 32 27  1  0
  4 35  1  0
  4 36  1  0
  5 37  1  0
  5 38  1  0
 10 39  1  0
 11 40  1  0
 18 41  1  0
 19 42  1  0
 20 43  1  0
 21 44  1  0
 28 45  1  0
 29 46  1  0
 30 47  1  0
 31 48  1  0
 32 49  1  0
 33 50  1  0
 34 51  1  0
M  CHG  5   3  -1   8  -1  16  -1  23  -1  26  -1
M  END
>  <UniqueID>  (12) 
11

>  <SMILES>  (12) 
O=C([O-])CCC(=O)[N-]c1ccc(S(=O)(=O)[N-]c2ccccc2[N-]C(=O)[N-]c2ccccc2)cc1

>  <Energy>  (12) 
70.9626794260831

>  <Genealogy>  (12) 
O=C([O-])CCC(=O)[N-]c1ccc(S(=O)(=O)[N-]c2ccccc2[N-]C(=O)[N-]c2ccccc2)cc1 (protonated)
O=C([O-])CCC(=O)[N-]c1ccc(S(=O)(=O)[N-]c2ccccc2[N-]C(=O)[N-]c2ccccc2)cc1 (3D coordinates assigned)
O=C([O-])CCC(=O)[N-]c1ccc(S(=O)(=O)[N-]c2ccccc2[N-]C(=O)[N-]c2ccccc2)cc1 (optimized conformer: 70.9626794260831 kcal/mol)

>  <smiles>  (12) 
O=C(O)CCC(=O)Nc1ccc(S(=O)(=O)Nc2ccccc2NC(=O)Nc2ccccc2)cc1

>  <score_type>  (12) 
oracle

>  <origin>  (12) 
adg

>  <m_score__min__energy>  (12) 
-17.82

>  <m_primary>  (12) 
energy

$$$$
12:0
     RDKit          3D

 33 35  0  0  0  0  0  0  0  0999 V2000
   56.0310   24.5040   44.5400 N   0  0  0  0  0  0  0  0  0  0  0  0
   56.0610   25.5070   45.9460 S   0  0  0  0  0  0  0  0  0  0  0  0
   56.1200   24.6460   47.1770 O   0  0  0  0  0  0  0  0  0  0  0  0
   54.8070   26.3360   45.9990 O   0  0  0  0  0  0  0  0  0  0  0  0
   57.4680   26.5640   45.8890 C   0  0  0  0  0  0  0  0  0  0  0  0
   58.7540   26.0380   46.0770 C   0  0  0  0  0  0  0  0  0  0  0  0
   59.8700   26.8750   46.0110 C   0  0  0  0  0  0  0  0  0  0  0  0
   59.7100   28.2390   45.7530 C   0  0  0  0  0  0  0  0  0  0  0  0
   58.4290   28.7770   45.5570 C   0  0  0  0  0  0  0  0  0  0  0  0
   58.2680   30.1820   45.2860 N   0  0  0  0  0  0  0  0  0  0  0  0
   58.7820   31.2230   46.1080 C   0  0  0  0  0  0  0  0  0  0  0  0
   59.3620   30.9900   47.2020 O   0  0  0  0  0  0  0  0  0  0  0  0
   58.5180   32.5680   45.5850 C   0  0  0  0  0  0  0  0  0  0  0  0
   58.8400   33.7400   46.1510 C   0  0  0  0  0  0  0  0  0  0  0  0
   59.9810   33.9670   47.0520 C   0  0  0  0  0  0  0  0  0  0  0  0
   61.3070   33.7160   46.7240 C   0  0  0  0  0  0  0  0  0  0  0  0
   62.1820   33.8470   47.8100 C   0  0  0  0  0  0  0  0  0  0  0  0
   61.5460   34.1640   49.0030 C   0  0  0  0  0  0  0  0  0  0  0  0
   59.8950   34.2740   48.7070 S   0  0  0  0  0  0  0  0  0  0  0  0
   57.5970   32.5160   44.0450 S   0  0  0  0  0  0  0  0  0  0  0  0
   57.5760   30.7230   44.1570 C   0  0  0  0  0  0  0  0  0  0  0  0
   56.3990   29.8820   43.3900 S   0  0  0  0  0  0  0  0  0  0  0  0
   57.3100   27.9310   45.6220 C   0  0  0  0  0  0  0  0  0  0  0  0
   56.2430   25.1170   43.7230 H   0  0  0  0  0  0  0  0  0  0  0  0
   55.0470   24.1730   44.4210 H   0  0  0  0  0  0  0  0  0  0  0  0
   58.8841   24.9642   46.2768 H   0  0  0  0  0  0  0  0  0  0  0  0
   60.8772   26.4596   46.1625 H   0  0  0  0  0  0  0  0  0  0  0  0
   60.5924   28.8940   45.7033 H   0  0  0  0  0  0  0  0  0  0  0  0
   58.1979   34.6035   45.9229 H   0  0  0  0  0  0  0  0  0  0  0  0
   61.6375   33.4414   45.7114 H   0  0  0  0  0  0  0  0  0  0  0  0
   63.2704   33.7115   47.7257 H   0  0  0  0  0  0  0  0  0  0  0  0
   62.0381   34.3169   49.9748 H   0  0  0  0  0  0  0  0  0  0  0  0
   56.3029   28.3437   45.4624 H   0  0  0  0  0  0  0  0  0  0  0  0
  1  2  1  0
  2  3  2  0
  2  4  2  0
  2  5  1  0
  5  6  2  0
  6  7  1  0
  7  8  2  0
  8  9  1  0
  9 10  1  0
 10 11  1  0
 11 12  2  0
 11 13  1  0
 13 14  2  3
 14 15  1  0
 15 16  2  0
 16 17  1  0
 17 18  2  0
 18 19  1  0
 13 20  1  0
 20 21  1  0
 21 22  2  0
  9 23  2  0
 23  5  1  0
 21 10  1  0
 19 15  1  0
  1 24  1  0
  1 25  1  0
  6 26  1  0
  7 27  1  0
  8 28  1  0
 14 29  1  0
 16 30  1  0
 17 31  1  0
 18 32  1  0
 23 33  1  0
M  END
>  <UniqueID>  (13) 
12

>  <SMILES>  (13) 
NS(=O)(=O)c1cccc(N2C(=O)C(=Cc3cccs3)SC2=S)c1

>  <Energy>  (13) 
92.15493840107202

>  <Genealogy>  (13) 
NS(=O)(=O)c1cccc(N2C(=O)C(=Cc3cccs3)SC2=S)c1 (3D coordinates assigned)
NS(=O)(=O)c1cccc(N2C(=O)C(=Cc3cccs3)SC2=S)c1 (nonaromatic ring conformer: 92.15493840107202 kcal/mol)

>  <smiles>  (13) 
NS(=O)(=O)c1cccc(N2C(=O)C(=Cc3cccs3)SC2=S)c1

>  <score_type>  (13) 
oracle

>  <origin>  (13) 
adg

>  <m_score__min__energy>  (13) 
-8.8900000000000006

>  <m_primary>  (13) 
energy

$$$$
13:0
     RDKit          3D

 58 60  0  0  0  0  0  0  0  0999 V2000
   65.1200   32.2100   50.0960 C   0  0  0  0  0  0  0  0  0  0  0  0
   64.9260   33.1010   49.0030 O   0  0  0  0  0  0  0  0  0  0  0  0
   63.6850   33.3510   48.3990 C   0  0  0  0  0  0  0  0  0  0  0  0
   63.4810   33.2290   47.0100 C   0  0  0  0  0  0  0  0  0  0  0  0
   62.2280   33.5010   46.4550 C   0  0  0  0  0  0  0  0  0  0  0  0
   61.1630   33.8950   47.2750 C   0  0  0  0  0  0  0  0  0  0  0  0
   59.6060   34.2920   46.5550 S   0  0  0  0  0  0  0  0  0  0  0  0
   59.6550   34.1690   45.0580 O   0  0  0  0  0  0  0  0  0  0  0  0
   59.2540   35.7070   46.9140 O   0  0  0  0  0  0  0  0  0  0  0  0
   58.3890   33.2220   47.1750 N   0  0  0  0  0  0  0  0  0  0  0  0
   58.6710   31.9750   47.8510 C   0  0  0  0  0  0  0  0  0  0  0  0
   58.7640   31.9240   49.2570 C   0  0  0  0  0  0  0  0  0  0  0  0
   58.9180   30.7070   49.9220 C   0  0  0  0  0  0  0  0  0  0  0  0
   58.9860   29.5190   49.1980 C   0  0  0  0  0  0  0  0  0  0  0  0
   58.9220   29.5440   47.8070 C   0  0  0  0  0  0  0  0  0  0  0  0
   58.7860   30.7620   47.1180 C   0  0  0  0  0  0  0  0  0  0  0  0
   58.7910   30.7290   45.6410 C   0  0  0  0  0  0  0  0  0  0  0  0
   59.7000   30.0980   45.0320 O   0  0  0  0  0  0  0  0  0  0  0  0
   57.8170   31.4350   44.9250 O   0  0  0  0  0  0  0  0  0  0  0  0
   56.8990   30.8120   44.0260 C   0  0  0  0  0  0  0  0  0  0  0  0
   56.4120   29.4990   44.5660 C   0  0  0  0  0  0  0  0  0  0  0  0
   55.1960   29.3620   44.8690 O   0  0  0  0  0  0  0  0  0  0  0  0
   57.3460   28.4300   44.7830 N   0  0  0  0  0  0  0  0  0  0  0  0
   56.9970   27.1570   45.3470 C   0  0  0  0  0  0  0  0  0  0  0  0
   55.8150   26.9230   45.7140 O   0  0  0  0  0  0  0  0  0  0  0  0
   58.0060   26.1500   45.4980 N   0  0  0  0  0  0  0  0  0  0  0  0
   57.7310   24.8370   46.0780 C   0  0  0  0  0  0  0  0  0  0  0  0
   57.4770   23.8270   44.9930 C   0  0  0  0  0  0  0  0  0  0  0  0
   56.4760   24.0590   44.0340 C   0  0  0  0  0  0  0  0  0  0  0  0
   56.2290   23.1150   43.0330 C   0  0  0  0  0  0  0  0  0  0  0  0
   56.9770   21.9350   42.9810 C   0  0  0  0  0  0  0  0  0  0  0  0
   57.9700   21.6950   43.9340 C   0  0  0  0  0  0  0  0  0  0  0  0
   58.2220   22.6360   44.9370 C   0  0  0  0  0  0  0  0  0  0  0  0
   61.3600   34.0070   48.6570 C   0  0  0  0  0  0  0  0  0  0  0  0
   62.6150   33.7390   49.2120 C   0  0  0  0  0  0  0  0  0  0  0  0
   65.0006   32.7586   51.0419 H   0  0  0  0  0  0  0  0  0  0  0  0
   64.3771   31.4003   50.0454 H   0  0  0  0  0  0  0  0  0  0  0  0
   66.1323   31.7825   50.0454 H   0  0  0  0  0  0  0  0  0  0  0  0
   64.3120   32.9182   46.3598 H   0  0  0  0  0  0  0  0  0  0  0  0
   62.0773   33.4053   45.3696 H   0  0  0  0  0  0  0  0  0  0  0  0
   57.4190   33.6080   47.1670 H   0  0  0  0  0  0  0  0  0  0  0  0
   58.7144   32.8568   49.8379 H   0  0  0  0  0  0  0  0  0  0  0  0
   58.9858   30.6858   51.0197 H   0  0  0  0  0  0  0  0  0  0  0  0
   59.0904   28.5595   49.7257 H   0  0  0  0  0  0  0  0  0  0  0  0
   58.9784   28.6019   47.2420 H   0  0  0  0  0  0  0  0  0  0  0  0
   56.0374   31.4789   43.8748 H   0  0  0  0  0  0  0  0  0  0  0  0
   57.4183   30.6247   43.0745 H   0  0  0  0  0  0  0  0  0  0  0  0
   58.3440   28.5910   44.5240 H   0  0  0  0  0  0  0  0  0  0  0  0
   58.9870   26.3680   45.2130 H   0  0  0  0  0  0  0  0  0  0  0  0
   58.5968   24.5165   46.6760 H   0  0  0  0  0  0  0  0  0  0  0  0
   56.8371   24.9086   46.7150 H   0  0  0  0  0  0  0  0  0  0  0  0
   55.8852   24.9861   44.0713 H   0  0  0  0  0  0  0  0  0  0  0  0
   55.4445   23.3010   42.2847 H   0  0  0  0  0  0  0  0  0  0  0  0
   56.7837   21.1956   42.1898 H   0  0  0  0  0  0  0  0  0  0  0  0
   58.5547   20.7640   43.8952 H   0  0  0  0  0  0  0  0  0  0  0  0
   59.0056   22.4439   45.6847 H   0  0  0  0  0  0  0  0  0  0  0  0
   60.5252   34.3066   49.3076 H   0  0  0  0  0  0  0  0  0  0  0  0
   62.7622   33.8342   50.2979 H   0  0  0  0  0  0  0  0  0  0  0  0
  1  2  1  0
  2  3  1  0
  3  4  2  0
  4  5  1  0
  5  6  2  0
  6  7  1  0
  7  8  2  0
  7  9  2  0
  7 10  1  0
 10 11  1  0
 11 12  2  0
 12 13  1  0
 13 14  2  0
 14 15  1  0
 15 16  2  0
 16 17  1  0
 17 18  2  0
 17 19  1  0
 19 20  1  0
 20 21  1  0
 21 22  2  0
 21 23  1  0
 23 24  1  0
 24 25  2  0
 24 26  1  0
 26 27  1  0
 27 28  1  0
 28 29  2  0
 29 30  1  0
 30 31  2  0
 31 32  1  0
 32 33  2  0
  6 34  1  0
 34 35  2  0
 35  3  1  0
 16 11  1  0
 33 28  1  0
  1 36  1  0
  1 37  1  0
  1 38  1  0
  4 39  1  0
  5 40  1  0
 10 41  1  0
 12 42  1  0
 13 43  1  0
 14 44  1  0
 15 45  1  0
 20 46  1  0
 20 47  1  0
 23 48  1  0
 26 49  1  0
 27 50  1  0
 27 51  1  0
 29 52  1  0
 30 53  1  0
 31 54  1  0
 32 55  1  0
 33 56  1  0
 34 57  1  0
 35 58  1  0
M  END
>  <UniqueID>  (14) 
13

>  <SMILES>  (14) 
COc1ccc(S(=O)(=O)Nc2ccccc2C(=O)OCC(=O)NC(=O)NCc2ccccc2)cc1

>  <Energy>  (14) 
64.0359470773397

>  <Genealogy>  (14) 
COc1ccc(S(=O)(=O)Nc2ccccc2C(=O)OCC(=O)NC(=O)NCc2ccccc2)cc1 (3D coordinates assigned)
COc1ccc(S(=O)(=O)Nc2ccccc2C(=O)OCC(=O)NC(=O)NCc2ccccc2)cc1 (optimized conformer: 64.0359470773397 kcal/mol)

>  <smiles>  (14) 
COc1ccc(S(=O)(=O)Nc2ccccc2C(=O)OCC(=O)NC(=O)NCc2ccccc2)cc1

>  <score_type>  (14) 
oracle

>  <origin>  (14) 
adg

>  <m_score__min__energy>  (14) 
-9.2899999999999991

>  <m_primary>  (14) 
energy

$$$$
14:0
     RDKit          3D

 29 30  0  0  0  0  0  0  0  0999 V2000
   56.6750   33.8250   44.7000 H   0  0  0  0  0  0  0  0  0  0  0  0
   57.3140   33.2560   44.1570 O   0  0  0  0  0  0  0  0  0  0  0  0
   57.3970   31.8780   44.3430 C   0  0  0  0  0  0  0  0  0  0  0  0
   58.6510   31.2600   44.3680 C   0  0  0  0  0  0  0  0  0  0  0  0
   59.5622   31.8630   44.2411 H   0  0  0  0  0  0  0  0  0  0  0  0
   58.7500   29.8770   44.5540 C   0  0  0  0  0  0  0  0  0  0  0  0
   59.7401   29.3987   44.5829 H   0  0  0  0  0  0  0  0  0  0  0  0
   57.5930   29.0960   44.7040 C   0  0  0  0  0  0  0  0  0  0  0  0
   57.7140   27.6150   44.9340 C   0  0  0  0  0  0  0  0  0  0  0  0
   56.8890   27.0953   44.4247 H   0  0  0  0  0  0  0  0  0  0  0  0
   58.6733   27.2566   44.5325 H   0  0  0  0  0  0  0  0  0  0  0  0
   57.6510   27.3430   46.3680 N   0  0  0  0  0  0  0  0  0  0  0  0
   57.1150   26.2860   46.9060 C   0  0  0  0  0  0  0  0  0  0  0  0
   57.0882   26.2098   48.0030 H   0  0  0  0  0  0  0  0  0  0  0  0
   56.5420   25.1860   46.1080 C   0  0  0  0  0  0  0  0  0  0  0  0
   55.2060   25.2350   45.6650 C   0  0  0  0  0  0  0  0  0  0  0  0
   54.3940   26.3180   45.9830 O   0  0  0  0  0  0  0  0  0  0  0  0
   54.6810   24.1800   44.9130 C   0  0  0  0  0  0  0  0  0  0  0  0
   53.6420   24.2260   44.5547 H   0  0  0  0  0  0  0  0  0  0  0  0
   55.4720   23.0670   44.6150 C   0  0  0  0  0  0  0  0  0  0  0  0
   55.0560   22.2407   44.0199 H   0  0  0  0  0  0  0  0  0  0  0  0
   56.7900   23.0030   45.0720 C   0  0  0  0  0  0  0  0  0  0  0  0
   57.4090   22.1234   44.8415 H   0  0  0  0  0  0  0  0  0  0  0  0
   57.3240   24.0550   45.8220 C   0  0  0  0  0  0  0  0  0  0  0  0
   58.6080   23.9790   46.2570 F   0  0  0  0  0  0  0  0  0  0  0  0
   56.3320   29.7240   44.6930 C   0  0  0  0  0  0  0  0  0  0  0  0
   55.1700   28.9800   44.8700 O   0  0  0  0  0  0  0  0  0  0  0  0
   56.2390   31.1070   44.5070 C   0  0  0  0  0  0  0  0  0  0  0  0
   55.2517   31.5917   44.4894 H   0  0  0  0  0  0  0  0  0  0  0  0
  1  2  1  0
  2  3  1  0
  3  4  2  0
  4  5  1  0
  4  6  1  0
  6  7  1  0
  6  8  2  0
  8  9  1  0
  9 10  1  0
  9 11  1  0
  9 12  1  0
 12 13  2  0
 13 14  1  0
 13 15  1  0
 15 16  2  0
 16 17  1  0
 16 18  1  0
 18 19  1  0
 18 20  2  0
 20 21  1  0
 20 22  1  0
 22 23  1  0
 22 24  2  0
 24 25  1  0
  8 26  1  0
 26 27  1  0
 26 28  2  0
 28 29  1  0
 28  3  1  0
 24 15  1  0
M  CHG  2  17  -1  27  -1
M  END
>  <UniqueID>  (15) 
14

>  <SMILES>  (15) 
[O-]c1cc(O)ccc1C/N=C\c1c([O-])cccc1F

>  <Energy>  (15) 
37.032390299232596

>  <Genealogy>  (15) 
[O-]c1cc(O)ccc1CN=Cc1c([O-])cccc1F (protonated)
[O-]c1cc(O)ccc1C/N=C\c1c([O-])cccc1F (cis-trans isomerization)
[O-]c1cc(O)ccc1C/N=C\c1c([O-])cccc1F (3D coordinates assigned)
[O-]c1cc(O)ccc1C/N=C\c1c([O-])cccc1F (optimized conformer: 37.032390299232596 kcal/mol)

>  <smiles>  (15) 
Oc1ccc(CN=Cc2c(O)cccc2F)c(O)c1

>  <score_type>  (15) 
oracle

>  <origin>  (15) 
adg

>  <m_score__min__energy>  (15) 
-13.199999999999999

>  <m_primary>  (15) 
energy

$$$$
15:0
     RDKit          3D

 42 44  0  0  0  0  0  0  0  0999 V2000
   55.5266   32.0817   53.1690 H   0  0  0  0  0  0  0  0  0  0  0  0
   56.2820   31.5260   52.5940 C   0  0  0  0  0  0  0  0  0  0  0  0
   57.3540   32.1830   51.4790 S   0  0  0  0  0  0  0  0  0  0  0  0
   58.0550   30.6920   51.1190 C   0  0  0  0  0  0  0  0  0  0  0  0
   59.0450   30.4830   50.3010 N   0  0  0  0  0  0  0  0  0  0  0  0
   58.9450   30.0860   48.9240 C   0  0  0  0  0  0  0  0  0  0  0  0
   58.7630   31.0270   47.8950 C   0  0  0  0  0  0  0  0  0  0  0  0
   58.7275   32.1000   48.1344 H   0  0  0  0  0  0  0  0  0  0  0  0
   58.6270   30.6050   46.5690 C   0  0  0  0  0  0  0  0  0  0  0  0
   58.4976   31.3475   45.7677 H   0  0  0  0  0  0  0  0  0  0  0  0
   58.6550   29.2400   46.2580 C   0  0  0  0  0  0  0  0  0  0  0  0
   58.4710   28.7110   44.5890 S   0  0  0  0  0  0  0  0  0  0  0  0
   57.3630   27.7000   44.5040 O   0  0  0  0  0  0  0  0  0  0  0  0
   59.7530   28.0910   44.1050 O   0  0  0  0  0  0  0  0  0  0  0  0
   58.0940   30.0680   43.5840 N   0  0  0  0  0  0  0  0  0  0  0  0
   58.9970   30.5380   43.3530 H   0  0  0  0  0  0  0  0  0  0  0  0
   57.7120   29.6880   42.6880 H   0  0  0  0  0  0  0  0  0  0  0  0
   58.7950   28.2980   47.2860 C   0  0  0  0  0  0  0  0  0  0  0  0
   58.7988   27.2239   47.0489 H   0  0  0  0  0  0  0  0  0  0  0  0
   58.9300   28.7200   48.6130 C   0  0  0  0  0  0  0  0  0  0  0  0
   59.0249   27.9751   49.4168 H   0  0  0  0  0  0  0  0  0  0  0  0
   57.5020   29.6950   51.8400 N   0  0  0  0  0  0  0  0  0  0  0  0
   56.5180   30.1500   52.6630 C   0  0  0  0  0  0  0  0  0  0  0  0
   55.7050   29.1990   53.5070 C   0  0  1  0  0  0  0  0  0  0  0  0
   56.3495   28.3463   53.7669 H   0  0  0  0  0  0  0  0  0  0  0  0
   55.2760   29.8390   54.7540 N   0  0  0  0  0  0  0  0  0  0  0  0
   54.7810   30.7290   54.5130 H   0  0  0  0  0  0  0  0  0  0  0  0
   56.1280   30.1200   55.2910 H   0  0  0  0  0  0  0  0  0  0  0  0
   54.4940   28.6530   52.7220 C   0  0  0  0  0  0  0  0  0  0  0  0
   54.8534   28.2338   51.7706 H   0  0  0  0  0  0  0  0  0  0  0  0
   54.0114   27.8907   53.3513 H   0  0  0  0  0  0  0  0  0  0  0  0
   53.4590   29.7100   52.4210 C   0  0  0  0  0  0  0  0  0  0  0  0
   53.4520   30.3630   51.1750 C   0  0  0  0  0  0  0  0  0  0  0  0
   54.1867   30.0827   50.4058 H   0  0  0  0  0  0  0  0  0  0  0  0
   52.5160   31.3660   50.9100 C   0  0  0  0  0  0  0  0  0  0  0  0
   52.5164   31.8733   49.9340 H   0  0  0  0  0  0  0  0  0  0  0  0
   51.5790   31.7260   51.8830 C   0  0  0  0  0  0  0  0  0  0  0  0
   50.6500   32.7240   51.6180 O   0  0  0  0  0  0  0  0  0  0  0  0
   51.5790   31.0820   53.1240 C   0  0  0  0  0  0  0  0  0  0  0  0
   50.8413   31.3649   53.8893 H   0  0  0  0  0  0  0  0  0  0  0  0
   52.5150   30.0790   53.3940 C   0  0  0  0  0  0  0  0  0  0  0  0
   52.5123   29.5766   54.3726 H   0  0  0  0  0  0  0  0  0  0  0  0
  1  2  1  0
  2  3  1  0
  3  4  1  0
  4  5  2  0
  5  6  1  0
  6  7  2  0
  7  8  1  0
  7  9  1  0
  9 10  1  0
  9 11  2  0
 11 12  1  0
 12 13  2  0
 12 14  2  0
 12 15  1  0
 15 16  1  0
 15 17  1  0
 11 18  1  0
 18 19  1  0
 18 20  2  0
 20 21  1  0
  4 22  1  0
 22 23  1  0
 23 24  1  0
 24 25  1  1
 24 26  1  0
 26 27  1  0
 26 28  1  0
 24 29  1  0
 29 30  1  0
 29 31  1  0
 29 32  1  0
 32 33  2  0
 33 34  1  0
 33 35  1  0
 35 36  1  0
 35 37  2  0
 37 38  1  0
 37 39  1  0
 39 40  1  0
 39 41  2  0
 41 42  1  0
 23  2  2  0
 41 32  1  0
 20  6  1  0
M  CHG  2  22  -1  38  -1
M  END
>  <UniqueID>  (16) 
15

>  <SMILES>  (16) 
N[C@@H](Cc1ccc([O-])cc1)c1cs/c(=N\c2ccc(S(N)(=O)=O)cc2)[n-]1

>  <Energy>  (16) 
76.97167112928668

>  <Genealogy>  (16) 
NC(Cc1ccc([O-])cc1)c1csc(=Nc2ccc(S(N)(=O)=O)cc2)[n-]1 (protonated)
N[C@@H](Cc1ccc([O-])cc1)c1csc(=Nc2ccc(S(N)(=O)=O)cc2)[n-]1 (chirality)
N[C@@H](Cc1ccc([O-])cc1)c1cs/c(=N\c2ccc(S(N)(=O)=O)cc2)[n-]1 (cis-trans isomerization)
N[C@@H](Cc1ccc([O-])cc1)c1cs/c(=N\c2ccc(S(N)(=O)=O)cc2)[n-]1 (3D coordinates assigned)
N[C@@H](Cc1ccc([O-])cc1)c1cs/c(=N\c2ccc(S(N)(=O)=O)cc2)[n-]1 (optimized conformer: 76.97167112928668 kcal/mol)

>  <smiles>  (16) 
NC(Cc1ccc(O)cc1)c1csc(=Nc2ccc(S(N)(=O)=O)cc2)[nH]1

>  <score_type>  (16) 
oracle

>  <origin>  (16) 
adg

>  <m_score__min__energy>  (16) 
-13.67

>  <m_primary>  (16) 
energy

$$$$
16:0
     RDKit          3D

 50 52  0  0  0  0  0  0  0  0999 V2000
   60.5490   25.7140   46.3620 C   0  0  0  0  0  0  0  0  0  0  0  0
   59.1120   26.0170   46.2670 N   0  0  0  0  0  0  0  0  0  0  0  0
   58.2210   25.0680   46.6940 C   0  0  0  0  0  0  0  0  0  0  0  0
   56.8340   25.2870   46.6210 C   0  0  0  0  0  0  0  0  0  0  0  0
   55.8920   24.3450   47.0720 O   0  0  0  0  0  0  0  0  0  0  0  0
   55.0270   23.5730   46.2370 C   0  0  0  0  0  0  0  0  0  0  0  0
   55.7990   22.9370   45.1110 C   0  0  0  0  0  0  0  0  0  0  0  0
   55.5280   23.2960   43.7800 C   0  0  0  0  0  0  0  0  0  0  0  0
   56.2450   22.7100   42.7320 C   0  0  0  0  0  0  0  0  0  0  0  0
   57.2420   21.7700   43.0050 C   0  0  0  0  0  0  0  0  0  0  0  0
   57.5260   21.4170   44.3280 C   0  0  0  0  0  0  0  0  0  0  0  0
   56.8110   22.0010   45.3780 C   0  0  0  0  0  0  0  0  0  0  0  0
   56.3740   26.4870   46.0790 C   0  0  0  0  0  0  0  0  0  0  0  0
   55.1370   26.7120   45.9950 O   0  0  0  0  0  0  0  0  0  0  0  0
   57.2820   27.4440   45.6350 C   0  0  0  0  0  0  0  0  0  0  0  0
   58.6610   27.2050   45.7300 C   0  0  0  0  0  0  0  0  0  0  0  0
   59.6010   28.3040   45.2680 C   0  0  0  0  0  0  0  0  0  0  0  0
   58.8610   29.6260   45.0300 C   0  0  0  0  0  0  0  0  0  0  0  0
   57.9950   29.5330   43.8520 N   0  0  0  0  0  0  0  0  0  0  0  0
   56.9310   30.9050   43.7900 S   0  0  0  0  0  0  0  0  0  0  0  0
   55.6440   30.5670   44.4870 O   0  0  0  0  0  0  0  0  0  0  0  0
   56.6370   31.2450   42.3540 O   0  0  0  0  0  0  0  0  0  0  0  0
   57.6750   32.2800   44.5990 C   0  0  0  0  0  0  0  0  0  0  0  0
   58.4720   33.1740   43.8700 C   0  0  0  0  0  0  0  0  0  0  0  0
   59.0640   34.2690   44.5070 C   0  0  0  0  0  0  0  0  0  0  0  0
   58.8650   34.4740   45.8760 C   0  0  0  0  0  0  0  0  0  0  0  0
   59.4380   35.5370   46.4930 F   0  0  0  0  0  0  0  0  0  0  0  0
   58.0740   33.5830   46.6080 C   0  0  0  0  0  0  0  0  0  0  0  0
   57.4810   32.4880   45.9730 C   0  0  0  0  0  0  0  0  0  0  0  0
   60.8415   25.6523   47.4206 H   0  0  0  0  0  0  0  0  0  0  0  0
   60.7545   24.7528   45.8682 H   0  0  0  0  0  0  0  0  0  0  0  0
   61.1251   26.5104   45.8682 H   0  0  0  0  0  0  0  0  0  0  0  0
   58.5973   24.1179   47.1011 H   0  0  0  0  0  0  0  0  0  0  0  0
   54.5530   22.7844   46.8399 H   0  0  0  0  0  0  0  0  0  0  0  0
   54.2631   24.2388   45.8091 H   0  0  0  0  0  0  0  0  0  0  0  0
   54.7488   24.0410   43.5613 H   0  0  0  0  0  0  0  0  0  0  0  0
   56.0237   22.9895   41.6914 H   0  0  0  0  0  0  0  0  0  0  0  0
   57.8033   21.3078   42.1796 H   0  0  0  0  0  0  0  0  0  0  0  0
   58.3129   20.6790   44.5428 H   0  0  0  0  0  0  0  0  0  0  0  0
   57.0423   21.7260   46.4177 H   0  0  0  0  0  0  0  0  0  0  0  0
   56.9173   28.3901   45.2085 H   0  0  0  0  0  0  0  0  0  0  0  0
   60.3707   28.4608   46.0381 H   0  0  0  0  0  0  0  0  0  0  0  0
   60.0519   27.9891   44.3154 H   0  0  0  0  0  0  0  0  0  0  0  0
   58.2463   29.8590   45.9120 H   0  0  0  0  0  0  0  0  0  0  0  0
   59.6033   30.4198   44.8600 H   0  0  0  0  0  0  0  0  0  0  0  0
   58.5970   29.5840   42.9980 H   0  0  0  0  0  0  0  0  0  0  0  0
   58.6321   33.0135   42.7936 H   0  0  0  0  0  0  0  0  0  0  0  0
   59.6865   34.9695   43.9310 H   0  0  0  0  0  0  0  0  0  0  0  0
   57.9182   33.7440   47.6849 H   0  0  0  0  0  0  0  0  0  0  0  0
   56.8608   31.7877   46.5518 H   0  0  0  0  0  0  0  0  0  0  0  0
  1  2  1  0
  2  3  1  0
  3  4  2  0
  4  5  1  0
  5  6  1  0
  6  7  1  0
  7  8  2  0
  8  9  1  0
  9 10  2  0
 10 11  1  0
 11 12  2  0
  4 13  1  0
 13 14  2  0
 13 15  1  0
 15 16  2  0
 16 17  1  0
 17 18  1  0
 18 19  1  0
 19 20  1  0
 20 21  2  0
 20 22  2  0
 20 23  1  0
 23 24  2  0
 24 25  1  0
 25 26  2  0
 26 27  1  0
 26 28  1  0
 28 29  2  0
 16  2  1  0
 29 23  1  0
 12  7  1  0
  1 30  1  0
  1 31  1  0
  1 32  1  0
  3 33  1  0
  6 34  1  0
  6 35  1  0
  8 36  1  0
  9 37  1  0
 10 38  1  0
 11 39  1  0
 12 40  1  0
 15 41  1  0
 17 42  1  0
 17 43  1  0
 18 44  1  0
 18 45  1  0
 19 46  1  0
 24 47  1  0
 25 48  1  0
 28 49  1  0
 29 50  1  0
M  END
>  <UniqueID>  (17) 
16

>  <SMILES>  (17) 
Cn1cc(OCc2ccccc2)c(=O)cc1CCNS(=O)(=O)c1ccc(F)cc1

>  <Energy>  (17) 
51.33411377213803

>  <Genealogy>  (17) 
Cn1cc(OCc2ccccc2)c(=O)cc1CCNS(=O)(=O)c1ccc(F)cc1 (3D coordinates assigned)
Cn1cc(OCc2ccccc2)c(=O)cc1CCNS(=O)(=O)c1ccc(F)cc1 (optimized conformer: 51.33411377213803 kcal/mol)

>  <smiles>  (17) 
Cn1cc(OCc2ccccc2)c(=O)cc1CCNS(=O)(=O)c1ccc(F)cc1

>  <score_type>  (17) 
oracle

>  <origin>  (17) 
adg

>  <m_score__min__energy>  (17) 
-9.75

>  <m_primary>  (17) 
energy

$$$$
17:0
     RDKit          3D

 37 38  0  0  0  0  0  0  0  0999 V2000
   54.8830   24.1380   45.6890 C   0  0  0  0  0  0  0  0  0  0  0  0
   55.5280   24.9820   46.6370 O   0  0  0  0  0  0  0  0  0  0  0  0
   56.6680   25.7530   46.3660 C   0  0  0  0  0  0  0  0  0  0  0  0
   57.9230   25.2020   46.6430 C   0  0  0  0  0  0  0  0  0  0  0  0
   59.0880   25.9350   46.4060 C   0  0  0  0  0  0  0  0  0  0  0  0
   59.0080   27.2250   45.8790 C   0  0  0  0  0  0  0  0  0  0  0  0
   57.7620   27.7900   45.5700 C   0  0  0  0  0  0  0  0  0  0  0  0
   57.7080   29.1290   45.0480 N   0  0  0  0  0  0  0  0  0  0  0  0
   56.4930   29.8600   44.8280 C   0  0  0  0  0  0  0  0  0  0  0  0
   55.3740   29.2810   44.8870 O   0  0  0  0  0  0  0  0  0  0  0  0
   56.5640   31.2480   44.4960 N   0  0  0  0  0  0  0  0  0  0  0  0
   57.7580   31.8660   43.9290 C   0  0  0  0  0  0  0  0  0  0  0  0
   57.7580   33.3690   44.2050 C   0  0  0  0  0  0  0  0  0  0  0  0
   58.3800   33.6830   45.5420 C   0  0  0  0  0  0  0  0  0  0  0  0
   59.3110   34.7280   45.6650 C   0  0  0  0  0  0  0  0  0  0  0  0
   59.9100   34.9950   46.9000 C   0  0  0  0  0  0  0  0  0  0  0  0
   59.5900   34.2190   48.0170 C   0  0  0  0  0  0  0  0  0  0  0  0
   58.6720   33.1700   47.9000 C   0  0  0  0  0  0  0  0  0  0  0  0
   58.0710   32.9000   46.6660 C   0  0  0  0  0  0  0  0  0  0  0  0
   56.5910   27.0560   45.8340 C   0  0  0  0  0  0  0  0  0  0  0  0
   54.2976   23.3720   46.2186 H   0  0  0  0  0  0  0  0  0  0  0  0
   54.2129   24.7403   45.0580 H   0  0  0  0  0  0  0  0  0  0  0  0
   55.6402   23.6496   45.0580 H   0  0  0  0  0  0  0  0  0  0  0  0
   57.9933   24.1829   47.0509 H   0  0  0  0  0  0  0  0  0  0  0  0
   60.0699   25.4951   46.6350 H   0  0  0  0  0  0  0  0  0  0  0  0
   59.9281   27.8022   45.7049 H   0  0  0  0  0  0  0  0  0  0  0  0
   58.5980   29.5720   44.7280 H   0  0  0  0  0  0  0  0  0  0  0  0
   58.6517   31.4134   44.3834 H   0  0  0  0  0  0  0  0  0  0  0  0
   57.7645   31.7015   42.8414 H   0  0  0  0  0  0  0  0  0  0  0  0
   58.3306   33.8778   43.4156 H   0  0  0  0  0  0  0  0  0  0  0  0
   56.7151   33.7185   44.2178 H   0  0  0  0  0  0  0  0  0  0  0  0
   59.5695   35.3381   44.7870 H   0  0  0  0  0  0  0  0  0  0  0  0
   60.6345   35.8175   46.9923 H   0  0  0  0  0  0  0  0  0  0  0  0
   60.0599   34.4329   48.9883 H   0  0  0  0  0  0  0  0  0  0  0  0
   58.4226   32.5571   48.7788 H   0  0  0  0  0  0  0  0  0  0  0  0
   57.3535   32.0711   46.5758 H   0  0  0  0  0  0  0  0  0  0  0  0
   55.6079   27.5024   45.6236 H   0  0  0  0  0  0  0  0  0  0  0  0
  1  2  1  0
  2  3  1  0
  3  4  2  0
  4  5  1  0
  5  6  2  0
  6  7  1  0
  7  8  1  0
  8  9  1  0
  9 10  2  0
  9 11  1  0
 11 12  1  0
 12 13  1  0
 13 14  1  0
 14 15  2  0
 15 16  1  0
 16 17  2  0
 17 18  1  0
 18 19  2  0
  7 20  2  0
 20  3  1  0
 19 14  1  0
  1 21  1  0
  1 22  1  0
  1 23  1  0
  4 24  1  0
  5 25  1  0
  6 26  1  0
  8 27  1  0
 12 28  1  0
 12 29  1  0
 13 30  1  0
 13 31  1  0
 15 32  1  0
 16 33  1  0
 17 34  1  0
 18 35  1  0
 19 36  1  0
 20 37  1  0
M  CHG  1  11  -1
M  END
>  <UniqueID>  (18) 
17

>  <SMILES>  (18) 
COc1cccc(NC(=O)[N-]CCc2ccccc2)c1

>  <Energy>  (18) 
34.72266321176693

>  <Genealogy>  (18) 
COc1cccc(NC(=O)[N-]CCc2ccccc2)c1 (protonated)
COc1cccc(NC(=O)[N-]CCc2ccccc2)c1 (3D coordinates assigned)
COc1cccc(NC(=O)[N-]CCc2ccccc2)c1 (optimized conformer: 34.72266321176693 kcal/mol)

>  <smiles>  (18) 
COc1cccc(NC(=O)NCCc2ccccc2)c1

>  <score_type>  (18) 
oracle

>  <origin>  (18) 
adg

>  <m_score__min__energy>  (18) 
-9.0700000000000003

>  <m_primary>  (18) 
energy

$$$$
18:0
     RDKit          3D

 40 42  0  0  0  0  0  0  0  0999 V2000
   58.0860   32.3820   41.2760 C   0  0  0  0  0  0  0  0  0  0  0  0
   57.7500   32.1140   42.7080 C   0  0  0  0  0  0  0  0  0  0  0  0
   57.3380   30.8430   43.1160 C   0  0  0  0  0  0  0  0  0  0  0  0
   57.0890   30.6170   44.4760 C   0  0  0  0  0  0  0  0  0  0  0  0
   56.6720   29.2730   44.9420 C   0  0  0  0  0  0  0  0  0  0  0  0
   55.4540   28.9540   44.8790 O   0  0  0  0  0  0  0  0  0  0  0  0
   57.6520   28.2890   45.4650 C   0  0  0  0  0  0  0  0  0  0  0  0
   57.2130   27.0630   45.9970 C   0  0  0  0  0  0  0  0  0  0  0  0
   58.1320   26.1400   46.5050 C   0  0  0  0  0  0  0  0  0  0  0  0
   59.4970   26.4350   46.4950 C   0  0  0  0  0  0  0  0  0  0  0  0
   59.9450   27.6540   45.9820 C   0  0  0  0  0  0  0  0  0  0  0  0
   59.0310   28.5830   45.4720 C   0  0  0  0  0  0  0  0  0  0  0  0
   59.4960   29.7520   44.9640 F   0  0  0  0  0  0  0  0  0  0  0  0
   57.2310   31.6470   45.3600 N   0  0  0  0  0  0  0  0  0  0  0  0
   57.6550   32.8710   44.9470 C   0  0  0  0  0  0  0  0  0  0  0  0
   57.9300   34.1830   46.1350 S   0  0  0  0  0  0  0  0  0  0  0  0
   59.6610   34.4850   45.6260 C   0  0  0  0  0  0  0  0  0  0  0  0
   60.6070   33.5570   46.3370 C   0  0  0  0  0  0  0  0  0  0  0  0
   61.9630   33.8980   46.4860 C   0  0  0  0  0  0  0  0  0  0  0  0
   62.8280   33.0570   47.1920 C   0  0  0  0  0  0  0  0  0  0  0  0
   62.3480   31.8690   47.7500 C   0  0  0  0  0  0  0  0  0  0  0  0
   61.0030   31.5220   47.6050 C   0  0  0  0  0  0  0  0  0  0  0  0
   60.1330   32.3620   46.9030 C   0  0  0  0  0  0  0  0  0  0  0  0
   57.9120   33.0950   43.6320 N   0  0  0  0  0  0  0  0  0  0  0  0
   58.9449   33.0671   41.2229 H   0  0  0  0  0  0  0  0  0  0  0  0
   58.3402   31.4359   40.7757 H   0  0  0  0  0  0  0  0  0  0  0  0
   57.2201   32.8402   40.7757 H   0  0  0  0  0  0  0  0  0  0  0  0
   57.2113   30.0336   42.3820 H   0  0  0  0  0  0  0  0  0  0  0  0
   56.1384   26.8287   46.0134 H   0  0  0  0  0  0  0  0  0  0  0  0
   57.7798   25.1810   46.9128 H   0  0  0  0  0  0  0  0  0  0  0  0
   60.2197   25.7066   46.8915 H   0  0  0  0  0  0  0  0  0  0  0  0
   61.0205   27.8850   45.9787 H   0  0  0  0  0  0  0  0  0  0  0  0
   57.0200   31.5050   46.3740 H   0  0  0  0  0  0  0  0  0  0  0  0
   59.7491   34.3251   44.5413 H   0  0  0  0  0  0  0  0  0  0  0  0
   59.9256   35.5200   45.8883 H   0  0  0  0  0  0  0  0  0  0  0  0
   62.3448   34.8306   46.0451 H   0  0  0  0  0  0  0  0  0  0  0  0
   63.8871   33.3304   47.3084 H   0  0  0  0  0  0  0  0  0  0  0  0
   63.0299   31.2069   48.3037 H   0  0  0  0  0  0  0  0  0  0  0  0
   60.6272   30.5860   48.0439 H   0  0  0  0  0  0  0  0  0  0  0  0
   59.0738   32.0860   46.7936 H   0  0  0  0  0  0  0  0  0  0  0  0
  1  2  1  0
  2  3  2  0
  3  4  1  0
  4  5  1  0
  5  6  2  0
  5  7  1  0
  7  8  2  0
  8  9  1  0
  9 10  2  0
 10 11  1  0
 11 12  2  0
 12 13  1  0
  4 14  2  0
 14 15  1  0
 15 16  1  0
 16 17  1  0
 17 18  1  0
 18 19  2  0
 19 20  1  0
 20 21  2  0
 21 22  1  0
 22 23  2  0
 15 24  2  0
 24  2  1  0
 12  7  1  0
 23 18  1  0
  1 25  1  0
  1 26  1  0
  1 27  1  0
  3 28  1  0
  8 29  1  0
  9 30  1  0
 10 31  1  0
 11 32  1  0
 14 33  1  0
 17 34  1  0
 17 35  1  0
 19 36  1  0
 20 37  1  0
 21 38  1  0
 22 39  1  0
 23 40  1  0
M  CHG  1  14   1
M  END
>  <UniqueID>  (19) 
18

>  <SMILES>  (19) 
Cc1cc(C(=O)c2ccccc2F)[nH+]c(SCc2ccccc2)n1

>  <Energy>  (19) 
41.968699761056854

>  <Genealogy>  (19) 
Cc1cc(C(=O)c2ccccc2F)[nH+]c(SCc2ccccc2)n1 (protonated)
Cc1cc(C(=O)c2ccccc2F)[nH+]c(SCc2ccccc2)n1 (3D coordinates assigned)
Cc1cc(C(=O)c2ccccc2F)[nH+]c(SCc2ccccc2)n1 (optimized conformer: 41.968699761056854 kcal/mol)

>  <smiles>  (19) 
Cc1cc(C(=O)c2ccccc2F)nc(SCc2ccccc2)n1

>  <score_type>  (19) 
oracle

>  <origin>  (19) 
adg

>  <m_score__min__energy>  (19) 
-8.4000000000000004

>  <m_primary>  (19) 
energy

$$$$
19:0
     RDKit          3D

 70 74  0  0  0  0  0  0  0  0999 V2000
   56.0840   29.7990   53.2970 C   0  0  0  0  0  0  0  0  0  0  0  0
   56.9080   30.6440   52.3860 C   0  0  0  0  0  0  0  0  0  0  0  0
   57.2400   31.9670   52.5980 C   0  0  0  0  0  0  0  0  0  0  0  0
   58.0110   32.3360   51.5170 C   0  0  0  0  0  0  0  0  0  0  0  0
   58.1070   31.2080   50.7220 C   0  0  0  0  0  0  0  0  0  0  0  0
   58.8760   31.1000   49.4400 C   0  0  0  0  0  0  0  0  0  0  0  0
   60.0610   30.2490   49.6370 N   0  0  0  0  0  0  0  0  0  0  0  0
   60.6410   30.1640   50.9910 C   0  0  0  0  0  0  0  0  0  0  0  0
   61.9050   30.9820   51.0740 C   0  0  0  0  0  0  0  0  0  0  0  0
   62.0480   31.9650   52.0640 C   0  0  0  0  0  0  0  0  0  0  0  0
   63.1700   32.7970   52.0780 C   0  0  0  0  0  0  0  0  0  0  0  0
   64.1710   32.6620   51.1000 C   0  0  0  0  0  0  0  0  0  0  0  0
   65.3580   33.5500   51.0900 C   0  0  0  0  0  0  0  0  0  0  0  0
   65.4760   34.6490   51.9970 N   0  0  0  0  0  0  0  0  0  0  0  0
   66.2840   33.3440   50.2600 O   0  0  0  0  0  0  0  0  0  0  0  0
   64.0400   31.6560   50.1290 C   0  0  0  0  0  0  0  0  0  0  0  0
   62.9140   30.8280   50.1110 C   0  0  0  0  0  0  0  0  0  0  0  0
   60.5970   29.5170   48.5070 C   0  0  0  0  0  0  0  0  0  0  0  0
   61.0710   28.3630   48.6880 O   0  0  0  0  0  0  0  0  0  0  0  0
   60.5830   30.0790   47.1030 C   0  0  0  0  0  0  0  0  0  0  0  0
   59.2550   29.9210   46.4540 N   0  0  0  0  0  0  0  0  0  0  0  0
   58.6030   31.0010   45.8800 C   0  0  0  0  0  0  0  0  0  0  0  0
   59.1540   32.4120   45.8610 C   0  0  0  0  0  0  0  0  0  0  0  0
   59.2010   33.0330   47.2640 C   0  0  0  0  0  0  0  0  0  0  0  0
   60.6130   33.3990   47.6570 C   0  0  0  0  0  0  0  0  0  0  0  0
   61.6660   33.1820   46.7510 C   0  0  0  0  0  0  0  0  0  0  0  0
   62.9710   33.5570   47.0800 C   0  0  0  0  0  0  0  0  0  0  0  0
   63.2370   34.1600   48.3120 C   0  0  0  0  0  0  0  0  0  0  0  0
   62.1980   34.3900   49.2160 C   0  0  0  0  0  0  0  0  0  0  0  0
   62.4600   34.9840   50.4080 F   0  0  0  0  0  0  0  0  0  0  0  0
   60.8890   34.0150   48.8930 C   0  0  0  0  0  0  0  0  0  0  0  0
   59.8940   34.2610   49.7810 F   0  0  0  0  0  0  0  0  0  0  0  0
   57.3790   30.8390   45.3160 N   0  0  0  0  0  0  0  0  0  0  0  0
   56.7520   29.6460   45.2680 C   0  0  0  0  0  0  0  0  0  0  0  0
   55.6130   29.5720   44.7300 O   0  0  0  0  0  0  0  0  0  0  0  0
   57.3710   28.5190   45.8100 C   0  0  0  0  0  0  0  0  0  0  0  0
   56.7470   27.2570   45.7640 C   0  0  0  0  0  0  0  0  0  0  0  0
   57.3780   26.1410   46.3070 C   0  0  0  0  0  0  0  0  0  0  0  0
   58.6290   26.2670   46.9000 C   0  0  0  0  0  0  0  0  0  0  0  0
   59.2580   27.5110   46.9610 C   0  0  0  0  0  0  0  0  0  0  0  0
   58.6480   28.6710   46.4130 C   0  0  0  0  0  0  0  0  0  0  0  0
   57.4380   30.2170   51.2630 O   0  0  0  0  0  0  0  0  0  0  0  0
   56.3238   30.0449   54.3420 H   0  0  0  0  0  0  0  0  0  0  0  0
   55.0171   29.9914   53.1106 H   0  0  0  0  0  0  0  0  0  0  0  0
   56.3032   28.7373   53.1106 H   0  0  0  0  0  0  0  0  0  0  0  0
   56.9495   32.5961   53.4523 H   0  0  0  0  0  0  0  0  0  0  0  0
   58.4575   33.3230   51.3259 H   0  0  0  0  0  0  0  0  0  0  0  0
   58.2332   30.6566   48.6653 H   0  0  0  0  0  0  0  0  0  0  0  0
   59.1988   32.1035   49.1256 H   0  0  0  0  0  0  0  0  0  0  0  0
   59.9132   30.5465   51.7217 H   0  0  0  0  0  0  0  0  0  0  0  0
   60.8810   29.1133   51.2109 H   0  0  0  0  0  0  0  0  0  0  0  0
   61.2716   32.0816   52.8345 H   0  0  0  0  0  0  0  0  0  0  0  0
   63.2711   33.5637   52.8602 H   0  0  0  0  0  0  0  0  0  0  0  0
   64.6740   34.9590   52.5900 H   0  0  0  0  0  0  0  0  0  0  0  0
   66.3480   35.2230   52.0110 H   0  0  0  0  0  0  0  0  0  0  0  0
   64.8302   31.5184   49.3762 H   0  0  0  0  0  0  0  0  0  0  0  0
   62.8183   30.0515   49.3378 H   0  0  0  0  0  0  0  0  0  0  0  0
   60.8322   31.1495   47.1463 H   0  0  0  0  0  0  0  0  0  0  0  0
   61.3213   29.5229   46.5067 H   0  0  0  0  0  0  0  0  0  0  0  0
   60.1737   32.3890   45.4491 H   0  0  0  0  0  0  0  0  0  0  0  0
   58.4864   33.0278   45.2404 H   0  0  0  0  0  0  0  0  0  0  0  0
   58.5797   33.9407   47.2748 H   0  0  0  0  0  0  0  0  0  0  0  0
   58.8220   32.2924   47.9836 H   0  0  0  0  0  0  0  0  0  0  0  0
   61.4610   32.7140   45.7769 H   0  0  0  0  0  0  0  0  0  0  0  0
   63.7901   33.3773   46.3682 H   0  0  0  0  0  0  0  0  0  0  0  0
   64.2653   34.4536   48.5698 H   0  0  0  0  0  0  0  0  0  0  0  0
   55.7566   27.1527   45.2969 H   0  0  0  0  0  0  0  0  0  0  0  0
   56.8859   25.1581   46.2667 H   0  0  0  0  0  0  0  0  0  0  0  0
   59.1256   25.3814   47.3233 H   0  0  0  0  0  0  0  0  0  0  0  0
   60.2437   27.5950   47.4420 H   0  0  0  0  0  0  0  0  0  0  0  0
  1  2  1  0
  2  3  2  0
  3  4  1  0
  4  5  2  0
  5  6  1  0
  6  7  1  0
  7  8  1  0
  8  9  1  0
  9 10  2  0
 10 11  1  0
 11 12  2  0
 12 13  1  0
 13 14  1  0
 13 15  2  0
 12 16  1  0
 16 17  2  0
  7 18  1  0
 18 19  2  0
 18 20  1  0
 20 21  1  0
 21 22  1  0
 22 23  1  0
 23 24  1  0
 24 25  1  0
 25 26  2  0
 26 27  1  0
 27 28  2  0
 28 29  1  0
 29 30  1  0
 29 31  2  0
 31 32  1  0
 22 33  2  0
 33 34  1  0
 34 35  2  0
 34 36  1  0
 36 37  2  0
 37 38  1  0
 38 39  2  0
 39 40  1  0
 40 41  2  0
  5 42  1  0
 42  2  1  0
 17  9  1  0
 41 21  1  0
 31 25  1  0
 41 36  1  0
  1 43  1  0
  1 44  1  0
  1 45  1  0
  3 46  1  0
  4 47  1  0
  6 48  1  0
  6 49  1  0
  8 50  1  0
  8 51  1  0
 10 52  1  0
 11 53  1  0
 14 54  1  0
 14 55  1  0
 16 56  1  0
 17 57  1  0
 20 58  1  0
 20 59  1  0
 23 60  1  0
 23 61  1  0
 24 62  1  0
 24 63  1  0
 26 64  1  0
 27 65  1  0
 28 66  1  0
 37 67  1  0
 38 68  1  0
 39 69  1  0
 40 70  1  0
M  END
>  <UniqueID>  (20) 
19

>  <SMILES>  (20) 
Cc1ccc(CN(Cc2ccc(C(N)=O)cc2)C(=O)Cn2c(CCc3cccc(F)c3F)nc(=O)c3ccccc32)o1

>  <Energy>  (20) 
107.82995071951956

>  <Genealogy>  (20) 
Cc1ccc(CN(Cc2ccc(C(N)=O)cc2)C(=O)Cn2c(CCc3cccc(F)c3F)nc(=O)c3ccccc32)o1 (3D coordinates assigned)
Cc1ccc(CN(Cc2ccc(C(N)=O)cc2)C(=O)Cn2c(CCc3cccc(F)c3F)nc(=O)c3ccccc32)o1 (optimized conformer: 107.82995071951956 kcal/mol)

>  <smiles>  (20) 
Cc1ccc(CN(Cc2ccc(C(N)=O)cc2)C(=O)Cn2c(CCc3cccc(F)c3F)nc(=O)c3ccccc32)o1

>  <score_type>  (20) 
oracle

>  <origin>  (20) 
adg

>  <m_score__min__energy>  (20) 
-9.8800000000000008

>  <m_primary>  (20) 
energy

$$$$
20:0
     RDKit          3D

 68 72  0  0  0  0  0  0  0  0999 V2000
   56.9920   34.1300   45.2370 C   0  0  0  0  0  0  0  0  0  0  0  0
   57.7750   32.9400   44.6770 C   0  0  0  0  0  0  0  0  0  0  0  0
   58.3020   32.0950   45.7770 N   0  0  0  0  0  0  0  0  0  0  0  0
   59.2250   32.5860   46.6860 C   0  0  0  0  0  0  0  0  0  0  0  0
   59.8060   33.8690   46.5300 C   0  0  0  0  0  0  0  0  0  0  0  0
   60.7510   34.3510   47.4260 C   0  0  0  0  0  0  0  0  0  0  0  0
   61.1300   33.5930   48.5330 C   0  0  0  0  0  0  0  0  0  0  0  0
   62.1720   34.0410   49.4130 N   0  0  0  0  0  0  0  0  0  0  0  0
   63.7820   33.3870   49.4460 S   0  0  0  0  0  0  0  0  0  0  0  0
   64.4060   33.5320   48.0870 O   0  0  0  0  0  0  0  0  0  0  0  0
   64.5990   34.1330   50.4620 O   0  0  0  0  0  0  0  0  0  0  0  0
   63.7040   31.6520   49.8750 C   0  0  0  0  0  0  0  0  0  0  0  0
   64.7350   31.2750   50.9400 C   0  0  0  0  0  0  0  0  0  0  0  0
   64.4940   31.9940   52.0950 F   0  0  0  0  0  0  0  0  0  0  0  0
   66.0150   31.5660   50.4930 F   0  0  0  0  0  0  0  0  0  0  0  0
   64.6420   29.9230   51.2390 F   0  0  0  0  0  0  0  0  0  0  0  0
   60.5240   32.3470   48.7620 C   0  0  0  0  0  0  0  0  0  0  0  0
   60.8620   31.6280   49.9570 N   0  0  0  0  0  0  0  0  0  0  0  0
   60.3330   31.9160   51.2580 C   0  0  0  0  0  0  0  0  0  0  0  0
   61.0260   32.6040   52.0550 O   0  0  0  0  0  0  0  0  0  0  0  0
   59.0440   31.3620   51.7180 C   0  0  0  0  0  0  0  0  0  0  0  0
   58.9530   30.1750   52.3780 N   0  0  0  0  0  0  0  0  0  0  0  0
   57.6290   30.0320   52.5390 C   0  0  0  0  0  0  0  0  0  0  0  0
   56.9510   28.9720   53.1380 C   0  0  0  0  0  0  0  0  0  0  0  0
   55.5440   29.0260   53.1590 C   0  0  0  0  0  0  0  0  0  0  0  0
   54.8610   30.1240   52.5830 C   0  0  0  0  0  0  0  0  0  0  0  0
   55.5800   31.1770   51.9850 C   0  0  0  0  0  0  0  0  0  0  0  0
   56.9710   31.0890   51.9860 C   0  0  0  0  0  0  0  0  0  0  0  0
   57.8470   31.9500   51.4520 N   0  0  0  0  0  0  0  0  0  0  0  0
   59.6250   31.7970   47.8020 C   0  0  0  0  0  0  0  0  0  0  0  0
   59.1260   30.4800   47.9170 C   0  0  0  0  0  0  0  0  0  0  0  0
   59.4570   29.7610   48.8980 O   0  0  0  0  0  0  0  0  0  0  0  0
   58.2830   29.9500   46.9210 C   0  0  0  0  0  0  0  0  0  0  0  0
   57.8320   28.6010   46.9360 C   0  0  0  0  0  0  0  0  0  0  0  0
   58.1480   27.8350   47.8900 O   0  0  0  0  0  0  0  0  0  0  0  0
   57.0190   28.1100   45.8930 C   0  0  0  0  0  0  0  0  0  0  0  0
   56.5980   26.6840   45.8190 C   0  0  0  0  0  0  0  0  0  0  0  0
   55.3860   26.3760   45.9760 O   0  0  0  0  0  0  0  0  0  0  0  0
   57.5520   25.6650   45.4950 N   0  0  0  0  0  0  0  0  0  0  0  0
   57.6760   24.4260   46.2500 C   0  0  0  0  0  0  0  0  0  0  0  0
   57.0180   23.2700   45.4890 C   0  0  0  0  0  0  0  0  0  0  0  0
   57.0240   23.4620   43.9640 C   0  0  0  0  0  0  0  0  0  0  0  0
   55.8830   22.7500   43.3090 C   0  0  0  0  0  0  0  0  0  0  0  0
   54.7630   23.3130   43.1990 O   0  0  0  0  0  0  0  0  0  0  0  0
   56.0530   21.4550   42.8390 O   0  0  0  0  0  0  0  0  0  0  0  0
   56.6270   28.9960   44.8840 C   0  0  0  0  0  0  0  0  0  0  0  0
   57.0620   30.2780   44.8900 N   0  0  0  0  0  0  0  0  0  0  0  0
   57.8790   30.7860   45.8560 C   0  0  0  0  0  0  0  0  0  0  0  0
   57.0130   34.0981   46.3363 H   0  0  0  0  0  0  0  0  0  0  0  0
   57.4504   35.0672   44.8886 H   0  0  0  0  0  0  0  0  0  0  0  0
   55.9499   34.0799   44.8886 H   0  0  0  0  0  0  0  0  0  0  0  0
   57.1090   32.3350   44.0442 H   0  0  0  0  0  0  0  0  0  0  0  0
   58.6214   33.3199   44.0861 H   0  0  0  0  0  0  0  0  0  0  0  0
   59.5015   34.4973   45.6800 H   0  0  0  0  0  0  0  0  0  0  0  0
   61.2045   35.3395   47.2609 H   0  0  0  0  0  0  0  0  0  0  0  0
   62.6984   31.4267   50.2596 H   0  0  0  0  0  0  0  0  0  0  0  0
   63.9249   31.0690   48.9687 H   0  0  0  0  0  0  0  0  0  0  0  0
   57.4953   28.1237   53.5785 H   0  0  0  0  0  0  0  0  0  0  0  0
   54.9724   28.2103   53.6257 H   0  0  0  0  0  0  0  0  0  0  0  0
   53.7616   30.1550   52.6026 H   0  0  0  0  0  0  0  0  0  0  0  0
   55.0631   32.0368   51.5340 H   0  0  0  0  0  0  0  0  0  0  0  0
   58.7415   24.1996   46.4029 H   0  0  0  0  0  0  0  0  0  0  0  0
   57.1728   24.5471   47.2206 H   0  0  0  0  0  0  0  0  0  0  0  0
   57.5605   22.3429   45.7259 H   0  0  0  0  0  0  0  0  0  0  0  0
   55.9658   23.2286   45.8072 H   0  0  0  0  0  0  0  0  0  0  0  0
   56.9486   24.5364   43.7403 H   0  0  0  0  0  0  0  0  0  0  0  0
   57.9607   23.0405   43.5704 H   0  0  0  0  0  0  0  0  0  0  0  0
   55.9609   28.6488   44.0804 H   0  0  0  0  0  0  0  0  0  0  0  0
  1  2  1  0
  2  3  1  0
  3  4  1  0
  4  5  2  0
  5  6  1  0
  6  7  2  0
  7  8  1  0
  8  9  1  0
  9 10  2  0
  9 11  2  0
  9 12  1  0
 12 13  1  0
 13 14  1  0
 13 15  1  0
 13 16  1  0
  7 17  1  0
 17 18  1  0
 18 19  1  0
 19 20  2  0
 19 21  1  0
 21 22  2  0
 22 23  1  0
 23 24  2  0
 24 25  1  0
 25 26  2  0
 26 27  1  0
 27 28  2  0
 28 29  1  0
 17 30  2  0
 30 31  1  0
 31 32  2  0
 31 33  1  0
 33 34  1  0
 34 35  2  0
 34 36  1  0
 36 37  1  0
 37 38  2  0
 37 39  1  0
 39 40  1  0
 40 41  1  0
 41 42  1  0
 42 43  1  0
 43 44  2  0
 43 45  1  0
 36 46  2  0
 46 47  1  0
 47 48  1  0
 48  3  1  0
 30  4  1  0
 48 33  2  0
 29 21  1  0
 28 23  1  0
  1 49  1  0
  1 50  1  0
  1 51  1  0
  2 52  1  0
  2 53  1  0
  5 54  1  0
  6 55  1  0
 12 56  1  0
 12 57  1  0
 24 58  1  0
 25 59  1  0
 26 60  1  0
 27 61  1  0
 40 62  1  0
 40 63  1  0
 41 64  1  0
 41 65  1  0
 42 66  1  0
 42 67  1  0
 46 68  1  0
M  CHG  6   8  -1  18  -1  29  -1  39  -1  45  -1  47  -1
M  END
>  <UniqueID>  (21) 
20

>  <SMILES>  (21) 
CCn1c2ccc([N-]S(=O)(=O)CC(F)(F)F)c([N-]C(=O)c3nc4ccccc4[n-]3)c2c(=O)c2c(=O)c(C(=O)[N-]CCCC(=O)[O-])c[n-]c21

>  <Energy>  (21) 
132.2244382553227

>  <Genealogy>  (21) 
CCn1c2ccc([N-]S(=O)(=O)CC(F)(F)F)c([N-]C(=O)c3nc4ccccc4[n-]3)c2c(=O)c2c(=O)c(C(=O)[N-]CCCC(=O)[O-])c[n-]c21 (protonated)
CCn1c2ccc([N-]S(=O)(=O)CC(F)(F)F)c([N-]C(=O)c3nc4ccccc4[n-]3)c2c(=O)c2c(=O)c(C(=O)[N-]CCCC(=O)[O-])c[n-]c21 (3D coordinates assigned)
CCn1c2ccc([N-]S(=O)(=O)CC(F)(F)F)c([N-]C(=O)c3nc4ccccc4[n-]3)c2c(=O)c2c(=O)c(C(=O)[N-]CCCC(=O)[O-])c[n-]c21 (optimized conformer: 132.2244382553227 kcal/mol)

>  <smiles>  (21) 
CCn1c2ccc(NS(=O)(=O)CC(F)(F)F)c(NC(=O)c3nc4ccccc4[nH]3)c2c(=O)c2c(=O)c(C(=O)NCCCC(=O)O)c[nH]c21

>  <score_type>  (21) 
oracle

>  <origin>  (21) 
adg

>  <m_score__min__energy>  (21) 
-17.23

>  <m_primary>  (21) 
energy

$$$$
21:0
     RDKit          3D

 58 62  0  0  0  0  0  0  0  0999 V2000
   62.7390   32.2500   47.3780 C   0  0  0  0  0  0  0  0  0  0  0  0
   61.8310   32.5290   48.5410 C   0  0  0  0  0  0  0  0  0  0  0  0
   62.3810   32.6430   49.7780 N   0  0  0  0  0  0  0  0  0  0  0  0
   61.6440   32.9090   50.8860 C   0  0  0  0  0  0  0  0  0  0  0  0
   62.2850   33.0080   52.1160 O   0  0  0  0  0  0  0  0  0  0  0  0
   60.2530   33.0840   50.7850 C   0  0  0  0  0  0  0  0  0  0  0  0
   59.4230   33.3480   52.0220 C   0  0  0  0  0  0  0  0  0  0  0  0
   58.6770   32.1070   52.4350 C   0  0  0  0  0  0  0  0  0  0  0  0
   58.8620   31.5570   53.7130 C   0  0  0  0  0  0  0  0  0  0  0  0
   58.1950   30.3860   54.0810 C   0  0  0  0  0  0  0  0  0  0  0  0
   57.3350   29.7400   53.1720 C   0  0  0  0  0  0  0  0  0  0  0  0
   56.6530   28.5530   53.4870 O   0  0  0  0  0  0  0  0  0  0  0  0
   55.3860   28.4850   54.1440 C   0  0  0  0  0  0  0  0  0  0  0  0
   54.3610   29.3210   53.4270 C   0  0  0  0  0  0  0  0  0  0  0  0
   54.1750   29.3270   52.0460 C   0  0  0  0  0  0  0  0  0  0  0  0
   53.1480   30.2170   51.8230 C   0  0  0  0  0  0  0  0  0  0  0  0
   52.5280   30.5910   50.6340 C   0  0  0  0  0  0  0  0  0  0  0  0
   51.4740   31.5190   50.7070 C   0  0  0  0  0  0  0  0  0  0  0  0
   51.0650   32.0420   51.9540 C   0  0  0  0  0  0  0  0  0  0  0  0
   50.0180   32.9520   52.0110 O   0  0  0  0  0  0  0  0  0  0  0  0
   51.7110   31.6420   53.1400 C   0  0  0  0  0  0  0  0  0  0  0  0
   52.7620   30.7240   53.0390 C   0  0  0  0  0  0  0  0  0  0  0  0
   53.5170   30.2030   54.0300 N   0  0  0  0  0  0  0  0  0  0  0  0
   53.3920   30.4560   55.4650 C   0  0  0  0  0  0  0  0  0  0  0  0
   57.1520   30.2920   51.8990 C   0  0  0  0  0  0  0  0  0  0  0  0
   57.8160   31.4650   51.5300 C   0  0  0  0  0  0  0  0  0  0  0  0
   59.6500   32.9560   49.5170 C   0  0  0  0  0  0  0  0  0  0  0  0
   58.4000   33.0880   49.3970 O   0  0  0  0  0  0  0  0  0  0  0  0
   60.4350   32.6710   48.3830 C   0  0  0  0  0  0  0  0  0  0  0  0
   59.7930   32.5350   47.0550 C   0  0  0  0  0  0  0  0  0  0  0  0
   59.5200   33.6740   46.2810 C   0  0  0  0  0  0  0  0  0  0  0  0
   58.9040   33.5480   45.0340 C   0  0  0  0  0  0  0  0  0  0  0  0
   58.5520   32.2830   44.5500 C   0  0  0  0  0  0  0  0  0  0  0  0
   57.7770   32.1250   42.9850 Cl  0  0  0  0  0  0  0  0  0  0  0  0
   58.8170   31.1430   45.3170 C   0  0  0  0  0  0  0  0  0  0  0  0
   59.4320   31.2670   46.5660 C   0  0  0  0  0  0  0  0  0  0  0  0
   63.7285   31.9460   47.7501 H   0  0  0  0  0  0  0  0  0  0  0  0
   62.3130   31.4413   46.7660 H   0  0  0  0  0  0  0  0  0  0  0  0
   62.8406   33.1584   46.7660 H   0  0  0  0  0  0  0  0  0  0  0  0
   60.0860   33.6609   52.8421 H   0  0  0  0  0  0  0  0  0  0  0  0
   58.6946   34.1412   51.7975 H   0  0  0  0  0  0  0  0  0  0  0  0
   59.5358   32.0507   54.4287 H   0  0  0  0  0  0  0  0  0  0  0  0
   58.3424   29.9660   55.0869 H   0  0  0  0  0  0  0  0  0  0  0  0
   55.0468   27.4388   54.1638 H   0  0  0  0  0  0  0  0  0  0  0  0
   55.5006   28.8725   55.1671 H   0  0  0  0  0  0  0  0  0  0  0  0
   54.7297   28.7454   51.2949 H   0  0  0  0  0  0  0  0  0  0  0  0
   52.8520   30.1742   49.6689 H   0  0  0  0  0  0  0  0  0  0  0  0
   50.9643   31.8400   49.7866 H   0  0  0  0  0  0  0  0  0  0  0  0
   51.3984   32.0396   54.1168 H   0  0  0  0  0  0  0  0  0  0  0  0
   53.8114   29.6071   56.0249 H   0  0  0  0  0  0  0  0  0  0  0  0
   53.9405   31.3734   55.7247 H   0  0  0  0  0  0  0  0  0  0  0  0
   52.3301   30.5778   55.7247 H   0  0  0  0  0  0  0  0  0  0  0  0
   56.4794   29.7980   51.1824 H   0  0  0  0  0  0  0  0  0  0  0  0
   57.6636   31.8875   50.5259 H   0  0  0  0  0  0  0  0  0  0  0  0
   59.7926   34.6705   46.6586 H   0  0  0  0  0  0  0  0  0  0  0  0
   58.6952   34.4443   44.4314 H   0  0  0  0  0  0  0  0  0  0  0  0
   58.5411   30.1484   44.9366 H   0  0  0  0  0  0  0  0  0  0  0  0
   59.6344   30.3693   47.1687 H   0  0  0  0  0  0  0  0  0  0  0  0
  1  2  1  0
  2  3  1  0
  3  4  1  0
  4  5  1  0
  4  6  2  0
  6  7  1  0
  7  8  1  0
  8  9  2  0
  9 10  1  0
 10 11  2  0
 11 12  1  0
 12 13  1  0
 13 14  1  0
 14 15  2  0
 15 16  1  0
 16 17  2  0
 17 18  1  0
 18 19  2  0
 19 20  1  0
 19 21  1  0
 21 22  2  0
 22 23  1  0
 23 24  1  0
 11 25  1  0
 25 26  2  0
  6 27  1  0
 27 28  2  0
 27 29  1  0
 29 30  1  0
 30 31  2  0
 31 32  1  0
 32 33  2  0
 33 34  1  0
 33 35  1  0
 35 36  2  0
 29  2  2  0
 36 30  1  0
 26  8  1  0
 23 14  1  0
 22 16  1  0
  1 37  1  0
  1 38  1  0
  1 39  1  0
  7 40  1  0
  7 41  1  0
  9 42  1  0
 10 43  1  0
 13 44  1  0
 13 45  1  0
 15 46  1  0
 17 47  1  0
 18 48  1  0
 21 49  1  0
 24 50  1  0
 24 51  1  0
 24 52  1  0
 25 53  1  0
 26 54  1  0
 31 55  1  0
 32 56  1  0
 35 57  1  0
 36 58  1  0
M  CHG  3   3  -1   5  -1  20  -1
M  END
>  <UniqueID>  (22) 
21

>  <SMILES>  (22) 
Cc1[n-]c([O-])c(Cc2ccc(OCc3cc4ccc([O-])cc4n3C)cc2)c(=O)c1-c1ccc(Cl)cc1

>  <Energy>  (22) 
106.72908165210666

>  <Genealogy>  (22) 
Cc1[n-]c([O-])c(Cc2ccc(OCc3cc4ccc([O-])cc4n3C)cc2)c(=O)c1-c1ccc(Cl)cc1 (protonated)
Cc1[n-]c([O-])c(Cc2ccc(OCc3cc4ccc([O-])cc4n3C)cc2)c(=O)c1-c1ccc(Cl)cc1 (3D coordinates assigned)
Cc1[n-]c([O-])c(Cc2ccc(OCc3cc4ccc([O-])cc4n3C)cc2)c(=O)c1-c1ccc(Cl)cc1 (optimized conformer: 106.72908165210666 kcal/mol)

>  <smiles>  (22) 
Cc1[nH]c(O)c(Cc2ccc(OCc3cc4ccc(O)cc4n3C)cc2)c(=O)c1-c1ccc(Cl)cc1

>  <score_type>  (22) 
oracle

>  <origin>  (22) 
adg

>  <m_score__min__energy>  (22) 
-15.41

>  <m_primary>  (22) 
energy

$$$$
22:0
     RDKit          3D

 50 53  0  0  0  0  0  0  0  0999 V2000
   68.4280   35.7940   52.1730 C   0  0  0  0  0  0  0  0  0  0  0  0
   67.7240   34.6620   51.5030 C   0  0  0  0  0  0  0  0  0  0  0  0
   68.3230   33.5150   51.0220 C   0  0  0  0  0  0  0  0  0  0  0  0
   67.3050   32.7640   50.4720 C   0  0  0  0  0  0  0  0  0  0  0  0
   66.1510   33.5080   50.6490 C   0  0  0  0  0  0  0  0  0  0  0  0
   64.7900   33.1310   50.2350 C   0  0  0  0  0  0  0  0  0  0  0  0
   64.5480   31.9240   49.9680 O   0  0  0  0  0  0  0  0  0  0  0  0
   63.7380   34.1100   50.1740 N   0  0  0  0  0  0  0  0  0  0  0  0
   62.4900   33.9030   49.4920 C   0  0  0  0  0  0  0  0  0  0  0  0
   62.4950   33.6030   48.1210 C   0  0  0  0  0  0  0  0  0  0  0  0
   61.2940   33.3760   47.4400 C   0  0  0  0  0  0  0  0  0  0  0  0
   60.0720   33.4540   48.1160 C   0  0  0  0  0  0  0  0  0  0  0  0
   58.8600   33.1590   47.4050 N   0  0  0  0  0  0  0  0  0  0  0  0
   58.6980   33.0610   46.1150 C   0  0  0  0  0  0  0  0  0  0  0  0
   59.2180   34.0050   45.2100 C   0  0  0  0  0  0  0  0  0  0  0  0
   59.0020   33.8360   43.8420 C   0  0  0  0  0  0  0  0  0  0  0  0
   58.2820   32.7310   43.3650 C   0  0  0  0  0  0  0  0  0  0  0  0
   57.9900   32.6180   41.9600 N   0  0  0  0  0  0  0  0  0  0  0  0
   58.7420   33.1480   41.1170 O   0  0  0  0  0  0  0  0  0  0  0  0
   56.8030   32.0670   41.5360 O   0  0  0  0  0  0  0  0  0  0  0  0
   57.8330   31.7700   44.2980 C   0  0  0  0  0  0  0  0  0  0  0  0
   57.1650   30.5700   43.8880 N   0  0  0  0  0  0  0  0  0  0  0  0
   57.3110   29.3000   44.5500 C   0  0  0  0  0  0  0  0  0  0  0  0
   58.5790   28.7430   44.8080 C   0  0  0  0  0  0  0  0  0  0  0  0
   58.6880   27.5110   45.4600 C   0  0  0  0  0  0  0  0  0  0  0  0
   57.5390   26.8270   45.8670 C   0  0  0  0  0  0  0  0  0  0  0  0
   56.2780   27.3790   45.6280 C   0  0  0  0  0  0  0  0  0  0  0  0
   55.1360   26.7030   46.0390 O   0  0  0  0  0  0  0  0  0  0  0  0
   56.1640   28.6120   44.9770 C   0  0  0  0  0  0  0  0  0  0  0  0
   58.0420   31.9760   45.6270 N   0  0  0  0  0  0  0  0  0  0  0  0
   60.0660   33.6960   49.4990 C   0  0  0  0  0  0  0  0  0  0  0  0
   61.2630   33.9240   50.1820 C   0  0  0  0  0  0  0  0  0  0  0  0
   66.4340   34.6330   51.2660 O   0  0  0  0  0  0  0  0  0  0  0  0
   68.3551   35.6767   53.2643 H   0  0  0  0  0  0  0  0  0  0  0  0
   69.4867   35.7956   51.8743 H   0  0  0  0  0  0  0  0  0  0  0  0
   67.9613   36.7443   51.8743 H   0  0  0  0  0  0  0  0  0  0  0  0
   69.3906   33.2541   51.0678 H   0  0  0  0  0  0  0  0  0  0  0  0
   67.3921   31.7780   49.9921 H   0  0  0  0  0  0  0  0  0  0  0  0
   63.8430   34.9820   50.7390 H   0  0  0  0  0  0  0  0  0  0  0  0
   63.4499   33.5459   47.5780 H   0  0  0  0  0  0  0  0  0  0  0  0
   61.3109   33.1348   46.3669 H   0  0  0  0  0  0  0  0  0  0  0  0
   59.7902   34.8693   45.5783 H   0  0  0  0  0  0  0  0  0  0  0  0
   59.3998   34.5757   43.1316 H   0  0  0  0  0  0  0  0  0  0  0  0
   56.4210   30.6630   43.1590 H   0  0  0  0  0  0  0  0  0  0  0  0
   59.4869   29.2795   44.4952 H   0  0  0  0  0  0  0  0  0  0  0  0
   59.6809   27.0788   45.6532 H   0  0  0  0  0  0  0  0  0  0  0  0
   57.6275   25.8553   46.3749 H   0  0  0  0  0  0  0  0  0  0  0  0
   55.1689   29.0455   44.7984 H   0  0  0  0  0  0  0  0  0  0  0  0
   59.1129   33.7061   50.0480 H   0  0  0  0  0  0  0  0  0  0  0  0
   61.2468   34.1209   51.2641 H   0  0  0  0  0  0  0  0  0  0  0  0
  1  2  1  0
  2  3  2  0
  3  4  1  0
  4  5  2  0
  5  6  1  0
  6  7  2  0
  6  8  1  0
  8  9  1  0
  9 10  2  0
 10 11  1  0
 11 12  2  0
 12 13  1  0
 13 14  2  3
 14 15  1  0
 15 16  2  0
 16 17  1  0
 17 18  1  0
 18 19  2  0
 18 20  1  0
 17 21  2  0
 21 22  1  0
 22 23  1  0
 23 24  2  0
 24 25  1  0
 25 26  2  0
 26 27  1  0
 27 28  1  0
 27 29  2  0
 21 30  1  0
 12 31  1  0
 31 32  2  0
  5 33  1  0
 33  2  1  0
 32  9  1  0
 30 14  1  0
 29 23  1  0
  1 34  1  0
  1 35  1  0
  1 36  1  0
  3 37  1  0
  4 38  1  0
  8 39  1  0
 10 40  1  0
 11 41  1  0
 15 42  1  0
 16 43  1  0
 22 44  1  0
 24 45  1  0
 25 46  1  0
 26 47  1  0
 29 48  1  0
 31 49  1  0
 32 50  1  0
M  CHG  4  18   1  20  -1  28  -1  30  -1
M  END
>  <UniqueID>  (23) 
22

>  <SMILES>  (23) 
Cc1ccc(C(=O)Nc2ccc(N=c3ccc([N+](=O)[O-])c(Nc4cccc([O-])c4)[n-]3)cc2)o1

>  <Energy>  (23) 
102.89863809324721

>  <Genealogy>  (23) 
Cc1ccc(C(=O)Nc2ccc(N=c3ccc([N+](=O)[O-])c(Nc4cccc([O-])c4)[n-]3)cc2)o1 (protonated)
Cc1ccc(C(=O)Nc2ccc(N=c3ccc([N+](=O)[O-])c(Nc4cccc([O-])c4)[n-]3)cc2)o1 (3D coordinates assigned)
Cc1ccc(C(=O)Nc2ccc(N=c3ccc([N+](=O)[O-])c(Nc4cccc([O-])c4)[n-]3)cc2)o1 (optimized conformer: 102.89863809324721 kcal/mol)

>  <smiles>  (23) 
Cc1ccc(C(=O)Nc2ccc(N=c3ccc([N+](=O)[O-])c(Nc4cccc(O)c4)[nH]3)cc2)o1

>  <score_type>  (23) 
oracle

>  <origin>  (23) 
adg

>  <m_score__min__energy>  (23) 
-14.279999999999999

>  <m_primary>  (23) 
energy

$$$$
23:0
     RDKit          3D

 58 60  0  0  0  0  0  0  0  0999 V2000
   64.8930   32.8150   51.0700 C   0  0  0  0  0  0  0  0  0  0  0  0
   63.6660   32.7550   50.2590 N   0  0  0  0  0  0  0  0  0  0  0  0
   63.9120   32.0920   48.9530 C   0  0  0  0  0  0  0  0  0  0  0  0
   64.0750   33.1030   47.8030 C   0  0  0  0  0  0  0  0  0  0  0  0
   62.8850   33.9810   47.6500 N   0  0  0  0  0  0  0  0  0  0  0  0
   62.0010   33.5070   46.5650 C   0  0  0  0  0  0  0  0  0  0  0  0
   60.7890   32.8030   47.1230 C   0  0  0  0  0  0  0  0  0  0  0  0
   59.5250   33.4110   47.0770 C   0  0  0  0  0  0  0  0  0  0  0  0
   58.4060   32.7420   47.5770 C   0  0  0  0  0  0  0  0  0  0  0  0
   58.5370   31.4610   48.1160 C   0  0  0  0  0  0  0  0  0  0  0  0
   59.7920   30.8320   48.1550 C   0  0  0  0  0  0  0  0  0  0  0  0
   59.9290   29.4270   48.6960 C   0  0  0  0  0  0  0  0  0  0  0  0
   59.4630   28.4130   47.7340 N   0  0  0  0  0  0  0  0  0  0  0  0
   59.9130   28.6850   46.3610 C   0  0  0  0  0  0  0  0  0  0  0  0
   58.7920   29.2910   45.5470 C   0  0  0  0  0  0  0  0  0  0  0  0
   59.1090   30.2960   44.6180 C   0  0  0  0  0  0  0  0  0  0  0  0
   58.1200   30.8460   43.8000 C   0  0  0  0  0  0  0  0  0  0  0  0
   56.8040   30.3960   43.8940 C   0  0  0  0  0  0  0  0  0  0  0  0
   56.4660   29.4040   44.8190 C   0  0  0  0  0  0  0  0  0  0  0  0
   55.1450   28.9760   44.9070 O   0  0  0  0  0  0  0  0  0  0  0  0
   57.4480   28.8550   45.6610 C   0  0  0  0  0  0  0  0  0  0  0  0
   57.0650   27.8540   46.6110 N   0  0  0  0  0  0  0  0  0  0  0  0
   56.6550   26.2530   46.0930 S   0  0  0  0  0  0  0  0  0  0  0  0
   57.4110   25.9390   44.5140 C   0  0  0  0  0  0  0  0  0  0  0  0
   55.1660   26.1180   45.9570 O   0  0  0  0  0  0  0  0  0  0  0  0
   57.1520   25.2580   47.1040 O   0  0  0  0  0  0  0  0  0  0  0  0
   60.9160   31.5140   47.6640 C   0  0  0  0  0  0  0  0  0  0  0  0
   62.1350   34.1810   48.9160 C   0  0  0  0  0  0  0  0  0  0  0  0
   63.0620   34.1020   50.1340 C   0  0  0  0  0  0  0  0  0  0  0  0
   64.6279   32.8020   52.1375 H   0  0  0  0  0  0  0  0  0  0  0  0
   65.5278   31.9468   50.8393 H   0  0  0  0  0  0  0  0  0  0  0  0
   65.4401   33.7410   50.8393 H   0  0  0  0  0  0  0  0  0  0  0  0
   64.8309   31.4921   49.0289 H   0  0  0  0  0  0  0  0  0  0  0  0
   63.0381   31.4637   48.7259 H   0  0  0  0  0  0  0  0  0  0  0  0
   64.9544   33.7316   48.0067 H   0  0  0  0  0  0  0  0  0  0  0  0
   64.1952   32.5339   46.8694 H   0  0  0  0  0  0  0  0  0  0  0  0
   61.6722   34.3693   45.9664 H   0  0  0  0  0  0  0  0  0  0  0  0
   62.5626   32.7961   45.9411 H   0  0  0  0  0  0  0  0  0  0  0  0
   59.4155   34.4171   46.6460 H   0  0  0  0  0  0  0  0  0  0  0  0
   57.4185   33.2257   47.5461 H   0  0  0  0  0  0  0  0  0  0  0  0
   57.6522   30.9413   48.5124 H   0  0  0  0  0  0  0  0  0  0  0  0
   60.9879   29.2374   48.9257 H   0  0  0  0  0  0  0  0  0  0  0  0
   59.3040   29.3497   49.5979 H   0  0  0  0  0  0  0  0  0  0  0  0
   59.8140   27.4700   48.0230 H   0  0  0  0  0  0  0  0  0  0  0  0
   60.7597   29.3866   46.3898 H   0  0  0  0  0  0  0  0  0  0  0  0
   60.2210   27.7382   45.8932 H   0  0  0  0  0  0  0  0  0  0  0  0
   60.1461   30.6530   44.5342 H   0  0  0  0  0  0  0  0  0  0  0  0
   58.3799   31.6360   43.0800 H   0  0  0  0  0  0  0  0  0  0  0  0
   56.0300   30.8224   43.2390 H   0  0  0  0  0  0  0  0  0  0  0  0
   57.4030   27.9540   47.5920 H   0  0  0  0  0  0  0  0  0  0  0  0
   58.4171   25.5211   44.6658 H   0  0  0  0  0  0  0  0  0  0  0  0
   56.7972   25.2214   43.9498 H   0  0  0  0  0  0  0  0  0  0  0  0
   57.4862   26.8803   43.9498 H   0  0  0  0  0  0  0  0  0  0  0  0
   61.9051   31.0343   47.7035 H   0  0  0  0  0  0  0  0  0  0  0  0
   61.6551   35.1706   48.8951 H   0  0  0  0  0  0  0  0  0  0  0  0
   61.3821   33.3836   49.0019 H   0  0  0  0  0  0  0  0  0  0  0  0
   63.8642   34.8465   50.0236 H   0  0  0  0  0  0  0  0  0  0  0  0
   62.4686   34.3037   51.0380 H   0  0  0  0  0  0  0  0  0  0  0  0
  1  2  1  0
  2  3  1  0
  3  4  1  0
  4  5  1  0
  5  6  1  0
  6  7  1  0
  7  8  2  0
  8  9  1  0
  9 10  2  0
 10 11  1  0
 11 12  1  0
 12 13  1  0
 13 14  1  0
 14 15  1  0
 15 16  2  0
 16 17  1  0
 17 18  2  0
 18 19  1  0
 19 20  1  0
 19 21  2  0
 21 22  1  0
 22 23  1  0
 23 24  1  0
 23 25  2  0
 23 26  2  0
 11 27  2  0
  5 28  1  0
 28 29  1  0
 29  2  1  0
 27  7  1  0
 21 15  1  0
  1 30  1  0
  1 31  1  0
  1 32  1  0
  3 33  1  0
  3 34  1  0
  4 35  1  0
  4 36  1  0
  6 37  1  0
  6 38  1  0
  8 39  1  0
  9 40  1  0
 10 41  1  0
 12 42  1  0
 12 43  1  0
 13 44  1  0
 14 45  1  0
 14 46  1  0
 16 47  1  0
 17 48  1  0
 18 49  1  0
 22 50  1  0
 24 51  1  0
 24 52  1  0
 24 53  1  0
 27 54  1  0
 28 55  1  0
 28 56  1  0
 29 57  1  0
 29 58  1  0
M  CHG  1  20  -1
M  END
>  <UniqueID>  (24) 
23

>  <SMILES>  (24) 
CN1CCN(Cc2cccc(CNCc3cccc([O-])c3NS(C)(=O)=O)c2)CC1

>  <Energy>  (24) 
73.70105022776869

>  <Genealogy>  (24) 
CN1CCN(Cc2cccc(CNCc3cccc([O-])c3NS(C)(=O)=O)c2)CC1 (protonated)
CN1CCN(Cc2cccc(CNCc3cccc([O-])c3NS(C)(=O)=O)c2)CC1 (3D coordinates assigned)
CN1CCN(Cc2cccc(CNCc3cccc([O-])c3NS(C)(=O)=O)c2)CC1 (nonaromatic ring conformer: 73.70105022776869 kcal/mol)

>  <smiles>  (24) 
CN1CCN(Cc2cccc(CNCc3cccc(O)c3NS(C)(=O)=O)c2)CC1

>  <score_type>  (24) 
oracle

>  <origin>  (24) 
adg

>  <m_score__min__energy>  (24) 
-12.77

>  <m_primary>  (24) 
energy

$$$$
24:0
     RDKit          3D

 35 36  0  0  0  0  0  0  0  0999 V2000
   55.1450   29.3490   44.8750 N   0  0  0  0  0  0  0  0  0  0  0  0
   56.5580   29.7730   43.9760 S   0  0  0  0  0  0  0  0  0  0  0  0
   57.0830   28.5580   43.2610 O   0  0  0  0  0  0  0  0  0  0  0  0
   56.2060   30.8170   42.9550 O   0  0  0  0  0  0  0  0  0  0  0  0
   57.7880   30.3970   45.0710 C   0  0  0  0  0  0  0  0  0  0  0  0
   57.7730   31.7440   45.4550 C   0  0  0  0  0  0  0  0  0  0  0  0
   58.7350   32.2310   46.3430 C   0  0  0  0  0  0  0  0  0  0  0  0
   59.7190   31.3780   46.8490 C   0  0  0  0  0  0  0  0  0  0  0  0
   59.7550   30.0270   46.4580 C   0  0  0  0  0  0  0  0  0  0  0  0
   60.7290   29.1100   46.9770 N   0  0  0  0  0  0  0  0  0  0  0  0
   60.4710   27.9910   47.8340 C   0  0  0  0  0  0  0  0  0  0  0  0
   60.6210   28.0830   49.0810 O   0  0  0  0  0  0  0  0  0  0  0  0
   60.0400   26.6890   47.2380 C   0  0  0  0  0  0  0  0  0  0  0  0
   58.6880   26.4060   47.5920 O   0  0  0  0  0  0  0  0  0  0  0  0
   57.6020   26.6330   46.7370 C   0  0  0  0  0  0  0  0  0  0  0  0
   57.1350   27.7990   46.6170 O   0  0  0  0  0  0  0  0  0  0  0  0
   57.0010   25.5120   45.9710 C   0  0  0  0  0  0  0  0  0  0  0  0
   57.8120   24.4370   45.5560 C   0  0  0  0  0  0  0  0  0  0  0  0
   57.2700   23.3710   44.8340 C   0  0  0  0  0  0  0  0  0  0  0  0
   55.9120   23.3610   44.5120 C   0  0  0  0  0  0  0  0  0  0  0  0
   55.3760   22.3000   43.7930 O   0  0  0  0  0  0  0  0  0  0  0  0
   55.0940   24.4180   44.9140 C   0  0  0  0  0  0  0  0  0  0  0  0
   55.6260   25.4910   45.6380 C   0  0  0  0  0  0  0  0  0  0  0  0
   54.7750   26.5240   46.0160 O   0  0  0  0  0  0  0  0  0  0  0  0
   58.7710   29.5400   45.5860 C   0  0  0  0  0  0  0  0  0  0  0  0
   55.4250   28.5970   45.5440 H   0  0  0  0  0  0  0  0  0  0  0  0
   57.0020   32.4198   45.0564 H   0  0  0  0  0  0  0  0  0  0  0  0
   58.7178   33.2887   46.6446 H   0  0  0  0  0  0  0  0  0  0  0  0
   60.4683   31.7641   47.5557 H   0  0  0  0  0  0  0  0  0  0  0  0
   60.1240   26.7458   46.1427 H   0  0  0  0  0  0  0  0  0  0  0  0
   60.6864   25.8872   47.6245 H   0  0  0  0  0  0  0  0  0  0  0  0
   58.8838   24.4372   45.8033 H   0  0  0  0  0  0  0  0  0  0  0  0
   57.9149   22.5376   44.5185 H   0  0  0  0  0  0  0  0  0  0  0  0
   54.0238   24.4076   44.6600 H   0  0  0  0  0  0  0  0  0  0  0  0
   58.7702   28.4769   45.3036 H   0  0  0  0  0  0  0  0  0  0  0  0
  1  2  1  0
  2  3  2  0
  2  4  2  0
  2  5  1  0
  5  6  2  0
  6  7  1  0
  7  8  2  0
  8  9  1  0
  9 10  1  0
 10 11  1  0
 11 12  2  0
 11 13  1  0
 13 14  1  0
 14 15  1  0
 15 16  2  0
 15 17  1  0
 17 18  2  0
 18 19  1  0
 19 20  2  0
 20 21  1  0
 20 22  1  0
 22 23  2  0
 23 24  1  0
  9 25  2  0
 25  5  1  0
 23 17  1  0
  1 26  1  0
  6 27  1  0
  7 28  1  0
  8 29  1  0
 13 30  1  0
 13 31  1  0
 18 32  1  0
 19 33  1  0
 22 34  1  0
 25 35  1  0
M  CHG  4   1  -1  10  -1  21  -1  24  -1
M  END
>  <UniqueID>  (25) 
24

>  <SMILES>  (25) 
[NH-]S(=O)(=O)c1cccc([N-]C(=O)COC(=O)c2ccc([O-])cc2[O-])c1

>  <Energy>  (25) 
38.638846895189765

>  <Genealogy>  (25) 
[NH-]S(=O)(=O)c1cccc([N-]C(=O)COC(=O)c2ccc([O-])cc2[O-])c1 (protonated)
[NH-]S(=O)(=O)c1cccc([N-]C(=O)COC(=O)c2ccc([O-])cc2[O-])c1 (3D coordinates assigned)
[NH-]S(=O)(=O)c1cccc([N-]C(=O)COC(=O)c2ccc([O-])cc2[O-])c1 (optimized conformer: 38.638846895189765 kcal/mol)

>  <smiles>  (25) 
NS(=O)(=O)c1cccc(NC(=O)COC(=O)c2ccc(O)cc2O)c1

>  <score_type>  (25) 
oracle

>  <origin>  (25) 
adg

>  <m_score__min__energy>  (25) 
-16.129999999999999

>  <m_primary>  (25) 
energy

$$$$
25:0
     RDKit          3D

 57 60  0  0  0  0  0  0  0  0999 V2000
   64.1370   32.6140   46.6070 N   0  0  0  0  0  0  0  0  0  0  0  0
   63.0820   33.5810   46.9030 C   0  0  0  0  0  0  0  0  0  0  0  0
   61.9130   32.9220   47.5870 C   0  0  0  0  0  0  0  0  0  0  0  0
   61.9570   31.6860   47.8390 O   0  0  0  0  0  0  0  0  0  0  0  0
   60.7350   33.6830   47.9300 N   0  0  0  0  0  0  0  0  0  0  0  0
   60.5300   34.1880   49.2990 C   0  0  0  0  0  0  0  0  0  0  0  0
   61.5850   33.6580   50.2430 C   0  0  0  0  0  0  0  0  0  0  0  0
   62.8370   34.2980   50.2880 C   0  0  0  0  0  0  0  0  0  0  0  0
   63.8650   33.7970   51.0880 C   0  0  0  0  0  0  0  0  0  0  0  0
   63.6620   32.6460   51.8480 C   0  0  0  0  0  0  0  0  0  0  0  0
   62.4280   31.9930   51.8120 C   0  0  0  0  0  0  0  0  0  0  0  0
   61.3810   32.4900   51.0200 C   0  0  0  0  0  0  0  0  0  0  0  0
   60.1030   31.7470   50.9970 C   0  0  0  0  0  0  0  0  0  0  0  0
   60.0770   30.4070   50.5860 C   0  0  0  0  0  0  0  0  0  0  0  0
   58.8650   29.7140   50.5800 C   0  0  0  0  0  0  0  0  0  0  0  0
   57.7230   30.3350   50.9780 N   0  0  0  0  0  0  0  0  0  0  0  0
   57.7220   31.6300   51.3930 C   0  0  0  0  0  0  0  0  0  0  0  0
   58.9150   32.3580   51.4160 C   0  0  0  0  0  0  0  0  0  0  0  0
   59.7250   33.9250   46.9310 C   0  0  0  0  0  0  0  0  0  0  0  0
   60.0030   34.8120   45.8780 C   0  0  0  0  0  0  0  0  0  0  0  0
   59.0620   35.0360   44.8710 C   0  0  0  0  0  0  0  0  0  0  0  0
   57.8420   34.3620   44.8940 C   0  0  0  0  0  0  0  0  0  0  0  0
   57.5570   33.4620   45.9240 C   0  0  0  0  0  0  0  0  0  0  0  0
   58.4860   33.2390   46.9570 C   0  0  0  0  0  0  0  0  0  0  0  0
   58.1490   32.2550   48.0550 C   0  0  0  0  0  0  0  0  0  0  0  0
   58.9240   31.0630   47.9330 O   0  0  0  0  0  0  0  0  0  0  0  0
   58.9690   30.2270   46.8050 C   0  0  0  0  0  0  0  0  0  0  0  0
   60.1460   29.5080   46.5610 C   0  0  0  0  0  0  0  0  0  0  0  0
   60.2400   28.6470   45.4630 C   0  0  0  0  0  0  0  0  0  0  0  0
   59.1560   28.5060   44.5920 C   0  0  0  0  0  0  0  0  0  0  0  0
   59.2480   27.6730   43.5260 F   0  0  0  0  0  0  0  0  0  0  0  0
   57.9820   29.2290   44.8150 C   0  0  0  0  0  0  0  0  0  0  0  0
   57.8860   30.0880   45.9140 C   0  0  0  0  0  0  0  0  0  0  0  0
   64.0510   31.8180   47.2800 H   0  0  0  0  0  0  0  0  0  0  0  0
   65.0550   33.0730   46.8080 H   0  0  0  0  0  0  0  0  0  0  0  0
   63.4875   34.3638   47.5608 H   0  0  0  0  0  0  0  0  0  0  0  0
   62.7310   34.0137   45.9545 H   0  0  0  0  0  0  0  0  0  0  0  0
   60.5793   35.2868   49.2868 H   0  0  0  0  0  0  0  0  0  0  0  0
   59.5454   33.8468   49.6514 H   0  0  0  0  0  0  0  0  0  0  0  0
   63.0075   35.2029   49.6863 H   0  0  0  0  0  0  0  0  0  0  0  0
   64.8370   34.3111   51.1189 H   0  0  0  0  0  0  0  0  0  0  0  0
   64.4743   32.2519   52.4764 H   0  0  0  0  0  0  0  0  0  0  0  0
   62.2753   31.0819   52.4091 H   0  0  0  0  0  0  0  0  0  0  0  0
   61.0040   29.9056   50.2708 H   0  0  0  0  0  0  0  0  0  0  0  0
   58.8341   28.6642   50.2528 H   0  0  0  0  0  0  0  0  0  0  0  0
   56.7820   32.1048   51.7107 H   0  0  0  0  0  0  0  0  0  0  0  0
   58.9204   33.4026   51.7605 H   0  0  0  0  0  0  0  0  0  0  0  0
   60.9704   35.3347   45.8464 H   0  0  0  0  0  0  0  0  0  0  0  0
   59.2835   35.7446   44.0593 H   0  0  0  0  0  0  0  0  0  0  0  0
   57.1021   34.5391   44.0995 H   0  0  0  0  0  0  0  0  0  0  0  0
   56.5981   32.9231   45.9274 H   0  0  0  0  0  0  0  0  0  0  0  0
   58.3564   32.7200   49.0301 H   0  0  0  0  0  0  0  0  0  0  0  0
   57.0848   31.9896   47.9714 H   0  0  0  0  0  0  0  0  0  0  0  0
   61.0044   29.6216   47.2394 H   0  0  0  0  0  0  0  0  0  0  0  0
   61.1664   28.0812   45.2850 H   0  0  0  0  0  0  0  0  0  0  0  0
   57.1318   29.1225   44.1251 H   0  0  0  0  0  0  0  0  0  0  0  0
   56.9607   30.6580   46.0840 H   0  0  0  0  0  0  0  0  0  0  0  0
  1  2  1  0
  2  3  1  0
  3  4  2  0
  3  5  1  0
  5  6  1  0
  6  7  1  0
  7  8  2  0
  8  9  1  0
  9 10  2  0
 10 11  1  0
 11 12  2  0
 12 13  1  0
 13 14  2  0
 14 15  1  0
 15 16  2  0
 16 17  1  0
 17 18  2  0
  5 19  1  0
 19 20  2  0
 20 21  1  0
 21 22  2  0
 22 23  1  0
 23 24  2  0
 24 25  1  0
 25 26  1  0
 26 27  1  0
 27 28  2  0
 28 29  1  0
 29 30  2  0
 30 31  1  0
 30 32  1  0
 32 33  2  0
 12  7  1  0
 18 13  1  0
 24 19  1  0
 33 27  1  0
  1 34  1  0
  1 35  1  0
  2 36  1  0
  2 37  1  0
  6 38  1  0
  6 39  1  0
  8 40  1  0
  9 41  1  0
 10 42  1  0
 11 43  1  0
 14 44  1  0
 15 45  1  0
 17 46  1  0
 18 47  1  0
 20 48  1  0
 21 49  1  0
 22 50  1  0
 23 51  1  0
 25 52  1  0
 25 53  1  0
 28 54  1  0
 29 55  1  0
 32 56  1  0
 33 57  1  0
M  END
>  <UniqueID>  (26) 
25

>  <SMILES>  (26) 
NCC(=O)N(Cc1ccccc1-c1ccncc1)c1ccccc1COc1ccc(F)cc1

>  <Energy>  (26) 
72.039227437853

>  <Genealogy>  (26) 
NCC(=O)N(Cc1ccccc1-c1ccncc1)c1ccccc1COc1ccc(F)cc1 (3D coordinates assigned)
NCC(=O)N(Cc1ccccc1-c1ccncc1)c1ccccc1COc1ccc(F)cc1 (optimized conformer: 72.039227437853 kcal/mol)

>  <smiles>  (26) 
NCC(=O)N(Cc1ccccc1-c1ccncc1)c1ccccc1COc1ccc(F)cc1

>  <score_type>  (26) 
oracle

>  <origin>  (26) 
adg

>  <m_score__min__energy>  (26) 
-8.2599999999999998

>  <m_primary>  (26) 
energy

$$$$
26:0
     RDKit          3D

 36 37  0  0  0  0  0  0  0  0999 V2000
   55.1480   29.3560   44.8920 N   0  0  0  0  0  0  0  0  0  0  0  0
   56.7900   29.6510   44.4440 S   0  0  0  0  0  0  0  0  0  0  0  0
   57.1650   28.7510   43.3010 O   0  0  0  0  0  0  0  0  0  0  0  0
   56.9420   31.0800   44.0010 O   0  0  0  0  0  0  0  0  0  0  0  0
   57.8410   29.3400   45.8210 C   0  0  0  0  0  0  0  0  0  0  0  0
   57.8950   28.0630   46.3950 C   0  0  0  0  0  0  0  0  0  0  0  0
   58.7130   27.8260   47.5020 C   0  0  0  0  0  0  0  0  0  0  0  0
   59.4860   28.8590   48.0380 C   0  0  0  0  0  0  0  0  0  0  0  0
   59.4530   30.1420   47.4630 C   0  0  0  0  0  0  0  0  0  0  0  0
   60.2160   31.2290   48.0110 N   0  0  0  0  0  0  0  0  0  0  0  0
   61.5950   31.4840   47.7000 C   0  0  0  0  0  0  0  0  0  0  0  0
   62.1710   30.8620   46.7670 O   0  0  0  0  0  0  0  0  0  0  0  0
   62.3400   32.5520   48.4430 C   0  0  0  0  0  0  0  0  0  0  0  0
   61.7100   33.8170   48.2560 O   0  0  0  0  0  0  0  0  0  0  0  0
   60.3320   34.0230   48.4090 C   0  0  0  0  0  0  0  0  0  0  0  0
   59.8430   34.1580   49.5640 O   0  0  0  0  0  0  0  0  0  0  0  0
   59.4620   34.0840   47.2080 C   0  0  0  0  0  0  0  0  0  0  0  0
   59.8860   34.8190   46.0840 C   0  0  0  0  0  0  0  0  0  0  0  0
   59.0890   34.8970   44.9400 C   0  0  0  0  0  0  0  0  0  0  0  0
   57.8570   34.2430   44.8990 C   0  0  0  0  0  0  0  0  0  0  0  0
   57.4190   33.5100   46.0030 C   0  0  0  0  0  0  0  0  0  0  0  0
   58.2100   33.4250   47.1550 C   0  0  0  0  0  0  0  0  0  0  0  0
   57.7380   32.6840   48.2340 O   0  0  0  0  0  0  0  0  0  0  0  0
   58.6100   30.3780   46.3660 C   0  0  0  0  0  0  0  0  0  0  0  0
   55.1630   28.6320   45.6440 H   0  0  0  0  0  0  0  0  0  0  0  0
   57.2920   27.2455   45.9730 H   0  0  0  0  0  0  0  0  0  0  0  0
   58.7487   26.8234   47.9530 H   0  0  0  0  0  0  0  0  0  0  0  0
   60.1234   28.6679   48.9139 H   0  0  0  0  0  0  0  0  0  0  0  0
   59.7140   31.9340   48.5980 H   0  0  0  0  0  0  0  0  0  0  0  0
   62.3512   32.3073   49.5154 H   0  0  0  0  0  0  0  0  0  0  0  0
   63.3688   32.6045   48.0573 H   0  0  0  0  0  0  0  0  0  0  0  0
   60.8559   35.3375   46.1075 H   0  0  0  0  0  0  0  0  0  0  0  0
   59.4330   35.4750   44.0696 H   0  0  0  0  0  0  0  0  0  0  0  0
   57.2311   34.3052   43.9966 H   0  0  0  0  0  0  0  0  0  0  0  0
   56.4470   32.9963   45.9678 H   0  0  0  0  0  0  0  0  0  0  0  0
   58.5521   31.3862   45.9299 H   0  0  0  0  0  0  0  0  0  0  0  0
  1  2  1  0
  2  3  2  0
  2  4  2  0
  2  5  1  0
  5  6  2  0
  6  7  1  0
  7  8  2  0
  8  9  1  0
  9 10  1  0
 10 11  1  0
 11 12  2  0
 11 13  1  0
 13 14  1  0
 14 15  1  0
 15 16  2  0
 15 17  1  0
 17 18  2  0
 18 19  1  0
 19 20  2  0
 20 21  1  0
 21 22  2  0
 22 23  1  0
  9 24  2  0
 24  5  1  0
 22 17  1  0
  1 25  1  0
  6 26  1  0
  7 27  1  0
  8 28  1  0
 10 29  1  0
 13 30  1  0
 13 31  1  0
 18 32  1  0
 19 33  1  0
 20 34  1  0
 21 35  1  0
 24 36  1  0
M  CHG  2   1  -1  23  -1
M  END
>  <UniqueID>  (27) 
26

>  <SMILES>  (27) 
[NH-]S(=O)(=O)c1cccc(NC(=O)COC(=O)c2ccccc2[O-])c1

>  <Energy>  (27) 
39.21335373481551

>  <Genealogy>  (27) 
[NH-]S(=O)(=O)c1cccc(NC(=O)COC(=O)c2ccccc2[O-])c1 (protonated)
[NH-]S(=O)(=O)c1cccc(NC(=O)COC(=O)c2ccccc2[O-])c1 (3D coordinates assigned)
[NH-]S(=O)(=O)c1cccc(NC(=O)COC(=O)c2ccccc2[O-])c1 (optimized conformer: 39.21335373481551 kcal/mol)

>  <smiles>  (27) 
NS(=O)(=O)c1cccc(NC(=O)COC(=O)c2ccccc2O)c1

>  <score_type>  (27) 
oracle

>  <origin>  (27) 
adg

>  <m_score__min__energy>  (27) 
-12.32

>  <m_primary>  (27) 
energy

$$$$
27:0
     RDKit          3D

 57 60  0  0  0  0  0  0  0  0999 V2000
   58.5320   29.5070   48.8670 O   0  0  0  0  0  0  0  0  0  0  0  0
   58.9510   30.0460   47.8080 C   0  0  0  0  0  0  0  0  0  0  0  0
   60.3820   29.8900   47.4180 C   0  0  0  0  0  0  0  0  0  0  0  0
   61.4550   30.0750   48.8840 S   0  0  0  0  0  0  0  0  0  0  0  0
   62.0630   31.7230   48.4620 C   0  0  0  0  0  0  0  0  0  0  0  0
   63.2160   31.7910   47.6640 C   0  0  0  0  0  0  0  0  0  0  0  0
   63.7560   33.0220   47.2970 C   0  0  0  0  0  0  0  0  0  0  0  0
   63.1600   34.2020   47.7350 C   0  0  0  0  0  0  0  0  0  0  0  0
   62.0180   34.1550   48.5370 C   0  0  0  0  0  0  0  0  0  0  0  0
   61.4430   32.9230   48.9090 C   0  0  0  0  0  0  0  0  0  0  0  0
   60.2270   32.9340   49.7710 C   0  0  0  0  0  0  0  0  0  0  0  0
   59.3710   33.8510   49.6450 O   0  0  0  0  0  0  0  0  0  0  0  0
   60.0440   31.9220   50.7780 N   0  0  0  0  0  0  0  0  0  0  0  0
   58.7970   31.6360   51.4390 C   0  0  0  0  0  0  0  0  0  0  0  0
   57.8680   32.6500   51.7470 C   0  0  0  0  0  0  0  0  0  0  0  0
   56.6640   32.3340   52.3830 C   0  0  0  0  0  0  0  0  0  0  0  0
   56.3650   31.0070   52.7020 C   0  0  0  0  0  0  0  0  0  0  0  0
   57.2650   29.9910   52.3710 C   0  0  0  0  0  0  0  0  0  0  0  0
   58.4680   30.3030   51.7320 C   0  0  0  0  0  0  0  0  0  0  0  0
   58.0690   30.7800   46.9520 N   0  0  0  0  0  0  0  0  0  0  0  0
   58.3630   31.9500   46.1710 C   0  0  0  0  0  0  0  0  0  0  0  0
   59.5250   32.7180   46.3780 C   0  0  0  0  0  0  0  0  0  0  0  0
   59.7710   33.8470   45.5940 C   0  0  0  0  0  0  0  0  0  0  0  0
   58.8730   34.2130   44.5910 C   0  0  0  0  0  0  0  0  0  0  0  0
   57.7390   33.4360   44.3490 C   0  0  0  0  0  0  0  0  0  0  0  0
   57.4900   32.2880   45.1230 C   0  0  0  0  0  0  0  0  0  0  0  0
   56.3650   31.4380   44.8700 N   0  0  0  0  0  0  0  0  0  0  0  0
   56.3830   29.9920   43.9150 S   0  0  0  0  0  0  0  0  0  0  0  0
   55.0230   29.3540   43.9680 O   0  0  0  0  0  0  0  0  0  0  0  0
   56.7460   30.3220   42.4950 O   0  0  0  0  0  0  0  0  0  0  0  0
   57.5870   28.8880   44.5750 C   0  0  0  0  0  0  0  0  0  0  0  0
   58.9500   29.1020   44.3090 C   0  0  0  0  0  0  0  0  0  0  0  0
   59.9120   28.2390   44.8400 C   0  0  0  0  0  0  0  0  0  0  0  0
   59.5220   27.1560   45.6330 C   0  0  0  0  0  0  0  0  0  0  0  0
   58.1670   26.9300   45.8920 C   0  0  0  0  0  0  0  0  0  0  0  0
   57.1980   27.7900   45.3620 C   0  0  0  0  0  0  0  0  0  0  0  0
   55.8860   27.5470   45.6170 F   0  0  0  0  0  0  0  0  0  0  0  0
   60.5331   28.8924   46.9800 H   0  0  0  0  0  0  0  0  0  0  0  0
   60.6413   30.6650   46.6817 H   0  0  0  0  0  0  0  0  0  0  0  0
   63.6984   30.8624   47.3248 H   0  0  0  0  0  0  0  0  0  0  0  0
   64.6529   33.0617   46.6614 H   0  0  0  0  0  0  0  0  0  0  0  0
   63.5898   35.1732   47.4485 H   0  0  0  0  0  0  0  0  0  0  0  0
   61.5603   35.0933   48.8836 H   0  0  0  0  0  0  0  0  0  0  0  0
   60.8990   31.4360   51.1360 H   0  0  0  0  0  0  0  0  0  0  0  0
   58.0914   33.6949   51.4857 H   0  0  0  0  0  0  0  0  0  0  0  0
   55.9499   33.1324   52.6331 H   0  0  0  0  0  0  0  0  0  0  0  0
   55.4221   30.7625   53.2131 H   0  0  0  0  0  0  0  0  0  0  0  0
   57.0266   28.9449   52.6135 H   0  0  0  0  0  0  0  0  0  0  0  0
   59.1636   29.4967   51.4560 H   0  0  0  0  0  0  0  0  0  0  0  0
   60.2417   32.4274   47.1603 H   0  0  0  0  0  0  0  0  0  0  0  0
   60.6750   34.4492   45.7676 H   0  0  0  0  0  0  0  0  0  0  0  0
   59.0589   35.1153   43.9900 H   0  0  0  0  0  0  0  0  0  0  0  0
   57.0381   33.7221   43.5509 H   0  0  0  0  0  0  0  0  0  0  0  0
   59.2602   29.9505   43.6815 H   0  0  0  0  0  0  0  0  0  0  0  0
   60.9785   28.4122   44.6336 H   0  0  0  0  0  0  0  0  0  0  0  0
   60.2819   26.4810   46.0536 H   0  0  0  0  0  0  0  0  0  0  0  0
   57.8618   26.0751   46.5132 H   0  0  0  0  0  0  0  0  0  0  0  0
  1  2  2  0
  2  3  1  0
  3  4  1  0
  4  5  1  0
  5  6  2  0
  6  7  1  0
  7  8  2  0
  8  9  1  0
  9 10  2  0
 10 11  1  0
 11 12  2  0
 11 13  1  0
 13 14  1  0
 14 15  2  0
 15 16  1  0
 16 17  2  0
 17 18  1  0
 18 19  2  0
  2 20  1  0
 20 21  1  0
 21 22  2  0
 22 23  1  0
 23 24  2  0
 24 25  1  0
 25 26  2  0
 26 27  1  0
 27 28  1  0
 28 29  2  0
 28 30  2  0
 28 31  1  0
 31 32  2  0
 32 33  1  0
 33 34  2  0
 34 35  1  0
 35 36  2  0
 36 37  1  0
 10  5  1  0
 19 14  1  0
 26 21  1  0
 36 31  1  0
  3 38  1  0
  3 39  1  0
  6 40  1  0
  7 41  1  0
  8 42  1  0
  9 43  1  0
 13 44  1  0
 15 45  1  0
 16 46  1  0
 17 47  1  0
 18 48  1  0
 19 49  1  0
 22 50  1  0
 23 51  1  0
 24 52  1  0
 25 53  1  0
 32 54  1  0
 33 55  1  0
 34 56  1  0
 35 57  1  0
M  CHG  2  20  -1  27  -1
M  END
>  <UniqueID>  (28) 
27

>  <SMILES>  (28) 
O=C(CSc1ccccc1C(=O)Nc1ccccc1)[N-]c1ccccc1[N-]S(=O)(=O)c1ccccc1F

>  <Energy>  (28) 
66.78985391094189

>  <Genealogy>  (28) 
O=C(CSc1ccccc1C(=O)Nc1ccccc1)[N-]c1ccccc1[N-]S(=O)(=O)c1ccccc1F (protonated)
O=C(CSc1ccccc1C(=O)Nc1ccccc1)[N-]c1ccccc1[N-]S(=O)(=O)c1ccccc1F (3D coordinates assigned)
O=C(CSc1ccccc1C(=O)Nc1ccccc1)[N-]c1ccccc1[N-]S(=O)(=O)c1ccccc1F (optimized conformer: 66.78985391094189 kcal/mol)

>  <smiles>  (28) 
O=C(CSc1ccccc1C(=O)Nc1ccccc1)Nc1ccccc1NS(=O)(=O)c1ccccc1F

>  <score_type>  (28) 
oracle

>  <origin>  (28) 
adg

>  <m_score__min__energy>  (28) 
-15

>  <m_primary>  (28) 
energy

$$$$
28:0
     RDKit          3D

 48 50  0  0  0  0  0  0  0  0999 V2000
   55.7930   30.0380   43.5740 C   0  0  0  0  0  0  0  0  0  0  0  0
   56.3760   30.0360   44.8730 O   0  0  0  0  0  0  0  0  0  0  0  0
   57.7080   29.6960   45.1490 C   0  0  0  0  0  0  0  0  0  0  0  0
   58.1930   28.3840   44.9680 C   0  0  0  0  0  0  0  0  0  0  0  0
   59.5180   28.0700   45.2750 C   0  0  0  0  0  0  0  0  0  0  0  0
   60.3760   29.0550   45.7630 C   0  0  0  0  0  0  0  0  0  0  0  0
   59.9120   30.3590   45.9430 C   0  0  0  0  0  0  0  0  0  0  0  0
   58.5820   30.6910   45.6360 C   0  0  0  0  0  0  0  0  0  0  0  0
   58.1300   32.0480   45.8050 N   0  0  0  0  0  0  0  0  0  0  0  0
   58.1670   32.9850   44.6760 C   0  0  0  0  0  0  0  0  0  0  0  0
   58.2800   34.4330   45.1800 C   0  0  0  0  0  0  0  0  0  0  0  0
   59.1780   34.5320   46.3510 N   0  0  0  0  0  0  0  0  0  0  0  0
   60.5800   34.2260   45.9980 C   0  0  0  0  0  0  0  0  0  0  0  0
   61.3760   33.9460   47.2380 C   0  0  0  0  0  0  0  0  0  0  0  0
   61.1440   34.6080   48.2850 O   0  0  0  0  0  0  0  0  0  0  0  0
   62.4250   32.9670   47.2070 N   0  0  0  0  0  0  0  0  0  0  0  0
   63.1640   32.5540   48.3710 C   0  0  0  0  0  0  0  0  0  0  0  0
   64.4450   33.0760   48.6240 C   0  0  0  0  0  0  0  0  0  0  0  0
   65.1540   32.6960   49.7670 C   0  0  0  0  0  0  0  0  0  0  0  0
   64.5880   31.7990   50.6760 C   0  0  0  0  0  0  0  0  0  0  0  0
   63.3100   31.2850   50.4470 C   0  0  0  0  0  0  0  0  0  0  0  0
   62.5910   31.6610   49.3030 C   0  0  0  0  0  0  0  0  0  0  0  0
   61.2790   31.0990   49.0880 C   0  0  0  0  0  0  0  0  0  0  0  0
   60.2270   30.6480   48.9170 N   0  0  0  0  0  0  0  0  0  0  0  0
   58.6960   33.7380   47.5140 C   0  0  0  0  0  0  0  0  0  0  0  0
   57.7790   32.5590   47.1330 C   0  0  0  0  0  0  0  0  0  0  0  0
   54.6967   30.0418   43.6641 H   0  0  0  0  0  0  0  0  0  0  0  0
   56.1190   30.9350   43.0272 H   0  0  0  0  0  0  0  0  0  0  0  0
   56.1129   29.1388   43.0272 H   0  0  0  0  0  0  0  0  0  0  0  0
   57.5221   27.6024   44.5820 H   0  0  0  0  0  0  0  0  0  0  0  0
   59.8861   27.0434   45.1317 H   0  0  0  0  0  0  0  0  0  0  0  0
   61.4190   28.8042   46.0062 H   0  0  0  0  0  0  0  0  0  0  0  0
   60.5928   31.1324   46.3281 H   0  0  0  0  0  0  0  0  0  0  0  0
   59.0358   32.7537   44.0422 H   0  0  0  0  0  0  0  0  0  0  0  0
   57.2369   32.8816   44.0979 H   0  0  0  0  0  0  0  0  0  0  0  0
   58.6776   35.0629   44.3706 H   0  0  0  0  0  0  0  0  0  0  0  0
   57.2784   34.7712   45.4842 H   0  0  0  0  0  0  0  0  0  0  0  0
   60.6054   33.3430   45.3426 H   0  0  0  0  0  0  0  0  0  0  0  0
   61.0169   35.0915   45.4783 H   0  0  0  0  0  0  0  0  0  0  0  0
   62.7120   32.5910   46.2750 H   0  0  0  0  0  0  0  0  0  0  0  0
   64.8928   33.7893   47.9165 H   0  0  0  0  0  0  0  0  0  0  0  0
   66.1589   33.1038   49.9510 H   0  0  0  0  0  0  0  0  0  0  0  0
   65.1493   31.4974   51.5726 H   0  0  0  0  0  0  0  0  0  0  0  0
   62.8653   30.5822   51.1669 H   0  0  0  0  0  0  0  0  0  0  0  0
   59.5716   33.3371   48.0456 H   0  0  0  0  0  0  0  0  0  0  0  0
   58.0965   34.4184   48.1367 H   0  0  0  0  0  0  0  0  0  0  0  0
   57.8963   31.7543   47.8738 H   0  0  0  0  0  0  0  0  0  0  0  0
   56.7361   32.9084   47.1170 H   0  0  0  0  0  0  0  0  0  0  0  0
  1  2  1  0
  2  3  1  0
  3  4  2  0
  4  5  1  0
  5  6  2  0
  6  7  1  0
  7  8  2  0
  8  9  1  0
  9 10  1  0
 10 11  1  0
 11 12  1  0
 12 13  1  0
 13 14  1  0
 14 15  2  0
 14 16  1  0
 16 17  1  0
 17 18  2  0
 18 19  1  0
 19 20  2  0
 20 21  1  0
 21 22  2  0
 22 23  1  0
 23 24  3  0
 12 25  1  0
 25 26  1  0
  8  3  1  0
 26  9  1  0
 22 17  1  0
  1 27  1  0
  1 28  1  0
  1 29  1  0
  4 30  1  0
  5 31  1  0
  6 32  1  0
  7 33  1  0
 10 34  1  0
 10 35  1  0
 11 36  1  0
 11 37  1  0
 13 38  1  0
 13 39  1  0
 16 40  1  0
 18 41  1  0
 19 42  1  0
 20 43  1  0
 21 44  1  0
 25 45  1  0
 25 46  1  0
 26 47  1  0
 26 48  1  0
M  END
>  <UniqueID>  (29) 
28

>  <SMILES>  (29) 
COc1ccccc1N1CCN(CC(=O)Nc2ccccc2C#N)CC1

>  <Energy>  (29) 
64.3625340435047

>  <Genealogy>  (29) 
COc1ccccc1N1CCN(CC(=O)Nc2ccccc2C#N)CC1 (3D coordinates assigned)
COc1ccccc1N1CCN(CC(=O)Nc2ccccc2C#N)CC1 (nonaromatic ring conformer: 64.3625340435047 kcal/mol)

>  <smiles>  (29) 
COc1ccccc1N1CCN(CC(=O)Nc2ccccc2C#N)CC1

>  <score_type>  (29) 
oracle

>  <origin>  (29) 
adg

>  <m_score__min__energy>  (29) 
-7.8799999999999999

>  <m_primary>  (29) 
energy

$$$$
29:0
     RDKit          3D

 42 44  0  0  0  0  0  0  0  0999 V2000
   55.1420   26.7520   46.0700 N   0  0  0  0  0  0  0  0  0  0  0  0
   55.5700   25.3920   46.0230 C   0  0  0  0  0  0  0  0  0  0  0  0
   54.7050   24.4770   46.0480 O   0  0  0  0  0  0  0  0  0  0  0  0
   57.0160   25.0660   45.9170 C   0  0  0  0  0  0  0  0  0  0  0  0
   57.4170   23.7170   45.9690 C   0  0  0  0  0  0  0  0  0  0  0  0
   58.7690   23.3730   45.9170 C   0  0  0  0  0  0  0  0  0  0  0  0
   59.7410   24.3650   45.8050 C   0  0  0  0  0  0  0  0  0  0  0  0
   59.3650   25.7070   45.7410 C   0  0  0  0  0  0  0  0  0  0  0  0
   58.0090   26.0730   45.8000 C   0  0  0  0  0  0  0  0  0  0  0  0
   57.6460   27.4540   45.6460 N   0  0  0  0  0  0  0  0  0  0  0  0
   58.3320   28.3460   44.7510 C   0  0  0  0  0  0  0  0  0  0  0  0
   59.2000   27.8900   43.9570 O   0  0  0  0  0  0  0  0  0  0  0  0
   58.0490   29.8030   44.7520 C   0  0  0  0  0  0  0  0  0  0  0  0
   57.6120   30.4300   43.5730 C   0  0  0  0  0  0  0  0  0  0  0  0
   57.3600   31.8040   43.5540 C   0  0  0  0  0  0  0  0  0  0  0  0
   57.5580   32.5700   44.7020 C   0  0  0  0  0  0  0  0  0  0  0  0
   58.0230   31.9720   45.8850 C   0  0  0  0  0  0  0  0  0  0  0  0
   58.2490   32.7990   47.0950 C   0  0  0  0  0  0  0  0  0  0  0  0
   57.5140   32.6270   48.1040 O   0  0  0  0  0  0  0  0  0  0  0  0
   59.3140   33.7570   47.1800 N   0  0  0  0  0  0  0  0  0  0  0  0
   60.6710   33.4950   47.5680 C   0  0  0  0  0  0  0  0  0  0  0  0
   61.5340   32.7300   46.7640 C   0  0  0  0  0  0  0  0  0  0  0  0
   62.8500   32.4950   47.1720 C   0  0  0  0  0  0  0  0  0  0  0  0
   63.3200   33.0350   48.3720 C   0  0  0  0  0  0  0  0  0  0  0  0
   64.5990   32.8010   48.7590 F   0  0  0  0  0  0  0  0  0  0  0  0
   62.4730   33.8220   49.1630 C   0  0  0  0  0  0  0  0  0  0  0  0
   63.0570   34.5180   50.6650 Cl  0  0  0  0  0  0  0  0  0  0  0  0
   61.1550   34.0530   48.7560 C   0  0  0  0  0  0  0  0  0  0  0  0
   58.2490   30.5830   45.9050 C   0  0  0  0  0  0  0  0  0  0  0  0
   54.4150   27.0620   46.7530 H   0  0  0  0  0  0  0  0  0  0  0  0
   56.6570   22.9261   46.0515 H   0  0  0  0  0  0  0  0  0  0  0  0
   59.0679   22.3155   45.9646 H   0  0  0  0  0  0  0  0  0  0  0  0
   60.8054   24.0899   45.7670 H   0  0  0  0  0  0  0  0  0  0  0  0
   60.1362   26.4853   45.6435 H   0  0  0  0  0  0  0  0  0  0  0  0
   56.8610   27.8110   46.2340 H   0  0  0  0  0  0  0  0  0  0  0  0
   57.4674   29.8352   42.6591 H   0  0  0  0  0  0  0  0  0  0  0  0
   57.0041   32.2832   42.6300 H   0  0  0  0  0  0  0  0  0  0  0  0
   57.3487   33.6497   44.6812 H   0  0  0  0  0  0  0  0  0  0  0  0
   61.1726   32.3153   45.8114 H   0  0  0  0  0  0  0  0  0  0  0  0
   63.5173   31.8835   46.5469 H   0  0  0  0  0  0  0  0  0  0  0  0
   60.4942   34.6780   49.3746 H   0  0  0  0  0  0  0  0  0  0  0  0
   58.5865   30.1012   46.8345 H   0  0  0  0  0  0  0  0  0  0  0  0
  1  2  1  0
  2  3  2  0
  2  4  1  0
  4  5  2  0
  5  6  1  0
  6  7  2  0
  7  8  1  0
  8  9  2  0
  9 10  1  0
 10 11  1  0
 11 12  2  0
 11 13  1  0
 13 14  2  0
 14 15  1  0
 15 16  2  0
 16 17  1  0
 17 18  1  0
 18 19  2  0
 18 20  1  0
 20 21  1  0
 21 22  2  0
 22 23  1  0
 23 24  2  0
 24 25  1  0
 24 26  1  0
 26 27  1  0
 26 28  2  0
 17 29  2  0
  9  4  1  0
 29 13  1  0
 28 21  1  0
  1 30  1  0
  5 31  1  0
  6 32  1  0
  7 33  1  0
  8 34  1  0
 10 35  1  0
 14 36  1  0
 15 37  1  0
 16 38  1  0
 22 39  1  0
 23 40  1  0
 28 41  1  0
 29 42  1  0
M  CHG  2   1  -1  20  -1
M  END
>  <UniqueID>  (30) 
29

>  <SMILES>  (30) 
[NH-]C(=O)c1ccccc1NC(=O)c1cccc(C(=O)[N-]c2ccc(F)c(Cl)c2)c1

>  <Energy>  (30) 
60.6517200654826

>  <Genealogy>  (30) 
[NH-]C(=O)c1ccccc1NC(=O)c1cccc(C(=O)[N-]c2ccc(F)c(Cl)c2)c1 (protonated)
[NH-]C(=O)c1ccccc1NC(=O)c1cccc(C(=O)[N-]c2ccc(F)c(Cl)c2)c1 (3D coordinates assigned)
[NH-]C(=O)c1ccccc1NC(=O)c1cccc(C(=O)[N-]c2ccc(F)c(Cl)c2)c1 (optimized conformer: 60.6517200654826 kcal/mol)

>  <smiles>  (30) 
NC(=O)c1ccccc1NC(=O)c1cccc(C(=O)Nc2ccc(F)c(Cl)c2)c1

>  <score_type>  (30) 
oracle

>  <origin>  (30) 
adg

>  <m_score__min__energy>  (30) 
-13.66

>  <m_primary>  (30) 
energy

$$$$
30:0
     RDKit          3D

 57 59  0  0  0  0  0  0  0  0999 V2000
   64.8940   31.9750   50.1220 C   0  0  0  0  0  0  0  0  0  0  0  0
   64.3900   32.8420   48.9700 C   0  0  0  0  0  0  0  0  0  0  0  0
   62.9400   32.6560   48.7590 N   0  0  0  0  0  0  0  0  0  0  0  0
   62.5640   31.6500   47.7410 C   0  0  0  0  0  0  0  0  0  0  0  0
   61.3210   30.8530   48.0790 C   0  0  0  0  0  0  0  0  0  0  0  0
   60.2860   30.7380   47.1300 C   0  0  0  0  0  0  0  0  0  0  0  0
   59.1070   30.0530   47.4460 C   0  0  0  0  0  0  0  0  0  0  0  0
   58.9370   29.5050   48.7190 C   0  0  0  0  0  0  0  0  0  0  0  0
   59.9440   29.6360   49.6770 C   0  0  0  0  0  0  0  0  0  0  0  0
   61.1250   30.3150   49.3650 C   0  0  0  0  0  0  0  0  0  0  0  0
   62.0690   33.8520   48.8610 C   0  0  0  0  0  0  0  0  0  0  0  0
   60.9130   33.8780   47.8810 C   0  0  0  0  0  0  0  0  0  0  0  0
   59.5920   33.7570   48.3410 C   0  0  0  0  0  0  0  0  0  0  0  0
   58.5190   33.8190   47.4490 C   0  0  0  0  0  0  0  0  0  0  0  0
   58.7460   34.0450   46.0830 C   0  0  0  0  0  0  0  0  0  0  0  0
   57.5950   34.1070   45.1170 C   0  0  0  0  0  0  0  0  0  0  0  0
   57.6950   33.0090   44.1480 N   0  0  0  0  0  0  0  0  0  0  0  0
   56.8150   31.8850   44.5170 C   0  0  0  0  0  0  0  0  0  0  0  0
   57.0400   30.6960   43.5760 C   0  0  0  0  0  0  0  0  0  0  0  0
   57.4590   29.4570   44.3280 C   0  0  0  0  0  0  0  0  0  0  0  0
   58.8120   29.0790   44.3460 C   0  0  0  0  0  0  0  0  0  0  0  0
   59.2100   27.9070   44.9960 C   0  0  0  0  0  0  0  0  0  0  0  0
   58.2610   27.1030   45.6320 C   0  0  0  0  0  0  0  0  0  0  0  0
   56.9130   27.4670   45.6170 C   0  0  0  0  0  0  0  0  0  0  0  0
   56.5080   28.6360   44.9650 C   0  0  0  0  0  0  0  0  0  0  0  0
   55.1580   28.9690   44.9510 O   0  0  0  0  0  0  0  0  0  0  0  0
   60.0610   34.1940   45.6230 C   0  0  0  0  0  0  0  0  0  0  0  0
   61.1330   34.1340   46.5160 C   0  0  0  0  0  0  0  0  0  0  0  0
   64.6219   32.4431   51.0795 H   0  0  0  0  0  0  0  0  0  0  0  0
   64.4351   30.9774   50.0581 H   0  0  0  0  0  0  0  0  0  0  0  0
   65.9880   31.8801   50.0581 H   0  0  0  0  0  0  0  0  0  0  0  0
   64.5864   33.8989   49.2033 H   0  0  0  0  0  0  0  0  0  0  0  0
   64.9176   32.5441   48.0519 H   0  0  0  0  0  0  0  0  0  0  0  0
   62.3895   32.1725   46.7889 H   0  0  0  0  0  0  0  0  0  0  0  0
   63.3942   30.9303   47.6889 H   0  0  0  0  0  0  0  0  0  0  0  0
   60.4053   31.1896   46.1341 H   0  0  0  0  0  0  0  0  0  0  0  0
   58.3140   29.9463   46.6912 H   0  0  0  0  0  0  0  0  0  0  0  0
   58.0087   28.9696   48.9672 H   0  0  0  0  0  0  0  0  0  0  0  0
   59.8076   29.2039   50.6794 H   0  0  0  0  0  0  0  0  0  0  0  0
   61.9071   30.4299   50.1299 H   0  0  0  0  0  0  0  0  0  0  0  0
   61.6557   33.8892   49.8797 H   0  0  0  0  0  0  0  0  0  0  0  0
   62.7014   34.7189   48.6191 H   0  0  0  0  0  0  0  0  0  0  0  0
   59.4002   33.6120   49.4144 H   0  0  0  0  0  0  0  0  0  0  0  0
   57.4912   33.6900   47.8192 H   0  0  0  0  0  0  0  0  0  0  0  0
   56.6489   34.0191   45.6712 H   0  0  0  0  0  0  0  0  0  0  0  0
   57.6245   35.0668   44.5804 H   0  0  0  0  0  0  0  0  0  0  0  0
   57.3880   33.3770   43.2170 H   0  0  0  0  0  0  0  0  0  0  0  0
   57.0356   31.5764   45.5495 H   0  0  0  0  0  0  0  0  0  0  0  0
   55.7677   32.2110   44.4343 H   0  0  0  0  0  0  0  0  0  0  0  0
   56.1040   30.4861   43.0376 H   0  0  0  0  0  0  0  0  0  0  0  0
   57.8474   30.9611   42.8775 H   0  0  0  0  0  0  0  0  0  0  0  0
   59.5625   29.7088   43.8458 H   0  0  0  0  0  0  0  0  0  0  0  0
   60.2712   27.6177   45.0066 H   0  0  0  0  0  0  0  0  0  0  0  0
   58.5759   26.1824   46.1451 H   0  0  0  0  0  0  0  0  0  0  0  0
   56.1678   26.8327   46.1193 H   0  0  0  0  0  0  0  0  0  0  0  0
   60.2502   34.3592   44.5521 H   0  0  0  0  0  0  0  0  0  0  0  0
   62.1582   34.2883   46.1484 H   0  0  0  0  0  0  0  0  0  0  0  0
  1  2  1  0
  2  3  1  0
  3  4  1  0
  4  5  1  0
  5  6  2  0
  6  7  1  0
  7  8  2  0
  8  9  1  0
  9 10  2  0
  3 11  1  0
 11 12  1  0
 12 13  2  0
 13 14  1  0
 14 15  2  0
 15 16  1  0
 16 17  1  0
 17 18  1  0
 18 19  1  0
 19 20  1  0
 20 21  2  0
 21 22  1  0
 22 23  2  0
 23 24  1  0
 24 25  2  0
 25 26  1  0
 15 27  1  0
 27 28  2  0
 10  5  1  0
 28 12  1  0
 25 20  1  0
  1 29  1  0
  1 30  1  0
  1 31  1  0
  2 32  1  0
  2 33  1  0
  4 34  1  0
  4 35  1  0
  6 36  1  0
  7 37  1  0
  8 38  1  0
  9 39  1  0
 10 40  1  0
 11 41  1  0
 11 42  1  0
 13 43  1  0
 14 44  1  0
 16 45  1  0
 16 46  1  0
 17 47  1  0
 18 48  1  0
 18 49  1  0
 19 50  1  0
 19 51  1  0
 21 52  1  0
 22 53  1  0
 23 54  1  0
 24 55  1  0
 27 56  1  0
 28 57  1  0
M  CHG  1  26  -1
M  END
>  <UniqueID>  (31) 
30

>  <SMILES>  (31) 
CCN(Cc1ccccc1)Cc1ccc(CNCCc2ccccc2[O-])cc1

>  <Energy>  (31) 
62.57040750916537

>  <Genealogy>  (31) 
CCN(Cc1ccccc1)Cc1ccc(CNCCc2ccccc2[O-])cc1 (protonated)
CCN(Cc1ccccc1)Cc1ccc(CNCCc2ccccc2[O-])cc1 (3D coordinates assigned)
CCN(Cc1ccccc1)Cc1ccc(CNCCc2ccccc2[O-])cc1 (optimized conformer: 62.57040750916537 kcal/mol)

>  <smiles>  (31) 
CCN(Cc1ccccc1)Cc1ccc(CNCCc2ccccc2O)cc1

>  <score_type>  (31) 
oracle

>  <origin>  (31) 
adg

>  <m_score__min__energy>  (31) 
-12.859999999999999

>  <m_primary>  (31) 
energy

$$$$
31:0
     RDKit          3D

 32 33  0  0  0  0  0  0  0  0999 V2000
   55.9000   31.6550   44.8160 O   0  0  0  0  0  0  0  0  0  0  0  0
   57.0720   31.2450   44.6060 C   0  0  0  0  0  0  0  0  0  0  0  0
   58.0970   32.2150   44.0820 C   0  0  0  0  0  0  0  0  0  0  0  0
   58.5310   33.1710   45.1630 C   0  0  0  0  0  0  0  0  0  0  0  0
   58.2190   32.9030   46.5080 C   0  0  0  0  0  0  0  0  0  0  0  0
   58.6240   33.7840   47.5150 C   0  0  0  0  0  0  0  0  0  0  0  0
   59.3380   34.9410   47.1870 C   0  0  0  0  0  0  0  0  0  0  0  0
   59.6450   35.2190   45.8530 C   0  0  0  0  0  0  0  0  0  0  0  0
   59.2430   34.3390   44.8430 C   0  0  0  0  0  0  0  0  0  0  0  0
   57.3920   29.8860   44.9260 N   0  0  0  0  0  0  0  0  0  0  0  0
   56.4720   28.7530   44.8650 C   0  0  0  0  0  0  0  0  0  0  0  0
   57.0240   27.5670   45.6200 C   0  0  0  0  0  0  0  0  0  0  0  0
   58.4160   27.4140   45.7560 C   0  0  0  0  0  0  0  0  0  0  0  0
   58.9490   26.3100   46.4340 C   0  0  0  0  0  0  0  0  0  0  0  0
   60.3270   26.1640   46.5810 O   0  0  0  0  0  0  0  0  0  0  0  0
   58.0930   25.3430   46.9690 C   0  0  0  0  0  0  0  0  0  0  0  0
   56.7110   25.4720   46.8190 C   0  0  0  0  0  0  0  0  0  0  0  0
   56.1730   26.5700   46.1420 C   0  0  0  0  0  0  0  0  0  0  0  0
   54.7930   26.6610   45.9920 O   0  0  0  0  0  0  0  0  0  0  0  0
   58.9730   31.6550   43.7229 H   0  0  0  0  0  0  0  0  0  0  0  0
   57.6483   32.7923   43.2602 H   0  0  0  0  0  0  0  0  0  0  0  0
   57.6538   31.9961   46.7687 H   0  0  0  0  0  0  0  0  0  0  0  0
   58.3810   33.5672   48.5657 H   0  0  0  0  0  0  0  0  0  0  0  0
   59.6581   35.6326   47.9802 H   0  0  0  0  0  0  0  0  0  0  0  0
   60.2036   36.1312   45.5965 H   0  0  0  0  0  0  0  0  0  0  0  0
   59.4854   34.5624   43.7935 H   0  0  0  0  0  0  0  0  0  0  0  0
   55.5097   29.0465   45.3098 H   0  0  0  0  0  0  0  0  0  0  0  0
   56.3378   28.4665   43.8115 H   0  0  0  0  0  0  0  0  0  0  0  0
   59.0918   28.1680   45.3261 H   0  0  0  0  0  0  0  0  0  0  0  0
   60.8890   26.8710   47.0410 H   0  0  0  0  0  0  0  0  0  0  0  0
   58.5088   24.4794   47.5088 H   0  0  0  0  0  0  0  0  0  0  0  0
   56.0417   24.7051   47.2360 H   0  0  0  0  0  0  0  0  0  0  0  0
  1  2  2  0
  2  3  1  0
  3  4  1  0
  4  5  2  0
  5  6  1  0
  6  7  2  0
  7  8  1  0
  8  9  2  0
  2 10  1  0
 10 11  1  0
 11 12  1  0
 12 13  2  0
 13 14  1  0
 14 15  1  0
 14 16  2  0
 16 17  1  0
 17 18  2  0
 18 19  1  0
  9  4  1  0
 18 12  1  0
  3 20  1  0
  3 21  1  0
  5 22  1  0
  6 23  1  0
  7 24  1  0
  8 25  1  0
  9 26  1  0
 11 27  1  0
 11 28  1  0
 13 29  1  0
 15 30  1  0
 16 31  1  0
 17 32  1  0
M  CHG  2  10  -1  19  -1
M  END
>  <UniqueID>  (32) 
31

>  <SMILES>  (32) 
O=C(Cc1ccccc1)[N-]Cc1cc(O)ccc1[O-]

>  <Energy>  (32) 
30.100719255828658

>  <Genealogy>  (32) 
O=C(Cc1ccccc1)[N-]Cc1cc(O)ccc1[O-] (protonated)
O=C(Cc1ccccc1)[N-]Cc1cc(O)ccc1[O-] (3D coordinates assigned)
O=C(Cc1ccccc1)[N-]Cc1cc(O)ccc1[O-] (optimized conformer: 30.100719255828658 kcal/mol)

>  <smiles>  (32) 
O=C(Cc1ccccc1)NCc1cc(O)ccc1O

>  <score_type>  (32) 
oracle

>  <origin>  (32) 
adg

>  <m_score__min__energy>  (32) 
-12.789999999999999

>  <m_primary>  (32) 
energy

$$$$
32:0
     RDKit          3D

 39 40  0  0  0  0  0  0  0  0999 V2000
   55.8590   24.7690   46.7660 O   0  0  0  0  0  0  0  0  0  0  0  0
   55.6760   25.8290   46.1120 C   0  0  0  0  0  0  0  0  0  0  0  0
   54.3920   26.3400   45.9730 O   0  0  0  0  0  0  0  0  0  0  0  0
   56.8290   26.5110   45.4440 C   0  0  0  0  0  0  0  0  0  0  0  0
   57.0330   27.9110   46.0250 C   0  0  0  0  0  0  0  0  0  0  0  0
   56.2330   28.8850   45.2790 N   0  0  0  0  0  0  0  0  0  0  0  0
   57.1780   29.6650   44.0430 S   0  0  0  0  0  0  0  0  0  0  0  0
   56.3450   29.8410   42.8040 O   0  0  0  0  0  0  0  0  0  0  0  0
   58.3550   28.7940   43.7020 O   0  0  0  0  0  0  0  0  0  0  0  0
   57.7630   31.2290   44.6040 C   0  0  0  0  0  0  0  0  0  0  0  0
   57.7020   32.3420   43.7560 C   0  0  0  0  0  0  0  0  0  0  0  0
   58.2160   33.5720   44.1730 C   0  0  0  0  0  0  0  0  0  0  0  0
   58.7890   33.6980   45.4410 C   0  0  0  0  0  0  0  0  0  0  0  0
   58.8420   32.5980   46.3090 C   0  0  0  0  0  0  0  0  0  0  0  0
   59.4660   32.7430   47.5960 N   0  0  0  0  0  0  0  0  0  0  0  0
   59.7350   34.0100   48.2170 C   0  0  0  0  0  0  0  0  0  0  0  0
   59.8440   35.0500   47.5150 O   0  0  0  0  0  0  0  0  0  0  0  0
   59.9800   34.0970   49.6250 N   0  0  0  0  0  0  0  0  0  0  0  0
   59.2260   33.4350   50.6500 C   0  0  0  0  0  0  0  0  0  0  0  0
   58.5240   32.2420   50.3970 C   0  0  0  0  0  0  0  0  0  0  0  0
   57.7750   31.6360   51.4110 C   0  0  0  0  0  0  0  0  0  0  0  0
   57.7070   32.2250   52.6770 C   0  0  0  0  0  0  0  0  0  0  0  0
   58.3810   33.4230   52.9270 C   0  0  0  0  0  0  0  0  0  0  0  0
   59.1310   34.0300   51.9140 C   0  0  0  0  0  0  0  0  0  0  0  0
   58.3380   31.3570   45.8760 C   0  0  0  0  0  0  0  0  0  0  0  0
   57.7415   25.9172   45.6016 H   0  0  0  0  0  0  0  0  0  0  0  0
   56.6153   26.5998   44.3686 H   0  0  0  0  0  0  0  0  0  0  0  0
   56.7222   27.9162   47.0802 H   0  0  0  0  0  0  0  0  0  0  0  0
   58.0962   28.1824   45.9476 H   0  0  0  0  0  0  0  0  0  0  0  0
   57.2479   32.2472   42.7586 H   0  0  0  0  0  0  0  0  0  0  0  0
   58.1696   34.4426   43.5022 H   0  0  0  0  0  0  0  0  0  0  0  0
   59.2013   34.6665   45.7605 H   0  0  0  0  0  0  0  0  0  0  0  0
   59.8140   31.8820   48.0770 H   0  0  0  0  0  0  0  0  0  0  0  0
   58.5644   31.7841   49.3977 H   0  0  0  0  0  0  0  0  0  0  0  0
   57.2395   30.6959   51.2123 H   0  0  0  0  0  0  0  0  0  0  0  0
   57.1229   31.7453   53.4762 H   0  0  0  0  0  0  0  0  0  0  0  0
   58.3219   33.8895   53.9214 H   0  0  0  0  0  0  0  0  0  0  0  0
   59.6490   34.9801   52.1116 H   0  0  0  0  0  0  0  0  0  0  0  0
   58.3958   30.4820   46.5401 H   0  0  0  0  0  0  0  0  0  0  0  0
  1  2  2  0
  2  3  1  0
  2  4  1  0
  4  5  1  0
  5  6  1  0
  6  7  1  0
  7  8  2  0
  7  9  2  0
  7 10  1  0
 10 11  2  0
 11 12  1  0
 12 13  2  0
 13 14  1  0
 14 15  1  0
 15 16  1  0
 16 17  2  0
 16 18  1  0
 18 19  1  0
 19 20  2  0
 20 21  1  0
 21 22  2  0
 22 23  1  0
 23 24  2  0
 14 25  2  0
 25 10  1  0
 24 19  1  0
  4 26  1  0
  4 27  1  0
  5 28  1  0
  5 29  1  0
 11 30  1  0
 12 31  1  0
 13 32  1  0
 15 33  1  0
 20 34  1  0
 21 35  1  0
 22 36  1  0
 23 37  1  0
 24 38  1  0
 25 39  1  0
M  CHG  3   3  -1   6  -1  18  -1
M  END
>  <UniqueID>  (33) 
32

>  <SMILES>  (33) 
O=C([O-])CC[N-]S(=O)(=O)c1cccc(NC(=O)[N-]c2ccccc2)c1

>  <Energy>  (33) 
41.267286688248866

>  <Genealogy>  (33) 
O=C([O-])CC[N-]S(=O)(=O)c1cccc(NC(=O)[N-]c2ccccc2)c1 (protonated)
O=C([O-])CC[N-]S(=O)(=O)c1cccc(NC(=O)[N-]c2ccccc2)c1 (3D coordinates assigned)
O=C([O-])CC[N-]S(=O)(=O)c1cccc(NC(=O)[N-]c2ccccc2)c1 (optimized conformer: 41.267286688248866 kcal/mol)

>  <smiles>  (33) 
O=C(O)CCNS(=O)(=O)c1cccc(NC(=O)Nc2ccccc2)c1

>  <score_type>  (33) 
oracle

>  <origin>  (33) 
adg

>  <m_score__min__energy>  (33) 
-13.390000000000001

>  <m_primary>  (33) 
energy

$$$$
33:0
     RDKit          3D

 40 42  0  0  0  0  0  0  0  0999 V2000
   55.1600   29.0860   44.8740 O   0  0  0  0  0  0  0  0  0  0  0  0
   56.4200   29.0180   44.8700 C   0  0  0  0  0  0  0  0  0  0  0  0
   57.1760   30.0300   44.1940 N   0  0  0  0  0  0  0  0  0  0  0  0
   56.9920   31.4600   44.4090 C   0  0  0  0  0  0  0  0  0  0  0  0
   58.1050   32.0070   45.2610 C   0  0  0  0  0  0  0  0  0  0  0  0
   58.3740   33.3800   45.2740 C   0  0  0  0  0  0  0  0  0  0  0  0
   59.4220   33.8800   46.0460 C   0  0  0  0  0  0  0  0  0  0  0  0
   60.2040   32.9980   46.8090 C   0  0  0  0  0  0  0  0  0  0  0  0
   61.2890   33.4920   47.6160 N   0  0  0  0  0  0  0  0  0  0  0  0
   61.0030   34.2170   48.8570 C   0  0  0  0  0  0  0  0  0  0  0  0
   62.1630   34.0320   49.8400 C   0  0  0  0  0  0  0  0  0  0  0  0
   63.3960   34.3740   49.2330 O   0  0  0  0  0  0  0  0  0  0  0  0
   63.6750   33.4750   48.1780 C   0  0  0  0  0  0  0  0  0  0  0  0
   62.6400   33.6090   47.0570 C   0  0  0  0  0  0  0  0  0  0  0  0
   59.9310   31.6610   46.7750 N   0  0  0  0  0  0  0  0  0  0  0  0
   58.9130   31.1550   46.0260 C   0  0  0  0  0  0  0  0  0  0  0  0
   57.1000   27.8900   45.5620 C   0  0  0  0  0  0  0  0  0  0  0  0
   58.5010   27.9020   45.7000 C   0  0  0  0  0  0  0  0  0  0  0  0
   59.1590   26.8550   46.3440 C   0  0  0  0  0  0  0  0  0  0  0  0
   58.4180   25.7920   46.8530 C   0  0  0  0  0  0  0  0  0  0  0  0
   57.0670   25.7800   46.7160 N   0  0  0  0  0  0  0  0  0  0  0  0
   56.3930   26.7840   46.0940 C   0  0  0  0  0  0  0  0  0  0  0  0
   55.1400   26.7070   46.0020 O   0  0  0  0  0  0  0  0  0  0  0  0
   56.9914   31.9760   43.4375 H   0  0  0  0  0  0  0  0  0  0  0  0
   56.0336   31.6243   44.9233 H   0  0  0  0  0  0  0  0  0  0  0  0
   57.7578   34.0660   44.6743 H   0  0  0  0  0  0  0  0  0  0  0  0
   59.6349   34.9591   46.0572 H   0  0  0  0  0  0  0  0  0  0  0  0
   60.8784   35.2872   48.6352 H   0  0  0  0  0  0  0  0  0  0  0  0
   60.0787   33.8234   49.3049 H   0  0  0  0  0  0  0  0  0  0  0  0
   62.0005   34.6781   50.7153 H   0  0  0  0  0  0  0  0  0  0  0  0
   62.2013   32.9759   50.1454 H   0  0  0  0  0  0  0  0  0  0  0  0
   64.6743   33.6936   47.7735 H   0  0  0  0  0  0  0  0  0  0  0  0
   63.6356   32.4486   48.5715 H   0  0  0  0  0  0  0  0  0  0  0  0
   62.7514   34.5898   46.5716 H   0  0  0  0  0  0  0  0  0  0  0  0
   62.7987   32.8109   46.3169 H   0  0  0  0  0  0  0  0  0  0  0  0
   60.5290   30.9940   47.3140 H   0  0  0  0  0  0  0  0  0  0  0  0
   58.7236   30.0714   46.0212 H   0  0  0  0  0  0  0  0  0  0  0  0
   59.0815   28.7446   45.2963 H   0  0  0  0  0  0  0  0  0  0  0  0
   60.2539   26.8687   46.4490 H   0  0  0  0  0  0  0  0  0  0  0  0
   58.9265   24.9623   47.3658 H   0  0  0  0  0  0  0  0  0  0  0  0
  1  2  2  0
  2  3  1  0
  3  4  1  0
  4  5  1  0
  5  6  2  0
  6  7  1  0
  7  8  2  0
  8  9  1  0
  9 10  1  0
 10 11  1  0
 11 12  1  0
 12 13  1  0
 13 14  1  0
  8 15  1  0
 15 16  2  0
  2 17  1  0
 17 18  2  0
 18 19  1  0
 19 20  2  0
 20 21  1  0
 21 22  1  0
 22 23  2  0
 16  5  1  0
 22 17  1  0
 14  9  1  0
  4 24  1  0
  4 25  1  0
  6 26  1  0
  7 27  1  0
 10 28  1  0
 10 29  1  0
 11 30  1  0
 11 31  1  0
 13 32  1  0
 13 33  1  0
 14 34  1  0
 14 35  1  0
 15 36  1  0
 16 37  1  0
 18 38  1  0
 19 39  1  0
 20 40  1  0
M  CHG  3   3  -1  15   1  21  -1
M  END
>  <UniqueID>  (34) 
33

>  <SMILES>  (34) 
O=C([N-]Cc1ccc(N2CCOCC2)[nH+]c1)c1ccc[n-]c1=O

>  <Energy>  (34) 
47.96426511102294

>  <Genealogy>  (34) 
O=C([N-]Cc1ccc(N2CCOCC2)[nH+]c1)c1ccc[n-]c1=O (protonated)
O=C([N-]Cc1ccc(N2CCOCC2)[nH+]c1)c1ccc[n-]c1=O (3D coordinates assigned)
O=C([N-]Cc1ccc(N2CCOCC2)[nH+]c1)c1ccc[n-]c1=O (nonaromatic ring conformer: 47.96426511102294 kcal/mol)

>  <smiles>  (34) 
O=C(NCc1ccc(N2CCOCC2)nc1)c1ccc[nH]c1=O

>  <score_type>  (34) 
oracle

>  <origin>  (34) 
adg

>  <m_score__min__energy>  (34) 
-9.3900000000000006

>  <m_primary>  (34) 
energy

$$$$
34:0
     RDKit          3D

 41 43  0  0  0  0  0  0  0  0999 V2000
   61.7840   32.5920   48.9160 C   0  0  0  0  0  0  0  0  0  0  0  0
   60.9400   33.7200   48.4790 N   0  0  1  0  0  0  0  0  0  0  0  0
   61.2200   34.0430   47.0610 C   0  0  0  0  0  0  0  0  0  0  0  0
   59.9700   34.5240   46.3120 C   0  0  0  0  0  0  0  0  0  0  0  0
   59.0730   33.4000   45.8220 C   0  0  0  0  0  0  0  0  0  0  0  0
   58.6570   33.4540   44.4790 C   0  0  0  0  0  0  0  0  0  0  0  0
   57.7990   32.4920   43.9520 C   0  0  0  0  0  0  0  0  0  0  0  0
   57.3160   31.4540   44.7560 C   0  0  0  0  0  0  0  0  0  0  0  0
   56.4030   30.4350   44.1850 C   0  0  0  0  0  0  0  0  0  0  0  0
   55.8880   30.6330   43.0530 O   0  0  0  0  0  0  0  0  0  0  0  0
   56.1230   29.2000   44.8600 N   0  0  0  0  0  0  0  0  0  0  0  0
   57.0840   28.2000   45.2320 C   0  0  0  0  0  0  0  0  0  0  0  0
   58.4670   28.4160   45.0830 C   0  0  0  0  0  0  0  0  0  0  0  0
   59.3770   27.4260   45.4620 C   0  0  0  0  0  0  0  0  0  0  0  0
   58.9190   26.2230   46.0080 C   0  0  0  0  0  0  0  0  0  0  0  0
   57.5490   26.0140   46.1820 C   0  0  0  0  0  0  0  0  0  0  0  0
   56.6340   27.0010   45.8030 C   0  0  0  0  0  0  0  0  0  0  0  0
   55.3050   26.7850   45.9750 F   0  0  0  0  0  0  0  0  0  0  0  0
   57.7250   31.3850   46.0960 C   0  0  0  0  0  0  0  0  0  0  0  0
   58.5690   32.3620   46.6570 C   0  0  0  0  0  0  0  0  0  0  0  0
   58.9600   32.1830   48.1130 C   0  0  0  0  0  0  0  0  0  0  0  0
   59.5060   33.4640   48.7700 C   0  0  0  0  0  0  0  0  0  0  0  0
   61.8097   32.5576   50.0152 H   0  0  0  0  0  0  0  0  0  0  0  0
   61.3667   31.6505   48.5294 H   0  0  0  0  0  0  0  0  0  0  0  0
   62.8050   32.7267   48.5294 H   0  0  0  0  0  0  0  0  0  0  0  0
   61.2280   34.5480   49.0540 H   0  0  0  0  0  0  0  0  0  0  0  0
   61.9813   34.8360   47.0232 H   0  0  0  0  0  0  0  0  0  0  0  0
   61.5711   33.1230   46.5708 H   0  0  0  0  0  0  0  0  0  0  0  0
   59.3850   35.1630   46.9898 H   0  0  0  0  0  0  0  0  0  0  0  0
   60.3212   35.0631   45.4198 H   0  0  0  0  0  0  0  0  0  0  0  0
   59.0156   34.2700   43.8343 H   0  0  0  0  0  0  0  0  0  0  0  0
   57.4987   32.5487   42.8953 H   0  0  0  0  0  0  0  0  0  0  0  0
   58.8321   29.3666   44.6671 H   0  0  0  0  0  0  0  0  0  0  0  0
   60.4562   27.5933   45.3306 H   0  0  0  0  0  0  0  0  0  0  0  0
   59.6367   25.4422   46.3001 H   0  0  0  0  0  0  0  0  0  0  0  0
   57.1890   25.0706   46.6183 H   0  0  0  0  0  0  0  0  0  0  0  0
   57.3787   30.5494   46.7220 H   0  0  0  0  0  0  0  0  0  0  0  0
   58.0714   31.8570   48.6735 H   0  0  0  0  0  0  0  0  0  0  0  0
   59.7695   31.4387   48.1390 H   0  0  0  0  0  0  0  0  0  0  0  0
   58.9193   34.3193   48.4037 H   0  0  0  0  0  0  0  0  0  0  0  0
   59.4179   33.3297   49.8582 H   0  0  0  0  0  0  0  0  0  0  0  0
  1  2  1  0
  2  3  1  0
  3  4  1  0
  4  5  1  0
  5  6  2  0
  6  7  1  0
  7  8  2  0
  8  9  1  0
  9 10  2  0
  9 11  1  0
 11 12  1  0
 12 13  2  0
 13 14  1  0
 14 15  2  0
 15 16  1  0
 16 17  2  0
 17 18  1  0
  8 19  1  0
 19 20  2  0
 20 21  1  0
 21 22  1  0
 22  2  1  0
 20  5  1  0
 17 12  1  0
  1 23  1  0
  1 24  1  0
  1 25  1  0
  2 26  1  1
  3 27  1  0
  3 28  1  0
  4 29  1  0
  4 30  1  0
  6 31  1  0
  7 32  1  0
 13 33  1  0
 14 34  1  0
 15 35  1  0
 16 36  1  0
 19 37  1  0
 21 38  1  0
 21 39  1  0
 22 40  1  0
 22 41  1  0
M  CHG  2   2   1  11  -1
M  END
>  <UniqueID>  (35) 
34

>  <SMILES>  (35) 
C[N@H+]1CCc2ccc(C(=O)[N-]c3ccccc3F)cc2CC1

>  <Energy>  (35) 
61.7632321763826

>  <Genealogy>  (35) 
C[NH+]1CCc2ccc(C(=O)[N-]c3ccccc3F)cc2CC1 (protonated)
C[N@H+]1CCc2ccc(C(=O)[N-]c3ccccc3F)cc2CC1 (chirality)
C[N@H+]1CCc2ccc(C(=O)[N-]c3ccccc3F)cc2CC1 (3D coordinates assigned)
C[N@H+]1CCc2ccc(C(=O)[N-]c3ccccc3F)cc2CC1 (nonaromatic ring conformer: 61.7632321763826 kcal/mol)

>  <smiles>  (35) 
CN1CCc2ccc(C(=O)Nc3ccccc3F)cc2CC1

>  <score_type>  (35) 
oracle

>  <origin>  (35) 
adg

>  <m_score__min__energy>  (35) 
-7.0899999999999999

>  <m_primary>  (35) 
energy

$$$$
35:0
     RDKit          3D

 76 80  0  0  0  0  0  0  0  0999 V2000
   61.3558   26.1892   52.2261 H   0  0  0  0  0  0  0  0  0  0  0  0
   61.0870   26.8890   51.4210 C   0  0  0  0  0  0  0  0  0  0  0  0
   61.0780   28.2610   51.6650 C   0  0  0  0  0  0  0  0  0  0  0  0
   61.3163   28.6418   52.6691 H   0  0  0  0  0  0  0  0  0  0  0  0
   60.7670   29.1530   50.6370 C   0  0  0  0  0  0  0  0  0  0  0  0
   60.7607   30.2346   50.8370 H   0  0  0  0  0  0  0  0  0  0  0  0
   60.4620   28.6810   49.3490 C   0  0  0  0  0  0  0  0  0  0  0  0
   60.1280   29.6710   48.2600 C   0  0  0  0  0  0  0  0  0  0  0  0
   59.4970   30.4685   48.6794 H   0  0  0  0  0  0  0  0  0  0  0  0
   59.5952   29.1423   47.4558 H   0  0  0  0  0  0  0  0  0  0  0  0
   61.3970   30.2910   47.6790 C   0  0  0  0  0  0  0  0  0  0  0  0
   62.0562   30.6131   48.4986 H   0  0  0  0  0  0  0  0  0  0  0  0
   61.9187   29.5463   47.0600 H   0  0  0  0  0  0  0  0  0  0  0  0
   61.1302   31.1602   47.0600 H   0  0  0  0  0  0  0  0  0  0  0  0
   60.4200   27.2880   49.1120 C   0  0  0  0  0  0  0  0  0  0  0  0
   60.1010   26.8040   47.7930 N   0  0  0  0  0  0  0  0  0  0  0  0
   58.9500   26.8770   47.1920 C   0  0  0  0  0  0  0  0  0  0  0  0
   58.6100   28.0230   46.5500 N   0  0  0  0  0  0  0  0  0  0  0  0
   57.4010   28.1390   45.9420 C   0  0  0  0  0  0  0  0  0  0  0  0
   57.0530   29.3420   45.2410 N   0  0  0  0  0  0  0  0  0  0  0  0
   55.7700   29.4900   44.5680 C   0  0  0  0  0  0  0  0  0  0  0  0
   55.3812   28.5074   44.2624 H   0  0  0  0  0  0  0  0  0  0  0  0
   55.0151   29.9442   45.2267 H   0  0  0  0  0  0  0  0  0  0  0  0
   56.0470   30.3610   43.3390 C   0  0  2  0  0  0  0  0  0  0  0  0
   55.2100   31.0351   43.1043 H   0  0  0  0  0  0  0  0  0  0  0  0
   56.2610   29.5210   42.1590 N   0  0  0  0  0  0  0  0  0  0  0  0
   55.5690   28.7380   42.1880 H   0  0  0  0  0  0  0  0  0  0  0  0
   57.2020   29.0720   42.2430 H   0  0  0  0  0  0  0  0  0  0  0  0
   57.3290   31.1190   43.6890 C   0  0  0  0  0  0  0  0  0  0  0  0
   57.9331   31.2937   42.7865 H   0  0  0  0  0  0  0  0  0  0  0  0
   57.1181   32.1071   44.1240 H   0  0  0  0  0  0  0  0  0  0  0  0
   58.0750   30.2090   44.6670 C   0  0  1  0  0  0  0  0  0  0  0  0
   58.8587   29.6324   44.1539 H   0  0  0  0  0  0  0  0  0  0  0  0
   58.8260   31.0040   45.7530 C   0  0  0  0  0  0  0  0  0  0  0  0
   58.9862   30.3507   46.6234 H   0  0  0  0  0  0  0  0  0  0  0  0
   59.7815   31.3415   45.3250 H   0  0  0  0  0  0  0  0  0  0  0  0
   58.0810   32.1910   46.1840 N   0  0  0  0  0  0  0  0  0  0  0  0
   59.0220   33.6530   46.0370 S   0  0  0  0  0  0  0  0  0  0  0  0
   59.3630   33.8610   44.5880 O   0  0  0  0  0  0  0  0  0  0  0  0
   58.1850   34.8200   46.4790 O   0  0  0  0  0  0  0  0  0  0  0  0
   60.5150   33.6040   47.0020 C   0  0  0  0  0  0  0  0  0  0  0  0
   61.7450   33.8090   46.3540 C   0  0  0  0  0  0  0  0  0  0  0  0
   61.7635   34.0150   45.2736 H   0  0  0  0  0  0  0  0  0  0  0  0
   62.9410   33.7540   47.0660 C   0  0  0  0  0  0  0  0  0  0  0  0
   63.8983   33.8986   46.5439 H   0  0  0  0  0  0  0  0  0  0  0  0
   62.9260   33.5160   48.4390 C   0  0  0  0  0  0  0  0  0  0  0  0
   63.8699   33.4999   49.0036 H   0  0  0  0  0  0  0  0  0  0  0  0
   61.7160   33.2980   49.0990 C   0  0  0  0  0  0  0  0  0  0  0  0
   61.7139   33.0937   50.1799 H   0  0  0  0  0  0  0  0  0  0  0  0
   60.5010   33.3370   48.3960 C   0  0  0  0  0  0  0  0  0  0  0  0
   59.2170   33.0980   49.1420 C   0  0  0  0  0  0  0  0  0  0  0  0
   59.4097   33.1339   50.2244 H   0  0  0  0  0  0  0  0  0  0  0  0
   58.4868   33.8756   48.8736 H   0  0  0  0  0  0  0  0  0  0  0  0
   58.8155   32.1097   48.8736 H   0  0  0  0  0  0  0  0  0  0  0  0
   56.5360   27.0960   45.9700 N   0  0  0  0  0  0  0  0  0  0  0  0
   56.8660   25.9410   46.6040 C   0  0  0  0  0  0  0  0  0  0  0  0
   56.0570   24.9230   46.6190 N   0  0  0  0  0  0  0  0  0  0  0  0
   55.9850   23.8250   45.6440 C   0  0  0  0  0  0  0  0  0  0  0  0
   55.6723   22.9295   46.2011 H   0  0  0  0  0  0  0  0  0  0  0  0
   54.9110   24.0770   44.5610 C   0  0  0  0  0  0  0  0  0  0  0  0
   53.9384   23.7257   44.9361 H   0  0  0  0  0  0  0  0  0  0  0  0
   54.8878   25.1560   44.3485 H   0  0  0  0  0  0  0  0  0  0  0  0
   55.2350   23.3380   43.2470 C   0  0  0  0  0  0  0  0  0  0  0  0
   54.2957   23.1237   42.7162 H   0  0  0  0  0  0  0  0  0  0  0  0
   55.8887   23.9819   42.6403 H   0  0  0  0  0  0  0  0  0  0  0  0
   55.9380   22.0760   43.5010 N   0  0  0  0  0  0  0  0  0  0  0  0
   55.3690   21.5000   44.1650 H   0  0  0  0  0  0  0  0  0  0  0  0
   57.2810   22.2990   44.0710 C   0  0  0  0  0  0  0  0  0  0  0  0
   57.5746   21.3986   44.6305 H   0  0  0  0  0  0  0  0  0  0  0  0
   57.9566   22.5090   43.2287 H   0  0  0  0  0  0  0  0  0  0  0  0
   57.3580   23.5130   45.0250 C   0  0  0  0  0  0  0  0  0  0  0  0
   58.0724   23.2904   45.8313 H   0  0  0  0  0  0  0  0  0  0  0  0
   57.6852   24.3893   44.4462 H   0  0  0  0  0  0  0  0  0  0  0  0
   58.0690   25.8420   47.2240 N   0  0  0  0  0  0  0  0  0  0  0  0
   60.7550   26.4020   50.1550 C   0  0  0  0  0  0  0  0  0  0  0  0
   60.7550   25.3176   49.9705 H   0  0  0  0  0  0  0  0  0  0  0  0
  1  2  1  0
  2  3  2  0
  3  4  1  0
  3  5  1  0
  5  6  1  0
  5  7  2  0
  7  8  1  0
  8  9  1  0
  8 10  1  0
  8 11  1  0
 11 12  1  0
 11 13  1  0
 11 14  1  0
  7 15  1  0
 15 16  1  0
 16 17  2  0
 17 18  1  0
 18 19  1  0
 19 20  1  0
 20 21  1  0
 21 22  1  0
 21 23  1  0
 21 24  1  0
 24 25  1  6
 24 26  1  0
 26 27  1  0
 26 28  1  0
 24 29  1  0
 29 30  1  0
 29 31  1  0
 29 32  1  0
 32 33  1  6
 32 34  1  0
 34 35  1  0
 34 36  1  0
 34 37  1  0
 37 38  1  0
 38 39  2  0
 38 40  2  0
 38 41  1  0
 41 42  2  0
 42 43  1  0
 42 44  1  0
 44 45  1  0
 44 46  2  0
 46 47  1  0
 46 48  1  0
 48 49  1  0
 48 50  2  0
 50 51  1  0
 51 52  1  0
 51 53  1  0
 51 54  1  0
 19 55  2  0
 55 56  1  0
 56 57  2  3
 57 58  1  0
 58 59  1  0
 58 60  1  0
 60 61  1  0
 60 62  1  0
 60 63  1  0
 63 64  1  0
 63 65  1  0
 63 66  1  0
 66 67  1  0
 66 68  1  0
 68 69  1  0
 68 70  1  0
 68 71  1  0
 71 72  1  0
 71 73  1  0
 56 74  1  0
 15 75  2  0
 75 76  1  0
 75  2  1  0
 74 17  1  0
 32 20  1  0
 50 41  1  0
 71 58  1  0
M  CHG  3  18  -1  37  -1  74  -1
M  END
>  <UniqueID>  (36) 
35

>  <SMILES>  (36) 
CCc1ccccc1/N=c1/[n-]c(N2C[C@H](N)C[C@H]2C[N-]S(=O)(=O)c2ccccc2C)nc(=NC2CCNCC2)[n-]1

>  <Energy>  (36) 
90.52219898644537

>  <Genealogy>  (36) 
CCc1ccccc1N=c1[n-]c(N2CC(N)CC2C[N-]S(=O)(=O)c2ccccc2C)nc(=NC2CCNCC2)[n-]1 (protonated)
CCc1ccccc1N=c1[n-]c(N2C[C@H](N)C[C@H]2C[N-]S(=O)(=O)c2ccccc2C)nc(=NC2CCNCC2)[n-]1 (chirality)
CCc1ccccc1/N=c1/[n-]c(N2C[C@H](N)C[C@H]2C[N-]S(=O)(=O)c2ccccc2C)nc(=NC2CCNCC2)[n-]1 (cis-trans isomerization)
CCc1ccccc1/N=c1/[n-]c(N2C[C@H](N)C[C@H]2C[N-]S(=O)(=O)c2ccccc2C)nc(=NC2CCNCC2)[n-]1 (3D coordinates assigned)
CCc1ccccc1/N=c1/[n-]c(N2C[C@H](N)C[C@H]2C[N-]S(=O)(=O)c2ccccc2C)nc(=NC2CCNCC2)[n-]1 (nonaromatic ring conformer: 90.52219898644537 kcal/mol)

>  <smiles>  (36) 
CCc1ccccc1N=c1[nH]c(N2CC(N)CC2CNS(=O)(=O)c2ccccc2C)nc(=NC2CCNCC2)[nH]1

>  <score_type>  (36) 
oracle

>  <origin>  (36) 
adg

>  <m_score__min__energy>  (36) 
-15.029999999999999

>  <m_primary>  (36) 
energy

$$$$
36:0
     RDKit          3D

 43 45  0  0  0  0  0  0  0  0999 V2000
   54.7620   26.3360   45.9880 N   0  0  0  0  0  0  0  0  0  0  0  0
   56.0470   25.2110   46.2530 S   0  0  0  0  0  0  0  0  0  0  0  0
   55.8380   24.5170   47.5700 O   0  0  0  0  0  0  0  0  0  0  0  0
   56.0480   24.1800   45.1610 O   0  0  0  0  0  0  0  0  0  0  0  0
   57.5850   26.0670   46.2650 C   0  0  0  0  0  0  0  0  0  0  0  0
   58.7910   25.3550   46.2980 C   0  0  0  0  0  0  0  0  0  0  0  0
   60.0090   26.0380   46.3340 C   0  0  0  0  0  0  0  0  0  0  0  0
   60.0290   27.4340   46.3340 C   0  0  0  0  0  0  0  0  0  0  0  0
   58.8310   28.1620   46.2820 C   0  0  0  0  0  0  0  0  0  0  0  0
   58.8800   29.5980   46.2790 N   0  0  0  0  0  0  0  0  0  0  0  0
   57.8500   30.4260   45.7160 C   0  0  0  0  0  0  0  0  0  0  0  0
   56.7720   29.9240   45.2980 O   0  0  0  0  0  0  0  0  0  0  0  0
   58.0770   31.8730   45.5680 C   0  0  0  0  0  0  0  0  0  0  0  0
   57.7340   32.4870   44.3530 C   0  0  0  0  0  0  0  0  0  0  0  0
   57.9320   33.8550   44.1710 C   0  0  0  0  0  0  0  0  0  0  0  0
   58.4640   34.6280   45.2030 C   0  0  0  0  0  0  0  0  0  0  0  0
   58.7900   34.0360   46.4250 C   0  0  0  0  0  0  0  0  0  0  0  0
   58.5960   32.6580   46.6280 C   0  0  0  0  0  0  0  0  0  0  0  0
   58.8890   32.0650   47.9950 C   0  0  0  0  0  0  0  0  0  0  0  0
   60.2200   32.4790   48.4880 N   0  0  0  0  0  0  0  0  0  0  0  0
   60.2890   33.4360   49.4670 C   0  0  0  0  0  0  0  0  0  0  0  0
   61.5200   33.8430   49.9840 C   0  0  0  0  0  0  0  0  0  0  0  0
   62.6920   33.2850   49.4830 C   0  0  0  0  0  0  0  0  0  0  0  0
   62.6250   32.3400   48.4630 C   0  0  0  0  0  0  0  0  0  0  0  0
   63.7950   31.7890   47.9520 O   0  0  0  0  0  0  0  0  0  0  0  0
   61.3760   31.9490   47.9610 C   0  0  0  0  0  0  0  0  0  0  0  0
   61.3320   31.1060   47.0230 O   0  0  0  0  0  0  0  0  0  0  0  0
   57.6070   27.4690   46.2720 C   0  0  0  0  0  0  0  0  0  0  0  0
   55.1660   27.2920   46.1080 H   0  0  0  0  0  0  0  0  0  0  0  0
   58.7788   24.2551   46.2956 H   0  0  0  0  0  0  0  0  0  0  0  0
   60.9537   25.4752   46.3624 H   0  0  0  0  0  0  0  0  0  0  0  0
   60.9906   27.9666   46.3750 H   0  0  0  0  0  0  0  0  0  0  0  0
   59.7960   30.0520   46.4950 H   0  0  0  0  0  0  0  0  0  0  0  0
   57.3058   31.8843   43.5385 H   0  0  0  0  0  0  0  0  0  0  0  0
   57.6683   34.3254   43.2122 H   0  0  0  0  0  0  0  0  0  0  0  0
   58.6270   35.7056   45.0540 H   0  0  0  0  0  0  0  0  0  0  0  0
   59.2025   34.6534   47.2366 H   0  0  0  0  0  0  0  0  0  0  0  0
   58.1219   32.4068   48.7054 H   0  0  0  0  0  0  0  0  0  0  0  0
   58.8779   30.9686   47.9066 H   0  0  0  0  0  0  0  0  0  0  0  0
   59.3626   33.8889   49.8500 H   0  0  0  0  0  0  0  0  0  0  0  0
   61.5632   34.5993   50.7816 H   0  0  0  0  0  0  0  0  0  0  0  0
   63.6672   33.5892   49.8911 H   0  0  0  0  0  0  0  0  0  0  0  0
   56.6611   28.0305   46.2697 H   0  0  0  0  0  0  0  0  0  0  0  0
  1  2  1  0
  2  3  2  0
  2  4  2  0
  2  5  1  0
  5  6  2  0
  6  7  1  0
  7  8  2  0
  8  9  1  0
  9 10  1  0
 10 11  1  0
 11 12  2  0
 11 13  1  0
 13 14  2  0
 14 15  1  0
 15 16  2  0
 16 17  1  0
 17 18  2  0
 18 19  1  0
 19 20  1  0
 20 21  1  0
 21 22  2  0
 22 23  1  0
 23 24  2  0
 24 25  1  0
 24 26  1  0
 26 27  2  0
  9 28  2  0
 28  5  1  0
 18 13  1  0
 26 20  1  0
  1 29  1  0
  6 30  1  0
  7 31  1  0
  8 32  1  0
 10 33  1  0
 14 34  1  0
 15 35  1  0
 16 36  1  0
 17 37  1  0
 19 38  1  0
 19 39  1  0
 21 40  1  0
 22 41  1  0
 23 42  1  0
 28 43  1  0
M  CHG  2   1  -1  25  -1
M  END
>  <UniqueID>  (37) 
36

>  <SMILES>  (37) 
[NH-]S(=O)(=O)c1cccc(NC(=O)c2ccccc2Cn2cccc([O-])c2=O)c1

>  <Energy>  (37) 
56.85426323176804

>  <Genealogy>  (37) 
[NH-]S(=O)(=O)c1cccc(NC(=O)c2ccccc2Cn2cccc([O-])c2=O)c1 (protonated)
[NH-]S(=O)(=O)c1cccc(NC(=O)c2ccccc2Cn2cccc([O-])c2=O)c1 (3D coordinates assigned)
[NH-]S(=O)(=O)c1cccc(NC(=O)c2ccccc2Cn2cccc([O-])c2=O)c1 (optimized conformer: 56.85426323176804 kcal/mol)

>  <smiles>  (37) 
NS(=O)(=O)c1cccc(NC(=O)c2ccccc2Cn2cccc(O)c2=O)c1

>  <score_type>  (37) 
oracle

>  <origin>  (37) 
adg

>  <m_score__min__energy>  (37) 
-13.56

>  <m_primary>  (37) 
energy

$$$$
37:0
     RDKit          3D

 31 32  0  0  0  0  0  0  0  0999 V2000
   57.8490   30.9920   43.2420 O   0  0  0  0  0  0  0  0  0  0  0  0
   57.4650   30.8510   44.4330 C   0  0  0  0  0  0  0  0  0  0  0  0
   57.0900   32.0170   45.1780 N   0  0  0  0  0  0  0  0  0  0  0  0
   57.9790   33.0280   45.6790 C   0  0  0  0  0  0  0  0  0  0  0  0
   58.3710   34.1240   44.8890 C   0  0  0  0  0  0  0  0  0  0  0  0
   59.2470   35.0830   45.4030 C   0  0  0  0  0  0  0  0  0  0  0  0
   59.7510   34.9500   46.6990 C   0  0  0  0  0  0  0  0  0  0  0  0
   59.3840   33.8510   47.4810 C   0  0  0  0  0  0  0  0  0  0  0  0
   58.5080   32.8880   46.9710 C   0  0  0  0  0  0  0  0  0  0  0  0
   58.1600   31.8250   47.7390 F   0  0  0  0  0  0  0  0  0  0  0  0
   57.4490   29.4940   45.0310 C   0  0  0  0  0  0  0  0  0  0  0  0
   58.6470   28.9340   45.5040 C   0  0  0  0  0  0  0  0  0  0  0  0
   58.6700   27.6780   46.0450 N   0  0  0  0  0  0  0  0  0  0  0  0
   59.9370   27.1190   46.5390 C   0  0  0  0  0  0  0  0  0  0  0  0
   60.2860   27.6860   47.9150 C   0  0  0  0  0  0  0  0  0  0  0  0
   61.0500   26.7770   48.6260 F   0  0  0  0  0  0  0  0  0  0  0  0
   59.1310   27.9620   48.6240 F   0  0  0  0  0  0  0  0  0  0  0  0
   61.0080   28.8550   47.7620 F   0  0  0  0  0  0  0  0  0  0  0  0
   57.5200   26.9490   46.1580 C   0  0  0  0  0  0  0  0  0  0  0  0
   56.3010   27.4710   45.7210 C   0  0  0  0  0  0  0  0  0  0  0  0
   55.1380   26.7200   45.8520 O   0  0  0  0  0  0  0  0  0  0  0  0
   56.2610   28.7510   45.1630 C   0  0  0  0  0  0  0  0  0  0  0  0
   55.1540   29.2360   44.8020 O   0  0  0  0  0  0  0  0  0  0  0  0
   57.9865   34.2261   43.8634 H   0  0  0  0  0  0  0  0  0  0  0  0
   59.5406   35.9449   44.7858 H   0  0  0  0  0  0  0  0  0  0  0  0
   60.4361   35.7094   47.1038 H   0  0  0  0  0  0  0  0  0  0  0  0
   59.7852   33.7436   48.4996 H   0  0  0  0  0  0  0  0  0  0  0  0
   59.5797   29.5135   45.4385 H   0  0  0  0  0  0  0  0  0  0  0  0
   59.8430   26.0256   46.6137 H   0  0  0  0  0  0  0  0  0  0  0  0
   60.7377   27.3895   45.8350 H   0  0  0  0  0  0  0  0  0  0  0  0
   57.5548   25.9412   46.5975 H   0  0  0  0  0  0  0  0  0  0  0  0
  1  2  2  0
  2  3  1  0
  3  4  1  0
  4  5  2  0
  5  6  1  0
  6  7  2  0
  7  8  1  0
  8  9  2  0
  9 10  1  0
  2 11  1  0
 11 12  2  0
 12 13  1  0
 13 14  1  0
 14 15  1  0
 15 16  1  0
 15 17  1  0
 15 18  1  0
 13 19  1  0
 19 20  2  0
 20 21  1  0
 20 22  1  0
 22 23  2  0
  9  4  1  0
 22 11  1  0
  5 24  1  0
  6 25  1  0
  7 26  1  0
  8 27  1  0
 12 28  1  0
 14 29  1  0
 14 30  1  0
 19 31  1  0
M  CHG  2   3  -1  21  -1
M  END
>  <UniqueID>  (38) 
37

>  <SMILES>  (38) 
O=C([N-]c1ccccc1F)c1cn(CC(F)(F)F)cc([O-])c1=O

>  <Energy>  (38) 
39.37345656305862

>  <Genealogy>  (38) 
O=C([N-]c1ccccc1F)c1cn(CC(F)(F)F)cc([O-])c1=O (protonated)
O=C([N-]c1ccccc1F)c1cn(CC(F)(F)F)cc([O-])c1=O (3D coordinates assigned)
O=C([N-]c1ccccc1F)c1cn(CC(F)(F)F)cc([O-])c1=O (optimized conformer: 39.37345656305862 kcal/mol)

>  <smiles>  (38) 
O=C(Nc1ccccc1F)c1cn(CC(F)(F)F)cc(O)c1=O

>  <score_type>  (38) 
oracle

>  <origin>  (38) 
adg

>  <m_score__min__energy>  (38) 
-11.640000000000001

>  <m_primary>  (38) 
energy

$$$$
38:0
     RDKit          3D

 57 59  0  0  0  0  0  0  0  0999 V2000
   60.3230   27.2390   46.1790 C   0  0  0  0  0  0  0  0  0  0  0  0
   59.1020   26.5950   46.5210 O   0  0  0  0  0  0  0  0  0  0  0  0
   57.8610   27.0790   46.1010 C   0  0  0  0  0  0  0  0  0  0  0  0
   57.6490   28.3150   45.6120 N   0  0  0  0  0  0  0  0  0  0  0  0
   56.3250   28.3110   45.3450 C   0  0  0  0  0  0  0  0  0  0  0  0
   55.7240   29.3310   44.8040 N   0  0  0  0  0  0  0  0  0  0  0  0
   56.4000   30.3750   44.0880 C   0  0  0  0  0  0  0  0  0  0  0  0
   56.3010   30.4130   42.8290 O   0  0  0  0  0  0  0  0  0  0  0  0
   57.2410   31.3750   44.7900 C   0  0  0  0  0  0  0  0  0  0  0  0
   58.2650   30.9660   45.6600 C   0  0  0  0  0  0  0  0  0  0  0  0
   59.1010   31.9090   46.2680 C   0  0  0  0  0  0  0  0  0  0  0  0
   58.8970   33.2790   46.0470 C   0  0  0  0  0  0  0  0  0  0  0  0
   60.0060   34.4740   46.7200 S   0  0  0  0  0  0  0  0  0  0  0  0
   59.6910   35.8260   46.1300 O   0  0  0  0  0  0  0  0  0  0  0  0
   61.4180   34.0900   46.3430 O   0  0  0  0  0  0  0  0  0  0  0  0
   59.8240   34.5820   48.4530 N   0  0  0  0  0  0  0  0  0  0  0  0
   59.6470   33.2490   49.0410 C   0  0  0  0  0  0  0  0  0  0  0  0
   61.0140   32.5780   49.3110 C   0  0  0  0  0  0  0  0  0  0  0  0
   62.2040   33.3150   48.8130 N   0  0  0  0  0  0  0  0  0  0  0  0
   63.1880   32.4320   48.1610 C   0  0  0  0  0  0  0  0  0  0  0  0
   62.8440   34.1500   49.8500 C   0  0  0  0  0  0  0  0  0  0  0  0
   57.8630   33.6930   45.1950 C   0  0  0  0  0  0  0  0  0  0  0  0
   57.0460   32.7500   44.5630 C   0  0  0  0  0  0  0  0  0  0  0  0
   55.7010   27.1450   45.6260 N   0  0  0  0  0  0  0  0  0  0  0  0
   56.6830   26.3690   46.1120 C   0  0  0  0  0  0  0  0  0  0  0  0
   56.4900   24.9410   46.5160 C   0  0  0  0  0  0  0  0  0  0  0  0
   56.4260   24.0420   45.3000 C   0  0  0  0  0  0  0  0  0  0  0  0
   57.5970   23.4190   44.8030 C   0  0  0  0  0  0  0  0  0  0  0  0
   59.1610   23.5940   45.5960 Cl  0  0  0  0  0  0  0  0  0  0  0  0
   57.5340   22.6250   43.6510 C   0  0  0  0  0  0  0  0  0  0  0  0
   56.3190   22.4260   42.9960 C   0  0  0  0  0  0  0  0  0  0  0  0
   55.1490   22.9790   43.5100 C   0  0  0  0  0  0  0  0  0  0  0  0
   55.1890   23.7810   44.6570 C   0  0  0  0  0  0  0  0  0  0  0  0
   53.6610   24.4320   45.2510 Cl  0  0  0  0  0  0  0  0  0  0  0  0
   60.8584   27.5214   47.0975 H   0  0  0  0  0  0  0  0  0  0  0  0
   60.9465   26.5524   45.5875 H   0  0  0  0  0  0  0  0  0  0  0  0
   60.1085   28.1413   45.5875 H   0  0  0  0  0  0  0  0  0  0  0  0
   58.4110   29.8952   45.8651 H   0  0  0  0  0  0  0  0  0  0  0  0
   59.9206   31.5750   46.9212 H   0  0  0  0  0  0  0  0  0  0  0  0
   59.0989   33.3440   49.9900 H   0  0  0  0  0  0  0  0  0  0  0  0
   59.0833   32.6246   48.3322 H   0  0  0  0  0  0  0  0  0  0  0  0
   61.1222   32.4576   50.3990 H   0  0  0  0  0  0  0  0  0  0  0  0
   60.9962   31.6283   48.7562 H   0  0  0  0  0  0  0  0  0  0  0  0
   61.8540   33.9750   48.0730 H   0  0  0  0  0  0  0  0  0  0  0  0
   63.7742   31.9060   48.9290 H   0  0  0  0  0  0  0  0  0  0  0  0
   62.6622   31.6971   47.5338 H   0  0  0  0  0  0  0  0  0  0  0  0
   63.8619   33.0340   47.5338 H   0  0  0  0  0  0  0  0  0  0  0  0
   62.5600   33.7794   50.8460 H   0  0  0  0  0  0  0  0  0  0  0  0
   63.9371   34.0998   49.7381 H   0  0  0  0  0  0  0  0  0  0  0  0
   62.5115   35.1925   49.7381 H   0  0  0  0  0  0  0  0  0  0  0  0
   57.6934   34.7661   45.0227 H   0  0  0  0  0  0  0  0  0  0  0  0
   56.2470   33.0849   43.8851 H   0  0  0  0  0  0  0  0  0  0  0  0
   57.3322   24.6290   47.1512 H   0  0  0  0  0  0  0  0  0  0  0  0
   55.5421   24.8558   47.0676 H   0  0  0  0  0  0  0  0  0  0  0  0
   58.4488   22.1553   43.2603 H   0  0  0  0  0  0  0  0  0  0  0  0
   56.2849   21.8310   42.0714 H   0  0  0  0  0  0  0  0  0  0  0  0
   54.1876   22.7846   43.0120 H   0  0  0  0  0  0  0  0  0  0  0  0
  1  2  1  0
  2  3  1  0
  3  4  1  0
  4  5  1  0
  5  6  2  3
  6  7  1  0
  7  8  2  0
  7  9  1  0
  9 10  2  0
 10 11  1  0
 11 12  2  0
 12 13  1  0
 13 14  2  0
 13 15  2  0
 13 16  1  0
 16 17  1  0
 17 18  1  0
 18 19  1  0
 19 20  1  0
 19 21  1  0
 12 22  1  0
 22 23  2  0
  5 24  1  0
 24 25  1  0
 25 26  1  0
 26 27  1  0
 27 28  2  0
 28 29  1  0
 28 30  1  0
 30 31  2  0
 31 32  1  0
 32 33  2  0
 33 34  1  0
 25  3  2  0
 33 27  1  0
 23  9  1  0
  1 35  1  0
  1 36  1  0
  1 37  1  0
 10 38  1  0
 11 39  1  0
 17 40  1  0
 17 41  1  0
 18 42  1  0
 18 43  1  0
 19 44  1  0
 20 45  1  0
 20 46  1  0
 20 47  1  0
 21 48  1  0
 21 49  1  0
 21 50  1  0
 22 51  1  0
 23 52  1  0
 26 53  1  0
 26 54  1  0
 30 55  1  0
 31 56  1  0
 32 57  1  0
M  CHG  4   4  -1  16  -1  19   1  24  -1
M  END
>  <UniqueID>  (39) 
38

>  <SMILES>  (39) 
COc1[n-]c(=NC(=O)c2ccc(S(=O)(=O)[N-]CC[NH+](C)C)cc2)[n-]c1Cc1c(Cl)cccc1Cl

>  <Energy>  (39) 
91.52615010838997

>  <Genealogy>  (39) 
COc1[n-]c(=NC(=O)c2ccc(S(=O)(=O)[N-]CC[NH+](C)C)cc2)[n-]c1Cc1c(Cl)cccc1Cl (protonated)
COc1[n-]c(=NC(=O)c2ccc(S(=O)(=O)[N-]CC[NH+](C)C)cc2)[n-]c1Cc1c(Cl)cccc1Cl (3D coordinates assigned)
COc1[n-]c(=NC(=O)c2ccc(S(=O)(=O)[N-]CC[NH+](C)C)cc2)[n-]c1Cc1c(Cl)cccc1Cl (optimized conformer: 91.52615010838997 kcal/mol)

>  <smiles>  (39) 
COc1[nH]c(=NC(=O)c2ccc(S(=O)(=O)NCCN(C)C)cc2)[nH]c1Cc1c(Cl)cccc1Cl

>  <score_type>  (39) 
oracle

>  <origin>  (39) 
adg

>  <m_score__min__energy>  (39) 
-11.43

>  <m_primary>  (39) 
energy

$$$$
39:0
     RDKit          3D

 49 51  0  0  0  0  0  0  0  0999 V2000
   66.0910   32.6700   50.1240 C   0  0  0  0  0  0  0  0  0  0  0  0
   65.2380   32.9950   49.0320 O   0  0  0  0  0  0  0  0  0  0  0  0
   63.8450   33.1300   49.1280 C   0  0  0  0  0  0  0  0  0  0  0  0
   62.9600   32.4700   48.2530 C   0  0  0  0  0  0  0  0  0  0  0  0
   61.5780   32.6360   48.3900 C   0  0  0  0  0  0  0  0  0  0  0  0
   61.0610   33.4640   49.3990 C   0  0  0  0  0  0  0  0  0  0  0  0
   59.5750   33.6290   49.5670 C   0  0  0  0  0  0  0  0  0  0  0  0
   58.9030   33.5150   48.2740 N   0  0  0  0  0  0  0  0  0  0  0  0
   59.1800   34.4030   47.1820 C   0  0  0  0  0  0  0  0  0  0  0  0
   59.9960   35.3540   47.3230 O   0  0  0  0  0  0  0  0  0  0  0  0
   58.4630   34.2350   45.8790 C   0  0  0  0  0  0  0  0  0  0  0  0
   58.3080   32.7810   45.5660 C   0  0  0  0  0  0  0  0  0  0  0  0
   59.2560   31.7930   45.8100 C   0  0  0  0  0  0  0  0  0  0  0  0
   58.8690   30.5310   45.3440 C   0  0  0  0  0  0  0  0  0  0  0  0
   57.6270   30.5410   44.7230 C   0  0  0  0  0  0  0  0  0  0  0  0
   56.8340   29.1480   44.0170 S   0  0  0  0  0  0  0  0  0  0  0  0
   55.9450   29.5960   42.8910 O   0  0  0  0  0  0  0  0  0  0  0  0
   57.8840   28.2080   43.4940 O   0  0  0  0  0  0  0  0  0  0  0  0
   55.8960   28.3550   45.2430 N   0  0  0  0  0  0  0  0  0  0  0  0
   56.2930   27.1680   45.9410 C   0  0  0  0  0  0  0  0  0  0  0  0
   55.4170   26.3020   46.2030 O   0  0  0  0  0  0  0  0  0  0  0  0
   57.6860   26.9300   46.3670 C   0  0  0  0  0  0  0  0  0  0  0  0
   58.3560   27.8570   47.1830 C   0  0  0  0  0  0  0  0  0  0  0  0
   59.6800   27.6300   47.5680 C   0  0  0  0  0  0  0  0  0  0  0  0
   60.3500   26.4840   47.1310 C   0  0  0  0  0  0  0  0  0  0  0  0
   59.7000   25.5680   46.3000 C   0  0  0  0  0  0  0  0  0  0  0  0
   60.3530   24.4620   45.8690 F   0  0  0  0  0  0  0  0  0  0  0  0
   58.3740   25.7930   45.9120 C   0  0  0  0  0  0  0  0  0  0  0  0
   57.0030   32.1020   44.7470 S   0  0  0  0  0  0  0  0  0  0  0  0
   61.9420   34.1160   50.2740 C   0  0  0  0  0  0  0  0  0  0  0  0
   63.3230   33.9500   50.1360 C   0  0  0  0  0  0  0  0  0  0  0  0
   65.5672   32.8696   51.0705 H   0  0  0  0  0  0  0  0  0  0  0  0
   66.3628   31.6053   50.0728 H   0  0  0  0  0  0  0  0  0  0  0  0
   67.0023   33.2839   50.0728 H   0  0  0  0  0  0  0  0  0  0  0  0
   63.3576   31.8213   47.4586 H   0  0  0  0  0  0  0  0  0  0  0  0
   60.8933   32.1156   47.7042 H   0  0  0  0  0  0  0  0  0  0  0  0
   59.1971   32.8475   50.2426 H   0  0  0  0  0  0  0  0  0  0  0  0
   59.3708   34.6236   49.9901 H   0  0  0  0  0  0  0  0  0  0  0  0
   58.1870   32.7660   48.1500 H   0  0  0  0  0  0  0  0  0  0  0  0
   57.4690   34.7012   45.9471 H   0  0  0  0  0  0  0  0  0  0  0  0
   59.0463   34.7167   45.0804 H   0  0  0  0  0  0  0  0  0  0  0  0
   60.2129   31.9839   46.3177 H   0  0  0  0  0  0  0  0  0  0  0  0
   59.4842   29.6263   45.4578 H   0  0  0  0  0  0  0  0  0  0  0  0
   57.8359   28.7657   47.5204 H   0  0  0  0  0  0  0  0  0  0  0  0
   60.1955   28.3542   48.2158 H   0  0  0  0  0  0  0  0  0  0  0  0
   61.3897   26.3031   47.4415 H   0  0  0  0  0  0  0  0  0  0  0  0
   57.8686   25.0764   45.2479 H   0  0  0  0  0  0  0  0  0  0  0  0
   61.5447   34.7605   51.0720 H   0  0  0  0  0  0  0  0  0  0  0  0
   64.0059   34.4681   50.8254 H   0  0  0  0  0  0  0  0  0  0  0  0
  1  2  1  0
  2  3  1  0
  3  4  2  0
  4  5  1  0
  5  6  2  0
  6  7  1  0
  7  8  1  0
  8  9  1  0
  9 10  2  0
  9 11  1  0
 11 12  1  0
 12 13  2  0
 13 14  1  0
 14 15  2  0
 15 16  1  0
 16 17  2  0
 16 18  2  0
 16 19  1  0
 19 20  1  0
 20 21  2  0
 20 22  1  0
 22 23  2  0
 23 24  1  0
 24 25  2  0
 25 26  1  0
 26 27  1  0
 26 28  2  0
 15 29  1  0
  6 30  1  0
 30 31  2  0
 31  3  1  0
 29 12  1  0
 28 22  1  0
  1 32  1  0
  1 33  1  0
  1 34  1  0
  4 35  1  0
  5 36  1  0
  7 37  1  0
  7 38  1  0
  8 39  1  0
 11 40  1  0
 11 41  1  0
 13 42  1  0
 14 43  1  0
 23 44  1  0
 24 45  1  0
 25 46  1  0
 28 47  1  0
 30 48  1  0
 31 49  1  0
M  CHG  1  19  -1
M  END
>  <UniqueID>  (40) 
39

>  <SMILES>  (40) 
COc1ccc(CNC(=O)Cc2ccc(S(=O)(=O)[N-]C(=O)c3cccc(F)c3)s2)cc1

>  <Energy>  (40) 
79.77402922973201

>  <Genealogy>  (40) 
COc1ccc(CNC(=O)Cc2ccc(S(=O)(=O)[N-]C(=O)c3cccc(F)c3)s2)cc1 (protonated)
COc1ccc(CNC(=O)Cc2ccc(S(=O)(=O)[N-]C(=O)c3cccc(F)c3)s2)cc1 (3D coordinates assigned)
COc1ccc(CNC(=O)Cc2ccc(S(=O)(=O)[N-]C(=O)c3cccc(F)c3)s2)cc1 (optimized conformer: 79.77402922973201 kcal/mol)

>  <smiles>  (40) 
COc1ccc(CNC(=O)Cc2ccc(S(=O)(=O)NC(=O)c3cccc(F)c3)s2)cc1

>  <score_type>  (40) 
oracle

>  <origin>  (40) 
adg

>  <m_score__min__energy>  (40) 
-11.279999999999999

>  <m_primary>  (40) 
energy

$$$$
40:0
     RDKit          3D

 41 43  0  0  0  0  0  0  0  0999 V2000
   57.5220   27.5750   47.0820 O   0  0  0  0  0  0  0  0  0  0  0  0
   56.9860   27.2130   45.9980 C   0  0  0  0  0  0  0  0  0  0  0  0
   56.9030   28.1200   44.8880 N   0  0  0  0  0  0  0  0  0  0  0  0
   57.2880   29.5040   44.9530 C   0  0  0  0  0  0  0  0  0  0  0  0
   58.3700   29.8790   45.7650 C   0  0  0  0  0  0  0  0  0  0  0  0
   58.7600   31.2190   45.8520 C   0  0  0  0  0  0  0  0  0  0  0  0
   58.0800   32.1980   45.1150 C   0  0  0  0  0  0  0  0  0  0  0  0
   58.5220   33.8970   45.2470 S   0  0  0  0  0  0  0  0  0  0  0  0
   59.5770   34.2620   44.2410 O   0  0  0  0  0  0  0  0  0  0  0  0
   57.3040   34.7380   44.9920 O   0  0  0  0  0  0  0  0  0  0  0  0
   59.1100   34.2200   46.8450 N   0  0  0  0  0  0  0  0  0  0  0  0
   60.4660   34.0440   47.2860 C   0  0  0  0  0  0  0  0  0  0  0  0
   61.5220   33.8480   46.3750 C   0  0  0  0  0  0  0  0  0  0  0  0
   62.8300   33.6830   46.8360 C   0  0  0  0  0  0  0  0  0  0  0  0
   63.0990   33.7180   48.2040 C   0  0  0  0  0  0  0  0  0  0  0  0
   62.0620   33.9140   49.1170 C   0  0  0  0  0  0  0  0  0  0  0  0
   60.7350   34.0700   48.6680 C   0  0  0  0  0  0  0  0  0  0  0  0
   59.6610   34.2450   49.5570 O   0  0  0  0  0  0  0  0  0  0  0  0
   59.4020   33.4270   50.6930 C   0  0  0  0  0  0  0  0  0  0  0  0
   58.4670   32.4580   50.3750 F   0  0  0  0  0  0  0  0  0  0  0  0
   58.9000   34.2120   51.7130 F   0  0  0  0  0  0  0  0  0  0  0  0
   57.0220   31.8240   44.2770 C   0  0  0  0  0  0  0  0  0  0  0  0
   56.6320   30.4850   44.1900 C   0  0  0  0  0  0  0  0  0  0  0  0
   56.4900   25.8340   45.8630 C   0  0  0  0  0  0  0  0  0  0  0  0
   57.2570   24.7250   45.5610 C   0  0  0  0  0  0  0  0  0  0  0  0
   56.3780   23.6630   45.5240 C   0  0  0  0  0  0  0  0  0  0  0  0
   55.1330   24.1880   45.8070 C   0  0  0  0  0  0  0  0  0  0  0  0
   55.2330   25.4820   46.0060 O   0  0  0  0  0  0  0  0  0  0  0  0
   56.6670   27.7250   43.9490 H   0  0  0  0  0  0  0  0  0  0  0  0
   58.9148   29.1134   46.3368 H   0  0  0  0  0  0  0  0  0  0  0  0
   59.6017   31.5051   46.4998 H   0  0  0  0  0  0  0  0  0  0  0  0
   61.3155   33.8247   45.2948 H   0  0  0  0  0  0  0  0  0  0  0  0
   63.6492   33.5252   46.1191 H   0  0  0  0  0  0  0  0  0  0  0  0
   64.1306   33.5909   48.5640 H   0  0  0  0  0  0  0  0  0  0  0  0
   62.2816   33.9470   50.1943 H   0  0  0  0  0  0  0  0  0  0  0  0
   60.3382   32.9438   51.0092 H   0  0  0  0  0  0  0  0  0  0  0  0
   56.4959   32.5874   43.6849 H   0  0  0  0  0  0  0  0  0  0  0  0
   55.8075   30.1974   43.5210 H   0  0  0  0  0  0  0  0  0  0  0  0
   58.3427   24.6954   45.3864 H   0  0  0  0  0  0  0  0  0  0  0  0
   56.6198   22.6111   45.3120 H   0  0  0  0  0  0  0  0  0  0  0  0
   54.1986   23.6098   45.8581 H   0  0  0  0  0  0  0  0  0  0  0  0
  1  2  2  0
  2  3  1  0
  3  4  1  0
  4  5  2  0
  5  6  1  0
  6  7  2  0
  7  8  1  0
  8  9  2  0
  8 10  2  0
  8 11  1  0
 11 12  1  0
 12 13  2  0
 13 14  1  0
 14 15  2  0
 15 16  1  0
 16 17  2  0
 17 18  1  0
 18 19  1  0
 19 20  1  0
 19 21  1  0
  7 22  1  0
 22 23  2  0
  2 24  1  0
 24 25  2  0
 25 26  1  0
 26 27  2  0
 27 28  1  0
 23  4  1  0
 28 24  1  0
 17 12  1  0
  3 29  1  0
  5 30  1  0
  6 31  1  0
 13 32  1  0
 14 33  1  0
 15 34  1  0
 16 35  1  0
 19 36  1  0
 22 37  1  0
 23 38  1  0
 25 39  1  0
 26 40  1  0
 27 41  1  0
M  CHG  1  11  -1
M  END
>  <UniqueID>  (41) 
40

>  <SMILES>  (41) 
O=C(Nc1ccc(S(=O)(=O)[N-]c2ccccc2OC(F)F)cc1)c1ccco1

>  <Energy>  (41) 
75.35167022097227

>  <Genealogy>  (41) 
O=C(Nc1ccc(S(=O)(=O)[N-]c2ccccc2OC(F)F)cc1)c1ccco1 (protonated)
O=C(Nc1ccc(S(=O)(=O)[N-]c2ccccc2OC(F)F)cc1)c1ccco1 (3D coordinates assigned)
O=C(Nc1ccc(S(=O)(=O)[N-]c2ccccc2OC(F)F)cc1)c1ccco1 (optimized conformer: 75.35167022097227 kcal/mol)

>  <smiles>  (41) 
O=C(Nc1ccc(S(=O)(=O)Nc2ccccc2OC(F)F)cc1)c1ccco1

>  <score_type>  (41) 
oracle

>  <origin>  (41) 
adg

>  <m_score__min__energy>  (41) 
-9.1799999999999997

>  <m_primary>  (41) 
energy

$$$$
41:0
     RDKit          3D

 47 49  0  0  0  0  0  0  0  0999 V2000
   55.1390   29.3200   44.5740 N   0  0  0  0  0  0  0  0  0  0  0  0
   56.8640   29.2770   44.6790 S   0  0  0  0  0  0  0  0  0  0  0  0
   57.4100   28.3700   43.6120 O   0  0  0  0  0  0  0  0  0  0  0  0
   57.2730   28.7420   46.0230 O   0  0  0  0  0  0  0  0  0  0  0  0
   57.5020   30.9030   44.4630 C   0  0  0  0  0  0  0  0  0  0  0  0
   57.6660   31.4270   43.1730 C   0  0  0  0  0  0  0  0  0  0  0  0
   58.1810   32.7140   43.0010 C   0  0  0  0  0  0  0  0  0  0  0  0
   58.5220   33.4890   44.1120 C   0  0  0  0  0  0  0  0  0  0  0  0
   58.3340   32.9900   45.4090 C   0  0  0  0  0  0  0  0  0  0  0  0
   58.7100   33.7990   46.5350 N   0  0  0  0  0  0  0  0  0  0  0  0
   59.7490   33.4490   47.4650 C   0  0  0  0  0  0  0  0  0  0  0  0
   60.3200   32.3270   47.3920 O   0  0  0  0  0  0  0  0  0  0  0  0
   60.1440   34.4110   48.5590 C   0  0  0  0  0  0  0  0  0  0  0  0
   61.4890   34.1550   49.1180 N   0  0  0  0  0  0  0  0  0  0  0  0
   61.4910   33.1650   50.2070 C   0  0  0  0  0  0  0  0  0  0  0  0
   62.8120   33.2730   50.9690 C   0  0  0  0  0  0  0  0  0  0  0  0
   63.9470   33.3790   50.0440 N   0  0  0  0  0  0  0  0  0  0  0  0
   65.2820   33.4090   50.5800 C   0  0  0  0  0  0  0  0  0  0  0  0
   66.2520   32.5070   50.1100 C   0  0  0  0  0  0  0  0  0  0  0  0
   67.5480   32.5280   50.6340 C   0  0  0  0  0  0  0  0  0  0  0  0
   67.8870   33.4520   51.6250 C   0  0  0  0  0  0  0  0  0  0  0  0
   66.9320   34.3590   52.0910 C   0  0  0  0  0  0  0  0  0  0  0  0
   65.6330   34.3420   51.5730 C   0  0  0  0  0  0  0  0  0  0  0  0
   64.7330   35.2560   52.0130 F   0  0  0  0  0  0  0  0  0  0  0  0
   63.7460   33.1340   48.6100 C   0  0  0  0  0  0  0  0  0  0  0  0
   62.5090   33.8860   48.0770 C   0  0  0  0  0  0  0  0  0  0  0  0
   57.8360   31.6850   45.5780 C   0  0  0  0  0  0  0  0  0  0  0  0
   54.7760   29.3530   45.5520 H   0  0  0  0  0  0  0  0  0  0  0  0
   57.3889   30.8242   42.2956 H   0  0  0  0  0  0  0  0  0  0  0  0
   58.3185   33.1185   41.9874 H   0  0  0  0  0  0  0  0  0  0  0  0
   58.9403   34.4962   43.9687 H   0  0  0  0  0  0  0  0  0  0  0  0
   58.1280   34.6420   46.7420 H   0  0  0  0  0  0  0  0  0  0  0  0
   60.1272   35.4310   48.1474 H   0  0  0  0  0  0  0  0  0  0  0  0
   59.4238   34.2780   49.3798 H   0  0  0  0  0  0  0  0  0  0  0  0
   60.6526   33.3655   50.8903 H   0  0  0  0  0  0  0  0  0  0  0  0
   61.3810   32.1524   49.7916 H   0  0  0  0  0  0  0  0  0  0  0  0
   62.7855   34.1669   51.6095 H   0  0  0  0  0  0  0  0  0  0  0  0
   62.9401   32.3657   51.5777 H   0  0  0  0  0  0  0  0  0  0  0  0
   65.9902   31.7810   49.3261 H   0  0  0  0  0  0  0  0  0  0  0  0
   68.3013   31.8162   50.2655 H   0  0  0  0  0  0  0  0  0  0  0  0
   68.9062   33.4656   52.0387 H   0  0  0  0  0  0  0  0  0  0  0  0
   67.2027   35.0890   52.8680 H   0  0  0  0  0  0  0  0  0  0  0  0
   64.6360   33.4750   48.0607 H   0  0  0  0  0  0  0  0  0  0  0  0
   63.5849   32.0558   48.4629 H   0  0  0  0  0  0  0  0  0  0  0  0
   62.8398   34.8472   47.6566 H   0  0  0  0  0  0  0  0  0  0  0  0
   62.0382   33.2409   47.3206 H   0  0  0  0  0  0  0  0  0  0  0  0
   57.7079   31.2757   46.5909 H   0  0  0  0  0  0  0  0  0  0  0  0
  1  2  1  0
  2  3  2  0
  2  4  2  0
  2  5  1  0
  5  6  2  0
  6  7  1  0
  7  8  2  0
  8  9  1  0
  9 10  1  0
 10 11  1  0
 11 12  2  0
 11 13  1  0
 13 14  1  0
 14 15  1  0
 15 16  1  0
 16 17  1  0
 17 18  1  0
 18 19  2  0
 19 20  1  0
 20 21  2  0
 21 22  1  0
 22 23  2  0
 23 24  1  0
 17 25  1  0
 25 26  1  0
  9 27  2  0
 27  5  1  0
 26 14  1  0
 23 18  1  0
  1 28  1  0
  6 29  1  0
  7 30  1  0
  8 31  1  0
 10 32  1  0
 13 33  1  0
 13 34  1  0
 15 35  1  0
 15 36  1  0
 16 37  1  0
 16 38  1  0
 19 39  1  0
 20 40  1  0
 21 41  1  0
 22 42  1  0
 25 43  1  0
 25 44  1  0
 26 45  1  0
 26 46  1  0
 27 47  1  0
M  CHG  1   1  -1
M  END
>  <UniqueID>  (42) 
41

>  <SMILES>  (42) 
[NH-]S(=O)(=O)c1cccc(NC(=O)CN2CCN(c3ccccc3F)CC2)c1

>  <Energy>  (42) 
63.787476768974635

>  <Genealogy>  (42) 
[NH-]S(=O)(=O)c1cccc(NC(=O)CN2CCN(c3ccccc3F)CC2)c1 (protonated)
[NH-]S(=O)(=O)c1cccc(NC(=O)CN2CCN(c3ccccc3F)CC2)c1 (3D coordinates assigned)
[NH-]S(=O)(=O)c1cccc(NC(=O)CN2CCN(c3ccccc3F)CC2)c1 (nonaromatic ring conformer: 63.787476768974635 kcal/mol)

>  <smiles>  (42) 
NS(=O)(=O)c1cccc(NC(=O)CN2CCN(c3ccccc3F)CC2)c1

>  <score_type>  (42) 
oracle

>  <origin>  (42) 
adg

>  <m_score__min__energy>  (42) 
-11.279999999999999

>  <m_primary>  (42) 
energy

$$$$
42:0
     RDKit          3D

 40 42  0  0  0  0  0  0  0  0999 V2000
   55.0400   24.7650   45.6120 C   0  0  0  0  0  0  0  0  0  0  0  0
   56.2250   25.6220   45.9150 C   0  0  0  0  0  0  0  0  0  0  0  0
   56.2040   26.9330   45.8460 O   0  0  0  0  0  0  0  0  0  0  0  0
   57.3900   27.3960   46.1720 C   0  0  0  0  0  0  0  0  0  0  0  0
   57.7270   28.8360   46.1650 C   0  0  0  0  0  0  0  0  0  0  0  0
   58.5810   29.3230   47.1620 C   0  0  0  0  0  0  0  0  0  0  0  0
   58.9040   30.6410   47.2170 N   0  0  0  0  0  0  0  0  0  0  0  0
   58.4210   31.5170   46.2930 C   0  0  0  0  0  0  0  0  0  0  0  0
   58.7470   32.9180   46.3610 N   0  0  0  0  0  0  0  0  0  0  0  0
   58.3300   33.8360   45.2920 C   0  0  0  0  0  0  0  0  0  0  0  0
   59.2930   35.0430   45.1720 C   0  0  0  0  0  0  0  0  0  0  0  0
   60.2570   35.1120   46.2090 O   0  0  0  0  0  0  0  0  0  0  0  0
   59.6330   34.9360   47.4620 C   0  0  0  0  0  0  0  0  0  0  0  0
   59.2420   33.4670   47.6300 C   0  0  0  0  0  0  0  0  0  0  0  0
   57.6010   31.0650   45.3070 N   0  0  0  0  0  0  0  0  0  0  0  0
   57.2520   29.7560   45.2000 C   0  0  0  0  0  0  0  0  0  0  0  0
   56.3860   29.3600   44.0390 C   0  0  0  0  0  0  0  0  0  0  0  0
   55.0930   29.0750   44.4960 O   0  0  0  0  0  0  0  0  0  0  0  0
   58.2420   26.3420   46.4570 C   0  0  0  0  0  0  0  0  0  0  0  0
   57.4880   25.1970   46.2970 C   0  0  0  0  0  0  0  0  0  0  0  0
   57.9670   23.8160   46.4830 C   0  0  0  0  0  0  0  0  0  0  0  0
   58.9410   23.3910   45.8070 O   0  0  0  0  0  0  0  0  0  0  0  0
   57.3550   22.9700   47.4000 O   0  0  0  0  0  0  0  0  0  0  0  0
   54.5786   24.4313   46.5531 H   0  0  0  0  0  0  0  0  0  0  0  0
   54.3080   25.3440   45.0298 H   0  0  0  0  0  0  0  0  0  0  0  0
   55.3606   23.8885   45.0298 H   0  0  0  0  0  0  0  0  0  0  0  0
   58.9951   28.6301   47.9093 H   0  0  0  0  0  0  0  0  0  0  0  0
   59.4970   30.9730   48.0080 H   0  0  0  0  0  0  0  0  0  0  0  0
   58.3196   33.2908   44.3367 H   0  0  0  0  0  0  0  0  0  0  0  0
   57.3276   34.2174   45.5364 H   0  0  0  0  0  0  0  0  0  0  0  0
   59.8226   34.9697   44.2107 H   0  0  0  0  0  0  0  0  0  0  0  0
   58.6778   35.9519   45.2460 H   0  0  0  0  0  0  0  0  0  0  0  0
   60.3293   35.2248   48.2631 H   0  0  0  0  0  0  0  0  0  0  0  0
   58.7327   35.5656   47.5170 H   0  0  0  0  0  0  0  0  0  0  0  0
   60.1226   32.8928   47.9538 H   0  0  0  0  0  0  0  0  0  0  0  0
   58.4442   33.3952   48.3839 H   0  0  0  0  0  0  0  0  0  0  0  0
   56.3447   30.1862   43.3139 H   0  0  0  0  0  0  0  0  0  0  0  0
   56.8084   28.4673   43.5545 H   0  0  0  0  0  0  0  0  0  0  0  0
   55.1330   28.1610   44.8800 H   0  0  0  0  0  0  0  0  0  0  0  0
   59.3004   26.4044   46.7502 H   0  0  0  0  0  0  0  0  0  0  0  0
  1  2  1  0
  2  3  1  0
  3  4  1  0
  4  5  1  0
  5  6  2  0
  6  7  1  0
  7  8  2  0
  8  9  1  0
  9 10  1  0
 10 11  1  0
 11 12  1  0
 12 13  1  0
 13 14  1  0
  8 15  1  0
 15 16  2  0
 16 17  1  0
 17 18  1  0
  4 19  2  0
 19 20  1  0
 20 21  1  0
 21 22  2  0
 21 23  1  0
 20  2  2  0
 16  5  1  0
 14  9  1  0
  1 24  1  0
  1 25  1  0
  1 26  1  0
  6 27  1  0
  7 28  1  0
 10 29  1  0
 10 30  1  0
 11 31  1  0
 11 32  1  0
 13 33  1  0
 13 34  1  0
 14 35  1  0
 14 36  1  0
 17 37  1  0
 17 38  1  0
 18 39  1  0
 19 40  1  0
M  CHG  2   7   1  23  -1
M  END
>  <UniqueID>  (43) 
42

>  <SMILES>  (43) 
Cc1oc(-c2c[nH+]c(N3CCOCC3)nc2CO)cc1C(=O)[O-]

>  <Energy>  (43) 
81.04266700199264

>  <Genealogy>  (43) 
Cc1oc(-c2c[nH+]c(N3CCOCC3)nc2CO)cc1C(=O)[O-] (protonated)
Cc1oc(-c2c[nH+]c(N3CCOCC3)nc2CO)cc1C(=O)[O-] (3D coordinates assigned)
Cc1oc(-c2c[nH+]c(N3CCOCC3)nc2CO)cc1C(=O)[O-] (nonaromatic ring conformer: 81.04266700199264 kcal/mol)

>  <smiles>  (43) 
Cc1oc(-c2cnc(N3CCOCC3)nc2CO)cc1C(=O)O

>  <score_type>  (43) 
oracle

>  <origin>  (43) 
adg

>  <m_score__min__energy>  (43) 
-8.1699999999999999

>  <m_primary>  (43) 
energy

$$$$
43:0
     RDKit          3D

 48 50  0  0  0  0  0  0  0  0999 V2000
   58.0770   21.2780   43.4090 C   0  0  0  0  0  0  0  0  0  0  0  0
   57.7600   22.6380   43.9540 C   0  0  0  0  0  0  0  0  0  0  0  0
   58.6020   23.2190   44.9130 C   0  0  0  0  0  0  0  0  0  0  0  0
   58.2880   24.4640   45.4660 C   0  0  0  0  0  0  0  0  0  0  0  0
   57.1210   25.1350   45.0750 C   0  0  0  0  0  0  0  0  0  0  0  0
   56.6550   26.6500   45.8460 S   0  0  0  0  0  0  0  0  0  0  0  0
   57.3390   26.7330   47.1820 O   0  0  0  0  0  0  0  0  0  0  0  0
   55.1680   26.7040   46.0560 O   0  0  0  0  0  0  0  0  0  0  0  0
   57.1430   28.0060   44.8740 N   0  0  0  0  0  0  0  0  0  0  0  0
   56.3710   29.1970   44.6770 C   0  0  0  0  0  0  0  0  0  0  0  0
   55.1440   29.1800   44.9570 O   0  0  0  0  0  0  0  0  0  0  0  0
   56.9760   30.4480   44.1900 C   0  0  0  0  0  0  0  0  0  0  0  0
   57.0590   30.7130   42.8160 C   0  0  0  0  0  0  0  0  0  0  0  0
   57.7000   31.8680   42.3630 C   0  0  0  0  0  0  0  0  0  0  0  0
   58.2570   32.7680   43.2760 C   0  0  0  0  0  0  0  0  0  0  0  0
   58.1510   32.5330   44.6570 C   0  0  0  0  0  0  0  0  0  0  0  0
   58.7750   33.4580   45.6290 C   0  0  0  0  0  0  0  0  0  0  0  0
   58.7610   34.6980   45.3950 O   0  0  0  0  0  0  0  0  0  0  0  0
   59.3990   32.9730   46.8310 N   0  0  0  0  0  0  0  0  0  0  0  0
   60.3350   31.8400   46.7600 C   0  0  0  0  0  0  0  0  0  0  0  0
   61.2150   31.7550   48.0150 C   0  0  0  0  0  0  0  0  0  0  0  0
   61.7610   33.1420   48.3800 C   0  0  0  0  0  0  0  0  0  0  0  0
   60.6470   34.1980   48.5730 C   0  0  0  0  0  0  0  0  0  0  0  0
   59.2690   33.7310   48.0820 C   0  0  0  0  0  0  0  0  0  0  0  0
   57.5040   31.3700   45.1070 C   0  0  0  0  0  0  0  0  0  0  0  0
   56.2840   24.5620   44.1090 C   0  0  0  0  0  0  0  0  0  0  0  0
   56.5960   23.3150   43.5570 C   0  0  0  0  0  0  0  0  0  0  0  0
   58.2401   20.5781   44.2418 H   0  0  0  0  0  0  0  0  0  0  0  0
   57.2370   20.9251   42.7926 H   0  0  0  0  0  0  0  0  0  0  0  0
   58.9864   21.3328   42.7926 H   0  0  0  0  0  0  0  0  0  0  0  0
   59.5139   22.6927   45.2317 H   0  0  0  0  0  0  0  0  0  0  0  0
   58.9587   24.9184   46.2101 H   0  0  0  0  0  0  0  0  0  0  0  0
   56.6185   30.0101   42.0936 H   0  0  0  0  0  0  0  0  0  0  0  0
   57.7668   32.0703   41.2838 H   0  0  0  0  0  0  0  0  0  0  0  0
   58.7806   33.6641   42.9116 H   0  0  0  0  0  0  0  0  0  0  0  0
   59.7599   30.9073   46.6633 H   0  0  0  0  0  0  0  0  0  0  0  0
   60.9906   31.9891   45.8894 H   0  0  0  0  0  0  0  0  0  0  0  0
   60.6154   31.3695   48.8528 H   0  0  0  0  0  0  0  0  0  0  0  0
   62.0601   31.0804   47.8134 H   0  0  0  0  0  0  0  0  0  0  0  0
   62.3314   33.0589   49.3169 H   0  0  0  0  0  0  0  0  0  0  0  0
   62.3919   33.4780   47.5439 H   0  0  0  0  0  0  0  0  0  0  0  0
   60.5731   34.4343   49.6448 H   0  0  0  0  0  0  0  0  0  0  0  0
   60.9249   35.0755   47.9707 H   0  0  0  0  0  0  0  0  0  0  0  0
   58.8100   33.0890   48.8483 H   0  0  0  0  0  0  0  0  0  0  0  0
   58.6383   34.6135   47.8995 H   0  0  0  0  0  0  0  0  0  0  0  0
   57.4105   31.1805   46.1865 H   0  0  0  0  0  0  0  0  0  0  0  0
   55.3782   25.0944   43.7833 H   0  0  0  0  0  0  0  0  0  0  0  0
   55.9271   22.8635   42.8095 H   0  0  0  0  0  0  0  0  0  0  0  0
  1  2  1  0
  2  3  2  0
  3  4  1  0
  4  5  2  0
  5  6  1  0
  6  7  2  0
  6  8  2  0
  6  9  1  0
  9 10  1  0
 10 11  2  0
 10 12  1  0
 12 13  2  0
 13 14  1  0
 14 15  2  0
 15 16  1  0
 16 17  1  0
 17 18  2  0
 17 19  1  0
 19 20  1  0
 20 21  1  0
 21 22  1  0
 22 23  1  0
 23 24  1  0
 16 25  2  0
  5 26  1  0
 26 27  2  0
 27  2  1  0
 25 12  1  0
 24 19  1  0
  1 28  1  0
  1 29  1  0
  1 30  1  0
  3 31  1  0
  4 32  1  0
 13 33  1  0
 14 34  1  0
 15 35  1  0
 20 36  1  0
 20 37  1  0
 21 38  1  0
 21 39  1  0
 22 40  1  0
 22 41  1  0
 23 42  1  0
 23 43  1  0
 24 44  1  0
 24 45  1  0
 25 46  1  0
 26 47  1  0
 27 48  1  0
M  CHG  1   9  -1
M  END
>  <UniqueID>  (44) 
43

>  <SMILES>  (44) 
Cc1ccc(S(=O)(=O)[N-]C(=O)c2cccc(C(=O)N3CCCCC3)c2)cc1

>  <Energy>  (44) 
58.467421793109374

>  <Genealogy>  (44) 
Cc1ccc(S(=O)(=O)[N-]C(=O)c2cccc(C(=O)N3CCCCC3)c2)cc1 (protonated)
Cc1ccc(S(=O)(=O)[N-]C(=O)c2cccc(C(=O)N3CCCCC3)c2)cc1 (3D coordinates assigned)
Cc1ccc(S(=O)(=O)[N-]C(=O)c2cccc(C(=O)N3CCCCC3)c2)cc1 (nonaromatic ring conformer: 58.467421793109374 kcal/mol)

>  <smiles>  (44) 
Cc1ccc(S(=O)(=O)NC(=O)c2cccc(C(=O)N3CCCCC3)c2)cc1

>  <score_type>  (44) 
oracle

>  <origin>  (44) 
adg

>  <m_score__min__energy>  (44) 
-11.44

>  <m_primary>  (44) 
energy

$$$$
44:0
     RDKit          3D

 55 58  0  0  1  0  0  0  0  0999 V2000
   63.3380   31.8570   47.3650 N   0  0  0  0  0  0  0  0  0  0  0  0
   62.8820   33.4910   47.2310 S   0  0  0  0  0  0  0  0  0  0  0  0
   63.5160   34.1650   46.0410 O   0  0  0  0  0  0  0  0  0  0  0  0
   63.4280   34.2260   48.4440 O   0  0  0  0  0  0  0  0  0  0  0  0
   61.1490   33.6880   47.2050 C   0  0  0  0  0  0  0  0  0  0  0  0
   60.5680   34.7870   46.5550 C   0  0  0  0  0  0  0  0  0  0  0  0
   59.1740   34.9280   46.5220 C   0  0  0  0  0  0  0  0  0  0  0  0
   58.3460   34.0050   47.1190 C   0  0  0  0  0  0  0  0  0  0  0  0
   58.9230   32.9240   47.7580 C   0  0  0  0  0  0  0  0  0  0  0  0
   60.3180   32.7600   47.8040 C   0  0  0  0  0  0  0  0  0  0  0  0
   59.7980   28.6960   45.1650 N   0  0  0  0  0  0  0  0  0  0  0  0
   60.1010   28.9370   46.3850 C   0  0  0  0  0  0  0  0  0  0  0  0
   60.2900   30.2070   46.7740 N   0  0  0  0  0  0  0  0  0  0  0  0
   60.5970   30.4180   48.0690 C   0  0  0  0  0  0  0  0  0  0  0  0
   60.7800   31.6020   48.4570 N   0  0  0  0  0  0  0  0  0  0  0  0
   58.7200   29.2600   44.4420 C   0  0  0  0  0  0  0  0  0  0  0  0
   58.5770   30.6280   44.3610 C   0  0  0  0  0  0  0  0  0  0  0  0
   57.5390   31.2150   43.6890 C   0  0  0  0  0  0  0  0  0  0  0  0
   56.6200   30.3880   43.0790 C   0  0  0  0  0  0  0  0  0  0  0  0
   56.7690   29.0220   43.1630 C   0  0  0  0  0  0  0  0  0  0  0  0
   57.7980   28.3990   43.8280 C   0  0  0  0  0  0  0  0  0  0  0  0
   57.9820   27.0130   43.9280 N   0  0  0  0  0  0  0  0  0  0  0  0
   57.4240   26.0210   45.2140 S   0  0  0  0  0  0  0  0  0  0  0  0
   56.1700   26.7010   45.7480 O   0  0  0  0  0  0  0  0  0  0  0  0
   58.4470   25.9490   46.3270 O   0  0  0  0  0  0  0  0  0  0  0  0
   57.0320   24.4100   44.7210 C   0  0  0  0  0  0  0  0  0  0  0  0
   58.0680   23.4970   44.5210 C   0  0  0  0  0  0  0  0  0  0  0  0
   57.7900   22.1930   44.1360 C   0  0  0  0  0  0  0  0  0  0  0  0
   56.5060   21.7320   43.9320 C   0  0  0  0  0  0  0  0  0  0  0  0
   56.2620   20.4270   43.5460 O   0  0  0  0  0  0  0  0  0  0  0  0
   55.4680   22.6470   44.1320 C   0  0  0  0  0  0  0  0  0  0  0  0
   55.7570   23.9380   44.5150 C   0  0  0  0  0  0  0  0  0  0  0  0
   60.1990   27.8770   47.2140 N   0  0  0  0  0  0  0  0  0  0  0  0
   60.5040   28.0650   48.5090 C   0  0  0  0  0  0  0  0  0  0  0  0
   60.7080   29.3630   48.9470 C   0  0  0  0  0  0  0  0  0  0  0  0
   61.1190   29.5730   50.6280 Cl  0  0  0  0  0  0  0  0  0  0  0  0
   62.5720   31.2000   47.2880 H   0  0  0  0  0  0  0  0  0  0  0  0
   64.2700   31.5990   47.0470 H   0  0  0  0  0  0  0  0  0  0  0  0
   61.2076   35.5394   46.0704 H   0  0  0  0  0  0  0  0  0  0  0  0
   58.7325   35.7946   46.0081 H   0  0  0  0  0  0  0  0  0  0  0  0
   57.2530   34.1246   47.0883 H   0  0  0  0  0  0  0  0  0  0  0  0
   58.2768   32.1762   48.2408 H   0  0  0  0  0  0  0  0  0  0  0  0
   60.1940   30.9690   46.0700 H   0  0  0  0  0  0  0  0  0  0  0  0
   59.3223   31.2702   44.8531 H   0  0  0  0  0  0  0  0  0  0  0  0
   57.4414   32.3094   43.6374 H   0  0  0  0  0  0  0  0  0  0  0  0
   55.7710   30.8179   42.5273 H   0  0  0  0  0  0  0  0  0  0  0  0
   56.0178   28.3898   42.6670 H   0  0  0  0  0  0  0  0  0  0  0  0
   58.5080   26.5320   43.1580 H   0  0  0  0  0  0  0  0  0  0  0  0
   59.1112   23.8127   44.6694 H   0  0  0  0  0  0  0  0  0  0  0  0
   58.6292   21.4975   43.9872 H   0  0  0  0  0  0  0  0  0  0  0  0
   57.0270   19.7640   43.7090 H   0  0  0  0  0  0  0  0  0  0  0  0
   54.4232   22.3366   43.9838 H   0  0  0  0  0  0  0  0  0  0  0  0
   54.9177   24.6331   44.6651 H   0  0  0  0  0  0  0  0  0  0  0  0
   60.0400   26.8890   46.8600 H   0  0  0  0  0  0  0  0  0  0  0  0
   60.5891   27.2137   49.2004 H   0  0  0  0  0  0  0  0  0  0  0  0
  1  2  1  0
  2  3  2  0
  2  4  2  0
  2  5  1  0
  5  6  2  0
  6  7  1  0
  7  8  2  0
  8  9  1  0
  9 10  2  0
 10 11  1  0
 11 12  2  0
 12 13  1  0
 13 14  1  0
 14 15  2  0
 15 16  1  0
 16 17  2  0
 17 18  1  0
 18 19  2  0
 19 20  1  0
 20 21  2  0
 21 22  1  0
 22 23  1  0
 23 24  2  0
 23 25  2  0
 23 26  1  0
 26 27  2  0
 27 28  1  0
 28 29  2  0
 29 30  1  0
 29 31  1  0
 31 32  2  0
 14 33  1  0
 33 34  1  0
 34 35  2  0
 35 36  1  0
 10  5  1  0
 35 12  1  0
 21 16  1  0
 32 26  1  0
  1 37  1  0
  1 38  1  0
  6 39  1  0
  7 40  1  0
  8 41  1  0
  9 42  1  0
 13 43  1  0
 17 44  1  0
 18 45  1  0
 19 46  1  0
 20 47  1  0
 22 48  1  0
 27 49  1  0
 28 50  1  0
 30 51  1  0
 31 52  1  0
 32 53  1  0
 33 54  1  0
 34 55  1  0
M  END
>  <smiles>  (45) 
NS(=O)(=O)c1ccccc1N=c1[nH]c(=Nc2ccccc2NS(=O)(=O)c2ccc(O)cc2)[nH]cc1Cl

>  <score_type>  (45) 
oracle

>  <origin>  (45) 
adg

>  <m_score__min__energy>  (45) 
-10.51

>  <m_primary>  (45) 
energy

$$$$
45:0
     RDKit          3D

 44 46  0  0  0  0  0  0  0  0999 V2000
   58.5890   28.6260   49.3720 H   0  0  0  0  0  0  0  0  0  0  0  0
   59.4970   28.3210   49.1080 O   0  0  0  0  0  0  0  0  0  0  0  0
   59.6290   28.5790   47.7330 C   0  0  1  0  0  0  0  0  0  0  0  0
   60.4336   27.9414   47.3378 H   0  0  0  0  0  0  0  0  0  0  0  0
   58.3700   28.2270   46.9760 C   0  0  0  0  0  0  0  0  0  0  0  0
   57.7980   29.1320   46.1340 N   0  0  0  0  0  0  0  0  0  0  0  0
   56.6590   28.8420   45.4460 C   0  0  0  0  0  0  0  0  0  0  0  0
   56.1040   29.7180   44.6600 N   0  0  0  0  0  0  0  0  0  0  0  0
   56.7800   30.6930   43.8470 C   0  0  0  0  0  0  0  0  0  0  0  0
   56.6430   30.7000   42.4460 C   0  0  0  0  0  0  0  0  0  0  0  0
   56.0277   29.9330   41.9530 H   0  0  0  0  0  0  0  0  0  0  0  0
   57.2830   31.6740   41.6790 C   0  0  0  0  0  0  0  0  0  0  0  0
   57.1833   31.6641   40.5836 H   0  0  0  0  0  0  0  0  0  0  0  0
   58.0490   32.6600   42.3000 C   0  0  0  0  0  0  0  0  0  0  0  0
   58.5614   33.4206   41.6926 H   0  0  0  0  0  0  0  0  0  0  0  0
   58.1670   32.6840   43.6910 C   0  0  0  0  0  0  0  0  0  0  0  0
   58.7665   33.4687   44.1756 H   0  0  0  0  0  0  0  0  0  0  0  0
   57.5220   31.7080   44.4780 C   0  0  0  0  0  0  0  0  0  0  0  0
   57.6050   31.6960   45.8820 O   0  0  0  0  0  0  0  0  0  0  0  0
   57.7610   32.8430   46.7180 C   0  0  0  0  0  0  0  0  0  0  0  0
   57.4625   32.5843   47.7446 H   0  0  0  0  0  0  0  0  0  0  0  0
   57.1271   33.6528   46.3276 H   0  0  0  0  0  0  0  0  0  0  0  0
   59.2100   33.3160   46.7230 C   0  0  0  0  0  0  0  0  0  0  0  0
   59.5553   33.4287   47.7613 H   0  0  0  0  0  0  0  0  0  0  0  0
   59.8389   32.5765   46.2057 H   0  0  0  0  0  0  0  0  0  0  0  0
   59.2815   34.2841   46.2057 H   0  0  0  0  0  0  0  0  0  0  0  0
   56.0620   27.6340   45.6170 N   0  0  0  0  0  0  0  0  0  0  0  0
   56.5890   26.7010   46.4500 C   0  0  0  0  0  0  0  0  0  0  0  0
   56.0170   25.5880   46.5890 O   0  0  0  0  0  0  0  0  0  0  0  0
   57.7610   26.9790   47.1550 C   0  0  0  0  0  0  0  0  0  0  0  0
   58.1969   26.2337   47.8366 H   0  0  0  0  0  0  0  0  0  0  0  0
   59.9830   29.9870   47.5270 N   0  0  0  0  0  0  0  0  0  0  0  0
   59.3010   30.5660   46.9880 H   0  0  0  0  0  0  0  0  0  0  0  0
   61.1570   30.6420   48.0540 C   0  0  0  0  0  0  0  0  0  0  0  0
   61.5050   30.5820   49.4180 C   0  0  0  0  0  0  0  0  0  0  0  0
   60.8727   30.0168   50.1185 H   0  0  0  0  0  0  0  0  0  0  0  0
   62.6470   31.2350   49.8870 C   0  0  0  0  0  0  0  0  0  0  0  0
   62.9083   31.1843   50.9543 H   0  0  0  0  0  0  0  0  0  0  0  0
   63.4580   31.9520   49.0050 C   0  0  0  0  0  0  0  0  0  0  0  0
   64.3559   32.4668   49.3776 H   0  0  0  0  0  0  0  0  0  0  0  0
   63.1280   32.0150   47.6490 C   0  0  0  0  0  0  0  0  0  0  0  0
   63.9150   32.7110   46.7920 F   0  0  0  0  0  0  0  0  0  0  0  0
   61.9850   31.3640   47.1770 C   0  0  0  0  0  0  0  0  0  0  0  0
   61.7306   31.4171   46.1081 H   0  0  0  0  0  0  0  0  0  0  0  0
  1  2  1  0
  2  3  1  0
  3  4  1  6
  3  5  1  0
  5  6  1  0
  6  7  1  0
  7  8  2  0
  8  9  1  0
  9 10  2  0
 10 11  1  0
 10 12  1  0
 12 13  1  0
 12 14  2  0
 14 15  1  0
 14 16  1  0
 16 17  1  0
 16 18  2  0
 18 19  1  0
 19 20  1  0
 20 21  1  0
 20 22  1  0
 20 23  1  0
 23 24  1  0
 23 25  1  0
 23 26  1  0
  7 27  1  0
 27 28  1  0
 28 29  2  0
 28 30  1  0
 30 31  1  0
  3 32  1  0
 32 33  1  0
 32 34  1  0
 34 35  2  0
 35 36  1  0
 35 37  1  0
 37 38  1  0
 37 39  2  0
 39 40  1  0
 39 41  1  0
 41 42  1  0
 41 43  2  0
 43 44  1  0
 30  5  2  0
 43 34  1  0
 18  9  1  0
M  CHG  2   6  -1  27  -1
M  END
>  <UniqueID>  (46) 
44

>  <SMILES>  (46) 
CCOc1ccccc1/N=c1\[n-]c([C@H](O)Nc2cccc(F)c2)cc(=O)[n-]1

>  <Energy>  (46) 
52.30494246314146

>  <Genealogy>  (46) 
CCOc1ccccc1N=c1[n-]c(C(O)Nc2cccc(F)c2)cc(=O)[n-]1 (protonated)
CCOc1ccccc1N=c1[n-]c([C@H](O)Nc2cccc(F)c2)cc(=O)[n-]1 (chirality)
CCOc1ccccc1/N=c1\[n-]c([C@H](O)Nc2cccc(F)c2)cc(=O)[n-]1 (cis-trans isomerization)
CCOc1ccccc1/N=c1\[n-]c([C@H](O)Nc2cccc(F)c2)cc(=O)[n-]1 (3D coordinates assigned)
CCOc1ccccc1/N=c1\[n-]c([C@H](O)Nc2cccc(F)c2)cc(=O)[n-]1 (optimized conformer: 52.30494246314146 kcal/mol)

>  <smiles>  (46) 
CCOc1ccccc1N=c1[nH]c(C(O)Nc2cccc(F)c2)cc(=O)[nH]1

>  <score_type>  (46) 
oracle

>  <origin>  (46) 
adg

>  <m_score__min__energy>  (46) 
-11.16

>  <m_primary>  (46) 
energy

$$$$
46:0
     RDKit          3D

 47 49  0  0  0  0  0  0  0  0999 V2000
   57.7930   32.3390   42.4140 C   0  0  0  0  0  0  0  0  0  0  0  0
   57.4810   32.4240   43.8450 N   0  0  0  0  0  0  0  0  0  0  0  0
   57.3700   33.7350   44.4960 C   0  0  0  0  0  0  0  0  0  0  0  0
   58.3540   33.8570   45.6310 C   0  0  0  0  0  0  0  0  0  0  0  0
   59.6300   34.4040   45.4140 C   0  0  0  0  0  0  0  0  0  0  0  0
   60.5330   34.5310   46.4740 C   0  0  0  0  0  0  0  0  0  0  0  0
   60.1710   34.1120   47.7560 C   0  0  0  0  0  0  0  0  0  0  0  0
   58.9050   33.5650   47.9820 C   0  0  0  0  0  0  0  0  0  0  0  0
   57.9980   33.4370   46.9250 C   0  0  0  0  0  0  0  0  0  0  0  0
   57.4320   31.2190   44.6370 C   0  0  0  0  0  0  0  0  0  0  0  0
   56.3480   30.5900   44.7550 O   0  0  0  0  0  0  0  0  0  0  0  0
   58.5860   30.7400   45.3370 N   0  0  0  0  0  0  0  0  0  0  0  0
   58.6150   29.6030   46.2100 C   0  0  0  0  0  0  0  0  0  0  0  0
   59.2010   29.6680   47.4850 C   0  0  0  0  0  0  0  0  0  0  0  0
   59.2260   28.5390   48.3040 C   0  0  0  0  0  0  0  0  0  0  0  0
   58.6870   27.3310   47.8550 C   0  0  0  0  0  0  0  0  0  0  0  0
   58.1270   27.2370   46.5680 C   0  0  0  0  0  0  0  0  0  0  0  0
   57.5510   25.9650   46.0660 C   0  0  0  0  0  0  0  0  0  0  0  0
   56.3560   25.6820   46.3570 O   0  0  0  0  0  0  0  0  0  0  0  0
   58.3320   25.0550   45.2680 N   0  0  0  0  0  0  0  0  0  0  0  0
   57.8030   23.8590   44.6700 C   0  0  0  0  0  0  0  0  0  0  0  0
   58.2300   22.5820   45.0810 C   0  0  0  0  0  0  0  0  0  0  0  0
   57.6780   21.4350   44.5020 C   0  0  0  0  0  0  0  0  0  0  0  0
   56.6910   21.5500   43.5210 C   0  0  0  0  0  0  0  0  0  0  0  0
   56.1560   20.4370   42.9620 F   0  0  0  0  0  0  0  0  0  0  0  0
   56.2450   22.8140   43.1250 C   0  0  0  0  0  0  0  0  0  0  0  0
   56.7920   23.9630   43.7020 C   0  0  0  0  0  0  0  0  0  0  0  0
   58.0930   28.3850   45.7550 C   0  0  0  0  0  0  0  0  0  0  0  0
   58.8470   32.0519   42.2850 H   0  0  0  0  0  0  0  0  0  0  0  0
   57.1469   31.5841   41.9421 H   0  0  0  0  0  0  0  0  0  0  0  0
   57.6191   33.3173   41.9421 H   0  0  0  0  0  0  0  0  0  0  0  0
   57.5742   34.5229   43.7561 H   0  0  0  0  0  0  0  0  0  0  0  0
   56.3525   33.8417   44.9001 H   0  0  0  0  0  0  0  0  0  0  0  0
   59.9199   34.7339   44.4055 H   0  0  0  0  0  0  0  0  0  0  0  0
   61.5298   34.9615   46.2978 H   0  0  0  0  0  0  0  0  0  0  0  0
   60.8829   34.2126   48.5886 H   0  0  0  0  0  0  0  0  0  0  0  0
   58.6215   33.2348   48.9922 H   0  0  0  0  0  0  0  0  0  0  0  0
   57.0023   33.0061   47.1066 H   0  0  0  0  0  0  0  0  0  0  0  0
   59.6414   30.6119   47.8386 H   0  0  0  0  0  0  0  0  0  0  0  0
   59.6720   28.6002   49.3076 H   0  0  0  0  0  0  0  0  0  0  0  0
   58.7005   26.4484   48.5114 H   0  0  0  0  0  0  0  0  0  0  0  0
   59.3530   25.2320   45.1450 H   0  0  0  0  0  0  0  0  0  0  0  0
   59.0005   22.4861   45.8602 H   0  0  0  0  0  0  0  0  0  0  0  0
   58.0221   20.4398   44.8201 H   0  0  0  0  0  0  0  0  0  0  0  0
   55.4620   22.9044   42.3577 H   0  0  0  0  0  0  0  0  0  0  0  0
   56.4281   24.9549   43.3958 H   0  0  0  0  0  0  0  0  0  0  0  0
   57.6510   28.3254   44.7495 H   0  0  0  0  0  0  0  0  0  0  0  0
  1  2  1  0
  2  3  1  0
  3  4  1  0
  4  5  2  0
  5  6  1  0
  6  7  2  0
  7  8  1  0
  8  9  2  0
  2 10  1  0
 10 11  2  0
 10 12  1  0
 12 13  1  0
 13 14  2  0
 14 15  1  0
 15 16  2  0
 16 17  1  0
 17 18  1  0
 18 19  2  0
 18 20  1  0
 20 21  1  0
 21 22  2  0
 22 23  1  0
 23 24  2  0
 24 25  1  0
 24 26  1  0
 26 27  2  0
 17 28  2  0
  9  4  1  0
 28 13  1  0
 27 21  1  0
  1 29  1  0
  1 30  1  0
  1 31  1  0
  3 32  1  0
  3 33  1  0
  5 34  1  0
  6 35  1  0
  7 36  1  0
  8 37  1  0
  9 38  1  0
 14 39  1  0
 15 40  1  0
 16 41  1  0
 20 42  1  0
 22 43  1  0
 23 44  1  0
 26 45  1  0
 27 46  1  0
 28 47  1  0
M  CHG  1  12  -1
M  END
>  <UniqueID>  (47) 
45

>  <SMILES>  (47) 
CN(Cc1ccccc1)C(=O)[N-]c1cccc(C(=O)Nc2ccc(F)cc2)c1

>  <Energy>  (47) 
60.646721643400475

>  <Genealogy>  (47) 
CN(Cc1ccccc1)C(=O)[N-]c1cccc(C(=O)Nc2ccc(F)cc2)c1 (protonated)
CN(Cc1ccccc1)C(=O)[N-]c1cccc(C(=O)Nc2ccc(F)cc2)c1 (3D coordinates assigned)
CN(Cc1ccccc1)C(=O)[N-]c1cccc(C(=O)Nc2ccc(F)cc2)c1 (optimized conformer: 60.646721643400475 kcal/mol)

>  <smiles>  (47) 
CN(Cc1ccccc1)C(=O)Nc1cccc(C(=O)Nc2ccc(F)cc2)c1

>  <score_type>  (47) 
oracle

>  <origin>  (47) 
adg

>  <m_score__min__energy>  (47) 
-9.5999999999999996

>  <m_primary>  (47) 
energy

$$$$
47:0
     RDKit          3D

 34 35  0  0  0  0  0  0  0  0999 V2000
   56.6440   22.0780   42.6970 C   0  0  0  0  0  0  0  0  0  0  0  0
   56.7770   23.0160   43.8670 C   0  0  0  0  0  0  0  0  0  0  0  0
   55.7100   23.8500   44.2200 C   0  0  0  0  0  0  0  0  0  0  0  0
   55.8370   24.7130   45.3070 C   0  0  0  0  0  0  0  0  0  0  0  0
   54.8660   25.4540   45.6260 O   0  0  0  0  0  0  0  0  0  0  0  0
   57.0070   24.7440   46.0170 N   0  0  0  0  0  0  0  0  0  0  0  0
   57.1650   25.6130   47.1870 C   0  0  0  0  0  0  0  0  0  0  0  0
   57.4090   27.0230   46.7460 C   0  0  0  0  0  0  0  0  0  0  0  0
   58.1400   27.7750   47.4460 O   0  0  0  0  0  0  0  0  0  0  0  0
   56.7990   27.5120   45.5430 N   0  0  0  0  0  0  0  0  0  0  0  0
   57.1640   28.7520   44.9180 C   0  0  0  0  0  0  0  0  0  0  0  0
   58.5120   29.1370   44.8940 C   0  0  0  0  0  0  0  0  0  0  0  0
   58.8930   30.3470   44.3060 C   0  0  0  0  0  0  0  0  0  0  0  0
   57.9260   31.1900   43.7520 C   0  0  0  0  0  0  0  0  0  0  0  0
   56.5770   30.8300   43.7950 C   0  0  0  0  0  0  0  0  0  0  0  0
   56.1910   29.6190   44.3810 C   0  0  0  0  0  0  0  0  0  0  0  0
   54.8700   29.3230   44.4690 F   0  0  0  0  0  0  0  0  0  0  0  0
   58.0200   23.9390   45.6840 N   0  0  0  0  0  0  0  0  0  0  0  0
   57.9550   23.0760   44.6340 C   0  0  0  0  0  0  0  0  0  0  0  0
   59.1430   22.2110   44.3350 C   0  0  0  0  0  0  0  0  0  0  0  0
   56.4985   21.0515   43.0647 H   0  0  0  0  0  0  0  0  0  0  0  0
   55.7789   22.3746   42.0857 H   0  0  0  0  0  0  0  0  0  0  0  0
   57.5574   22.1225   42.0857 H   0  0  0  0  0  0  0  0  0  0  0  0
   54.7746   23.8245   43.6417 H   0  0  0  0  0  0  0  0  0  0  0  0
   56.2498   25.5746   47.7960 H   0  0  0  0  0  0  0  0  0  0  0  0
   58.0227   25.2664   47.7821 H   0  0  0  0  0  0  0  0  0  0  0  0
   55.9750   26.9920   45.1640 H   0  0  0  0  0  0  0  0  0  0  0  0
   59.2750   28.4827   45.3408 H   0  0  0  0  0  0  0  0  0  0  0  0
   59.9542   30.6354   44.2795 H   0  0  0  0  0  0  0  0  0  0  0  0
   58.2273   32.1377   43.2817 H   0  0  0  0  0  0  0  0  0  0  0  0
   55.8164   31.4998   43.3674 H   0  0  0  0  0  0  0  0  0  0  0  0
   59.6006   21.8778   45.2782 H   0  0  0  0  0  0  0  0  0  0  0  0
   58.8212   21.3343   43.7538 H   0  0  0  0  0  0  0  0  0  0  0  0
   59.8786   22.7864   43.7538 H   0  0  0  0  0  0  0  0  0  0  0  0
  1  2  1  0
  2  3  2  0
  3  4  1  0
  4  5  2  0
  4  6  1  0
  6  7  1  0
  7  8  1  0
  8  9  2  0
  8 10  1  0
 10 11  1  0
 11 12  2  0
 12 13  1  0
 13 14  2  0
 14 15  1  0
 15 16  2  0
 16 17  1  0
  6 18  1  0
 18 19  2  0
 19 20  1  0
 19  2  1  0
 16 11  1  0
  1 21  1  0
  1 22  1  0
  1 23  1  0
  3 24  1  0
  7 25  1  0
  7 26  1  0
 10 27  1  0
 12 28  1  0
 13 29  1  0
 14 30  1  0
 15 31  1  0
 20 32  1  0
 20 33  1  0
 20 34  1  0
M  END
>  <UniqueID>  (48) 
46

>  <SMILES>  (48) 
Cc1cc(=O)n(CC(=O)Nc2ccccc2F)nc1C

>  <Energy>  (48) 
37.923505831648356

>  <Genealogy>  (48) 
Cc1cc(=O)n(CC(=O)Nc2ccccc2F)nc1C (3D coordinates assigned)
Cc1cc(=O)n(CC(=O)Nc2ccccc2F)nc1C (optimized conformer: 37.923505831648356 kcal/mol)

>  <smiles>  (48) 
Cc1cc(=O)n(CC(=O)Nc2ccccc2F)nc1C

>  <score_type>  (48) 
oracle

>  <origin>  (48) 
adg

>  <m_score__min__energy>  (48) 
-7.2999999999999998

>  <m_primary>  (48) 
energy

$$$$
48:0
     RDKit          3D

 51 54  0  0  0  0  0  0  0  0999 V2000
   57.6110   32.3390   50.5810 O   0  0  0  0  0  0  0  0  0  0  0  0
   58.1330   31.2170   50.8210 C   0  0  0  0  0  0  0  0  0  0  0  0
   59.1200   30.7200   49.9060 N   0  0  0  0  0  0  0  0  0  0  0  0
   58.8880   30.0560   48.6530 C   0  0  0  0  0  0  0  0  0  0  0  0
   58.8310   28.6540   48.5690 C   0  0  0  0  0  0  0  0  0  0  0  0
   58.5920   28.0280   47.3450 C   0  0  0  0  0  0  0  0  0  0  0  0
   58.4150   28.7930   46.1910 C   0  0  0  0  0  0  0  0  0  0  0  0
   58.4890   30.1860   46.2580 C   0  0  0  0  0  0  0  0  0  0  0  0
   58.7380   30.8260   47.4820 C   0  0  0  0  0  0  0  0  0  0  0  0
   58.8030   32.2580   47.5400 N   0  0  0  0  0  0  0  0  0  0  0  0
   57.6730   33.0680   47.0720 C   0  0  0  0  0  0  0  0  0  0  0  0
   58.1620   34.2830   46.2530 C   0  0  0  0  0  0  0  0  0  0  0  0
   59.5690   34.6400   46.5130 N   0  0  0  0  0  0  0  0  0  0  0  0
   59.9410   34.4120   47.9120 C   0  0  0  0  0  0  0  0  0  0  0  0
   59.9470   32.9080   48.1890 C   0  0  0  0  0  0  0  0  0  0  0  0
   57.6330   30.4090   51.9660 C   0  0  0  0  0  0  0  0  0  0  0  0
   58.5420   29.6460   52.7240 C   0  0  0  0  0  0  0  0  0  0  0  0
   58.0930   28.8210   53.7560 C   0  0  0  0  0  0  0  0  0  0  0  0
   56.7300   28.7230   54.0330 C   0  0  0  0  0  0  0  0  0  0  0  0
   55.8100   29.4560   53.2810 C   0  0  0  0  0  0  0  0  0  0  0  0
   56.2470   30.3090   52.2580 C   0  0  0  0  0  0  0  0  0  0  0  0
   55.2670   31.0550   51.5230 N   0  0  0  0  0  0  0  0  0  0  0  0
   53.8530   30.8330   51.6530 C   0  0  0  0  0  0  0  0  0  0  0  0
   53.3740   29.5330   51.8820 C   0  0  0  0  0  0  0  0  0  0  0  0
   52.0010   29.2980   52.0030 C   0  0  0  0  0  0  0  0  0  0  0  0
   51.0980   30.3590   51.9080 C   0  0  0  0  0  0  0  0  0  0  0  0
   51.5660   31.6600   51.7030 C   0  0  0  0  0  0  0  0  0  0  0  0
   50.6680   32.7170   51.6220 O   0  0  0  0  0  0  0  0  0  0  0  0
   52.9390   31.8990   51.5830 C   0  0  0  0  0  0  0  0  0  0  0  0
   58.9758   28.0462   49.4743 H   0  0  0  0  0  0  0  0  0  0  0  0
   58.5430   26.9305   47.2895 H   0  0  0  0  0  0  0  0  0  0  0  0
   58.2172   28.2985   45.2285 H   0  0  0  0  0  0  0  0  0  0  0  0
   58.3513   30.7852   45.3459 H   0  0  0  0  0  0  0  0  0  0  0  0
   57.0228   32.4461   46.4391 H   0  0  0  0  0  0  0  0  0  0  0  0
   57.1204   33.4368   47.9487 H   0  0  0  0  0  0  0  0  0  0  0  0
   58.0543   34.0482   45.1838 H   0  0  0  0  0  0  0  0  0  0  0  0
   57.5485   35.1447   46.5549 H   0  0  0  0  0  0  0  0  0  0  0  0
   59.6940   35.6590   46.3040 H   0  0  0  0  0  0  0  0  0  0  0  0
   60.9433   34.8250   48.0987 H   0  0  0  0  0  0  0  0  0  0  0  0
   59.2160   34.9080   48.5740 H   0  0  0  0  0  0  0  0  0  0  0  0
   60.8789   32.4725   47.7993 H   0  0  0  0  0  0  0  0  0  0  0  0
   59.8764   32.7475   49.2749 H   0  0  0  0  0  0  0  0  0  0  0  0
   59.6176   29.7009   52.5002 H   0  0  0  0  0  0  0  0  0  0  0  0
   58.8165   28.2462   54.3528 H   0  0  0  0  0  0  0  0  0  0  0  0
   56.3795   28.0680   54.8442 H   0  0  0  0  0  0  0  0  0  0  0  0
   54.7345   29.3635   53.4928 H   0  0  0  0  0  0  0  0  0  0  0  0
   55.6070   31.7650   50.8350 H   0  0  0  0  0  0  0  0  0  0  0  0
   54.0823   28.6956   51.9666 H   0  0  0  0  0  0  0  0  0  0  0  0
   51.6316   28.2760   52.1733 H   0  0  0  0  0  0  0  0  0  0  0  0
   50.0177   30.1707   51.9946 H   0  0  0  0  0  0  0  0  0  0  0  0
   53.3052   32.9254   51.4332 H   0  0  0  0  0  0  0  0  0  0  0  0
  1  2  2  0
  2  3  1  0
  3  4  1  0
  4  5  2  0
  5  6  1  0
  6  7  2  0
  7  8  1  0
  8  9  2  0
  9 10  1  0
 10 11  1  0
 11 12  1  0
 12 13  1  0
 13 14  1  0
 14 15  1  0
  2 16  1  0
 16 17  2  0
 17 18  1  0
 18 19  2  0
 19 20  1  0
 20 21  2  0
 21 22  1  0
 22 23  1  0
 23 24  2  0
 24 25  1  0
 25 26  2  0
 26 27  1  0
 27 28  1  0
 27 29  2  0
  9  4  1  0
 15 10  1  0
 21 16  1  0
 29 23  1  0
  5 30  1  0
  6 31  1  0
  7 32  1  0
  8 33  1  0
 11 34  1  0
 11 35  1  0
 12 36  1  0
 12 37  1  0
 13 38  1  0
 14 39  1  0
 14 40  1  0
 15 41  1  0
 15 42  1  0
 17 43  1  0
 18 44  1  0
 19 45  1  0
 20 46  1  0
 22 47  1  0
 24 48  1  0
 25 49  1  0
 26 50  1  0
 29 51  1  0
M  CHG  2   3  -1  28  -1
M  END
>  <UniqueID>  (49) 
47

>  <SMILES>  (49) 
O=C([N-]c1ccccc1N1CCNCC1)c1ccccc1Nc1cccc([O-])c1

>  <Energy>  (49) 
77.89777229981937

>  <Genealogy>  (49) 
O=C([N-]c1ccccc1N1CCNCC1)c1ccccc1Nc1cccc([O-])c1 (protonated)
O=C([N-]c1ccccc1N1CCNCC1)c1ccccc1Nc1cccc([O-])c1 (3D coordinates assigned)
O=C([N-]c1ccccc1N1CCNCC1)c1ccccc1Nc1cccc([O-])c1 (nonaromatic ring conformer: 77.89777229981937 kcal/mol)

>  <smiles>  (49) 
O=C(Nc1ccccc1N1CCNCC1)c1ccccc1Nc1cccc(O)c1

>  <score_type>  (49) 
oracle

>  <origin>  (49) 
adg

>  <m_score__min__energy>  (49) 
-13.6

>  <m_primary>  (49) 
energy

$$$$
49:0
     RDKit          3D

 46 48  0  0  0  0  0  0  0  0999 V2000
   55.1400   29.3110   44.8070 N   0  0  0  0  0  0  0  0  0  0  0  0
   56.7440   29.9400   44.6500 S   0  0  0  0  0  0  0  0  0  0  0  0
   56.6820   31.4240   44.8760 O   0  0  0  0  0  0  0  0  0  0  0  0
   57.2360   29.6600   43.2580 O   0  0  0  0  0  0  0  0  0  0  0  0
   57.8200   29.1660   45.8320 C   0  0  0  0  0  0  0  0  0  0  0  0
   57.4440   27.9080   46.3320 C   0  0  0  0  0  0  0  0  0  0  0  0
   58.2460   27.2360   47.2550 C   0  0  0  0  0  0  0  0  0  0  0  0
   59.4400   27.8060   47.6870 C   0  0  0  0  0  0  0  0  0  0  0  0
   59.8430   29.0450   47.1910 C   0  0  0  0  0  0  0  0  0  0  0  0
   59.0530   29.7420   46.2550 C   0  0  0  0  0  0  0  0  0  0  0  0
   59.5980   31.0410   45.6870 C   0  0  0  0  0  0  0  0  0  0  0  0
   59.4800   32.1990   46.6600 C   0  0  0  0  0  0  0  0  0  0  0  0
   59.6670   31.9760   48.0370 C   0  0  0  0  0  0  0  0  0  0  0  0
   59.7150   33.0450   48.9400 C   0  0  0  0  0  0  0  0  0  0  0  0
   60.1770   32.8020   50.3530 C   0  0  0  0  0  0  0  0  0  0  0  0
   59.0380   32.2270   51.1540 C   0  0  0  0  0  0  0  0  0  0  0  0
   58.7760   30.8490   51.1170 C   0  0  0  0  0  0  0  0  0  0  0  0
   57.6440   30.3260   51.7500 C   0  0  0  0  0  0  0  0  0  0  0  0
   56.7480   31.1790   52.4210 C   0  0  0  0  0  0  0  0  0  0  0  0
   55.5850   30.7130   53.0540 O   0  0  0  0  0  0  0  0  0  0  0  0
   54.4980   30.0590   52.4040 C   0  0  0  0  0  0  0  0  0  0  0  0
   53.3660   30.1920   53.1820 F   0  0  0  0  0  0  0  0  0  0  0  0
   54.2610   30.6400   51.1700 F   0  0  0  0  0  0  0  0  0  0  0  0
   54.7770   28.7130   52.2460 F   0  0  0  0  0  0  0  0  0  0  0  0
   57.0140   32.5530   52.4590 C   0  0  0  0  0  0  0  0  0  0  0  0
   58.1460   33.0750   51.8310 C   0  0  0  0  0  0  0  0  0  0  0  0
   59.4650   34.3440   48.4810 C   0  0  0  0  0  0  0  0  0  0  0  0
   59.1710   34.5680   47.1350 C   0  0  0  0  0  0  0  0  0  0  0  0
   59.1790   33.5080   46.2200 C   0  0  0  0  0  0  0  0  0  0  0  0
   58.8180   33.8690   44.5340 Cl  0  0  0  0  0  0  0  0  0  0  0  0
   55.1490   28.6560   45.6230 H   0  0  0  0  0  0  0  0  0  0  0  0
   56.5052   27.4469   45.9914 H   0  0  0  0  0  0  0  0  0  0  0  0
   57.9343   26.2545   47.6417 H   0  0  0  0  0  0  0  0  0  0  0  0
   60.0666   27.2781   48.4209 H   0  0  0  0  0  0  0  0  0  0  0  0
   60.7908   29.4847   47.5350 H   0  0  0  0  0  0  0  0  0  0  0  0
   60.6596   30.8980   45.4368 H   0  0  0  0  0  0  0  0  0  0  0  0
   59.0013   31.2916   44.7975 H   0  0  0  0  0  0  0  0  0  0  0  0
   59.7771   30.9468   48.4093 H   0  0  0  0  0  0  0  0  0  0  0  0
   61.0183   32.0933   50.3484 H   0  0  0  0  0  0  0  0  0  0  0  0
   60.5040   33.7508   50.8035 H   0  0  0  0  0  0  0  0  0  0  0  0
   59.4655   30.1757   50.5866 H   0  0  0  0  0  0  0  0  0  0  0  0
   57.4530   29.2430   51.7233 H   0  0  0  0  0  0  0  0  0  0  0  0
   56.3247   33.2272   52.9885 H   0  0  0  0  0  0  0  0  0  0  0  0
   58.3408   34.1570   51.8665 H   0  0  0  0  0  0  0  0  0  0  0  0
   59.5004   35.1902   49.1830 H   0  0  0  0  0  0  0  0  0  0  0  0
   58.9312   35.5848   46.7905 H   0  0  0  0  0  0  0  0  0  0  0  0
  1  2  1  0
  2  3  2  0
  2  4  2  0
  2  5  1  0
  5  6  2  0
  6  7  1  0
  7  8  2  0
  8  9  1  0
  9 10  2  0
 10 11  1  0
 11 12  1  0
 12 13  2  0
 13 14  1  0
 14 15  1  0
 15 16  1  0
 16 17  2  0
 17 18  1  0
 18 19  2  0
 19 20  1  0
 20 21  1  0
 21 22  1  0
 21 23  1  0
 21 24  1  0
 19 25  1  0
 25 26  2  0
 14 27  2  0
 27 28  1  0
 28 29  2  0
 29 30  1  0
 10  5  1  0
 29 12  1  0
 26 16  1  0
  1 31  1  0
  6 32  1  0
  7 33  1  0
  8 34  1  0
  9 35  1  0
 11 36  1  0
 11 37  1  0
 13 38  1  0
 15 39  1  0
 15 40  1  0
 17 41  1  0
 18 42  1  0
 25 43  1  0
 26 44  1  0
 27 45  1  0
 28 46  1  0
M  CHG  1   1  -1
M  END
>  <UniqueID>  (50) 
48

>  <SMILES>  (50) 
[NH-]S(=O)(=O)c1ccccc1Cc1cc(Cc2ccc(OC(F)(F)F)cc2)ccc1Cl

>  <Energy>  (50) 
49.66581769242818

>  <Genealogy>  (50) 
[NH-]S(=O)(=O)c1ccccc1Cc1cc(Cc2ccc(OC(F)(F)F)cc2)ccc1Cl (protonated)
[NH-]S(=O)(=O)c1ccccc1Cc1cc(Cc2ccc(OC(F)(F)F)cc2)ccc1Cl (3D coordinates assigned)
[NH-]S(=O)(=O)c1ccccc1Cc1cc(Cc2ccc(OC(F)(F)F)cc2)ccc1Cl (optimized conformer: 49.66581769242818 kcal/mol)

>  <smiles>  (50) 
NS(=O)(=O)c1ccccc1Cc1cc(Cc2ccc(OC(F)(F)F)cc2)ccc1Cl

>  <score_type>  (50) 
oracle

>  <origin>  (50) 
adg

>  <m_score__min__energy>  (50) 
-12.039999999999999

>  <m_primary>  (50) 
energy

$$$$
50:0
     RDKit          3D

 42 44  0  0  0  0  0  0  0  0999 V2000
   60.0340   35.3540   46.1680 C   0  0  0  0  0  0  0  0  0  0  0  0
   59.3530   34.0760   45.9450 N   0  0  0  0  0  0  0  0  0  0  0  0
   58.0710   34.1610   46.6240 C   0  0  0  0  0  0  0  0  0  0  0  0
   57.4030   32.8270   46.5230 C   0  0  0  0  0  0  0  0  0  0  0  0
   57.7760   32.1140   45.3130 N   0  0  0  0  0  0  0  0  0  0  0  0
   57.8040   30.6900   45.2500 C   0  0  0  0  0  0  0  0  0  0  0  0
   56.6920   29.9670   44.8610 C   0  0  0  0  0  0  0  0  0  0  0  0
   56.7090   28.5860   44.7960 C   0  0  0  0  0  0  0  0  0  0  0  0
   57.8590   27.8860   45.1230 C   0  0  0  0  0  0  0  0  0  0  0  0
   57.8970   26.5540   45.0680 F   0  0  0  0  0  0  0  0  0  0  0  0
   58.9610   28.5840   45.5080 C   0  0  0  0  0  0  0  0  0  0  0  0
   58.9460   29.9610   45.5740 C   0  0  0  0  0  0  0  0  0  0  0  0
   60.1250   30.6410   45.9810 N   0  0  0  0  0  0  0  0  0  0  0  0
   60.1490   31.1220   47.3380 C   0  0  0  0  0  0  0  0  0  0  0  0
   59.1590   30.9280   48.0860 O   0  0  0  0  0  0  0  0  0  0  0  0
   61.3570   31.8310   47.7930 C   0  0  0  0  0  0  0  0  0  0  0  0
   61.2290   32.6210   48.9300 C   0  0  0  0  0  0  0  0  0  0  0  0
   62.3130   33.3220   49.4250 C   0  0  0  0  0  0  0  0  0  0  0  0
   63.5050   33.1750   48.7130 C   0  0  0  0  0  0  0  0  0  0  0  0
   64.5260   33.8040   49.1390 O   0  0  0  0  0  0  0  0  0  0  0  0
   63.5980   32.4040   47.6200 N   0  0  0  0  0  0  0  0  0  0  0  0
   62.5320   31.7350   47.1600 N   0  0  0  0  0  0  0  0  0  0  0  0
   58.1240   32.9420   44.1500 C   0  0  0  0  0  0  0  0  0  0  0  0
   59.1120   34.0020   44.5020 C   0  0  0  0  0  0  0  0  0  0  0  0
   60.1302   35.5345   47.2488 H   0  0  0  0  0  0  0  0  0  0  0  0
   61.0342   35.3211   45.7113 H   0  0  0  0  0  0  0  0  0  0  0  0
   59.4489   36.1658   45.7113 H   0  0  0  0  0  0  0  0  0  0  0  0
   58.2256   34.4215   47.6815 H   0  0  0  0  0  0  0  0  0  0  0  0
   57.4446   34.9372   46.1602 H   0  0  0  0  0  0  0  0  0  0  0  0
   57.6910   32.2203   47.3942 H   0  0  0  0  0  0  0  0  0  0  0  0
   56.3165   32.9960   46.4928 H   0  0  0  0  0  0  0  0  0  0  0  0
   55.7694   30.5044   44.5962 H   0  0  0  0  0  0  0  0  0  0  0  0
   55.8060   28.0410   44.4835 H   0  0  0  0  0  0  0  0  0  0  0  0
   59.8803   28.0404   45.7713 H   0  0  0  0  0  0  0  0  0  0  0  0
   60.9480   30.8130   45.3940 H   0  0  0  0  0  0  0  0  0  0  0  0
   60.2568   32.6889   49.4401 H   0  0  0  0  0  0  0  0  0  0  0  0
   62.2410   33.9547   50.3219 H   0  0  0  0  0  0  0  0  0  0  0  0
   64.5200   32.3500   47.1510 H   0  0  0  0  0  0  0  0  0  0  0  0
   58.5557   32.2974   43.3701 H   0  0  0  0  0  0  0  0  0  0  0  0
   57.2070   33.4336   43.7930 H   0  0  0  0  0  0  0  0  0  0  0  0
   60.0630   33.7825   43.9947 H   0  0  0  0  0  0  0  0  0  0  0  0
   58.6998   34.9691   44.1782 H   0  0  0  0  0  0  0  0  0  0  0  0
  1  2  1  0
  2  3  1  0
  3  4  1  0
  4  5  1  0
  5  6  1  0
  6  7  2  0
  7  8  1  0
  8  9  2  0
  9 10  1  0
  9 11  1  0
 11 12  2  0
 12 13  1  0
 13 14  1  0
 14 15  2  0
 14 16  1  0
 16 17  1  0
 17 18  2  0
 18 19  1  0
 19 20  2  0
 19 21  1  0
 21 22  1  0
  5 23  1  0
 23 24  1  0
 24  2  1  0
 12  6  1  0
 22 16  2  0
  1 25  1  0
  1 26  1  0
  1 27  1  0
  3 28  1  0
  3 29  1  0
  4 30  1  0
  4 31  1  0
  7 32  1  0
  8 33  1  0
 11 34  1  0
 13 35  1  0
 17 36  1  0
 18 37  1  0
 21 38  1  0
 23 39  1  0
 23 40  1  0
 24 41  1  0
 24 42  1  0
M  END
>  <smiles>  (51) 
CN1CCN(c2ccc(F)cc2NC(=O)c2ccc(=O)[nH]n2)CC1

>  <score_type>  (51) 
oracle

>  <origin>  (51) 
adg

>  <m_score__min__energy>  (51) 
-6.6399999999999997

>  <m_primary>  (51) 
energy

$$$$
51:0
     RDKit          3D

 31 32  0  0  0  0  0  0  0  0999 V2000
   58.1512   34.1113   47.8300 H   0  0  0  0  0  0  0  0  0  0  0  0
   58.1480   33.7530   46.7900 C   0  0  0  0  0  0  0  0  0  0  0  0
   57.4660   32.6240   46.4630 N   0  0  0  0  0  0  0  0  0  0  0  0
   57.4330   32.1400   45.1880 C   0  0  0  0  0  0  0  0  0  0  0  0
   56.7060   30.9420   44.8640 N   0  0  0  0  0  0  0  0  0  0  0  0
   56.9770   29.7220   45.2340 C   0  0  0  0  0  0  0  0  0  0  0  0
   56.0220   28.7500   45.2380 N   0  0  0  0  0  0  0  0  0  0  0  0
   56.2920   27.4740   45.6190 C   0  0  0  0  0  0  0  0  0  0  0  0
   55.4920   26.7191   45.6121 H   0  0  0  0  0  0  0  0  0  0  0  0
   57.5870   27.1160   46.0210 C   0  0  0  0  0  0  0  0  0  0  0  0
   57.8900   25.7180   46.4800 C   0  0  0  0  0  0  0  0  0  0  0  0
   57.9872   25.7078   47.5756 H   0  0  0  0  0  0  0  0  0  0  0  0
   58.8303   25.3830   46.0178 H   0  0  0  0  0  0  0  0  0  0  0  0
   56.7860   24.7920   46.0720 C   0  0  0  0  0  0  0  0  0  0  0  0
   55.7010   24.7970   46.7140 O   0  0  0  0  0  0  0  0  0  0  0  0
   56.9460   23.9400   44.9310 N   0  0  0  0  0  0  0  0  0  0  0  0
   57.8450   23.9560   44.4000 H   0  0  0  0  0  0  0  0  0  0  0  0
   55.8830   23.0490   44.4820 C   0  0  0  0  0  0  0  0  0  0  0  0
   55.3709   22.6197   45.3558 H   0  0  0  0  0  0  0  0  0  0  0  0
   55.1611   23.6158   43.8757 H   0  0  0  0  0  0  0  0  0  0  0  0
   56.3150   22.2392   43.8757 H   0  0  0  0  0  0  0  0  0  0  0  0
   58.5820   28.1040   46.0380 C   0  0  0  0  0  0  0  0  0  0  0  0
   59.6013   27.8519   46.3660 H   0  0  0  0  0  0  0  0  0  0  0  0
   58.2800   29.4070   45.6390 C   0  0  0  0  0  0  0  0  0  0  0  0
   59.0608   30.1818   45.6427 H   0  0  0  0  0  0  0  0  0  0  0  0
   58.1240   32.8250   44.1760 C   0  0  0  0  0  0  0  0  0  0  0  0
   58.1150   32.2430   42.5170 Cl  0  0  0  0  0  0  0  0  0  0  0  0
   58.8300   33.9880   44.4930 C   0  0  0  0  0  0  0  0  0  0  0  0
   59.3743   34.5330   43.7077 H   0  0  0  0  0  0  0  0  0  0  0  0
   58.8440   34.4580   45.8080 C   0  0  0  0  0  0  0  0  0  0  0  0
   59.3972   35.3730   46.0663 H   0  0  0  0  0  0  0  0  0  0  0  0
  1  2  1  0
  2  3  2  0
  3  4  1  0
  4  5  1  0
  5  6  2  0
  6  7  1  0
  7  8  1  0
  8  9  1  0
  8 10  2  0
 10 11  1  0
 11 12  1  0
 11 13  1  0
 11 14  1  0
 14 15  2  0
 14 16  1  0
 16 17  1  0
 16 18  1  0
 18 19  1  0
 18 20  1  0
 18 21  1  0
 10 22  1  0
 22 23  1  0
 22 24  2  0
 24 25  1  0
  4 26  2  0
 26 27  1  0
 26 28  1  0
 28 29  1  0
 28 30  2  0
 30 31  1  0
 30  2  1  0
 24  6  1  0
M  CHG  1   7  -1
M  END
>  <UniqueID>  (52) 
49

>  <SMILES>  (52) 
CNC(=O)Cc1cc/c(=N/c2ncccc2Cl)[n-]c1

>  <Energy>  (52) 
30.97765054745354

>  <Genealogy>  (52) 
CNC(=O)Cc1ccc(=Nc2ncccc2Cl)[n-]c1 (protonated)
CNC(=O)Cc1cc/c(=N/c2ncccc2Cl)[n-]c1 (cis-trans isomerization)
CNC(=O)Cc1cc/c(=N/c2ncccc2Cl)[n-]c1 (3D coordinates assigned)
CNC(=O)Cc1cc/c(=N/c2ncccc2Cl)[n-]c1 (optimized conformer: 30.97765054745354 kcal/mol)

>  <smiles>  (52) 
CNC(=O)Cc1ccc(=Nc2ncccc2Cl)[nH]c1

>  <score_type>  (52) 
oracle

>  <origin>  (52) 
adg

>  <m_score__min__energy>  (52) 
-8.4600000000000009

>  <m_primary>  (52) 
energy

$$$$
52:0
     RDKit          3D

 59 62  0  0  0  0  0  0  0  0999 V2000
   59.6470   34.0650   49.5130 C   0  0  0  0  0  0  0  0  0  0  0  0
   60.8010   33.9540   48.5580 C   0  0  0  0  0  0  0  0  0  0  0  0
   62.1010   34.2710   48.9880 C   0  0  0  0  0  0  0  0  0  0  0  0
   63.1860   34.1450   48.1140 C   0  0  0  0  0  0  0  0  0  0  0  0
   62.9840   33.7050   46.8050 C   0  0  0  0  0  0  0  0  0  0  0  0
   61.6960   33.3810   46.3690 C   0  0  0  0  0  0  0  0  0  0  0  0
   60.6030   33.4780   47.2460 C   0  0  0  0  0  0  0  0  0  0  0  0
   59.2820   33.1560   46.7940 N   0  0  0  0  0  0  0  0  0  0  0  0
   58.6050   33.7880   45.3290 S   0  0  0  0  0  0  0  0  0  0  0  0
   59.7020   34.4320   44.5280 O   0  0  0  0  0  0  0  0  0  0  0  0
   57.5890   34.8420   45.6670 O   0  0  0  0  0  0  0  0  0  0  0  0
   57.8530   32.5230   44.3600 C   0  0  0  0  0  0  0  0  0  0  0  0
   57.9330   32.5690   42.9620 C   0  0  0  0  0  0  0  0  0  0  0  0
   57.3540   31.5560   42.1920 C   0  0  0  0  0  0  0  0  0  0  0  0
   56.6900   30.4970   42.8140 C   0  0  0  0  0  0  0  0  0  0  0  0
   56.5770   30.4520   44.2090 C   0  0  0  0  0  0  0  0  0  0  0  0
   55.9170   29.3300   44.8110 N   0  0  0  0  0  0  0  0  0  0  0  0
   56.5490   28.1580   45.3430 C   0  0  0  0  0  0  0  0  0  0  0  0
   55.8730   27.1340   45.6200 O   0  0  0  0  0  0  0  0  0  0  0  0
   58.0320   28.1440   45.5700 C   0  0  0  0  0  0  0  0  0  0  0  0
   58.4220   29.1180   46.6110 N   0  0  0  0  0  0  0  0  0  0  0  0
   58.5490   28.4490   47.9220 C   0  0  0  0  0  0  0  0  0  0  0  0
   59.0640   29.4230   48.9820 C   0  0  0  0  0  0  0  0  0  0  0  0
   60.3420   30.0140   48.5660 N   0  0  0  0  0  0  0  0  0  0  0  0
   61.1910   30.6590   49.5410 C   0  0  0  0  0  0  0  0  0  0  0  0
   62.5580   30.8780   49.2730 C   0  0  0  0  0  0  0  0  0  0  0  0
   63.3740   31.5040   50.2200 C   0  0  0  0  0  0  0  0  0  0  0  0
   62.8410   31.9170   51.4450 C   0  0  0  0  0  0  0  0  0  0  0  0
   63.6540   32.5410   52.3840 O   0  0  0  0  0  0  0  0  0  0  0  0
   61.4890   31.7040   51.7250 C   0  0  0  0  0  0  0  0  0  0  0  0
   60.6670   31.0790   50.7810 C   0  0  0  0  0  0  0  0  0  0  0  0
   60.7970   29.8230   47.1840 C   0  0  0  0  0  0  0  0  0  0  0  0
   59.6100   29.9260   46.2120 C   0  0  0  0  0  0  0  0  0  0  0  0
   57.1720   31.4660   44.9820 C   0  0  0  0  0  0  0  0  0  0  0  0
   60.0217   34.0290   50.5466 H   0  0  0  0  0  0  0  0  0  0  0  0
   59.1231   35.0177   49.3459 H   0  0  0  0  0  0  0  0  0  0  0  0
   58.9511   33.2296   49.3459 H   0  0  0  0  0  0  0  0  0  0  0  0
   62.2663   34.6203   50.0179 H   0  0  0  0  0  0  0  0  0  0  0  0
   64.2005   34.3932   48.4592 H   0  0  0  0  0  0  0  0  0  0  0  0
   63.8375   33.6133   46.1171 H   0  0  0  0  0  0  0  0  0  0  0  0
   61.5374   33.0480   45.3327 H   0  0  0  0  0  0  0  0  0  0  0  0
   58.4525   33.4040   42.4692 H   0  0  0  0  0  0  0  0  0  0  0  0
   57.4216   31.5933   41.0947 H   0  0  0  0  0  0  0  0  0  0  0  0
   56.2527   29.6927   42.2042 H   0  0  0  0  0  0  0  0  0  0  0  0
   58.3368   27.1364   45.8890 H   0  0  0  0  0  0  0  0  0  0  0  0
   58.5312   28.4203   44.6296 H   0  0  0  0  0  0  0  0  0  0  0  0
   57.5636   28.0692   48.2298 H   0  0  0  0  0  0  0  0  0  0  0  0
   59.2664   27.6206   47.8266 H   0  0  0  0  0  0  0  0  0  0  0  0
   58.3248   30.2250   49.1252 H   0  0  0  0  0  0  0  0  0  0  0  0
   59.2177   28.8736   49.9225 H   0  0  0  0  0  0  0  0  0  0  0  0
   62.9852   30.5541   48.3124 H   0  0  0  0  0  0  0  0  0  0  0  0
   64.4387   31.6722   50.0008 H   0  0  0  0  0  0  0  0  0  0  0  0
   61.0701   32.0282   52.6891 H   0  0  0  0  0  0  0  0  0  0  0  0
   59.6034   30.9139   51.0079 H   0  0  0  0  0  0  0  0  0  0  0  0
   61.5376   30.5974   46.9356 H   0  0  0  0  0  0  0  0  0  0  0  0
   61.2497   28.8248   47.0912 H   0  0  0  0  0  0  0  0  0  0  0  0
   59.3049   30.9810   46.1505 H   0  0  0  0  0  0  0  0  0  0  0  0
   59.9554   29.5256   45.2474 H   0  0  0  0  0  0  0  0  0  0  0  0
   57.1028   31.4297   46.0792 H   0  0  0  0  0  0  0  0  0  0  0  0
  1  2  1  0
  2  3  2  0
  3  4  1  0
  4  5  2  0
  5  6  1  0
  6  7  2  0
  7  8  1  0
  8  9  1  0
  9 10  2  0
  9 11  2  0
  9 12  1  0
 12 13  2  0
 13 14  1  0
 14 15  2  0
 15 16  1  0
 16 17  1  0
 17 18  1  0
 18 19  2  0
 18 20  1  0
 20 21  1  0
 21 22  1  0
 22 23  1  0
 23 24  1  0
 24 25  1  0
 25 26  2  0
 26 27  1  0
 27 28  2  0
 28 29  1  0
 28 30  1  0
 30 31  2  0
 24 32  1  0
 32 33  1  0
 16 34  2  0
  7  2  1  0
 34 12  1  0
 33 21  1  0
 31 25  1  0
  1 35  1  0
  1 36  1  0
  1 37  1  0
  3 38  1  0
  4 39  1  0
  5 40  1  0
  6 41  1  0
 13 42  1  0
 14 43  1  0
 15 44  1  0
 20 45  1  0
 20 46  1  0
 22 47  1  0
 22 48  1  0
 23 49  1  0
 23 50  1  0
 26 51  1  0
 27 52  1  0
 30 53  1  0
 31 54  1  0
 32 55  1  0
 32 56  1  0
 33 57  1  0
 33 58  1  0
 34 59  1  0
M  CHG  3   8  -1  17  -1  29  -1
M  END
>  <UniqueID>  (53) 
50

>  <SMILES>  (53) 
Cc1ccccc1[N-]S(=O)(=O)c1cccc([N-]C(=O)CN2CCN(c3ccc([O-])cc3)CC2)c1

>  <Energy>  (53) 
84.59887155227337

>  <Genealogy>  (53) 
Cc1ccccc1[N-]S(=O)(=O)c1cccc([N-]C(=O)CN2CCN(c3ccc([O-])cc3)CC2)c1 (protonated)
Cc1ccccc1[N-]S(=O)(=O)c1cccc([N-]C(=O)CN2CCN(c3ccc([O-])cc3)CC2)c1 (3D coordinates assigned)
Cc1ccccc1[N-]S(=O)(=O)c1cccc([N-]C(=O)CN2CCN(c3ccc([O-])cc3)CC2)c1 (nonaromatic ring conformer: 84.59887155227337 kcal/mol)

>  <smiles>  (53) 
Cc1ccccc1NS(=O)(=O)c1cccc(NC(=O)CN2CCN(c3ccc(O)cc3)CC2)c1

>  <score_type>  (53) 
oracle

>  <origin>  (53) 
adg

>  <m_score__min__energy>  (53) 
-13.48

>  <m_primary>  (53) 
energy

$$$$
53:0
     RDKit          3D

 45 47  0  0  0  0  0  0  0  0999 V2000
   66.8518   32.1496   51.2478 H   0  0  0  0  0  0  0  0  0  0  0  0
   65.8750   32.1540   50.7420 C   0  0  0  0  0  0  0  0  0  0  0  0
   64.8990   31.2200   51.0990 C   0  0  0  0  0  0  0  0  0  0  0  0
   65.1065   30.4837   51.8894 H   0  0  0  0  0  0  0  0  0  0  0  0
   63.6590   31.2200   50.4530 C   0  0  0  0  0  0  0  0  0  0  0  0
   62.8936   30.4836   50.7393 H   0  0  0  0  0  0  0  0  0  0  0  0
   63.3840   32.1560   49.4390 C   0  0  0  0  0  0  0  0  0  0  0  0
   62.0690   32.1520   48.7540 C   0  0  0  0  0  0  0  0  0  0  0  0
   62.0160   32.0870   47.4970 O   0  0  0  0  0  0  0  0  0  0  0  0
   60.8410   32.1540   49.4940 N   0  0  0  0  0  0  0  0  0  0  0  0
   59.7510   31.5090   49.1790 C   0  0  0  0  0  0  0  0  0  0  0  0
   58.4620   32.2120   49.3370 C   0  0  0  0  0  0  0  0  0  0  0  0
   57.9300   32.3100   50.4760 O   0  0  0  0  0  0  0  0  0  0  0  0
   57.7790   32.7010   48.1700 N   0  0  0  0  0  0  0  0  0  0  0  0
   58.2840   33.3100   47.1330 C   0  0  0  0  0  0  0  0  0  0  0  0
   57.4340   33.6020   46.0570 C   0  0  0  0  0  0  0  0  0  0  0  0
   56.3714   33.3210   46.1013 H   0  0  0  0  0  0  0  0  0  0  0  0
   57.9400   34.2500   44.9300 C   0  0  0  0  0  0  0  0  0  0  0  0
   57.2754   34.4902   44.0871 H   0  0  0  0  0  0  0  0  0  0  0  0
   59.2890   34.5920   44.8750 C   0  0  0  0  0  0  0  0  0  0  0  0
   59.6955   35.1109   43.9944 H   0  0  0  0  0  0  0  0  0  0  0  0
   60.1200   34.2690   45.9500 C   0  0  0  0  0  0  0  0  0  0  0  0
   61.1884   34.5279   45.9129 H   0  0  0  0  0  0  0  0  0  0  0  0
   59.6140   33.6350   47.0440 N   0  0  0  0  0  0  0  0  0  0  0  0
   60.2930   33.3730   47.7900 H   0  0  0  0  0  0  0  0  0  0  0  0
   59.7700   30.0420   48.7900 C   0  0  0  0  0  0  0  0  0  0  0  0
   60.7590   29.6200   49.0221 H   0  0  0  0  0  0  0  0  0  0  0  0
   58.9873   29.5165   49.3567 H   0  0  0  0  0  0  0  0  0  0  0  0
   59.4950   29.8760   47.3180 C   0  0  0  0  0  0  0  0  0  0  0  0
   60.5250   29.5130   46.4370 C   0  0  0  0  0  0  0  0  0  0  0  0
   61.5455   29.3634   46.8193 H   0  0  0  0  0  0  0  0  0  0  0  0
   60.2600   29.3410   45.0780 C   0  0  0  0  0  0  0  0  0  0  0  0
   61.0721   29.0554   44.3932 H   0  0  0  0  0  0  0  0  0  0  0  0
   58.9680   29.5300   44.5840 C   0  0  0  0  0  0  0  0  0  0  0  0
   58.7682   29.3921   43.5111 H   0  0  0  0  0  0  0  0  0  0  0  0
   57.9210   29.8950   45.4470 C   0  0  0  0  0  0  0  0  0  0  0  0
   56.5900   30.0890   44.9360 N   0  0  0  0  0  0  0  0  0  0  0  0
   56.2290   31.2030   44.5020 O   0  0  0  0  0  0  0  0  0  0  0  0
   55.6890   29.0490   44.9200 O   0  0  0  0  0  0  0  0  0  0  0  0
   58.1960   30.0680   46.8180 C   0  0  0  0  0  0  0  0  0  0  0  0
   57.3857   30.3563   47.5038 H   0  0  0  0  0  0  0  0  0  0  0  0
   64.3720   33.0980   49.0950 C   0  0  0  0  0  0  0  0  0  0  0  0
   64.1682   33.8425   48.3113 H   0  0  0  0  0  0  0  0  0  0  0  0
   65.6100   33.0930   49.7430 C   0  0  0  0  0  0  0  0  0  0  0  0
   66.3776   33.8304   49.4655 H   0  0  0  0  0  0  0  0  0  0  0  0
  1  2  1  0
  2  3  2  0
  3  4  1  0
  3  5  1  0
  5  6  1  0
  5  7  2  0
  7  8  1  0
  8  9  2  0
  8 10  1  0
 10 11  2  3
 11 12  1  0
 12 13  2  0
 12 14  1  0
 14 15  2  0
 15 16  1  0
 16 17  1  0
 16 18  2  0
 18 19  1  0
 18 20  1  0
 20 21  1  0
 20 22  2  0
 22 23  1  0
 22 24  1  0
 24 25  1  0
 11 26  1  0
 26 27  1  0
 26 28  1  0
 26 29  1  0
 29 30  2  0
 30 31  1  0
 30 32  1  0
 32 33  1  0
 32 34  2  0
 34 35  1  0
 34 36  1  0
 36 37  1  0
 37 38  2  0
 37 39  1  0
 36 40  2  0
 40 41  1  0
  7 42  1  0
 42 43  1  0
 42 44  2  0
 44 45  1  0
 44  2  1  0
 24 15  1  0
 40 29  1  0
M  CHG  2  37   1  39  -1
M  END
>  <UniqueID>  (54) 
51

>  <SMILES>  (54) 
O=C(/N=c1/cccc[nH]1)C(Cc1cccc([N+](=O)[O-])c1)=NC(=O)c1ccccc1

>  <Energy>  (54) 
63.285440680936205

>  <Genealogy>  (54) 
O=C(/N=c1/cccc[nH]1)C(Cc1cccc([N+](=O)[O-])c1)=NC(=O)c1ccccc1 (cis-trans isomerization)
O=C(/N=c1/cccc[nH]1)C(Cc1cccc([N+](=O)[O-])c1)=NC(=O)c1ccccc1 (3D coordinates assigned)
O=C(/N=c1/cccc[nH]1)C(Cc1cccc([N+](=O)[O-])c1)=NC(=O)c1ccccc1 (optimized conformer: 63.285440680936205 kcal/mol)

>  <smiles>  (54) 
O=C(N=c1cccc[nH]1)C(Cc1cccc([N+](=O)[O-])c1)=NC(=O)c1ccccc1

>  <score_type>  (54) 
oracle

>  <origin>  (54) 
adg

>  <m_score__min__energy>  (54) 
-8.6899999999999995

>  <m_primary>  (54) 
energy

$$$$
54:0
     RDKit          3D

 27 28  0  0  0  0  0  0  0  0999 V2000
   57.9670   33.3320   47.0950 C   0  0  0  0  0  0  0  0  0  0  0  0
   58.4950   31.9270   46.9800 C   0  0  0  0  0  0  0  0  0  0  0  0
   59.2770   31.4070   48.0240 C   0  0  0  0  0  0  0  0  0  0  0  0
   59.7520   30.0980   47.9700 C   0  0  0  0  0  0  0  0  0  0  0  0
   59.4700   29.2980   46.8660 C   0  0  0  0  0  0  0  0  0  0  0  0
   58.7280   29.8020   45.7920 C   0  0  0  0  0  0  0  0  0  0  0  0
   58.4610   28.7350   44.3640 S   0  0  0  0  0  0  0  0  0  0  0  0
   57.6550   27.4390   45.3220 C   0  0  0  0  0  0  0  0  0  0  0  0
   56.2910   27.5160   45.6300 C   0  0  0  0  0  0  0  0  0  0  0  0
   55.5370   28.6100   45.2200 O   0  0  0  0  0  0  0  0  0  0  0  0
   55.6980   26.5230   46.3480 N   0  0  0  0  0  0  0  0  0  0  0  0
   56.4180   25.4580   46.7910 C   0  0  0  0  0  0  0  0  0  0  0  0
   55.8560   24.5460   47.4530 O   0  0  0  0  0  0  0  0  0  0  0  0
   57.7460   25.3770   46.5260 N   0  0  0  0  0  0  0  0  0  0  0  0
   58.3800   26.3420   45.8110 C   0  0  0  0  0  0  0  0  0  0  0  0
   59.6170   26.2430   45.5970 O   0  0  0  0  0  0  0  0  0  0  0  0
   58.2210   31.1220   45.8450 C   0  0  0  0  0  0  0  0  0  0  0  0
   57.4150   31.6340   44.7690 N   0  0  0  0  0  0  0  0  0  0  0  0
   56.2550   31.2100   44.5940 O   0  0  0  0  0  0  0  0  0  0  0  0
   57.9000   32.6240   43.9460 O   0  0  0  0  0  0  0  0  0  0  0  0
   57.8663   33.6001   48.1571 H   0  0  0  0  0  0  0  0  0  0  0  0
   58.6652   34.0273   46.6060 H   0  0  0  0  0  0  0  0  0  0  0  0
   56.9837   33.3954   46.6060 H   0  0  0  0  0  0  0  0  0  0  0  0
   59.5168   32.0385   48.8922 H   0  0  0  0  0  0  0  0  0  0  0  0
   60.3506   29.6962   48.8008 H   0  0  0  0  0  0  0  0  0  0  0  0
   59.8338   28.2603   46.8378 H   0  0  0  0  0  0  0  0  0  0  0  0
   54.6780   26.5880   46.5660 H   0  0  0  0  0  0  0  0  0  0  0  0
  1  2  1  0
  2  3  2  0
  3  4  1  0
  4  5  2  0
  5  6  1  0
  6  7  1  0
  7  8  1  0
  8  9  2  0
  9 10  1  0
  9 11  1  0
 11 12  1  0
 12 13  2  0
 12 14  1  0
 14 15  1  0
 15 16  2  0
  6 17  2  0
 17 18  1  0
 18 19  2  0
 18 20  1  0
 17  2  1  0
 15  8  1  0
  1 21  1  0
  1 22  1  0
  1 23  1  0
  3 24  1  0
  4 25  1  0
  5 26  1  0
 11 27  1  0
M  CHG  4  10  -1  14  -1  18   1  20  -1
M  END
>  <UniqueID>  (55) 
52

>  <SMILES>  (55) 
Cc1cccc(Sc2c([O-])[nH]c(=O)[n-]c2=O)c1[N+](=O)[O-]

>  <Energy>  (55) 
32.76997433801225

>  <Genealogy>  (55) 
Cc1cccc(Sc2c([O-])[nH]c(=O)[n-]c2=O)c1[N+](=O)[O-] (protonated)
Cc1cccc(Sc2c([O-])[nH]c(=O)[n-]c2=O)c1[N+](=O)[O-] (3D coordinates assigned)
Cc1cccc(Sc2c([O-])[nH]c(=O)[n-]c2=O)c1[N+](=O)[O-] (optimized conformer: 32.76997433801225 kcal/mol)

>  <smiles>  (55) 
Cc1cccc(Sc2c(O)[nH]c(=O)[nH]c2=O)c1[N+](=O)[O-]

>  <score_type>  (55) 
oracle

>  <origin>  (55) 
adg

>  <m_score__min__energy>  (55) 
-12.25

>  <m_primary>  (55) 
energy

$$$$
55:0
     RDKit          3D

 40 42  0  0  0  0  0  0  0  0999 V2000
   59.7870   34.1400   49.9360 O   0  0  0  0  0  0  0  0  0  0  0  0
   59.9090   33.9670   48.6930 C   0  0  0  0  0  0  0  0  0  0  0  0
   59.3260   34.9680   47.7480 C   0  0  0  0  0  0  0  0  0  0  0  0
   58.7700   34.2700   46.5380 C   0  0  0  0  0  0  0  0  0  0  0  0
   59.3950   34.4100   45.2870 C   0  0  0  0  0  0  0  0  0  0  0  0
   58.8560   33.7880   44.1570 C   0  0  0  0  0  0  0  0  0  0  0  0
   57.6840   33.0320   44.2630 C   0  0  0  0  0  0  0  0  0  0  0  0
   57.0490   32.8980   45.5010 C   0  0  0  0  0  0  0  0  0  0  0  0
   57.5860   33.5180   46.6350 C   0  0  0  0  0  0  0  0  0  0  0  0
   60.5010   32.7710   48.1710 N   0  0  0  0  0  0  0  0  0  0  0  0
   59.9290   31.4530   48.1730 C   0  0  0  0  0  0  0  0  0  0  0  0
   59.4860   30.8420   46.9840 C   0  0  0  0  0  0  0  0  0  0  0  0
   58.9040   29.5610   47.0120 C   0  0  0  0  0  0  0  0  0  0  0  0
   58.4690   28.8980   45.8170 N   0  0  0  0  0  0  0  0  0  0  0  0
   57.2730   28.1210   45.6580 C   0  0  0  0  0  0  0  0  0  0  0  0
   56.2550   28.6450   45.1280 O   0  0  0  0  0  0  0  0  0  0  0  0
   57.2100   26.7250   46.1710 C   0  0  0  0  0  0  0  0  0  0  0  0
   55.9750   26.0660   46.3590 C   0  0  0  0  0  0  0  0  0  0  0  0
   54.7700   26.7010   46.0830 O   0  0  0  0  0  0  0  0  0  0  0  0
   55.9470   24.7950   46.8350 N   0  0  0  0  0  0  0  0  0  0  0  0
   57.0890   24.1320   47.1440 C   0  0  0  0  0  0  0  0  0  0  0  0
   57.0340   22.9560   47.5850 O   0  0  0  0  0  0  0  0  0  0  0  0
   58.2900   24.7380   46.9790 N   0  0  0  0  0  0  0  0  0  0  0  0
   58.3800   26.0080   46.5030 C   0  0  0  0  0  0  0  0  0  0  0  0
   59.5210   26.5220   46.3570 O   0  0  0  0  0  0  0  0  0  0  0  0
   58.7930   28.8870   48.2320 C   0  0  0  0  0  0  0  0  0  0  0  0
   59.2030   29.4970   49.4180 C   0  0  0  0  0  0  0  0  0  0  0  0
   59.7600   30.7800   49.3980 C   0  0  0  0  0  0  0  0  0  0  0  0
   60.1500   31.3600   50.6060 O   0  0  0  0  0  0  0  0  0  0  0  0
   58.5193   35.5192   48.2533 H   0  0  0  0  0  0  0  0  0  0  0  0
   60.1140   35.6671   47.4312 H   0  0  0  0  0  0  0  0  0  0  0  0
   60.3117   35.0112   45.1967 H   0  0  0  0  0  0  0  0  0  0  0  0
   59.3547   33.8934   43.1822 H   0  0  0  0  0  0  0  0  0  0  0  0
   57.2622   32.5431   43.3725 H   0  0  0  0  0  0  0  0  0  0  0  0
   56.1264   32.3047   45.5840 H   0  0  0  0  0  0  0  0  0  0  0  0
   57.0796   33.4165   47.6062 H   0  0  0  0  0  0  0  0  0  0  0  0
   59.5958   31.3704   46.0255 H   0  0  0  0  0  0  0  0  0  0  0  0
   58.3793   27.8681   48.2570 H   0  0  0  0  0  0  0  0  0  0  0  0
   59.0875   28.9659   50.3743 H   0  0  0  0  0  0  0  0  0  0  0  0
   60.4780   32.3170   50.6680 H   0  0  0  0  0  0  0  0  0  0  0  0
  1  2  2  0
  2  3  1  0
  3  4  1  0
  4  5  2  0
  5  6  1  0
  6  7  2  0
  7  8  1  0
  8  9  2  0
  2 10  1  0
 10 11  1  0
 11 12  2  0
 12 13  1  0
 13 14  1  0
 14 15  1  0
 15 16  2  0
 15 17  1  0
 17 18  2  0
 18 19  1  0
 18 20  1  0
 20 21  1  0
 21 22  2  0
 21 23  1  0
 23 24  1  0
 24 25  2  0
 13 26  2  0
 26 27  1  0
 27 28  2  0
 28 29  1  0
  9  4  1  0
 28 11  1  0
 24 17  1  0
  3 30  1  0
  3 31  1  0
  5 32  1  0
  6 33  1  0
  7 34  1  0
  8 35  1  0
  9 36  1  0
 12 37  1  0
 26 38  1  0
 27 39  1  0
 29 40  1  0
M  CHG  5  10  -1  14  -1  19  -1  20  -1  23  -1
M  END
>  <UniqueID>  (56) 
53

>  <SMILES>  (56) 
O=C(Cc1ccccc1)[N-]c1cc([N-]C(=O)c2c([O-])[n-]c(=O)[n-]c2=O)ccc1O

>  <Energy>  (56) 
54.27006557230203

>  <Genealogy>  (56) 
O=C(Cc1ccccc1)[N-]c1cc([N-]C(=O)c2c([O-])[n-]c(=O)[n-]c2=O)ccc1O (protonated)
O=C(Cc1ccccc1)[N-]c1cc([N-]C(=O)c2c([O-])[n-]c(=O)[n-]c2=O)ccc1O (3D coordinates assigned)
O=C(Cc1ccccc1)[N-]c1cc([N-]C(=O)c2c([O-])[n-]c(=O)[n-]c2=O)ccc1O (optimized conformer: 54.27006557230203 kcal/mol)

>  <smiles>  (56) 
O=C(Cc1ccccc1)Nc1cc(NC(=O)c2c(O)[nH]c(=O)[nH]c2=O)ccc1O

>  <score_type>  (56) 
oracle

>  <origin>  (56) 
adg

>  <m_score__min__energy>  (56) 
-17.850000000000001

>  <m_primary>  (56) 
energy

$$$$
56:0
     RDKit          3D

 51 52  0  0  0  0  0  0  0  0999 V2000
   63.1430   33.8220   46.7180 C   0  0  0  0  0  0  0  0  0  0  0  0
   62.7490   32.9170   47.8830 C   0  0  0  0  0  0  0  0  0  0  0  0
   61.2810   33.0970   48.3050 C   0  0  0  0  0  0  0  0  0  0  0  0
   60.3650   32.3430   47.4280 N   0  0  0  0  0  0  0  0  0  0  0  0
   60.5110   30.9150   47.2950 C   0  0  0  0  0  0  0  0  0  0  0  0
   61.5460   30.4490   46.7460 O   0  0  0  0  0  0  0  0  0  0  0  0
   59.4550   29.9610   47.7840 C   0  0  0  0  0  0  0  0  0  0  0  0
   59.2720   28.8320   46.8060 C   0  0  0  0  0  0  0  0  0  0  0  0
   59.7970   27.5530   46.9300 C   0  0  0  0  0  0  0  0  0  0  0  0
   60.6030   27.0380   48.0820 C   0  0  0  0  0  0  0  0  0  0  0  0
   59.4510   26.8010   45.8700 N   0  0  0  0  0  0  0  0  0  0  0  0
   58.7220   27.5820   45.0510 C   0  0  0  0  0  0  0  0  0  0  0  0
   58.1650   27.1010   43.7470 C   0  0  0  0  0  0  0  0  0  0  0  0
   58.5890   28.8590   45.5910 C   0  0  0  0  0  0  0  0  0  0  0  0
   57.8790   30.0090   44.9860 C   0  0  0  0  0  0  0  0  0  0  0  0
   58.5320   30.9270   44.4200 O   0  0  0  0  0  0  0  0  0  0  0  0
   56.4840   30.0860   45.0580 O   0  0  0  0  0  0  0  0  0  0  0  0
   55.6360   30.1730   43.9160 C   0  0  0  0  0  0  0  0  0  0  0  0
   56.4190   29.8650   42.6450 C   0  0  0  0  0  0  0  0  0  0  0  0
   59.3660   33.0290   46.6300 C   0  0  0  0  0  0  0  0  0  0  0  0
   59.7320   33.9570   45.6330 C   0  0  0  0  0  0  0  0  0  0  0  0
   58.7550   34.6220   44.8850 C   0  0  0  0  0  0  0  0  0  0  0  0
   57.4010   34.3740   45.1210 C   0  0  0  0  0  0  0  0  0  0  0  0
   57.0210   33.4620   46.1050 C   0  0  0  0  0  0  0  0  0  0  0  0
   57.9930   32.7920   46.8540 C   0  0  0  0  0  0  0  0  0  0  0  0
   63.5535   34.7648   47.1087 H   0  0  0  0  0  0  0  0  0  0  0  0
   63.9032   33.3181   46.1030 H   0  0  0  0  0  0  0  0  0  0  0  0
   62.2562   34.0351   46.1030 H   0  0  0  0  0  0  0  0  0  0  0  0
   62.9029   31.8700   47.5828 H   0  0  0  0  0  0  0  0  0  0  0  0
   63.3777   33.1905   48.7432 H   0  0  0  0  0  0  0  0  0  0  0  0
   61.1606   32.7392   49.3382 H   0  0  0  0  0  0  0  0  0  0  0  0
   61.0299   34.1650   48.2261 H   0  0  0  0  0  0  0  0  0  0  0  0
   59.7606   29.5506   48.7577 H   0  0  0  0  0  0  0  0  0  0  0  0
   58.5034   30.5037   47.8834 H   0  0  0  0  0  0  0  0  0  0  0  0
   60.1280   27.3415   49.0266 H   0  0  0  0  0  0  0  0  0  0  0  0
   60.6530   25.9402   48.0329 H   0  0  0  0  0  0  0  0  0  0  0  0
   61.6202   27.4539   48.0329 H   0  0  0  0  0  0  0  0  0  0  0  0
   59.7030   25.7990   45.7120 H   0  0  0  0  0  0  0  0  0  0  0  0
   57.3450   26.3929   43.9374 H   0  0  0  0  0  0  0  0  0  0  0  0
   57.7834   27.9581   43.1728 H   0  0  0  0  0  0  0  0  0  0  0  0
   58.9574   26.5986   43.1728 H   0  0  0  0  0  0  0  0  0  0  0  0
   54.8142   29.4491   44.0193 H   0  0  0  0  0  0  0  0  0  0  0  0
   55.2348   31.1949   43.8478 H   0  0  0  0  0  0  0  0  0  0  0  0
   57.4121   29.4744   42.9117 H   0  0  0  0  0  0  0  0  0  0  0  0
   55.8762   29.1134   42.0530 H   0  0  0  0  0  0  0  0  0  0  0  0
   56.5338   30.7850   42.0530 H   0  0  0  0  0  0  0  0  0  0  0  0
   60.7961   34.1597   45.4418 H   0  0  0  0  0  0  0  0  0  0  0  0
   59.0538   35.3421   44.1090 H   0  0  0  0  0  0  0  0  0  0  0  0
   56.6346   34.8979   44.5309 H   0  0  0  0  0  0  0  0  0  0  0  0
   55.9543   33.2693   46.2923 H   0  0  0  0  0  0  0  0  0  0  0  0
   57.6841   32.0722   47.6264 H   0  0  0  0  0  0  0  0  0  0  0  0
  1  2  1  0
  2  3  1  0
  3  4  1  0
  4  5  1  0
  5  6  2  0
  5  7  1  0
  7  8  1  0
  8  9  2  0
  9 10  1  0
  9 11  1  0
 11 12  1  0
 12 13  1  0
 12 14  2  0
 14 15  1  0
 15 16  2  0
 15 17  1  0
 17 18  1  0
 18 19  1  0
  4 20  1  0
 20 21  2  0
 21 22  1  0
 22 23  2  0
 23 24  1  0
 24 25  2  0
 14  8  1  0
 25 20  1  0
  1 26  1  0
  1 27  1  0
  1 28  1  0
  2 29  1  0
  2 30  1  0
  3 31  1  0
  3 32  1  0
  7 33  1  0
  7 34  1  0
 10 35  1  0
 10 36  1  0
 10 37  1  0
 11 38  1  0
 13 39  1  0
 13 40  1  0
 13 41  1  0
 18 42  1  0
 18 43  1  0
 19 44  1  0
 19 45  1  0
 19 46  1  0
 21 47  1  0
 22 48  1  0
 23 49  1  0
 24 50  1  0
 25 51  1  0
M  END
>  <UniqueID>  (57) 
54

>  <SMILES>  (57) 
CCCN(C(=O)Cc1c(C)[nH]c(C)c1C(=O)OCC)c1ccccc1

>  <Energy>  (57) 
70.9519220085436

>  <Genealogy>  (57) 
CCCN(C(=O)Cc1c(C)[nH]c(C)c1C(=O)OCC)c1ccccc1 (3D coordinates assigned)
CCCN(C(=O)Cc1c(C)[nH]c(C)c1C(=O)OCC)c1ccccc1 (optimized conformer: 70.9519220085436 kcal/mol)

>  <smiles>  (57) 
CCCN(C(=O)Cc1c(C)[nH]c(C)c1C(=O)OCC)c1ccccc1

>  <score_type>  (57) 
oracle

>  <origin>  (57) 
adg

>  <m_score__min__energy>  (57) 
-7.4699999999999998

>  <m_primary>  (57) 
energy

$$$$
57:0
     RDKit          3D

 58 60  0  0  0  0  0  0  0  0999 V2000
   60.3650   28.7380   50.0060 C   0  0  0  0  0  0  0  0  0  0  0  0
   60.9010   29.7430   49.0200 C   0  0  0  0  0  0  0  0  0  0  0  0
   60.3650   29.7600   47.7230 C   0  0  0  0  0  0  0  0  0  0  0  0
   60.7980   30.6940   46.7880 C   0  0  0  0  0  0  0  0  0  0  0  0
   61.7640   31.6330   47.1330 C   0  0  0  0  0  0  0  0  0  0  0  0
   62.3430   31.6330   48.4130 C   0  0  0  0  0  0  0  0  0  0  0  0
   63.4040   32.6740   48.7120 C   0  0  0  0  0  0  0  0  0  0  0  0
   62.8060   34.0190   49.1660 C   0  0  0  0  0  0  0  0  0  0  0  0
   61.6320   33.8320   50.1110 C   0  0  0  0  0  0  0  0  0  0  0  0
   61.9480   33.6090   51.4670 C   0  0  0  0  0  0  0  0  0  0  0  0
   60.9490   33.4210   52.4190 C   0  0  0  0  0  0  0  0  0  0  0  0
   59.6140   33.4510   52.0390 C   0  0  0  0  0  0  0  0  0  0  0  0
   59.2690   33.6650   50.7050 C   0  0  0  0  0  0  0  0  0  0  0  0
   60.2570   33.8550   49.7140 C   0  0  0  0  0  0  0  0  0  0  0  0
   59.7870   34.0640   48.3110 C   0  0  0  0  0  0  0  0  0  0  0  0
   60.3240   34.9260   47.5720 O   0  0  0  0  0  0  0  0  0  0  0  0
   58.7050   33.2650   47.8060 N   0  0  0  0  0  0  0  0  0  0  0  0
   58.3860   32.9410   46.4430 C   0  0  0  0  0  0  0  0  0  0  0  0
   58.6110   33.9190   45.4650 C   0  0  0  0  0  0  0  0  0  0  0  0
   58.3090   33.6660   44.1240 C   0  0  0  0  0  0  0  0  0  0  0  0
   57.7760   32.4320   43.7480 C   0  0  0  0  0  0  0  0  0  0  0  0
   57.5290   31.4480   44.7140 C   0  0  0  0  0  0  0  0  0  0  0  0
   56.8540   29.8860   44.2380 S   0  0  0  0  0  0  0  0  0  0  0  0
   56.6640   29.8680   42.7470 O   0  0  0  0  0  0  0  0  0  0  0  0
   55.5040   29.7160   44.8780 O   0  0  0  0  0  0  0  0  0  0  0  0
   57.8940   28.5640   44.7090 N   0  0  0  0  0  0  0  0  0  0  0  0
   57.6830   28.2470   46.1280 C   0  0  0  0  0  0  0  0  0  0  0  0
   59.2980   28.9240   44.4730 C   0  0  0  0  0  0  0  0  0  0  0  0
   57.8180   31.7070   46.0620 C   0  0  0  0  0  0  0  0  0  0  0  0
   61.9400   30.6520   49.3640 C   0  0  0  0  0  0  0  0  0  0  0  0
   62.5630   30.6160   50.7450 C   0  0  0  0  0  0  0  0  0  0  0  0
   60.5540   29.0923   51.0301 H   0  0  0  0  0  0  0  0  0  0  0  0
   59.2824   28.6166   49.8539 H   0  0  0  0  0  0  0  0  0  0  0  0
   60.8673   27.7713   49.8539 H   0  0  0  0  0  0  0  0  0  0  0  0
   59.5943   29.0268   47.4431 H   0  0  0  0  0  0  0  0  0  0  0  0
   60.3751   30.6900   45.7725 H   0  0  0  0  0  0  0  0  0  0  0  0
   62.0787   32.3851   46.3945 H   0  0  0  0  0  0  0  0  0  0  0  0
   64.0569   32.2917   49.5105 H   0  0  0  0  0  0  0  0  0  0  0  0
   63.9625   32.8558   47.7819 H   0  0  0  0  0  0  0  0  0  0  0  0
   63.5866   34.5987   49.6804 H   0  0  0  0  0  0  0  0  0  0  0  0
   62.4410   34.5464   48.2724 H   0  0  0  0  0  0  0  0  0  0  0  0
   63.0026   33.5831   51.7785 H   0  0  0  0  0  0  0  0  0  0  0  0
   61.2176   33.2488   53.4717 H   0  0  0  0  0  0  0  0  0  0  0  0
   58.8260   33.3055   52.7926 H   0  0  0  0  0  0  0  0  0  0  0  0
   58.2070   33.6862   50.4191 H   0  0  0  0  0  0  0  0  0  0  0  0
   59.0289   34.8943   45.7552 H   0  0  0  0  0  0  0  0  0  0  0  0
   58.4915   34.4402   43.3642 H   0  0  0  0  0  0  0  0  0  0  0  0
   57.5493   32.2316   42.6904 H   0  0  0  0  0  0  0  0  0  0  0  0
   58.1854   29.0017   46.7509 H   0  0  0  0  0  0  0  0  0  0  0  0
   56.6052   28.2486   46.3477 H   0  0  0  0  0  0  0  0  0  0  0  0
   58.1005   27.2533   46.3477 H   0  0  0  0  0  0  0  0  0  0  0  0
   59.8100   29.0553   45.4377 H   0  0  0  0  0  0  0  0  0  0  0  0
   59.7909   28.1232   43.9023 H   0  0  0  0  0  0  0  0  0  0  0  0
   59.3448   29.8632   43.9023 H   0  0  0  0  0  0  0  0  0  0  0  0
   57.6009   30.9450   46.8250 H   0  0  0  0  0  0  0  0  0  0  0  0
   61.7702   30.6618   51.5062 H   0  0  0  0  0  0  0  0  0  0  0  0
   63.1337   29.6834   50.8656 H   0  0  0  0  0  0  0  0  0  0  0  0
   63.2373   31.4767   50.8656 H   0  0  0  0  0  0  0  0  0  0  0  0
  1  2  1  0
  2  3  2  0
  3  4  1  0
  4  5  2  0
  5  6  1  0
  6  7  1  0
  7  8  1  0
  8  9  1  0
  9 10  2  0
 10 11  1  0
 11 12  2  0
 12 13  1  0
 13 14  2  0
 14 15  1  0
 15 16  2  0
 15 17  1  0
 17 18  1  0
 18 19  2  0
 19 20  1  0
 20 21  2  0
 21 22  1  0
 22 23  1  0
 23 24  2  0
 23 25  2  0
 23 26  1  0
 26 27  1  0
 26 28  1  0
 22 29  2  0
  6 30  2  0
 30 31  1  0
 30  2  1  0
 14  9  1  0
 29 18  1  0
  1 32  1  0
  1 33  1  0
  1 34  1  0
  3 35  1  0
  4 36  1  0
  5 37  1  0
  7 38  1  0
  7 39  1  0
  8 40  1  0
  8 41  1  0
 10 42  1  0
 11 43  1  0
 12 44  1  0
 13 45  1  0
 19 46  1  0
 20 47  1  0
 21 48  1  0
 27 49  1  0
 27 50  1  0
 27 51  1  0
 28 52  1  0
 28 53  1  0
 28 54  1  0
 29 55  1  0
 31 56  1  0
 31 57  1  0
 31 58  1  0
M  CHG  1  17  -1
M  END
>  <UniqueID>  (58) 
55

>  <SMILES>  (58) 
Cc1cccc(CCc2ccccc2C(=O)[N-]c2cccc(S(=O)(=O)N(C)C)c2)c1C

>  <Energy>  (58) 
65.54952591316639

>  <Genealogy>  (58) 
Cc1cccc(CCc2ccccc2C(=O)[N-]c2cccc(S(=O)(=O)N(C)C)c2)c1C (protonated)
Cc1cccc(CCc2ccccc2C(=O)[N-]c2cccc(S(=O)(=O)N(C)C)c2)c1C (3D coordinates assigned)
Cc1cccc(CCc2ccccc2C(=O)[N-]c2cccc(S(=O)(=O)N(C)C)c2)c1C (optimized conformer: 65.54952591316639 kcal/mol)

>  <smiles>  (58) 
Cc1cccc(CCc2ccccc2C(=O)Nc2cccc(S(=O)(=O)N(C)C)c2)c1C

>  <score_type>  (58) 
oracle

>  <origin>  (58) 
adg

>  <m_score__min__energy>  (58) 
-11.630000000000001

>  <m_primary>  (58) 
energy

$$$$
58:0
     RDKit          3D

 48 50  0  0  0  0  0  0  0  0999 V2000
   61.5363   34.7306   48.1657 H   0  0  0  0  0  0  0  0  0  0  0  0
   60.9800   33.8640   47.7790 C   0  0  0  0  0  0  0  0  0  0  0  0
   59.9120   34.0620   46.8980 C   0  0  0  0  0  0  0  0  0  0  0  0
   59.6399   35.0811   46.5860 H   0  0  0  0  0  0  0  0  0  0  0  0
   59.1880   32.9660   46.4120 C   0  0  0  0  0  0  0  0  0  0  0  0
   57.8240   33.2020   45.3250 S   0  0  0  0  0  0  0  0  0  0  0  0
   56.5500   33.3840   46.1020 O   0  0  0  0  0  0  0  0  0  0  0  0
   58.0600   34.4370   44.5010 O   0  0  0  0  0  0  0  0  0  0  0  0
   57.6710   31.8350   44.2730 N   0  0  0  0  0  0  0  0  0  0  0  0
   57.1090   30.7290   44.6500 C   0  0  0  0  0  0  0  0  0  0  0  0
   55.8190   30.5640   44.8230 O   0  0  0  0  0  0  0  0  0  0  0  0
   55.5560   29.3410   45.1860 N   0  0  0  0  0  0  0  0  0  0  0  0
   56.7340   28.6840   45.2450 C   0  0  0  0  0  0  0  0  0  0  0  0
   56.8700   27.2470   45.6290 C   0  0  0  0  0  0  0  0  0  0  0  0
   56.8783   27.1597   46.7255 H   0  0  0  0  0  0  0  0  0  0  0  0
   56.0218   26.6769   45.2222 H   0  0  0  0  0  0  0  0  0  0  0  0
   57.8101   26.8461   45.2222 H   0  0  0  0  0  0  0  0  0  0  0  0
   57.7640   29.5510   44.9280 C   0  0  0  0  0  0  0  0  0  0  0  0
   59.2230   29.2480   44.7930 C   0  0  0  0  0  0  0  0  0  0  0  0
   59.6722   29.1547   45.7928 H   0  0  0  0  0  0  0  0  0  0  0  0
   59.3521   28.3039   44.2435 H   0  0  0  0  0  0  0  0  0  0  0  0
   59.7174   30.0626   44.2435 H   0  0  0  0  0  0  0  0  0  0  0  0
   59.5300   31.6720   46.8270 C   0  0  0  0  0  0  0  0  0  0  0  0
   58.9550   30.8091   46.4597 H   0  0  0  0  0  0  0  0  0  0  0  0
   60.5990   31.4730   47.7060 C   0  0  0  0  0  0  0  0  0  0  0  0
   60.8564   30.4550   48.0339 H   0  0  0  0  0  0  0  0  0  0  0  0
   61.3470   32.5700   48.1730 C   0  0  0  0  0  0  0  0  0  0  0  0
   62.4320   32.3960   49.1010 N   0  0  0  0  0  0  0  0  0  0  0  0
   62.1800   32.1070   50.0720 H   0  0  0  0  0  0  0  0  0  0  0  0
   63.8110   32.6590   48.7820 C   0  0  0  0  0  0  0  0  0  0  0  0
   64.1150   33.1590   47.6640 O   0  0  0  0  0  0  0  0  0  0  0  0
   64.8920   32.3630   49.7520 C   0  0  0  0  0  0  0  0  0  0  0  0
   64.7410   31.2980   50.6580 C   0  0  0  0  0  0  0  0  0  0  0  0
   63.8214   30.6947   50.6404 H   0  0  0  0  0  0  0  0  0  0  0  0
   65.7510   30.9970   51.5840 C   0  0  0  0  0  0  0  0  0  0  0  0
   65.5930   29.8350   52.5200 C   0  0  0  0  0  0  0  0  0  0  0  0
   65.6416   30.1921   53.5593 H   0  0  0  0  0  0  0  0  0  0  0  0
   64.6209   29.3515   52.3435 H   0  0  0  0  0  0  0  0  0  0  0  0
   66.4008   29.1095   52.3435 H   0  0  0  0  0  0  0  0  0  0  0  0
   66.9370   31.7430   51.5820 C   0  0  0  0  0  0  0  0  0  0  0  0
   67.7431   31.4907   52.2867 H   0  0  0  0  0  0  0  0  0  0  0  0
   67.1020   32.8090   50.6870 C   0  0  0  0  0  0  0  0  0  0  0  0
   68.3930   33.5740   50.6580 C   0  0  0  0  0  0  0  0  0  0  0  0
   68.7256   33.7711   51.6878 H   0  0  0  0  0  0  0  0  0  0  0  0
   69.1576   32.9831   50.1325 H   0  0  0  0  0  0  0  0  0  0  0  0
   68.2419   34.5285   50.1325 H   0  0  0  0  0  0  0  0  0  0  0  0
   66.0870   33.1050   49.7640 C   0  0  0  0  0  0  0  0  0  0  0  0
   66.2272   33.9244   49.0437 H   0  0  0  0  0  0  0  0  0  0  0  0
  1  2  1  0
  2  3  2  0
  3  4  1  0
  3  5  1  0
  5  6  1  0
  6  7  2  0
  6  8  2  0
  6  9  1  0
  9 10  2  0
 10 11  1  0
 11 12  1  0
 12 13  1  0
 13 14  1  0
 14 15  1  0
 14 16  1  0
 14 17  1  0
 13 18  2  0
 18 19  1  0
 19 20  1  0
 19 21  1  0
 19 22  1  0
  5 23  2  0
 23 24  1  0
 23 25  1  0
 25 26  1  0
 25 27  2  0
 27 28  1  0
 28 29  1  0
 28 30  1  0
 30 31  2  0
 30 32  1  0
 32 33  2  0
 33 34  1  0
 33 35  1  0
 35 36  1  0
 36 37  1  0
 36 38  1  0
 36 39  1  0
 35 40  2  0
 40 41  1  0
 40 42  1  0
 42 43  1  0
 43 44  1  0
 43 45  1  0
 43 46  1  0
 42 47  2  0
 47 48  1  0
 27  2  1  0
 47 32  1  0
 18 10  1  0
M  CHG  1  12  -1
M  END
>  <UniqueID>  (59) 
56

>  <SMILES>  (59) 
Cc1cc(C)cc(C(=O)Nc2ccc(S(=O)(=O)/N=c3\o[n-]c(C)c3C)cc2)c1

>  <Energy>  (59) 
87.67233162537039

>  <Genealogy>  (59) 
Cc1cc(C)cc(C(=O)Nc2ccc(S(=O)(=O)N=c3o[n-]c(C)c3C)cc2)c1 (protonated)
Cc1cc(C)cc(C(=O)Nc2ccc(S(=O)(=O)/N=c3\o[n-]c(C)c3C)cc2)c1 (cis-trans isomerization)
Cc1cc(C)cc(C(=O)Nc2ccc(S(=O)(=O)/N=c3\o[n-]c(C)c3C)cc2)c1 (3D coordinates assigned)
Cc1cc(C)cc(C(=O)Nc2ccc(S(=O)(=O)/N=c3\o[n-]c(C)c3C)cc2)c1 (optimized conformer: 87.67233162537039 kcal/mol)

>  <smiles>  (59) 
Cc1cc(C)cc(C(=O)Nc2ccc(S(=O)(=O)N=c3o[nH]c(C)c3C)cc2)c1

>  <score_type>  (59) 
oracle

>  <origin>  (59) 
adg

>  <m_score__min__energy>  (59) 
-11.52

>  <m_primary>  (59) 
energy

$$$$
59:0
     RDKit          3D

 35 36  0  0  0  0  0  0  0  0999 V2000
   54.0390   24.4750   45.9800 O   0  0  0  0  0  0  0  0  0  0  0  0
   55.1630   24.9600   45.6810 C   0  0  0  0  0  0  0  0  0  0  0  0
   55.4810   26.2850   46.1320 N   0  0  0  0  0  0  0  0  0  0  0  0
   56.6250   27.0670   45.7650 C   0  0  0  0  0  0  0  0  0  0  0  0
   57.9280   26.5470   45.8500 C   0  0  0  0  0  0  0  0  0  0  0  0
   59.0200   27.3230   45.4590 C   0  0  0  0  0  0  0  0  0  0  0  0
   58.8220   28.6140   44.9630 C   0  0  0  0  0  0  0  0  0  0  0  0
   57.5250   29.1300   44.8400 C   0  0  0  0  0  0  0  0  0  0  0  0
   57.2690   30.7440   44.1740 S   0  0  0  0  0  0  0  0  0  0  0  0
   55.9080   31.2350   44.5860 O   0  0  0  0  0  0  0  0  0  0  0  0
   57.2980   30.6680   42.6730 O   0  0  0  0  0  0  0  0  0  0  0  0
   58.4830   31.8770   44.7280 N   0  0  0  0  0  0  0  0  0  0  0  0
   58.2420   33.2390   44.1840 C   0  0  0  0  0  0  0  0  0  0  0  0
   57.5160   34.1720   45.1610 C   0  0  0  0  0  0  0  0  0  0  0  0
   58.5580   34.5760   46.6110 S   0  0  0  0  0  0  0  0  0  0  0  0
   59.4310   32.9720   46.7560 C   0  0  0  0  0  0  0  0  0  0  0  0
   58.5960   31.8160   46.2030 C   0  0  0  0  0  0  0  0  0  0  0  0
   56.4300   28.3490   45.2390 C   0  0  0  0  0  0  0  0  0  0  0  0
   56.1370   24.1120   44.9110 C   0  0  0  0  0  0  0  0  0  0  0  0
   56.6600   24.8400   43.8580 F   0  0  0  0  0  0  0  0  0  0  0  0
   57.1650   23.6750   45.7250 F   0  0  0  0  0  0  0  0  0  0  0  0
   55.4840   23.0040   44.4020 F   0  0  0  0  0  0  0  0  0  0  0  0
   58.0875   25.5255   46.2258 H   0  0  0  0  0  0  0  0  0  0  0  0
   60.0391   26.9172   45.5415 H   0  0  0  0  0  0  0  0  0  0  0  0
   59.6865   29.2270   44.6683 H   0  0  0  0  0  0  0  0  0  0  0  0
   59.3910   31.5370   44.3310 H   0  0  0  0  0  0  0  0  0  0  0  0
   59.2133   33.6889   43.9306 H   0  0  0  0  0  0  0  0  0  0  0  0
   57.5913   33.1241   43.3046 H   0  0  0  0  0  0  0  0  0  0  0  0
   57.2563   35.1040   44.6377 H   0  0  0  0  0  0  0  0  0  0  0  0
   56.6127   33.6572   45.5202 H   0  0  0  0  0  0  0  0  0  0  0  0
   60.3752   33.0290   46.1946 H   0  0  0  0  0  0  0  0  0  0  0  0
   59.6151   32.7794   47.8232 H   0  0  0  0  0  0  0  0  0  0  0  0
   59.0727   30.8655   46.4848 H   0  0  0  0  0  0  0  0  0  0  0  0
   57.5839   31.8911   46.6273 H   0  0  0  0  0  0  0  0  0  0  0  0
   55.4098   28.7476   45.1375 H   0  0  0  0  0  0  0  0  0  0  0  0
  1  2  2  0
  2  3  1  0
  3  4  1  0
  4  5  2  0
  5  6  1  0
  6  7  2  0
  7  8  1  0
  8  9  1  0
  9 10  2  0
  9 11  2  0
  9 12  1  0
 12 13  1  0
 13 14  1  0
 14 15  1  0
 15 16  1  0
 16 17  1  0
  8 18  2  0
  2 19  1  0
 19 20  1  0
 19 21  1  0
 19 22  1  0
 18  4  1  0
 17 12  1  0
  5 23  1  0
  6 24  1  0
  7 25  1  0
 12 26  1  0
 13 27  1  0
 13 28  1  0
 14 29  1  0
 14 30  1  0
 16 31  1  0
 16 32  1  0
 17 33  1  0
 17 34  1  0
 18 35  1  0
M  CHG  2   3  -1  12   1
M  END
>  <UniqueID>  (60) 
57

>  <SMILES>  (60) 
O=C([N-]c1cccc(S(=O)(=O)[NH+]2CCSCC2)c1)C(F)(F)F

>  <Energy>  (60) 
42.68126103475633

>  <Genealogy>  (60) 
O=C([N-]c1cccc(S(=O)(=O)[NH+]2CCSCC2)c1)C(F)(F)F (protonated)
O=C([N-]c1cccc(S(=O)(=O)[NH+]2CCSCC2)c1)C(F)(F)F (3D coordinates assigned)
O=C([N-]c1cccc(S(=O)(=O)[NH+]2CCSCC2)c1)C(F)(F)F (nonaromatic ring conformer: 42.68126103475633 kcal/mol)

>  <smiles>  (60) 
O=C(Nc1cccc(S(=O)(=O)N2CCSCC2)c1)C(F)(F)F

>  <score_type>  (60) 
oracle

>  <origin>  (60) 
adg

>  <m_score__min__energy>  (60) 
-7.6200000000000001

>  <m_primary>  (60) 
energy

$$$$
60:0
     RDKit          3D

 65 69  0  0  0  0  0  0  0  0999 V2000
   60.0630   27.4140   45.0290 O   0  0  0  0  0  0  0  0  0  0  0  0
   59.3750   28.1430   45.7940 C   0  0  0  0  0  0  0  0  0  0  0  0
   59.6230   28.1500   47.2050 N   0  0  0  0  0  0  0  0  0  0  0  0
   60.4170   29.1110   47.9130 C   0  0  0  0  0  0  0  0  0  0  0  0
   60.6200   29.0220   49.3010 C   0  0  0  0  0  0  0  0  0  0  0  0
   61.3420   30.0130   49.9730 C   0  0  0  0  0  0  0  0  0  0  0  0
   61.8870   31.0960   49.2660 C   0  0  0  0  0  0  0  0  0  0  0  0
   62.6170   32.1710   49.9780 C   0  0  0  0  0  0  0  0  0  0  0  0
   63.9930   32.3170   49.7270 C   0  0  0  0  0  0  0  0  0  0  0  0
   64.7230   33.3400   50.3310 C   0  0  0  0  0  0  0  0  0  0  0  0
   64.0900   34.2360   51.1900 C   0  0  0  0  0  0  0  0  0  0  0  0
   62.7300   34.0960   51.4670 C   0  0  0  0  0  0  0  0  0  0  0  0
   61.9820   33.0600   50.8860 C   0  0  0  0  0  0  0  0  0  0  0  0
   60.2830   32.8880   51.3620 S   0  0  0  0  0  0  0  0  0  0  0  0
   60.1870   31.8840   52.4780 O   0  0  0  0  0  0  0  0  0  0  0  0
   59.7270   34.2130   51.8070 O   0  0  0  0  0  0  0  0  0  0  0  0
   59.3630   32.3390   50.0000 N   0  0  0  0  0  0  0  0  0  0  0  0
   59.1930   33.0580   48.7680 C   0  0  0  0  0  0  0  0  0  0  0  0
   60.0540   34.1290   48.4920 C   0  0  0  0  0  0  0  0  0  0  0  0
   59.9170   34.8600   47.3080 C   0  0  0  0  0  0  0  0  0  0  0  0
   58.9200   34.5230   46.3870 C   0  0  0  0  0  0  0  0  0  0  0  0
   58.0560   33.4560   46.6530 C   0  0  0  0  0  0  0  0  0  0  0  0
   58.1850   32.7280   47.8400 C   0  0  0  0  0  0  0  0  0  0  0  0
   61.6640   31.1940   47.8830 C   0  0  0  0  0  0  0  0  0  0  0  0
   60.9270   30.2120   47.2160 C   0  0  0  0  0  0  0  0  0  0  0  0
   58.2960   28.9880   45.2400 C   0  0  0  0  0  0  0  0  0  0  0  0
   58.6540   30.1980   44.6280 C   0  0  0  0  0  0  0  0  0  0  0  0
   57.6630   31.0730   44.1720 C   0  0  0  0  0  0  0  0  0  0  0  0
   58.0370   32.3850   43.5430 C   0  0  0  0  0  0  0  0  0  0  0  0
   58.1750   32.2230   42.1760 F   0  0  0  0  0  0  0  0  0  0  0  0
   59.2350   32.8480   44.0620 F   0  0  0  0  0  0  0  0  0  0  0  0
   57.0490   33.3200   43.7940 F   0  0  0  0  0  0  0  0  0  0  0  0
   56.3550   30.7350   44.3150 N   0  0  0  0  0  0  0  0  0  0  0  0
   55.9690   29.5630   44.8810 C   0  0  0  0  0  0  0  0  0  0  0  0
   56.9260   28.6420   45.3480 C   0  0  0  0  0  0  0  0  0  0  0  0
   56.5190   27.3530   45.8590 N   0  0  0  0  0  0  0  0  0  0  0  0
   56.9940   26.0860   45.2990 C   0  0  0  0  0  0  0  0  0  0  0  0
   55.9000   25.0580   45.2920 C   0  0  0  0  0  0  0  0  0  0  0  0
   56.1550   23.7410   44.8790 C   0  0  0  0  0  0  0  0  0  0  0  0
   55.1110   22.8130   44.8710 C   0  0  0  0  0  0  0  0  0  0  0  0
   53.8290   23.2050   45.2590 C   0  0  0  0  0  0  0  0  0  0  0  0
   52.7820   22.2900   45.2530 O   0  0  0  0  0  0  0  0  0  0  0  0
   53.6070   24.5290   45.6510 C   0  0  0  0  0  0  0  0  0  0  0  0
   54.6370   25.4180   45.6560 N   0  0  0  0  0  0  0  0  0  0  0  0
   60.2091   28.1690   49.8610 H   0  0  0  0  0  0  0  0  0  0  0  0
   61.4836   29.9435   51.0616 H   0  0  0  0  0  0  0  0  0  0  0  0
   64.4991   31.6163   49.0466 H   0  0  0  0  0  0  0  0  0  0  0  0
   65.7997   33.4398   50.1291 H   0  0  0  0  0  0  0  0  0  0  0  0
   64.6631   35.0544   51.6501 H   0  0  0  0  0  0  0  0  0  0  0  0
   62.2381   34.8056   52.1485 H   0  0  0  0  0  0  0  0  0  0  0  0
   60.8423   34.3961   49.2112 H   0  0  0  0  0  0  0  0  0  0  0  0
   60.5945   35.7015   47.1006 H   0  0  0  0  0  0  0  0  0  0  0  0
   58.8155   35.0966   45.4543 H   0  0  0  0  0  0  0  0  0  0  0  0
   57.2736   33.1889   45.9273 H   0  0  0  0  0  0  0  0  0  0  0  0
   57.4976   31.8953   48.0500 H   0  0  0  0  0  0  0  0  0  0  0  0
   62.0715   32.0480   47.3220 H   0  0  0  0  0  0  0  0  0  0  0  0
   60.7464   30.3051   46.1349 H   0  0  0  0  0  0  0  0  0  0  0  0
   59.7156   30.4591   44.5065 H   0  0  0  0  0  0  0  0  0  0  0  0
   54.8980   29.3306   44.9757 H   0  0  0  0  0  0  0  0  0  0  0  0
   55.9000   27.3160   46.7000 H   0  0  0  0  0  0  0  0  0  0  0  0
   57.3362   26.2544   44.2672 H   0  0  0  0  0  0  0  0  0  0  0  0
   57.8203   25.7146   45.9229 H   0  0  0  0  0  0  0  0  0  0  0  0
   57.1662   23.4428   44.5650 H   0  0  0  0  0  0  0  0  0  0  0  0
   55.2990   21.7749   44.5594 H   0  0  0  0  0  0  0  0  0  0  0  0
   52.6003   24.8515   45.9551 H   0  0  0  0  0  0  0  0  0  0  0  0
  1  2  2  0
  2  3  1  0
  3  4  1  0
  4  5  2  0
  5  6  1  0
  6  7  2  0
  7  8  1  0
  8  9  2  0
  9 10  1  0
 10 11  2  0
 11 12  1  0
 12 13  2  0
 13 14  1  0
 14 15  2  0
 14 16  2  0
 14 17  1  0
 17 18  1  0
 18 19  2  0
 19 20  1  0
 20 21  2  0
 21 22  1  0
 22 23  2  0
  7 24  1  0
 24 25  2  0
  2 26  1  0
 26 27  2  0
 27 28  1  0
 28 29  1  0
 29 30  1  0
 29 31  1  0
 29 32  1  0
 28 33  2  0
 33 34  1  0
 34 35  2  0
 35 36  1  0
 36 37  1  0
 37 38  1  0
 38 39  2  0
 39 40  1  0
 40 41  2  0
 41 42  1  0
 41 43  1  0
 43 44  2  0
 25  4  1  0
 35 26  1  0
 44 38  1  0
 13  8  1  0
 23 18  1  0
  5 45  1  0
  6 46  1  0
  9 47  1  0
 10 48  1  0
 11 49  1  0
 12 50  1  0
 19 51  1  0
 20 52  1  0
 21 53  1  0
 22 54  1  0
 23 55  1  0
 24 56  1  0
 25 57  1  0
 27 58  1  0
 34 59  1  0
 36 60  1  0
 37 61  1  0
 37 62  1  0
 39 63  1  0
 40 64  1  0
 43 65  1  0
M  CHG  3   3  -1  17  -1  42  -1
M  END
>  <UniqueID>  (61) 
58

>  <SMILES>  (61) 
O=C([N-]c1ccc(-c2ccccc2S(=O)(=O)[N-]c2ccccc2)cc1)c1cc(C(F)(F)F)ncc1NCc1ccc([O-])cn1

>  <Energy>  (61) 
95.03835473947962

>  <Genealogy>  (61) 
O=C([N-]c1ccc(-c2ccccc2S(=O)(=O)[N-]c2ccccc2)cc1)c1cc(C(F)(F)F)ncc1NCc1ccc([O-])cn1 (protonated)
O=C([N-]c1ccc(-c2ccccc2S(=O)(=O)[N-]c2ccccc2)cc1)c1cc(C(F)(F)F)ncc1NCc1ccc([O-])cn1 (3D coordinates assigned)
O=C([N-]c1ccc(-c2ccccc2S(=O)(=O)[N-]c2ccccc2)cc1)c1cc(C(F)(F)F)ncc1NCc1ccc([O-])cn1 (optimized conformer: 95.03835473947962 kcal/mol)

>  <smiles>  (61) 
O=C(Nc1ccc(-c2ccccc2S(=O)(=O)Nc2ccccc2)cc1)c1cc(C(F)(F)F)ncc1NCc1ccc(O)cn1

>  <score_type>  (61) 
oracle

>  <origin>  (61) 
adg

>  <m_score__min__energy>  (61) 
-16.27

>  <m_primary>  (61) 
energy

$$$$
61:0
     RDKit          3D

 47 49  0  0  0  0  0  0  0  0999 V2000
   57.1880   31.7420   42.4580 O   0  0  0  0  0  0  0  0  0  0  0  0
   57.3790   31.8860   43.6960 C   0  0  0  0  0  0  0  0  0  0  0  0
   58.2720   33.0000   44.1840 C   0  0  0  0  0  0  0  0  0  0  0  0
   57.5130   34.0220   45.0490 C   0  0  0  0  0  0  0  0  0  0  0  0
   57.2100   33.4970   46.4570 C   0  0  0  0  0  0  0  0  0  0  0  0
   58.2300   33.9120   47.3610 O   0  0  0  0  0  0  0  0  0  0  0  0
   59.5710   33.5070   47.2910 C   0  0  0  0  0  0  0  0  0  0  0  0
   59.9260   32.2910   47.8910 C   0  0  0  0  0  0  0  0  0  0  0  0
   61.2520   31.8470   47.8610 C   0  0  0  0  0  0  0  0  0  0  0  0
   62.2350   32.6190   47.2370 C   0  0  0  0  0  0  0  0  0  0  0  0
   61.8930   33.8350   46.6370 C   0  0  0  0  0  0  0  0  0  0  0  0
   60.5670   34.2820   46.6660 C   0  0  0  0  0  0  0  0  0  0  0  0
   56.6940   31.0170   44.6090 N   0  0  0  0  0  0  0  0  0  0  0  0
   57.2510   29.8540   45.2370 C   0  0  0  0  0  0  0  0  0  0  0  0
   58.3090   29.9560   46.1570 C   0  0  0  0  0  0  0  0  0  0  0  0
   58.8470   28.8050   46.7390 C   0  0  0  0  0  0  0  0  0  0  0  0
   58.3470   27.5410   46.4020 C   0  0  0  0  0  0  0  0  0  0  0  0
   59.0040   26.0950   47.1620 S   0  0  0  0  0  0  0  0  0  0  0  0
   59.6220   25.1980   46.1260 O   0  0  0  0  0  0  0  0  0  0  0  0
   60.0550   26.4970   48.1530 O   0  0  0  0  0  0  0  0  0  0  0  0
   57.7470   25.2250   47.9840 N   0  0  0  0  0  0  0  0  0  0  0  0
   56.9290   24.4080   47.3970 C   0  0  0  0  0  0  0  0  0  0  0  0
   55.8610   24.9060   46.7190 N   0  0  0  0  0  0  0  0  0  0  0  0
   54.9850   24.0850   46.0890 C   0  0  0  0  0  0  0  0  0  0  0  0
   55.1740   22.7050   46.1280 C   0  0  0  0  0  0  0  0  0  0  0  0
   56.2710   22.2060   46.8270 C   0  0  0  0  0  0  0  0  0  0  0  0
   57.1250   23.0610   47.4460 N   0  0  0  0  0  0  0  0  0  0  0  0
   57.3220   27.4350   45.4530 C   0  0  0  0  0  0  0  0  0  0  0  0
   56.7820   28.5860   44.8700 C   0  0  0  0  0  0  0  0  0  0  0  0
   59.0853   32.5645   44.7831 H   0  0  0  0  0  0  0  0  0  0  0  0
   58.6613   33.5295   43.3019 H   0  0  0  0  0  0  0  0  0  0  0  0
   58.1249   34.9318   45.1369 H   0  0  0  0  0  0  0  0  0  0  0  0
   56.5508   34.2246   44.5560 H   0  0  0  0  0  0  0  0  0  0  0  0
   56.2411   33.8945   46.7934 H   0  0  0  0  0  0  0  0  0  0  0  0
   57.1738   32.3979   46.4328 H   0  0  0  0  0  0  0  0  0  0  0  0
   59.1569   31.6820   48.3886 H   0  0  0  0  0  0  0  0  0  0  0  0
   61.5212   30.8888   48.3293 H   0  0  0  0  0  0  0  0  0  0  0  0
   63.2781   32.2703   47.2176 H   0  0  0  0  0  0  0  0  0  0  0  0
   62.6665   34.4405   46.1420 H   0  0  0  0  0  0  0  0  0  0  0  0
   60.3019   35.2420   46.1990 H   0  0  0  0  0  0  0  0  0  0  0  0
   58.7144   30.9443   46.4195 H   0  0  0  0  0  0  0  0  0  0  0  0
   59.6679   28.8923   47.4660 H   0  0  0  0  0  0  0  0  0  0  0  0
   54.1259   24.5079   45.5476 H   0  0  0  0  0  0  0  0  0  0  0  0
   54.4740   22.0260   45.6192 H   0  0  0  0  0  0  0  0  0  0  0  0
   56.4450   21.1210   46.8773 H   0  0  0  0  0  0  0  0  0  0  0  0
   56.9408   26.4440   45.1656 H   0  0  0  0  0  0  0  0  0  0  0  0
   55.9839   28.4950   44.1185 H   0  0  0  0  0  0  0  0  0  0  0  0
  1  2  2  0
  2  3  1  0
  3  4  1  0
  4  5  1  0
  5  6  1  0
  6  7  1  0
  7  8  2  0
  8  9  1  0
  9 10  2  0
 10 11  1  0
 11 12  2  0
  2 13  1  0
 13 14  1  0
 14 15  2  0
 15 16  1  0
 16 17  2  0
 17 18  1  0
 18 19  2  0
 18 20  2  0
 18 21  1  0
 21 22  2  3
 22 23  1  0
 23 24  2  0
 24 25  1  0
 25 26  2  0
 26 27  1  0
 17 28  1  0
 28 29  2  0
 12  7  1  0
 29 14  1  0
 27 22  1  0
  3 30  1  0
  3 31  1  0
  4 32  1  0
  4 33  1  0
  5 34  1  0
  5 35  1  0
  8 36  1  0
  9 37  1  0
 10 38  1  0
 11 39  1  0
 12 40  1  0
 15 41  1  0
 16 42  1  0
 24 43  1  0
 25 44  1  0
 26 45  1  0
 28 46  1  0
 29 47  1  0
M  CHG  2  13  -1  27  -1
M  END
>  <UniqueID>  (62) 
59

>  <SMILES>  (62) 
O=C(CCCOc1ccccc1)[N-]c1ccc(S(=O)(=O)N=c2nccc[n-]2)cc1

>  <Energy>  (62) 
53.53600321111887

>  <Genealogy>  (62) 
O=C(CCCOc1ccccc1)[N-]c1ccc(S(=O)(=O)N=c2nccc[n-]2)cc1 (protonated)
O=C(CCCOc1ccccc1)[N-]c1ccc(S(=O)(=O)N=c2nccc[n-]2)cc1 (3D coordinates assigned)
O=C(CCCOc1ccccc1)[N-]c1ccc(S(=O)(=O)N=c2nccc[n-]2)cc1 (optimized conformer: 53.53600321111887 kcal/mol)

>  <smiles>  (62) 
O=C(CCCOc1ccccc1)Nc1ccc(S(=O)(=O)N=c2nccc[nH]2)cc1

>  <score_type>  (62) 
oracle

>  <origin>  (62) 
adg

>  <m_score__min__energy>  (62) 
-10.720000000000001

>  <m_primary>  (62) 
energy

$$$$
62:0
     RDKit          3D

 36 37  0  0  0  0  0  0  0  0999 V2000
   58.8940   29.8020   49.5380 C   0  0  0  0  0  0  0  0  0  0  0  0
   58.5480   30.6740   48.4680 O   0  0  0  0  0  0  0  0  0  0  0  0
   59.2590   31.8370   48.1260 C   0  0  0  0  0  0  0  0  0  0  0  0
   58.8980   33.1040   48.6280 C   0  0  0  0  0  0  0  0  0  0  0  0
   59.6230   34.2420   48.2650 C   0  0  0  0  0  0  0  0  0  0  0  0
   60.7110   34.1310   47.4000 C   0  0  0  0  0  0  0  0  0  0  0  0
   61.0800   32.8830   46.8950 C   0  0  0  0  0  0  0  0  0  0  0  0
   60.3640   31.7290   47.2550 C   0  0  0  0  0  0  0  0  0  0  0  0
   60.7630   30.3910   46.6870 C   0  0  0  0  0  0  0  0  0  0  0  0
   59.6170   29.7490   46.0450 N   0  0  0  0  0  0  0  0  0  0  0  0
   59.7570   28.8650   44.9240 C   0  0  0  0  0  0  0  0  0  0  0  0
   60.8990   28.5990   44.4600 O   0  0  0  0  0  0  0  0  0  0  0  0
   58.5460   28.2290   44.3160 C   0  0  0  0  0  0  0  0  0  0  0  0
   57.0250   28.8650   45.0970 S   0  0  0  0  0  0  0  0  0  0  0  0
   57.3350   30.5760   44.6610 C   0  0  0  0  0  0  0  0  0  0  0  0
   57.5370   30.9400   43.3250 C   0  0  0  0  0  0  0  0  0  0  0  0
   57.7740   32.2800   43.0100 C   0  0  0  0  0  0  0  0  0  0  0  0
   57.8120   33.2360   44.0280 C   0  0  0  0  0  0  0  0  0  0  0  0
   57.6110   32.8340   45.3510 C   0  0  0  0  0  0  0  0  0  0  0  0
   57.3810   31.5240   45.6360 N   0  0  0  0  0  0  0  0  0  0  0  0
   58.6955   30.3022   50.4974 H   0  0  0  0  0  0  0  0  0  0  0  0
   58.2921   28.8836   49.4718 H   0  0  0  0  0  0  0  0  0  0  0  0
   59.9618   29.5461   49.4718 H   0  0  0  0  0  0  0  0  0  0  0  0
   58.0399   33.1973   49.3099 H   0  0  0  0  0  0  0  0  0  0  0  0
   59.3351   35.2266   48.6621 H   0  0  0  0  0  0  0  0  0  0  0  0
   61.2796   35.0285   47.1150 H   0  0  0  0  0  0  0  0  0  0  0  0
   61.9373   32.8025   46.2105 H   0  0  0  0  0  0  0  0  0  0  0  0
   61.5609   30.5359   45.9438 H   0  0  0  0  0  0  0  0  0  0  0  0
   61.1211   29.7481   47.5046 H   0  0  0  0  0  0  0  0  0  0  0  0
   58.6640   29.9300   46.4320 H   0  0  0  0  0  0  0  0  0  0  0  0
   58.5211   28.4547   43.2397 H   0  0  0  0  0  0  0  0  0  0  0  0
   58.5986   27.1420   44.4761 H   0  0  0  0  0  0  0  0  0  0  0  0
   57.5094   30.1789   42.5313 H   0  0  0  0  0  0  0  0  0  0  0  0
   57.9302   32.5816   41.9637 H   0  0  0  0  0  0  0  0  0  0  0  0
   57.9982   34.2938   43.7906 H   0  0  0  0  0  0  0  0  0  0  0  0
   57.6388   33.5767   46.1619 H   0  0  0  0  0  0  0  0  0  0  0  0
  1  2  1  0
  2  3  1  0
  3  4  2  0
  4  5  1  0
  5  6  2  0
  6  7  1  0
  7  8  2  0
  8  9  1  0
  9 10  1  0
 10 11  1  0
 11 12  2  0
 11 13  1  0
 13 14  1  0
 14 15  1  0
 15 16  2  0
 16 17  1  0
 17 18  2  0
 18 19  1  0
 19 20  2  0
  8  3  1  0
 20 15  1  0
  1 21  1  0
  1 22  1  0
  1 23  1  0
  4 24  1  0
  5 25  1  0
  6 26  1  0
  7 27  1  0
  9 28  1  0
  9 29  1  0
 10 30  1  0
 13 31  1  0
 13 32  1  0
 16 33  1  0
 17 34  1  0
 18 35  1  0
 19 36  1  0
M  END
>  <UniqueID>  (63) 
60

>  <SMILES>  (63) 
COc1ccccc1CNC(=O)CSc1ccccn1

>  <Energy>  (63) 
28.885524768445237

>  <Genealogy>  (63) 
COc1ccccc1CNC(=O)CSc1ccccn1 (3D coordinates assigned)
COc1ccccc1CNC(=O)CSc1ccccn1 (optimized conformer: 28.885524768445237 kcal/mol)

>  <smiles>  (63) 
COc1ccccc1CNC(=O)CSc1ccccn1

>  <score_type>  (63) 
oracle

>  <origin>  (63) 
adg

>  <m_score__min__energy>  (63) 
-6.5999999999999996

>  <m_primary>  (63) 
energy

$$$$
63:0
     RDKit          3D

 47 51  0  0  0  0  0  0  0  0999 V2000
   52.7659   22.5588   49.1702 H   0  0  0  0  0  0  0  0  0  0  0  0
   53.7180   22.3830   48.6480 C   0  0  0  0  0  0  0  0  0  0  0  0
   54.8860   22.1620   49.3820 C   0  0  0  0  0  0  0  0  0  0  0  0
   54.8519   22.1556   50.4815 H   0  0  0  0  0  0  0  0  0  0  0  0
   56.0980   21.9490   48.7190 C   0  0  0  0  0  0  0  0  0  0  0  0
   57.2340   21.7550   49.4320 F   0  0  0  0  0  0  0  0  0  0  0  0
   56.1410   21.9470   47.3210 C   0  0  0  0  0  0  0  0  0  0  0  0
   57.0983   21.7918   46.8018 H   0  0  0  0  0  0  0  0  0  0  0  0
   54.9630   22.1430   46.5770 C   0  0  0  0  0  0  0  0  0  0  0  0
   54.9670   22.1520   45.1420 N   0  0  0  0  0  0  0  0  0  0  0  0
   55.8790   22.8650   44.2950 C   0  0  0  0  0  0  0  0  0  0  0  0
   55.9480   22.5490   43.0780 O   0  0  0  0  0  0  0  0  0  0  0  0
   56.7570   23.9400   44.8090 C   0  0  0  0  0  0  0  0  0  0  0  0
   56.1990   25.2140   45.0130 C   0  0  0  0  0  0  0  0  0  0  0  0
   55.1407   25.3863   44.7672 H   0  0  0  0  0  0  0  0  0  0  0  0
   56.9660   26.2660   45.5230 C   0  0  0  0  0  0  0  0  0  0  0  0
   56.3290   27.5320   45.7600 N   0  0  0  0  0  0  0  0  0  0  0  0
   56.6410   28.6750   45.2230 C   0  0  0  0  0  0  0  0  0  0  0  0
   56.2980   28.9670   43.9230 N   0  0  0  0  0  0  0  0  0  0  0  0
   56.5970   30.1710   43.3520 C   0  0  0  0  0  0  0  0  0  0  0  0
   56.2770   30.4130   42.1590 O   0  0  0  0  0  0  0  0  0  0  0  0
   57.2580   31.1120   44.1290 C   0  0  0  0  0  0  0  0  0  0  0  0
   57.5810   30.8060   45.4220 C   0  0  0  0  0  0  0  0  0  0  0  0
   57.2830   29.6120   45.9860 N   0  0  0  0  0  0  0  0  0  0  0  0
   58.2110   31.9040   45.9480 C   0  0  0  0  0  0  0  0  0  0  0  0
   58.7500   32.1620   47.2050 C   0  0  0  0  0  0  0  0  0  0  0  0
   58.7181   31.4075   48.0049 H   0  0  0  0  0  0  0  0  0  0  0  0
   59.3370   33.4230   47.4150 C   0  0  0  0  0  0  0  0  0  0  0  0
   59.7745   33.6650   48.3948 H   0  0  0  0  0  0  0  0  0  0  0  0
   59.3690   34.3820   46.3760 C   0  0  0  0  0  0  0  0  0  0  0  0
   59.8305   35.3642   46.5556 H   0  0  0  0  0  0  0  0  0  0  0  0
   58.8160   34.0920   45.1140 C   0  0  0  0  0  0  0  0  0  0  0  0
   58.8383   34.8327   44.3011 H   0  0  0  0  0  0  0  0  0  0  0  0
   58.2390   32.8360   44.9270 C   0  0  0  0  0  0  0  0  0  0  0  0
   57.6550   32.3620   43.8000 N   0  0  0  0  0  0  0  0  0  0  0  0
   57.5370   32.8530   42.8860 H   0  0  0  0  0  0  0  0  0  0  0  0
   58.3030   26.0280   45.8800 C   0  0  0  0  0  0  0  0  0  0  0  0
   58.8990   26.8318   46.3369 H   0  0  0  0  0  0  0  0  0  0  0  0
   58.8790   24.7770   45.6580 C   0  0  0  0  0  0  0  0  0  0  0  0
   59.9321   24.6085   45.9272 H   0  0  0  0  0  0  0  0  0  0  0  0
   58.1310   23.7300   45.0950 C   0  0  0  0  0  0  0  0  0  0  0  0
   58.8180   22.4160   44.8350 C   0  0  0  0  0  0  0  0  0  0  0  0
   59.0683   21.9372   45.7932 H   0  0  0  0  0  0  0  0  0  0  0  0
   58.1479   21.7592   44.2609 H   0  0  0  0  0  0  0  0  0  0  0  0
   59.7398   22.5914   44.2609 H   0  0  0  0  0  0  0  0  0  0  0  0
   53.7580   22.3810   47.2500 C   0  0  0  0  0  0  0  0  0  0  0  0
   52.8383   22.5673   46.6760 H   0  0  0  0  0  0  0  0  0  0  0  0
  1  2  1  0
  2  3  2  0
  3  4  1  0
  3  5  1  0
  5  6  1  0
  5  7  2  0
  7  8  1  0
  7  9  1  0
  9 10  1  0
 10 11  1  0
 11 12  2  0
 11 13  1  0
 13 14  2  0
 14 15  1  0
 14 16  1  0
 16 17  1  0
 17 18  2  0
 18 19  1  0
 19 20  1  0
 20 21  2  0
 20 22  1  0
 22 23  2  0
 23 24  1  0
 23 25  1  0
 25 26  2  0
 26 27  1  0
 26 28  1  0
 28 29  1  0
 28 30  2  0
 30 31  1  0
 30 32  1  0
 32 33  1  0
 32 34  2  0
 34 35  1  0
 35 36  1  0
 16 37  2  0
 37 38  1  0
 37 39  1  0
 39 40  1  0
 39 41  2  0
 41 42  1  0
 42 43  1  0
 42 44  1  0
 42 45  1  0
  9 46  2  0
 46 47  1  0
 46  2  1  0
 41 13  1  0
 24 18  1  0
 34 25  1  0
 35 22  1  0
M  CHG  3  10  -1  19  -1  24  -1
M  END
>  <UniqueID>  (64) 
61

>  <SMILES>  (64) 
Cc1ccc(/N=c2\[n-]c(=O)c3[nH]c4ccccc4c3[n-]2)cc1C(=O)[N-]c1cccc(F)c1

>  <Energy>  (64) 
114.33160045697093

>  <Genealogy>  (64) 
Cc1ccc(N=c2[n-]c(=O)c3[nH]c4ccccc4c3[n-]2)cc1C(=O)[N-]c1cccc(F)c1 (protonated)
Cc1ccc(/N=c2\[n-]c(=O)c3[nH]c4ccccc4c3[n-]2)cc1C(=O)[N-]c1cccc(F)c1 (cis-trans isomerization)
Cc1ccc(/N=c2\[n-]c(=O)c3[nH]c4ccccc4c3[n-]2)cc1C(=O)[N-]c1cccc(F)c1 (3D coordinates assigned)
Cc1ccc(/N=c2\[n-]c(=O)c3[nH]c4ccccc4c3[n-]2)cc1C(=O)[N-]c1cccc(F)c1 (optimized conformer: 114.33160045697093 kcal/mol)

>  <smiles>  (64) 
Cc1ccc(N=c2[nH]c(=O)c3[nH]c4ccccc4c3[nH]2)cc1C(=O)Nc1cccc(F)c1

>  <score_type>  (64) 
oracle

>  <origin>  (64) 
adg

>  <m_score__min__energy>  (64) 
-13.390000000000001

>  <m_primary>  (64) 
energy

$$$$
64:0
     RDKit          3D

 62 66  0  0  1  0  0  0  0  0999 V2000
   65.4150   33.6280   52.0380 C   0  0  0  0  0  0  0  0  0  0  0  0
   64.5720   33.6410   50.8170 C   0  0  0  0  0  0  0  0  0  0  0  0
   65.0350   32.9970   49.6850 C   0  0  0  0  0  0  0  0  0  0  0  0
   64.2820   32.9840   48.5270 C   0  0  0  0  0  0  0  0  0  0  0  0
   63.0560   33.6270   48.5200 C   0  0  0  0  0  0  0  0  0  0  0  0
   62.2650   33.5820   47.2310 C   0  0  0  0  0  0  0  0  0  0  0  0
   61.4400   32.3460   47.1480 C   0  0  0  0  0  0  0  0  0  0  0  0
   60.0290   32.5000   47.3370 N   0  0  0  0  0  0  0  0  0  0  0  0
   59.2060   32.8830   46.4340 C   0  0  0  0  0  0  0  0  0  0  0  0
   58.9090   34.1630   46.1890 N   0  0  0  0  0  0  0  0  0  0  0  0
   58.0520   34.5790   45.2520 C   0  0  0  0  0  0  0  0  0  0  0  0
   57.4290   33.6710   44.4820 N   0  0  0  0  0  0  0  0  0  0  0  0
   57.7040   32.3780   44.6990 C   0  0  0  0  0  0  0  0  0  0  0  0
   57.0520   31.4570   43.9050 C   0  0  0  0  0  0  0  0  0  0  0  0
   57.2860   30.1140   44.0810 C   0  0  0  0  0  0  0  0  0  0  0  0
   58.1700   29.6350   45.0470 C   0  0  0  0  0  0  0  0  0  0  0  0
   58.3500   28.2000   45.1720 C   0  0  0  0  0  0  0  0  0  0  0  0
   59.0150   27.5860   46.2070 C   0  0  0  0  0  0  0  0  0  0  0  0
   59.1490   26.1920   46.2700 C   0  0  0  0  0  0  0  0  0  0  0  0
   58.5990   25.4290   45.2680 C   0  0  0  0  0  0  0  0  0  0  0  0
   58.6690   23.9740   45.2220 C   0  0  0  0  0  0  0  0  0  0  0  0
   59.7490   23.4550   45.6320 O   0  0  0  0  0  0  0  0  0  0  0  0
   57.6050   23.1550   44.7510 N   0  0  0  0  0  0  0  0  0  0  0  0
   56.3450   23.6920   44.2670 C   0  0  0  0  0  0  0  0  0  0  0  0
   56.0950   22.9860   42.9300 C   0  0  0  0  0  0  0  0  0  0  0  0
   55.9070   21.6350   43.2400 O   0  0  0  0  0  0  0  0  0  0  0  0
   57.1080   21.0320   43.6080 C   0  0  0  0  0  0  0  0  0  0  0  0
   57.7800   21.7090   44.7580 C   0  0  0  0  0  0  0  0  0  0  0  0
   57.9210   26.0360   44.2100 C   0  0  0  0  0  0  0  0  0  0  0  0
   57.8030   27.3920   44.1700 C   0  0  0  0  0  0  0  0  0  0  0  0
   58.8120   30.5670   45.8300 C   0  0  0  0  0  0  0  0  0  0  0  0
   58.5790   31.9220   45.6550 C   0  0  0  0  0  0  0  0  0  0  0  0
   62.5750   34.2770   49.6370 C   0  0  0  0  0  0  0  0  0  0  0  0
   63.3330   34.2880   50.8010 C   0  0  0  0  0  0  0  0  0  0  0  0
   64.7700   33.6379   52.9290 H   0  0  0  0  0  0  0  0  0  0  0  0
   66.0361   32.7202   52.0451 H   0  0  0  0  0  0  0  0  0  0  0  0
   66.0638   34.5162   52.0451 H   0  0  0  0  0  0  0  0  0  0  0  0
   66.0113   32.4906   49.7064 H   0  0  0  0  0  0  0  0  0  0  0  0
   64.6502   32.4716   47.6260 H   0  0  0  0  0  0  0  0  0  0  0  0
   61.6027   34.4591   47.1858 H   0  0  0  0  0  0  0  0  0  0  0  0
   62.9721   33.5858   46.3884 H   0  0  0  0  0  0  0  0  0  0  0  0
   61.5967   31.9071   46.1516 H   0  0  0  0  0  0  0  0  0  0  0  0
   61.7766   31.7173   47.9855 H   0  0  0  0  0  0  0  0  0  0  0  0
   57.8587   35.6529   45.1125 H   0  0  0  0  0  0  0  0  0  0  0  0
   56.7540   33.9580   43.7390 H   0  0  0  0  0  0  0  0  0  0  0  0
   56.3463   31.7968   43.1327 H   0  0  0  0  0  0  0  0  0  0  0  0
   56.7585   29.3935   43.4386 H   0  0  0  0  0  0  0  0  0  0  0  0
   59.4526   28.2037   47.0051 H   0  0  0  0  0  0  0  0  0  0  0  0
   59.6843   25.7178   47.1058 H   0  0  0  0  0  0  0  0  0  0  0  0
   55.5339   23.4724   44.9769 H   0  0  0  0  0  0  0  0  0  0  0  0
   56.3802   24.7857   44.1544 H   0  0  0  0  0  0  0  0  0  0  0  0
   55.1977   23.3954   42.4429 H   0  0  0  0  0  0  0  0  0  0  0  0
   56.9354   23.1280   42.2346 H   0  0  0  0  0  0  0  0  0  0  0  0
   56.9033   19.9882   43.8882 H   0  0  0  0  0  0  0  0  0  0  0  0
   57.7868   21.1035   42.7454 H   0  0  0  0  0  0  0  0  0  0  0  0
   57.3601   21.3100   45.6932 H   0  0  0  0  0  0  0  0  0  0  0  0
   58.8582   21.5085   44.6723 H   0  0  0  0  0  0  0  0  0  0  0  0
   57.4830   25.4206   43.4104 H   0  0  0  0  0  0  0  0  0  0  0  0
   57.2664   27.8616   43.3324 H   0  0  0  0  0  0  0  0  0  0  0  0
   59.5185   30.2326   46.6040 H   0  0  0  0  0  0  0  0  0  0  0  0
   61.5987   34.7828   49.6065 H   0  0  0  0  0  0  0  0  0  0  0  0
   62.9621   34.8005   51.7008 H   0  0  0  0  0  0  0  0  0  0  0  0
  1  2  1  0
  2  3  2  0
  3  4  1  0
  4  5  2  0
  5  6  1  0
  6  7  1  0
  7  8  1  0
  8  9  2  0
  9 10  1  0
 10 11  2  0
 11 12  1  0
 12 13  1  0
 13 14  2  0
 14 15  1  0
 15 16  2  0
 16 17  1  0
 17 18  2  0
 18 19  1  0
 19 20  2  0
 20 21  1  0
 21 22  2  0
 21 23  1  0
 23 24  1  0
 24 25  1  0
 25 26  1  0
 26 27  1  0
 27 28  1  0
 20 29  1  0
 29 30  2  0
 16 31  1  0
 31 32  2  0
  5 33  1  0
 33 34  2  0
 34  2  1  0
 32  9  1  0
 32 13  1  0
 30 17  1  0
 28 23  1  0
  1 35  1  0
  1 36  1  0
  1 37  1  0
  3 38  1  0
  4 39  1  0
  6 40  1  0
  6 41  1  0
  7 42  1  0
  7 43  1  0
 11 44  1  0
 12 45  1  0
 14 46  1  0
 15 47  1  0
 18 48  1  0
 19 49  1  0
 24 50  1  0
 24 51  1  0
 25 52  1  0
 25 53  1  0
 27 54  1  0
 27 55  1  0
 28 56  1  0
 28 57  1  0
 29 58  1  0
 30 59  1  0
 31 60  1  0
 33 61  1  0
 34 62  1  0
M  END
>  <smiles>  (65) 
Cc1ccc(CCN=c2nc[nH]c3ccc(-c4ccc(C(=O)N5CCOCC5)cc4)cc23)cc1

>  <score_type>  (65) 
oracle

>  <origin>  (65) 
adg

>  <m_score__min__energy>  (65) 
-10.6

>  <m_primary>  (65) 
energy

$$$$
65:0
     RDKit          3D

 70 74  0  0  0  0  0  0  0  0999 V2000
   68.8377   34.0142   51.3794 H   0  0  0  0  0  0  0  0  0  0  0  0
   68.0120   33.3290   51.1370 C   0  0  0  0  0  0  0  0  0  0  0  0
   68.1770   31.9900   51.2870 N   0  0  0  0  0  0  0  0  0  0  0  0
   67.1670   31.1300   50.9920 C   0  0  0  0  0  0  0  0  0  0  0  0
   67.3440   29.8910   51.1250 O   0  0  0  0  0  0  0  0  0  0  0  0
   65.9390   31.6220   50.5400 C   0  0  0  0  0  0  0  0  0  0  0  0
   65.1156   30.9352   50.2945 H   0  0  0  0  0  0  0  0  0  0  0  0
   65.7780   33.0070   50.4060 C   0  0  0  0  0  0  0  0  0  0  0  0
   64.5310   33.5430   49.9350 N   0  0  0  0  0  0  0  0  0  0  0  0
   64.2380   34.4760   50.3190 H   0  0  0  0  0  0  0  0  0  0  0  0
   63.5470   32.7850   49.2060 C   0  0  0  0  0  0  0  0  0  0  0  0
   63.3860   32.9350   47.8190 C   0  0  0  0  0  0  0  0  0  0  0  0
   63.9766   33.6902   47.2797 H   0  0  0  0  0  0  0  0  0  0  0  0
   62.4820   32.1330   47.1190 C   0  0  0  0  0  0  0  0  0  0  0  0
   62.3898   32.2380   46.0279 H   0  0  0  0  0  0  0  0  0  0  0  0
   61.6870   31.1900   47.8010 C   0  0  0  0  0  0  0  0  0  0  0  0
   60.7670   30.3050   47.0390 C   0  0  0  0  0  0  0  0  0  0  0  0
   60.5750   30.5280   45.8140 O   0  0  0  0  0  0  0  0  0  0  0  0
   60.1730   29.1490   47.6630 N   0  0  0  0  0  0  0  0  0  0  0  0
   60.6920   28.7220   48.4650 H   0  0  0  0  0  0  0  0  0  0  0  0
   59.0000   28.4520   47.2000 C   0  0  0  0  0  0  0  0  0  0  0  0
   58.2080   29.0580   46.2180 C   0  0  0  0  0  0  0  0  0  0  0  0
   58.4915   30.0459   45.8260 H   0  0  0  0  0  0  0  0  0  0  0  0
   57.0630   28.4260   45.7290 C   0  0  0  0  0  0  0  0  0  0  0  0
   56.4380   28.9308   44.9776 H   0  0  0  0  0  0  0  0  0  0  0  0
   56.7050   27.1480   46.1920 C   0  0  0  0  0  0  0  0  0  0  0  0
   55.4800   26.5150   45.7790 N   0  0  0  0  0  0  0  0  0  0  0  0
   55.1730   25.2590   45.9400 C   0  0  0  0  0  0  0  0  0  0  0  0
   54.0810   24.7170   45.3340 N   0  0  0  0  0  0  0  0  0  0  0  0
   53.7220   23.4340   45.5810 C   0  0  0  0  0  0  0  0  0  0  0  0
   52.6650   22.9490   45.0000 N   0  0  0  0  0  0  0  0  0  0  0  0
   51.5050   22.3190   45.6380 C   0  0  0  0  0  0  0  0  0  0  0  0
   51.7500   21.2634   45.8267 H   0  0  0  0  0  0  0  0  0  0  0  0
   50.6611   22.4526   44.9452 H   0  0  0  0  0  0  0  0  0  0  0  0
   51.0730   22.9580   46.9760 C   0  0  0  0  0  0  0  0  0  0  0  0
   49.9766   22.9071   47.0487 H   0  0  0  0  0  0  0  0  0  0  0  0
   51.4421   23.9942   46.9750 H   0  0  0  0  0  0  0  0  0  0  0  0
   51.6540   22.2880   48.1630 N   0  0  0  0  0  0  0  0  0  0  0  0
   51.9910   20.8860   47.8680 C   0  0  0  0  0  0  0  0  0  0  0  0
   52.1235   20.3346   48.8106 H   0  0  0  0  0  0  0  0  0  0  0  0
   51.1774   20.4279   47.2865 H   0  0  0  0  0  0  0  0  0  0  0  0
   52.9239   20.8477   47.2865 H   0  0  0  0  0  0  0  0  0  0  0  0
   50.6830   22.3370   49.2730 C   0  0  0  0  0  0  0  0  0  0  0  0
   51.2209   22.3099   50.2321 H   0  0  0  0  0  0  0  0  0  0  0  0
   50.0974   23.2658   49.2072 H   0  0  0  0  0  0  0  0  0  0  0  0
   50.0069   21.4718   49.2072 H   0  0  0  0  0  0  0  0  0  0  0  0
   54.4680   22.6890   46.4360 N   0  0  0  0  0  0  0  0  0  0  0  0
   55.5910   23.2020   47.0070 C   0  0  0  0  0  0  0  0  0  0  0  0
   56.3550   22.4710   47.7650 N   0  0  0  0  0  0  0  0  0  0  0  0
   55.9850   21.9790   49.0620 C   0  0  0  0  0  0  0  0  0  0  0  0
   56.8850   21.2290   49.8450 C   0  0  0  0  0  0  0  0  0  0  0  0
   57.8875   20.9971   49.4561 H   0  0  0  0  0  0  0  0  0  0  0  0
   56.5100   20.7790   51.1120 C   0  0  0  0  0  0  0  0  0  0  0  0
   57.2205   20.2055   51.7254 H   0  0  0  0  0  0  0  0  0  0  0  0
   55.2310   21.0580   51.6000 C   0  0  0  0  0  0  0  0  0  0  0  0
   54.9394   20.7151   52.6037 H   0  0  0  0  0  0  0  0  0  0  0  0
   54.3200   21.7730   50.8140 C   0  0  0  0  0  0  0  0  0  0  0  0
   53.0720   22.0270   51.2830 F   0  0  0  0  0  0  0  0  0  0  0  0
   54.6900   22.2230   49.5420 C   0  0  0  0  0  0  0  0  0  0  0  0
   53.9656   22.7679   48.9188 H   0  0  0  0  0  0  0  0  0  0  0  0
   55.9450   24.4850   46.7470 N   0  0  0  0  0  0  0  0  0  0  0  0
   57.4880   26.5400   47.1780 C   0  0  0  0  0  0  0  0  0  0  0  0
   57.2005   25.5537   47.5712 H   0  0  0  0  0  0  0  0  0  0  0  0
   58.6340   27.1750   47.6690 C   0  0  0  0  0  0  0  0  0  0  0  0
   59.2538   26.6734   48.4268 H   0  0  0  0  0  0  0  0  0  0  0  0
   61.7790   31.1150   49.2020 C   0  0  0  0  0  0  0  0  0  0  0  0
   61.1162   30.4355   49.7578 H   0  0  0  0  0  0  0  0  0  0  0  0
   62.7080   31.8990   49.8930 C   0  0  0  0  0  0  0  0  0  0  0  0
   62.7805   31.8189   50.9877 H   0  0  0  0  0  0  0  0  0  0  0  0
   66.8290   33.8250   50.6880 N   0  0  0  0  0  0  0  0  0  0  0  0
  1  2  1  0
  2  3  2  0
  3  4  1  0
  4  5  2  0
  4  6  1  0
  6  7  1  0
  6  8  2  0
  8  9  1  0
  9 10  1  0
  9 11  1  0
 11 12  2  0
 12 13  1  0
 12 14  1  0
 14 15  1  0
 14 16  2  0
 16 17  1  0
 17 18  2  0
 17 19  1  0
 19 20  1  0
 19 21  1  0
 21 22  2  0
 22 23  1  0
 22 24  1  0
 24 25  1  0
 24 26  2  0
 26 27  1  0
 27 28  2  3
 28 29  1  0
 29 30  1  0
 30 31  2  0
 31 32  1  0
 32 33  1  0
 32 34  1  0
 32 35  1  0
 35 36  1  0
 35 37  1  0
 35 38  1  0
 38 39  1  0
 39 40  1  0
 39 41  1  0
 39 42  1  0
 38 43  1  0
 43 44  1  0
 43 45  1  0
 43 46  1  0
 30 47  1  0
 47 48  1  0
 48 49  2  0
 49 50  1  0
 50 51  2  0
 51 52  1  0
 51 53  1  0
 53 54  1  0
 53 55  2  0
 55 56  1  0
 55 57  1  0
 57 58  1  0
 57 59  2  0
 59 60  1  0
 48 61  1  0
 26 62  1  0
 62 63  1  0
 62 64  2  0
 64 65  1  0
 16 66  1  0
 66 67  1  0
 66 68  2  0
 68 69  1  0
  8 70  1  0
 70  2  1  0
 68 11  1  0
 64 21  1  0
 61 28  1  0
 59 50  1  0
M  CHG  4  29  -1  47  -1  61  -1  70  -1
M  END
>  <UniqueID>  (66) 
62

>  <SMILES>  (66) 
CN(C)CC/N=c1/[n-]c(=Nc2ccc(NC(=O)c3ccc(Nc4cc(=O)nc[n-]4)cc3)cc2)[n-]/c(=N/c2cccc(F)c2)[n-]1

>  <Energy>  (66) 
104.23516764501626

>  <Genealogy>  (66) 
CN(C)CCN=c1[n-]c(=Nc2ccc(NC(=O)c3ccc(Nc4cc(=O)nc[n-]4)cc3)cc2)[n-]c(=Nc2cccc(F)c2)[n-]1 (protonated)
CN(C)CC/N=c1/[n-]c(=Nc2ccc(NC(=O)c3ccc(Nc4cc(=O)nc[n-]4)cc3)cc2)[n-]/c(=N/c2cccc(F)c2)[n-]1 (cis-trans isomerization)
CN(C)CC/N=c1/[n-]c(=Nc2ccc(NC(=O)c3ccc(Nc4cc(=O)nc[n-]4)cc3)cc2)[n-]/c(=N/c2cccc(F)c2)[n-]1 (3D coordinates assigned)
CN(C)CC/N=c1/[n-]c(=Nc2ccc(NC(=O)c3ccc(Nc4cc(=O)nc[n-]4)cc3)cc2)[n-]/c(=N/c2cccc(F)c2)[n-]1 (optimized conformer: 104.23516764501626 kcal/mol)

>  <smiles>  (66) 
CN(C)CCN=c1[nH]c(=Nc2ccc(NC(=O)c3ccc(Nc4cc(=O)nc[nH]4)cc3)cc2)[nH]c(=Nc2cccc(F)c2)[nH]1

>  <score_type>  (66) 
oracle

>  <origin>  (66) 
adg

>  <m_score__min__energy>  (66) 
-12.82

>  <m_primary>  (66) 
energy

$$$$
66:0
     RDKit          3D

 49 51  0  0  0  0  0  0  0  0999 V2000
   56.0720   30.4090   44.4920 O   0  0  0  0  0  0  0  0  0  0  0  0
   57.2200   30.7530   44.8810 C   0  0  0  0  0  0  0  0  0  0  0  0
   58.0640   31.6330   44.0200 C   0  0  0  0  0  0  0  0  0  0  0  0
   57.4100   32.8890   43.8760 O   0  0  0  0  0  0  0  0  0  0  0  0
   57.7560   34.0270   44.6050 C   0  0  0  0  0  0  0  0  0  0  0  0
   56.8950   34.9160   44.8460 O   0  0  0  0  0  0  0  0  0  0  0  0
   59.1130   34.1700   45.1640 C   0  0  0  0  0  0  0  0  0  0  0  0
   59.5110   33.7220   46.3660 C   0  0  0  0  0  0  0  0  0  0  0  0
   60.8210   33.1170   46.6710 C   0  0  0  0  0  0  0  0  0  0  0  0
   62.0380   33.7680   46.7760 C   0  0  0  0  0  0  0  0  0  0  0  0
   62.9540   32.7940   47.1090 C   0  0  0  0  0  0  0  0  0  0  0  0
   62.2430   31.6170   47.2070 C   0  0  0  0  0  0  0  0  0  0  0  0
   60.9760   31.8440   46.9500 O   0  0  0  0  0  0  0  0  0  0  0  0
   57.7640   30.2680   46.1160 N   0  0  0  0  0  0  0  0  0  0  0  0
   58.4520   29.0320   46.3640 C   0  0  0  0  0  0  0  0  0  0  0  0
   58.5730   28.0460   45.3660 C   0  0  0  0  0  0  0  0  0  0  0  0
   59.2940   26.8760   45.6120 C   0  0  0  0  0  0  0  0  0  0  0  0
   59.8940   26.6710   46.8550 C   0  0  0  0  0  0  0  0  0  0  0  0
   59.7570   27.6260   47.8630 C   0  0  0  0  0  0  0  0  0  0  0  0
   59.0160   28.7990   47.6410 C   0  0  0  0  0  0  0  0  0  0  0  0
   58.8740   29.7780   48.7450 C   0  0  0  0  0  0  0  0  0  0  0  0
   58.6800   29.3600   49.9180 O   0  0  0  0  0  0  0  0  0  0  0  0
   58.9140   31.1910   48.4850 N   0  0  0  0  0  0  0  0  0  0  0  0
   58.8920   32.1860   49.5530 C   0  0  0  0  0  0  0  0  0  0  0  0
   60.2940   32.5390   49.9670 C   0  0  0  0  0  0  0  0  0  0  0  0
   60.7540   33.8640   49.8810 C   0  0  0  0  0  0  0  0  0  0  0  0
   62.0660   34.1790   50.2490 C   0  0  0  0  0  0  0  0  0  0  0  0
   62.9260   33.1760   50.7040 C   0  0  0  0  0  0  0  0  0  0  0  0
   62.4770   31.8550   50.7890 C   0  0  0  0  0  0  0  0  0  0  0  0
   61.1660   31.5360   50.4210 C   0  0  0  0  0  0  0  0  0  0  0  0
   59.0474   31.7790   44.4907 H   0  0  0  0  0  0  0  0  0  0  0  0
   58.2069   31.1682   43.0333 H   0  0  0  0  0  0  0  0  0  0  0  0
   59.8615   34.6865   44.5452 H   0  0  0  0  0  0  0  0  0  0  0  0
   58.7962   33.8146   47.1970 H   0  0  0  0  0  0  0  0  0  0  0  0
   62.2333   34.8399   46.6250 H   0  0  0  0  0  0  0  0  0  0  0  0
   64.0345   32.9285   47.2651 H   0  0  0  0  0  0  0  0  0  0  0  0
   62.6722   30.6368   47.4618 H   0  0  0  0  0  0  0  0  0  0  0  0
   58.0965   28.1985   44.3864 H   0  0  0  0  0  0  0  0  0  0  0  0
   59.3893   26.1142   44.8243 H   0  0  0  0  0  0  0  0  0  0  0  0
   60.4754   25.7558   47.0404 H   0  0  0  0  0  0  0  0  0  0  0  0
   60.2334   27.4591   48.8403 H   0  0  0  0  0  0  0  0  0  0  0  0
   58.9000   31.5330   47.4980 H   0  0  0  0  0  0  0  0  0  0  0  0
   58.3806   33.0916   49.1947 H   0  0  0  0  0  0  0  0  0  0  0  0
   58.3576   31.7690   50.4193 H   0  0  0  0  0  0  0  0  0  0  0  0
   60.0799   34.6561   49.5230 H   0  0  0  0  0  0  0  0  0  0  0  0
   62.4214   35.2177   50.1802 H   0  0  0  0  0  0  0  0  0  0  0  0
   63.9568   33.4261   50.9954 H   0  0  0  0  0  0  0  0  0  0  0  0
   63.1553   31.0658   51.1456 H   0  0  0  0  0  0  0  0  0  0  0  0
   60.8164   30.4952   50.4874 H   0  0  0  0  0  0  0  0  0  0  0  0
  1  2  2  0
  2  3  1  0
  3  4  1  0
  4  5  1  0
  5  6  2  0
  5  7  1  0
  7  8  2  3
  8  9  1  0
  9 10  2  0
 10 11  1  0
 11 12  2  0
 12 13  1  0
  2 14  1  0
 14 15  1  0
 15 16  2  0
 16 17  1  0
 17 18  2  0
 18 19  1  0
 19 20  2  0
 20 21  1  0
 21 22  2  0
 21 23  1  0
 23 24  1  0
 24 25  1  0
 25 26  2  0
 26 27  1  0
 27 28  2  0
 28 29  1  0
 29 30  2  0
 13  9  1  0
 20 15  1  0
 30 25  1  0
  3 31  1  0
  3 32  1  0
  7 33  1  0
  8 34  1  0
 10 35  1  0
 11 36  1  0
 12 37  1  0
 16 38  1  0
 17 39  1  0
 18 40  1  0
 19 41  1  0
 23 42  1  0
 24 43  1  0
 24 44  1  0
 26 45  1  0
 27 46  1  0
 28 47  1  0
 29 48  1  0
 30 49  1  0
M  CHG  1  14  -1
M  END
>  <UniqueID>  (67) 
63

>  <SMILES>  (67) 
O=C(COC(=O)C=Cc1ccco1)[N-]c1ccccc1C(=O)NCc1ccccc1

>  <Energy>  (67) 
82.11422178354893

>  <Genealogy>  (67) 
O=C(COC(=O)C=Cc1ccco1)[N-]c1ccccc1C(=O)NCc1ccccc1 (protonated)
O=C(COC(=O)C=Cc1ccco1)[N-]c1ccccc1C(=O)NCc1ccccc1 (3D coordinates assigned)
O=C(COC(=O)C=Cc1ccco1)[N-]c1ccccc1C(=O)NCc1ccccc1 (optimized conformer: 82.11422178354893 kcal/mol)

>  <smiles>  (67) 
O=C(COC(=O)C=Cc1ccco1)Nc1ccccc1C(=O)NCc1ccccc1

>  <score_type>  (67) 
oracle

>  <origin>  (67) 
adg

>  <m_score__min__energy>  (67) 
-10.17

>  <m_primary>  (67) 
energy

$$$$
67:0
     RDKit          3D

 37 38  0  0  0  0  0  0  0  0999 V2000
   55.1510   29.3850   44.6880 N   0  0  0  0  0  0  0  0  0  0  0  0
   56.3980   28.9550   45.2420 C   0  0  0  0  0  0  0  0  0  0  0  0
   56.5350   27.6550   45.6150 N   0  0  0  0  0  0  0  0  0  0  0  0
   57.7080   27.1790   46.1060 C   0  0  0  0  0  0  0  0  0  0  0  0
   57.8320   25.6100   46.5420 S   0  0  0  0  0  0  0  0  0  0  0  0
   58.7760   28.0030   46.2310 N   0  0  0  0  0  0  0  0  0  0  0  0
   58.6990   29.3120   45.8790 C   0  0  0  0  0  0  0  0  0  0  0  0
   59.7090   30.0500   46.0310 O   0  0  0  0  0  0  0  0  0  0  0  0
   57.4960   29.8340   45.3700 C   0  0  0  0  0  0  0  0  0  0  0  0
   57.3870   31.2640   45.0130 C   0  0  0  0  0  0  0  0  0  0  0  0
   57.0860   31.5890   43.8320 O   0  0  0  0  0  0  0  0  0  0  0  0
   57.6520   32.3380   46.0280 C   0  0  0  0  0  0  0  0  0  0  0  0
   57.9280   33.6440   45.3380 C   0  0  0  0  0  0  0  0  0  0  0  0
   56.9560   34.3380   44.9330 O   0  0  0  0  0  0  0  0  0  0  0  0
   59.3080   34.1140   45.0980 C   0  0  0  0  0  0  0  0  0  0  0  0
   59.7190   34.2710   43.9180 O   0  0  0  0  0  0  0  0  0  0  0  0
   60.1780   34.4650   46.1820 N   0  0  0  0  0  0  0  0  0  0  0  0
   61.0650   33.5700   46.8670 C   0  0  0  0  0  0  0  0  0  0  0  0
   62.4470   33.7580   46.7410 C   0  0  0  0  0  0  0  0  0  0  0  0
   63.3370   32.8840   47.3700 C   0  0  0  0  0  0  0  0  0  0  0  0
   62.8530   31.8030   48.1110 C   0  0  0  0  0  0  0  0  0  0  0  0
   61.4740   31.5860   48.2230 C   0  0  0  0  0  0  0  0  0  0  0  0
   60.8840   30.1940   49.1240 S   0  0  0  0  0  0  0  0  0  0  0  0
   60.7460   28.8380   48.0600 N   0  0  0  0  0  0  0  0  0  0  0  0
   59.5380   30.5170   49.7080 O   0  0  0  0  0  0  0  0  0  0  0  0
   61.8310   29.8510   50.2410 O   0  0  0  0  0  0  0  0  0  0  0  0
   60.5800   32.4700   47.5960 C   0  0  0  0  0  0  0  0  0  0  0  0
   54.7970   30.3470   44.8930 H   0  0  0  0  0  0  0  0  0  0  0  0
   54.5440   28.7510   44.1250 H   0  0  0  0  0  0  0  0  0  0  0  0
   56.7718   32.4491   46.6784 H   0  0  0  0  0  0  0  0  0  0  0  0
   58.5288   32.0563   46.6295 H   0  0  0  0  0  0  0  0  0  0  0  0
   62.8334   34.5974   46.1442 H   0  0  0  0  0  0  0  0  0  0  0  0
   64.4212   33.0473   47.2817 H   0  0  0  0  0  0  0  0  0  0  0  0
   63.5575   31.1200   48.6082 H   0  0  0  0  0  0  0  0  0  0  0  0
   61.2590   29.0840   47.1840 H   0  0  0  0  0  0  0  0  0  0  0  0
   59.7360   28.7560   47.8030 H   0  0  0  0  0  0  0  0  0  0  0  0
   59.4960   32.3008   47.6758 H   0  0  0  0  0  0  0  0  0  0  0  0
  1  2  1  0
  2  3  1  0
  3  4  1  0
  4  5  2  0
  4  6  1  0
  6  7  1  0
  7  8  2  0
  7  9  1  0
  9 10  1  0
 10 11  2  0
 10 12  1  0
 12 13  1  0
 13 14  2  0
 13 15  1  0
 15 16  2  0
 15 17  1  0
 17 18  1  0
 18 19  2  0
 19 20  1  0
 20 21  2  0
 21 22  1  0
 22 23  1  0
 23 24  1  0
 23 25  2  0
 23 26  2  0
 22 27  2  0
  9  2  2  0
 27 18  1  0
  1 28  1  0
  1 29  1  0
 12 30  1  0
 12 31  1  0
 19 32  1  0
 20 33  1  0
 21 34  1  0
 24 35  1  0
 24 36  1  0
 27 37  1  0
M  CHG  3   3  -1   6  -1  17  -1
M  END
>  <UniqueID>  (68) 
64

>  <SMILES>  (68) 
Nc1[n-]c(=S)[n-]c(=O)c1C(=O)CC(=O)C(=O)[N-]c1cccc(S(N)(=O)=O)c1

>  <Energy>  (68) 
46.09385530111628

>  <Genealogy>  (68) 
Nc1[n-]c(=S)[n-]c(=O)c1C(=O)CC(=O)C(=O)[N-]c1cccc(S(N)(=O)=O)c1 (protonated)
Nc1[n-]c(=S)[n-]c(=O)c1C(=O)CC(=O)C(=O)[N-]c1cccc(S(N)(=O)=O)c1 (3D coordinates assigned)
Nc1[n-]c(=S)[n-]c(=O)c1C(=O)CC(=O)C(=O)[N-]c1cccc(S(N)(=O)=O)c1 (optimized conformer: 46.09385530111628 kcal/mol)

>  <smiles>  (68) 
Nc1[nH]c(=S)[nH]c(=O)c1C(=O)CC(=O)C(=O)Nc1cccc(S(N)(=O)=O)c1

>  <score_type>  (68) 
oracle

>  <origin>  (68) 
adg

>  <m_score__min__energy>  (68) 
-14.539999999999999

>  <m_primary>  (68) 
energy

$$$$
68:0
     RDKit          3D

 44 48  0  0  0  0  0  0  0  0999 V2000
   59.4835   27.1392   46.3797 H   0  0  0  0  0  0  0  0  0  0  0  0
   58.4490   27.5130   46.3740 C   0  0  0  0  0  0  0  0  0  0  0  0
   57.3580   26.5290   46.4370 C   0  0  0  0  0  0  0  0  0  0  0  0
   57.4750   25.3250   47.0250 N   0  0  0  0  0  0  0  0  0  0  0  0
   56.2360   24.7970   46.9140 C   0  0  0  0  0  0  0  0  0  0  0  0
   55.8560   23.3110   47.4730 S   0  0  0  0  0  0  0  0  0  0  0  0
   55.3330   25.6040   46.3150 N   0  0  0  0  0  0  0  0  0  0  0  0
   56.0550   26.6990   46.0310 C   0  0  0  0  0  0  0  0  0  0  0  0
   55.5230   27.8420   45.4450 O   0  0  0  0  0  0  0  0  0  0  0  0
   58.2580   28.8390   46.3100 C   0  0  0  0  0  0  0  0  0  0  0  0
   57.7460   29.5470   45.2230 C   0  0  0  0  0  0  0  0  0  0  0  0
   57.4565   29.1007   44.2602 H   0  0  0  0  0  0  0  0  0  0  0  0
   57.6570   30.8660   45.5260 N   0  0  0  0  0  0  0  0  0  0  0  0
   58.0910   30.9990   46.7690 N   0  0  0  0  0  0  0  0  0  0  0  0
   58.1510   32.1290   47.5140 C   0  0  0  0  0  0  0  0  0  0  0  0
   57.7920   33.2720   47.0110 N   0  0  0  0  0  0  0  0  0  0  0  0
   58.7400   34.3030   46.6020 C   0  0  0  0  0  0  0  0  0  0  0  0
   58.6666   34.9363   47.4984 H   0  0  0  0  0  0  0  0  0  0  0  0
   59.8710   33.7590   45.7520 C   0  0  0  0  0  0  0  0  0  0  0  0
   60.8794   34.1902   45.8367 H   0  0  0  0  0  0  0  0  0  0  0  0
   60.3105   32.7644   45.5856 H   0  0  0  0  0  0  0  0  0  0  0  0
   58.7510   34.5630   45.1070 C   0  0  0  0  0  0  0  0  0  0  0  0
   58.9493   35.5756   44.7258 H   0  0  0  0  0  0  0  0  0  0  0  0
   58.0447   34.3913   44.2814 H   0  0  0  0  0  0  0  0  0  0  0  0
   58.5870   32.0260   48.8040 N   0  0  0  0  0  0  0  0  0  0  0  0
   58.9440   30.8130   49.3240 C   0  0  0  0  0  0  0  0  0  0  0  0
   59.3500   30.7420   50.5550 N   0  0  0  0  0  0  0  0  0  0  0  0
   60.5920   31.3400   51.0380 C   0  0  0  0  0  0  0  0  0  0  0  0
   61.2317   30.5575   51.4721 H   0  0  0  0  0  0  0  0  0  0  0  0
   60.3632   32.0929   51.8066 H   0  0  0  0  0  0  0  0  0  0  0  0
   61.3080   31.9940   49.8920 C   0  0  0  0  0  0  0  0  0  0  0  0
   61.1970   33.3790   49.6870 C   0  0  0  0  0  0  0  0  0  0  0  0
   60.6049   33.9904   50.3838 H   0  0  0  0  0  0  0  0  0  0  0  0
   61.8360   33.9830   48.6010 C   0  0  0  0  0  0  0  0  0  0  0  0
   61.7535   35.0696   48.4511 H   0  0  0  0  0  0  0  0  0  0  0  0
   62.5810   33.2090   47.7030 C   0  0  0  0  0  0  0  0  0  0  0  0
   63.2380   33.8310   46.5840 C   0  0  0  0  0  0  0  0  0  0  0  0
   63.7670   34.3320   45.6850 N   0  0  0  0  0  0  0  0  0  0  0  0
   62.6810   31.8250   47.8940 C   0  0  0  0  0  0  0  0  0  0  0  0
   63.2623   31.2138   47.1879 H   0  0  0  0  0  0  0  0  0  0  0  0
   62.0430   31.2190   48.9810 C   0  0  0  0  0  0  0  0  0  0  0  0
   62.1174   30.1307   49.1227 H   0  0  0  0  0  0  0  0  0  0  0  0
   58.8680   29.6890   48.5490 N   0  0  0  0  0  0  0  0  0  0  0  0
   58.4530   29.8160   47.2680 C   0  0  0  0  0  0  0  0  0  0  0  0
  1  2  1  0
  2  3  1  0
  3  4  1  0
  4  5  1  0
  5  6  2  0
  5  7  1  0
  7  8  1  0
  8  9  1  0
  2 10  2  0
 10 11  1  0
 11 12  1  0
 11 13  2  0
 13 14  1  0
 14 15  1  0
 15 16  2  0
 16 17  1  0
 17 18  1  0
 17 19  1  0
 19 20  1  0
 19 21  1  0
 19 22  1  0
 22 23  1  0
 22 24  1  0
 15 25  1  0
 25 26  1  0
 26 27  2  3
 27 28  1  0
 28 29  1  0
 28 30  1  0
 28 31  1  0
 31 32  2  0
 32 33  1  0
 32 34  1  0
 34 35  1  0
 34 36  2  0
 36 37  1  0
 37 38  3  0
 36 39  1  0
 39 40  1  0
 39 41  2  0
 41 42  1  0
 26 43  1  0
 43 44  2  0
  8  3  2  0
 44 10  1  0
 44 14  1  0
 22 17  1  0
 41 31  1  0
M  CHG  4   4  -1   7  -1   9  -1  25  -1
M  END
>  <UniqueID>  (69) 
65

>  <SMILES>  (69) 
N#Cc1ccc(CN=c2nc3/c(=C\c4[n-]c(=S)[n-]c4[O-])cnn3/c(=N/C3CC3)[n-]2)cc1

>  <Energy>  (69) 
385.0659760137175

>  <Genealogy>  (69) 
N#Cc1ccc(CN=c2nc3c(=Cc4[n-]c(=S)[n-]c4[O-])cnn3c(=NC3CC3)[n-]2)cc1 (protonated)
N#Cc1ccc(CN=c2nc3/c(=C\c4[n-]c(=S)[n-]c4[O-])cnn3/c(=N/C3CC3)[n-]2)cc1 (cis-trans isomerization)
N#Cc1ccc(CN=c2nc3/c(=C\c4[n-]c(=S)[n-]c4[O-])cnn3/c(=N/C3CC3)[n-]2)cc1 (3D coordinates assigned)
N#Cc1ccc(CN=c2nc3/c(=C\c4[n-]c(=S)[n-]c4[O-])cnn3/c(=N/C3CC3)[n-]2)cc1 (nonaromatic ring conformer: 385.0659760137175 kcal/mol)

>  <smiles>  (69) 
N#Cc1ccc(CN=c2nc3c(=Cc4[nH]c(=S)[nH]c4O)cnn3c(=NC3CC3)[nH]2)cc1

>  <score_type>  (69) 
oracle

>  <origin>  (69) 
adg

>  <m_score__min__energy>  (69) 
-17.91

>  <m_primary>  (69) 
energy

$$$$
69:0
     RDKit          3D

 49 51  0  0  0  0  0  0  0  0999 V2000
   59.1610   29.1900   49.5820 C   0  0  0  0  0  0  0  0  0  0  0  0
   58.1450   30.0700   50.0480 O   0  0  0  0  0  0  0  0  0  0  0  0
   58.3840   31.3380   50.6030 C   0  0  0  0  0  0  0  0  0  0  0  0
   57.7620   31.7650   51.7930 C   0  0  0  0  0  0  0  0  0  0  0  0
   58.0490   33.0230   52.3300 C   0  0  0  0  0  0  0  0  0  0  0  0
   58.9540   33.8660   51.6900 C   0  0  0  0  0  0  0  0  0  0  0  0
   59.5660   33.4610   50.5020 C   0  0  0  0  0  0  0  0  0  0  0  0
   59.2750   32.1990   49.9440 C   0  0  0  0  0  0  0  0  0  0  0  0
   59.8960   31.7450   48.7680 O   0  0  0  0  0  0  0  0  0  0  0  0
   60.9010   32.4200   48.0530 C   0  0  0  0  0  0  0  0  0  0  0  0
   62.2640   32.1100   48.2170 C   0  0  0  0  0  0  0  0  0  0  0  0
   63.2410   32.8010   47.4910 C   0  0  0  0  0  0  0  0  0  0  0  0
   62.8670   33.8160   46.6090 C   0  0  0  0  0  0  0  0  0  0  0  0
   61.5190   34.1520   46.4630 C   0  0  0  0  0  0  0  0  0  0  0  0
   60.5360   33.4620   47.1870 C   0  0  0  0  0  0  0  0  0  0  0  0
   59.1670   33.8440   47.0610 N   0  0  0  0  0  0  0  0  0  0  0  0
   58.3220   33.6510   45.5660 S   0  0  0  0  0  0  0  0  0  0  0  0
   59.1640   34.1770   44.4360 O   0  0  0  0  0  0  0  0  0  0  0  0
   57.0450   34.4430   45.6170 O   0  0  0  0  0  0  0  0  0  0  0  0
   57.9470   31.9500   45.3110 C   0  0  0  0  0  0  0  0  0  0  0  0
   57.0330   31.5680   44.3220 C   0  0  0  0  0  0  0  0  0  0  0  0
   56.7530   30.2150   44.1070 C   0  0  0  0  0  0  0  0  0  0  0  0
   57.3870   29.2240   44.8750 C   0  0  0  0  0  0  0  0  0  0  0  0
   57.0960   27.8400   44.6110 N   0  0  0  0  0  0  0  0  0  0  0  0
   56.8450   26.6470   45.8470 S   0  0  0  0  0  0  0  0  0  0  0  0
   57.6380   25.1180   45.3980 C   0  0  0  0  0  0  0  0  0  0  0  0
   57.3900   27.1410   47.1560 O   0  0  0  0  0  0  0  0  0  0  0  0
   55.3690   26.4070   46.0010 O   0  0  0  0  0  0  0  0  0  0  0  0
   58.3140   29.6130   45.8590 C   0  0  0  0  0  0  0  0  0  0  0  0
   58.5920   30.9670   46.0740 C   0  0  0  0  0  0  0  0  0  0  0  0
   59.6797   28.7408   50.4418 H   0  0  0  0  0  0  0  0  0  0  0  0
   58.7065   28.3955   48.9720 H   0  0  0  0  0  0  0  0  0  0  0  0
   59.8825   29.7533   48.9720 H   0  0  0  0  0  0  0  0  0  0  0  0
   57.0458   31.1038   52.3028 H   0  0  0  0  0  0  0  0  0  0  0  0
   57.5592   33.3478   53.2598 H   0  0  0  0  0  0  0  0  0  0  0  0
   59.1868   34.8512   52.1204 H   0  0  0  0  0  0  0  0  0  0  0  0
   60.2792   34.1302   49.9985 H   0  0  0  0  0  0  0  0  0  0  0  0
   62.5635   31.3192   48.9206 H   0  0  0  0  0  0  0  0  0  0  0  0
   64.3033   32.5442   47.6155 H   0  0  0  0  0  0  0  0  0  0  0  0
   63.6334   34.3511   46.0291 H   0  0  0  0  0  0  0  0  0  0  0  0
   61.2274   34.9612   45.7773 H   0  0  0  0  0  0  0  0  0  0  0  0
   56.5333   32.3348   43.7118 H   0  0  0  0  0  0  0  0  0  0  0  0
   56.0305   29.9242   43.3302 H   0  0  0  0  0  0  0  0  0  0  0  0
   56.9440   27.5350   43.6240 H   0  0  0  0  0  0  0  0  0  0  0  0
   57.9218   24.5708   46.3091 H   0  0  0  0  0  0  0  0  0  0  0  0
   56.9438   24.5056   44.8037 H   0  0  0  0  0  0  0  0  0  0  0  0
   58.5384   25.3327   44.8037 H   0  0  0  0  0  0  0  0  0  0  0  0
   58.8234   28.8478   46.4631 H   0  0  0  0  0  0  0  0  0  0  0  0
   59.3195   31.2613   46.8448 H   0  0  0  0  0  0  0  0  0  0  0  0
  1  2  1  0
  2  3  1  0
  3  4  2  0
  4  5  1  0
  5  6  2  0
  6  7  1  0
  7  8  2  0
  8  9  1  0
  9 10  1  0
 10 11  2  0
 11 12  1  0
 12 13  2  0
 13 14  1  0
 14 15  2  0
 15 16  1  0
 16 17  1  0
 17 18  2  0
 17 19  2  0
 17 20  1  0
 20 21  2  0
 21 22  1  0
 22 23  2  0
 23 24  1  0
 24 25  1  0
 25 26  1  0
 25 27  2  0
 25 28  2  0
 23 29  1  0
 29 30  2  0
  8  3  1  0
 15 10  1  0
 30 20  1  0
  1 31  1  0
  1 32  1  0
  1 33  1  0
  4 34  1  0
  5 35  1  0
  6 36  1  0
  7 37  1  0
 11 38  1  0
 12 39  1  0
 13 40  1  0
 14 41  1  0
 21 42  1  0
 22 43  1  0
 24 44  1  0
 26 45  1  0
 26 46  1  0
 26 47  1  0
 29 48  1  0
 30 49  1  0
M  CHG  1  16  -1
M  END
>  <UniqueID>  (70) 
66

>  <SMILES>  (70) 
COc1ccccc1Oc1ccccc1[N-]S(=O)(=O)c1ccc(NS(C)(=O)=O)cc1

>  <Energy>  (70) 
59.17658776411008

>  <Genealogy>  (70) 
COc1ccccc1Oc1ccccc1[N-]S(=O)(=O)c1ccc(NS(C)(=O)=O)cc1 (protonated)
COc1ccccc1Oc1ccccc1[N-]S(=O)(=O)c1ccc(NS(C)(=O)=O)cc1 (3D coordinates assigned)
COc1ccccc1Oc1ccccc1[N-]S(=O)(=O)c1ccc(NS(C)(=O)=O)cc1 (optimized conformer: 59.17658776411008 kcal/mol)

>  <smiles>  (70) 
COc1ccccc1Oc1ccccc1NS(=O)(=O)c1ccc(NS(C)(=O)=O)cc1

>  <score_type>  (70) 
oracle

>  <origin>  (70) 
adg

>  <m_score__min__energy>  (70) 
-11.199999999999999

>  <m_primary>  (70) 
energy

$$$$
70:0
     RDKit          3D

 88 91  0  0  0  0  0  0  0  0999 V2000
   63.2140   31.4560   51.3560 H   0  0  0  0  0  0  0  0  0  0  0  0
   62.8970   30.5230   51.5950 O   0  0  0  0  0  0  0  0  0  0  0  0
   62.0410   29.8130   50.7500 C   0  0  0  0  0  0  0  0  0  0  0  0
   61.6070   30.3720   49.5400 C   0  0  0  0  0  0  0  0  0  0  0  0
   61.9363   31.3811   49.2513 H   0  0  0  0  0  0  0  0  0  0  0  0
   60.7550   29.6470   48.6990 C   0  0  0  0  0  0  0  0  0  0  0  0
   60.4117   30.0909   47.7529 H   0  0  0  0  0  0  0  0  0  0  0  0
   60.3360   28.3540   49.0580 C   0  0  0  0  0  0  0  0  0  0  0  0
   59.4130   27.5750   48.1550 C   0  0  0  0  0  0  0  0  0  0  0  0
   58.4053   27.5669   48.5960 H   0  0  0  0  0  0  0  0  0  0  0  0
   59.8081   26.5529   48.0586 H   0  0  0  0  0  0  0  0  0  0  0  0
   59.3380   28.1950   46.7520 C   0  0  1  0  0  0  0  0  0  0  0  0
   60.0839   28.9978   46.6566 H   0  0  0  0  0  0  0  0  0  0  0  0
   59.6370   27.1780   45.7470 N   0  0  0  0  0  0  0  0  0  0  0  0
   59.3770   25.7800   45.9190 C   0  0  0  0  0  0  0  0  0  0  0  0
   60.2950   25.0100   46.3170 O   0  0  0  0  0  0  0  0  0  0  0  0
   58.0290   25.2430   45.6350 C   0  0  0  0  0  0  0  0  0  0  0  0
   57.6760   24.8440   44.3310 C   0  0  0  0  0  0  0  0  0  0  0  0
   58.3936   24.9698   43.5069 H   0  0  0  0  0  0  0  0  0  0  0  0
   56.4160   24.2880   44.0790 C   0  0  0  0  0  0  0  0  0  0  0  0
   56.1449   23.9815   43.0579 H   0  0  0  0  0  0  0  0  0  0  0  0
   55.5020   24.1220   45.1240 C   0  0  0  0  0  0  0  0  0  0  0  0
   54.2900   23.5640   44.8840 F   0  0  0  0  0  0  0  0  0  0  0  0
   55.8430   24.5150   46.4230 C   0  0  0  0  0  0  0  0  0  0  0  0
   55.1239   24.3792   47.2442 H   0  0  0  0  0  0  0  0  0  0  0  0
   57.0960   25.0800   46.6790 C   0  0  0  0  0  0  0  0  0  0  0  0
   57.3549   25.3987   47.6995 H   0  0  0  0  0  0  0  0  0  0  0  0
   57.9710   28.7930   46.5380 C   0  0  0  0  0  0  0  0  0  0  0  0
   56.9920   28.0630   46.2270 O   0  0  0  0  0  0  0  0  0  0  0  0
   57.7940   30.2000   46.7440 N   0  0  0  0  0  0  0  0  0  0  0  0
   58.3810   31.2610   45.9250 C   0  0  1  0  0  0  0  0  0  0  0  0
   57.6978   32.1221   45.8830 H   0  0  0  0  0  0  0  0  0  0  0  0
   59.6540   31.7650   46.5610 C   0  0  0  0  0  0  0  0  0  0  0  0
   60.7590   31.1900   46.3450 O   0  0  0  0  0  0  0  0  0  0  0  0
   59.6170   32.9720   47.3270 N   0  0  0  0  0  0  0  0  0  0  0  0
   60.7210   33.9220   47.3550 C   0  0  0  0  0  0  0  0  0  0  0  0
   60.3357   34.9392   47.1915 H   0  0  0  0  0  0  0  0  0  0  0  0
   61.4419   33.6755   46.5615 H   0  0  0  0  0  0  0  0  0  0  0  0
   61.3990   33.8500   48.6950 C   0  0  0  0  0  0  0  0  0  0  0  0
   62.7440   33.5890   48.9180 C   0  0  0  0  0  0  0  0  0  0  0  0
   63.8070   33.4930   47.8740 C   0  0  0  0  0  0  0  0  0  0  0  0
   64.7903   33.4042   48.3590 H   0  0  0  0  0  0  0  0  0  0  0  0
   63.6262   32.6075   47.2469 H   0  0  0  0  0  0  0  0  0  0  0  0
   63.7877   34.3965   47.2469 H   0  0  0  0  0  0  0  0  0  0  0  0
   62.9380   33.2500   50.2090 N   0  0  0  0  0  0  0  0  0  0  0  0
   61.7650   33.3080   50.8180 N   0  0  0  0  0  0  0  0  0  0  0  0
   61.5660   32.9320   52.2140 C   0  0  0  0  0  0  0  0  0  0  0  0
   61.9801   33.7144   52.8671 H   0  0  0  0  0  0  0  0  0  0  0  0
   60.4902   32.8192   52.4136 H   0  0  0  0  0  0  0  0  0  0  0  0
   62.0778   31.9790   52.4136 H   0  0  0  0  0  0  0  0  0  0  0  0
   60.8080   33.6580   49.9360 C   0  0  0  0  0  0  0  0  0  0  0  0
   59.3670   33.6940   50.2490 C   0  0  0  0  0  0  0  0  0  0  0  0
   58.9660   34.6046   50.7179 H   0  0  0  0  0  0  0  0  0  0  0  0
   58.5140   32.6910   50.0000 C   0  0  0  0  0  0  0  0  0  0  0  0
   58.1700   32.5641   48.9629 H   0  0  0  0  0  0  0  0  0  0  0  0
   57.9980   31.7400   51.0110 C   0  0  0  0  0  0  0  0  0  0  0  0
   58.5490   30.4510   51.0730 C   0  0  0  0  0  0  0  0  0  0  0  0
   59.3304   30.1561   50.3571 H   0  0  0  0  0  0  0  0  0  0  0  0
   58.1120   29.5390   52.0380 C   0  0  0  0  0  0  0  0  0  0  0  0
   58.5372   28.5249   52.0649 H   0  0  0  0  0  0  0  0  0  0  0  0
   57.1330   29.9110   52.9730 C   0  0  0  0  0  0  0  0  0  0  0  0
   56.6700   28.9480   54.0240 C   0  0  0  0  0  0  0  0  0  0  0  0
   56.8719   29.3678   55.0205 H   0  0  0  0  0  0  0  0  0  0  0  0
   55.5897   28.7739   53.9114 H   0  0  0  0  0  0  0  0  0  0  0  0
   57.2086   27.9955   53.9114 H   0  0  0  0  0  0  0  0  0  0  0  0
   56.6030   31.2080   52.9340 C   0  0  0  0  0  0  0  0  0  0  0  0
   55.8396   31.5093   53.6665 H   0  0  0  0  0  0  0  0  0  0  0  0
   57.0390   32.1200   51.9700 C   0  0  0  0  0  0  0  0  0  0  0  0
   56.6308   33.1414   51.9598 H   0  0  0  0  0  0  0  0  0  0  0  0
   58.5480   30.7940   44.4600 C   0  0  0  0  0  0  0  0  0  0  0  0
   59.5876   30.9695   44.1463 H   0  0  0  0  0  0  0  0  0  0  0  0
   58.2964   29.7243   44.4104 H   0  0  0  0  0  0  0  0  0  0  0  0
   57.6040   31.5540   43.5080 C   0  0  0  0  0  0  0  0  0  0  0  0
   57.1754   32.4111   44.0480 H   0  0  0  0  0  0  0  0  0  0  0  0
   58.1973   31.8751   42.6392 H   0  0  0  0  0  0  0  0  0  0  0  0
   56.4550   30.6780   42.9860 C   0  0  0  0  0  0  0  0  0  0  0  0
   55.5132   31.2374   43.0863 H   0  0  0  0  0  0  0  0  0  0  0  0
   56.6754   30.4342   41.9363 H   0  0  0  0  0  0  0  0  0  0  0  0
   56.3220   29.3540   43.7490 C   0  0  0  0  0  0  0  0  0  0  0  0
   55.9034   28.5878   43.0800 H   0  0  0  0  0  0  0  0  0  0  0  0
   57.3148   29.0372   44.1012 H   0  0  0  0  0  0  0  0  0  0  0  0
   55.4370   29.5300   44.8980 N   0  0  0  0  0  0  0  0  0  0  0  0
   55.1430   28.5780   45.2160 H   0  0  0  0  0  0  0  0  0  0  0  0
   55.9960   29.9460   45.6790 H   0  0  0  0  0  0  0  0  0  0  0  0
   60.7600   27.8070   50.2800 C   0  0  0  0  0  0  0  0  0  0  0  0
   60.4174   26.8057   50.5801 H   0  0  0  0  0  0  0  0  0  0  0  0
   61.6160   28.5300   51.1170 C   0  0  0  0  0  0  0  0  0  0  0  0
   61.9563   28.0898   52.0659 H   0  0  0  0  0  0  0  0  0  0  0  0
  1  2  1  0
  2  3  1  0
  3  4  2  0
  4  5  1  0
  4  6  1  0
  6  7  1  0
  6  8  2  0
  8  9  1  0
  9 10  1  0
  9 11  1  0
  9 12  1  0
 12 13  1  1
 12 14  1  0
 14 15  1  0
 15 16  2  0
 15 17  1  0
 17 18  2  0
 18 19  1  0
 18 20  1  0
 20 21  1  0
 20 22  2  0
 22 23  1  0
 22 24  1  0
 24 25  1  0
 24 26  2  0
 26 27  1  0
 12 28  1  0
 28 29  2  0
 28 30  1  0
 30 31  1  0
 31 32  1  6
 31 33  1  0
 33 34  2  0
 33 35  1  0
 35 36  1  0
 36 37  1  0
 36 38  1  0
 36 39  1  0
 39 40  1  0
 40 41  1  0
 41 42  1  0
 41 43  1  0
 41 44  1  0
 40 45  2  0
 45 46  1  0
 46 47  1  0
 47 48  1  0
 47 49  1  0
 47 50  1  0
 46 51  1  0
 51 52  1  0
 52 53  1  0
 52 54  2  0
 54 55  1  0
 54 56  1  0
 56 57  2  0
 57 58  1  0
 57 59  1  0
 59 60  1  0
 59 61  2  0
 61 62  1  0
 62 63  1  0
 62 64  1  0
 62 65  1  0
 61 66  1  0
 66 67  1  0
 66 68  2  0
 68 69  1  0
 31 70  1  0
 70 71  1  0
 70 72  1  0
 70 73  1  0
 73 74  1  0
 73 75  1  0
 73 76  1  0
 76 77  1  0
 76 78  1  0
 76 79  1  0
 79 80  1  0
 79 81  1  0
 79 82  1  0
 82 83  1  0
 82 84  1  0
  8 85  1  0
 85 86  1  0
 85 87  2  0
 87 88  1  0
 87  3  1  0
 26 17  1  0
 51 39  2  0
 68 56  1  0
M  CHG  3  14  -1  30  -1  35  -1
M  END
>  <UniqueID>  (71) 
67

>  <SMILES>  (71) 
Cc1ccc(/C=C\c2c(C[N-]C(=O)[C@@H](CCCCN)[N-]C(=O)[C@@H](Cc3ccc(O)cc3)[N-]C(=O)c3ccc(F)cc3)c(C)nn2C)cc1

>  <Energy>  (71) 
115.74141612140922

>  <Genealogy>  (71) 
Cc1ccc(C=Cc2c(C[N-]C(=O)C(CCCCN)[N-]C(=O)C(Cc3ccc(O)cc3)[N-]C(=O)c3ccc(F)cc3)c(C)nn2C)cc1 (protonated)
Cc1ccc(C=Cc2c(C[N-]C(=O)[C@@H](CCCCN)[N-]C(=O)[C@@H](Cc3ccc(O)cc3)[N-]C(=O)c3ccc(F)cc3)c(C)nn2C)cc1 (chirality)
Cc1ccc(/C=C\c2c(C[N-]C(=O)[C@@H](CCCCN)[N-]C(=O)[C@@H](Cc3ccc(O)cc3)[N-]C(=O)c3ccc(F)cc3)c(C)nn2C)cc1 (cis-trans isomerization)
Cc1ccc(/C=C\c2c(C[N-]C(=O)[C@@H](CCCCN)[N-]C(=O)[C@@H](Cc3ccc(O)cc3)[N-]C(=O)c3ccc(F)cc3)c(C)nn2C)cc1 (3D coordinates assigned)
Cc1ccc(/C=C\c2c(C[N-]C(=O)[C@@H](CCCCN)[N-]C(=O)[C@@H](Cc3ccc(O)cc3)[N-]C(=O)c3ccc(F)cc3)c(C)nn2C)cc1 (optimized conformer: 115.74141612140922 kcal/mol)

>  <smiles>  (71) 
Cc1ccc(C=Cc2c(CNC(=O)C(CCCCN)NC(=O)C(Cc3ccc(O)cc3)NC(=O)c3ccc(F)cc3)c(C)nn2C)cc1

>  <score_type>  (71) 
oracle

>  <origin>  (71) 
adg

>  <m_score__min__energy>  (71) 
-14.470000000000001

>  <m_primary>  (71) 
energy

$$$$
71:0
     RDKit          3D

 58 61  0  0  0  0  0  0  0  0999 V2000
   58.3630   31.8920   49.6670 C   0  0  0  0  0  0  0  0  0  0  0  0
   59.3730   31.1330   50.4920 C   0  0  0  0  0  0  0  0  0  0  0  0
   59.7870   31.6630   51.7270 C   0  0  0  0  0  0  0  0  0  0  0  0
   60.7140   30.9810   52.5190 C   0  0  0  0  0  0  0  0  0  0  0  0
   61.2430   29.7650   52.0880 C   0  0  0  0  0  0  0  0  0  0  0  0
   60.8560   29.2290   50.8580 C   0  0  0  0  0  0  0  0  0  0  0  0
   59.9330   29.9110   50.0390 C   0  0  0  0  0  0  0  0  0  0  0  0
   59.5250   29.2880   48.7270 C   0  0  0  0  0  0  0  0  0  0  0  0
   60.6480   28.5200   48.1800 N   0  0  0  0  0  0  0  0  0  0  0  0
   60.0550   27.1490   47.2910 S   0  0  0  0  0  0  0  0  0  0  0  0
   61.1970   26.3950   46.6710 O   0  0  0  0  0  0  0  0  0  0  0  0
   59.3210   26.2290   48.2260 O   0  0  0  0  0  0  0  0  0  0  0  0
   58.9500   27.6940   46.0430 C   0  0  0  0  0  0  0  0  0  0  0  0
   59.2350   27.7790   44.6880 C   0  0  0  0  0  0  0  0  0  0  0  0
   58.1860   28.3300   43.9420 C   0  0  0  0  0  0  0  0  0  0  0  0
   57.0790   28.6630   44.7170 C   0  0  0  0  0  0  0  0  0  0  0  0
   55.8430   29.3410   44.2310 C   0  0  0  0  0  0  0  0  0  0  0  0
   55.9340   30.7680   44.5150 N   0  0  0  0  0  0  0  0  0  0  0  0
   57.0430   31.6070   44.1640 C   0  0  0  0  0  0  0  0  0  0  0  0
   57.1470   32.0050   42.9740 O   0  0  0  0  0  0  0  0  0  0  0  0
   58.0930   31.9710   45.1380 C   0  0  0  0  0  0  0  0  0  0  0  0
   59.1220   31.0480   45.4360 C   0  0  0  0  0  0  0  0  0  0  0  0
   60.1240   31.3710   46.3660 C   0  0  0  0  0  0  0  0  0  0  0  0
   60.0830   32.6270   46.9740 C   0  0  0  0  0  0  0  0  0  0  0  0
   59.1080   33.5360   46.6710 C   0  0  0  0  0  0  0  0  0  0  0  0
   58.0990   33.2410   45.7520 C   0  0  0  0  0  0  0  0  0  0  0  0
   59.3100   34.7970   47.4400 C   0  0  0  0  0  0  0  0  0  0  0  0
   60.5740   34.5050   48.2870 C   0  0  0  0  0  0  0  0  0  0  0  0
   60.9850   33.1500   47.9290 N   0  0  0  0  0  0  0  0  0  0  0  0
   62.3410   32.3210   48.6240 S   0  0  0  0  0  0  0  0  0  0  0  0
   63.8530   33.0010   47.9780 C   0  0  0  0  0  0  0  0  0  0  0  0
   62.2540   30.8560   48.3070 O   0  0  0  0  0  0  0  0  0  0  0  0
   62.3230   32.4960   50.1180 O   0  0  0  0  0  0  0  0  0  0  0  0
   57.4130   28.3090   46.3280 S   0  0  0  0  0  0  0  0  0  0  0  0
   57.6643   32.4171   50.3349 H   0  0  0  0  0  0  0  0  0  0  0  0
   58.8838   32.6241   49.0323 H   0  0  0  0  0  0  0  0  0  0  0  0
   57.8046   31.1881   49.0323 H   0  0  0  0  0  0  0  0  0  0  0  0
   59.3771   32.6235   52.0727 H   0  0  0  0  0  0  0  0  0  0  0  0
   61.0273   31.4042   53.4848 H   0  0  0  0  0  0  0  0  0  0  0  0
   61.9665   29.2269   52.7181 H   0  0  0  0  0  0  0  0  0  0  0  0
   61.2744   28.2675   50.5256 H   0  0  0  0  0  0  0  0  0  0  0  0
   58.6677   28.6183   48.8901 H   0  0  0  0  0  0  0  0  0  0  0  0
   59.2423   30.0797   48.0176 H   0  0  0  0  0  0  0  0  0  0  0  0
   61.1560   29.1320   47.4970 H   0  0  0  0  0  0  0  0  0  0  0  0
   60.1862   27.4480   44.2456 H   0  0  0  0  0  0  0  0  0  0  0  0
   58.2322   28.4840   42.8538 H   0  0  0  0  0  0  0  0  0  0  0  0
   55.7419   29.1877   43.1464 H   0  0  0  0  0  0  0  0  0  0  0  0
   54.9652   28.9184   44.7419 H   0  0  0  0  0  0  0  0  0  0  0  0
   59.1380   30.0687   44.9353 H   0  0  0  0  0  0  0  0  0  0  0  0
   60.9207   30.6525   46.6090 H   0  0  0  0  0  0  0  0  0  0  0  0
   57.3243   33.9840   45.5116 H   0  0  0  0  0  0  0  0  0  0  0  0
   59.4780   35.6477   46.7632 H   0  0  0  0  0  0  0  0  0  0  0  0
   58.4377   35.0703   48.0519 H   0  0  0  0  0  0  0  0  0  0  0  0
   61.3713   35.2238   48.0467 H   0  0  0  0  0  0  0  0  0  0  0  0
   60.3711   34.5965   49.3642 H   0  0  0  0  0  0  0  0  0  0  0  0
   64.5080   33.2956   48.8112 H   0  0  0  0  0  0  0  0  0  0  0  0
   64.3613   32.2448   47.3617 H   0  0  0  0  0  0  0  0  0  0  0  0
   63.6245   33.8830   47.3617 H   0  0  0  0  0  0  0  0  0  0  0  0
  1  2  1  0
  2  3  2  0
  3  4  1  0
  4  5  2  0
  5  6  1  0
  6  7  2  0
  7  8  1  0
  8  9  1  0
  9 10  1  0
 10 11  2  0
 10 12  2  0
 10 13  1  0
 13 14  2  0
 14 15  1  0
 15 16  2  0
 16 17  1  0
 17 18  1  0
 18 19  1  0
 19 20  2  0
 19 21  1  0
 21 22  2  0
 22 23  1  0
 23 24  2  0
 24 25  1  0
 25 26  2  0
 25 27  1  0
 27 28  1  0
 28 29  1  0
 29 30  1  0
 30 31  1  0
 30 32  2  0
 30 33  2  0
 16 34  1  0
  7  2  1  0
 34 13  1  0
 26 21  1  0
 29 24  1  0
  1 35  1  0
  1 36  1  0
  1 37  1  0
  3 38  1  0
  4 39  1  0
  5 40  1  0
  6 41  1  0
  8 42  1  0
  8 43  1  0
  9 44  1  0
 14 45  1  0
 15 46  1  0
 17 47  1  0
 17 48  1  0
 22 49  1  0
 23 50  1  0
 26 51  1  0
 27 52  1  0
 27 53  1  0
 28 54  1  0
 28 55  1  0
 31 56  1  0
 31 57  1  0
 31 58  1  0
M  CHG  1  18  -1
M  END
>  <UniqueID>  (72) 
68

>  <SMILES>  (72) 
Cc1ccccc1CNS(=O)(=O)c1ccc(C[N-]C(=O)c2ccc3c(c2)CCN3S(C)(=O)=O)s1

>  <Energy>  (72) 
98.16285634955871

>  <Genealogy>  (72) 
Cc1ccccc1CNS(=O)(=O)c1ccc(C[N-]C(=O)c2ccc3c(c2)CCN3S(C)(=O)=O)s1 (protonated)
Cc1ccccc1CNS(=O)(=O)c1ccc(C[N-]C(=O)c2ccc3c(c2)CCN3S(C)(=O)=O)s1 (3D coordinates assigned)
Cc1ccccc1CNS(=O)(=O)c1ccc(C[N-]C(=O)c2ccc3c(c2)CCN3S(C)(=O)=O)s1 (nonaromatic ring conformer: 98.16285634955871 kcal/mol)

>  <smiles>  (72) 
Cc1ccccc1CNS(=O)(=O)c1ccc(CNC(=O)c2ccc3c(c2)CCN3S(C)(=O)=O)s1

>  <score_type>  (72) 
oracle

>  <origin>  (72) 
adg

>  <m_score__min__energy>  (72) 
-11.41

>  <m_primary>  (72) 
energy

$$$$
72:0
     RDKit          3D

 40 41  0  0  0  0  0  0  0  0999 V2000
   55.4910   25.9040   47.1270 H   0  0  0  0  0  0  0  0  0  0  0  0
   55.2430   25.6260   46.1840 O   0  0  0  0  0  0  0  0  0  0  0  0
   56.0030   24.6990   45.4710 C   0  0  0  0  0  0  0  0  0  0  0  0
   55.3970   23.9360   44.4620 C   0  0  0  0  0  0  0  0  0  0  0  0
   54.3351   24.0927   44.2215 H   0  0  0  0  0  0  0  0  0  0  0  0
   56.1330   22.9790   43.7610 C   0  0  0  0  0  0  0  0  0  0  0  0
   55.5200   22.2170   42.7740 O   0  0  0  0  0  0  0  0  0  0  0  0
   57.4840   22.7890   44.0510 C   0  0  0  0  0  0  0  0  0  0  0  0
   58.0624   22.0329   43.4998 H   0  0  0  0  0  0  0  0  0  0  0  0
   58.1040   23.5560   45.0390 C   0  0  0  0  0  0  0  0  0  0  0  0
   59.1736   23.4103   45.2505 H   0  0  0  0  0  0  0  0  0  0  0  0
   57.3730   24.5150   45.7680 C   0  0  0  0  0  0  0  0  0  0  0  0
   58.0510   25.3490   46.7970 C   0  0  0  0  0  0  0  0  0  0  0  0
   57.4760   25.5610   47.8990 O   0  0  0  0  0  0  0  0  0  0  0  0
   59.3410   26.0270   46.5550 C   0  0  0  0  0  0  0  0  0  0  0  0
   60.1693   25.7910   47.2392 H   0  0  0  0  0  0  0  0  0  0  0  0
   59.5890   26.9070   45.5710 C   0  0  0  0  0  0  0  0  0  0  0  0
   60.4948   26.7451   44.9683 H   0  0  0  0  0  0  0  0  0  0  0  0
   58.7480   28.0760   45.2280 C   0  0  0  0  0  0  0  0  0  0  0  0
   57.4370   27.8590   44.7830 C   0  0  0  0  0  0  0  0  0  0  0  0
   57.0754   26.8315   44.6297 H   0  0  0  0  0  0  0  0  0  0  0  0
   56.5870   28.9370   44.5330 C   0  0  0  0  0  0  0  0  0  0  0  0
   55.5650   28.7554   44.1689 H   0  0  0  0  0  0  0  0  0  0  0  0
   57.0280   30.2460   44.7430 C   0  0  0  0  0  0  0  0  0  0  0  0
   56.1520   31.3030   44.5160 O   0  0  0  0  0  0  0  0  0  0  0  0
   58.3420   30.4850   45.1900 C   0  0  0  0  0  0  0  0  0  0  0  0
   58.8240   31.8930   45.4600 C   0  0  0  0  0  0  0  0  0  0  0  0
   58.9462   32.4191   44.5017 H   0  0  0  0  0  0  0  0  0  0  0  0
   59.7815   31.8333   45.9982 H   0  0  0  0  0  0  0  0  0  0  0  0
   57.8650   32.6410   46.3000 N   0  0  0  0  0  0  0  0  0  0  0  0
   57.3840   33.8470   45.6030 C   0  0  0  0  0  0  0  0  0  0  0  0
   57.0826   34.6027   46.3433 H   0  0  0  0  0  0  0  0  0  0  0  0
   58.1894   34.2520   44.9727 H   0  0  0  0  0  0  0  0  0  0  0  0
   56.5209   33.5865   44.9727 H   0  0  0  0  0  0  0  0  0  0  0  0
   58.5040   33.0270   47.5680 C   0  0  0  0  0  0  0  0  0  0  0  0
   57.8983   32.6611   48.4101 H   0  0  0  0  0  0  0  0  0  0  0  0
   59.5101   32.5855   47.6209 H   0  0  0  0  0  0  0  0  0  0  0  0
   58.5813   34.1230   47.6209 H   0  0  0  0  0  0  0  0  0  0  0  0
   59.1910   29.3930   45.4440 C   0  0  0  0  0  0  0  0  0  0  0  0
   60.2111   29.5708   45.8151 H   0  0  0  0  0  0  0  0  0  0  0  0
  1  2  1  0
  2  3  1  0
  3  4  2  0
  4  5  1  0
  4  6  1  0
  6  7  1  0
  6  8  2  0
  8  9  1  0
  8 10  1  0
 10 11  1  0
 10 12  2  0
 12 13  1  0
 13 14  2  0
 13 15  1  0
 15 16  1  0
 15 17  2  0
 17 18  1  0
 17 19  1  0
 19 20  2  0
 20 21  1  0
 20 22  1  0
 22 23  1  0
 22 24  2  0
 24 25  1  0
 24 26  1  0
 26 27  1  0
 27 28  1  0
 27 29  1  0
 27 30  1  0
 30 31  1  0
 31 32  1  0
 31 33  1  0
 31 34  1  0
 30 35  1  0
 35 36  1  0
 35 37  1  0
 35 38  1  0
 26 39  2  0
 39 40  1  0
 12  3  1  0
 39 19  1  0
M  CHG  2   7  -1  25  -1
M  END
>  <UniqueID>  (73) 
69

>  <SMILES>  (73) 
CN(C)Cc1cc(/C=C\C(=O)c2ccc([O-])cc2O)ccc1[O-]

>  <Energy>  (73) 
50.24520757461686

>  <Genealogy>  (73) 
CN(C)Cc1cc(C=CC(=O)c2ccc([O-])cc2O)ccc1[O-] (protonated)
CN(C)Cc1cc(/C=C\C(=O)c2ccc([O-])cc2O)ccc1[O-] (cis-trans isomerization)
CN(C)Cc1cc(/C=C\C(=O)c2ccc([O-])cc2O)ccc1[O-] (3D coordinates assigned)
CN(C)Cc1cc(/C=C\C(=O)c2ccc([O-])cc2O)ccc1[O-] (optimized conformer: 50.24520757461686 kcal/mol)

>  <smiles>  (73) 
CN(C)Cc1cc(C=CC(=O)c2ccc(O)cc2O)ccc1O

>  <score_type>  (73) 
oracle

>  <origin>  (73) 
adg

>  <m_score__min__energy>  (73) 
-11.77

>  <m_primary>  (73) 
energy

$$$$
73:0
     RDKit          3D

 48 50  0  0  0  0  0  0  0  0999 V2000
   59.6260   30.1170   49.0760 C   0  0  0  0  0  0  0  0  0  0  0  0
   59.7110   31.1690   48.1210 O   0  0  0  0  0  0  0  0  0  0  0  0
   60.8970   31.8400   47.7740 C   0  0  0  0  0  0  0  0  0  0  0  0
   62.1530   31.2020   47.8350 C   0  0  0  0  0  0  0  0  0  0  0  0
   63.3150   31.8960   47.4930 C   0  0  0  0  0  0  0  0  0  0  0  0
   63.2430   33.2290   47.0880 C   0  0  0  0  0  0  0  0  0  0  0  0
   62.0070   33.8730   47.0210 C   0  0  0  0  0  0  0  0  0  0  0  0
   60.8260   33.1870   47.3560 C   0  0  0  0  0  0  0  0  0  0  0  0
   59.5100   33.9190   47.2970 C   0  0  0  0  0  0  0  0  0  0  0  0
   58.7570   33.5600   46.0520 C   0  0  0  0  0  0  0  0  0  0  0  0
   58.1210   34.4550   45.4310 O   0  0  0  0  0  0  0  0  0  0  0  0
   58.7660   32.2100   45.5640 N   0  0  0  0  0  0  0  0  0  0  0  0
   58.1160   31.8400   44.3410 C   0  0  0  0  0  0  0  0  0  0  0  0
   58.2640   32.6840   43.2310 C   0  0  0  0  0  0  0  0  0  0  0  0
   57.7010   32.3410   42.0010 C   0  0  0  0  0  0  0  0  0  0  0  0
   56.9800   31.1560   41.8710 C   0  0  0  0  0  0  0  0  0  0  0  0
   56.8020   30.3170   42.9720 C   0  0  0  0  0  0  0  0  0  0  0  0
   57.3500   30.6500   44.2270 C   0  0  0  0  0  0  0  0  0  0  0  0
   57.0600   29.7720   45.3920 C   0  0  0  0  0  0  0  0  0  0  0  0
   57.5820   30.0210   46.5120 O   0  0  0  0  0  0  0  0  0  0  0  0
   56.2200   28.6230   45.2470 N   0  0  0  0  0  0  0  0  0  0  0  0
   56.6670   27.2610   45.4990 C   0  0  0  0  0  0  0  0  0  0  0  0
   58.0720   27.2940   46.0260 C   0  0  0  0  0  0  0  0  0  0  0  0
   58.3370   27.0150   47.3750 C   0  0  0  0  0  0  0  0  0  0  0  0
   59.6590   27.0020   47.8270 C   0  0  0  0  0  0  0  0  0  0  0  0
   60.6780   27.2530   46.9650 N   0  0  0  0  0  0  0  0  0  0  0  0
   60.4500   27.5230   45.6510 C   0  0  0  0  0  0  0  0  0  0  0  0
   59.1430   27.5450   45.1570 C   0  0  0  0  0  0  0  0  0  0  0  0
   59.6601   30.5396   50.0910 H   0  0  0  0  0  0  0  0  0  0  0  0
   58.6809   29.5715   48.9375 H   0  0  0  0  0  0  0  0  0  0  0  0
   60.4713   29.4269   48.9375 H   0  0  0  0  0  0  0  0  0  0  0  0
   62.2176   30.1512   48.1540 H   0  0  0  0  0  0  0  0  0  0  0  0
   64.2905   31.3901   47.5430 H   0  0  0  0  0  0  0  0  0  0  0  0
   64.1613   33.7728   46.8213 H   0  0  0  0  0  0  0  0  0  0  0  0
   61.9560   34.9250   46.7038 H   0  0  0  0  0  0  0  0  0  0  0  0
   58.9060   33.6465   48.1750 H   0  0  0  0  0  0  0  0  0  0  0  0
   59.7083   35.0010   47.2897 H   0  0  0  0  0  0  0  0  0  0  0  0
   59.1090   31.4470   46.1890 H   0  0  0  0  0  0  0  0  0  0  0  0
   58.8279   33.6232   43.3305 H   0  0  0  0  0  0  0  0  0  0  0  0
   57.8265   33.0063   41.1341 H   0  0  0  0  0  0  0  0  0  0  0  0
   56.5494   30.8806   40.8970 H   0  0  0  0  0  0  0  0  0  0  0  0
   56.2277   29.3856   42.8590 H   0  0  0  0  0  0  0  0  0  0  0  0
   56.0066   26.7880   46.2407 H   0  0  0  0  0  0  0  0  0  0  0  0
   56.6357   26.6821   44.5642 H   0  0  0  0  0  0  0  0  0  0  0  0
   57.5108   26.8082   48.0712 H   0  0  0  0  0  0  0  0  0  0  0  0
   59.8751   26.7878   48.8841 H   0  0  0  0  0  0  0  0  0  0  0  0
   61.2955   27.7242   44.9768 H   0  0  0  0  0  0  0  0  0  0  0  0
   58.9559   27.7577   44.0941 H   0  0  0  0  0  0  0  0  0  0  0  0
  1  2  1  0
  2  3  1  0
  3  4  2  0
  4  5  1  0
  5  6  2  0
  6  7  1  0
  7  8  2  0
  8  9  1  0
  9 10  1  0
 10 11  2  0
 10 12  1  0
 12 13  1  0
 13 14  2  0
 14 15  1  0
 15 16  2  0
 16 17  1  0
 17 18  2  0
 18 19  1  0
 19 20  2  0
 19 21  1  0
 21 22  1  0
 22 23  1  0
 23 24  2  0
 24 25  1  0
 25 26  2  0
 26 27  1  0
 27 28  2  0
  8  3  1  0
 18 13  1  0
 28 23  1  0
  1 29  1  0
  1 30  1  0
  1 31  1  0
  4 32  1  0
  5 33  1  0
  6 34  1  0
  7 35  1  0
  9 36  1  0
  9 37  1  0
 12 38  1  0
 14 39  1  0
 15 40  1  0
 16 41  1  0
 17 42  1  0
 22 43  1  0
 22 44  1  0
 24 45  1  0
 25 46  1  0
 27 47  1  0
 28 48  1  0
M  CHG  1  21  -1
M  END
>  <UniqueID>  (74) 
70

>  <SMILES>  (74) 
COc1ccccc1CC(=O)Nc1ccccc1C(=O)[N-]Cc1ccncc1

>  <Energy>  (74) 
52.77263470164697

>  <Genealogy>  (74) 
COc1ccccc1CC(=O)Nc1ccccc1C(=O)[N-]Cc1ccncc1 (protonated)
COc1ccccc1CC(=O)Nc1ccccc1C(=O)[N-]Cc1ccncc1 (3D coordinates assigned)
COc1ccccc1CC(=O)Nc1ccccc1C(=O)[N-]Cc1ccncc1 (optimized conformer: 52.77263470164697 kcal/mol)

>  <smiles>  (74) 
COc1ccccc1CC(=O)Nc1ccccc1C(=O)NCc1ccncc1

>  <score_type>  (74) 
oracle

>  <origin>  (74) 
adg

>  <m_score__min__energy>  (74) 
-10.58

>  <m_primary>  (74) 
energy

$$$$
74:0
     RDKit          3D

 57 60  0  0  0  0  0  0  0  0999 V2000
   59.0510   33.5060   52.1760 C   0  0  0  0  0  0  0  0  0  0  0  0
   59.9670   32.4720   51.8320 O   0  0  0  0  0  0  0  0  0  0  0  0
   60.0220   31.8480   50.5760 C   0  0  0  0  0  0  0  0  0  0  0  0
   59.0010   30.9620   50.2350 C   0  0  0  0  0  0  0  0  0  0  0  0
   59.0130   30.3070   49.0050 C   0  0  0  0  0  0  0  0  0  0  0  0
   60.0440   30.5350   48.0870 C   0  0  0  0  0  0  0  0  0  0  0  0
   60.0400   29.8240   46.8410 N   0  0  0  0  0  0  0  0  0  0  0  0
   59.8280   28.4100   46.7630 C   0  0  0  0  0  0  0  0  0  0  0  0
   60.3230   27.6590   47.6480 O   0  0  0  0  0  0  0  0  0  0  0  0
   59.0470   27.8280   45.6510 C   0  0  0  0  0  0  0  0  0  0  0  0
   58.6040   28.5490   44.5290 C   0  0  0  0  0  0  0  0  0  0  0  0
   58.7640   29.9650   44.3720 N   0  0  0  0  0  0  0  0  0  0  0  0
   57.7090   30.9280   44.2830 C   0  0  0  0  0  0  0  0  0  0  0  0
   56.6040   30.7320   44.8560 O   0  0  0  0  0  0  0  0  0  0  0  0
   57.9360   32.1890   43.5020 C   0  0  0  0  0  0  0  0  0  0  0  0
   57.3970   33.4290   44.2260 C   0  0  0  0  0  0  0  0  0  0  0  0
   58.1910   33.7630   45.4620 C   0  0  0  0  0  0  0  0  0  0  0  0
   59.2890   34.6370   45.3780 C   0  0  0  0  0  0  0  0  0  0  0  0
   60.0200   34.9700   46.5250 C   0  0  0  0  0  0  0  0  0  0  0  0
   59.6560   34.4440   47.7670 C   0  0  0  0  0  0  0  0  0  0  0  0
   58.5600   33.5840   47.8640 C   0  0  0  0  0  0  0  0  0  0  0  0
   57.8320   33.2380   46.7180 C   0  0  0  0  0  0  0  0  0  0  0  0
   57.7740   27.5160   43.4610 S   0  0  0  0  0  0  0  0  0  0  0  0
   57.9900   26.1710   44.4330 C   0  0  0  0  0  0  0  0  0  0  0  0
   58.6740   26.4810   45.5500 C   0  0  0  0  0  0  0  0  0  0  0  0
   58.9390   25.2840   46.3790 C   0  0  0  0  0  0  0  0  0  0  0  0
   58.2040   24.1500   45.6140 C   0  0  0  0  0  0  0  0  0  0  0  0
   57.6550   24.7460   44.2930 C   0  0  0  0  0  0  0  0  0  0  0  0
   61.0960   31.4080   48.4220 C   0  0  0  0  0  0  0  0  0  0  0  0
   62.1600   31.5690   47.5210 O   0  0  0  0  0  0  0  0  0  0  0  0
   63.0100   32.7080   47.4610 C   0  0  0  0  0  0  0  0  0  0  0  0
   61.0660   32.0770   49.6630 C   0  0  0  0  0  0  0  0  0  0  0  0
   58.9812   33.5847   53.2710 H   0  0  0  0  0  0  0  0  0  0  0  0
   59.4043   34.4617   51.7614 H   0  0  0  0  0  0  0  0  0  0  0  0
   58.0597   33.2706   51.7614 H   0  0  0  0  0  0  0  0  0  0  0  0
   58.1791   30.7784   50.9427 H   0  0  0  0  0  0  0  0  0  0  0  0
   58.2047   29.6045   48.7536 H   0  0  0  0  0  0  0  0  0  0  0  0
   60.3610   30.3150   45.9780 H   0  0  0  0  0  0  0  0  0  0  0  0
   59.0168   32.3155   43.3413 H   0  0  0  0  0  0  0  0  0  0  0  0
   57.3955   32.0954   42.5485 H   0  0  0  0  0  0  0  0  0  0  0  0
   57.4382   34.2858   43.5374 H   0  0  0  0  0  0  0  0  0  0  0  0
   56.3649   33.2125   44.5388 H   0  0  0  0  0  0  0  0  0  0  0  0
   59.5758   35.0621   44.4048 H   0  0  0  0  0  0  0  0  0  0  0  0
   60.8831   35.6475   46.4479 H   0  0  0  0  0  0  0  0  0  0  0  0
   60.2316   34.7067   48.6668 H   0  0  0  0  0  0  0  0  0  0  0  0
   58.2674   33.1770   48.8431 H   0  0  0  0  0  0  0  0  0  0  0  0
   56.9755   32.5526   46.8000 H   0  0  0  0  0  0  0  0  0  0  0  0
   60.0181   25.0805   46.4438 H   0  0  0  0  0  0  0  0  0  0  0  0
   58.5955   25.3953   47.4180 H   0  0  0  0  0  0  0  0  0  0  0  0
   58.9060   23.3327   45.3922 H   0  0  0  0  0  0  0  0  0  0  0  0
   57.3820   23.7464   46.2235 H   0  0  0  0  0  0  0  0  0  0  0  0
   58.1533   24.3031   43.4181 H   0  0  0  0  0  0  0  0  0  0  0  0
   56.5828   24.5576   44.1353 H   0  0  0  0  0  0  0  0  0  0  0  0
   63.2553   33.0367   48.4817 H   0  0  0  0  0  0  0  0  0  0  0  0
   63.9358   32.4469   46.9274 H   0  0  0  0  0  0  0  0  0  0  0  0
   62.4962   33.5212   46.9274 H   0  0  0  0  0  0  0  0  0  0  0  0
   61.8677   32.7853   49.9192 H   0  0  0  0  0  0  0  0  0  0  0  0
  1  2  1  0
  2  3  1  0
  3  4  2  0
  4  5  1  0
  5  6  2  0
  6  7  1  0
  7  8  1  0
  8  9  2  0
  8 10  1  0
 10 11  2  0
 11 12  1  0
 12 13  1  0
 13 14  2  0
 13 15  1  0
 15 16  1  0
 16 17  1  0
 17 18  2  0
 18 19  1  0
 19 20  2  0
 20 21  1  0
 21 22  2  0
 11 23  1  0
 23 24  1  0
 24 25  2  0
 25 26  1  0
 26 27  1  0
 27 28  1  0
  6 29  1  0
 29 30  1  0
 30 31  1  0
 29 32  2  0
 32  3  1  0
 25 10  1  0
 22 17  1  0
 28 24  1  0
  1 33  1  0
  1 34  1  0
  1 35  1  0
  4 36  1  0
  5 37  1  0
  7 38  1  0
 15 39  1  0
 15 40  1  0
 16 41  1  0
 16 42  1  0
 18 43  1  0
 19 44  1  0
 20 45  1  0
 21 46  1  0
 22 47  1  0
 26 48  1  0
 26 49  1  0
 27 50  1  0
 27 51  1  0
 28 52  1  0
 28 53  1  0
 31 54  1  0
 31 55  1  0
 31 56  1  0
 32 57  1  0
M  CHG  1  12  -1
M  END
>  <UniqueID>  (75) 
71

>  <SMILES>  (75) 
COc1ccc(NC(=O)c2c([N-]C(=O)CCc3ccccc3)sc3c2CCC3)c(OC)c1

>  <Energy>  (75) 
108.24402893470719

>  <Genealogy>  (75) 
COc1ccc(NC(=O)c2c([N-]C(=O)CCc3ccccc3)sc3c2CCC3)c(OC)c1 (protonated)
COc1ccc(NC(=O)c2c([N-]C(=O)CCc3ccccc3)sc3c2CCC3)c(OC)c1 (3D coordinates assigned)
COc1ccc(NC(=O)c2c([N-]C(=O)CCc3ccccc3)sc3c2CCC3)c(OC)c1 (nonaromatic ring conformer: 108.24402893470719 kcal/mol)

>  <smiles>  (75) 
COc1ccc(NC(=O)c2c(NC(=O)CCc3ccccc3)sc3c2CCC3)c(OC)c1

>  <score_type>  (75) 
oracle

>  <origin>  (75) 
adg

>  <m_score__min__energy>  (75) 
-10.85

>  <m_primary>  (75) 
energy

$$$$
75:0
     RDKit          3D

 80 84  0  0  0  0  0  0  0  0999 V2000
   56.2940   28.8210   45.2250 C   0  0  0  0  0  0  0  0  0  0  0  0
   56.1870   30.0700   44.4480 N   0  0  0  0  0  0  0  0  0  0  0  0
   56.1720   29.7560   43.0100 C   0  0  0  0  0  0  0  0  0  0  0  0
   57.3070   30.9850   44.7600 C   0  0  0  0  0  0  0  0  0  0  0  0
   58.6520   30.3800   44.3290 C   0  0  0  0  0  0  0  0  0  0  0  0
   59.0150   29.2790   45.1670 O   0  0  0  0  0  0  0  0  0  0  0  0
   59.2490   29.3960   46.5420 C   0  0  0  0  0  0  0  0  0  0  0  0
   59.0320   30.5790   47.1780 N   0  0  0  0  0  0  0  0  0  0  0  0
   59.2450   30.7320   48.5110 C   0  0  0  0  0  0  0  0  0  0  0  0
   59.0580   31.9770   49.1220 O   0  0  0  0  0  0  0  0  0  0  0  0
   59.6270   33.1910   48.6340 C   0  0  0  0  0  0  0  0  0  0  0  0
   58.9930   33.5950   47.3300 C   0  0  0  0  0  0  0  0  0  0  0  0
   59.7870   34.1060   46.2880 C   0  0  0  0  0  0  0  0  0  0  0  0
   59.2020   34.4610   45.0690 C   0  0  0  0  0  0  0  0  0  0  0  0
   57.8230   34.3150   44.8840 C   0  0  0  0  0  0  0  0  0  0  0  0
   57.0260   33.8160   45.9190 C   0  0  0  0  0  0  0  0  0  0  0  0
   57.6080   33.4610   47.1410 C   0  0  0  0  0  0  0  0  0  0  0  0
   59.6700   29.6240   49.2650 C   0  0  0  0  0  0  0  0  0  0  0  0
   59.9520   29.7110   50.7450 C   0  0  1  0  0  0  0  0  0  0  0  0
   61.4560   29.9220   50.9760 C   0  0  0  0  0  0  0  0  0  0  0  0
   61.8600   31.3410   50.6930 C   0  0  0  0  0  0  0  0  0  0  0  0
   61.7160   32.4340   51.5460 C   0  0  0  0  0  0  0  0  0  0  0  0
   62.1080   33.5720   50.9280 N   0  0  0  0  0  0  0  0  0  0  0  0
   62.4860   33.2080   49.6890 C   0  0  0  0  0  0  0  0  0  0  0  0
   62.9470   34.0400   48.6690 C   0  0  0  0  0  0  0  0  0  0  0  0
   63.2760   33.4480   47.4340 C   0  0  0  0  0  0  0  0  0  0  0  0
   63.1260   32.0550   47.2450 C   0  0  0  0  0  0  0  0  0  0  0  0
   62.6510   31.2420   48.2900 C   0  0  0  0  0  0  0  0  0  0  0  0
   62.3450   31.8550   49.5060 C   0  0  0  0  0  0  0  0  0  0  0  0
   59.1820   30.7930   51.3610 N   0  0  0  0  0  0  0  0  0  0  0  0
   57.7550   30.8000   51.4350 C   0  0  0  0  0  0  0  0  0  0  0  0
   57.0270   31.9080   50.9100 N   0  0  0  0  0  0  0  0  0  0  0  0
   57.1320   29.8200   51.9290 O   0  0  0  0  0  0  0  0  0  0  0  0
   59.9140   28.4520   48.6200 N   0  0  0  0  0  0  0  0  0  0  0  0
   59.7320   28.3010   47.2820 C   0  0  0  0  0  0  0  0  0  0  0  0
   60.0610   27.0080   46.6380 C   0  0  0  0  0  0  0  0  0  0  0  0
   61.2650   26.6600   46.5230 O   0  0  0  0  0  0  0  0  0  0  0  0
   59.0460   26.1180   46.1510 N   0  0  0  0  0  0  0  0  0  0  0  0
   58.3740   26.2320   44.8630 C   0  0  0  0  0  0  0  0  0  0  0  0
   57.1510   25.3640   44.8510 C   0  0  0  0  0  0  0  0  0  0  0  0
   56.2250   25.4330   45.9040 C   0  0  0  0  0  0  0  0  0  0  0  0
   55.0830   24.6250   45.8950 C   0  0  0  0  0  0  0  0  0  0  0  0
   54.8630   23.7360   44.8410 C   0  0  0  0  0  0  0  0  0  0  0  0
   53.7540   22.9570   44.8290 F   0  0  0  0  0  0  0  0  0  0  0  0
   55.7880   23.6510   43.7960 C   0  0  0  0  0  0  0  0  0  0  0  0
   56.9320   24.4560   43.8010 C   0  0  0  0  0  0  0  0  0  0  0  0
   56.2740   29.0549   46.2997 H   0  0  0  0  0  0  0  0  0  0  0  0
   55.4491   28.1616   44.9774 H   0  0  0  0  0  0  0  0  0  0  0  0
   57.2388   28.3150   44.9774 H   0  0  0  0  0  0  0  0  0  0  0  0
   56.1199   28.6658   42.8733 H   0  0  0  0  0  0  0  0  0  0  0  0
   55.2953   30.2266   42.5410 H   0  0  0  0  0  0  0  0  0  0  0  0
   57.0896   30.1409   42.5410 H   0  0  0  0  0  0  0  0  0  0  0  0
   57.1535   31.9353   44.2277 H   0  0  0  0  0  0  0  0  0  0  0  0
   57.3306   31.1503   45.8473 H   0  0  0  0  0  0  0  0  0  0  0  0
   58.5711   30.0288   43.2897 H   0  0  0  0  0  0  0  0  0  0  0  0
   59.4273   31.1554   44.4165 H   0  0  0  0  0  0  0  0  0  0  0  0
   59.4657   33.9878   49.3750 H   0  0  0  0  0  0  0  0  0  0  0  0
   60.7028   33.0331   48.4678 H   0  0  0  0  0  0  0  0  0  0  0  0
   60.8708   34.2267   46.4324 H   0  0  0  0  0  0  0  0  0  0  0  0
   59.8268   34.8557   44.2542 H   0  0  0  0  0  0  0  0  0  0  0  0
   57.3651   34.5931   43.9232 H   0  0  0  0  0  0  0  0  0  0  0  0
   55.9417   33.7026   45.7726 H   0  0  0  0  0  0  0  0  0  0  0  0
   56.9784   33.0756   47.9565 H   0  0  0  0  0  0  0  0  0  0  0  0
   59.6449   28.7663   51.2175 H   0  0  0  0  0  0  0  0  0  0  0  0
   61.6941   29.6841   52.0232 H   0  0  0  0  0  0  0  0  0  0  0  0
   62.0076   29.2616   50.2907 H   0  0  0  0  0  0  0  0  0  0  0  0
   61.3368   32.3790   52.5771 H   0  0  0  0  0  0  0  0  0  0  0  0
   62.0940   34.5380   51.3240 H   0  0  0  0  0  0  0  0  0  0  0  0
   63.0504   35.1241   48.8241 H   0  0  0  0  0  0  0  0  0  0  0  0
   63.6521   34.0737   46.6111 H   0  0  0  0  0  0  0  0  0  0  0  0
   63.3823   31.6042   46.2749 H   0  0  0  0  0  0  0  0  0  0  0  0
   62.5248   30.1579   48.1532 H   0  0  0  0  0  0  0  0  0  0  0  0
   55.9820   31.9000   50.9120 H   0  0  0  0  0  0  0  0  0  0  0  0
   57.5350   32.7120   50.4820 H   0  0  0  0  0  0  0  0  0  0  0  0
   58.0808   27.2788   44.6952 H   0  0  0  0  0  0  0  0  0  0  0  0
   59.0585   25.9071   44.0656 H   0  0  0  0  0  0  0  0  0  0  0  0
   56.3983   26.1260   46.7405 H   0  0  0  0  0  0  0  0  0  0  0  0
   54.3575   24.6901   46.7193 H   0  0  0  0  0  0  0  0  0  0  0  0
   55.6156   22.9487   42.9671 H   0  0  0  0  0  0  0  0  0  0  0  0
   57.6616   24.3781   42.9815 H   0  0  0  0  0  0  0  0  0  0  0  0
  1  2  1  0
  2  3  1  0
  2  4  1  0
  4  5  1  0
  5  6  1  0
  6  7  1  0
  7  8  2  0
  8  9  1  0
  9 10  1  0
 10 11  1  0
 11 12  1  0
 12 13  2  0
 13 14  1  0
 14 15  2  0
 15 16  1  0
 16 17  2  0
  9 18  2  0
 18 19  1  0
 19 20  1  0
 20 21  1  0
 21 22  2  0
 22 23  1  0
 23 24  1  0
 24 25  2  0
 25 26  1  0
 26 27  2  0
 27 28  1  0
 28 29  2  0
 19 30  1  0
 30 31  1  0
 31 32  1  0
 31 33  2  0
 18 34  1  0
 34 35  2  0
 35 36  1  0
 36 37  2  0
 36 38  1  0
 38 39  1  0
 39 40  1  0
 40 41  2  0
 41 42  1  0
 42 43  2  0
 43 44  1  0
 43 45  1  0
 45 46  2  0
 35  7  1  0
 46 40  1  0
 17 12  1  0
 29 21  1  0
 29 24  1  0
  1 47  1  0
  1 48  1  0
  1 49  1  0
  3 50  1  0
  3 51  1  0
  3 52  1  0
  4 53  1  0
  4 54  1  0
  5 55  1  0
  5 56  1  0
 11 57  1  0
 11 58  1  0
 13 59  1  0
 14 60  1  0
 15 61  1  0
 16 62  1  0
 17 63  1  0
 19 64  1  1
 20 65  1  0
 20 66  1  0
 22 67  1  0
 23 68  1  0
 25 69  1  0
 26 70  1  0
 27 71  1  0
 28 72  1  0
 32 73  1  0
 32 74  1  0
 39 75  1  0
 39 76  1  0
 41 77  1  0
 42 78  1  0
 45 79  1  0
 46 80  1  0
M  CHG  2  30  -1  38  -1
M  END
>  <UniqueID>  (76) 
72

>  <SMILES>  (76) 
CN(C)CCOc1nc(OCc2ccccc2)c([C@@H](Cc2c[nH]c3ccccc23)[N-]C(N)=O)nc1C(=O)[N-]Cc1ccc(F)cc1

>  <Energy>  (76) 
108.24539313532435

>  <Genealogy>  (76) 
CN(C)CCOc1nc(OCc2ccccc2)c(C(Cc2c[nH]c3ccccc23)[N-]C(N)=O)nc1C(=O)[N-]Cc1ccc(F)cc1 (protonated)
CN(C)CCOc1nc(OCc2ccccc2)c([C@@H](Cc2c[nH]c3ccccc23)[N-]C(N)=O)nc1C(=O)[N-]Cc1ccc(F)cc1 (chirality)
CN(C)CCOc1nc(OCc2ccccc2)c([C@@H](Cc2c[nH]c3ccccc23)[N-]C(N)=O)nc1C(=O)[N-]Cc1ccc(F)cc1 (3D coordinates assigned)
CN(C)CCOc1nc(OCc2ccccc2)c([C@@H](Cc2c[nH]c3ccccc23)[N-]C(N)=O)nc1C(=O)[N-]Cc1ccc(F)cc1 (optimized conformer: 108.24539313532435 kcal/mol)

>  <smiles>  (76) 
CN(C)CCOc1nc(OCc2ccccc2)c(C(Cc2c[nH]c3ccccc23)NC(N)=O)nc1C(=O)NCc1ccc(F)cc1

>  <score_type>  (76) 
oracle

>  <origin>  (76) 
adg

>  <m_score__min__energy>  (76) 
-11.81

>  <m_primary>  (76) 
energy

$$$$
76:0
     RDKit          3D

 50 52  0  0  0  0  0  0  0  0999 V2000
   55.3000   28.9870   44.8210 N   0  0  0  0  0  0  0  0  0  0  0  0
   56.6660   30.0030   44.5230 S   0  0  0  0  0  0  0  0  0  0  0  0
   56.2320   31.4420   44.5380 O   0  0  0  0  0  0  0  0  0  0  0  0
   57.2440   29.6850   43.1730 O   0  0  0  0  0  0  0  0  0  0  0  0
   57.8780   29.7280   45.7690 C   0  0  0  0  0  0  0  0  0  0  0  0
   58.1770   28.4250   46.1830 C   0  0  0  0  0  0  0  0  0  0  0  0
   59.1260   28.2030   47.1870 C   0  0  0  0  0  0  0  0  0  0  0  0
   59.7970   29.2870   47.7820 C   0  0  0  0  0  0  0  0  0  0  0  0
   60.7520   29.0910   48.8370 N   0  0  0  0  0  0  0  0  0  0  0  0
   60.7690   27.9480   49.7070 C   0  0  0  0  0  0  0  0  0  0  0  0
   60.1680   26.8870   49.3840 O   0  0  0  0  0  0  0  0  0  0  0  0
   61.5710   27.9810   50.9720 C   0  0  0  0  0  0  0  0  0  0  0  0
   62.6110   28.9540   50.8810 O   0  0  0  0  0  0  0  0  0  0  0  0
   62.3730   30.3330   50.8370 C   0  0  0  0  0  0  0  0  0  0  0  0
   61.1930   30.7720   50.9090 O   0  0  0  0  0  0  0  0  0  0  0  0
   63.5150   31.2610   50.6730 C   0  0  0  0  0  0  0  0  0  0  0  0
   64.3820   31.4520   51.7650 C   0  0  0  0  0  0  0  0  0  0  0  0
   65.4900   32.2940   51.6570 C   0  0  0  0  0  0  0  0  0  0  0  0
   65.7490   32.9610   50.4600 C   0  0  0  0  0  0  0  0  0  0  0  0
   64.8930   32.7970   49.3700 C   0  0  0  0  0  0  0  0  0  0  0  0
   63.7680   31.9660   49.4660 C   0  0  0  0  0  0  0  0  0  0  0  0
   62.6740   31.8710   48.0360 S   0  0  0  0  0  0  0  0  0  0  0  0
   62.2390   33.6480   48.0340 C   0  0  0  0  0  0  0  0  0  0  0  0
   60.8940   33.8760   47.3880 C   0  0  0  0  0  0  0  0  0  0  0  0
   60.8440   34.1020   46.0020 C   0  0  0  0  0  0  0  0  0  0  0  0
   59.6200   34.2780   45.3520 C   0  0  0  0  0  0  0  0  0  0  0  0
   58.4310   34.2270   46.0800 C   0  0  0  0  0  0  0  0  0  0  0  0
   58.4620   34.0040   47.4570 C   0  0  0  0  0  0  0  0  0  0  0  0
   59.6840   33.8310   48.1210 C   0  0  0  0  0  0  0  0  0  0  0  0
   59.6430   33.5550   49.8590 Cl  0  0  0  0  0  0  0  0  0  0  0  0
   59.4730   30.5920   47.3810 C   0  0  0  0  0  0  0  0  0  0  0  0
   58.5230   30.8130   46.3790 C   0  0  0  0  0  0  0  0  0  0  0  0
   54.7740   29.4080   45.6210 H   0  0  0  0  0  0  0  0  0  0  0  0
   57.6635   27.5712   45.7168 H   0  0  0  0  0  0  0  0  0  0  0  0
   59.3485   27.1761   47.5126 H   0  0  0  0  0  0  0  0  0  0  0  0
   61.5140   29.7980   48.9490 H   0  0  0  0  0  0  0  0  0  0  0  0
   60.9096   28.2362   51.8131 H   0  0  0  0  0  0  0  0  0  0  0  0
   62.0237   26.9912   51.1313 H   0  0  0  0  0  0  0  0  0  0  0  0
   64.1843   30.9321   52.7140 H   0  0  0  0  0  0  0  0  0  0  0  0
   66.1605   32.4318   52.5181 H   0  0  0  0  0  0  0  0  0  0  0  0
   66.6282   33.6165   50.3749 H   0  0  0  0  0  0  0  0  0  0  0  0
   65.1028   33.3242   48.4276 H   0  0  0  0  0  0  0  0  0  0  0  0
   62.2056   34.0111   49.0718 H   0  0  0  0  0  0  0  0  0  0  0  0
   63.0008   34.1942   47.4584 H   0  0  0  0  0  0  0  0  0  0  0  0
   61.7784   34.1407   45.4228 H   0  0  0  0  0  0  0  0  0  0  0  0
   59.5937   34.4567   44.2669 H   0  0  0  0  0  0  0  0  0  0  0  0
   57.4672   34.3629   45.5675 H   0  0  0  0  0  0  0  0  0  0  0  0
   57.5210   33.9637   48.0252 H   0  0  0  0  0  0  0  0  0  0  0  0
   59.9706   31.4487   47.8590 H   0  0  0  0  0  0  0  0  0  0  0  0
   58.2813   31.8403   46.0688 H   0  0  0  0  0  0  0  0  0  0  0  0
  1  2  1  0
  2  3  2  0
  2  4  2  0
  2  5  1  0
  5  6  2  0
  6  7  1  0
  7  8  2  0
  8  9  1  0
  9 10  1  0
 10 11  2  0
 10 12  1  0
 12 13  1  0
 13 14  1  0
 14 15  2  0
 14 16  1  0
 16 17  2  0
 17 18  1  0
 18 19  2  0
 19 20  1  0
 20 21  2  0
 21 22  1  0
 22 23  1  0
 23 24  1  0
 24 25  2  0
 25 26  1  0
 26 27  2  0
 27 28  1  0
 28 29  2  0
 29 30  1  0
  8 31  1  0
 31 32  2  0
 32  5  1  0
 21 16  1  0
 29 24  1  0
  1 33  1  0
  6 34  1  0
  7 35  1  0
  9 36  1  0
 12 37  1  0
 12 38  1  0
 17 39  1  0
 18 40  1  0
 19 41  1  0
 20 42  1  0
 23 43  1  0
 23 44  1  0
 25 45  1  0
 26 46  1  0
 27 47  1  0
 28 48  1  0
 31 49  1  0
 32 50  1  0
M  CHG  1   1  -1
M  END
>  <UniqueID>  (77) 
73

>  <SMILES>  (77) 
[NH-]S(=O)(=O)c1ccc(NC(=O)COC(=O)c2ccccc2SCc2ccccc2Cl)cc1

>  <Energy>  (77) 
50.86280325070154

>  <Genealogy>  (77) 
[NH-]S(=O)(=O)c1ccc(NC(=O)COC(=O)c2ccccc2SCc2ccccc2Cl)cc1 (protonated)
[NH-]S(=O)(=O)c1ccc(NC(=O)COC(=O)c2ccccc2SCc2ccccc2Cl)cc1 (3D coordinates assigned)
[NH-]S(=O)(=O)c1ccc(NC(=O)COC(=O)c2ccccc2SCc2ccccc2Cl)cc1 (optimized conformer: 50.86280325070154 kcal/mol)

>  <smiles>  (77) 
NS(=O)(=O)c1ccc(NC(=O)COC(=O)c2ccccc2SCc2ccccc2Cl)cc1

>  <score_type>  (77) 
oracle

>  <origin>  (77) 
adg

>  <m_score__min__energy>  (77) 
-11.050000000000001

>  <m_primary>  (77) 
energy

$$$$
77:0
     RDKit          3D

 43 46  0  0  0  0  0  0  0  0999 V2000
   62.7760   33.8320   47.7520 H   0  0  0  0  0  0  0  0  0  0  0  0
   63.5440   33.5450   47.1920 O   0  0  0  0  0  0  0  0  0  0  0  0
   63.5080   32.1450   47.1710 C   0  0  0  0  0  0  0  0  0  0  0  0
   64.3217   31.7497   47.7968 H   0  0  0  0  0  0  0  0  0  0  0  0
   63.6319   31.7947   46.1357 H   0  0  0  0  0  0  0  0  0  0  0  0
   62.1700   31.6530   47.7110 C   0  0  0  0  0  0  0  0  0  0  0  0
   62.3039   31.2742   48.7350 H   0  0  0  0  0  0  0  0  0  0  0  0
   61.7888   30.8444   47.0700 H   0  0  0  0  0  0  0  0  0  0  0  0
   61.2160   32.7610   47.7210 N   0  0  0  0  0  0  0  0  0  0  0  0
   60.4730   33.2440   46.7590 C   0  0  0  0  0  0  0  0  0  0  0  0
   60.6760   34.5980   46.4350 C   0  0  0  0  0  0  0  0  0  0  0  0
   61.6271   35.0859   46.6946 H   0  0  0  0  0  0  0  0  0  0  0  0
   59.6710   35.3300   45.7820 C   0  0  0  0  0  0  0  0  0  0  0  0
   59.8354   36.3911   45.5430 H   0  0  0  0  0  0  0  0  0  0  0  0
   58.4950   34.7350   45.4430 N   0  0  0  0  0  0  0  0  0  0  0  0
   57.7410   35.2940   44.9850 H   0  0  0  0  0  0  0  0  0  0  0  0
   58.3350   33.4040   45.6430 C   0  0  0  0  0  0  0  0  0  0  0  0
   57.0130   32.4920   45.1380 S   0  0  0  0  0  0  0  0  0  0  0  0
   57.7460   31.0240   45.5230 C   0  0  0  0  0  0  0  0  0  0  0  0
   57.2660   29.7430   45.2520 C   0  0  0  0  0  0  0  0  0  0  0  0
   56.0830   29.5880   44.8430 O   0  0  0  0  0  0  0  0  0  0  0  0
   58.1010   28.6660   45.4330 N   0  0  0  0  0  0  0  0  0  0  0  0
   57.6460   27.3230   45.1730 C   0  0  0  0  0  0  0  0  0  0  0  0
   56.8080   26.6630   46.0850 C   0  0  0  0  0  0  0  0  0  0  0  0
   56.5016   27.1694   47.0122 H   0  0  0  0  0  0  0  0  0  0  0  0
   56.3610   25.3660   45.8210 C   0  0  0  0  0  0  0  0  0  0  0  0
   55.7080   24.8570   46.5452 H   0  0  0  0  0  0  0  0  0  0  0  0
   56.7360   24.7080   44.6440 C   0  0  0  0  0  0  0  0  0  0  0  0
   56.2620   23.4060   44.4270 O   0  0  0  0  0  0  0  0  0  0  0  0
   56.7140   22.5490   43.3840 C   0  0  0  0  0  0  0  0  0  0  0  0
   57.1849   21.6562   43.8212 H   0  0  0  0  0  0  0  0  0  0  0  0
   55.8588   22.2453   42.7624 H   0  0  0  0  0  0  0  0  0  0  0  0
   57.4476   23.0833   42.7624 H   0  0  0  0  0  0  0  0  0  0  0  0
   57.5710   25.3720   43.7250 C   0  0  0  0  0  0  0  0  0  0  0  0
   57.8724   24.8669   42.7954 H   0  0  0  0  0  0  0  0  0  0  0  0
   58.0190   26.6700   43.9880 C   0  0  0  0  0  0  0  0  0  0  0  0
   58.6675   27.1823   43.2621 H   0  0  0  0  0  0  0  0  0  0  0  0
   59.4050   28.8570   45.8180 C   0  0  0  0  0  0  0  0  0  0  0  0
   60.0709   27.9878   45.9227 H   0  0  0  0  0  0  0  0  0  0  0  0
   59.9020   30.1420   46.0800 C   0  0  0  0  0  0  0  0  0  0  0  0
   60.9633   30.2898   46.3284 H   0  0  0  0  0  0  0  0  0  0  0  0
   59.0300   31.2310   46.0210 C   0  0  0  0  0  0  0  0  0  0  0  0
   59.3340   32.6020   46.1990 C   0  0  0  0  0  0  0  0  0  0  0  0
  1  2  1  0
  2  3  1  0
  3  4  1  0
  3  5  1  0
  3  6  1  0
  6  7  1  0
  6  8  1  0
  6  9  1  0
  9 10  2  0
 10 11  1  0
 11 12  1  0
 11 13  2  0
 13 14  1  0
 13 15  1  0
 15 16  1  0
 15 17  1  0
 17 18  1  0
 18 19  1  0
 19 20  1  0
 20 21  2  0
 20 22  1  0
 22 23  1  0
 23 24  2  0
 24 25  1  0
 24 26  1  0
 26 27  1  0
 26 28  2  0
 28 29  1  0
 29 30  1  0
 30 31  1  0
 30 32  1  0
 30 33  1  0
 28 34  1  0
 34 35  1  0
 34 36  2  0
 36 37  1  0
 22 38  1  0
 38 39  1  0
 38 40  2  0
 40 41  1  0
 40 42  1  0
 42 43  1  0
 43 10  1  0
 43 17  2  0
 42 19  2  0
 36 23  1  0
M  END
>  <UniqueID>  (78) 
74

>  <SMILES>  (78) 
COc1ccc(-n2ccc3c(sc4[nH]cc/c(=N/CCO)c43)c2=O)cc1

>  <Energy>  (78) 
114.01833523643293

>  <Genealogy>  (78) 
COc1ccc(-n2ccc3c(sc4[nH]cc/c(=N/CCO)c43)c2=O)cc1 (cis-trans isomerization)
COc1ccc(-n2ccc3c(sc4[nH]cc/c(=N/CCO)c43)c2=O)cc1 (3D coordinates assigned)
COc1ccc(-n2ccc3c(sc4[nH]cc/c(=N/CCO)c43)c2=O)cc1 (optimized conformer: 114.01833523643293 kcal/mol)

>  <smiles>  (78) 
COc1ccc(-n2ccc3c(sc4[nH]ccc(=NCCO)c43)c2=O)cc1

>  <score_type>  (78) 
oracle

>  <origin>  (78) 
adg

>  <m_score__min__energy>  (78) 
-6.9500000000000002

>  <m_primary>  (78) 
energy

$$$$
78:0
     RDKit          3D

 50 51  0  0  0  0  0  0  0  0999 V2000
   58.0510   31.7810   46.0070 C   0  0  0  0  0  0  0  0  0  0  0  0
   59.2860   32.4940   46.5010 C   0  0  0  0  0  0  0  0  0  0  0  0
   59.5950   33.7960   46.0440 C   0  0  0  0  0  0  0  0  0  0  0  0
   58.5890   34.6420   44.8710 Cl  0  0  0  0  0  0  0  0  0  0  0  0
   60.7400   34.4510   46.5110 C   0  0  0  0  0  0  0  0  0  0  0  0
   61.5950   33.8200   47.4120 C   0  0  0  0  0  0  0  0  0  0  0  0
   61.3210   32.5240   47.8460 C   0  0  0  0  0  0  0  0  0  0  0  0
   60.1720   31.8480   47.4000 C   0  0  0  0  0  0  0  0  0  0  0  0
   59.9470   30.4860   47.8030 N   0  0  0  0  0  0  0  0  0  0  0  0
   60.3340   29.3540   47.0120 C   0  0  0  0  0  0  0  0  0  0  0  0
   61.1220   29.5050   46.0370 O   0  0  0  0  0  0  0  0  0  0  0  0
   59.8300   28.0520   47.3450 N   0  0  0  0  0  0  0  0  0  0  0  0
   60.0710   26.8760   46.5580 C   0  0  0  0  0  0  0  0  0  0  0  0
   60.9660   26.8650   45.6710 O   0  0  0  0  0  0  0  0  0  0  0  0
   59.2700   25.6360   46.8070 C   0  0  0  0  0  0  0  0  0  0  0  0
   58.0920   25.6020   45.9310 N   0  0  0  0  0  0  0  0  0  0  0  0
   57.8210   24.4500   45.1140 C   0  0  0  0  0  0  0  0  0  0  0  0
   56.8200   24.4960   44.1300 C   0  0  0  0  0  0  0  0  0  0  0  0
   56.5610   23.3770   43.3340 C   0  0  0  0  0  0  0  0  0  0  0  0
   57.3010   22.2050   43.5110 C   0  0  0  0  0  0  0  0  0  0  0  0
   58.3010   22.1500   44.4850 C   0  0  0  0  0  0  0  0  0  0  0  0
   58.5610   23.2670   45.2840 C   0  0  0  0  0  0  0  0  0  0  0  0
   57.0830   27.0160   45.7830 S   0  0  0  0  0  0  0  0  0  0  0  0
   57.4000   27.9520   46.9170 O   0  0  0  0  0  0  0  0  0  0  0  0
   55.6410   26.6050   45.9160 O   0  0  0  0  0  0  0  0  0  0  0  0
   57.3690   27.7910   44.2340 N   0  0  0  0  0  0  0  0  0  0  0  0
   57.2000   29.2480   44.3380 C   0  0  0  0  0  0  0  0  0  0  0  0
   58.7120   27.4720   43.7310 C   0  0  0  0  0  0  0  0  0  0  0  0
   57.4570   31.4380   46.8669 H   0  0  0  0  0  0  0  0  0  0  0  0
   57.4489   32.4705   45.3970 H   0  0  0  0  0  0  0  0  0  0  0  0
   58.3470   30.9148   45.3970 H   0  0  0  0  0  0  0  0  0  0  0  0
   60.9664   35.4702   46.1646 H   0  0  0  0  0  0  0  0  0  0  0  0
   62.4879   34.3455   47.7816 H   0  0  0  0  0  0  0  0  0  0  0  0
   62.0101   32.0258   48.5438 H   0  0  0  0  0  0  0  0  0  0  0  0
   59.4810   30.3050   48.7210 H   0  0  0  0  0  0  0  0  0  0  0  0
   59.1790   27.9740   48.1580 H   0  0  0  0  0  0  0  0  0  0  0  0
   59.8960   24.7540   46.6067 H   0  0  0  0  0  0  0  0  0  0  0  0
   58.9352   25.6323   47.8548 H   0  0  0  0  0  0  0  0  0  0  0  0
   56.2369   25.4174   43.9851 H   0  0  0  0  0  0  0  0  0  0  0  0
   55.7736   23.4189   42.5671 H   0  0  0  0  0  0  0  0  0  0  0  0
   57.0961   21.3253   42.8832 H   0  0  0  0  0  0  0  0  0  0  0  0
   58.8839   21.2274   44.6231 H   0  0  0  0  0  0  0  0  0  0  0  0
   59.3490   23.2201   46.0500 H   0  0  0  0  0  0  0  0  0  0  0  0
   56.6660   27.4290   43.5480 H   0  0  0  0  0  0  0  0  0  0  0  0
   57.1663   29.5384   45.3984 H   0  0  0  0  0  0  0  0  0  0  0  0
   58.0458   29.7512   43.8467 H   0  0  0  0  0  0  0  0  0  0  0  0
   56.2615   29.5443   43.8467 H   0  0  0  0  0  0  0  0  0  0  0  0
   59.3926   27.3103   44.5799 H   0  0  0  0  0  0  0  0  0  0  0  0
   58.6669   26.5596   43.1183 H   0  0  0  0  0  0  0  0  0  0  0  0
   59.0820   28.3072   43.1183 H   0  0  0  0  0  0  0  0  0  0  0  0
  1  2  1  0
  2  3  2  0
  3  4  1  0
  3  5  1  0
  5  6  2  0
  6  7  1  0
  7  8  2  0
  8  9  1  0
  9 10  1  0
 10 11  2  0
 10 12  1  0
 12 13  1  0
 13 14  2  0
 13 15  1  0
 15 16  1  0
 16 17  1  0
 17 18  2  0
 18 19  1  0
 19 20  2  0
 20 21  1  0
 21 22  2  0
 16 23  1  0
 23 24  2  0
 23 25  2  0
 23 26  1  0
 26 27  1  0
 26 28  1  0
  8  2  1  0
 22 17  1  0
  1 29  1  0
  1 30  1  0
  1 31  1  0
  5 32  1  0
  6 33  1  0
  7 34  1  0
  9 35  1  0
 12 36  1  0
 15 37  1  0
 15 38  1  0
 18 39  1  0
 19 40  1  0
 20 41  1  0
 21 42  1  0
 22 43  1  0
 26 44  1  0
 27 45  1  0
 27 46  1  0
 27 47  1  0
 28 48  1  0
 28 49  1  0
 28 50  1  0
M  CHG  1  26   1
M  END
>  <UniqueID>  (79) 
75

>  <SMILES>  (79) 
Cc1c(Cl)cccc1NC(=O)NC(=O)CN(c1ccccc1)S(=O)(=O)[NH+](C)C

>  <Energy>  (79) 
55.936814400179976

>  <Genealogy>  (79) 
Cc1c(Cl)cccc1NC(=O)NC(=O)CN(c1ccccc1)S(=O)(=O)[NH+](C)C (protonated)
Cc1c(Cl)cccc1NC(=O)NC(=O)CN(c1ccccc1)S(=O)(=O)[NH+](C)C (3D coordinates assigned)
Cc1c(Cl)cccc1NC(=O)NC(=O)CN(c1ccccc1)S(=O)(=O)[NH+](C)C (optimized conformer: 55.936814400179976 kcal/mol)

>  <smiles>  (79) 
Cc1c(Cl)cccc1NC(=O)NC(=O)CN(c1ccccc1)S(=O)(=O)N(C)C

>  <score_type>  (79) 
oracle

>  <origin>  (79) 
adg

>  <m_score__min__energy>  (79) 
-7.7699999999999996

>  <m_primary>  (79) 
energy

$$$$
79:0
     RDKit          3D

 26 27  0  0  0  0  0  0  0  0999 V2000
   59.2770   34.7425   46.8804 H   0  0  0  0  0  0  0  0  0  0  0  0
   58.8780   33.9350   46.2490 C   0  0  0  0  0  0  0  0  0  0  0  0
   57.9180   34.2210   45.2730 C   0  0  0  0  0  0  0  0  0  0  0  0
   57.5606   35.2525   45.1381 H   0  0  0  0  0  0  0  0  0  0  0  0
   57.4130   33.1950   44.4690 C   0  0  0  0  0  0  0  0  0  0  0  0
   56.6570   33.4199   43.7023 H   0  0  0  0  0  0  0  0  0  0  0  0
   57.8680   31.8810   44.6380 C   0  0  0  0  0  0  0  0  0  0  0  0
   57.2270   30.5640   43.6050 S   0  0  0  0  0  0  0  0  0  0  0  0
   56.4430   29.7650   44.9790 N   0  0  0  0  0  0  0  0  0  0  0  0
   56.8710   28.6890   45.5720 C   0  0  0  0  0  0  0  0  0  0  0  0
   58.1100   28.7010   46.1290 N   0  0  0  0  0  0  0  0  0  0  0  0
   58.6180   27.6080   46.7590 C   0  0  0  0  0  0  0  0  0  0  0  0
   59.9900   27.6580   47.3500 C   0  0  0  0  0  0  0  0  0  0  0  0
   59.9168   27.6553   48.4476 H   0  0  0  0  0  0  0  0  0  0  0  0
   60.5642   26.7802   47.0187 H   0  0  0  0  0  0  0  0  0  0  0  0
   60.4988   28.5753   47.0187 H   0  0  0  0  0  0  0  0  0  0  0  0
   57.8570   26.4410   46.8350 C   0  0  0  0  0  0  0  0  0  0  0  0
   58.2519   25.5435   47.3336 H   0  0  0  0  0  0  0  0  0  0  0  0
   56.5830   26.4380   46.2640 C   0  0  0  0  0  0  0  0  0  0  0  0
   55.8730   25.3990   46.3230 O   0  0  0  0  0  0  0  0  0  0  0  0
   56.1090   27.5550   45.6470 N   0  0  0  0  0  0  0  0  0  0  0  0
   55.1480   27.5200   45.2390 H   0  0  0  0  0  0  0  0  0  0  0  0
   58.8260   31.5970   45.6190 C   0  0  0  0  0  0  0  0  0  0  0  0
   59.1817   30.5653   45.7574 H   0  0  0  0  0  0  0  0  0  0  0  0
   59.3310   32.6240   46.4230 C   0  0  0  0  0  0  0  0  0  0  0  0
   60.0847   32.4001   47.1923 H   0  0  0  0  0  0  0  0  0  0  0  0
  1  2  1  0
  2  3  2  0
  3  4  1  0
  3  5  1  0
  5  6  1  0
  5  7  2  0
  7  8  1  0
  8  9  1  0
  9 10  2  0
 10 11  1  0
 11 12  1  0
 12 13  1  0
 13 14  1  0
 13 15  1  0
 13 16  1  0
 12 17  2  0
 17 18  1  0
 17 19  1  0
 19 20  2  0
 19 21  1  0
 21 22  1  0
  7 23  1  0
 23 24  1  0
 23 25  2  0
 25 26  1  0
 25  2  1  0
 21 10  1  0
M  CHG  1  11  -1
M  END
>  <UniqueID>  (80) 
76

>  <SMILES>  (80) 
Cc1cc(=O)[nH]/c(=N\Sc2ccccc2)[n-]1

>  <Energy>  (80) 
24.589695753977058

>  <Genealogy>  (80) 
Cc1cc(=O)[nH]c(=NSc2ccccc2)[n-]1 (protonated)
Cc1cc(=O)[nH]/c(=N\Sc2ccccc2)[n-]1 (cis-trans isomerization)
Cc1cc(=O)[nH]/c(=N\Sc2ccccc2)[n-]1 (3D coordinates assigned)
Cc1cc(=O)[nH]/c(=N\Sc2ccccc2)[n-]1 (optimized conformer: 24.589695753977058 kcal/mol)

>  <smiles>  (80) 
Cc1cc(=O)[nH]c(=NSc2ccccc2)[nH]1

>  <score_type>  (80) 
oracle

>  <origin>  (80) 
adg

>  <m_score__min__energy>  (80) 
-8.6999999999999993

>  <m_primary>  (80) 
energy

$$$$
80:0
     RDKit          3D

 43 44  0  0  0  0  0  0  0  0999 V2000
   61.5230   30.7170   47.5770 C   0  0  0  0  0  0  0  0  0  0  0  0
   60.4990   31.6130   46.9570 C   0  0  0  0  0  0  0  0  0  0  0  0
   60.6810   33.0000   46.9450 C   0  0  0  0  0  0  0  0  0  0  0  0
   59.7010   33.8280   46.3780 C   0  0  0  0  0  0  0  0  0  0  0  0
   59.8940   35.3210   46.3850 C   0  0  0  0  0  0  0  0  0  0  0  0
   58.5370   33.2430   45.8350 C   0  0  0  0  0  0  0  0  0  0  0  0
   57.4760   34.0640   45.2960 C   0  0  0  0  0  0  0  0  0  0  0  0
   56.6270   34.7220   44.8660 N   0  0  0  0  0  0  0  0  0  0  0  0
   58.3990   31.8430   45.8610 C   0  0  0  0  0  0  0  0  0  0  0  0
   57.2720   31.2130   45.3240 O   0  0  0  0  0  0  0  0  0  0  0  0
   57.3630   30.0220   44.5400 C   0  0  2  0  0  0  0  0  0  0  0  0
   57.0200   30.3510   43.0900 C   0  0  0  0  0  0  0  0  0  0  0  0
   56.4230   28.9750   45.0650 C   0  0  0  0  0  0  0  0  0  0  0  0
   55.1840   29.0950   44.8650 O   0  0  0  0  0  0  0  0  0  0  0  0
   56.9480   27.8380   45.7630 N   0  0  0  0  0  0  0  0  0  0  0  0
   56.9180   26.4730   45.3230 C   0  0  0  0  0  0  0  0  0  0  0  0
   55.9870   25.6030   45.9030 C   0  0  0  0  0  0  0  0  0  0  0  0
   55.9130   24.2690   45.4910 C   0  0  0  0  0  0  0  0  0  0  0  0
   56.7620   23.7950   44.4830 C   0  0  0  0  0  0  0  0  0  0  0  0
   56.6470   22.1170   43.9590 S   0  0  0  0  0  0  0  0  0  0  0  0
   58.2350   21.4500   43.7980 N   0  0  0  0  0  0  0  0  0  0  0  0
   55.8710   21.3120   44.9650 O   0  0  0  0  0  0  0  0  0  0  0  0
   55.9360   22.0520   42.6370 O   0  0  0  0  0  0  0  0  0  0  0  0
   57.6740   24.6700   43.8770 C   0  0  0  0  0  0  0  0  0  0  0  0
   57.7500   26.0030   44.2910 C   0  0  0  0  0  0  0  0  0  0  0  0
   59.3680   31.0780   46.4270 N   0  0  0  0  0  0  0  0  0  0  0  0
   61.4505   30.7805   48.6728 H   0  0  0  0  0  0  0  0  0  0  0  0
   61.3445   29.6798   47.2572 H   0  0  0  0  0  0  0  0  0  0  0  0
   62.5274   31.0316   47.2572 H   0  0  0  0  0  0  0  0  0  0  0  0
   61.5907   33.4403   47.3793 H   0  0  0  0  0  0  0  0  0  0  0  0
   59.9404   35.6798   47.4238 H   0  0  0  0  0  0  0  0  0  0  0  0
   60.8321   35.5719   45.8682 H   0  0  0  0  0  0  0  0  0  0  0  0
   59.0506   35.8022   45.8682 H   0  0  0  0  0  0  0  0  0  0  0  0
   58.3881   29.6273   44.5983 H   0  0  0  0  0  0  0  0  0  0  0  0
   56.2264   31.1122   43.0646 H   0  0  0  0  0  0  0  0  0  0  0  0
   57.9149   30.7371   42.5801 H   0  0  0  0  0  0  0  0  0  0  0  0
   56.6715   29.4408   42.5801 H   0  0  0  0  0  0  0  0  0  0  0  0
   55.3096   25.9712   46.6876 H   0  0  0  0  0  0  0  0  0  0  0  0
   55.1858   23.5898   45.9599 H   0  0  0  0  0  0  0  0  0  0  0  0
   58.4870   21.0360   44.7230 H   0  0  0  0  0  0  0  0  0  0  0  0
   58.1640   20.6560   43.1210 H   0  0  0  0  0  0  0  0  0  0  0  0
   58.3317   24.3068   43.0735 H   0  0  0  0  0  0  0  0  0  0  0  0
   58.4632   26.6870   43.8078 H   0  0  0  0  0  0  0  0  0  0  0  0
  1  2  1  0
  2  3  2  0
  3  4  1  0
  4  5  1  0
  4  6  2  0
  6  7  1  0
  7  8  3  0
  6  9  1  0
  9 10  1  0
 10 11  1  0
 11 12  1  0
 11 13  1  0
 13 14  2  0
 13 15  1  0
 15 16  1  0
 16 17  2  0
 17 18  1  0
 18 19  2  0
 19 20  1  0
 20 21  1  0
 20 22  2  0
 20 23  2  0
 19 24  1  0
 24 25  2  0
  9 26  2  0
 26  2  1  0
 25 16  1  0
  1 27  1  0
  1 28  1  0
  1 29  1  0
  3 30  1  0
  5 31  1  0
  5 32  1  0
  5 33  1  0
 11 34  1  6
 12 35  1  0
 12 36  1  0
 12 37  1  0
 17 38  1  0
 18 39  1  0
 21 40  1  0
 21 41  1  0
 24 42  1  0
 25 43  1  0
M  CHG  1  15  -1
M  END
>  <UniqueID>  (81) 
77

>  <SMILES>  (81) 
Cc1cc(C)c(C#N)c(O[C@H](C)C(=O)[N-]c2ccc(S(N)(=O)=O)cc2)n1

>  <Energy>  (81) 
47.26552312390767

>  <Genealogy>  (81) 
Cc1cc(C)c(C#N)c(OC(C)C(=O)[N-]c2ccc(S(N)(=O)=O)cc2)n1 (protonated)
Cc1cc(C)c(C#N)c(O[C@H](C)C(=O)[N-]c2ccc(S(N)(=O)=O)cc2)n1 (chirality)
Cc1cc(C)c(C#N)c(O[C@H](C)C(=O)[N-]c2ccc(S(N)(=O)=O)cc2)n1 (3D coordinates assigned)
Cc1cc(C)c(C#N)c(O[C@H](C)C(=O)[N-]c2ccc(S(N)(=O)=O)cc2)n1 (optimized conformer: 47.26552312390767 kcal/mol)

>  <smiles>  (81) 
Cc1cc(C)c(C#N)c(OC(C)C(=O)Nc2ccc(S(N)(=O)=O)cc2)n1

>  <score_type>  (81) 
oracle

>  <origin>  (81) 
adg

>  <m_score__min__energy>  (81) 
-10.609999999999999

>  <m_primary>  (81) 
energy

$$$$
81:0
     RDKit          3D

 46 49  0  0  0  0  0  0  0  0999 V2000
   60.4190   28.2850   49.7270 C   0  0  0  0  0  0  0  0  0  0  0  0
   59.2760   28.2220   48.8790 O   0  0  0  0  0  0  0  0  0  0  0  0
   59.3010   28.2000   47.4750 C   0  0  0  0  0  0  0  0  0  0  0  0
   58.8080   27.0680   46.7920 C   0  0  0  0  0  0  0  0  0  0  0  0
   58.8130   27.0070   45.4040 C   0  0  0  0  0  0  0  0  0  0  0  0
   59.2960   28.0750   44.6670 C   0  0  0  0  0  0  0  0  0  0  0  0
   59.7880   29.2080   45.3110 C   0  0  0  0  0  0  0  0  0  0  0  0
   59.8250   29.3090   46.7290 C   0  0  0  0  0  0  0  0  0  0  0  0
   60.4040   30.5090   47.3600 N   0  0  0  0  0  0  0  0  0  0  0  0
   59.5250   31.3340   48.2310 C   0  0  0  0  0  0  0  0  0  0  0  0
   60.1100   32.6680   48.7430 C   0  0  0  0  0  0  0  0  0  0  0  0
   61.2510   33.1510   47.9630 N   0  0  0  0  0  0  0  0  0  0  0  0
   60.9600   33.9280   46.7300 C   0  0  0  0  0  0  0  0  0  0  0  0
   59.5850   33.7060   46.1540 C   0  0  0  0  0  0  0  0  0  0  0  0
   58.5360   34.6100   46.3150 C   0  0  0  0  0  0  0  0  0  0  0  0
   57.1660   33.9450   45.6010 S   0  0  0  0  0  0  0  0  0  0  0  0
   57.9670   32.5560   45.1010 C   0  0  0  0  0  0  0  0  0  0  0  0
   57.3370   31.4250   44.4150 C   0  0  0  0  0  0  0  0  0  0  0  0
   57.3490   31.2000   43.0540 C   0  0  0  0  0  0  0  0  0  0  0  0
   56.6660   30.0180   42.8680 C   0  0  0  0  0  0  0  0  0  0  0  0
   56.2750   29.6000   44.1240 C   0  0  0  0  0  0  0  0  0  0  0  0
   56.6890   30.4610   45.0260 O   0  0  0  0  0  0  0  0  0  0  0  0
   59.2660   32.5750   45.4690 N   0  0  0  0  0  0  0  0  0  0  0  0
   62.2870   32.1240   47.8550 C   0  0  0  0  0  0  0  0  0  0  0  0
   61.8020   30.9010   47.0830 C   0  0  0  0  0  0  0  0  0  0  0  0
   60.0968   28.2672   50.7786 H   0  0  0  0  0  0  0  0  0  0  0  0
   61.0708   27.4214   49.5286 H   0  0  0  0  0  0  0  0  0  0  0  0
   60.9720   29.2150   49.5286 H   0  0  0  0  0  0  0  0  0  0  0  0
   58.4127   26.2188   47.3687 H   0  0  0  0  0  0  0  0  0  0  0  0
   58.4336   26.1110   44.8910 H   0  0  0  0  0  0  0  0  0  0  0  0
   59.2912   28.0286   43.5680 H   0  0  0  0  0  0  0  0  0  0  0  0
   60.1584   30.0484   44.7055 H   0  0  0  0  0  0  0  0  0  0  0  0
   58.6141   31.5670   47.6600 H   0  0  0  0  0  0  0  0  0  0  0  0
   59.3596   30.7262   49.1328 H   0  0  0  0  0  0  0  0  0  0  0  0
   59.3179   33.4304   48.7074 H   0  0  0  0  0  0  0  0  0  0  0  0
   60.4743   32.4868   49.7650 H   0  0  0  0  0  0  0  0  0  0  0  0
   61.0635   34.9972   46.9667 H   0  0  0  0  0  0  0  0  0  0  0  0
   61.6747   33.5813   45.9691 H   0  0  0  0  0  0  0  0  0  0  0  0
   58.5940   35.5856   46.8197 H   0  0  0  0  0  0  0  0  0  0  0  0
   57.8078   31.8320   42.2794 H   0  0  0  0  0  0  0  0  0  0  0  0
   56.4716   29.5101   41.9118 H   0  0  0  0  0  0  0  0  0  0  0  0
   55.7034   28.6847   44.3375 H   0  0  0  0  0  0  0  0  0  0  0  0
   63.1569   32.5506   47.3341 H   0  0  0  0  0  0  0  0  0  0  0  0
   62.5514   31.8003   48.8725 H   0  0  0  0  0  0  0  0  0  0  0  0
   61.8904   31.1173   46.0081 H   0  0  0  0  0  0  0  0  0  0  0  0
   62.4306   30.0591   47.4087 H   0  0  0  0  0  0  0  0  0  0  0  0
  1  2  1  0
  2  3  1  0
  3  4  2  0
  4  5  1  0
  5  6  2  0
  6  7  1  0
  7  8  2  0
  8  9  1  0
  9 10  1  0
 10 11  1  0
 11 12  1  0
 12 13  1  0
 13 14  1  0
 14 15  2  0
 15 16  1  0
 16 17  1  0
 17 18  1  0
 18 19  2  0
 19 20  1  0
 20 21  2  0
 21 22  1  0
 17 23  2  0
 12 24  1  0
 24 25  1  0
  8  3  1  0
 25  9  1  0
 23 14  1  0
 22 18  1  0
  1 26  1  0
  1 27  1  0
  1 28  1  0
  4 29  1  0
  5 30  1  0
  6 31  1  0
  7 32  1  0
 10 33  1  0
 10 34  1  0
 11 35  1  0
 11 36  1  0
 13 37  1  0
 13 38  1  0
 15 39  1  0
 19 40  1  0
 20 41  1  0
 21 42  1  0
 24 43  1  0
 24 44  1  0
 25 45  1  0
 25 46  1  0
M  END
>  <UniqueID>  (82) 
78

>  <SMILES>  (82) 
COc1ccccc1N1CCN(Cc2csc(-c3ccco3)n2)CC1

>  <Energy>  (82) 
120.85459630178448

>  <Genealogy>  (82) 
COc1ccccc1N1CCN(Cc2csc(-c3ccco3)n2)CC1 (3D coordinates assigned)
COc1ccccc1N1CCN(Cc2csc(-c3ccco3)n2)CC1 (nonaromatic ring conformer: 120.85459630178448 kcal/mol)

>  <smiles>  (82) 
COc1ccccc1N1CCN(Cc2csc(-c3ccco3)n2)CC1

>  <score_type>  (82) 
oracle

>  <origin>  (82) 
adg

>  <m_score__min__energy>  (82) 
-8.0899999999999999

>  <m_primary>  (82) 
energy

$$$$
82:0
     RDKit          3D

 44 45  0  0  1  0  0  0  0  0999 V2000
   58.0780   28.2260   47.5540 O   0  0  0  0  0  0  0  0  0  0  0  0
   58.8730   28.4610   46.6080 C   0  0  0  0  0  0  0  0  0  0  0  0
   58.7270   27.8860   45.2480 C   0  0  0  0  0  0  0  0  0  0  0  0
   57.8120   28.6820   44.3540 C   0  0  2  0  0  0  0  0  0  0  0  0
   58.2790   30.0840   44.1450 C   0  0  0  0  0  0  0  0  0  0  0  0
   59.3620   30.4320   44.6770 O   0  0  0  0  0  0  0  0  0  0  0  0
   57.4680   30.9360   43.3570 N   0  0  0  0  0  0  0  0  0  0  0  0
   57.7740   32.3170   43.0620 C   0  0  0  0  0  0  0  0  0  0  0  0
   58.0620   33.0300   44.3280 C   0  0  0  0  0  0  0  0  0  0  0  0
   59.1080   33.9090   44.4970 C   0  0  0  0  0  0  0  0  0  0  0  0
   59.3050   34.5280   45.7150 C   0  0  0  0  0  0  0  0  0  0  0  0
   58.4820   34.3040   46.8080 C   0  0  0  0  0  0  0  0  0  0  0  0
   57.4380   33.4120   46.6030 C   0  0  0  0  0  0  0  0  0  0  0  0
   57.2290   32.7880   45.3940 C   0  0  0  0  0  0  0  0  0  0  0  0
   56.4260   28.7210   44.8680 C   0  0  0  0  0  0  0  0  0  0  0  0
   55.9820   27.6410   45.6060 O   0  0  0  0  0  0  0  0  0  0  0  0
   55.6050   29.6920   44.6730 N   0  0  0  0  0  0  0  0  0  0  0  0
   54.7790   29.6890   43.5790 O   0  0  0  0  0  0  0  0  0  0  0  0
   59.9590   29.3260   46.8750 N   0  0  0  0  0  0  0  0  0  0  0  0
   60.0700   29.8740   48.2150 C   0  0  0  0  0  0  0  0  0  0  0  0
   60.6260   31.2440   48.2440 C   0  0  0  0  0  0  0  0  0  0  0  0
   61.6320   31.8290   47.4690 C   0  0  0  0  0  0  0  0  0  0  0  0
   61.9620   33.0900   47.6710 C   0  0  0  0  0  0  0  0  0  0  0  0
   61.2890   33.8090   48.6630 C   0  0  0  0  0  0  0  0  0  0  0  0
   60.0850   32.5750   49.3630 S   0  0  0  0  0  0  0  0  0  0  0  0
   59.7213   27.8435   44.7794 H   0  0  0  0  0  0  0  0  0  0  0  0
   58.2779   26.8887   45.3649 H   0  0  0  0  0  0  0  0  0  0  0  0
   57.8326   28.1548   43.3888 H   0  0  0  0  0  0  0  0  0  0  0  0
   56.5730   30.5550   42.9480 H   0  0  0  0  0  0  0  0  0  0  0  0
   58.6532   32.3669   42.4028 H   0  0  0  0  0  0  0  0  0  0  0  0
   56.9167   32.7874   42.5582 H   0  0  0  0  0  0  0  0  0  0  0  0
   59.7889   34.1187   43.6589 H   0  0  0  0  0  0  0  0  0  0  0  0
   60.1480   35.2264   45.8226 H   0  0  0  0  0  0  0  0  0  0  0  0
   58.6457   34.8011   47.7755 H   0  0  0  0  0  0  0  0  0  0  0  0
   56.7534   33.1962   47.4365 H   0  0  0  0  0  0  0  0  0  0  0  0
   56.3873   32.0890   45.2800 H   0  0  0  0  0  0  0  0  0  0  0  0
   56.2950   27.4700   46.5560 H   0  0  0  0  0  0  0  0  0  0  0  0
   54.9130   29.1710   42.7380 H   0  0  0  0  0  0  0  0  0  0  0  0
   60.6750   29.5850   46.1600 H   0  0  0  0  0  0  0  0  0  0  0  0
   59.0676   29.8946   48.6676 H   0  0  0  0  0  0  0  0  0  0  0  0
   60.7646   29.2293   48.7735 H   0  0  0  0  0  0  0  0  0  0  0  0
   62.1458   31.2405   46.6946 H   0  0  0  0  0  0  0  0  0  0  0  0
   62.7512   33.5664   47.0707 H   0  0  0  0  0  0  0  0  0  0  0  0
   61.4365   34.8578   48.9600 H   0  0  0  0  0  0  0  0  0  0  0  0
  1  2  2  0
  2  3  1  0
  3  4  1  0
  4  5  1  0
  5  6  2  0
  5  7  1  0
  7  8  1  0
  8  9  1  0
  9 10  2  0
 10 11  1  0
 11 12  2  0
 12 13  1  0
 13 14  2  0
  4 15  1  0
 15 16  1  0
 15 17  2  0
 17 18  1  0
  2 19  1  0
 19 20  1  0
 20 21  1  0
 21 22  2  0
 22 23  1  0
 23 24  2  0
 24 25  1  0
 14  9  1  0
 25 21  1  0
  3 26  1  0
  3 27  1  0
  4 28  1  6
  7 29  1  0
  8 30  1  0
  8 31  1  0
 10 32  1  0
 11 33  1  0
 12 34  1  0
 13 35  1  0
 14 36  1  0
 16 37  1  0
 18 38  1  0
 19 39  1  0
 20 40  1  0
 20 41  1  0
 22 42  1  0
 23 43  1  0
 24 44  1  0
M  END
>  <smiles>  (83) 
O=C(CC(C(=O)NCc1ccccc1)C(O)=NO)NCc1cccs1

>  <score_type>  (83) 
oracle

>  <origin>  (83) 
adg

>  <m_score__min__energy>  (83) 
-9.2799999999999994

>  <m_primary>  (83) 
energy

$$$$
83:0
     RDKit          3D

 38 40  0  0  0  0  0  0  0  0999 V2000
   55.5240   28.8080   45.1690 N   0  0  0  0  0  0  0  0  0  0  0  0
   56.7520   29.8780   44.5960 S   0  0  0  0  0  0  0  0  0  0  0  0
   56.3030   31.3010   44.7750 O   0  0  0  0  0  0  0  0  0  0  0  0
   56.9910   29.6300   43.1330 O   0  0  0  0  0  0  0  0  0  0  0  0
   58.2410   29.6010   45.4940 C   0  0  0  0  0  0  0  0  0  0  0  0
   59.4700   29.5370   44.8240 C   0  0  0  0  0  0  0  0  0  0  0  0
   60.6520   29.3400   45.5440 C   0  0  0  0  0  0  0  0  0  0  0  0
   60.6120   29.2010   46.9340 C   0  0  0  0  0  0  0  0  0  0  0  0
   59.3830   29.2490   47.6150 C   0  0  0  0  0  0  0  0  0  0  0  0
   59.3030   29.1450   49.0430 N   0  0  0  0  0  0  0  0  0  0  0  0
   58.8720   30.1750   49.9420 C   0  0  0  0  0  0  0  0  0  0  0  0
   57.7610   30.0940   50.5290 O   0  0  0  0  0  0  0  0  0  0  0  0
   59.7210   31.3950   50.1270 C   0  0  0  0  0  0  0  0  0  0  0  0
   59.7250   32.2360   48.8680 C   0  0  0  0  0  0  0  0  0  0  0  0
   58.4880   32.6010   48.3080 C   0  0  0  0  0  0  0  0  0  0  0  0
   58.4260   33.3520   47.1360 C   0  0  0  0  0  0  0  0  0  0  0  0
   59.5950   33.7510   46.4930 C   0  0  0  0  0  0  0  0  0  0  0  0
   60.8460   33.3950   47.0170 C   0  0  0  0  0  0  0  0  0  0  0  0
   62.0180   33.7920   46.3550 C   0  0  0  0  0  0  0  0  0  0  0  0
   63.2670   33.4360   46.8630 C   0  0  0  0  0  0  0  0  0  0  0  0
   63.3580   32.6810   48.0320 C   0  0  0  0  0  0  0  0  0  0  0  0
   62.2020   32.2780   48.7030 C   0  0  0  0  0  0  0  0  0  0  0  0
   60.9250   32.6290   48.2120 C   0  0  0  0  0  0  0  0  0  0  0  0
   58.2050   29.4710   46.8900 C   0  0  0  0  0  0  0  0  0  0  0  0
   54.6420   29.3630   45.2370 H   0  0  0  0  0  0  0  0  0  0  0  0
   59.5048   29.6420   43.7296 H   0  0  0  0  0  0  0  0  0  0  0  0
   61.6156   29.2943   45.0153 H   0  0  0  0  0  0  0  0  0  0  0  0
   61.5453   29.0535   47.4972 H   0  0  0  0  0  0  0  0  0  0  0  0
   59.3200   31.9919   50.9594 H   0  0  0  0  0  0  0  0  0  0  0  0
   60.7518   31.0803   50.3471 H   0  0  0  0  0  0  0  0  0  0  0  0
   57.5560   32.2892   48.8021 H   0  0  0  0  0  0  0  0  0  0  0  0
   57.4483   33.6312   46.7164 H   0  0  0  0  0  0  0  0  0  0  0  0
   59.5369   34.3476   45.5707 H   0  0  0  0  0  0  0  0  0  0  0  0
   61.9512   34.3863   45.4318 H   0  0  0  0  0  0  0  0  0  0  0  0
   64.1822   33.7513   46.3406 H   0  0  0  0  0  0  0  0  0  0  0  0
   64.3457   32.4016   48.4274 H   0  0  0  0  0  0  0  0  0  0  0  0
   62.2865   31.6812   49.6232 H   0  0  0  0  0  0  0  0  0  0  0  0
   57.2439   29.5440   47.4200 H   0  0  0  0  0  0  0  0  0  0  0  0
  1  2  1  0
  2  3  2  0
  2  4  2  0
  2  5  1  0
  5  6  2  0
  6  7  1  0
  7  8  2  0
  8  9  1  0
  9 10  1  0
 10 11  1  0
 11 12  2  0
 11 13  1  0
 13 14  1  0
 14 15  2  0
 15 16  1  0
 16 17  2  0
 17 18  1  0
 18 19  2  0
 19 20  1  0
 20 21  2  0
 21 22  1  0
 22 23  2  0
  9 24  2  0
 24  5  1  0
 23 14  1  0
 23 18  1  0
  1 25  1  0
  6 26  1  0
  7 27  1  0
  8 28  1  0
 13 29  1  0
 13 30  1  0
 15 31  1  0
 16 32  1  0
 17 33  1  0
 19 34  1  0
 20 35  1  0
 21 36  1  0
 22 37  1  0
 24 38  1  0
M  CHG  2   1  -1  10  -1
M  END
>  <UniqueID>  (84) 
79

>  <SMILES>  (84) 
[NH-]S(=O)(=O)c1cccc([N-]C(=O)Cc2cccc3ccccc23)c1

>  <Energy>  (84) 
47.55289940288806

>  <Genealogy>  (84) 
[NH-]S(=O)(=O)c1cccc([N-]C(=O)Cc2cccc3ccccc23)c1 (protonated)
[NH-]S(=O)(=O)c1cccc([N-]C(=O)Cc2cccc3ccccc23)c1 (3D coordinates assigned)
[NH-]S(=O)(=O)c1cccc([N-]C(=O)Cc2cccc3ccccc23)c1 (optimized conformer: 47.55289940288806 kcal/mol)

>  <smiles>  (84) 
NS(=O)(=O)c1cccc(NC(=O)Cc2cccc3ccccc23)c1

>  <score_type>  (84) 
oracle

>  <origin>  (84) 
adg

>  <m_score__min__energy>  (84) 
-12.52

>  <m_primary>  (84) 
energy

$$$$
84:0
     RDKit          3D

 45 47  0  0  0  0  0  0  0  0999 V2000
   63.7310   33.0940   46.7490 C   0  0  0  0  0  0  0  0  0  0  0  0
   63.4470   33.8810   48.0250 C   0  0  0  0  0  0  0  0  0  0  0  0
   61.9890   33.7980   48.3900 C   0  0  0  0  0  0  0  0  0  0  0  0
   61.5860   33.9610   49.7240 C   0  0  0  0  0  0  0  0  0  0  0  0
   60.2380   33.8420   50.0690 C   0  0  0  0  0  0  0  0  0  0  0  0
   59.2850   33.5540   49.0910 C   0  0  0  0  0  0  0  0  0  0  0  0
   59.6680   33.3830   47.7480 C   0  0  0  0  0  0  0  0  0  0  0  0
   58.6500   33.0630   46.7190 C   0  0  0  0  0  0  0  0  0  0  0  0
   57.4430   32.9230   47.0620 O   0  0  0  0  0  0  0  0  0  0  0  0
   59.0120   32.9540   45.3310 N   0  0  0  0  0  0  0  0  0  0  0  0
   58.2090   32.2690   44.3540 C   0  0  0  0  0  0  0  0  0  0  0  0
   58.3340   32.6030   42.9980 C   0  0  0  0  0  0  0  0  0  0  0  0
   57.5700   31.9430   42.0350 C   0  0  0  0  0  0  0  0  0  0  0  0
   56.6740   30.9400   42.4150 C   0  0  0  0  0  0  0  0  0  0  0  0
   56.5390   30.5840   43.7670 C   0  0  0  0  0  0  0  0  0  0  0  0
   55.5900   29.5150   44.1640 C   0  0  0  0  0  0  0  0  0  0  0  0
   54.5240   29.3620   43.5110 O   0  0  0  0  0  0  0  0  0  0  0  0
   55.8710   28.6110   45.2430 N   0  0  0  0  0  0  0  0  0  0  0  0
   57.1240   27.9610   45.4970 C   0  0  0  0  0  0  0  0  0  0  0  0
   57.2040   27.0230   46.5350 C   0  0  0  0  0  0  0  0  0  0  0  0
   58.4100   26.3700   46.8040 C   0  0  0  0  0  0  0  0  0  0  0  0
   59.5500   26.6630   46.0500 C   0  0  0  0  0  0  0  0  0  0  0  0
   59.4850   27.6170   45.0300 C   0  0  0  0  0  0  0  0  0  0  0  0
   58.2800   28.2710   44.7570 C   0  0  0  0  0  0  0  0  0  0  0  0
   57.3330   31.2350   44.7280 C   0  0  0  0  0  0  0  0  0  0  0  0
   61.0300   33.4950   47.4100 C   0  0  0  0  0  0  0  0  0  0  0  0
   64.0936   32.0891   47.0110 H   0  0  0  0  0  0  0  0  0  0  0  0
   62.8072   33.0079   46.1580 H   0  0  0  0  0  0  0  0  0  0  0  0
   64.4969   33.6176   46.1580 H   0  0  0  0  0  0  0  0  0  0  0  0
   64.0488   33.4654   48.8467 H   0  0  0  0  0  0  0  0  0  0  0  0
   63.7087   34.9358   47.8547 H   0  0  0  0  0  0  0  0  0  0  0  0
   62.3335   34.1830   50.4999 H   0  0  0  0  0  0  0  0  0  0  0  0
   59.9263   33.9758   51.1154 H   0  0  0  0  0  0  0  0  0  0  0  0
   58.2258   33.4599   49.3724 H   0  0  0  0  0  0  0  0  0  0  0  0
   59.8340   33.5030   44.9910 H   0  0  0  0  0  0  0  0  0  0  0  0
   59.0387   33.3901   42.6916 H   0  0  0  0  0  0  0  0  0  0  0  0
   57.6732   32.2129   40.9736 H   0  0  0  0  0  0  0  0  0  0  0  0
   56.0713   30.4267   41.6513 H   0  0  0  0  0  0  0  0  0  0  0  0
   56.3135   26.7996   47.1409 H   0  0  0  0  0  0  0  0  0  0  0  0
   58.4622   25.6240   47.6107 H   0  0  0  0  0  0  0  0  0  0  0  0
   60.4969   26.1437   46.2589 H   0  0  0  0  0  0  0  0  0  0  0  0
   60.3836   27.8534   44.4413 H   0  0  0  0  0  0  0  0  0  0  0  0
   58.2354   29.0297   43.9618 H   0  0  0  0  0  0  0  0  0  0  0  0
   57.2679   30.9320   45.7834 H   0  0  0  0  0  0  0  0  0  0  0  0
   61.3463   33.3436   46.3674 H   0  0  0  0  0  0  0  0  0  0  0  0
  1  2  1  0
  2  3  1  0
  3  4  2  0
  4  5  1  0
  5  6  2  0
  6  7  1  0
  7  8  1  0
  8  9  2  0
  8 10  1  0
 10 11  1  0
 11 12  2  0
 12 13  1  0
 13 14  2  0
 14 15  1  0
 15 16  1  0
 16 17  2  0
 16 18  1  0
 18 19  1  0
 19 20  2  0
 20 21  1  0
 21 22  2  0
 22 23  1  0
 23 24  2  0
 15 25  2  0
  7 26  2  0
 26  3  1  0
 25 11  1  0
 24 19  1  0
  1 27  1  0
  1 28  1  0
  1 29  1  0
  2 30  1  0
  2 31  1  0
  4 32  1  0
  5 33  1  0
  6 34  1  0
 10 35  1  0
 12 36  1  0
 13 37  1  0
 14 38  1  0
 20 39  1  0
 21 40  1  0
 22 41  1  0
 23 42  1  0
 24 43  1  0
 25 44  1  0
 26 45  1  0
M  CHG  1  18  -1
M  END
>  <UniqueID>  (85) 
80

>  <SMILES>  (85) 
CCc1cccc(C(=O)Nc2cccc(C(=O)[N-]c3ccccc3)c2)c1

>  <Energy>  (85) 
55.33957283650058

>  <Genealogy>  (85) 
CCc1cccc(C(=O)Nc2cccc(C(=O)[N-]c3ccccc3)c2)c1 (protonated)
CCc1cccc(C(=O)Nc2cccc(C(=O)[N-]c3ccccc3)c2)c1 (3D coordinates assigned)
CCc1cccc(C(=O)Nc2cccc(C(=O)[N-]c3ccccc3)c2)c1 (optimized conformer: 55.33957283650058 kcal/mol)

>  <smiles>  (85) 
CCc1cccc(C(=O)Nc2cccc(C(=O)Nc3ccccc3)c2)c1

>  <score_type>  (85) 
oracle

>  <origin>  (85) 
adg

>  <m_score__min__energy>  (85) 
-11.140000000000001

>  <m_primary>  (85) 
energy

$$$$
85:0
     RDKit          3D

 51 53  0  0  0  0  0  0  0  0999 V2000
   58.8850   32.5920   49.3000 C   0  0  0  0  0  0  0  0  0  0  0  0
   59.0940   33.2950   47.9870 C   0  0  0  0  0  0  0  0  0  0  0  0
   57.9840   33.5330   47.1590 C   0  0  0  0  0  0  0  0  0  0  0  0
   58.1370   34.2100   45.9460 C   0  0  0  0  0  0  0  0  0  0  0  0
   59.3960   34.6640   45.5520 C   0  0  0  0  0  0  0  0  0  0  0  0
   60.5050   34.4490   46.3730 C   0  0  0  0  0  0  0  0  0  0  0  0
   60.3640   33.7740   47.5940 C   0  0  0  0  0  0  0  0  0  0  0  0
   61.5170   33.5830   48.4200 N   0  0  0  0  0  0  0  0  0  0  0  0
   61.8610   34.5900   49.4190 C   0  0  0  0  0  0  0  0  0  0  0  0
   62.4140   32.0980   48.3080 S   0  0  0  0  0  0  0  0  0  0  0  0
   62.9360   31.7310   49.6700 O   0  0  0  0  0  0  0  0  0  0  0  0
   63.5890   32.2750   47.3880 O   0  0  0  0  0  0  0  0  0  0  0  0
   61.3700   30.8220   47.6930 C   0  0  0  0  0  0  0  0  0  0  0  0
   60.8910   30.8890   46.3800 C   0  0  0  0  0  0  0  0  0  0  0  0
   60.0380   29.8980   45.8890 C   0  0  0  0  0  0  0  0  0  0  0  0
   59.6550   28.8170   46.7040 C   0  0  0  0  0  0  0  0  0  0  0  0
   58.7420   27.7730   46.1790 C   0  0  0  0  0  0  0  0  0  0  0  0
   57.5110   28.0270   46.0590 O   0  0  0  0  0  0  0  0  0  0  0  0
   59.2470   26.4950   45.7610 N   0  0  0  0  0  0  0  0  0  0  0  0
   58.4380   25.3100   45.6560 C   0  0  0  0  0  0  0  0  0  0  0  0
   59.0590   24.0520   45.6220 C   0  0  0  0  0  0  0  0  0  0  0  0
   58.2930   22.8870   45.5390 C   0  0  0  0  0  0  0  0  0  0  0  0
   56.8990   22.9650   45.5080 C   0  0  0  0  0  0  0  0  0  0  0  0
   56.2620   24.2110   45.5720 C   0  0  0  0  0  0  0  0  0  0  0  0
   54.5040   24.3070   45.5430 S   0  0  0  0  0  0  0  0  0  0  0  0
   54.0150   25.9620   45.6370 N   0  0  0  0  0  0  0  0  0  0  0  0
   53.9830   23.7000   44.2710 O   0  0  0  0  0  0  0  0  0  0  0  0
   53.9320   23.5510   46.7080 O   0  0  0  0  0  0  0  0  0  0  0  0
   57.0320   25.3810   45.6450 C   0  0  0  0  0  0  0  0  0  0  0  0
   60.1340   28.7600   48.0250 C   0  0  0  0  0  0  0  0  0  0  0  0
   60.9870   29.7530   48.5140 C   0  0  0  0  0  0  0  0  0  0  0  0
   59.0921   33.2885   50.1259 H   0  0  0  0  0  0  0  0  0  0  0  0
   57.8441   32.2426   49.3672 H   0  0  0  0  0  0  0  0  0  0  0  0
   59.5659   31.7307   49.3672 H   0  0  0  0  0  0  0  0  0  0  0  0
   56.9876   33.1840   47.4677 H   0  0  0  0  0  0  0  0  0  0  0  0
   57.2634   34.3852   45.3009 H   0  0  0  0  0  0  0  0  0  0  0  0
   59.5152   35.1916   44.5942 H   0  0  0  0  0  0  0  0  0  0  0  0
   61.4953   34.8114   46.0600 H   0  0  0  0  0  0  0  0  0  0  0  0
   61.7180   34.1713   50.4261 H   0  0  0  0  0  0  0  0  0  0  0  0
   62.9121   34.8885   49.2919 H   0  0  0  0  0  0  0  0  0  0  0  0
   61.2122   35.4692   49.2919 H   0  0  0  0  0  0  0  0  0  0  0  0
   61.1877   31.7263   45.7313 H   0  0  0  0  0  0  0  0  0  0  0  0
   59.6627   29.9632   44.8571 H   0  0  0  0  0  0  0  0  0  0  0  0
   60.2300   26.4470   45.4080 H   0  0  0  0  0  0  0  0  0  0  0  0
   60.1561   23.9830   45.6610 H   0  0  0  0  0  0  0  0  0  0  0  0
   58.7888   21.9059   45.4980 H   0  0  0  0  0  0  0  0  0  0  0  0
   56.2996   22.0457   45.4331 H   0  0  0  0  0  0  0  0  0  0  0  0
   54.7980   26.5320   45.2460 H   0  0  0  0  0  0  0  0  0  0  0  0
   56.5340   26.3606   45.6940 H   0  0  0  0  0  0  0  0  0  0  0  0
   59.8349   27.9272   48.6785 H   0  0  0  0  0  0  0  0  0  0  0  0
   61.3593   29.6952   49.5475 H   0  0  0  0  0  0  0  0  0  0  0  0
  1  2  1  0
  2  3  2  0
  3  4  1  0
  4  5  2  0
  5  6  1  0
  6  7  2  0
  7  8  1  0
  8  9  1  0
  8 10  1  0
 10 11  2  0
 10 12  2  0
 10 13  1  0
 13 14  2  0
 14 15  1  0
 15 16  2  0
 16 17  1  0
 17 18  2  0
 17 19  1  0
 19 20  1  0
 20 21  2  0
 21 22  1  0
 22 23  2  0
 23 24  1  0
 24 25  1  0
 25 26  1  0
 25 27  2  0
 25 28  2  0
 24 29  2  0
 16 30  1  0
 30 31  2  0
  7  2  1  0
 31 13  1  0
 29 20  1  0
  1 32  1  0
  1 33  1  0
  1 34  1  0
  3 35  1  0
  4 36  1  0
  5 37  1  0
  6 38  1  0
  9 39  1  0
  9 40  1  0
  9 41  1  0
 14 42  1  0
 15 43  1  0
 19 44  1  0
 21 45  1  0
 22 46  1  0
 23 47  1  0
 26 48  1  0
 29 49  1  0
 30 50  1  0
 31 51  1  0
M  CHG  1  26  -1
M  END
>  <UniqueID>  (86) 
81

>  <SMILES>  (86) 
Cc1ccccc1N(C)S(=O)(=O)c1ccc(C(=O)Nc2cccc(S([NH-])(=O)=O)c2)cc1

>  <Energy>  (86) 
63.825703887221

>  <Genealogy>  (86) 
Cc1ccccc1N(C)S(=O)(=O)c1ccc(C(=O)Nc2cccc(S([NH-])(=O)=O)c2)cc1 (protonated)
Cc1ccccc1N(C)S(=O)(=O)c1ccc(C(=O)Nc2cccc(S([NH-])(=O)=O)c2)cc1 (3D coordinates assigned)
Cc1ccccc1N(C)S(=O)(=O)c1ccc(C(=O)Nc2cccc(S([NH-])(=O)=O)c2)cc1 (optimized conformer: 63.825703887221 kcal/mol)

>  <smiles>  (86) 
Cc1ccccc1N(C)S(=O)(=O)c1ccc(C(=O)Nc2cccc(S(N)(=O)=O)c2)cc1

>  <score_type>  (86) 
oracle

>  <origin>  (86) 
adg

>  <m_score__min__energy>  (86) 
-11.99

>  <m_primary>  (86) 
energy

$$$$
86:0
     RDKit          3D

 49 52  0  0  1  0  0  0  0  0999 V2000
   58.2040   34.3950   46.7880 N   0  0  0  0  0  0  0  0  0  0  0  0
   59.5020   34.8310   46.4460 C   0  0  0  0  0  0  0  0  0  0  0  0
   59.6670   35.7930   45.6520 O   0  0  0  0  0  0  0  0  0  0  0  0
   60.6690   34.1620   47.0120 C   0  0  0  0  0  0  0  0  0  0  0  0
   61.7870   33.8640   46.2630 C   0  0  0  0  0  0  0  0  0  0  0  0
   62.8970   33.2450   46.7450 C   0  0  0  0  0  0  0  0  0  0  0  0
   62.9390   32.8640   48.1130 C   0  0  0  0  0  0  0  0  0  0  0  0
   61.8310   33.1580   48.8340 C   0  0  0  0  0  0  0  0  0  0  0  0
   61.7890   32.8320   50.1610 C   0  0  0  0  0  0  0  0  0  0  0  0
   62.6450   32.1250   50.7170 N   0  0  0  0  0  0  0  0  0  0  0  0
   62.8720   30.7450   50.5290 C   0  0  0  0  0  0  0  0  0  0  0  0
   61.4400   30.2830   50.2110 C   0  0  0  0  0  0  0  0  0  0  0  0
   60.6500   29.9660   51.2950 C   0  0  0  0  0  0  0  0  0  0  0  0
   59.3620   29.5660   51.0340 C   0  0  0  0  0  0  0  0  0  0  0  0
   58.9090   29.4960   49.7370 C   0  0  0  0  0  0  0  0  0  0  0  0
   59.6750   29.8060   48.6390 C   0  0  0  0  0  0  0  0  0  0  0  0
   59.2210   29.7370   47.3090 N   0  0  0  0  0  0  0  0  0  0  0  0
   58.5160   30.8170   46.7630 C   0  0  0  0  0  0  0  0  0  0  0  0
   58.3270   31.8130   47.5160 O   0  0  0  0  0  0  0  0  0  0  0  0
   57.9870   30.8990   45.4180 C   0  0  0  0  0  0  0  0  0  0  0  0
   58.3810   31.9620   44.5940 C   0  0  0  0  0  0  0  0  0  0  0  0
   57.9180   32.1020   43.3080 C   0  0  0  0  0  0  0  0  0  0  0  0
   57.0480   31.2070   42.7670 C   0  0  0  0  0  0  0  0  0  0  0  0
   56.6360   30.1490   43.5430 C   0  0  0  0  0  0  0  0  0  0  0  0
   57.1090   30.0100   44.8520 C   0  0  0  0  0  0  0  0  0  0  0  0
   56.6480   28.9430   45.5310 F   0  0  0  0  0  0  0  0  0  0  0  0
   60.9870   30.2120   48.9260 C   0  0  0  0  0  0  0  0  0  0  0  0
   60.6840   33.1490   50.8960 N   0  0  0  0  0  0  0  0  0  0  0  0
   59.6120   33.7680   50.3890 C   0  0  0  0  0  0  0  0  0  0  0  0
   59.6330   34.0900   49.0840 N   0  0  0  0  0  0  0  0  0  0  0  0
   60.7040   33.7940   48.3310 C   0  0  0  0  0  0  0  0  0  0  0  0
   57.4170   34.5340   46.1060 H   0  0  0  0  0  0  0  0  0  0  0  0
   57.9480   33.9340   47.6860 H   0  0  0  0  0  0  0  0  0  0  0  0
   61.7805   34.1471   45.2001 H   0  0  0  0  0  0  0  0  0  0  0  0
   63.7523   33.0415   46.0839 H   0  0  0  0  0  0  0  0  0  0  0  0
   63.8126   32.3639   48.5566 H   0  0  0  0  0  0  0  0  0  0  0  0
   63.5586   30.5541   49.6911 H   0  0  0  0  0  0  0  0  0  0  0  0
   63.3476   30.2326   51.3782 H   0  0  0  0  0  0  0  0  0  0  0  0
   61.0340   30.0305   52.3238 H   0  0  0  0  0  0  0  0  0  0  0  0
   58.6910   29.3010   51.8644 H   0  0  0  0  0  0  0  0  0  0  0  0
   57.8712   29.1724   49.5686 H   0  0  0  0  0  0  0  0  0  0  0  0
   59.4190   28.8830   46.7590 H   0  0  0  0  0  0  0  0  0  0  0  0
   59.0844   32.7092   44.9901 H   0  0  0  0  0  0  0  0  0  0  0  0
   58.2579   32.9556   42.7032 H   0  0  0  0  0  0  0  0  0  0  0  0
   56.6836   31.3264   41.7360 H   0  0  0  0  0  0  0  0  0  0  0  0
   55.9322   29.4097   43.1330 H   0  0  0  0  0  0  0  0  0  0  0  0
   61.6628   30.4779   48.0998 H   0  0  0  0  0  0  0  0  0  0  0  0
   60.6450   32.9080   51.9110 H   0  0  0  0  0  0  0  0  0  0  0  0
   58.7422   34.0056   51.0190 H   0  0  0  0  0  0  0  0  0  0  0  0
  1  2  1  0
  2  3  2  0
  2  4  1  0
  4  5  2  0
  5  6  1  0
  6  7  2  0
  7  8  1  0
  8  9  1  0
  9 10  2  0
 10 11  1  0
 11 12  1  0
 12 13  2  0
 13 14  1  0
 14 15  2  0
 15 16  1  0
 16 17  1  0
 17 18  1  0
 18 19  2  0
 18 20  1  0
 20 21  2  0
 21 22  1  0
 22 23  2  0
 23 24  1  0
 24 25  2  0
 25 26  1  0
 16 27  2  0
  9 28  1  0
 28 29  1  0
 29 30  2  0
 30 31  1  0
 31  4  1  0
 31  8  2  0
 27 12  1  0
 25 20  1  0
  1 32  1  0
  1 33  1  0
  5 34  1  0
  6 35  1  0
  7 36  1  0
 11 37  1  0
 11 38  1  0
 13 39  1  0
 14 40  1  0
 15 41  1  0
 17 42  1  0
 21 43  1  0
 22 44  1  0
 23 45  1  0
 24 46  1  0
 27 47  1  0
 28 48  1  0
 29 49  1  0
M  END
>  <smiles>  (87) 
NC(=O)c1cccc2c(=NCc3cccc(NC(=O)c4ccccc4F)c3)[nH]cnc12

>  <score_type>  (87) 
oracle

>  <origin>  (87) 
adg

>  <m_score__min__energy>  (87) 
-9.3000000000000007

>  <m_primary>  (87) 
energy

$$$$
87:0
     RDKit          3D

 61 65  0  0  0  0  0  0  0  0999 V2000
   63.4060   33.9910   46.7530 C   0  0  0  0  0  0  0  0  0  0  0  0
   63.0200   32.7480   47.3290 O   0  0  0  0  0  0  0  0  0  0  0  0
   63.4050   32.3050   48.6030 C   0  0  0  0  0  0  0  0  0  0  0  0
   64.5940   32.7510   49.2170 C   0  0  0  0  0  0  0  0  0  0  0  0
   64.9640   32.2680   50.4730 C   0  0  0  0  0  0  0  0  0  0  0  0
   64.1620   31.3380   51.1310 C   0  0  0  0  0  0  0  0  0  0  0  0
   62.9790   30.8920   50.5400 C   0  0  0  0  0  0  0  0  0  0  0  0
   62.5870   31.3750   49.2790 C   0  0  0  0  0  0  0  0  0  0  0  0
   61.3460   30.9290   48.7000 N   0  0  0  0  0  0  0  0  0  0  0  0
   60.0880   31.0470   49.4410 C   0  0  0  0  0  0  0  0  0  0  0  0
   59.0990   31.9600   48.6870 C   0  0  0  0  0  0  0  0  0  0  0  0
   59.2620   31.9420   47.2000 N   0  0  0  0  0  0  0  0  0  0  0  0
   60.0030   33.1340   46.7080 C   0  0  0  0  0  0  0  0  0  0  0  0
   59.1410   34.4050   46.7450 C   0  0  0  0  0  0  0  0  0  0  0  0
   57.7470   34.0560   46.5050 N   0  0  0  0  0  0  0  0  0  0  0  0
   57.2040   33.7300   45.2210 C   0  0  0  0  0  0  0  0  0  0  0  0
   56.6400   34.6350   44.5530 O   0  0  0  0  0  0  0  0  0  0  0  0
   57.2960   32.3780   44.6480 C   0  0  0  0  0  0  0  0  0  0  0  0
   57.3940   32.0560   43.3080 C   0  0  0  0  0  0  0  0  0  0  0  0
   57.4030   30.6790   43.2500 C   0  0  0  0  0  0  0  0  0  0  0  0
   57.3030   30.2470   44.5580 C   0  0  0  0  0  0  0  0  0  0  0  0
   57.2670   28.8490   45.0130 C   0  0  0  0  0  0  0  0  0  0  0  0
   58.3780   28.0290   45.2070 C   0  0  0  0  0  0  0  0  0  0  0  0
   57.8600   26.8250   45.6280 C   0  0  0  0  0  0  0  0  0  0  0  0
   58.4970   25.6350   45.9730 C   0  0  0  0  0  0  0  0  0  0  0  0
   57.6910   24.5540   46.3780 C   0  0  0  0  0  0  0  0  0  0  0  0
   56.2850   24.6890   46.4290 C   0  0  0  0  0  0  0  0  0  0  0  0
   55.6720   25.9050   46.0710 C   0  0  0  0  0  0  0  0  0  0  0  0
   56.4960   26.9560   45.6730 C   0  0  0  0  0  0  0  0  0  0  0  0
   56.1200   28.1900   45.2980 N   0  0  0  0  0  0  0  0  0  0  0  0
   57.2360   31.2800   45.3670 O   0  0  0  0  0  0  0  0  0  0  0  0
   59.8850   30.6850   46.7220 C   0  0  0  0  0  0  0  0  0  0  0  0
   61.2990   30.4950   47.2990 C   0  0  0  0  0  0  0  0  0  0  0  0
   63.6299   34.7120   47.5530 H   0  0  0  0  0  0  0  0  0  0  0  0
   64.3009   33.8444   46.1304 H   0  0  0  0  0  0  0  0  0  0  0  0
   62.5855   34.3772   46.1304 H   0  0  0  0  0  0  0  0  0  0  0  0
   65.2333   33.4838   48.7029 H   0  0  0  0  0  0  0  0  0  0  0  0
   65.8920   32.6228   50.9451 H   0  0  0  0  0  0  0  0  0  0  0  0
   64.4616   30.9548   52.1176 H   0  0  0  0  0  0  0  0  0  0  0  0
   62.3492   30.1580   51.0640 H   0  0  0  0  0  0  0  0  0  0  0  0
   59.6417   30.0484   49.5575 H   0  0  0  0  0  0  0  0  0  0  0  0
   60.2966   31.4872   50.4273 H   0  0  0  0  0  0  0  0  0  0  0  0
   58.0763   31.6332   48.9262 H   0  0  0  0  0  0  0  0  0  0  0  0
   59.3044   32.9894   49.0158 H   0  0  0  0  0  0  0  0  0  0  0  0
   58.3010   31.9620   46.7780 H   0  0  0  0  0  0  0  0  0  0  0  0
   60.8890   33.2875   47.3416 H   0  0  0  0  0  0  0  0  0  0  0  0
   60.2883   32.9481   45.6620 H   0  0  0  0  0  0  0  0  0  0  0  0
   59.2344   34.8824   47.7316 H   0  0  0  0  0  0  0  0  0  0  0  0
   59.4830   35.1017   45.9655 H   0  0  0  0  0  0  0  0  0  0  0  0
   57.4528   32.7554   42.4610 H   0  0  0  0  0  0  0  0  0  0  0  0
   57.4750   30.0533   42.3482 H   0  0  0  0  0  0  0  0  0  0  0  0
   59.4365   28.2876   45.0566 H   0  0  0  0  0  0  0  0  0  0  0  0
   59.5923   25.5431   45.9304 H   0  0  0  0  0  0  0  0  0  0  0  0
   58.1586   23.5981   46.6566 H   0  0  0  0  0  0  0  0  0  0  0  0
   55.6657   23.8386   46.7504 H   0  0  0  0  0  0  0  0  0  0  0  0
   54.5787   26.0215   46.1044 H   0  0  0  0  0  0  0  0  0  0  0  0
   55.1440   28.5610   45.2420 H   0  0  0  0  0  0  0  0  0  0  0  0
   59.2571   29.8362   47.0306 H   0  0  0  0  0  0  0  0  0  0  0  0
   59.9661   30.7377   45.6263 H   0  0  0  0  0  0  0  0  0  0  0  0
   61.5739   29.4315   47.2403 H   0  0  0  0  0  0  0  0  0  0  0  0
   62.0058   31.1027   46.7149 H   0  0  0  0  0  0  0  0  0  0  0  0
  1  2  1  0
  2  3  1  0
  3  4  2  0
  4  5  1  0
  5  6  2  0
  6  7  1  0
  7  8  2  0
  8  9  1  0
  9 10  1  0
 10 11  1  0
 11 12  1  0
 12 13  1  0
 13 14  1  0
 14 15  1  0
 15 16  1  0
 16 17  2  0
 16 18  1  0
 18 19  2  0
 19 20  1  0
 20 21  2  0
 21 22  1  0
 22 23  2  0
 23 24  1  0
 24 25  2  0
 25 26  1  0
 26 27  2  0
 27 28  1  0
 28 29  2  0
 29 30  1  0
 21 31  1  0
 12 32  1  0
 32 33  1  0
  8  3  1  0
 33  9  1  0
 31 18  1  0
 30 22  1  0
 29 24  1  0
  1 34  1  0
  1 35  1  0
  1 36  1  0
  4 37  1  0
  5 38  1  0
  6 39  1  0
  7 40  1  0
 10 41  1  0
 10 42  1  0
 11 43  1  0
 11 44  1  0
 12 45  1  0
 13 46  1  0
 13 47  1  0
 14 48  1  0
 14 49  1  0
 19 50  1  0
 20 51  1  0
 23 52  1  0
 25 53  1  0
 26 54  1  0
 27 55  1  0
 28 56  1  0
 30 57  1  0
 32 58  1  0
 32 59  1  0
 33 60  1  0
 33 61  1  0
M  CHG  2  12   1  15  -1
M  END
>  <UniqueID>  (88) 
82

>  <SMILES>  (88) 
COc1ccccc1N1CC[NH+](CC[N-]C(=O)c2ccc(-c3cc4ccccc4[nH]3)o2)CC1

>  <Energy>  (88) 
139.76449179880814

>  <Genealogy>  (88) 
COc1ccccc1N1CC[NH+](CC[N-]C(=O)c2ccc(-c3cc4ccccc4[nH]3)o2)CC1 (protonated)
COc1ccccc1N1CC[NH+](CC[N-]C(=O)c2ccc(-c3cc4ccccc4[nH]3)o2)CC1 (3D coordinates assigned)
COc1ccccc1N1CC[NH+](CC[N-]C(=O)c2ccc(-c3cc4ccccc4[nH]3)o2)CC1 (nonaromatic ring conformer: 139.76449179880814 kcal/mol)

>  <smiles>  (88) 
COc1ccccc1N1CCN(CCNC(=O)c2ccc(-c3cc4ccccc4[nH]3)o2)CC1

>  <score_type>  (88) 
oracle

>  <origin>  (88) 
adg

>  <m_score__min__energy>  (88) 
-8.2200000000000006

>  <m_primary>  (88) 
energy

$$$$
88:0
     RDKit          3D

 45 48  0  0  0  0  0  0  0  0999 V2000
   56.1100   30.4090   42.8760 O   0  0  0  0  0  0  0  0  0  0  0  0
   56.3260   30.3470   44.1170 C   0  0  0  0  0  0  0  0  0  0  0  0
   55.6660   29.3530   44.9070 N   0  0  0  0  0  0  0  0  0  0  0  0
   56.2780   28.0750   45.2430 C   0  0  0  0  0  0  0  0  0  0  0  0
   57.7480   28.2670   45.4500 C   0  0  0  0  0  0  0  0  0  0  0  0
   58.2990   28.2170   46.7380 C   0  0  0  0  0  0  0  0  0  0  0  0
   59.6800   28.3650   46.8990 C   0  0  0  0  0  0  0  0  0  0  0  0
   60.4920   28.5520   45.7790 C   0  0  0  0  0  0  0  0  0  0  0  0
   59.9100   28.5850   44.5100 C   0  0  0  0  0  0  0  0  0  0  0  0
   58.5650   28.4380   44.3740 N   0  0  0  0  0  0  0  0  0  0  0  0
   57.2600   31.3010   44.7420 C   0  0  0  0  0  0  0  0  0  0  0  0
   57.6920   32.4520   44.0610 C   0  0  0  0  0  0  0  0  0  0  0  0
   58.5780   33.3330   44.6850 C   0  0  0  0  0  0  0  0  0  0  0  0
   59.0270   33.0670   45.9840 C   0  0  0  0  0  0  0  0  0  0  0  0
   59.9160   33.9330   46.6380 C   0  0  0  0  0  0  0  0  0  0  0  0
   60.3440   33.6480   47.9480 C   0  0  0  0  0  0  0  0  0  0  0  0
   61.2430   34.4810   48.6300 O   0  0  0  0  0  0  0  0  0  0  0  0
   62.4760   34.0820   49.1650 C   0  0  0  0  0  0  0  0  0  0  0  0
   63.3970   33.3280   48.4210 C   0  0  0  0  0  0  0  0  0  0  0  0
   64.6180   32.9730   48.9960 C   0  0  0  0  0  0  0  0  0  0  0  0
   64.9370   33.3970   50.2950 C   0  0  0  0  0  0  0  0  0  0  0  0
   66.2310   32.9800   50.9460 C   0  0  0  0  0  0  0  0  0  0  0  0
   67.3130   33.3690   50.1750 F   0  0  0  0  0  0  0  0  0  0  0  0
   66.3600   33.5610   52.1960 F   0  0  0  0  0  0  0  0  0  0  0  0
   66.2490   31.6040   51.0850 F   0  0  0  0  0  0  0  0  0  0  0  0
   63.9850   34.1450   51.0050 C   0  0  0  0  0  0  0  0  0  0  0  0
   62.8000   34.4740   50.4260 N   0  0  0  0  0  0  0  0  0  0  0  0
   59.9030   32.4780   48.5780 C   0  0  0  0  0  0  0  0  0  0  0  0
   59.0170   31.6110   47.9310 C   0  0  0  0  0  0  0  0  0  0  0  0
   58.5740   31.9020   46.6370 C   0  0  0  0  0  0  0  0  0  0  0  0
   57.7130   31.0610   46.0040 N   0  0  0  0  0  0  0  0  0  0  0  0
   55.8256   27.6827   46.1657 H   0  0  0  0  0  0  0  0  0  0  0  0
   56.1126   27.3613   44.4225 H   0  0  0  0  0  0  0  0  0  0  0  0
   57.6512   28.0628   47.6135 H   0  0  0  0  0  0  0  0  0  0  0  0
   60.1250   28.3342   47.9045 H   0  0  0  0  0  0  0  0  0  0  0  0
   61.5793   28.6721   45.8949 H   0  0  0  0  0  0  0  0  0  0  0  0
   60.5399   28.7300   43.6199 H   0  0  0  0  0  0  0  0  0  0  0  0
   57.3340   32.6580   43.0415 H   0  0  0  0  0  0  0  0  0  0  0  0
   58.9224   34.2343   44.1567 H   0  0  0  0  0  0  0  0  0  0  0  0
   60.2791   34.8363   46.1260 H   0  0  0  0  0  0  0  0  0  0  0  0
   63.1581   33.0193   47.3926 H   0  0  0  0  0  0  0  0  0  0  0  0
   65.3328   32.3587   48.4289 H   0  0  0  0  0  0  0  0  0  0  0  0
   64.1989   34.4666   52.0350 H   0  0  0  0  0  0  0  0  0  0  0  0
   60.2569   32.2385   49.5916 H   0  0  0  0  0  0  0  0  0  0  0  0
   58.6685   30.7002   48.4399 H   0  0  0  0  0  0  0  0  0  0  0  0
  1  2  2  0
  2  3  1  0
  3  4  1  0
  4  5  1  0
  5  6  2  0
  6  7  1  0
  7  8  2  0
  8  9  1  0
  9 10  2  0
  2 11  1  0
 11 12  2  0
 12 13  1  0
 13 14  2  0
 14 15  1  0
 15 16  2  0
 16 17  1  0
 17 18  1  0
 18 19  2  0
 19 20  1  0
 20 21  2  0
 21 22  1  0
 22 23  1  0
 22 24  1  0
 22 25  1  0
 21 26  1  0
 26 27  2  0
 16 28  1  0
 28 29  2  0
 29 30  1  0
 30 31  2  0
 10  5  1  0
 31 11  1  0
 30 14  1  0
 27 18  1  0
  4 32  1  0
  4 33  1  0
  6 34  1  0
  7 35  1  0
  8 36  1  0
  9 37  1  0
 12 38  1  0
 13 39  1  0
 15 40  1  0
 19 41  1  0
 20 42  1  0
 26 43  1  0
 28 44  1  0
 29 45  1  0
M  CHG  1   3  -1
M  END
>  <UniqueID>  (89) 
83

>  <SMILES>  (89) 
O=C([N-]Cc1ccccn1)c1ccc2cc(Oc3ccc(C(F)(F)F)cn3)ccc2n1

>  <Energy>  (89) 
58.19053738805808

>  <Genealogy>  (89) 
O=C([N-]Cc1ccccn1)c1ccc2cc(Oc3ccc(C(F)(F)F)cn3)ccc2n1 (protonated)
O=C([N-]Cc1ccccn1)c1ccc2cc(Oc3ccc(C(F)(F)F)cn3)ccc2n1 (3D coordinates assigned)
O=C([N-]Cc1ccccn1)c1ccc2cc(Oc3ccc(C(F)(F)F)cn3)ccc2n1 (optimized conformer: 58.19053738805808 kcal/mol)

>  <smiles>  (89) 
O=C(NCc1ccccn1)c1ccc2cc(Oc3ccc(C(F)(F)F)cn3)ccc2n1

>  <score_type>  (89) 
oracle

>  <origin>  (89) 
adg

>  <m_score__min__energy>  (89) 
-10.68

>  <m_primary>  (89) 
energy

$$$$
89:0
     RDKit          3D

 35 37  0  0  0  0  0  0  0  0999 V2000
   64.8070   34.8310   52.5670 C   0  0  0  0  0  0  0  0  0  0  0  0
   63.9070   33.8820   52.0050 O   0  0  0  0  0  0  0  0  0  0  0  0
   63.6580   33.7450   50.6310 C   0  0  0  0  0  0  0  0  0  0  0  0
   64.5810   33.1440   49.7530 C   0  0  0  0  0  0  0  0  0  0  0  0
   64.2880   33.0410   48.3900 C   0  0  0  0  0  0  0  0  0  0  0  0
   63.0760   33.5250   47.8930 C   0  0  0  0  0  0  0  0  0  0  0  0
   62.1370   34.1070   48.7630 C   0  0  0  0  0  0  0  0  0  0  0  0
   60.9160   34.6200   48.3010 O   0  0  0  0  0  0  0  0  0  0  0  0
   59.9780   33.9180   47.5300 C   0  0  0  0  0  0  0  0  0  0  0  0
   58.9190   34.5710   46.8710 C   0  0  0  0  0  0  0  0  0  0  0  0
   58.0110   33.8420   46.0970 C   0  0  0  0  0  0  0  0  0  0  0  0
   58.1580   32.4580   45.9630 C   0  0  0  0  0  0  0  0  0  0  0  0
   57.2760   31.7480   45.2100 N   0  0  0  0  0  0  0  0  0  0  0  0
   57.3840   30.4000   45.0460 C   0  0  0  0  0  0  0  0  0  0  0  0
   56.3920   29.6910   44.2170 C   0  0  0  0  0  0  0  0  0  0  0  0
   55.1570   29.2680   44.7920 N   0  0  0  0  0  0  0  0  0  0  0  0
   56.6230   29.4550   43.0010 O   0  0  0  0  0  0  0  0  0  0  0  0
   58.4370   29.7100   45.6700 C   0  0  0  0  0  0  0  0  0  0  0  0
   59.3580   30.4130   46.4480 C   0  0  0  0  0  0  0  0  0  0  0  0
   59.2280   31.7980   46.6040 C   0  0  0  0  0  0  0  0  0  0  0  0
   60.1350   32.5340   47.3790 C   0  0  0  0  0  0  0  0  0  0  0  0
   62.4450   34.2270   50.1240 C   0  0  0  0  0  0  0  0  0  0  0  0
   64.7571   34.7784   53.6646 H   0  0  0  0  0  0  0  0  0  0  0  0
   65.8314   34.6059   52.2353 H   0  0  0  0  0  0  0  0  0  0  0  0
   64.5280   35.8420   52.2353 H   0  0  0  0  0  0  0  0  0  0  0  0
   65.5341   32.7550   50.1406 H   0  0  0  0  0  0  0  0  0  0  0  0
   65.0146   32.5772   47.7067 H   0  0  0  0  0  0  0  0  0  0  0  0
   62.8553   33.4508   46.8179 H   0  0  0  0  0  0  0  0  0  0  0  0
   58.8053   35.6610   46.9656 H   0  0  0  0  0  0  0  0  0  0  0  0
   57.1803   34.3577   45.5931 H   0  0  0  0  0  0  0  0  0  0  0  0
   55.1420   28.6510   45.6330 H   0  0  0  0  0  0  0  0  0  0  0  0
   58.5349   28.6214   45.5459 H   0  0  0  0  0  0  0  0  0  0  0  0
   60.1854   29.8791   46.9382 H   0  0  0  0  0  0  0  0  0  0  0  0
   60.9748   32.0220   47.8714 H   0  0  0  0  0  0  0  0  0  0  0  0
   61.7247   34.7061   50.8034 H   0  0  0  0  0  0  0  0  0  0  0  0
  1  2  1  0
  2  3  1  0
  3  4  2  0
  4  5  1  0
  5  6  2  0
  6  7  1  0
  7  8  1  0
  8  9  1  0
  9 10  2  0
 10 11  1  0
 11 12  2  0
 12 13  1  0
 13 14  2  0
 14 15  1  0
 15 16  1  0
 15 17  2  0
 14 18  1  0
 18 19  2  0
 19 20  1  0
 20 21  2  0
  7 22  2  0
 22  3  1  0
 21  9  1  0
 20 12  1  0
  1 23  1  0
  1 24  1  0
  1 25  1  0
  4 26  1  0
  5 27  1  0
  6 28  1  0
 10 29  1  0
 11 30  1  0
 16 31  1  0
 18 32  1  0
 19 33  1  0
 21 34  1  0
 22 35  1  0
M  CHG  1  16  -1
M  END
>  <UniqueID>  (90) 
84

>  <SMILES>  (90) 
COc1cccc(Oc2ccc3nc(C([NH-])=O)ccc3c2)c1

>  <Energy>  (90) 
45.85159727748348

>  <Genealogy>  (90) 
COc1cccc(Oc2ccc3nc(C([NH-])=O)ccc3c2)c1 (protonated)
COc1cccc(Oc2ccc3nc(C([NH-])=O)ccc3c2)c1 (3D coordinates assigned)
COc1cccc(Oc2ccc3nc(C([NH-])=O)ccc3c2)c1 (optimized conformer: 45.85159727748348 kcal/mol)

>  <smiles>  (90) 
COc1cccc(Oc2ccc3nc(C(N)=O)ccc3c2)c1

>  <score_type>  (90) 
oracle

>  <origin>  (90) 
adg

>  <m_score__min__energy>  (90) 
-10.470000000000001

>  <m_primary>  (90) 
energy

$$$$
90:0
     RDKit          3D

 81 86  0  0  0  0  0  0  0  0999 V2000
   56.6850   31.2950   44.4840 O   0  0  0  0  0  0  0  0  0  0  0  0
   57.5820   31.4650   45.3510 C   0  0  0  0  0  0  0  0  0  0  0  0
   58.3950   32.6430   45.2970 N   0  0  0  0  0  0  0  0  0  0  0  0
   58.0550   33.8950   45.9650 C   0  0  0  0  0  0  0  0  0  0  0  0
   59.3240   34.6110   46.4380 C   0  0  0  0  0  0  0  0  0  0  0  0
   60.6000   33.8150   46.1200 C   0  0  0  0  0  0  0  0  0  0  0  0
   61.7210   34.2220   46.9950 N   0  0  0  0  0  0  0  0  0  0  0  0
   62.9510   33.4250   46.7490 C   0  0  0  0  0  0  0  0  0  0  0  0
   63.4450   32.6900   48.0070 C   0  0  0  0  0  0  0  0  0  0  0  0
   63.6350   33.5780   49.0920 O   0  0  0  0  0  0  0  0  0  0  0  0
   62.5230   34.4410   49.3200 C   0  0  0  0  0  0  0  0  0  0  0  0
   61.3060   34.2080   48.4090 C   0  0  0  0  0  0  0  0  0  0  0  0
   57.7720   30.4770   46.3680 N   0  0  0  0  0  0  0  0  0  0  0  0
   58.9050   30.4340   47.2430 C   0  0  0  0  0  0  0  0  0  0  0  0
   59.1580   31.4680   48.1590 C   0  0  0  0  0  0  0  0  0  0  0  0
   60.2660   31.4000   49.0020 C   0  0  0  0  0  0  0  0  0  0  0  0
   61.1140   30.2980   48.9220 C   0  0  0  0  0  0  0  0  0  0  0  0
   60.8530   29.3010   48.0360 N   0  0  0  0  0  0  0  0  0  0  0  0
   59.7710   29.3330   47.2070 C   0  0  0  0  0  0  0  0  0  0  0  0
   59.5390   28.3050   46.2810 O   0  0  0  0  0  0  0  0  0  0  0  0
   58.4680   27.4000   46.3240 C   0  0  0  0  0  0  0  0  0  0  0  0
   57.3140   27.5610   45.5360 C   0  0  0  0  0  0  0  0  0  0  0  0
   56.2640   26.6420   45.6290 C   0  0  0  0  0  0  0  0  0  0  0  0
   56.3450   25.5610   46.5130 C   0  0  0  0  0  0  0  0  0  0  0  0
   55.2420   24.6480   46.6000 N   0  0  0  0  0  0  0  0  0  0  0  0
   54.6020   24.0140   45.4860 C   0  0  0  0  0  0  0  0  0  0  0  0
   53.4260   24.3300   45.1570 O   0  0  0  0  0  0  0  0  0  0  0  0
   55.3620   23.0230   44.6470 C   0  0  1  0  0  0  0  0  0  0  0  0
   55.9560   23.6840   43.4020 C   0  0  0  0  0  0  0  0  0  0  0  0
   57.4240   23.9390   43.7300 C   0  0  0  0  0  0  0  0  0  0  0  0
   57.7780   22.9500   44.8330 C   0  0  0  0  0  0  0  0  0  0  0  0
   56.5080   22.5100   45.3850 N   0  0  0  0  0  0  0  0  0  0  0  0
   56.3850   21.6820   46.5590 C   0  0  0  0  0  0  0  0  0  0  0  0
   57.3390   21.6090   47.3820 O   0  0  0  0  0  0  0  0  0  0  0  0
   55.1560   20.9090   46.8200 C   0  0  0  0  0  0  0  0  0  0  0  0
   54.8890   19.7880   46.0170 C   0  0  0  0  0  0  0  0  0  0  0  0
   53.7190   19.0490   46.1950 C   0  0  0  0  0  0  0  0  0  0  0  0
   52.7960   19.4180   47.1730 C   0  0  0  0  0  0  0  0  0  0  0  0
   53.0400   20.5290   47.9920 C   0  0  0  0  0  0  0  0  0  0  0  0
   52.1090   20.8920   48.9790 C   0  0  0  0  0  0  0  0  0  0  0  0
   52.3540   21.9900   49.8050 C   0  0  0  0  0  0  0  0  0  0  0  0
   53.5260   22.7320   49.6600 C   0  0  0  0  0  0  0  0  0  0  0  0
   54.4610   22.3870   48.6790 C   0  0  0  0  0  0  0  0  0  0  0  0
   54.2290   21.2880   47.8240 C   0  0  0  0  0  0  0  0  0  0  0  0
   57.5210   25.3700   47.2570 C   0  0  0  0  0  0  0  0  0  0  0  0
   58.5740   26.2820   47.1580 C   0  0  0  0  0  0  0  0  0  0  0  0
   57.5129   34.5449   45.2623 H   0  0  0  0  0  0  0  0  0  0  0  0
   57.4245   33.6730   46.8386 H   0  0  0  0  0  0  0  0  0  0  0  0
   59.3844   35.5893   45.9386 H   0  0  0  0  0  0  0  0  0  0  0  0
   59.2601   34.7191   47.5308 H   0  0  0  0  0  0  0  0  0  0  0  0
   60.4002   32.7436   46.2691 H   0  0  0  0  0  0  0  0  0  0  0  0
   60.8837   34.0172   45.0766 H   0  0  0  0  0  0  0  0  0  0  0  0
   62.7374   32.6806   45.9678 H   0  0  0  0  0  0  0  0  0  0  0  0
   63.7428   34.1235   46.4404 H   0  0  0  0  0  0  0  0  0  0  0  0
   62.7003   31.9325   48.2927 H   0  0  0  0  0  0  0  0  0  0  0  0
   64.4130   32.2230   47.7730 H   0  0  0  0  0  0  0  0  0  0  0  0
   62.1972   34.3058   50.3619 H   0  0  0  0  0  0  0  0  0  0  0  0
   62.8785   35.4573   49.0948 H   0  0  0  0  0  0  0  0  0  0  0  0
   60.8555   33.2329   48.6462 H   0  0  0  0  0  0  0  0  0  0  0  0
   60.5723   35.0103   48.5766 H   0  0  0  0  0  0  0  0  0  0  0  0
   58.4806   32.3331   48.2113 H   0  0  0  0  0  0  0  0  0  0  0  0
   60.4682   32.2069   49.7217 H   0  0  0  0  0  0  0  0  0  0  0  0
   61.9958   30.2345   49.5765 H   0  0  0  0  0  0  0  0  0  0  0  0
   57.2372   28.4128   44.8442 H   0  0  0  0  0  0  0  0  0  0  0  0
   55.3686   26.7701   45.0030 H   0  0  0  0  0  0  0  0  0  0  0  0
   54.6452   22.2329   44.3791 H   0  0  0  0  0  0  0  0  0  0  0  0
   55.8678   23.0148   42.5335 H   0  0  0  0  0  0  0  0  0  0  0  0
   55.4295   24.6155   43.1467 H   0  0  0  0  0  0  0  0  0  0  0  0
   58.0510   23.7649   42.8431 H   0  0  0  0  0  0  0  0  0  0  0  0
   57.5945   24.9785   44.0469 H   0  0  0  0  0  0  0  0  0  0  0  0
   58.3335   22.0956   44.4190 H   0  0  0  0  0  0  0  0  0  0  0  0
   58.4188   23.4084   45.6007 H   0  0  0  0  0  0  0  0  0  0  0  0
   55.6090   19.4899   45.2406 H   0  0  0  0  0  0  0  0  0  0  0  0
   53.5238   18.1715   45.5611 H   0  0  0  0  0  0  0  0  0  0  0  0
   51.8724   18.8346   47.3023 H   0  0  0  0  0  0  0  0  0  0  0  0
   51.1841   20.3092   49.1013 H   0  0  0  0  0  0  0  0  0  0  0  0
   51.6194   22.2714   50.5739 H   0  0  0  0  0  0  0  0  0  0  0  0
   53.7156   23.5916   50.3196 H   0  0  0  0  0  0  0  0  0  0  0  0
   55.3838   22.9762   48.5729 H   0  0  0  0  0  0  0  0  0  0  0  0
   57.6130   24.4978   47.9209 H   0  0  0  0  0  0  0  0  0  0  0  0
   59.4933   26.1200   47.7400 H   0  0  0  0  0  0  0  0  0  0  0  0
  1  2  2  0
  2  3  1  0
  3  4  1  0
  4  5  1  0
  5  6  1  0
  6  7  1  0
  7  8  1  0
  8  9  1  0
  9 10  1  0
 10 11  1  0
 11 12  1  0
  2 13  1  0
 13 14  1  0
 14 15  2  0
 15 16  1  0
 16 17  2  0
 17 18  1  0
 18 19  2  0
 19 20  1  0
 20 21  1  0
 21 22  2  0
 22 23  1  0
 23 24  2  0
 24 25  1  0
 25 26  1  0
 26 27  2  0
 26 28  1  0
 28 29  1  0
 29 30  1  0
 30 31  1  0
 31 32  1  0
 32 33  1  0
 33 34  2  0
 33 35  1  0
 35 36  2  0
 36 37  1  0
 37 38  2  0
 38 39  1  0
 39 40  2  0
 40 41  1  0
 41 42  2  0
 42 43  1  0
 43 44  2  0
 24 45  1  0
 45 46  2  0
 12  7  1  0
 19 14  1  0
 46 21  1  0
 32 28  1  0
 44 35  1  0
 44 39  1  0
  4 47  1  0
  4 48  1  0
  5 49  1  0
  5 50  1  0
  6 51  1  0
  6 52  1  0
  8 53  1  0
  8 54  1  0
  9 55  1  0
  9 56  1  0
 11 57  1  0
 11 58  1  0
 12 59  1  0
 12 60  1  0
 15 61  1  0
 16 62  1  0
 17 63  1  0
 22 64  1  0
 23 65  1  0
 28 66  1  6
 29 67  1  0
 29 68  1  0
 30 69  1  0
 30 70  1  0
 31 71  1  0
 31 72  1  0
 36 73  1  0
 37 74  1  0
 38 75  1  0
 40 76  1  0
 41 77  1  0
 42 78  1  0
 43 79  1  0
 45 80  1  0
 46 81  1  0
M  CHG  3   3  -1  13  -1  25  -1
M  END
>  <UniqueID>  (91) 
85

>  <SMILES>  (91) 
O=C([N-]CCCN1CCOCC1)[N-]c1cccnc1Oc1ccc([N-]C(=O)[C@H]2CCCN2C(=O)c2cccc3ccccc23)cc1

>  <Energy>  (91) 
120.14000383220439

>  <Genealogy>  (91) 
O=C([N-]CCCN1CCOCC1)[N-]c1cccnc1Oc1ccc([N-]C(=O)C2CCCN2C(=O)c2cccc3ccccc23)cc1 (protonated)
O=C([N-]CCCN1CCOCC1)[N-]c1cccnc1Oc1ccc([N-]C(=O)[C@H]2CCCN2C(=O)c2cccc3ccccc23)cc1 (chirality)
O=C([N-]CCCN1CCOCC1)[N-]c1cccnc1Oc1ccc([N-]C(=O)[C@H]2CCCN2C(=O)c2cccc3ccccc23)cc1 (3D coordinates assigned)
O=C([N-]CCCN1CCOCC1)[N-]c1cccnc1Oc1ccc([N-]C(=O)[C@H]2CCCN2C(=O)c2cccc3ccccc23)cc1 (nonaromatic ring conformer: 120.14000383220439 kcal/mol)

>  <smiles>  (91) 
O=C(NCCCN1CCOCC1)Nc1cccnc1Oc1ccc(NC(=O)C2CCCN2C(=O)c2cccc3ccccc23)cc1

>  <score_type>  (91) 
oracle

>  <origin>  (91) 
adg

>  <m_score__min__energy>  (91) 
-15.43

>  <m_primary>  (91) 
energy

$$$$
91:0
     RDKit          3D

 50 52  0  0  0  0  0  0  0  0999 V2000
   59.2710   34.6000   48.2840 C   0  0  0  0  0  0  0  0  0  0  0  0
   59.0990   33.2250   47.8080 N   0  0  0  0  0  0  0  0  0  0  0  0
   59.1490   32.1360   48.7550 C   0  0  0  0  0  0  0  0  0  0  0  0
   58.1210   31.8420   49.4230 O   0  0  0  0  0  0  0  0  0  0  0  0
   60.3890   31.2970   48.9420 C   0  0  0  0  0  0  0  0  0  0  0  0
   61.6010   32.0690   48.6140 N   0  0  0  0  0  0  0  0  0  0  0  0
   62.3180   31.7420   47.4940 C   0  0  0  0  0  0  0  0  0  0  0  0
   63.4830   32.4380   47.1640 C   0  0  0  0  0  0  0  0  0  0  0  0
   63.9090   33.4840   47.9770 C   0  0  0  0  0  0  0  0  0  0  0  0
   63.1670   33.8270   49.1050 C   0  0  0  0  0  0  0  0  0  0  0  0
   62.0050   33.1110   49.4130 C   0  0  0  0  0  0  0  0  0  0  0  0
   61.3380   33.4360   50.4340 O   0  0  0  0  0  0  0  0  0  0  0  0
   58.7620   33.0000   46.4270 C   0  0  0  0  0  0  0  0  0  0  0  0
   59.0640   33.9680   45.4580 C   0  0  0  0  0  0  0  0  0  0  0  0
   58.7470   33.7440   44.1180 C   0  0  0  0  0  0  0  0  0  0  0  0
   58.1370   32.5480   43.7240 C   0  0  0  0  0  0  0  0  0  0  0  0
   57.7590   32.3260   42.0190 Cl  0  0  0  0  0  0  0  0  0  0  0  0
   57.8380   31.5630   44.6860 C   0  0  0  0  0  0  0  0  0  0  0  0
   57.0720   30.0340   44.2280 S   0  0  0  0  0  0  0  0  0  0  0  0
   56.4180   30.1760   42.8820 O   0  0  0  0  0  0  0  0  0  0  0  0
   56.0030   29.7200   45.2380 O   0  0  0  0  0  0  0  0  0  0  0  0
   58.2300   28.7180   44.1940 N   0  0  0  0  0  0  0  0  0  0  0  0
   59.6030   29.1810   44.5180 C   0  0  0  0  0  0  0  0  0  0  0  0
   60.1630   28.6200   45.8410 C   0  0  0  0  0  0  0  0  0  0  0  0
   59.0920   28.6060   46.9330 C   0  0  0  0  0  0  0  0  0  0  0  0
   57.8340   27.8270   46.5040 C   0  0  0  0  0  0  0  0  0  0  0  0
   57.7850   27.5580   44.9900 C   0  0  0  0  0  0  0  0  0  0  0  0
   58.1560   31.7990   46.0330 C   0  0  0  0  0  0  0  0  0  0  0  0
   59.2722   34.6098   49.3840 H   0  0  0  0  0  0  0  0  0  0  0  0
   60.2262   34.9998   47.9127 H   0  0  0  0  0  0  0  0  0  0  0  0
   58.4438   35.2227   47.9127 H   0  0  0  0  0  0  0  0  0  0  0  0
   60.4453   30.9661   49.9895 H   0  0  0  0  0  0  0  0  0  0  0  0
   60.3315   30.4299   48.2676 H   0  0  0  0  0  0  0  0  0  0  0  0
   61.9725   30.9221   46.8471 H   0  0  0  0  0  0  0  0  0  0  0  0
   64.0592   32.1616   46.2687 H   0  0  0  0  0  0  0  0  0  0  0  0
   64.8271   34.0373   47.7301 H   0  0  0  0  0  0  0  0  0  0  0  0
   63.4929   34.6563   49.7501 H   0  0  0  0  0  0  0  0  0  0  0  0
   59.5527   34.9074   45.7558 H   0  0  0  0  0  0  0  0  0  0  0  0
   58.9782   34.5129   43.3661 H   0  0  0  0  0  0  0  0  0  0  0  0
   60.2727   28.8729   43.7016 H   0  0  0  0  0  0  0  0  0  0  0  0
   59.5490   30.2734   44.6353 H   0  0  0  0  0  0  0  0  0  0  0  0
   60.5180   27.5924   45.6733 H   0  0  0  0  0  0  0  0  0  0  0  0
   60.9892   29.2666   46.1716 H   0  0  0  0  0  0  0  0  0  0  0  0
   59.5109   28.1341   47.8340 H   0  0  0  0  0  0  0  0  0  0  0  0
   58.7946   29.6470   47.1279 H   0  0  0  0  0  0  0  0  0  0  0  0
   57.8209   26.8625   47.0327 H   0  0  0  0  0  0  0  0  0  0  0  0
   56.9600   28.4445   46.7585 H   0  0  0  0  0  0  0  0  0  0  0  0
   58.4385   26.7029   44.7626 H   0  0  0  0  0  0  0  0  0  0  0  0
   56.7385   27.3509   44.7216 H   0  0  0  0  0  0  0  0  0  0  0  0
   57.9269   31.0325   46.7880 H   0  0  0  0  0  0  0  0  0  0  0  0
  1  2  1  0
  2  3  1  0
  3  4  2  0
  3  5  1  0
  5  6  1  0
  6  7  1  0
  7  8  2  0
  8  9  1  0
  9 10  2  0
 10 11  1  0
 11 12  2  0
  2 13  1  0
 13 14  2  0
 14 15  1  0
 15 16  2  0
 16 17  1  0
 16 18  1  0
 18 19  1  0
 19 20  2  0
 19 21  2  0
 19 22  1  0
 22 23  1  0
 23 24  1  0
 24 25  1  0
 25 26  1  0
 26 27  1  0
 18 28  2  0
 11  6  1  0
 28 13  1  0
 27 22  1  0
  1 29  1  0
  1 30  1  0
  1 31  1  0
  5 32  1  0
  5 33  1  0
  7 34  1  0
  8 35  1  0
  9 36  1  0
 10 37  1  0
 14 38  1  0
 15 39  1  0
 23 40  1  0
 23 41  1  0
 24 42  1  0
 24 43  1  0
 25 44  1  0
 25 45  1  0
 26 46  1  0
 26 47  1  0
 27 48  1  0
 27 49  1  0
 28 50  1  0
M  END
>  <UniqueID>  (92) 
86

>  <SMILES>  (92) 
CN(C(=O)Cn1ccccc1=O)c1ccc(Cl)c(S(=O)(=O)N2CCCCC2)c1

>  <Energy>  (92) 
63.665426321984576

>  <Genealogy>  (92) 
CN(C(=O)Cn1ccccc1=O)c1ccc(Cl)c(S(=O)(=O)N2CCCCC2)c1 (3D coordinates assigned)
CN(C(=O)Cn1ccccc1=O)c1ccc(Cl)c(S(=O)(=O)N2CCCCC2)c1 (nonaromatic ring conformer: 63.665426321984576 kcal/mol)

>  <smiles>  (92) 
CN(C(=O)Cn1ccccc1=O)c1ccc(Cl)c(S(=O)(=O)N2CCCCC2)c1

>  <score_type>  (92) 
oracle

>  <origin>  (92) 
adg

>  <m_score__min__energy>  (92) 
-9.5800000000000001

>  <m_primary>  (92) 
energy

$$$$
92:0
     RDKit          3D

 57 61  0  0  0  0  0  0  0  0999 V2000
   60.6230   32.7310   52.4340 C   0  0  0  0  0  0  0  0  0  0  0  0
   61.3330   33.1270   51.1690 C   0  0  0  0  0  0  0  0  0  0  0  0
   60.6160   33.5290   50.0370 C   0  0  0  0  0  0  0  0  0  0  0  0
   61.2600   33.8930   48.8830 N   0  0  0  0  0  0  0  0  0  0  0  0
   60.4470   34.3200   47.7160 C   0  0  0  0  0  0  0  0  0  0  0  0
   60.8960   33.5890   46.4350 C   0  0  0  0  0  0  0  0  0  0  0  0
   59.9820   33.9520   45.2530 C   0  0  0  0  0  0  0  0  0  0  0  0
   58.5320   33.8750   45.5690 N   0  0  0  0  0  0  0  0  0  0  0  0
   57.7130   33.2690   44.4930 C   0  0  0  0  0  0  0  0  0  0  0  0
   57.4960   31.7770   44.6580 C   0  0  0  0  0  0  0  0  0  0  0  0
   58.5300   30.9500   45.1250 C   0  0  0  0  0  0  0  0  0  0  0  0
   58.3180   29.5800   45.3040 C   0  0  0  0  0  0  0  0  0  0  0  0
   57.0710   29.0090   45.0020 C   0  0  0  0  0  0  0  0  0  0  0  0
   56.8350   27.5660   45.2110 C   0  0  0  0  0  0  0  0  0  0  0  0
   57.5210   26.5860   44.5890 N   0  0  0  0  0  0  0  0  0  0  0  0
   56.9530   25.4790   45.1170 C   0  0  0  0  0  0  0  0  0  0  0  0
   57.3720   24.1000   44.7740 C   0  0  0  0  0  0  0  0  0  0  0  0
   58.5660   23.5780   45.3060 C   0  0  0  0  0  0  0  0  0  0  0  0
   58.9620   22.2710   45.0110 C   0  0  0  0  0  0  0  0  0  0  0  0
   58.1800   21.4720   44.1750 C   0  0  0  0  0  0  0  0  0  0  0  0
   56.9980   21.9770   43.6320 C   0  0  0  0  0  0  0  0  0  0  0  0
   56.5900   23.2830   43.9260 C   0  0  0  0  0  0  0  0  0  0  0  0
   55.4290   23.7390   43.3870 F   0  0  0  0  0  0  0  0  0  0  0  0
   55.9830   25.7780   46.0040 N   0  0  0  0  0  0  0  0  0  0  0  0
   55.9400   27.0750   46.0340 O   0  0  0  0  0  0  0  0  0  0  0  0
   56.0470   29.8260   44.5000 C   0  0  0  0  0  0  0  0  0  0  0  0
   56.2600   31.1970   44.3240 C   0  0  0  0  0  0  0  0  0  0  0  0
   58.2060   33.3600   46.9150 C   0  0  0  0  0  0  0  0  0  0  0  0
   58.9220   34.1900   47.9880 C   0  0  0  0  0  0  0  0  0  0  0  0
   62.6360   33.8700   48.8470 C   0  0  0  0  0  0  0  0  0  0  0  0
   63.2660   34.1960   47.8050 O   0  0  0  0  0  0  0  0  0  0  0  0
   63.3420   33.4850   49.9410 N   0  0  0  0  0  0  0  0  0  0  0  0
   62.7290   33.1170   51.0920 C   0  0  0  0  0  0  0  0  0  0  0  0
   63.4250   32.7690   52.0830 O   0  0  0  0  0  0  0  0  0  0  0  0
   61.2118   33.0594   53.3031 H   0  0  0  0  0  0  0  0  0  0  0  0
   59.6314   33.2063   52.4621 H   0  0  0  0  0  0  0  0  0  0  0  0
   60.5064   31.6376   52.4621 H   0  0  0  0  0  0  0  0  0  0  0  0
   59.5169   33.5534   50.0736 H   0  0  0  0  0  0  0  0  0  0  0  0
   60.6275   35.3925   47.5511 H   0  0  0  0  0  0  0  0  0  0  0  0
   61.9290   33.8815   46.1957 H   0  0  0  0  0  0  0  0  0  0  0  0
   60.8366   32.5043   46.6077 H   0  0  0  0  0  0  0  0  0  0  0  0
   60.2141   34.9802   44.9384 H   0  0  0  0  0  0  0  0  0  0  0  0
   60.1762   33.2146   44.4602 H   0  0  0  0  0  0  0  0  0  0  0  0
   56.7306   33.7638   44.4840 H   0  0  0  0  0  0  0  0  0  0  0  0
   58.2636   33.4113   43.5514 H   0  0  0  0  0  0  0  0  0  0  0  0
   59.5151   31.3837   45.3519 H   0  0  0  0  0  0  0  0  0  0  0  0
   59.1325   28.9456   45.6836 H   0  0  0  0  0  0  0  0  0  0  0  0
   59.1921   24.2038   45.9590 H   0  0  0  0  0  0  0  0  0  0  0  0
   59.8928   21.8703   45.4388 H   0  0  0  0  0  0  0  0  0  0  0  0
   58.4958   20.4439   43.9442 H   0  0  0  0  0  0  0  0  0  0  0  0
   56.3851   21.3467   42.9709 H   0  0  0  0  0  0  0  0  0  0  0  0
   55.0719   29.3862   44.2436 H   0  0  0  0  0  0  0  0  0  0  0  0
   55.4533   31.8268   43.9207 H   0  0  0  0  0  0  0  0  0  0  0  0
   57.1192   33.4208   47.0738 H   0  0  0  0  0  0  0  0  0  0  0  0
   58.5387   32.3141   46.9892 H   0  0  0  0  0  0  0  0  0  0  0  0
   58.4798   35.1970   48.0094 H   0  0  0  0  0  0  0  0  0  0  0  0
   58.7956   33.6741   48.9513 H   0  0  0  0  0  0  0  0  0  0  0  0
  1  2  1  0
  2  3  2  0
  3  4  1  0
  4  5  1  0
  5  6  1  0
  6  7  1  0
  7  8  1  0
  8  9  1  0
  9 10  1  0
 10 11  2  0
 11 12  1  0
 12 13  2  0
 13 14  1  0
 14 15  2  0
 15 16  1  0
 16 17  1  0
 17 18  2  0
 18 19  1  0
 19 20  2  0
 20 21  1  0
 21 22  2  0
 22 23  1  0
 16 24  2  0
 24 25  1  0
 13 26  1  0
 26 27  2  0
  8 28  1  0
 28 29  1  0
  4 30  1  0
 30 31  2  0
 30 32  1  0
 32 33  1  0
 33 34  2  0
 33  2  1  0
 29  5  1  0
 27 10  1  0
 25 14  1  0
 22 17  1  0
  1 35  1  0
  1 36  1  0
  1 37  1  0
  3 38  1  0
  5 39  1  0
  6 40  1  0
  6 41  1  0
  7 42  1  0
  7 43  1  0
  9 44  1  0
  9 45  1  0
 11 46  1  0
 12 47  1  0
 18 48  1  0
 19 49  1  0
 20 50  1  0
 21 51  1  0
 26 52  1  0
 27 53  1  0
 28 54  1  0
 28 55  1  0
 29 56  1  0
 29 57  1  0
M  CHG  1  32  -1
M  END
>  <UniqueID>  (93) 
87

>  <SMILES>  (93) 
Cc1cn(C2CCN(Cc3ccc(-c4nc(-c5ccccc5F)no4)cc3)CC2)c(=O)[n-]c1=O

>  <Energy>  (93) 
113.78186806111312

>  <Genealogy>  (93) 
Cc1cn(C2CCN(Cc3ccc(-c4nc(-c5ccccc5F)no4)cc3)CC2)c(=O)[n-]c1=O (protonated)
Cc1cn(C2CCN(Cc3ccc(-c4nc(-c5ccccc5F)no4)cc3)CC2)c(=O)[n-]c1=O (3D coordinates assigned)
Cc1cn(C2CCN(Cc3ccc(-c4nc(-c5ccccc5F)no4)cc3)CC2)c(=O)[n-]c1=O (nonaromatic ring conformer: 113.78186806111312 kcal/mol)

>  <smiles>  (93) 
Cc1cn(C2CCN(Cc3ccc(-c4nc(-c5ccccc5F)no4)cc3)CC2)c(=O)[nH]c1=O

>  <score_type>  (93) 
oracle

>  <origin>  (93) 
adg

>  <m_score__min__energy>  (93) 
-10.880000000000001

>  <m_primary>  (93) 
energy

$$$$
93:0
     RDKit          3D

 51 54  0  0  0  0  0  0  0  0999 V2000
   59.2680   26.4360   48.0370 O   0  0  0  0  0  0  0  0  0  0  0  0
   59.3180   27.3070   47.1300 C   0  0  0  0  0  0  0  0  0  0  0  0
   60.3530   28.3010   47.1330 N   0  0  0  0  0  0  0  0  0  0  0  0
   60.2780   29.6100   47.7150 C   0  0  0  0  0  0  0  0  0  0  0  0
   61.1620   30.6420   47.3480 C   0  0  0  0  0  0  0  0  0  0  0  0
   61.0710   31.8960   47.9630 C   0  0  0  0  0  0  0  0  0  0  0  0
   60.1120   32.1250   48.9530 C   0  0  0  0  0  0  0  0  0  0  0  0
   59.2480   31.0970   49.3370 C   0  0  0  0  0  0  0  0  0  0  0  0
   59.3360   29.8430   48.7260 C   0  0  0  0  0  0  0  0  0  0  0  0
   58.3970   27.2230   46.0380 N   0  0  0  0  0  0  0  0  0  0  0  0
   57.6720   28.3170   45.4560 C   0  0  0  0  0  0  0  0  0  0  0  0
   58.3270   29.5080   45.0920 C   0  0  0  0  0  0  0  0  0  0  0  0
   57.6330   30.5420   44.4580 C   0  0  0  0  0  0  0  0  0  0  0  0
   58.3290   31.7130   44.1210 O   0  0  0  0  0  0  0  0  0  0  0  0
   58.5200   32.8180   44.9650 C   0  0  0  0  0  0  0  0  0  0  0  0
   59.2820   33.9340   44.5700 C   0  0  0  0  0  0  0  0  0  0  0  0
   59.4630   35.0080   45.4480 C   0  0  0  0  0  0  0  0  0  0  0  0
   58.8990   34.9700   46.7260 C   0  0  0  0  0  0  0  0  0  0  0  0
   58.1580   33.8560   47.1300 C   0  0  0  0  0  0  0  0  0  0  0  0
   57.9750   32.7800   46.2540 C   0  0  0  0  0  0  0  0  0  0  0  0
   56.2570   30.4030   44.2170 C   0  0  0  0  0  0  0  0  0  0  0  0
   55.5910   29.2380   44.6040 C   0  0  0  0  0  0  0  0  0  0  0  0
   56.2790   28.2070   45.2520 C   0  0  0  0  0  0  0  0  0  0  0  0
   55.5470   27.0290   45.6220 N   0  0  0  0  0  0  0  0  0  0  0  0
   56.1280   25.8110   46.1040 C   0  0  0  0  0  0  0  0  0  0  0  0
   56.3170   25.6640   47.3430 O   0  0  0  0  0  0  0  0  0  0  0  0
   56.4650   24.7020   45.1690 C   0  0  0  0  0  0  0  0  0  0  0  0
   55.5010   24.2740   44.2340 C   0  0  0  0  0  0  0  0  0  0  0  0
   55.7820   23.2350   43.3420 C   0  0  0  0  0  0  0  0  0  0  0  0
   57.0260   22.6080   43.3680 C   0  0  0  0  0  0  0  0  0  0  0  0
   57.9930   23.0160   44.2870 C   0  0  0  0  0  0  0  0  0  0  0  0
   57.7260   24.0560   45.1900 C   0  0  0  0  0  0  0  0  0  0  0  0
   58.7140   24.4370   46.0980 O   0  0  0  0  0  0  0  0  0  0  0  0
   61.9255   30.4627   46.5767 H   0  0  0  0  0  0  0  0  0  0  0  0
   61.7564   32.7035   47.6661 H   0  0  0  0  0  0  0  0  0  0  0  0
   60.0376   33.1137   49.4294 H   0  0  0  0  0  0  0  0  0  0  0  0
   58.4974   31.2745   50.1212 H   0  0  0  0  0  0  0  0  0  0  0  0
   58.6612   29.0334   49.0409 H   0  0  0  0  0  0  0  0  0  0  0  0
   59.3988   29.6266   45.3092 H   0  0  0  0  0  0  0  0  0  0  0  0
   59.7362   33.9615   43.5685 H   0  0  0  0  0  0  0  0  0  0  0  0
   60.0498   35.8832   45.1321 H   0  0  0  0  0  0  0  0  0  0  0  0
   59.0383   35.8169   47.4140 H   0  0  0  0  0  0  0  0  0  0  0  0
   57.7181   33.8249   48.1377 H   0  0  0  0  0  0  0  0  0  0  0  0
   57.4003   31.9004   46.5797 H   0  0  0  0  0  0  0  0  0  0  0  0
   55.7020   31.2136   43.7221 H   0  0  0  0  0  0  0  0  0  0  0  0
   54.5160   29.1303   44.3974 H   0  0  0  0  0  0  0  0  0  0  0  0
   54.5162   24.7632   44.2059 H   0  0  0  0  0  0  0  0  0  0  0  0
   55.0195   22.9118   42.6181 H   0  0  0  0  0  0  0  0  0  0  0  0
   57.2455   21.7916   42.6642 H   0  0  0  0  0  0  0  0  0  0  0  0
   58.9736   22.5178   44.3038 H   0  0  0  0  0  0  0  0  0  0  0  0
   58.5660   25.1860   46.7640 H   0  0  0  0  0  0  0  0  0  0  0  0
  1  2  2  0
  2  3  1  0
  3  4  1  0
  4  5  2  0
  5  6  1  0
  6  7  2  0
  7  8  1  0
  8  9  2  0
  2 10  1  0
 10 11  1  0
 11 12  2  0
 12 13  1  0
 13 14  1  0
 14 15  1  0
 15 16  2  0
 16 17  1  0
 17 18  2  0
 18 19  1  0
 19 20  2  0
 13 21  2  0
 21 22  1  0
 22 23  2  0
 23 24  1  0
 24 25  1  0
 25 26  2  0
 25 27  1  0
 27 28  2  0
 28 29  1  0
 29 30  2  0
 30 31  1  0
 31 32  2  0
 32 33  1  0
  9  4  1  0
 23 11  1  0
 32 27  1  0
 20 15  1  0
  5 34  1  0
  6 35  1  0
  7 36  1  0
  8 37  1  0
  9 38  1  0
 12 39  1  0
 16 40  1  0
 17 41  1  0
 18 42  1  0
 19 43  1  0
 20 44  1  0
 21 45  1  0
 22 46  1  0
 28 47  1  0
 29 48  1  0
 30 49  1  0
 31 50  1  0
 33 51  1  0
M  CHG  3   3  -1  10  -1  24  -1
M  END
>  <UniqueID>  (94) 
88

>  <SMILES>  (94) 
O=C([N-]c1ccccc1)[N-]c1cc(Oc2ccccc2)ccc1[N-]C(=O)c1ccccc1O

>  <Energy>  (94) 
77.69743045227393

>  <Genealogy>  (94) 
O=C([N-]c1ccccc1)[N-]c1cc(Oc2ccccc2)ccc1[N-]C(=O)c1ccccc1O (protonated)
O=C([N-]c1ccccc1)[N-]c1cc(Oc2ccccc2)ccc1[N-]C(=O)c1ccccc1O (3D coordinates assigned)
O=C([N-]c1ccccc1)[N-]c1cc(Oc2ccccc2)ccc1[N-]C(=O)c1ccccc1O (optimized conformer: 77.69743045227393 kcal/mol)

>  <smiles>  (94) 
O=C(Nc1ccccc1)Nc1cc(Oc2ccccc2)ccc1NC(=O)c1ccccc1O

>  <score_type>  (94) 
oracle

>  <origin>  (94) 
adg

>  <m_score__min__energy>  (94) 
-14.32

>  <m_primary>  (94) 
energy

$$$$
94:0
     RDKit          3D

 74 78  0  0  0  0  0  0  0  0999 V2000
   58.4110   23.8120   45.5230 C   0  0  0  0  0  0  0  0  0  0  0  0
   57.1520   24.5210   45.2600 N   0  0  0  0  0  0  0  0  0  0  0  0
   56.2860   24.0980   44.1500 C   0  0  0  0  0  0  0  0  0  0  0  0
   56.7040   25.5860   46.1270 C   0  0  0  0  0  0  0  0  0  0  0  0
   55.4970   25.9510   46.0820 O   0  0  0  0  0  0  0  0  0  0  0  0
   57.6180   26.2030   47.1580 C   0  0  0  0  0  0  0  0  0  0  0  0
   58.1650   27.5850   46.7520 C   0  0  0  0  0  0  0  0  0  0  0  0
   58.5510   27.7030   45.2480 C   0  0  0  0  0  0  0  0  0  0  0  0
   57.3560   28.2590   44.4080 C   0  0  0  0  0  0  0  0  0  0  0  0
   57.6490   29.6080   43.7420 C   0  0  0  0  0  0  0  0  0  0  0  0
   58.3500   30.4920   44.6820 N   0  0  0  0  0  0  0  0  0  0  0  0
   57.7790   31.7670   45.0410 C   0  0  0  0  0  0  0  0  0  0  0  0
   56.5380   31.9570   44.9110 O   0  0  0  0  0  0  0  0  0  0  0  0
   58.6300   32.9230   45.4990 C   0  0  0  0  0  0  0  0  0  0  0  0
   58.9800   32.8260   46.9150 N   0  0  0  0  0  0  0  0  0  0  0  0
   58.1240   32.7850   47.9580 C   0  0  0  0  0  0  0  0  0  0  0  0
   58.8690   32.6140   49.1080 C   0  0  0  0  0  0  0  0  0  0  0  0
   58.4050   32.1230   50.3710 N   0  0  0  0  0  0  0  0  0  0  0  0
   58.2160   30.7390   50.6900 C   0  0  0  0  0  0  0  0  0  0  0  0
   57.1530   30.3510   51.2330 O   0  0  0  0  0  0  0  0  0  0  0  0
   59.2440   29.7680   50.2950 C   0  0  0  0  0  0  0  0  0  0  0  0
   59.4940   29.2840   49.0100 C   0  0  0  0  0  0  0  0  0  0  0  0
   60.3840   28.2600   49.0650 N   0  0  0  0  0  0  0  0  0  0  0  0
   60.7010   28.0960   50.3380 N   0  0  0  0  0  0  0  0  0  0  0  0
   61.5070   27.1370   50.8630 C   0  0  0  0  0  0  0  0  0  0  0  0
   61.6520   27.0940   52.2550 C   0  0  0  0  0  0  0  0  0  0  0  0
   60.9420   28.0280   53.0400 C   0  0  0  0  0  0  0  0  0  0  0  0
   60.1310   28.9590   52.4510 N   0  0  0  0  0  0  0  0  0  0  0  0
   60.0330   28.9720   51.0980 C   0  0  0  0  0  0  0  0  0  0  0  0
   60.1850   32.5710   48.6860 C   0  0  0  0  0  0  0  0  0  0  0  0
   61.3690   32.2770   49.5170 C   0  0  0  0  0  0  0  0  0  0  0  0
   61.2330   32.1820   50.9120 C   0  0  0  0  0  0  0  0  0  0  0  0
   62.3480   31.9220   51.7150 C   0  0  0  0  0  0  0  0  0  0  0  0
   62.1720   31.8170   53.4610 Cl  0  0  0  0  0  0  0  0  0  0  0  0
   63.6060   31.7590   51.1310 C   0  0  0  0  0  0  0  0  0  0  0  0
   63.7510   31.8410   49.7440 C   0  0  0  0  0  0  0  0  0  0  0  0
   62.6370   32.0880   48.9220 C   0  0  0  0  0  0  0  0  0  0  0  0
   62.7380   32.1190   47.5220 O   0  0  0  0  0  0  0  0  0  0  0  0
   63.4070   33.1250   46.7690 C   0  0  0  0  0  0  0  0  0  0  0  0
   64.0600   33.9730   47.6450 F   0  0  0  0  0  0  0  0  0  0  0  0
   62.4900   33.8550   46.0300 F   0  0  0  0  0  0  0  0  0  0  0  0
   60.2250   32.7010   47.3460 N   0  0  0  0  0  0  0  0  0  0  0  0
   59.6190   30.0300   45.2730 C   0  0  0  0  0  0  0  0  0  0  0  0
   59.8450   28.5290   45.0210 C   0  0  0  0  0  0  0  0  0  0  0  0
   58.5635   23.7261   46.6090 H   0  0  0  0  0  0  0  0  0  0  0  0
   58.3655   22.8068   45.0785 H   0  0  0  0  0  0  0  0  0  0  0  0
   59.2469   24.3720   45.0785 H   0  0  0  0  0  0  0  0  0  0  0  0
   55.3664   23.6488   44.5531 H   0  0  0  0  0  0  0  0  0  0  0  0
   56.0276   24.9714   43.5332 H   0  0  0  0  0  0  0  0  0  0  0  0
   56.8160   23.3573   43.5332 H   0  0  0  0  0  0  0  0  0  0  0  0
   57.0570   26.3138   48.0977 H   0  0  0  0  0  0  0  0  0  0  0  0
   58.4837   25.5325   47.2629 H   0  0  0  0  0  0  0  0  0  0  0  0
   57.3941   28.3387   46.9703 H   0  0  0  0  0  0  0  0  0  0  0  0
   59.0890   27.7405   47.3282 H   0  0  0  0  0  0  0  0  0  0  0  0
   58.7747   26.6856   44.8947 H   0  0  0  0  0  0  0  0  0  0  0  0
   57.1138   27.5285   43.6220 H   0  0  0  0  0  0  0  0  0  0  0  0
   56.5190   28.4179   45.1039 H   0  0  0  0  0  0  0  0  0  0  0  0
   58.2792   29.4468   42.8550 H   0  0  0  0  0  0  0  0  0  0  0  0
   56.6994   30.0774   43.4455 H   0  0  0  0  0  0  0  0  0  0  0  0
   59.5561   32.9376   44.9057 H   0  0  0  0  0  0  0  0  0  0  0  0
   58.0486   33.8461   45.3580 H   0  0  0  0  0  0  0  0  0  0  0  0
   57.0289   32.8722   47.9019 H   0  0  0  0  0  0  0  0  0  0  0  0
   59.0374   29.6745   48.0886 H   0  0  0  0  0  0  0  0  0  0  0  0
   62.0291   26.4172   50.2154 H   0  0  0  0  0  0  0  0  0  0  0  0
   62.3065   26.3469   52.7277 H   0  0  0  0  0  0  0  0  0  0  0  0
   61.0418   28.0070   54.1353 H   0  0  0  0  0  0  0  0  0  0  0  0
   60.2439   32.3129   51.3753 H   0  0  0  0  0  0  0  0  0  0  0  0
   64.4844   31.5657   51.7643 H   0  0  0  0  0  0  0  0  0  0  0  0
   64.7450   31.7113   49.2910 H   0  0  0  0  0  0  0  0  0  0  0  0
   64.1260   32.6527   46.0834 H   0  0  0  0  0  0  0  0  0  0  0  0
   60.4489   30.5965   44.8254 H   0  0  0  0  0  0  0  0  0  0  0  0
   59.5737   30.1945   46.3597 H   0  0  0  0  0  0  0  0  0  0  0  0
   60.1786   28.3891   43.9822 H   0  0  0  0  0  0  0  0  0  0  0  0
   60.6051   28.1744   45.7327 H   0  0  0  0  0  0  0  0  0  0  0  0
  1  2  1  0
  2  3  1  0
  2  4  1  0
  4  5  2  0
  4  6  1  0
  6  7  1  0
  7  8  1  0
  8  9  1  0
  9 10  1  0
 10 11  1  0
 11 12  1  0
 12 13  2  0
 12 14  1  0
 14 15  1  0
 15 16  1  0
 16 17  2  0
 17 18  1  0
 18 19  1  0
 19 20  2  0
 19 21  1  0
 21 22  1  0
 22 23  2  0
 23 24  1  0
 24 25  1  0
 25 26  2  0
 26 27  1  0
 27 28  2  0
 28 29  1  0
 17 30  1  0
 30 31  1  0
 31 32  2  0
 32 33  1  0
 33 34  1  0
 33 35  2  0
 35 36  1  0
 36 37  2  0
 37 38  1  0
 38 39  1  0
 39 40  1  0
 39 41  1  0
 30 42  2  0
 11 43  1  0
 43 44  1  0
 44  8  1  0
 42 15  1  0
 29 21  2  0
 37 31  1  0
 29 24  1  0
  1 45  1  0
  1 46  1  0
  1 47  1  0
  3 48  1  0
  3 49  1  0
  3 50  1  0
  6 51  1  0
  6 52  1  0
  7 53  1  0
  7 54  1  0
  8 55  1  0
  9 56  1  0
  9 57  1  0
 10 58  1  0
 10 59  1  0
 14 60  1  0
 14 61  1  0
 16 62  1  0
 22 63  1  0
 25 64  1  0
 26 65  1  0
 27 66  1  0
 32 67  1  0
 35 68  1  0
 36 69  1  0
 39 70  1  0
 43 71  1  0
 43 72  1  0
 44 73  1  0
 44 74  1  0
M  CHG  1  18  -1
M  END
>  <UniqueID>  (95) 
89

>  <SMILES>  (95) 
CN(C)C(=O)CCC1CCN(C(=O)Cn2cc([N-]C(=O)c3cnn4cccnc34)c(-c3cc(Cl)ccc3OC(F)F)n2)CC1

>  <Energy>  (95) 
153.43480373951317

>  <Genealogy>  (95) 
CN(C)C(=O)CCC1CCN(C(=O)Cn2cc([N-]C(=O)c3cnn4cccnc34)c(-c3cc(Cl)ccc3OC(F)F)n2)CC1 (protonated)
CN(C)C(=O)CCC1CCN(C(=O)Cn2cc([N-]C(=O)c3cnn4cccnc34)c(-c3cc(Cl)ccc3OC(F)F)n2)CC1 (3D coordinates assigned)
CN(C)C(=O)CCC1CCN(C(=O)Cn2cc([N-]C(=O)c3cnn4cccnc34)c(-c3cc(Cl)ccc3OC(F)F)n2)CC1 (nonaromatic ring conformer: 153.43480373951317 kcal/mol)

>  <smiles>  (95) 
CN(C)C(=O)CCC1CCN(C(=O)Cn2cc(NC(=O)c3cnn4cccnc34)c(-c3cc(Cl)ccc3OC(F)F)n2)CC1

>  <score_type>  (95) 
oracle

>  <origin>  (95) 
adg

>  <m_score__min__energy>  (95) 
-11.869999999999999

>  <m_primary>  (95) 
energy

$$$$
95:0
     RDKit          3D

 52 54  0  0  0  0  0  0  0  0999 V2000
   54.7720   26.3440   46.0050 N   0  0  0  0  0  0  0  0  0  0  0  0
   56.3320   25.6350   46.2290 S   0  0  0  0  0  0  0  0  0  0  0  0
   56.3170   24.7690   47.4580 O   0  0  0  0  0  0  0  0  0  0  0  0
   56.6680   24.7780   45.0410 O   0  0  0  0  0  0  0  0  0  0  0  0
   57.5370   26.9080   46.4030 C   0  0  0  0  0  0  0  0  0  0  0  0
   58.6100   26.7390   47.2860 C   0  0  0  0  0  0  0  0  0  0  0  0
   59.5570   27.7520   47.4410 C   0  0  0  0  0  0  0  0  0  0  0  0
   59.4420   28.9360   46.7090 C   0  0  0  0  0  0  0  0  0  0  0  0
   58.3870   29.1150   45.8020 C   0  0  0  0  0  0  0  0  0  0  0  0
   58.2640   30.3690   45.1070 N   0  0  0  0  0  0  0  0  0  0  0  0
   57.0170   31.0430   44.8600 C   0  0  0  0  0  0  0  0  0  0  0  0
   55.9580   30.3750   44.7180 O   0  0  0  0  0  0  0  0  0  0  0  0
   56.9380   32.5430   44.7800 C   0  0  0  0  0  0  0  0  0  0  0  0
   58.2270   33.1310   44.4250 N   0  0  0  0  0  0  0  0  0  0  0  0
   59.0260   34.0150   45.2260 C   0  0  0  0  0  0  0  0  0  0  0  0
   59.2010   35.1930   44.8160 O   0  0  0  0  0  0  0  0  0  0  0  0
   59.6290   33.6200   46.5210 C   0  0  0  0  0  0  0  0  0  0  0  0
   58.8140   33.5300   47.6630 C   0  0  0  0  0  0  0  0  0  0  0  0
   59.3690   33.2110   48.9060 C   0  0  0  0  0  0  0  0  0  0  0  0
   60.7420   32.9930   49.0250 C   0  0  0  0  0  0  0  0  0  0  0  0
   61.5720   33.0960   47.9010 C   0  0  0  0  0  0  0  0  0  0  0  0
   63.3110   32.8280   48.0470 S   0  0  0  0  0  0  0  0  0  0  0  0
   64.0340   33.8800   47.2550 O   0  0  0  0  0  0  0  0  0  0  0  0
   63.6560   31.4870   47.4590 O   0  0  0  0  0  0  0  0  0  0  0  0
   63.8470   32.8770   49.7080 N   0  0  0  0  0  0  0  0  0  0  0  0
   65.3090   32.7600   49.7860 C   0  0  0  0  0  0  0  0  0  0  0  0
   65.7610   32.7780   51.2610 C   0  0  0  0  0  0  0  0  0  0  0  0
   64.6930   33.0700   52.1450 O   0  0  0  0  0  0  0  0  0  0  0  0
   64.0540   34.2680   51.7500 C   0  0  0  0  0  0  0  0  0  0  0  0
   63.4020   34.1200   50.3590 C   0  0  0  0  0  0  0  0  0  0  0  0
   61.0130   33.4150   46.6560 C   0  0  0  0  0  0  0  0  0  0  0  0
   57.4280   28.0920   45.6600 C   0  0  0  0  0  0  0  0  0  0  0  0
   54.6690   27.0870   46.7320 H   0  0  0  0  0  0  0  0  0  0  0  0
   58.7069   25.8051   47.8592 H   0  0  0  0  0  0  0  0  0  0  0  0
   60.3952   27.6180   48.1406 H   0  0  0  0  0  0  0  0  0  0  0  0
   60.1854   29.7353   46.8450 H   0  0  0  0  0  0  0  0  0  0  0  0
   59.1460   30.8220   44.7740 H   0  0  0  0  0  0  0  0  0  0  0  0
   56.1964   32.8212   44.0167 H   0  0  0  0  0  0  0  0  0  0  0  0
   56.6461   32.9255   45.7692 H   0  0  0  0  0  0  0  0  0  0  0  0
   57.7325   33.7118   47.5780 H   0  0  0  0  0  0  0  0  0  0  0  0
   58.7219   33.1317   49.7920 H   0  0  0  0  0  0  0  0  0  0  0  0
   61.1741   32.7395   50.0043 H   0  0  0  0  0  0  0  0  0  0  0  0
   65.6243   31.8149   49.3197 H   0  0  0  0  0  0  0  0  0  0  0  0
   65.7682   33.6080   49.2569 H   0  0  0  0  0  0  0  0  0  0  0  0
   66.1730   31.7908   51.5172 H   0  0  0  0  0  0  0  0  0  0  0  0
   66.5173   33.5689   51.3726 H   0  0  0  0  0  0  0  0  0  0  0  0
   63.2761   34.5194   52.4860 H   0  0  0  0  0  0  0  0  0  0  0  0
   64.8101   35.0652   51.6974 H   0  0  0  0  0  0  0  0  0  0  0  0
   62.3082   34.0968   50.4730 H   0  0  0  0  0  0  0  0  0  0  0  0
   63.7014   34.9744   49.7342 H   0  0  0  0  0  0  0  0  0  0  0  0
   61.6647   33.5060   45.7745 H   0  0  0  0  0  0  0  0  0  0  0  0
   56.5884   28.2234   44.9616 H   0  0  0  0  0  0  0  0  0  0  0  0
  1  2  1  0
  2  3  2  0
  2  4  2  0
  2  5  1  0
  5  6  2  0
  6  7  1  0
  7  8  2  0
  8  9  1  0
  9 10  1  0
 10 11  1  0
 11 12  2  0
 11 13  1  0
 13 14  1  0
 14 15  1  0
 15 16  2  0
 15 17  1  0
 17 18  2  0
 18 19  1  0
 19 20  2  0
 20 21  1  0
 21 22  1  0
 22 23  2  0
 22 24  2  0
 22 25  1  0
 25 26  1  0
 26 27  1  0
 27 28  1  0
 28 29  1  0
 29 30  1  0
 21 31  2  0
  9 32  2  0
 32  5  1  0
 31 17  1  0
 30 25  1  0
  1 33  1  0
  6 34  1  0
  7 35  1  0
  8 36  1  0
 10 37  1  0
 13 38  1  0
 13 39  1  0
 18 40  1  0
 19 41  1  0
 20 42  1  0
 26 43  1  0
 26 44  1  0
 27 45  1  0
 27 46  1  0
 29 47  1  0
 29 48  1  0
 30 49  1  0
 30 50  1  0
 31 51  1  0
 32 52  1  0
M  CHG  2   1  -1  14  -1
M  END
>  <UniqueID>  (96) 
90

>  <SMILES>  (96) 
[NH-]S(=O)(=O)c1cccc(NC(=O)C[N-]C(=O)c2cccc(S(=O)(=O)N3CCOCC3)c2)c1

>  <Energy>  (96) 
64.97477043664242

>  <Genealogy>  (96) 
[NH-]S(=O)(=O)c1cccc(NC(=O)C[N-]C(=O)c2cccc(S(=O)(=O)N3CCOCC3)c2)c1 (protonated)
[NH-]S(=O)(=O)c1cccc(NC(=O)C[N-]C(=O)c2cccc(S(=O)(=O)N3CCOCC3)c2)c1 (3D coordinates assigned)
[NH-]S(=O)(=O)c1cccc(NC(=O)C[N-]C(=O)c2cccc(S(=O)(=O)N3CCOCC3)c2)c1 (nonaromatic ring conformer: 64.97477043664242 kcal/mol)

>  <smiles>  (96) 
NS(=O)(=O)c1cccc(NC(=O)CNC(=O)c2cccc(S(=O)(=O)N3CCOCC3)c2)c1

>  <score_type>  (96) 
oracle

>  <origin>  (96) 
adg

>  <m_score__min__energy>  (96) 
-14.75

>  <m_primary>  (96) 
energy

$$$$
96:0
     RDKit          3D

 44 46  0  0  0  0  0  0  0  0999 V2000
   54.7840   26.3260   45.9870 N   0  0  0  0  0  0  0  0  0  0  0  0
   56.3440   25.6280   46.2410 S   0  0  0  0  0  0  0  0  0  0  0  0
   56.5590   24.5200   45.2480 O   0  0  0  0  0  0  0  0  0  0  0  0
   56.4180   25.0530   47.6270 O   0  0  0  0  0  0  0  0  0  0  0  0
   57.5850   26.8620   46.0450 C   0  0  0  0  0  0  0  0  0  0  0  0
   58.8320   26.7040   46.6620 C   0  0  0  0  0  0  0  0  0  0  0  0
   59.8070   27.6970   46.5400 C   0  0  0  0  0  0  0  0  0  0  0  0
   59.5430   28.8520   45.7980 C   0  0  0  0  0  0  0  0  0  0  0  0
   58.3060   29.0170   45.1610 C   0  0  0  0  0  0  0  0  0  0  0  0
   58.0540   30.2380   44.4510 N   0  0  0  0  0  0  0  0  0  0  0  0
   56.8680   31.0370   44.5550 C   0  0  0  0  0  0  0  0  0  0  0  0
   55.7300   30.4960   44.5460 O   0  0  0  0  0  0  0  0  0  0  0  0
   56.9740   32.5310   44.6040 C   0  0  0  0  0  0  0  0  0  0  0  0
   58.6430   33.1220   44.1400 S   0  0  0  0  0  0  0  0  0  0  0  0
   59.2470   33.2720   45.8210 C   0  0  0  0  0  0  0  0  0  0  0  0
   59.5650   32.1660   46.5340 N   0  0  0  0  0  0  0  0  0  0  0  0
   60.0130   32.1360   47.8250 C   0  0  0  0  0  0  0  0  0  0  0  0
   60.2690   31.0080   48.3240 O   0  0  0  0  0  0  0  0  0  0  0  0
   60.2010   33.3020   48.6260 C   0  0  0  0  0  0  0  0  0  0  0  0
   60.7030   33.1650   50.0470 C   0  0  0  0  0  0  0  0  0  0  0  0
   59.5520   32.9480   50.9940 C   0  0  0  0  0  0  0  0  0  0  0  0
   58.7580   31.7930   50.8880 C   0  0  0  0  0  0  0  0  0  0  0  0
   57.6680   31.6060   51.7440 C   0  0  0  0  0  0  0  0  0  0  0  0
   57.3620   32.5700   52.7090 C   0  0  0  0  0  0  0  0  0  0  0  0
   58.1450   33.7220   52.8180 C   0  0  0  0  0  0  0  0  0  0  0  0
   59.2350   33.9140   51.9640 C   0  0  0  0  0  0  0  0  0  0  0  0
   59.9800   34.5970   48.1330 C   0  0  0  0  0  0  0  0  0  0  0  0
   59.4320   34.7760   46.5510 S   0  0  0  0  0  0  0  0  0  0  0  0
   57.3220   28.0210   45.3010 C   0  0  0  0  0  0  0  0  0  0  0  0
   54.6460   27.0470   46.7300 H   0  0  0  0  0  0  0  0  0  0  0  0
   59.0445   25.7954   47.2444 H   0  0  0  0  0  0  0  0  0  0  0  0
   60.7842   27.5698   47.0287 H   0  0  0  0  0  0  0  0  0  0  0  0
   60.3105   29.6355   45.7138 H   0  0  0  0  0  0  0  0  0  0  0  0
   56.2396   32.9612   43.9072 H   0  0  0  0  0  0  0  0  0  0  0  0
   56.7789   32.8494   45.6387 H   0  0  0  0  0  0  0  0  0  0  0  0
   61.3885   32.3069   50.1077 H   0  0  0  0  0  0  0  0  0  0  0  0
   61.2273   34.0897   50.3300 H   0  0  0  0  0  0  0  0  0  0  0  0
   58.9949   31.0332   50.1287 H   0  0  0  0  0  0  0  0  0  0  0  0
   57.0509   30.6995   51.6579 H   0  0  0  0  0  0  0  0  0  0  0  0
   56.5049   32.4216   53.3824 H   0  0  0  0  0  0  0  0  0  0  0  0
   57.9032   34.4798   53.5777 H   0  0  0  0  0  0  0  0  0  0  0  0
   59.8465   34.8242   52.0516 H   0  0  0  0  0  0  0  0  0  0  0  0
   60.1611   35.4774   48.7672 H   0  0  0  0  0  0  0  0  0  0  0  0
   56.3398   28.1525   44.8235 H   0  0  0  0  0  0  0  0  0  0  0  0
  1  2  1  0
  2  3  2  0
  2  4  2  0
  2  5  1  0
  5  6  2  0
  6  7  1  0
  7  8  2  0
  8  9  1  0
  9 10  1  0
 10 11  1  0
 11 12  2  0
 11 13  1  0
 13 14  1  0
 14 15  1  0
 15 16  2  0
 16 17  1  0
 17 18  2  0
 17 19  1  0
 19 20  1  0
 20 21  1  0
 21 22  2  0
 22 23  1  0
 23 24  2  0
 24 25  1  0
 25 26  2  0
 19 27  2  0
 27 28  1  0
  9 29  2  0
 29  5  1  0
 28 15  1  0
 26 21  1  0
  1 30  1  0
  6 31  1  0
  7 32  1  0
  8 33  1  0
 13 34  1  0
 13 35  1  0
 20 36  1  0
 20 37  1  0
 22 38  1  0
 23 39  1  0
 24 40  1  0
 25 41  1  0
 26 42  1  0
 27 43  1  0
 29 44  1  0
M  CHG  2   1  -1  10  -1
M  END
>  <UniqueID>  (97) 
91

>  <SMILES>  (97) 
[NH-]S(=O)(=O)c1cccc([N-]C(=O)CSc2nc(=O)c(Cc3ccccc3)cs2)c1

>  <Energy>  (97) 
47.158210158250505

>  <Genealogy>  (97) 
[NH-]S(=O)(=O)c1cccc([N-]C(=O)CSc2nc(=O)c(Cc3ccccc3)cs2)c1 (protonated)
[NH-]S(=O)(=O)c1cccc([N-]C(=O)CSc2nc(=O)c(Cc3ccccc3)cs2)c1 (3D coordinates assigned)
[NH-]S(=O)(=O)c1cccc([N-]C(=O)CSc2nc(=O)c(Cc3ccccc3)cs2)c1 (optimized conformer: 47.158210158250505 kcal/mol)

>  <smiles>  (97) 
NS(=O)(=O)c1cccc(NC(=O)CSc2nc(=O)c(Cc3ccccc3)cs2)c1

>  <score_type>  (97) 
oracle

>  <origin>  (97) 
adg

>  <m_score__min__energy>  (97) 
-13.67

>  <m_primary>  (97) 
energy

$$$$
97:0
     RDKit          3D

 33 35  0  0  0  0  0  0  0  0999 V2000
   55.1540   29.3330   44.8760 N   0  0  0  0  0  0  0  0  0  0  0  0
   56.3890   29.7830   44.3210 C   0  0  0  0  0  0  0  0  0  0  0  0
   56.5040   29.8880   43.0700 O   0  0  0  0  0  0  0  0  0  0  0  0
   57.5070   30.1890   45.2030 C   0  0  0  0  0  0  0  0  0  0  0  0
   57.8500   31.5530   45.2490 C   0  0  0  0  0  0  0  0  0  0  0  0
   58.8180   32.0150   46.1410 C   0  0  0  0  0  0  0  0  0  0  0  0
   59.4590   31.1230   47.0000 C   0  0  0  0  0  0  0  0  0  0  0  0
   59.1500   29.7640   46.9540 C   0  0  0  0  0  0  0  0  0  0  0  0
   58.1930   29.2730   46.0470 C   0  0  0  0  0  0  0  0  0  0  0  0
   57.9980   27.8070   45.9640 C   0  0  0  0  0  0  0  0  0  0  0  0
   59.0340   26.9360   45.8300 N   0  0  0  0  0  0  0  0  0  0  0  0
   58.4130   25.7510   45.7420 C   0  0  0  0  0  0  0  0  0  0  0  0
   58.9920   24.4950   45.5920 C   0  0  0  0  0  0  0  0  0  0  0  0
   58.1340   23.3710   45.5100 C   0  0  0  0  0  0  0  0  0  0  0  0
   58.6930   22.0050   45.3450 C   0  0  0  0  0  0  0  0  0  0  0  0
   60.0720   21.8370   44.9970 N   0  0  0  0  0  0  0  0  0  0  0  0
   57.9410   20.9570   45.5070 N   0  0  0  0  0  0  0  0  0  0  0  0
   56.7280   23.5620   45.5760 C   0  0  0  0  0  0  0  0  0  0  0  0
   56.1830   24.8500   45.7270 C   0  0  0  0  0  0  0  0  0  0  0  0
   57.0670   25.9220   45.8060 C   0  0  0  0  0  0  0  0  0  0  0  0
   56.7690   27.2220   45.9390 N   0  0  0  0  0  0  0  0  0  0  0  0
   55.1370   28.6120   45.6310 H   0  0  0  0  0  0  0  0  0  0  0  0
   57.3493   32.2628   44.5741 H   0  0  0  0  0  0  0  0  0  0  0  0
   59.0759   33.0840   46.1667 H   0  0  0  0  0  0  0  0  0  0  0  0
   60.2093   31.4918   47.7148 H   0  0  0  0  0  0  0  0  0  0  0  0
   59.6607   29.0674   47.6351 H   0  0  0  0  0  0  0  0  0  0  0  0
   60.0845   24.3782   45.5386 H   0  0  0  0  0  0  0  0  0  0  0  0
   60.4700   20.8850   44.8320 H   0  0  0  0  0  0  0  0  0  0  0  0
   60.7210   22.6540   44.9520 H   0  0  0  0  0  0  0  0  0  0  0  0
   58.2520   20.0200   45.1640 H   0  0  0  0  0  0  0  0  0  0  0  0
   57.0010   21.0180   45.9550 H   0  0  0  0  0  0  0  0  0  0  0  0
   56.0575   22.6926   45.5082 H   0  0  0  0  0  0  0  0  0  0  0  0
   55.0952   25.0046   45.7808 H   0  0  0  0  0  0  0  0  0  0  0  0
  1  2  1  0
  2  3  2  0
  2  4  1  0
  4  5  2  0
  5  6  1  0
  6  7  2  0
  7  8  1  0
  8  9  2  0
  9 10  1  0
 10 11  2  0
 11 12  1  0
 12 13  2  0
 13 14  1  0
 14 15  1  0
 15 16  1  0
 15 17  2  0
 14 18  2  0
 18 19  1  0
 19 20  2  0
 20 21  1  0
  9  4  1  0
 21 10  1  0
 20 12  1  0
  1 22  1  0
  5 23  1  0
  6 24  1  0
  7 25  1  0
  8 26  1  0
 13 27  1  0
 16 28  1  0
 16 29  1  0
 17 30  1  0
 17 31  1  0
 18 32  1  0
 19 33  1  0
M  CHG  3   1  -1  17   1  21  -1
M  END
>  <UniqueID>  (98) 
92

>  <SMILES>  (98) 
[NH-]C(=O)c1ccccc1-c1nc2cc(C(N)=[NH2+])ccc2[n-]1

>  <Energy>  (98) 
81.20760531739177

>  <Genealogy>  (98) 
[NH-]C(=O)c1ccccc1-c1nc2cc(C(N)=[NH2+])ccc2[n-]1 (protonated)
[NH-]C(=O)c1ccccc1-c1nc2cc(C(N)=[NH2+])ccc2[n-]1 (3D coordinates assigned)
[NH-]C(=O)c1ccccc1-c1nc2cc(C(N)=[NH2+])ccc2[n-]1 (optimized conformer: 81.20760531739177 kcal/mol)

>  <smiles>  (98) 
N=C(N)c1ccc2[nH]c(-c3ccccc3C(N)=O)nc2c1

>  <score_type>  (98) 
oracle

>  <origin>  (98) 
adg

>  <m_score__min__energy>  (98) 
-11.06

>  <m_primary>  (98) 
energy

$$$$
98:0
     RDKit          3D

 49 52  0  0  0  0  0  0  0  0999 V2000
   58.7619   27.3236   54.6493 H   0  0  0  0  0  0  0  0  0  0  0  0
   57.6950   27.2040   54.8890 C   0  0  0  0  0  0  0  0  0  0  0  0
   57.3864   26.5338   55.7048 H   0  0  0  0  0  0  0  0  0  0  0  0
   56.7750   27.8720   54.1900 C   0  0  0  0  0  0  0  0  0  0  0  0
   55.4510   27.7580   54.4470 N   0  0  0  0  0  0  0  0  0  0  0  0
   54.8600   28.6170   53.5890 C   0  0  0  0  0  0  0  0  0  0  0  0
   53.5300   28.8000   53.5580 C   0  0  0  0  0  0  0  0  0  0  0  0
   52.9126   28.1709   54.2161 H   0  0  0  0  0  0  0  0  0  0  0  0
   52.8370   29.7850   52.7040 C   0  0  0  0  0  0  0  0  0  0  0  0
   53.0570   29.7730   51.3200 C   0  0  0  0  0  0  0  0  0  0  0  0
   53.7145   29.0109   50.8763 H   0  0  0  0  0  0  0  0  0  0  0  0
   52.4440   30.7260   50.5010 C   0  0  0  0  0  0  0  0  0  0  0  0
   52.6068   30.7005   49.4134 H   0  0  0  0  0  0  0  0  0  0  0  0
   51.6250   31.7110   51.0600 C   0  0  0  0  0  0  0  0  0  0  0  0
   51.0200   32.6520   50.2340 O   0  0  0  0  0  0  0  0  0  0  0  0
   51.4230   31.7490   52.4460 C   0  0  0  0  0  0  0  0  0  0  0  0
   50.3250   33.1010   53.2370 Br  0  0  0  0  0  0  0  0  0  0  0  0
   52.0380   30.7960   53.2670 C   0  0  0  0  0  0  0  0  0  0  0  0
   51.8956   30.8383   54.3569 H   0  0  0  0  0  0  0  0  0  0  0  0
   55.8440   29.2470   52.8460 C   0  0  0  0  0  0  0  0  0  0  0  0
   55.6780   30.1550   51.9890 O   0  0  0  0  0  0  0  0  0  0  0  0
   57.0470   28.7650   53.2040 N   0  0  0  0  0  0  0  0  0  0  0  0
   58.3200   29.1840   52.6840 C   0  0  0  0  0  0  0  0  0  0  0  0
   59.3750   28.7850   53.2480 O   0  0  0  0  0  0  0  0  0  0  0  0
   58.4150   30.1060   51.5270 C   0  0  0  0  0  0  0  0  0  0  0  0
   58.0790   31.4620   51.6710 C   0  0  0  0  0  0  0  0  0  0  0  0
   57.7482   31.8403   52.6495 H   0  0  0  0  0  0  0  0  0  0  0  0
   58.1610   32.3360   50.5820 C   0  0  0  0  0  0  0  0  0  0  0  0
   57.9021   33.3974   50.7105 H   0  0  0  0  0  0  0  0  0  0  0  0
   58.5730   31.8630   49.3240 C   0  0  0  0  0  0  0  0  0  0  0  0
   58.6650   32.7190   48.1780 N   0  0  0  0  0  0  0  0  0  0  0  0
   59.6160   34.1670   48.0870 S   0  0  0  0  0  0  0  0  0  0  0  0
   59.1860   34.9620   46.8860 O   0  0  0  0  0  0  0  0  0  0  0  0
   59.3870   34.9850   49.3250 O   0  0  0  0  0  0  0  0  0  0  0  0
   61.3270   33.7600   47.9810 C   0  0  0  0  0  0  0  0  0  0  0  0
   62.0290   33.3780   49.1330 C   0  0  0  0  0  0  0  0  0  0  0  0
   61.5131   33.3409   50.1038 H   0  0  0  0  0  0  0  0  0  0  0  0
   63.3850   33.0440   49.0490 C   0  0  0  0  0  0  0  0  0  0  0  0
   63.9331   32.7408   49.9533 H   0  0  0  0  0  0  0  0  0  0  0  0
   64.0440   33.0950   47.8180 C   0  0  0  0  0  0  0  0  0  0  0  0
   65.1100   32.8313   47.7535 H   0  0  0  0  0  0  0  0  0  0  0  0
   63.3490   33.4810   46.6690 C   0  0  0  0  0  0  0  0  0  0  0  0
   63.8688   33.5223   45.7004 H   0  0  0  0  0  0  0  0  0  0  0  0
   61.9930   33.8150   46.7490 C   0  0  0  0  0  0  0  0  0  0  0  0
   61.4485   34.1213   45.8436 H   0  0  0  0  0  0  0  0  0  0  0  0
   58.9000   30.5100   49.1760 C   0  0  0  0  0  0  0  0  0  0  0  0
   59.2232   30.1307   48.1953 H   0  0  0  0  0  0  0  0  0  0  0  0
   58.8190   29.6370   50.2650 C   0  0  0  0  0  0  0  0  0  0  0  0
   59.0734   28.5750   50.1332 H   0  0  0  0  0  0  0  0  0  0  0  0
  1  2  1  0
  2  3  1  0
  2  4  2  0
  4  5  1  0
  5  6  1  0
  6  7  2  0
  7  8  1  0
  7  9  1  0
  9 10  2  0
 10 11  1  0
 10 12  1  0
 12 13  1  0
 12 14  2  0
 14 15  1  0
 14 16  1  0
 16 17  1  0
 16 18  2  0
 18 19  1  0
  6 20  1  0
 20 21  2  0
 20 22  1  0
 22 23  1  0
 23 24  2  0
 23 25  1  0
 25 26  2  0
 26 27  1  0
 26 28  1  0
 28 29  1  0
 28 30  2  0
 30 31  1  0
 31 32  1  0
 32 33  2  0
 32 34  2  0
 32 35  1  0
 35 36  2  0
 36 37  1  0
 36 38  1  0
 38 39  1  0
 38 40  2  0
 40 41  1  0
 40 42  1  0
 42 43  1  0
 42 44  2  0
 44 45  1  0
 30 46  1  0
 46 47  1  0
 46 48  2  0
 48 49  1  0
 22  4  1  0
 48 25  1  0
 18  9  1  0
 44 35  1  0
M  CHG  3   5  -1  15  -1  31  -1
M  END
>  <UniqueID>  (99) 
93

>  <SMILES>  (99) 
C=c1[n-]/c(=C/c2ccc([O-])c(Br)c2)c(=O)n1C(=O)c1ccc([N-]S(=O)(=O)c2ccccc2)cc1

>  <Energy>  (99) 
104.96972650177929

>  <Genealogy>  (99) 
C=c1[n-]c(=Cc2ccc([O-])c(Br)c2)c(=O)n1C(=O)c1ccc([N-]S(=O)(=O)c2ccccc2)cc1 (protonated)
C=c1[n-]/c(=C/c2ccc([O-])c(Br)c2)c(=O)n1C(=O)c1ccc([N-]S(=O)(=O)c2ccccc2)cc1 (cis-trans isomerization)
C=c1[n-]/c(=C/c2ccc([O-])c(Br)c2)c(=O)n1C(=O)c1ccc([N-]S(=O)(=O)c2ccccc2)cc1 (3D coordinates assigned)
C=c1[n-]/c(=C/c2ccc([O-])c(Br)c2)c(=O)n1C(=O)c1ccc([N-]S(=O)(=O)c2ccccc2)cc1 (optimized conformer: 104.96972650177929 kcal/mol)

>  <smiles>  (99) 
C=c1[nH]c(=Cc2ccc(O)c(Br)c2)c(=O)n1C(=O)c1ccc(NS(=O)(=O)c2ccccc2)cc1

>  <score_type>  (99) 
oracle

>  <origin>  (99) 
adg

>  <m_score__min__energy>  (99) 
-15.609999999999999

>  <m_primary>  (99) 
energy

$$$$
